0:0
     RDKit          3D

 38 40  0  0  0  0  0  0  0  0999 V2000
   58.1130   27.4650   43.8160 O   0  0  0  0  0  0  0  0  0  0  0  0
   57.8320   28.0140   44.9150 C   0  0  0  0  0  0  0  0  0  0  0  0
   57.4990   27.1750   46.0330 N   0  0  0  0  0  0  0  0  0  0  0  0
   57.0860   25.9410   45.9690 C   0  0  0  0  0  0  0  0  0  0  0  0
   57.9720   24.9030   45.9380 N   0  0  0  0  0  0  0  0  0  0  0  0
   57.5640   23.6080   45.8860 C   0  0  0  0  0  0  0  0  0  0  0  0
   56.2010   23.3050   45.8720 C   0  0  0  0  0  0  0  0  0  0  0  0
   55.2710   24.3440   45.9150 C   0  0  0  0  0  0  0  0  0  0  0  0
   55.7090   25.6710   45.9670 C   0  0  0  0  0  0  0  0  0  0  0  0
   54.7810   26.7060   46.0140 O   0  0  0  0  0  0  0  0  0  0  0  0
   57.9140   29.4890   45.0290 C   0  0  0  0  0  0  0  0  0  0  0  0
   58.2470   30.0990   46.2520 C   0  0  0  0  0  0  0  0  0  0  0  0
   58.3330   31.4910   46.3490 C   0  0  0  0  0  0  0  0  0  0  0  0
   58.1030   32.2910   45.2240 C   0  0  0  0  0  0  0  0  0  0  0  0
   58.2240   34.0430   45.3500 S   0  0  0  0  0  0  0  0  0  0  0  0
   59.0750   34.5960   44.2400 O   0  0  0  0  0  0  0  0  0  0  0  0
   56.8470   34.6340   45.2540 O   0  0  0  0  0  0  0  0  0  0  0  0
   58.9260   34.4840   46.8730 N   0  0  0  0  0  0  0  0  0  0  0  0
   60.2670   34.1850   47.2840 C   0  0  0  0  0  0  0  0  0  0  0  0
   61.2730   33.8420   46.3600 C   0  0  0  0  0  0  0  0  0  0  0  0
   62.5660   33.5490   46.8060 C   0  0  0  0  0  0  0  0  0  0  0  0
   62.8680   33.6000   48.1680 C   0  0  0  0  0  0  0  0  0  0  0  0
   61.8760   33.9440   49.0900 C   0  0  0  0  0  0  0  0  0  0  0  0
   60.5810   34.2360   48.6510 C   0  0  0  0  0  0  0  0  0  0  0  0
   59.6260   34.5650   49.5570 F   0  0  0  0  0  0  0  0  0  0  0  0
   57.7810   31.6900   44.0010 C   0  0  0  0  0  0  0  0  0  0  0  0
   57.6930   30.2980   43.9020 C   0  0  0  0  0  0  0  0  0  0  0  0
   58.3077   22.7981   45.8549 H   0  0  0  0  0  0  0  0  0  0  0  0
   55.8643   22.2587   45.8276 H   0  0  0  0  0  0  0  0  0  0  0  0
   54.1942   24.1196   45.9080 H   0  0  0  0  0  0  0  0  0  0  0  0
   58.4410   29.4766   47.1380 H   0  0  0  0  0  0  0  0  0  0  0  0
   58.5823   31.9590   47.3128 H   0  0  0  0  0  0  0  0  0  0  0  0
   61.0414   33.8044   45.2853 H   0  0  0  0  0  0  0  0  0  0  0  0
   63.3475   33.2775   46.0811 H   0  0  0  0  0  0  0  0  0  0  0  0
   63.8861   33.3696   48.5151 H   0  0  0  0  0  0  0  0  0  0  0  0
   62.1143   33.9852   50.1631 H   0  0  0  0  0  0  0  0  0  0  0  0
   57.5966   32.3152   43.1149 H   0  0  0  0  0  0  0  0  0  0  0  0
   57.4491   29.8333   42.9352 H   0  0  0  0  0  0  0  0  0  0  0  0
  1  2  2  0
  2  3  1  0
  3  4  2  3
  4  5  1  0
  5  6  1  0
  6  7  2  0
  7  8  1  0
  8  9  2  0
  9 10  1  0
  2 11  1  0
 11 12  2  0
 12 13  1  0
 13 14  2  0
 14 15  1  0
 15 16  2  0
 15 17  2  0
 15 18  1  0
 18 19  1  0
 19 20  2  0
 20 21  1  0
 21 22  2  0
 22 23  1  0
 23 24  2  0
 24 25  1  0
 14 26  1  0
 26 27  2  0
  9  4  1  0
 27 11  1  0
 24 19  1  0
  6 28  1  0
  7 29  1  0
  8 30  1  0
 12 31  1  0
 13 32  1  0
 20 33  1  0
 21 34  1  0
 22 35  1  0
 23 36  1  0
 26 37  1  0
 27 38  1  0
M  CHG  3   5  -1  10  -1  18  -1
M  END
>  <UniqueID>  (1) 
1

>  <SMILES>  (1) 
O=C(N=c1[n-]cccc1[O-])c1ccc(S(=O)(=O)[N-]c2ccccc2F)cc1

>  <Energy>  (1) 
53.33954943830814

>  <Genealogy>  (1) 
O=C(N=c1[n-]cccc1[O-])c1ccc(S(=O)(=O)[N-]c2ccccc2F)cc1 (protonated)
O=C(N=c1[n-]cccc1[O-])c1ccc(S(=O)(=O)[N-]c2ccccc2F)cc1 (3D coordinates assigned)
O=C(N=c1[n-]cccc1[O-])c1ccc(S(=O)(=O)[N-]c2ccccc2F)cc1 (optimized conformer: 53.33954943830814 kcal/mol)

>  <smiles>  (1) 
O=C(N=c1[nH]cccc1O)c1ccc(S(=O)(=O)Nc2ccccc2F)cc1

>  <score_type>  (1) 
oracle

>  <origin>  (1) 
adg

>  <m_score__min__energy>  (1) 
-15.42

>  <m_primary>  (1) 
energy

$$$$
1:0
     RDKit          3D

 39 41  0  0  0  0  0  0  0  0999 V2000
   56.6450   28.9560   42.4790 N   0  0  0  0  0  0  0  0  0  0  0  0
   56.3550   29.4990   43.8080 C   0  0  1  0  0  0  0  0  0  0  0  0
   56.8810   28.5600   44.9140 C   0  0  0  0  0  0  0  0  0  0  0  0
   58.2390   28.9910   45.4100 C   0  0  0  0  0  0  0  0  0  0  0  0
   59.3970   28.6420   44.6950 C   0  0  0  0  0  0  0  0  0  0  0  0
   60.6570   29.0120   45.1730 C   0  0  0  0  0  0  0  0  0  0  0  0
   60.7730   29.7250   46.3700 C   0  0  0  0  0  0  0  0  0  0  0  0
   59.6250   30.0670   47.0910 C   0  0  0  0  0  0  0  0  0  0  0  0
   58.3620   29.7010   46.6170 C   0  0  0  0  0  0  0  0  0  0  0  0
   56.9630   30.8660   43.9240 C   0  0  0  0  0  0  0  0  0  0  0  0
   57.8740   31.3670   43.0690 N   0  0  0  0  0  0  0  0  0  0  0  0
   58.1670   32.5810   43.5080 N   0  0  0  0  0  0  0  0  0  0  0  0
   57.4230   32.7680   44.6120 C   0  0  0  0  0  0  0  0  0  0  0  0
   57.4610   34.2520   45.6130 S   0  0  0  0  0  0  0  0  0  0  0  0
   57.9690   33.3840   47.1390 C   0  0  0  0  0  0  0  0  0  0  0  0
   59.4580   33.4900   47.3500 C   0  0  0  0  0  0  0  0  0  0  0  0
   60.3060   33.6560   46.2420 C   0  0  0  0  0  0  0  0  0  0  0  0
   61.6850   33.7960   46.4250 C   0  0  0  0  0  0  0  0  0  0  0  0
   62.2280   33.7740   47.7110 C   0  0  0  0  0  0  0  0  0  0  0  0
   61.3930   33.6100   48.8190 C   0  0  0  0  0  0  0  0  0  0  0  0
   60.0130   33.4680   48.6450 C   0  0  0  0  0  0  0  0  0  0  0  0
   59.2220   33.3240   49.7390 F   0  0  0  0  0  0  0  0  0  0  0  0
   56.6780   31.7240   44.8740 O   0  0  0  0  0  0  0  0  0  0  0  0
   55.8300   29.1310   41.8460 H   0  0  0  0  0  0  0  0  0  0  0  0
   57.4660   29.4670   42.0810 H   0  0  0  0  0  0  0  0  0  0  0  0
   55.2657   29.5777   43.9389 H   0  0  0  0  0  0  0  0  0  0  0  0
   56.1738   28.5697   45.7565 H   0  0  0  0  0  0  0  0  0  0  0  0
   56.9746   27.5490   44.4908 H   0  0  0  0  0  0  0  0  0  0  0  0
   59.3116   28.0757   43.7559 H   0  0  0  0  0  0  0  0  0  0  0  0
   61.5599   28.7415   44.6059 H   0  0  0  0  0  0  0  0  0  0  0  0
   61.7656   30.0164   46.7438 H   0  0  0  0  0  0  0  0  0  0  0  0
   59.7160   30.6258   48.0341 H   0  0  0  0  0  0  0  0  0  0  0  0
   57.4621   29.9692   47.1899 H   0  0  0  0  0  0  0  0  0  0  0  0
   57.4508   33.8342   47.9985 H   0  0  0  0  0  0  0  0  0  0  0  0
   57.7032   32.3209   47.0428 H   0  0  0  0  0  0  0  0  0  0  0  0
   59.8833   33.6759   45.2267 H   0  0  0  0  0  0  0  0  0  0  0  0
   62.3438   33.9238   45.5535 H   0  0  0  0  0  0  0  0  0  0  0  0
   63.3132   33.8858   47.8518 H   0  0  0  0  0  0  0  0  0  0  0  0
   61.8226   33.5925   49.8315 H   0  0  0  0  0  0  0  0  0  0  0  0
  1  2  1  0
  2  3  1  0
  3  4  1  0
  4  5  2  0
  5  6  1  0
  6  7  2  0
  7  8  1  0
  8  9  2  0
  2 10  1  0
 10 11  2  0
 11 12  1  0
 12 13  2  0
 13 14  1  0
 14 15  1  0
 15 16  1  0
 16 17  2  0
 17 18  1  0
 18 19  2  0
 19 20  1  0
 20 21  2  0
 21 22  1  0
 13 23  1  0
  9  4  1  0
 23 10  1  0
 21 16  1  0
  1 24  1  0
  1 25  1  0
  2 26  1  1
  3 27  1  0
  3 28  1  0
  5 29  1  0
  6 30  1  0
  7 31  1  0
  8 32  1  0
  9 33  1  0
 15 34  1  0
 15 35  1  0
 17 36  1  0
 18 37  1  0
 19 38  1  0
 20 39  1  0
M  END
>  <UniqueID>  (2) 
2

>  <SMILES>  (2) 
N[C@@H](Cc1ccccc1)c1nnc(SCc2ccccc2F)o1

>  <Energy>  (2) 
67.11100079353582

>  <Genealogy>  (2) 
N[C@@H](Cc1ccccc1)c1nnc(SCc2ccccc2F)o1 (chirality)
N[C@@H](Cc1ccccc1)c1nnc(SCc2ccccc2F)o1 (3D coordinates assigned)
N[C@@H](Cc1ccccc1)c1nnc(SCc2ccccc2F)o1 (optimized conformer: 67.11100079353582 kcal/mol)

>  <smiles>  (2) 
NC(Cc1ccccc1)c1nnc(SCc2ccccc2F)o1

>  <score_type>  (2) 
oracle

>  <origin>  (2) 
adg

>  <m_score__min__energy>  (2) 
-7.9800000000000004

>  <m_primary>  (2) 
energy

$$$$
2:0
     RDKit          3D

 77 81  0  0  0  0  0  0  0  0999 V2000
   51.1260   31.6370   52.2420 C   0  0  0  0  0  0  0  0  0  0  0  0
   52.2800   31.2650   51.3030 C   0  0  0  0  0  0  0  0  0  0  0  0
   51.7870   30.3990   50.1360 C   0  0  0  0  0  0  0  0  0  0  0  0
   53.4010   30.5740   52.0570 C   0  0  0  0  0  0  0  0  0  0  0  0
   54.7230   31.0510   51.9910 C   0  0  0  0  0  0  0  0  0  0  0  0
   55.7440   30.4090   52.6980 C   0  0  0  0  0  0  0  0  0  0  0  0
   55.4730   29.2750   53.4810 C   0  0  0  0  0  0  0  0  0  0  0  0
   56.5700   28.6130   54.2290 C   0  0  0  0  0  0  0  0  0  0  0  0
   56.5670   28.6560   55.4910 O   0  0  0  0  0  0  0  0  0  0  0  0
   57.6490   27.9470   53.5460 N   0  0  0  0  0  0  0  0  0  0  0  0
   58.7390   27.2830   54.2610 C   0  0  0  0  0  0  0  0  0  0  0  0
   60.0390   27.3210   53.4510 C   0  0  0  0  0  0  0  0  0  0  0  0
   60.2400   28.6640   52.8080 C   0  0  0  0  0  0  0  0  0  0  0  0
   59.2260   29.5620   52.6920 N   0  0  0  0  0  0  0  0  0  0  0  0
   59.7780   30.5520   51.9710 C   0  0  0  0  0  0  0  0  0  0  0  0
   59.1590   31.7130   51.5210 C   0  0  0  0  0  0  0  0  0  0  0  0
   59.9080   32.5880   50.7160 C   0  0  0  0  0  0  0  0  0  0  0  0
   61.2490   32.2820   50.3740 C   0  0  0  0  0  0  0  0  0  0  0  0
   62.1560   33.3580   49.3100 S   0  0  0  0  0  0  0  0  0  0  0  0
   63.6280   33.1740   49.5640 O   0  0  0  0  0  0  0  0  0  0  0  0
   61.8070   34.7810   49.6500 O   0  0  0  0  0  0  0  0  0  0  0  0
   61.8090   33.0790   47.6160 N   0  0  0  0  0  0  0  0  0  0  0  0
   60.4190   33.4290   47.2330 C   0  0  0  0  0  0  0  0  0  0  0  0
   59.6270   32.2620   46.6200 C   0  0  0  0  0  0  0  0  0  0  0  0
   59.8790   30.9830   47.4180 C   0  0  0  0  0  0  0  0  0  0  0  0
   59.0160   29.8520   46.9290 C   0  0  0  0  0  0  0  0  0  0  0  0
   59.4290   28.6640   47.0250 O   0  0  0  0  0  0  0  0  0  0  0  0
   57.7020   30.1170   46.4170 N   0  0  0  0  0  0  0  0  0  0  0  0
   57.3360   30.2780   45.1750 C   0  0  0  0  0  0  0  0  0  0  0  0
   58.0540   31.1480   44.4110 N   0  0  0  0  0  0  0  0  0  0  0  0
   57.7580   31.3960   43.1080 C   0  0  0  0  0  0  0  0  0  0  0  0
   56.6880   30.7440   42.4990 C   0  0  0  0  0  0  0  0  0  0  0  0
   55.9420   29.8250   43.2360 C   0  0  0  0  0  0  0  0  0  0  0  0
   56.2630   29.5690   44.5720 C   0  0  0  0  0  0  0  0  0  0  0  0
   55.5400   28.5890   45.2460 O   0  0  0  0  0  0  0  0  0  0  0  0
   61.3700   30.5910   47.3680 C   0  0  0  0  0  0  0  0  0  0  0  0
   62.3160   31.7850   47.1140 C   0  0  0  0  0  0  0  0  0  0  0  0
   61.8520   31.1080   50.8710 C   0  0  0  0  0  0  0  0  0  0  0  0
   61.0740   30.2570   51.6590 C   0  0  0  0  0  0  0  0  0  0  0  0
   61.3860   29.0610   52.1880 N   0  0  0  0  0  0  0  0  0  0  0  0
   62.6170   28.2890   52.0060 C   0  0  0  0  0  0  0  0  0  0  0  0
   54.1480   28.8080   53.5580 C   0  0  0  0  0  0  0  0  0  0  0  0
   53.1250   29.4490   52.8530 C   0  0  0  0  0  0  0  0  0  0  0  0
   51.4545   31.5311   53.2865 H   0  0  0  0  0  0  0  0  0  0  0  0
   50.8235   32.6782   52.0565 H   0  0  0  0  0  0  0  0  0  0  0  0
   50.2723   30.9685   52.0565 H   0  0  0  0  0  0  0  0  0  0  0  0
   52.6826   32.1990   50.8839 H   0  0  0  0  0  0  0  0  0  0  0  0
   51.2790   29.5067   50.5306 H   0  0  0  0  0  0  0  0  0  0  0  0
   51.0838   30.9791   49.5204 H   0  0  0  0  0  0  0  0  0  0  0  0
   52.6448   30.0904   49.5204 H   0  0  0  0  0  0  0  0  0  0  0  0
   54.9548   31.9351   51.3789 H   0  0  0  0  0  0  0  0  0  0  0  0
   56.7718   30.7966   52.6403 H   0  0  0  0  0  0  0  0  0  0  0  0
   57.6970   27.9580   52.5030 H   0  0  0  0  0  0  0  0  0  0  0  0
   58.9004   27.7930   55.2222 H   0  0  0  0  0  0  0  0  0  0  0  0
   58.4598   26.2312   54.4213 H   0  0  0  0  0  0  0  0  0  0  0  0
   60.8858   27.1141   54.1219 H   0  0  0  0  0  0  0  0  0  0  0  0
   59.9774   26.5611   52.6581 H   0  0  0  0  0  0  0  0  0  0  0  0
   58.1159   31.9393   51.7868 H   0  0  0  0  0  0  0  0  0  0  0  0
   59.4498   33.5180   50.3483 H   0  0  0  0  0  0  0  0  0  0  0  0
   59.8881   33.7724   48.1331 H   0  0  0  0  0  0  0  0  0  0  0  0
   60.4883   34.2080   46.4594 H   0  0  0  0  0  0  0  0  0  0  0  0
   58.5531   32.4993   46.6418 H   0  0  0  0  0  0  0  0  0  0  0  0
   59.9544   32.1097   45.5810 H   0  0  0  0  0  0  0  0  0  0  0  0
   59.6076   31.1843   48.4648 H   0  0  0  0  0  0  0  0  0  0  0  0
   58.3639   32.1123   42.5336 H   0  0  0  0  0  0  0  0  0  0  0  0
   56.4346   30.9518   41.4489 H   0  0  0  0  0  0  0  0  0  0  0  0
   55.0983   29.2999   42.7645 H   0  0  0  0  0  0  0  0  0  0  0  0
   61.6410   30.1314   48.3299 H   0  0  0  0  0  0  0  0  0  0  0  0
   61.4926   29.8974   46.5231 H   0  0  0  0  0  0  0  0  0  0  0  0
   63.2759   31.5756   47.6088 H   0  0  0  0  0  0  0  0  0  0  0  0
   62.4110   31.8855   46.0227 H   0  0  0  0  0  0  0  0  0  0  0  0
   62.9019   30.8701   50.6451 H   0  0  0  0  0  0  0  0  0  0  0  0
   63.0344   28.0272   52.9895 H   0  0  0  0  0  0  0  0  0  0  0  0
   62.3934   27.3690   51.4459 H   0  0  0  0  0  0  0  0  0  0  0  0
   63.3478   28.8908   51.4459 H   0  0  0  0  0  0  0  0  0  0  0  0
   53.9148   27.9303   54.1787 H   0  0  0  0  0  0  0  0  0  0  0  0
   52.0948   29.0695   52.9219 H   0  0  0  0  0  0  0  0  0  0  0  0
  1  2  1  0
  2  3  1  0
  2  4  1  0
  4  5  2  0
  5  6  1  0
  6  7  2  0
  7  8  1  0
  8  9  2  0
  8 10  1  0
 10 11  1  0
 11 12  1  0
 12 13  1  0
 13 14  2  0
 14 15  1  0
 15 16  2  0
 16 17  1  0
 17 18  2  0
 18 19  1  0
 19 20  2  0
 19 21  2  0
 19 22  1  0
 22 23  1  0
 23 24  1  0
 24 25  1  0
 25 26  1  0
 26 27  2  0
 26 28  1  0
 28 29  2  3
 29 30  1  0
 30 31  1  0
 31 32  2  0
 32 33  1  0
 33 34  2  0
 34 35  1  0
 25 36  1  0
 36 37  1  0
 18 38  1  0
 38 39  2  0
 39 40  1  0
 40 41  1  0
  7 42  1  0
 42 43  2  0
 43  4  1  0
 40 13  1  0
 39 15  1  0
 37 22  1  0
 34 29  1  0
  1 44  1  0
  1 45  1  0
  1 46  1  0
  2 47  1  0
  3 48  1  0
  3 49  1  0
  3 50  1  0
  5 51  1  0
  6 52  1  0
 10 53  1  0
 11 54  1  0
 11 55  1  0
 12 56  1  0
 12 57  1  0
 16 58  1  0
 17 59  1  0
 23 60  1  0
 23 61  1  0
 24 62  1  0
 24 63  1  0
 25 64  1  0
 31 65  1  0
 32 66  1  0
 33 67  1  0
 36 68  1  0
 36 69  1  0
 37 70  1  0
 37 71  1  0
 38 72  1  0
 41 73  1  0
 41 74  1  0
 41 75  1  0
 42 76  1  0
 43 77  1  0
M  CHG  2  30  -1  35  -1
M  END
>  <UniqueID>  (3) 
3

>  <SMILES>  (3) 
CC(C)c1ccc(C(=O)NCCc2nc3ccc(S(=O)(=O)N4CCC(C(=O)N=c5[n-]cccc5[O-])CC4)cc3n2C)cc1

>  <Energy>  (3) 
132.278269299754

>  <Genealogy>  (3) 
CC(C)c1ccc(C(=O)NCCc2nc3ccc(S(=O)(=O)N4CCC(C(=O)N=c5[n-]cccc5[O-])CC4)cc3n2C)cc1 (protonated)
CC(C)c1ccc(C(=O)NCCc2nc3ccc(S(=O)(=O)N4CCC(C(=O)N=c5[n-]cccc5[O-])CC4)cc3n2C)cc1 (3D coordinates assigned)
CC(C)c1ccc(C(=O)NCCc2nc3ccc(S(=O)(=O)N4CCC(C(=O)N=c5[n-]cccc5[O-])CC4)cc3n2C)cc1 (nonaromatic ring conformer: 132.278269299754 kcal/mol)

>  <smiles>  (3) 
CC(C)c1ccc(C(=O)NCCc2nc3ccc(S(=O)(=O)N4CCC(C(=O)N=c5[nH]cccc5O)CC4)cc3n2C)cc1

>  <score_type>  (3) 
oracle

>  <origin>  (3) 
adg

>  <m_score__min__energy>  (3) 
-16.43

>  <m_primary>  (3) 
energy

$$$$
3:0
     RDKit          3D

 31 32  0  0  0  0  0  0  0  0999 V2000
   56.8400   28.2230   44.4740 N   0  0  0  0  0  0  0  0  0  0  0  0
   57.7680   28.8390   45.3400 N   0  0  0  0  0  0  0  0  0  0  0  0
   58.7400   28.1060   45.9730 C   0  0  0  0  0  0  0  0  0  0  0  0
   58.8990   26.3280   45.7500 S   0  0  0  0  0  0  0  0  0  0  0  0
   57.4630   25.9490   46.8150 C   0  0  0  0  0  0  0  0  0  0  0  0
   56.2210   25.7180   45.9960 C   0  0  0  0  0  0  0  0  0  0  0  0
   55.2940   26.5730   46.0350 O   0  0  0  0  0  0  0  0  0  0  0  0
   56.0990   24.5780   45.1170 N   0  0  0  0  0  0  0  0  0  0  0  0
   54.7610   24.0670   44.7850 C   0  0  0  0  0  0  0  0  0  0  0  0
   54.7860   23.3400   43.4370 C   0  0  0  0  0  0  0  0  0  0  0  0
   55.8180   22.3730   43.4080 O   0  0  0  0  0  0  0  0  0  0  0  0
   57.0720   23.0210   43.4720 C   0  0  0  0  0  0  0  0  0  0  0  0
   57.2570   23.7230   44.8210 C   0  0  0  0  0  0  0  0  0  0  0  0
   59.6220   28.7270   46.7990 N   0  0  0  0  0  0  0  0  0  0  0  0
   59.5630   30.0390   47.0140 N   0  0  0  0  0  0  0  0  0  0  0  0
   58.6190   30.8000   46.4130 C   0  0  0  0  0  0  0  0  0  0  0  0
   57.7020   30.1890   45.5590 C   0  0  0  0  0  0  0  0  0  0  0  0
   56.8200   30.8930   44.9960 O   0  0  0  0  0  0  0  0  0  0  0  0
   56.6740   27.1930   44.4800 H   0  0  0  0  0  0  0  0  0  0  0  0
   56.2830   28.7800   43.7890 H   0  0  0  0  0  0  0  0  0  0  0  0
   57.6800   25.0433   47.4003 H   0  0  0  0  0  0  0  0  0  0  0  0
   57.2865   26.8081   47.4789 H   0  0  0  0  0  0  0  0  0  0  0  0
   54.4359   23.3666   45.5685 H   0  0  0  0  0  0  0  0  0  0  0  0
   54.0617   24.9137   44.7207 H   0  0  0  0  0  0  0  0  0  0  0  0
   53.8189   22.8405   43.2785 H   0  0  0  0  0  0  0  0  0  0  0  0
   54.9705   24.0772   42.6417 H   0  0  0  0  0  0  0  0  0  0  0  0
   57.8698   22.2750   43.3419 H   0  0  0  0  0  0  0  0  0  0  0  0
   57.1181   23.7764   42.6737 H   0  0  0  0  0  0  0  0  0  0  0  0
   57.3602   22.9659   45.6123 H   0  0  0  0  0  0  0  0  0  0  0  0
   58.1604   24.3490   44.7764 H   0  0  0  0  0  0  0  0  0  0  0  0
   58.5759   31.8839   46.5955 H   0  0  0  0  0  0  0  0  0  0  0  0
  1  2  1  0
  2  3  1  0
  3  4  1  0
  4  5  1  0
  5  6  1  0
  6  7  2  0
  6  8  1  0
  8  9  1  0
  9 10  1  0
 10 11  1  0
 11 12  1  0
 12 13  1  0
  3 14  2  0
 14 15  1  0
 15 16  2  0
 16 17  1  0
 17 18  2  0
 17  2  1  0
 13  8  1  0
  1 19  1  0
  1 20  1  0
  5 21  1  0
  5 22  1  0
  9 23  1  0
  9 24  1  0
 10 25  1  0
 10 26  1  0
 12 27  1  0
 12 28  1  0
 13 29  1  0
 13 30  1  0
 16 31  1  0
M  END
>  <UniqueID>  (4) 
4

>  <SMILES>  (4) 
Nn1c(SCC(=O)N2CCOCC2)nncc1=O

>  <Energy>  (4) 
33.546824008402794

>  <Genealogy>  (4) 
Nn1c(SCC(=O)N2CCOCC2)nncc1=O (3D coordinates assigned)
Nn1c(SCC(=O)N2CCOCC2)nncc1=O (nonaromatic ring conformer: 33.546824008402794 kcal/mol)

>  <smiles>  (4) 
Nn1c(SCC(=O)N2CCOCC2)nncc1=O

>  <score_type>  (4) 
oracle

>  <origin>  (4) 
adg

>  <m_score__min__energy>  (4) 
-6.7000000000000002

>  <m_primary>  (4) 
energy

$$$$
4:0
     RDKit          3D

 55 58  0  0  0  0  0  0  0  0999 V2000
   57.3760   23.9930   43.9900 C   0  0  0  0  0  0  0  0  0  0  0  0
   57.6030   25.0510   45.0360 C   0  0  0  0  0  0  0  0  0  0  0  0
   57.5920   26.4080   44.6710 C   0  0  0  0  0  0  0  0  0  0  0  0
   57.7790   27.4160   45.6330 C   0  0  0  0  0  0  0  0  0  0  0  0
   57.7680   28.8490   45.2370 C   0  0  0  0  0  0  0  0  0  0  0  0
   56.6750   29.3890   44.5350 C   0  0  0  0  0  0  0  0  0  0  0  0
   56.6730   30.7330   44.1510 C   0  0  0  0  0  0  0  0  0  0  0  0
   57.7590   31.5620   44.4640 C   0  0  0  0  0  0  0  0  0  0  0  0
   57.7680   33.0100   44.0490 C   0  0  0  0  0  0  0  0  0  0  0  0
   57.8440   33.8790   45.2180 N   0  0  0  0  0  0  0  0  0  0  0  0
   59.0550   34.2840   45.8680 C   0  0  0  0  0  0  0  0  0  0  0  0
   59.5850   35.3770   45.5350 O   0  0  0  0  0  0  0  0  0  0  0  0
   59.6450   33.4810   46.9040 N   0  0  0  0  0  0  0  0  0  0  0  0
   61.0090   33.6320   47.3420 C   0  0  0  0  0  0  0  0  0  0  0  0
   62.0690   33.5800   46.4180 C   0  0  0  0  0  0  0  0  0  0  0  0
   63.3940   33.6900   46.8490 C   0  0  0  0  0  0  0  0  0  0  0  0
   63.6770   33.8410   48.2070 C   0  0  0  0  0  0  0  0  0  0  0  0
   62.6360   33.8840   49.1380 C   0  0  0  0  0  0  0  0  0  0  0  0
   61.3060   33.7730   48.7150 C   0  0  0  0  0  0  0  0  0  0  0  0
   60.0320   33.8440   49.9280 Cl  0  0  0  0  0  0  0  0  0  0  0  0
   58.8500   31.0280   45.1650 C   0  0  0  0  0  0  0  0  0  0  0  0
   58.8540   29.6850   45.5500 C   0  0  0  0  0  0  0  0  0  0  0  0
   57.9590   27.0460   46.9760 C   0  0  0  0  0  0  0  0  0  0  0  0
   57.9590   25.7020   47.3490 C   0  0  0  0  0  0  0  0  0  0  0  0
   57.8020   24.6940   46.3830 C   0  0  0  0  0  0  0  0  0  0  0  0
   57.7640   23.3100   46.7650 N   0  0  0  0  0  0  0  0  0  0  0  0
   56.8110   22.6940   47.6430 C   0  0  0  0  0  0  0  0  0  0  0  0
   57.0970   21.5830   48.1650 O   0  0  0  0  0  0  0  0  0  0  0  0
   55.5080   23.3590   47.9960 C   0  0  0  0  0  0  0  0  0  0  0  0
   54.6280   23.4630   46.7900 C   0  0  0  0  0  0  0  0  0  0  0  0
   53.8590   22.4550   46.2600 C   0  0  0  0  0  0  0  0  0  0  0  0
   53.2430   22.9140   45.1580 N   0  0  0  0  0  0  0  0  0  0  0  0
   53.6650   24.1930   45.0520 C   0  0  0  0  0  0  0  0  0  0  0  0
   54.5200   24.5650   46.0280 N   0  0  0  0  0  0  0  0  0  0  0  0
   57.1695   23.0305   44.4808 H   0  0  0  0  0  0  0  0  0  0  0  0
   56.5181   24.2760   43.3623 H   0  0  0  0  0  0  0  0  0  0  0  0
   58.2745   23.8992   43.3623 H   0  0  0  0  0  0  0  0  0  0  0  0
   57.4349   26.6853   43.6182 H   0  0  0  0  0  0  0  0  0  0  0  0
   55.8156   28.7489   44.2865 H   0  0  0  0  0  0  0  0  0  0  0  0
   55.8138   31.1426   43.5997 H   0  0  0  0  0  0  0  0  0  0  0  0
   58.6391   33.1956   43.4034 H   0  0  0  0  0  0  0  0  0  0  0  0
   56.8374   33.2285   43.5048 H   0  0  0  0  0  0  0  0  0  0  0  0
   59.0360   32.7980   47.4060 H   0  0  0  0  0  0  0  0  0  0  0  0
   61.8529   33.4517   45.3471 H   0  0  0  0  0  0  0  0  0  0  0  0
   64.2144   33.6575   46.1170 H   0  0  0  0  0  0  0  0  0  0  0  0
   64.7204   33.9262   48.5448 H   0  0  0  0  0  0  0  0  0  0  0  0
   62.8623   34.0055   50.2076 H   0  0  0  0  0  0  0  0  0  0  0  0
   59.7077   31.6704   45.4132 H   0  0  0  0  0  0  0  0  0  0  0  0
   59.7139   29.2784   46.1025 H   0  0  0  0  0  0  0  0  0  0  0  0
   58.1013   27.8236   47.7409 H   0  0  0  0  0  0  0  0  0  0  0  0
   58.0829   25.4292   48.4074 H   0  0  0  0  0  0  0  0  0  0  0  0
   54.9960   22.7651   48.7674 H   0  0  0  0  0  0  0  0  0  0  0  0
   55.7162   24.3714   48.3723 H   0  0  0  0  0  0  0  0  0  0  0  0
   53.7635   21.4390   46.6707 H   0  0  0  0  0  0  0  0  0  0  0  0
   53.3421   24.8681   44.2458 H   0  0  0  0  0  0  0  0  0  0  0  0
  1  2  1  0
  2  3  2  0
  3  4  1  0
  4  5  1  0
  5  6  2  0
  6  7  1  0
  7  8  2  0
  8  9  1  0
  9 10  1  0
 10 11  1  0
 11 12  2  0
 11 13  1  0
 13 14  1  0
 14 15  2  0
 15 16  1  0
 16 17  2  0
 17 18  1  0
 18 19  2  0
 19 20  1  0
  8 21  1  0
 21 22  2  0
  4 23  2  0
 23 24  1  0
 24 25  2  0
 25 26  1  0
 26 27  1  0
 27 28  2  0
 27 29  1  0
 29 30  1  0
 30 31  2  0
 31 32  1  0
 32 33  1  0
 33 34  2  0
 25  2  1  0
 34 30  1  0
 22  5  1  0
 19 14  1  0
  1 35  1  0
  1 36  1  0
  1 37  1  0
  3 38  1  0
  6 39  1  0
  7 40  1  0
  9 41  1  0
  9 42  1  0
 13 43  1  0
 15 44  1  0
 16 45  1  0
 17 46  1  0
 18 47  1  0
 21 48  1  0
 22 49  1  0
 23 50  1  0
 24 51  1  0
 29 52  1  0
 29 53  1  0
 31 54  1  0
 33 55  1  0
M  CHG  3  10  -1  26  -1  32  -1
M  END
>  <UniqueID>  (5) 
5

>  <SMILES>  (5) 
Cc1cc(-c2ccc(C[N-]C(=O)Nc3ccccc3Cl)cc2)ccc1[N-]C(=O)Cc1c[n-]cn1

>  <Energy>  (5) 
97.32311727802738

>  <Genealogy>  (5) 
Cc1cc(-c2ccc(C[N-]C(=O)Nc3ccccc3Cl)cc2)ccc1[N-]C(=O)Cc1c[n-]cn1 (protonated)
Cc1cc(-c2ccc(C[N-]C(=O)Nc3ccccc3Cl)cc2)ccc1[N-]C(=O)Cc1c[n-]cn1 (3D coordinates assigned)
Cc1cc(-c2ccc(C[N-]C(=O)Nc3ccccc3Cl)cc2)ccc1[N-]C(=O)Cc1c[n-]cn1 (optimized conformer: 97.32311727802738 kcal/mol)

>  <smiles>  (5) 
Cc1cc(-c2ccc(CNC(=O)Nc3ccccc3Cl)cc2)ccc1NC(=O)Cc1c[nH]cn1

>  <score_type>  (5) 
oracle

>  <origin>  (5) 
adg

>  <m_score__min__energy>  (5) 
-14.15

>  <m_primary>  (5) 
energy

$$$$
5:0
     RDKit          3D

 47 50  0  0  0  0  0  0  0  0999 V2000
   58.8705   25.1630   48.0975 H   0  0  0  0  0  0  0  0  0  0  0  0
   58.5350   25.9920   47.4570 C   0  0  0  0  0  0  0  0  0  0  0  0
   59.0130   27.2460   47.6640 N   0  0  0  0  0  0  0  0  0  0  0  0
   58.6300   28.3080   46.9020 C   0  0  0  0  0  0  0  0  0  0  0  0
   59.1610   29.6030   47.2180 N   0  0  0  0  0  0  0  0  0  0  0  0
   58.4860   30.3510   47.4920 H   0  0  0  0  0  0  0  0  0  0  0  0
   60.5120   29.9830   46.9140 C   0  0  0  0  0  0  0  0  0  0  0  0
   61.1170   29.4080   45.9680 O   0  0  0  0  0  0  0  0  0  0  0  0
   61.2100   31.0210   47.7110 C   0  0  0  0  0  0  0  0  0  0  0  0
   60.9760   31.1510   49.0920 C   0  0  0  0  0  0  0  0  0  0  0  0
   60.2357   30.5024   49.5832 H   0  0  0  0  0  0  0  0  0  0  0  0
   61.6760   32.0970   49.8450 C   0  0  0  0  0  0  0  0  0  0  0  0
   61.4687   32.2015   50.9202 H   0  0  0  0  0  0  0  0  0  0  0  0
   62.6410   32.9140   49.2390 C   0  0  0  0  0  0  0  0  0  0  0  0
   63.3920   33.9280   50.0530 C   0  0  0  0  0  0  0  0  0  0  0  0
   63.2408   33.7238   51.1233 H   0  0  0  0  0  0  0  0  0  0  0  0
   64.4644   33.8669   49.8160 H   0  0  0  0  0  0  0  0  0  0  0  0
   63.0209   34.9360   49.8160 H   0  0  0  0  0  0  0  0  0  0  0  0
   62.8690   32.8010   47.8580 C   0  0  0  0  0  0  0  0  0  0  0  0
   63.7800   33.5970   47.2430 F   0  0  0  0  0  0  0  0  0  0  0  0
   62.1630   31.8590   47.1040 C   0  0  0  0  0  0  0  0  0  0  0  0
   62.3548   31.7721   46.0243 H   0  0  0  0  0  0  0  0  0  0  0  0
   57.7300   28.1040   45.8250 C   0  0  0  0  0  0  0  0  0  0  0  0
   57.3720   29.1900   44.8830 C   0  0  0  0  0  0  0  0  0  0  0  0
   57.3290   30.4780   45.3200 N   0  0  0  0  0  0  0  0  0  0  0  0
   56.9680   31.4990   44.4990 C   0  0  0  0  0  0  0  0  0  0  0  0
   56.8970   32.7050   44.9820 N   0  0  0  0  0  0  0  0  0  0  0  0
   57.8990   33.3910   45.7530 C   0  0  0  0  0  0  0  0  0  0  0  0
   58.7790   34.3280   45.1760 C   0  0  0  0  0  0  0  0  0  0  0  0
   58.7018   34.5653   44.1047 H   0  0  0  0  0  0  0  0  0  0  0  0
   59.7500   34.9570   45.9610 C   0  0  0  0  0  0  0  0  0  0  0  0
   60.4241   35.6998   45.5095 H   0  0  0  0  0  0  0  0  0  0  0  0
   59.8660   34.6440   47.3180 C   0  0  0  0  0  0  0  0  0  0  0  0
   60.6225   35.1488   47.9368 H   0  0  0  0  0  0  0  0  0  0  0  0
   59.0200   33.6890   47.8880 C   0  0  0  0  0  0  0  0  0  0  0  0
   59.1187   33.4343   48.9536 H   0  0  0  0  0  0  0  0  0  0  0  0
   58.0490   33.0570   47.1070 C   0  0  0  0  0  0  0  0  0  0  0  0
   57.3981   32.2928   47.5568 H   0  0  0  0  0  0  0  0  0  0  0  0
   56.6340   31.2320   43.2060 N   0  0  0  0  0  0  0  0  0  0  0  0
   56.6770   29.9670   42.7170 C   0  0  0  0  0  0  0  0  0  0  0  0
   56.4174   29.7745   41.6655 H   0  0  0  0  0  0  0  0  0  0  0  0
   57.0500   28.9120   43.5470 C   0  0  0  0  0  0  0  0  0  0  0  0
   57.0910   27.8823   43.1622 H   0  0  0  0  0  0  0  0  0  0  0  0
   57.2200   26.8110   45.6170 C   0  0  0  0  0  0  0  0  0  0  0  0
   56.5007   26.6313   44.8044 H   0  0  0  0  0  0  0  0  0  0  0  0
   57.6200   25.7550   46.4340 C   0  0  0  0  0  0  0  0  0  0  0  0
   57.2170   24.7443   46.2724 H   0  0  0  0  0  0  0  0  0  0  0  0
  1  2  1  0
  2  3  2  0
  3  4  1  0
  4  5  1  0
  5  6  1  0
  5  7  1  0
  7  8  2  0
  7  9  1  0
  9 10  2  0
 10 11  1  0
 10 12  1  0
 12 13  1  0
 12 14  2  0
 14 15  1  0
 15 16  1  0
 15 17  1  0
 15 18  1  0
 14 19  1  0
 19 20  1  0
 19 21  2  0
 21 22  1  0
  4 23  2  0
 23 24  1  0
 24 25  2  0
 25 26  1  0
 26 27  2  0
 27 28  1  0
 28 29  2  0
 29 30  1  0
 29 31  1  0
 31 32  1  0
 31 33  2  0
 33 34  1  0
 33 35  1  0
 35 36  1  0
 35 37  2  0
 37 38  1  0
 26 39  1  0
 39 40  1  0
 40 41  1  0
 40 42  2  0
 42 43  1  0
 23 44  1  0
 44 45  1  0
 44 46  2  0
 46 47  1  0
 46  2  1  0
 21  9  1  0
 42 24  1  0
 37 28  1  0
M  CHG  1  39  -1
M  END
>  <UniqueID>  (6) 
6

>  <SMILES>  (6) 
Cc1ccc(C(=O)Nc2ncccc2-c2cc[n-]/c(=N\c3ccccc3)n2)cc1F

>  <Energy>  (6) 
69.15108364965296

>  <Genealogy>  (6) 
Cc1ccc(C(=O)Nc2ncccc2-c2cc[n-]c(=Nc3ccccc3)n2)cc1F (protonated)
Cc1ccc(C(=O)Nc2ncccc2-c2cc[n-]/c(=N\c3ccccc3)n2)cc1F (cis-trans isomerization)
Cc1ccc(C(=O)Nc2ncccc2-c2cc[n-]/c(=N\c3ccccc3)n2)cc1F (3D coordinates assigned)
Cc1ccc(C(=O)Nc2ncccc2-c2cc[n-]/c(=N\c3ccccc3)n2)cc1F (optimized conformer: 69.15108364965296 kcal/mol)

>  <smiles>  (6) 
Cc1ccc(C(=O)Nc2ncccc2-c2cc[nH]c(=Nc3ccccc3)n2)cc1F

>  <score_type>  (6) 
oracle

>  <origin>  (6) 
adg

>  <m_score__min__energy>  (6) 
-10.039999999999999

>  <m_primary>  (6) 
energy

$$$$
6:0
     RDKit          3D

 24 25  0  0  0  0  0  0  0  0999 V2000
   50.2370   33.1070   51.9970 O   0  0  0  0  0  0  0  0  0  0  0  0
   51.2660   32.1810   52.1170 C   0  0  0  0  0  0  0  0  0  0  0  0
   51.4760   31.5220   53.3330 C   0  0  0  0  0  0  0  0  0  0  0  0
   52.5110   30.5890   53.4530 C   0  0  0  0  0  0  0  0  0  0  0  0
   53.3350   30.2980   52.3590 C   0  0  0  0  0  0  0  0  0  0  0  0
   54.3730   29.3690   52.5240 O   0  0  0  0  0  0  0  0  0  0  0  0
   55.7310   29.6850   52.6840 C   0  0  0  0  0  0  0  0  0  0  0  0
   56.1310   31.0190   52.5480 C   0  0  0  0  0  0  0  0  0  0  0  0
   57.4730   31.3760   52.7150 C   0  0  0  0  0  0  0  0  0  0  0  0
   58.4250   30.3990   53.0350 C   0  0  0  0  0  0  0  0  0  0  0  0
   59.7660   30.7420   53.2020 O   0  0  0  0  0  0  0  0  0  0  0  0
   58.0280   29.0680   53.1910 C   0  0  0  0  0  0  0  0  0  0  0  0
   56.6870   28.7100   53.0240 C   0  0  0  0  0  0  0  0  0  0  0  0
   53.1310   30.9790   51.1430 C   0  0  0  0  0  0  0  0  0  0  0  0
   52.0960   31.9110   51.0240 C   0  0  0  0  0  0  0  0  0  0  0  0
   50.8272   31.7376   54.1947 H   0  0  0  0  0  0  0  0  0  0  0  0
   52.6789   30.0802   54.4137 H   0  0  0  0  0  0  0  0  0  0  0  0
   55.3855   31.7915   52.3083 H   0  0  0  0  0  0  0  0  0  0  0  0
   57.7814   32.4250   52.5950 H   0  0  0  0  0  0  0  0  0  0  0  0
   60.2900   30.4450   54.0180 H   0  0  0  0  0  0  0  0  0  0  0  0
   58.7730   28.2999   53.4460 H   0  0  0  0  0  0  0  0  0  0  0  0
   56.3782   27.6629   53.1588 H   0  0  0  0  0  0  0  0  0  0  0  0
   53.7882   30.7768   50.2844 H   0  0  0  0  0  0  0  0  0  0  0  0
   51.9340   32.4329   50.0693 H   0  0  0  0  0  0  0  0  0  0  0  0
  1  2  1  0
  2  3  2  0
  3  4  1  0
  4  5  2  0
  5  6  1  0
  6  7  1  0
  7  8  2  0
  8  9  1  0
  9 10  2  0
 10 11  1  0
 10 12  1  0
 12 13  2  0
  5 14  1  0
 14 15  2  0
 15  2  1  0
 13  7  1  0
  3 16  1  0
  4 17  1  0
  8 18  1  0
  9 19  1  0
 11 20  1  0
 12 21  1  0
 13 22  1  0
 14 23  1  0
 15 24  1  0
M  CHG  1   1  -1
M  END
>  <UniqueID>  (7) 
7

>  <SMILES>  (7) 
[O-]c1ccc(Oc2ccc(O)cc2)cc1

>  <Energy>  (7) 
31.031795862824247

>  <Genealogy>  (7) 
[O-]c1ccc(Oc2ccc(O)cc2)cc1 (protonated)
[O-]c1ccc(Oc2ccc(O)cc2)cc1 (3D coordinates assigned)
[O-]c1ccc(Oc2ccc(O)cc2)cc1 (optimized conformer: 31.031795862824247 kcal/mol)

>  <smiles>  (7) 
Oc1ccc(Oc2ccc(O)cc2)cc1

>  <score_type>  (7) 
oracle

>  <origin>  (7) 
adg

>  <m_score__min__energy>  (7) 
-8.5899999999999999

>  <m_primary>  (7) 
energy

$$$$
7:0
     RDKit          3D

 32 32  0  0  0  0  0  0  0  0999 V2000
   57.1322   30.6266   43.3093 H   0  0  0  0  0  0  0  0  0  0  0  0
   57.4770   30.9970   44.2860 C   0  0  0  0  0  0  0  0  0  0  0  0
   57.7480   29.9870   45.3270 C   0  0  0  0  0  0  0  0  0  0  0  0
   58.8550   29.9570   45.9300 O   0  0  0  0  0  0  0  0  0  0  0  0
   56.7780   28.9600   45.5540 N   0  0  0  0  0  0  0  0  0  0  0  0
   57.0670   27.5790   45.8030 C   0  0  0  0  0  0  0  0  0  0  0  0
   58.3310   27.0270   45.7760 C   0  0  0  0  0  0  0  0  0  0  0  0
   59.2844   27.5515   45.6150 H   0  0  0  0  0  0  0  0  0  0  0  0
   58.1450   25.6760   45.9940 C   0  0  0  0  0  0  0  0  0  0  0  0
   59.1720   24.7400   46.0540 O   0  0  0  0  0  0  0  0  0  0  0  0
   56.8360   25.3720   46.1340 N   0  0  0  0  0  0  0  0  0  0  0  0
   56.2690   24.0340   46.3560 C   0  0  2  0  0  0  0  0  0  0  0  0
   55.1987   24.1337   46.5893 H   0  0  0  0  0  0  0  0  0  0  0  0
   56.9240   23.3750   47.5410 C   0  0  0  0  0  0  0  0  0  0  0  0
   57.0740   23.9970   48.6270 O   0  0  0  0  0  0  0  0  0  0  0  0
   57.3180   22.0460   47.4560 O   0  0  0  0  0  0  0  0  0  0  0  0
   56.3700   23.1830   45.0850 C   0  0  0  0  0  0  0  0  0  0  0  0
   56.4955   22.1255   45.3608 H   0  0  0  0  0  0  0  0  0  0  0  0
   55.4516   23.3005   44.4911 H   0  0  0  0  0  0  0  0  0  0  0  0
   57.2354   23.5122   44.4911 H   0  0  0  0  0  0  0  0  0  0  0  0
   56.1710   26.5410   46.0010 C   0  0  0  0  0  0  0  0  0  0  0  0
   54.7860   26.6540   46.0100 O   0  0  0  0  0  0  0  0  0  0  0  0
   57.6120   32.3250   44.4200 C   0  0  0  0  0  0  0  0  0  0  0  0
   57.0046   32.9661   43.7642 H   0  0  0  0  0  0  0  0  0  0  0  0
   58.5140   32.9920   45.3810 C   0  0  0  0  0  0  0  0  0  0  0  0
   59.0420   32.3930   46.1376 H   0  0  0  0  0  0  0  0  0  0  0  0
   58.6950   34.3130   45.3410 C   0  0  0  0  0  0  0  0  0  0  0  0
   58.1894   34.9054   44.5642 H   0  0  0  0  0  0  0  0  0  0  0  0
   59.5740   35.0010   46.3350 C   0  0  0  0  0  0  0  0  0  0  0  0
   59.2465   34.7447   47.3534 H   0  0  0  0  0  0  0  0  0  0  0  0
   60.6148   34.6751   46.1916 H   0  0  0  0  0  0  0  0  0  0  0  0
   59.5076   36.0896   46.1916 H   0  0  0  0  0  0  0  0  0  0  0  0
  1  2  1  0
  2  3  1  0
  3  4  2  0
  3  5  1  0
  5  6  1  0
  6  7  1  0
  7  8  1  0
  7  9  2  0
  9 10  1  0
  9 11  1  0
 11 12  1  0
 12 13  1  1
 12 14  1  0
 14 15  2  0
 14 16  1  0
 12 17  1  0
 17 18  1  0
 17 19  1  0
 17 20  1  0
 11 21  1  0
 21 22  1  0
  2 23  2  0
 23 24  1  0
 23 25  1  0
 25 26  1  0
 25 27  2  0
 27 28  1  0
 27 29  1  0
 29 30  1  0
 29 31  1  0
 29 32  1  0
 21  6  2  0
M  CHG  4   5  -1  10  -1  16  -1  22  -1
M  END
>  <UniqueID>  (8) 
8

>  <SMILES>  (8) 
C/C=C/C=C\C(=O)[N-]c1cc([O-])n([C@@H](C)C(=O)[O-])c1[O-]

>  <Energy>  (8) 
60.17023490704185

>  <Genealogy>  (8) 
CC=CC=CC(=O)[N-]c1cc([O-])n(C(C)C(=O)[O-])c1[O-] (protonated)
CC=CC=CC(=O)[N-]c1cc([O-])n([C@@H](C)C(=O)[O-])c1[O-] (chirality)
C/C=C/C=C\C(=O)[N-]c1cc([O-])n([C@@H](C)C(=O)[O-])c1[O-] (cis-trans isomerization)
C/C=C/C=C\C(=O)[N-]c1cc([O-])n([C@@H](C)C(=O)[O-])c1[O-] (3D coordinates assigned)
C/C=C/C=C\C(=O)[N-]c1cc([O-])n([C@@H](C)C(=O)[O-])c1[O-] (optimized conformer: 60.17023490704185 kcal/mol)

>  <smiles>  (8) 
CC=CC=CC(=O)Nc1cc(O)n(C(C)C(=O)O)c1O

>  <score_type>  (8) 
oracle

>  <origin>  (8) 
adg

>  <m_score__min__energy>  (8) 
-15.24

>  <m_primary>  (8) 
energy

$$$$
8:0
     RDKit          3D

 47 48  0  0  0  0  0  0  0  0999 V2000
   62.9580   31.9310   48.4300 C   0  0  0  0  0  0  0  0  0  0  0  0
   62.3440   33.2090   47.8170 C   0  0  0  0  0  0  0  0  0  0  0  0
   62.0420   34.1890   48.9760 C   0  0  0  0  0  0  0  0  0  0  0  0
   63.3810   33.8830   46.8930 C   0  0  0  0  0  0  0  0  0  0  0  0
   61.0910   32.8360   46.9990 C   0  0  0  0  0  0  0  0  0  0  0  0
   60.6270   31.5060   46.8710 C   0  0  0  0  0  0  0  0  0  0  0  0
   59.4740   31.2140   46.1360 C   0  0  0  0  0  0  0  0  0  0  0  0
   58.7460   32.2370   45.5200 C   0  0  0  0  0  0  0  0  0  0  0  0
   57.5080   31.9480   44.7690 C   0  0  0  0  0  0  0  0  0  0  0  0
   56.4070   32.3280   45.2440 O   0  0  0  0  0  0  0  0  0  0  0  0
   57.5060   31.1870   43.5500 N   0  0  0  0  0  0  0  0  0  0  0  0
   56.9460   29.8520   43.3500 C   0  0  0  0  0  0  0  0  0  0  0  0
   56.3410   29.3050   44.6080 C   0  0  0  0  0  0  0  0  0  0  0  0
   55.1440   29.5830   44.8870 O   0  0  0  0  0  0  0  0  0  0  0  0
   57.1460   28.5470   45.5210 N   0  0  0  0  0  0  0  0  0  0  0  0
   57.2750   27.1170   45.5510 C   0  0  0  0  0  0  0  0  0  0  0  0
   57.7250   26.3840   44.4380 C   0  0  0  0  0  0  0  0  0  0  0  0
   57.8790   24.9970   44.5240 C   0  0  0  0  0  0  0  0  0  0  0  0
   57.5970   24.3290   45.7220 C   0  0  0  0  0  0  0  0  0  0  0  0
   57.8130   22.5860   45.8380 S   0  0  0  0  0  0  0  0  0  0  0  0
   57.3470   22.0420   47.4110 N   0  0  0  0  0  0  0  0  0  0  0  0
   59.2550   22.2440   45.5930 O   0  0  0  0  0  0  0  0  0  0  0  0
   56.9560   21.8960   44.8150 O   0  0  0  0  0  0  0  0  0  0  0  0
   57.1740   25.0600   46.8380 C   0  0  0  0  0  0  0  0  0  0  0  0
   57.0180   26.4470   46.7530 C   0  0  0  0  0  0  0  0  0  0  0  0
   59.2100   33.5540   45.6080 C   0  0  0  0  0  0  0  0  0  0  0  0
   60.3600   33.8520   46.3420 C   0  0  0  0  0  0  0  0  0  0  0  0
   62.9255   31.9986   49.5274 H   0  0  0  0  0  0  0  0  0  0  0  0
   62.3833   31.0532   48.0995 H   0  0  0  0  0  0  0  0  0  0  0  0
   64.0024   31.8311   48.0995 H   0  0  0  0  0  0  0  0  0  0  0  0
   62.1992   33.6789   49.9378 H   0  0  0  0  0  0  0  0  0  0  0  0
   62.7144   35.0568   48.9070 H   0  0  0  0  0  0  0  0  0  0  0  0
   60.9978   34.5278   48.9070 H   0  0  0  0  0  0  0  0  0  0  0  0
   64.1477   34.3813   47.5044 H   0  0  0  0  0  0  0  0  0  0  0  0
   63.8565   33.1209   46.2581 H   0  0  0  0  0  0  0  0  0  0  0  0
   62.8776   34.6270   46.2581 H   0  0  0  0  0  0  0  0  0  0  0  0
   61.1813   30.6895   47.3568 H   0  0  0  0  0  0  0  0  0  0  0  0
   59.1368   30.1712   46.0415 H   0  0  0  0  0  0  0  0  0  0  0  0
   56.1672   29.9055   42.5750 H   0  0  0  0  0  0  0  0  0  0  0  0
   57.7633   29.1817   43.0455 H   0  0  0  0  0  0  0  0  0  0  0  0
   57.9566   26.9038   43.4966 H   0  0  0  0  0  0  0  0  0  0  0  0
   58.2229   24.4284   43.6474 H   0  0  0  0  0  0  0  0  0  0  0  0
   57.7600   21.0920   47.5410 H   0  0  0  0  0  0  0  0  0  0  0  0
   56.9636   24.5417   47.7852 H   0  0  0  0  0  0  0  0  0  0  0  0
   56.6912   27.0153   47.6363 H   0  0  0  0  0  0  0  0  0  0  0  0
   58.6651   34.3604   45.0954 H   0  0  0  0  0  0  0  0  0  0  0  0
   60.7028   34.8950   46.4101 H   0  0  0  0  0  0  0  0  0  0  0  0
  1  2  1  0
  2  3  1  0
  2  4  1  0
  2  5  1  0
  5  6  2  0
  6  7  1  0
  7  8  2  0
  8  9  1  0
  9 10  2  0
  9 11  1  0
 11 12  1  0
 12 13  1  0
 13 14  2  0
 13 15  1  0
 15 16  1  0
 16 17  2  0
 17 18  1  0
 18 19  2  0
 19 20  1  0
 20 21  1  0
 20 22  2  0
 20 23  2  0
 19 24  1  0
 24 25  2  0
  8 26  1  0
 26 27  2  0
 27  5  1  0
 25 16  1  0
  1 28  1  0
  1 29  1  0
  1 30  1  0
  3 31  1  0
  3 32  1  0
  3 33  1  0
  4 34  1  0
  4 35  1  0
  4 36  1  0
  6 37  1  0
  7 38  1  0
 12 39  1  0
 12 40  1  0
 17 41  1  0
 18 42  1  0
 21 43  1  0
 24 44  1  0
 25 45  1  0
 26 46  1  0
 27 47  1  0
M  CHG  3  11  -1  15  -1  21  -1
M  END
>  <UniqueID>  (9) 
9

>  <SMILES>  (9) 
CC(C)(C)c1ccc(C(=O)[N-]CC(=O)[N-]c2ccc(S([NH-])(=O)=O)cc2)cc1

>  <Energy>  (9) 
50.96772304842802

>  <Genealogy>  (9) 
CC(C)(C)c1ccc(C(=O)[N-]CC(=O)[N-]c2ccc(S([NH-])(=O)=O)cc2)cc1 (protonated)
CC(C)(C)c1ccc(C(=O)[N-]CC(=O)[N-]c2ccc(S([NH-])(=O)=O)cc2)cc1 (3D coordinates assigned)
CC(C)(C)c1ccc(C(=O)[N-]CC(=O)[N-]c2ccc(S([NH-])(=O)=O)cc2)cc1 (optimized conformer: 50.96772304842802 kcal/mol)

>  <smiles>  (9) 
CC(C)(C)c1ccc(C(=O)NCC(=O)Nc2ccc(S(N)(=O)=O)cc2)cc1

>  <score_type>  (9) 
oracle

>  <origin>  (9) 
adg

>  <m_score__min__energy>  (9) 
-13.32

>  <m_primary>  (9) 
energy

$$$$
9:0
     RDKit          3D

 50 53  0  0  0  0  0  0  0  0999 V2000
   57.3960   28.5040   43.6420 N   0  0  0  0  0  0  0  0  0  0  0  0
   56.5980   30.0360   43.7110 S   0  0  0  0  0  0  0  0  0  0  0  0
   55.3190   29.9000   44.4880 O   0  0  0  0  0  0  0  0  0  0  0  0
   56.2690   30.4930   42.3180 O   0  0  0  0  0  0  0  0  0  0  0  0
   57.6490   31.2140   44.4920 C   0  0  0  0  0  0  0  0  0  0  0  0
   58.3870   30.8540   45.6280 C   0  0  0  0  0  0  0  0  0  0  0  0
   59.2090   31.7940   46.2580 C   0  0  0  0  0  0  0  0  0  0  0  0
   59.2740   33.1090   45.7730 C   0  0  0  0  0  0  0  0  0  0  0  0
   60.1580   34.0600   46.3770 N   0  0  0  0  0  0  0  0  0  0  0  0
   60.7660   34.0030   47.5320 C   0  0  0  0  0  0  0  0  0  0  0  0
   59.9540   33.9480   48.6730 C   0  0  0  0  0  0  0  0  0  0  0  0
   60.5250   33.9400   49.9540 C   0  0  0  0  0  0  0  0  0  0  0  0
   59.7130   33.8810   51.1380 N   0  0  0  0  0  0  0  0  0  0  0  0
   58.7860   32.8250   51.4420 C   0  0  0  0  0  0  0  0  0  0  0  0
   57.7910   32.9850   52.4210 C   0  0  0  0  0  0  0  0  0  0  0  0
   56.9190   31.9340   52.7200 C   0  0  0  0  0  0  0  0  0  0  0  0
   57.0460   30.7020   52.0700 C   0  0  0  0  0  0  0  0  0  0  0  0
   56.1450   29.6760   52.3930 O   0  0  0  0  0  0  0  0  0  0  0  0
   54.7490   29.7670   52.2980 C   0  0  0  0  0  0  0  0  0  0  0  0
   53.8950   28.8580   52.9510 C   0  0  0  0  0  0  0  0  0  0  0  0
   52.5080   28.9930   52.8430 C   0  0  0  0  0  0  0  0  0  0  0  0
   51.9620   30.0390   52.0930 C   0  0  0  0  0  0  0  0  0  0  0  0
   52.8040   30.9550   51.4580 C   0  0  0  0  0  0  0  0  0  0  0  0
   54.1920   30.8220   51.5640 C   0  0  0  0  0  0  0  0  0  0  0  0
   58.0400   30.5370   51.0880 C   0  0  0  0  0  0  0  0  0  0  0  0
   58.1410   29.3790   50.3900 F   0  0  0  0  0  0  0  0  0  0  0  0
   58.9120   31.5900   50.7900 C   0  0  0  0  0  0  0  0  0  0  0  0
   61.8770   33.9220   50.0800 N   0  0  0  0  0  0  0  0  0  0  0  0
   62.7000   33.9390   49.0030 C   0  0  0  0  0  0  0  0  0  0  0  0
   62.1790   33.9710   47.7040 C   0  0  0  0  0  0  0  0  0  0  0  0
   63.3520   33.8140   46.3960 Cl  0  0  0  0  0  0  0  0  0  0  0  0
   58.5580   33.4610   44.6240 C   0  0  0  0  0  0  0  0  0  0  0  0
   57.7360   32.5210   43.9930 C   0  0  0  0  0  0  0  0  0  0  0  0
   56.7170   27.8250   43.2310 H   0  0  0  0  0  0  0  0  0  0  0  0
   58.1790   28.5990   42.9570 H   0  0  0  0  0  0  0  0  0  0  0  0
   58.3195   29.8303   46.0248 H   0  0  0  0  0  0  0  0  0  0  0  0
   59.8054   31.5019   47.1350 H   0  0  0  0  0  0  0  0  0  0  0  0
   58.8601   33.9108   48.5630 H   0  0  0  0  0  0  0  0  0  0  0  0
   59.7980   34.6700   51.8190 H   0  0  0  0  0  0  0  0  0  0  0  0
   57.6977   33.9422   52.9550 H   0  0  0  0  0  0  0  0  0  0  0  0
   56.1281   32.0768   53.4711 H   0  0  0  0  0  0  0  0  0  0  0  0
   54.3209   28.0384   53.5485 H   0  0  0  0  0  0  0  0  0  0  0  0
   51.8452   28.2754   53.3487 H   0  0  0  0  0  0  0  0  0  0  0  0
   50.8704   30.1405   52.0030 H   0  0  0  0  0  0  0  0  0  0  0  0
   52.3746   31.7822   50.8737 H   0  0  0  0  0  0  0  0  0  0  0  0
   54.8504   31.5503   51.0680 H   0  0  0  0  0  0  0  0  0  0  0  0
   59.7025   31.4478   50.0384 H   0  0  0  0  0  0  0  0  0  0  0  0
   63.7899   33.9275   49.1514 H   0  0  0  0  0  0  0  0  0  0  0  0
   58.6414   34.4790   44.2157 H   0  0  0  0  0  0  0  0  0  0  0  0
   57.1566   32.8083   43.1032 H   0  0  0  0  0  0  0  0  0  0  0  0
  1  2  1  0
  2  3  2  0
  2  4  2  0
  2  5  1  0
  5  6  2  0
  6  7  1  0
  7  8  2  0
  8  9  1  0
  9 10  2  3
 10 11  1  0
 11 12  2  0
 12 13  1  0
 13 14  1  0
 14 15  2  0
 15 16  1  0
 16 17  2  0
 17 18  1  0
 18 19  1  0
 19 20  2  0
 20 21  1  0
 21 22  2  0
 22 23  1  0
 23 24  2  0
 17 25  1  0
 25 26  1  0
 25 27  2  0
 12 28  1  0
 28 29  1  0
 29 30  2  0
 30 31  1  0
  8 32  1  0
 32 33  2  0
 33  5  1  0
 30 10  1  0
 27 14  1  0
 24 19  1  0
  1 34  1  0
  1 35  1  0
  6 36  1  0
  7 37  1  0
 11 38  1  0
 13 39  1  0
 15 40  1  0
 16 41  1  0
 20 42  1  0
 21 43  1  0
 22 44  1  0
 23 45  1  0
 24 46  1  0
 27 47  1  0
 29 48  1  0
 32 49  1  0
 33 50  1  0
M  CHG  1  28  -1
M  END
>  <UniqueID>  (10) 
10

>  <SMILES>  (10) 
NS(=O)(=O)c1ccc(N=c2cc(Nc3ccc(Oc4ccccc4)c(F)c3)[n-]cc2Cl)cc1

>  <Energy>  (10) 
83.54234695311166

>  <Genealogy>  (10) 
NS(=O)(=O)c1ccc(N=c2cc(Nc3ccc(Oc4ccccc4)c(F)c3)[n-]cc2Cl)cc1 (protonated)
NS(=O)(=O)c1ccc(N=c2cc(Nc3ccc(Oc4ccccc4)c(F)c3)[n-]cc2Cl)cc1 (3D coordinates assigned)
NS(=O)(=O)c1ccc(N=c2cc(Nc3ccc(Oc4ccccc4)c(F)c3)[n-]cc2Cl)cc1 (optimized conformer: 83.54234695311166 kcal/mol)

>  <smiles>  (10) 
NS(=O)(=O)c1ccc(N=c2cc(Nc3ccc(Oc4ccccc4)c(F)c3)[nH]cc2Cl)cc1

>  <score_type>  (10) 
oracle

>  <origin>  (10) 
adg

>  <m_score__min__energy>  (10) 
-11.56

>  <m_primary>  (10) 
energy

$$$$
10:0
     RDKit          3D

 59 63  0  0  1  0  0  0  0  0999 V2000
   59.2920   35.3630   46.8930 N   0  0  0  0  0  0  0  0  0  0  0  0
   58.9040   34.2830   46.3040 C   0  0  0  0  0  0  0  0  0  0  0  0
   58.8090   34.2710   44.9610 N   0  0  0  0  0  0  0  0  0  0  0  0
   58.3970   33.1560   44.3240 C   0  0  0  0  0  0  0  0  0  0  0  0
   58.0680   32.0160   45.0190 C   0  0  0  0  0  0  0  0  0  0  0  0
   57.6250   30.8480   44.3690 N   0  0  0  0  0  0  0  0  0  0  0  0
   58.0540   29.4990   44.7370 C   0  0  0  0  0  0  0  0  0  0  0  0
   56.8470   28.7990   45.2640 C   0  0  0  0  0  0  0  0  0  0  0  0
   55.6580   29.2780   44.7620 O   0  0  0  0  0  0  0  0  0  0  0  0
   55.7140   29.7250   43.4480 C   0  0  0  0  0  0  0  0  0  0  0  0
   56.6620   30.8920   43.2540 C   0  0  0  0  0  0  0  0  0  0  0  0
   58.1730   32.0510   46.3880 C   0  0  0  0  0  0  0  0  0  0  0  0
   58.5930   33.1810   47.0860 C   0  0  0  0  0  0  0  0  0  0  0  0
   58.6870   33.1870   48.4380 O   0  0  0  0  0  0  0  0  0  0  0  0
   58.8030   32.1280   49.3050 C   0  0  0  0  0  0  0  0  0  0  0  0
   57.8510   31.7080   50.1910 C   0  0  0  0  0  0  0  0  0  0  0  0
   58.0180   30.6310   51.0450 C   0  0  0  0  0  0  0  0  0  0  0  0
   56.9950   30.1980   51.9840 C   0  0  0  0  0  0  0  0  0  0  0  0
   56.9710   29.0670   52.5300 O   0  0  0  0  0  0  0  0  0  0  0  0
   55.9580   31.1610   52.2830 N   0  0  0  0  0  0  0  0  0  0  0  0
   54.7480   30.7640   51.9990 C   0  0  0  0  0  0  0  0  0  0  0  0
   53.6460   31.5070   51.6470 C   0  0  0  0  0  0  0  0  0  0  0  0
   52.6280   30.5970   51.4550 C   0  0  0  0  0  0  0  0  0  0  0  0
   53.1200   29.3570   51.6870 N   0  0  0  0  0  0  0  0  0  0  0  0
   54.4170   29.4520   52.0200 N   0  0  0  0  0  0  0  0  0  0  0  0
   59.2090   29.9480   51.0000 C   0  0  0  0  0  0  0  0  0  0  0  0
   59.4290   28.8510   51.8440 O   0  0  0  0  0  0  0  0  0  0  0  0
   60.1870   30.3260   50.1370 C   0  0  0  0  0  0  0  0  0  0  0  0
   60.0050   31.4090   49.2850 C   0  0  0  0  0  0  0  0  0  0  0  0
   60.9810   31.8080   48.4050 O   0  0  0  0  0  0  0  0  0  0  0  0
   62.2080   32.3900   48.7020 C   0  0  0  0  0  0  0  0  0  0  0  0
   62.0130   33.7920   49.2520 C   0  0  0  0  0  0  0  0  0  0  0  0
   63.1650   34.2080   48.4920 N   0  0  0  0  0  0  0  0  0  0  0  0
   62.8860   33.1200   47.5670 C   0  0  0  0  0  0  0  0  0  0  0  0
   59.2570   35.3700   47.9480 H   0  0  0  0  0  0  0  0  0  0  0  0
   59.0490   35.1120   44.4190 H   0  0  0  0  0  0  0  0  0  0  0  0
   58.3226   33.1585   43.2265 H   0  0  0  0  0  0  0  0  0  0  0  0
   58.4446   28.9707   43.8548 H   0  0  0  0  0  0  0  0  0  0  0  0
   58.8564   29.5283   45.4888 H   0  0  0  0  0  0  0  0  0  0  0  0
   56.9261   27.7323   45.0073 H   0  0  0  0  0  0  0  0  0  0  0  0
   56.8270   28.9730   46.3500 H   0  0  0  0  0  0  0  0  0  0  0  0
   56.0479   28.8936   42.8098 H   0  0  0  0  0  0  0  0  0  0  0  0
   54.7063   30.0741   43.1783 H   0  0  0  0  0  0  0  0  0  0  0  0
   57.1898   30.7956   42.2937 H   0  0  0  0  0  0  0  0  0  0  0  0
   56.1156   31.8466   43.2417 H   0  0  0  0  0  0  0  0  0  0  0  0
   57.9140   31.1468   46.9584 H   0  0  0  0  0  0  0  0  0  0  0  0
   56.8983   32.2566   50.2278 H   0  0  0  0  0  0  0  0  0  0  0  0
   53.5884   32.6003   51.5406 H   0  0  0  0  0  0  0  0  0  0  0  0
   51.5948   30.8369   51.1637 H   0  0  0  0  0  0  0  0  0  0  0  0
   52.5870   28.4430   51.6220 H   0  0  0  0  0  0  0  0  0  0  0  0
   55.0130   28.6210   52.2450 H   0  0  0  0  0  0  0  0  0  0  0  0
   58.6750   28.5710   52.4680 H   0  0  0  0  0  0  0  0  0  0  0  0
   61.1348   29.7683   50.1119 H   0  0  0  0  0  0  0  0  0  0  0  0
   62.6886   31.5454   49.2175 H   0  0  0  0  0  0  0  0  0  0  0  0
   61.0707   34.2724   48.9499 H   0  0  0  0  0  0  0  0  0  0  0  0
   61.9470   33.9760   50.3345 H   0  0  0  0  0  0  0  0  0  0  0  0
   64.0210   34.0760   49.0540 H   0  0  0  0  0  0  0  0  0  0  0  0
   62.2187   33.3890   46.7349 H   0  0  0  0  0  0  0  0  0  0  0  0
   63.6882   32.6474   46.9812 H   0  0  0  0  0  0  0  0  0  0  0  0
  1  2  2  3
  2  3  1  0
  3  4  1  0
  4  5  2  0
  5  6  1  0
  6  7  1  0
  7  8  1  0
  8  9  1  0
  9 10  1  0
 10 11  1  0
  5 12  1  0
 12 13  2  0
 13 14  1  0
 14 15  1  0
 15 16  2  0
 16 17  1  0
 17 18  1  0
 18 19  2  0
 18 20  1  0
 20 21  2  0
 21 22  1  0
 22 23  2  0
 23 24  1  0
 24 25  1  0
 17 26  2  0
 26 27  1  0
 26 28  1  0
 28 29  2  0
 29 30  1  0
 30 31  1  0
 31 32  1  0
 32 33  1  0
 33 34  1  0
 13  2  1  0
 29 15  1  0
 34 31  1  0
 11  6  1  0
 25 21  1  0
  1 35  1  0
  3 36  1  0
  4 37  1  0
  7 38  1  0
  7 39  1  0
  8 40  1  0
  8 41  1  0
 10 42  1  0
 10 43  1  0
 11 44  1  0
 11 45  1  0
 12 46  1  0
 16 47  1  0
 22 48  1  0
 23 49  1  0
 24 50  1  0
 25 51  1  0
 27 52  1  0
 28 53  1  0
 31 54  1  0
 32 55  1  0
 32 56  1  0
 33 57  1  0
 34 58  1  0
 34 59  1  0
M  END
>  <smiles>  (11) 
N=c1[nH]cc(N2CCOCC2)cc1Oc1cc(C(=O)N=c2cc[nH][nH]2)c(O)cc1OC1CNC1

>  <score_type>  (11) 
oracle

>  <origin>  (11) 
adg

>  <m_score__min__energy>  (11) 
-8.6799999999999997

>  <m_primary>  (11) 
energy

$$$$
11:0
     RDKit          3D

 49 51  0  0  0  0  0  0  0  0999 V2000
   55.1430   26.5470   46.0220 N   0  0  0  0  0  0  0  0  0  0  0  0
   56.6960   25.8120   46.2080 S   0  0  0  0  0  0  0  0  0  0  0  0
   56.6650   24.8470   47.3620 O   0  0  0  0  0  0  0  0  0  0  0  0
   57.0190   25.0380   44.9590 O   0  0  0  0  0  0  0  0  0  0  0  0
   57.9110   27.0810   46.4460 C   0  0  0  0  0  0  0  0  0  0  0  0
   58.4460   27.2520   47.7330 C   0  0  0  0  0  0  0  0  0  0  0  0
   59.4620   28.1810   47.9620 C   0  0  0  0  0  0  0  0  0  0  0  0
   59.9720   28.9330   46.9060 C   0  0  0  0  0  0  0  0  0  0  0  0
   59.4640   28.7650   45.6200 C   0  0  0  0  0  0  0  0  0  0  0  0
   58.4160   27.8660   45.3800 C   0  0  0  0  0  0  0  0  0  0  0  0
   57.7630   27.7500   43.7050 S   0  0  0  0  0  0  0  0  0  0  0  0
   57.3870   29.5350   43.5290 C   0  0  0  0  0  0  0  0  0  0  0  0
   56.3130   29.9850   44.4690 C   0  0  0  0  0  0  0  0  0  0  0  0
   55.6090   29.1240   45.0650 O   0  0  0  0  0  0  0  0  0  0  0  0
   56.1350   31.3850   44.7330 N   0  0  0  0  0  0  0  0  0  0  0  0
   57.1730   32.3020   45.1020 C   0  0  0  0  0  0  0  0  0  0  0  0
   57.4800   33.3610   44.2390 C   0  0  0  0  0  0  0  0  0  0  0  0
   58.4930   34.2650   44.5660 C   0  0  0  0  0  0  0  0  0  0  0  0
   59.1900   34.1310   45.7700 C   0  0  0  0  0  0  0  0  0  0  0  0
   58.8660   33.1000   46.6630 C   0  0  0  0  0  0  0  0  0  0  0  0
   59.6860   32.9830   48.2250 S   0  0  0  0  0  0  0  0  0  0  0  0
   59.1800   31.7690   48.9500 O   0  0  0  0  0  0  0  0  0  0  0  0
   59.3430   34.1880   49.0560 O   0  0  0  0  0  0  0  0  0  0  0  0
   61.4240   32.8920   48.0610 N   0  0  0  0  0  0  0  0  0  0  0  0
   61.8400   31.5520   47.6170 C   0  0  0  0  0  0  0  0  0  0  0  0
   63.3760   31.5030   47.4600 C   0  0  0  0  0  0  0  0  0  0  0  0
   63.9750   32.7590   47.7270 O   0  0  0  0  0  0  0  0  0  0  0  0
   63.4210   33.7420   46.8730 C   0  0  0  0  0  0  0  0  0  0  0  0
   61.9050   33.9090   47.1120 C   0  0  0  0  0  0  0  0  0  0  0  0
   57.8550   32.1890   46.3280 C   0  0  0  0  0  0  0  0  0  0  0  0
   55.1710   27.1030   45.1370 H   0  0  0  0  0  0  0  0  0  0  0  0
   58.0609   26.6484   48.5681 H   0  0  0  0  0  0  0  0  0  0  0  0
   59.8607   28.3196   48.9778 H   0  0  0  0  0  0  0  0  0  0  0  0
   60.7769   29.6604   47.0880 H   0  0  0  0  0  0  0  0  0  0  0  0
   59.8889   29.3427   44.7859 H   0  0  0  0  0  0  0  0  0  0  0  0
   58.3013   30.1110   43.7348 H   0  0  0  0  0  0  0  0  0  0  0  0
   57.0282   29.7035   42.5029 H   0  0  0  0  0  0  0  0  0  0  0  0
   56.9209   33.4814   43.2994 H   0  0  0  0  0  0  0  0  0  0  0  0
   58.7427   35.0836   43.8750 H   0  0  0  0  0  0  0  0  0  0  0  0
   59.9960   34.8373   46.0179 H   0  0  0  0  0  0  0  0  0  0  0  0
   61.5257   30.8069   48.3627 H   0  0  0  0  0  0  0  0  0  0  0  0
   61.3698   31.3296   46.6478 H   0  0  0  0  0  0  0  0  0  0  0  0
   63.7816   30.7593   48.1617 H   0  0  0  0  0  0  0  0  0  0  0  0
   63.6036   31.2314   46.4186 H   0  0  0  0  0  0  0  0  0  0  0  0
   63.9209   34.7033   47.0628 H   0  0  0  0  0  0  0  0  0  0  0  0
   63.5732   33.4206   45.8321 H   0  0  0  0  0  0  0  0  0  0  0  0
   61.7103   34.9105   47.5233 H   0  0  0  0  0  0  0  0  0  0  0  0
   61.3756   33.7858   46.1557 H   0  0  0  0  0  0  0  0  0  0  0  0
   57.5931   31.3812   47.0271 H   0  0  0  0  0  0  0  0  0  0  0  0
  1  2  1  0
  2  3  2  0
  2  4  2  0
  2  5  1  0
  5  6  2  0
  6  7  1  0
  7  8  2  0
  8  9  1  0
  9 10  2  0
 10 11  1  0
 11 12  1  0
 12 13  1  0
 13 14  2  0
 13 15  1  0
 15 16  1  0
 16 17  2  0
 17 18  1  0
 18 19  2  0
 19 20  1  0
 20 21  1  0
 21 22  2  0
 21 23  2  0
 21 24  1  0
 24 25  1  0
 25 26  1  0
 26 27  1  0
 27 28  1  0
 28 29  1  0
 20 30  2  0
 10  5  1  0
 30 16  1  0
 29 24  1  0
  1 31  1  0
  6 32  1  0
  7 33  1  0
  8 34  1  0
  9 35  1  0
 12 36  1  0
 12 37  1  0
 17 38  1  0
 18 39  1  0
 19 40  1  0
 25 41  1  0
 25 42  1  0
 26 43  1  0
 26 44  1  0
 28 45  1  0
 28 46  1  0
 29 47  1  0
 29 48  1  0
 30 49  1  0
M  CHG  2   1  -1  15  -1
M  END
>  <UniqueID>  (12) 
11

>  <SMILES>  (12) 
[NH-]S(=O)(=O)c1ccccc1SCC(=O)[N-]c1cccc(S(=O)(=O)N2CCOCC2)c1

>  <Energy>  (12) 
57.62717279667207

>  <Genealogy>  (12) 
[NH-]S(=O)(=O)c1ccccc1SCC(=O)[N-]c1cccc(S(=O)(=O)N2CCOCC2)c1 (protonated)
[NH-]S(=O)(=O)c1ccccc1SCC(=O)[N-]c1cccc(S(=O)(=O)N2CCOCC2)c1 (3D coordinates assigned)
[NH-]S(=O)(=O)c1ccccc1SCC(=O)[N-]c1cccc(S(=O)(=O)N2CCOCC2)c1 (nonaromatic ring conformer: 57.62717279667207 kcal/mol)

>  <smiles>  (12) 
NS(=O)(=O)c1ccccc1SCC(=O)Nc1cccc(S(=O)(=O)N2CCOCC2)c1

>  <score_type>  (12) 
oracle

>  <origin>  (12) 
adg

>  <m_score__min__energy>  (12) 
-15.27

>  <m_primary>  (12) 
energy

$$$$
12:0
     RDKit          3D

 64 68  0  0  0  0  0  0  0  0999 V2000
   63.4380   31.1690   46.8920 O   0  0  0  0  0  0  0  0  0  0  0  0
   63.2240   31.7840   47.9720 C   0  0  0  0  0  0  0  0  0  0  0  0
   62.5280   31.1350   49.0460 N   0  0  0  0  0  0  0  0  0  0  0  0
   61.4420   30.1760   48.8740 C   0  0  0  0  0  0  0  0  0  0  0  0
   60.7680   30.4210   47.5080 C   0  0  0  0  0  0  0  0  0  0  0  0
   59.2520   30.1340   47.5240 C   0  0  0  0  0  0  0  0  0  0  0  0
   58.8920   29.0200   48.4280 N   0  0  0  0  0  0  0  0  0  0  0  0
   59.3310   27.6960   47.9220 C   0  0  0  0  0  0  0  0  0  0  0  0
   58.8970   27.5000   46.4930 C   0  0  0  0  0  0  0  0  0  0  0  0
   57.7620   26.7310   46.1870 C   0  0  0  0  0  0  0  0  0  0  0  0
   57.3870   26.5310   44.8540 C   0  0  0  0  0  0  0  0  0  0  0  0
   58.1380   27.0990   43.8210 C   0  0  0  0  0  0  0  0  0  0  0  0
   59.2720   27.8610   44.1180 C   0  0  0  0  0  0  0  0  0  0  0  0
   59.6570   28.0550   45.4490 C   0  0  0  0  0  0  0  0  0  0  0  0
   59.2890   29.2650   49.8420 C   0  0  0  0  0  0  0  0  0  0  0  0
   60.4210   30.3000   50.0120 C   0  0  0  0  0  0  0  0  0  0  0  0
   63.6520   33.2320   48.0890 C   0  0  2  0  0  0  0  0  0  0  0  0
   63.7660   33.7060   49.5280 C   0  0  0  0  0  0  0  0  0  0  0  0
   62.3550   34.1590   49.8830 C   0  0  0  0  0  0  0  0  0  0  0  0
   61.6390   34.4660   48.6260 N   0  0  0  0  0  0  0  0  0  0  0  0
   60.3900   33.6880   48.4790 C   0  0  0  0  0  0  0  0  0  0  0  0
   59.7730   33.8770   47.1230 C   0  0  0  0  0  0  0  0  0  0  0  0
   59.7710   35.0910   46.4430 C   0  0  0  0  0  0  0  0  0  0  0  0
   58.9820   34.8470   44.9780 S   0  0  0  0  0  0  0  0  0  0  0  0
   58.6740   33.2160   45.2710 C   0  0  0  0  0  0  0  0  0  0  0  0
   57.9780   32.2820   44.3580 C   0  0  0  0  0  0  0  0  0  0  0  0
   57.9580   32.5020   42.9670 C   0  0  0  0  0  0  0  0  0  0  0  0
   57.3160   31.5960   42.1160 C   0  0  0  0  0  0  0  0  0  0  0  0
   56.6940   30.4600   42.6410 C   0  0  0  0  0  0  0  0  0  0  0  0
   56.6940   30.2410   44.0190 C   0  0  0  0  0  0  0  0  0  0  0  0
   57.3310   31.1450   44.8770 C   0  0  0  0  0  0  0  0  0  0  0  0
   59.1650   32.8480   46.4740 N   0  0  0  0  0  0  0  0  0  0  0  0
   62.5750   34.1560   47.5320 C   0  0  0  0  0  0  0  0  0  0  0  0
   61.8498   29.1548   48.9032 H   0  0  0  0  0  0  0  0  0  0  0  0
   60.9228   31.4724   47.2242 H   0  0  0  0  0  0  0  0  0  0  0  0
   61.2264   29.7292   46.7860 H   0  0  0  0  0  0  0  0  0  0  0  0
   58.7255   31.0410   47.8560 H   0  0  0  0  0  0  0  0  0  0  0  0
   58.9578   29.8434   46.5047 H   0  0  0  0  0  0  0  0  0  0  0  0
   60.4278   27.6340   47.9777 H   0  0  0  0  0  0  0  0  0  0  0  0
   58.8717   26.9114   48.5412 H   0  0  0  0  0  0  0  0  0  0  0  0
   57.1666   26.2850   46.9973 H   0  0  0  0  0  0  0  0  0  0  0  0
   56.4994   25.9255   44.6184 H   0  0  0  0  0  0  0  0  0  0  0  0
   57.8368   26.9465   42.7741 H   0  0  0  0  0  0  0  0  0  0  0  0
   59.8620   28.3084   43.3045 H   0  0  0  0  0  0  0  0  0  0  0  0
   60.5573   28.6437   45.6791 H   0  0  0  0  0  0  0  0  0  0  0  0
   58.4064   29.6262   50.3903 H   0  0  0  0  0  0  0  0  0  0  0  0
   59.6726   28.3107   50.2320 H   0  0  0  0  0  0  0  0  0  0  0  0
   59.9899   31.3120   50.0021 H   0  0  0  0  0  0  0  0  0  0  0  0
   60.9316   30.1129   50.9682 H   0  0  0  0  0  0  0  0  0  0  0  0
   64.6144   33.2720   47.5578 H   0  0  0  0  0  0  0  0  0  0  0  0
   64.0895   32.8852   50.1850 H   0  0  0  0  0  0  0  0  0  0  0  0
   64.5100   34.5068   49.6510 H   0  0  0  0  0  0  0  0  0  0  0  0
   61.8312   33.3569   50.4237 H   0  0  0  0  0  0  0  0  0  0  0  0
   62.3924   35.0502   50.5267 H   0  0  0  0  0  0  0  0  0  0  0  0
   60.6160   32.6210   48.6220 H   0  0  0  0  0  0  0  0  0  0  0  0
   59.6737   34.0445   49.2339 H   0  0  0  0  0  0  0  0  0  0  0  0
   60.2058   36.0368   46.7985 H   0  0  0  0  0  0  0  0  0  0  0  0
   58.4502   33.3916   42.5472 H   0  0  0  0  0  0  0  0  0  0  0  0
   57.3008   31.7782   41.0313 H   0  0  0  0  0  0  0  0  0  0  0  0
   56.2051   29.7395   41.9688 H   0  0  0  0  0  0  0  0  0  0  0  0
   56.1914   29.3543   44.4327 H   0  0  0  0  0  0  0  0  0  0  0  0
   57.3259   30.9659   45.9623 H   0  0  0  0  0  0  0  0  0  0  0  0
   62.0396   33.6552   46.7119 H   0  0  0  0  0  0  0  0  0  0  0  0
   63.0260   35.0790   47.1386 H   0  0  0  0  0  0  0  0  0  0  0  0
  1  2  2  0
  2  3  1  0
  3  4  1  0
  4  5  1  0
  5  6  1  0
  6  7  1  0
  7  8  1  0
  8  9  1  0
  9 10  2  0
 10 11  1  0
 11 12  2  0
 12 13  1  0
 13 14  2  0
  7 15  1  0
 15 16  1  0
  2 17  1  0
 17 18  1  0
 18 19  1  0
 19 20  1  0
 20 21  1  0
 21 22  1  0
 22 23  2  0
 23 24  1  0
 24 25  1  0
 25 26  1  0
 26 27  2  0
 27 28  1  0
 28 29  2  0
 29 30  1  0
 30 31  2  0
 25 32  2  0
 20 33  1  0
 16  4  1  0
 33 17  1  0
 14  9  1  0
 32 22  1  0
 31 26  1  0
  4 34  1  0
  5 35  1  0
  5 36  1  0
  6 37  1  0
  6 38  1  0
  8 39  1  0
  8 40  1  0
 10 41  1  0
 11 42  1  0
 12 43  1  0
 13 44  1  0
 14 45  1  0
 15 46  1  0
 15 47  1  0
 16 48  1  0
 16 49  1  0
 17 50  1  6
 18 51  1  0
 18 52  1  0
 19 53  1  0
 19 54  1  0
 21 55  1  0
 21 56  1  0
 23 57  1  0
 27 58  1  0
 28 59  1  0
 29 60  1  0
 30 61  1  0
 31 62  1  0
 33 63  1  0
 33 64  1  0
M  CHG  1   3  -1
M  END
>  <UniqueID>  (13) 
12

>  <SMILES>  (13) 
O=C([N-]C1CCN(Cc2ccccc2)CC1)[C@@H]1CCN(Cc2csc(-c3ccccc3)n2)C1

>  <Energy>  (13) 
108.75383759527277

>  <Genealogy>  (13) 
O=C([N-]C1CCN(Cc2ccccc2)CC1)C1CCN(Cc2csc(-c3ccccc3)n2)C1 (protonated)
O=C([N-]C1CCN(Cc2ccccc2)CC1)[C@@H]1CCN(Cc2csc(-c3ccccc3)n2)C1 (chirality)
O=C([N-]C1CCN(Cc2ccccc2)CC1)[C@@H]1CCN(Cc2csc(-c3ccccc3)n2)C1 (3D coordinates assigned)
O=C([N-]C1CCN(Cc2ccccc2)CC1)[C@@H]1CCN(Cc2csc(-c3ccccc3)n2)C1 (nonaromatic ring conformer: 108.75383759527277 kcal/mol)

>  <smiles>  (13) 
O=C(NC1CCN(Cc2ccccc2)CC1)C1CCN(Cc2csc(-c3ccccc3)n2)C1

>  <score_type>  (13) 
oracle

>  <origin>  (13) 
adg

>  <m_score__min__energy>  (13) 
-11.9

>  <m_primary>  (13) 
energy

$$$$
13:0
     RDKit          3D

 81 84  0  0  0  0  0  0  0  0999 V2000
   63.3810   34.2490   52.0640 C   0  0  0  0  0  0  0  0  0  0  0  0
   63.1100   34.1350   50.5660 C   0  0  0  0  0  0  0  0  0  0  0  0
   63.2400   32.7440   50.1060 N   0  0  0  0  0  0  0  0  0  0  0  0
   62.0590   32.0580   49.6470 C   0  0  0  0  0  0  0  0  0  0  0  0
   60.9900   31.8830   50.5360 C   0  0  0  0  0  0  0  0  0  0  0  0
   59.8020   31.2660   50.1250 C   0  0  0  0  0  0  0  0  0  0  0  0
   58.6950   31.0570   51.0890 C   0  0  0  0  0  0  0  0  0  0  0  0
   57.8770   32.1340   51.4760 C   0  0  0  0  0  0  0  0  0  0  0  0
   56.8450   31.9450   52.3990 C   0  0  0  0  0  0  0  0  0  0  0  0
   56.6020   30.6740   52.9420 C   0  0  0  0  0  0  0  0  0  0  0  0
   55.4810   30.4680   53.9400 C   0  0  0  0  0  0  0  0  0  0  0  0
   54.2380   29.9290   53.3450 N   0  0  0  0  0  0  0  0  0  0  0  0
   53.9280   30.5300   52.0370 C   0  0  0  0  0  0  0  0  0  0  0  0
   54.2380   28.4610   53.2630 C   0  0  0  0  0  0  0  0  0  0  0  0
   57.4190   29.5990   52.5590 C   0  0  0  0  0  0  0  0  0  0  0  0
   58.4570   29.7870   51.6420 C   0  0  0  0  0  0  0  0  0  0  0  0
   59.6800   30.8440   48.7950 C   0  0  0  0  0  0  0  0  0  0  0  0
   60.7440   30.9850   47.8940 C   0  0  0  0  0  0  0  0  0  0  0  0
   60.5460   30.5330   46.5030 C   0  0  0  0  0  0  0  0  0  0  0  0
   59.8300   31.2120   45.7200 O   0  0  0  0  0  0  0  0  0  0  0  0
   61.1570   29.3180   46.0530 N   0  0  0  0  0  0  0  0  0  0  0  0
   60.6780   28.6040   44.8720 C   0  0  0  0  0  0  0  0  0  0  0  0
   59.2490   28.1770   45.0800 C   0  0  0  0  0  0  0  0  0  0  0  0
   58.9690   26.9600   45.7190 C   0  0  0  0  0  0  0  0  0  0  0  0
   57.6490   26.5960   45.9930 C   0  0  0  0  0  0  0  0  0  0  0  0
   56.5970   27.4450   45.6380 C   0  0  0  0  0  0  0  0  0  0  0  0
   55.2940   27.0870   45.9660 O   0  0  0  0  0  0  0  0  0  0  0  0
   56.8640   28.6590   44.9790 C   0  0  0  0  0  0  0  0  0  0  0  0
   55.7730   29.5760   44.6030 C   0  0  0  0  0  0  0  0  0  0  0  0
   54.7170   29.1030   44.1080 O   0  0  0  0  0  0  0  0  0  0  0  0
   55.8650   30.9890   44.8240 N   0  0  0  0  0  0  0  0  0  0  0  0
   57.0320   31.7930   44.4940 C   0  0  0  0  0  0  0  0  0  0  0  0
   58.1920   29.0270   44.7200 C   0  0  0  0  0  0  0  0  0  0  0  0
   61.9580   31.5780   48.3180 C   0  0  0  0  0  0  0  0  0  0  0  0
   63.1100   31.7310   47.3470 C   0  0  0  0  0  0  0  0  0  0  0  0
   64.5590   32.0780   50.1640 C   0  0  0  0  0  0  0  0  0  0  0  0
   65.6960   33.1110   50.0610 C   0  0  0  0  0  0  0  0  0  0  0  0
   67.0370   32.5300   50.5460 C   0  0  0  0  0  0  0  0  0  0  0  0
   67.0360   31.1170   50.4720 O   0  0  0  0  0  0  0  0  0  0  0  0
   66.1610   30.5750   51.4480 C   0  0  0  0  0  0  0  0  0  0  0  0
   64.7500   31.2090   51.4250 C   0  0  0  0  0  0  0  0  0  0  0  0
   62.5080   33.8818   52.6235 H   0  0  0  0  0  0  0  0  0  0  0  0
   64.2634   33.6458   52.3239 H   0  0  0  0  0  0  0  0  0  0  0  0
   63.5669   35.3016   52.3239 H   0  0  0  0  0  0  0  0  0  0  0  0
   62.0890   34.4876   50.3583 H   0  0  0  0  0  0  0  0  0  0  0  0
   63.8490   34.7493   50.0307 H   0  0  0  0  0  0  0  0  0  0  0  0
   61.0856   32.2360   51.5734 H   0  0  0  0  0  0  0  0  0  0  0  0
   58.0511   33.1326   51.0488 H   0  0  0  0  0  0  0  0  0  0  0  0
   56.2194   32.7976   52.7017 H   0  0  0  0  0  0  0  0  0  0  0  0
   55.8289   29.7647   54.7109 H   0  0  0  0  0  0  0  0  0  0  0  0
   55.2343   31.4581   54.3508 H   0  0  0  0  0  0  0  0  0  0  0  0
   53.4285   31.4984   52.1876 H   0  0  0  0  0  0  0  0  0  0  0  0
   54.8602   30.6820   51.4731 H   0  0  0  0  0  0  0  0  0  0  0  0
   53.2637   29.8586   51.4731 H   0  0  0  0  0  0  0  0  0  0  0  0
   55.2751   28.0949   53.2426 H   0  0  0  0  0  0  0  0  0  0  0  0
   53.7195   28.0448   54.1393 H   0  0  0  0  0  0  0  0  0  0  0  0
   53.7195   28.1450   52.3458 H   0  0  0  0  0  0  0  0  0  0  0  0
   57.2410   28.6002   52.9840 H   0  0  0  0  0  0  0  0  0  0  0  0
   59.0911   28.9364   51.3516 H   0  0  0  0  0  0  0  0  0  0  0  0
   58.7356   30.3956   48.4529 H   0  0  0  0  0  0  0  0  0  0  0  0
   61.8710   28.8520   46.6580 H   0  0  0  0  0  0  0  0  0  0  0  0
   60.7376   29.2661   43.9956 H   0  0  0  0  0  0  0  0  0  0  0  0
   61.3030   27.7140   44.7068 H   0  0  0  0  0  0  0  0  0  0  0  0
   59.7927   26.2896   46.0054 H   0  0  0  0  0  0  0  0  0  0  0  0
   57.4364   25.6379   46.4899 H   0  0  0  0  0  0  0  0  0  0  0  0
   57.5198   32.1290   45.4209 H   0  0  0  0  0  0  0  0  0  0  0  0
   57.7388   31.1893   43.9058 H   0  0  0  0  0  0  0  0  0  0  0  0
   56.7197   32.6685   43.9058 H   0  0  0  0  0  0  0  0  0  0  0  0
   58.4068   29.9887   44.2312 H   0  0  0  0  0  0  0  0  0  0  0  0
   64.0481   31.8556   47.9078 H   0  0  0  0  0  0  0  0  0  0  0  0
   63.1776   30.8339   46.7140 H   0  0  0  0  0  0  0  0  0  0  0  0
   62.9411   32.6146   46.7140 H   0  0  0  0  0  0  0  0  0  0  0  0
   64.5951   31.3990   49.2993 H   0  0  0  0  0  0  0  0  0  0  0  0
   65.8010   33.4225   49.0113 H   0  0  0  0  0  0  0  0  0  0  0  0
   65.4409   33.9677   50.7020 H   0  0  0  0  0  0  0  0  0  0  0  0
   67.8479   32.9223   49.9147 H   0  0  0  0  0  0  0  0  0  0  0  0
   67.1868   32.8250   51.5951 H   0  0  0  0  0  0  0  0  0  0  0  0
   66.0613   29.4947   51.2660 H   0  0  0  0  0  0  0  0  0  0  0  0
   66.5989   30.7908   52.4337 H   0  0  0  0  0  0  0  0  0  0  0  0
   63.9952   30.4088   51.4290 H   0  0  0  0  0  0  0  0  0  0  0  0
   64.6364   31.8477   52.3133 H   0  0  0  0  0  0  0  0  0  0  0  0
  1  2  1  0
  2  3  1  0
  3  4  1  0
  4  5  2  0
  5  6  1  0
  6  7  1  0
  7  8  2  0
  8  9  1  0
  9 10  2  0
 10 11  1  0
 11 12  1  0
 12 13  1  0
 12 14  1  0
 10 15  1  0
 15 16  2  0
  6 17  2  0
 17 18  1  0
 18 19  1  0
 19 20  2  0
 19 21  1  0
 21 22  1  0
 22 23  1  0
 23 24  2  0
 24 25  1  0
 25 26  2  0
 26 27  1  0
 26 28  1  0
 28 29  1  0
 29 30  2  0
 29 31  1  0
 31 32  1  0
 28 33  2  0
 18 34  2  0
 34 35  1  0
  3 36  1  0
 36 37  1  0
 37 38  1  0
 38 39  1  0
 39 40  1  0
 40 41  1  0
 34  4  1  0
 41 36  1  0
 16  7  1  0
 33 23  1  0
  1 42  1  0
  1 43  1  0
  1 44  1  0
  2 45  1  0
  2 46  1  0
  5 47  1  0
  8 48  1  0
  9 49  1  0
 11 50  1  0
 11 51  1  0
 13 52  1  0
 13 53  1  0
 13 54  1  0
 14 55  1  0
 14 56  1  0
 14 57  1  0
 15 58  1  0
 16 59  1  0
 17 60  1  0
 21 61  1  0
 22 62  1  0
 22 63  1  0
 24 64  1  0
 25 65  1  0
 32 66  1  0
 32 67  1  0
 32 68  1  0
 33 69  1  0
 35 70  1  0
 35 71  1  0
 35 72  1  0
 36 73  1  0
 37 74  1  0
 37 75  1  0
 38 76  1  0
 38 77  1  0
 40 78  1  0
 40 79  1  0
 41 80  1  0
 41 81  1  0
M  CHG  2  27  -1  31  -1
M  END
>  <UniqueID>  (14) 
13

>  <SMILES>  (14) 
CCN(c1cc(-c2ccc(CN(C)C)cc2)cc(C(=O)NCc2ccc([O-])c(C(=O)[N-]C)c2)c1C)C1CCOCC1

>  <Energy>  (14) 
108.68222892710318

>  <Genealogy>  (14) 
CCN(c1cc(-c2ccc(CN(C)C)cc2)cc(C(=O)NCc2ccc([O-])c(C(=O)[N-]C)c2)c1C)C1CCOCC1 (protonated)
CCN(c1cc(-c2ccc(CN(C)C)cc2)cc(C(=O)NCc2ccc([O-])c(C(=O)[N-]C)c2)c1C)C1CCOCC1 (3D coordinates assigned)
CCN(c1cc(-c2ccc(CN(C)C)cc2)cc(C(=O)NCc2ccc([O-])c(C(=O)[N-]C)c2)c1C)C1CCOCC1 (nonaromatic ring conformer: 108.68222892710318 kcal/mol)

>  <smiles>  (14) 
CCN(c1cc(-c2ccc(CN(C)C)cc2)cc(C(=O)NCc2ccc(O)c(C(=O)NC)c2)c1C)C1CCOCC1

>  <score_type>  (14) 
oracle

>  <origin>  (14) 
adg

>  <m_score__min__energy>  (14) 
-15.279999999999999

>  <m_primary>  (14) 
energy

$$$$
14:0
     RDKit          3D

 56 60  0  0  0  0  0  0  0  0999 V2000
   59.1250   28.6690   46.7050 C   0  0  0  0  0  0  0  0  0  0  0  0
   58.3160   29.3210   45.6300 C   0  0  0  0  0  0  0  0  0  0  0  0
   58.0360   28.6360   44.4420 C   0  0  0  0  0  0  0  0  0  0  0  0
   57.2730   29.2630   43.4570 C   0  0  0  0  0  0  0  0  0  0  0  0
   56.7860   30.5530   43.6670 C   0  0  0  0  0  0  0  0  0  0  0  0
   57.0590   31.2090   44.8870 C   0  0  0  0  0  0  0  0  0  0  0  0
   56.6320   32.4130   45.1500 N   0  0  0  0  0  0  0  0  0  0  0  0
   57.4220   33.6070   45.2730 C   0  0  0  0  0  0  0  0  0  0  0  0
   57.1140   34.6080   44.5730 O   0  0  0  0  0  0  0  0  0  0  0  0
   58.6230   33.6620   46.1400 C   0  0  0  0  0  0  0  0  0  0  0  0
   59.8510   33.1420   45.6980 C   0  0  0  0  0  0  0  0  0  0  0  0
   60.9660   33.1500   46.5370 C   0  0  0  0  0  0  0  0  0  0  0  0
   60.8730   33.6810   47.8300 C   0  0  0  0  0  0  0  0  0  0  0  0
   62.2500   33.5910   48.9210 S   0  0  0  0  0  0  0  0  0  0  0  0
   62.5740   34.9670   49.4320 O   0  0  0  0  0  0  0  0  0  0  0  0
   63.4520   33.0730   48.1830 O   0  0  0  0  0  0  0  0  0  0  0  0
   61.8840   32.5230   50.2450 N   0  0  0  0  0  0  0  0  0  0  0  0
   60.5310   32.4490   50.7030 C   0  0  0  0  0  0  0  0  0  0  0  0
   59.9800   33.4890   51.4640 C   0  0  0  0  0  0  0  0  0  0  0  0
   58.6480   33.4190   51.8840 C   0  0  0  0  0  0  0  0  0  0  0  0
   57.8680   32.3080   51.5520 C   0  0  0  0  0  0  0  0  0  0  0  0
   58.4180   31.2650   50.8010 C   0  0  0  0  0  0  0  0  0  0  0  0
   59.7510   31.3380   50.3660 C   0  0  0  0  0  0  0  0  0  0  0  0
   60.3850   30.2170   49.5960 C   0  0  0  0  0  0  0  0  0  0  0  0
   61.3860   29.4700   50.4780 C   0  0  0  0  0  0  0  0  0  0  0  0
   62.6720   30.2040   50.8400 C   0  0  0  0  0  0  0  0  0  0  0  0
   63.7080   29.4050   51.3600 C   0  0  0  0  0  0  0  0  0  0  0  0
   64.9170   29.9650   51.7700 C   0  0  0  0  0  0  0  0  0  0  0  0
   65.1140   31.3390   51.6840 C   0  0  0  0  0  0  0  0  0  0  0  0
   64.1030   32.1570   51.1840 C   0  0  0  0  0  0  0  0  0  0  0  0
   62.8790   31.6160   50.7520 C   0  0  0  0  0  0  0  0  0  0  0  0
   59.6590   34.2250   48.2680 C   0  0  0  0  0  0  0  0  0  0  0  0
   58.5430   34.2220   47.4270 C   0  0  0  0  0  0  0  0  0  0  0  0
   57.8220   30.5740   45.8190 N   0  0  0  0  0  0  0  0  0  0  0  0
   58.7428   28.9770   47.6894 H   0  0  0  0  0  0  0  0  0  0  0  0
   59.0501   27.5758   46.6083 H   0  0  0  0  0  0  0  0  0  0  0  0
   60.1773   28.9744   46.6083 H   0  0  0  0  0  0  0  0  0  0  0  0
   58.4135   27.6145   44.2869 H   0  0  0  0  0  0  0  0  0  0  0  0
   57.0553   28.7399   42.5142 H   0  0  0  0  0  0  0  0  0  0  0  0
   56.1937   31.0554   42.8880 H   0  0  0  0  0  0  0  0  0  0  0  0
   59.9341   32.7256   44.6833 H   0  0  0  0  0  0  0  0  0  0  0  0
   61.9219   32.7377   46.1816 H   0  0  0  0  0  0  0  0  0  0  0  0
   60.5956   34.3607   51.7310 H   0  0  0  0  0  0  0  0  0  0  0  0
   58.2142   34.2385   52.4758 H   0  0  0  0  0  0  0  0  0  0  0  0
   56.8200   32.2541   51.8820 H   0  0  0  0  0  0  0  0  0  0  0  0
   57.8057   30.3861   50.5506 H   0  0  0  0  0  0  0  0  0  0  0  0
   59.6037   29.5187   49.2615 H   0  0  0  0  0  0  0  0  0  0  0  0
   60.9142   30.6335   48.7262 H   0  0  0  0  0  0  0  0  0  0  0  0
   60.8742   29.2143   51.4175 H   0  0  0  0  0  0  0  0  0  0  0  0
   61.7090   28.6077   49.8762 H   0  0  0  0  0  0  0  0  0  0  0  0
   63.5607   28.3182   51.4444 H   0  0  0  0  0  0  0  0  0  0  0  0
   65.7164   29.3191   52.1621 H   0  0  0  0  0  0  0  0  0  0  0  0
   66.0675   31.7797   52.0105 H   0  0  0  0  0  0  0  0  0  0  0  0
   64.2649   33.2435   51.1262 H   0  0  0  0  0  0  0  0  0  0  0  0
   59.5838   34.6560   49.2773 H   0  0  0  0  0  0  0  0  0  0  0  0
   57.5959   34.6606   47.7742 H   0  0  0  0  0  0  0  0  0  0  0  0
  1  2  1  0
  2  3  2  0
  3  4  1  0
  4  5  2  0
  5  6  1  0
  6  7  2  3
  7  8  1  0
  8  9  2  0
  8 10  1  0
 10 11  2  0
 11 12  1  0
 12 13  2  0
 13 14  1  0
 14 15  2  0
 14 16  2  0
 14 17  1  0
 17 18  1  0
 18 19  2  0
 19 20  1  0
 20 21  2  0
 21 22  1  0
 22 23  2  0
 23 24  1  0
 24 25  1  0
 25 26  1  0
 26 27  2  0
 27 28  1  0
 28 29  2  0
 29 30  1  0
 30 31  2  0
 13 32  1  0
 32 33  2  0
  6 34  1  0
 34  2  1  0
 33 10  1  0
 31 17  1  0
 23 18  1  0
 31 26  1  0
  1 35  1  0
  1 36  1  0
  1 37  1  0
  3 38  1  0
  4 39  1  0
  5 40  1  0
 11 41  1  0
 12 42  1  0
 19 43  1  0
 20 44  1  0
 21 45  1  0
 22 46  1  0
 24 47  1  0
 24 48  1  0
 25 49  1  0
 25 50  1  0
 27 51  1  0
 28 52  1  0
 29 53  1  0
 30 54  1  0
 32 55  1  0
 33 56  1  0
M  CHG  1  34  -1
M  END
>  <UniqueID>  (15) 
14

>  <SMILES>  (15) 
Cc1cccc(=NC(=O)c2ccc(S(=O)(=O)N3c4ccccc4CCc4ccccc43)cc2)[n-]1

>  <Energy>  (15) 
90.07617906605664

>  <Genealogy>  (15) 
Cc1cccc(=NC(=O)c2ccc(S(=O)(=O)N3c4ccccc4CCc4ccccc43)cc2)[n-]1 (protonated)
Cc1cccc(=NC(=O)c2ccc(S(=O)(=O)N3c4ccccc4CCc4ccccc43)cc2)[n-]1 (3D coordinates assigned)
Cc1cccc(=NC(=O)c2ccc(S(=O)(=O)N3c4ccccc4CCc4ccccc43)cc2)[n-]1 (nonaromatic ring conformer: 90.07617906605664 kcal/mol)

>  <smiles>  (15) 
Cc1cccc(=NC(=O)c2ccc(S(=O)(=O)N3c4ccccc4CCc4ccccc43)cc2)[nH]1

>  <score_type>  (15) 
oracle

>  <origin>  (15) 
adg

>  <m_score__min__energy>  (15) 
-10.02

>  <m_primary>  (15) 
energy

$$$$
15:0
     RDKit          3D

 45 48  0  0  0  0  0  0  0  0999 V2000
   55.9540   30.3270   44.8650 O   0  0  0  0  0  0  0  0  0  0  0  0
   57.1390   29.8930   44.8980 C   0  0  0  0  0  0  0  0  0  0  0  0
   57.3750   28.4370   44.8120 C   0  0  0  0  0  0  0  0  0  0  0  0
   57.0610   27.5980   45.8920 C   0  0  0  0  0  0  0  0  0  0  0  0
   57.2780   26.2190   45.8030 C   0  0  0  0  0  0  0  0  0  0  0  0
   57.8020   25.6670   44.6330 C   0  0  0  0  0  0  0  0  0  0  0  0
   58.0990   26.4910   43.5440 C   0  0  0  0  0  0  0  0  0  0  0  0
   57.8820   27.8710   43.6300 C   0  0  0  0  0  0  0  0  0  0  0  0
   58.2340   30.8220   45.0080 N   0  0  0  0  0  0  0  0  0  0  0  0
   58.1350   32.1100   44.3030 C   0  0  0  0  0  0  0  0  0  0  0  0
   58.5370   33.2240   45.2170 C   0  0  0  0  0  0  0  0  0  0  0  0
   59.4600   34.2230   44.9350 C   0  0  0  0  0  0  0  0  0  0  0  0
   59.6600   35.1070   46.0000 C   0  0  0  0  0  0  0  0  0  0  0  0
   58.8900   34.8150   47.1180 C   0  0  0  0  0  0  0  0  0  0  0  0
   57.9630   33.4520   46.7810 S   0  0  0  0  0  0  0  0  0  0  0  0
   59.5430   30.3060   45.4530 C   0  0  0  0  0  0  0  0  0  0  0  0
   59.9970   30.9300   46.7550 C   0  0  0  0  0  0  0  0  0  0  0  0
   61.0130   31.8980   46.7460 C   0  0  0  0  0  0  0  0  0  0  0  0
   61.3920   32.5330   47.9320 C   0  0  0  0  0  0  0  0  0  0  0  0
   62.3880   33.5230   47.9360 C   0  0  0  0  0  0  0  0  0  0  0  0
   62.7390   34.1570   49.1310 C   0  0  0  0  0  0  0  0  0  0  0  0
   62.1010   33.8100   50.3260 C   0  0  0  0  0  0  0  0  0  0  0  0
   61.1090   32.8250   50.3320 C   0  0  0  0  0  0  0  0  0  0  0  0
   60.7470   32.1810   49.1380 C   0  0  0  0  0  0  0  0  0  0  0  0
   59.7790   31.2190   49.1340 N   0  0  0  0  0  0  0  0  0  0  0  0
   59.4010   30.5890   47.9870 C   0  0  0  0  0  0  0  0  0  0  0  0
   58.5160   29.6930   48.0390 O   0  0  0  0  0  0  0  0  0  0  0  0
   56.6418   28.0272   46.8140 H   0  0  0  0  0  0  0  0  0  0  0  0
   57.0353   25.5687   46.6563 H   0  0  0  0  0  0  0  0  0  0  0  0
   57.9812   24.5836   44.5681 H   0  0  0  0  0  0  0  0  0  0  0  0
   58.5035   26.0547   42.6188 H   0  0  0  0  0  0  0  0  0  0  0  0
   58.1094   28.5156   42.7682 H   0  0  0  0  0  0  0  0  0  0  0  0
   58.8008   32.0985   43.4275 H   0  0  0  0  0  0  0  0  0  0  0  0
   57.0956   32.2657   43.9783 H   0  0  0  0  0  0  0  0  0  0  0  0
   59.9815   34.3101   43.9704 H   0  0  0  0  0  0  0  0  0  0  0  0
   60.3610   35.9536   45.9562 H   0  0  0  0  0  0  0  0  0  0  0  0
   58.8867   35.3786   48.0627 H   0  0  0  0  0  0  0  0  0  0  0  0
   59.4651   29.2175   45.5912 H   0  0  0  0  0  0  0  0  0  0  0  0
   60.2843   30.5625   44.6818 H   0  0  0  0  0  0  0  0  0  0  0  0
   61.5132   32.1581   45.8015 H   0  0  0  0  0  0  0  0  0  0  0  0
   62.8921   33.7995   46.9982 H   0  0  0  0  0  0  0  0  0  0  0  0
   63.5199   34.9317   49.1316 H   0  0  0  0  0  0  0  0  0  0  0  0
   62.3803   34.3132   51.2634 H   0  0  0  0  0  0  0  0  0  0  0  0
   60.6108   32.5538   51.2745 H   0  0  0  0  0  0  0  0  0  0  0  0
   59.3100   30.9530   50.0310 H   0  0  0  0  0  0  0  0  0  0  0  0
  1  2  2  0
  2  3  1  0
  3  4  2  0
  4  5  1  0
  5  6  2  0
  6  7  1  0
  7  8  2  0
  2  9  1  0
  9 10  1  0
 10 11  1  0
 11 12  2  0
 12 13  1  0
 13 14  2  0
 14 15  1  0
  9 16  1  0
 16 17  1  0
 17 18  2  0
 18 19  1  0
 19 20  2  0
 20 21  1  0
 21 22  2  0
 22 23  1  0
 23 24  2  0
 24 25  1  0
 25 26  1  0
 26 27  2  0
  8  3  1  0
 15 11  1  0
 26 17  1  0
 24 19  1  0
  4 28  1  0
  5 29  1  0
  6 30  1  0
  7 31  1  0
  8 32  1  0
 10 33  1  0
 10 34  1  0
 12 35  1  0
 13 36  1  0
 14 37  1  0
 16 38  1  0
 16 39  1  0
 18 40  1  0
 20 41  1  0
 21 42  1  0
 22 43  1  0
 23 44  1  0
 25 45  1  0
M  END
>  <UniqueID>  (16) 
15

>  <SMILES>  (16) 
O=C(c1ccccc1)N(Cc1cccs1)Cc1cc2ccccc2[nH]c1=O

>  <Energy>  (16) 
82.4096254735168

>  <Genealogy>  (16) 
O=C(c1ccccc1)N(Cc1cccs1)Cc1cc2ccccc2[nH]c1=O (3D coordinates assigned)
O=C(c1ccccc1)N(Cc1cccs1)Cc1cc2ccccc2[nH]c1=O (optimized conformer: 82.4096254735168 kcal/mol)

>  <smiles>  (16) 
O=C(c1ccccc1)N(Cc1cccs1)Cc1cc2ccccc2[nH]c1=O

>  <score_type>  (16) 
oracle

>  <origin>  (16) 
adg

>  <m_score__min__energy>  (16) 
-8.5700000000000003

>  <m_primary>  (16) 
energy

$$$$
16:0
     RDKit          3D

 59 61  0  0  0  0  0  0  0  0999 V2000
   51.5350   22.1920   47.6710 C   0  0  0  0  0  0  0  0  0  0  0  0
   50.9940   22.0320   46.2540 C   0  0  0  0  0  0  0  0  0  0  0  0
   52.0210   22.4300   45.2640 N   0  0  0  0  0  0  0  0  0  0  0  0
   51.5760   23.6150   44.5080 C   0  0  0  0  0  0  0  0  0  0  0  0
   53.3240   22.7020   45.9130 C   0  0  0  0  0  0  0  0  0  0  0  0
   53.9180   24.0230   45.4140 C   0  0  0  0  0  0  0  0  0  0  0  0
   55.0740   24.4100   46.2220 N   0  0  0  0  0  0  0  0  0  0  0  0
   55.7860   25.6540   46.1430 C   0  0  0  0  0  0  0  0  0  0  0  0
   55.1230   26.7120   45.9780 O   0  0  0  0  0  0  0  0  0  0  0  0
   57.2660   25.7290   46.1950 C   0  0  0  0  0  0  0  0  0  0  0  0
   57.8820   26.6960   47.0090 C   0  0  0  0  0  0  0  0  0  0  0  0
   59.2770   26.7630   47.1120 C   0  0  0  0  0  0  0  0  0  0  0  0
   60.0290   27.9850   48.1310 S   0  0  0  0  0  0  0  0  0  0  0  0
   59.0040   28.5540   49.0710 O   0  0  0  0  0  0  0  0  0  0  0  0
   61.1390   27.3560   48.9260 O   0  0  0  0  0  0  0  0  0  0  0  0
   60.6660   29.2410   47.1190 N   0  0  0  0  0  0  0  0  0  0  0  0
   59.9090   30.3320   46.5810 C   0  0  0  0  0  0  0  0  0  0  0  0
   60.2190   31.6320   46.9970 C   0  0  0  0  0  0  0  0  0  0  0  0
   59.5060   32.7260   46.4960 C   0  0  0  0  0  0  0  0  0  0  0  0
   58.4740   32.5280   45.5740 C   0  0  0  0  0  0  0  0  0  0  0  0
   57.5810   33.8990   44.9430 Cl  0  0  0  0  0  0  0  0  0  0  0  0
   58.1560   31.2320   45.1540 C   0  0  0  0  0  0  0  0  0  0  0  0
   58.8670   30.1360   45.6540 C   0  0  0  0  0  0  0  0  0  0  0  0
   60.0680   25.8300   46.4320 C   0  0  0  0  0  0  0  0  0  0  0  0
   59.4680   24.8400   45.6530 C   0  0  0  0  0  0  0  0  0  0  0  0
   58.0730   24.7760   45.5320 C   0  0  0  0  0  0  0  0  0  0  0  0
   57.4840   23.7360   44.7380 N   0  0  0  0  0  0  0  0  0  0  0  0
   56.9710   24.0540   43.4060 C   0  0  0  0  0  0  0  0  0  0  0  0
   55.8870   23.0420   43.0270 C   0  0  0  0  0  0  0  0  0  0  0  0
   56.3650   21.7170   43.1680 O   0  0  0  0  0  0  0  0  0  0  0  0
   56.6440   21.4480   44.5310 C   0  0  0  0  0  0  0  0  0  0  0  0
   57.7850   22.3360   45.0400 C   0  0  0  0  0  0  0  0  0  0  0  0
   50.7411   21.9572   48.3953 H   0  0  0  0  0  0  0  0  0  0  0  0
   52.3818   21.5058   47.8199 H   0  0  0  0  0  0  0  0  0  0  0  0
   51.8723   23.2284   47.8199 H   0  0  0  0  0  0  0  0  0  0  0  0
   50.7178   20.9803   46.0876 H   0  0  0  0  0  0  0  0  0  0  0  0
   50.1112   22.6770   46.1330 H   0  0  0  0  0  0  0  0  0  0  0  0
   51.2784   24.4075   45.2104 H   0  0  0  0  0  0  0  0  0  0  0  0
   52.3996   23.9765   43.8748 H   0  0  0  0  0  0  0  0  0  0  0  0
   50.7180   23.3450   43.8748 H   0  0  0  0  0  0  0  0  0  0  0  0
   53.1787   22.7609   47.0018 H   0  0  0  0  0  0  0  0  0  0  0  0
   54.0188   21.8871   45.6617 H   0  0  0  0  0  0  0  0  0  0  0  0
   54.2333   23.9040   44.3669 H   0  0  0  0  0  0  0  0  0  0  0  0
   53.1516   24.8078   45.4960 H   0  0  0  0  0  0  0  0  0  0  0  0
   57.2607   27.4084   47.5716 H   0  0  0  0  0  0  0  0  0  0  0  0
   61.0292   31.7944   47.7231 H   0  0  0  0  0  0  0  0  0  0  0  0
   59.7577   33.7440   46.8280 H   0  0  0  0  0  0  0  0  0  0  0  0
   57.3444   31.0744   44.4284 H   0  0  0  0  0  0  0  0  0  0  0  0
   58.6117   29.1187   45.3224 H   0  0  0  0  0  0  0  0  0  0  0  0
   61.1641   25.8772   46.5117 H   0  0  0  0  0  0  0  0  0  0  0  0
   60.0951   24.1034   45.1293 H   0  0  0  0  0  0  0  0  0  0  0  0
   56.5429   25.0673   43.4093 H   0  0  0  0  0  0  0  0  0  0  0  0
   57.7910   24.0073   42.6743 H   0  0  0  0  0  0  0  0  0  0  0  0
   55.0162   23.1831   43.6842 H   0  0  0  0  0  0  0  0  0  0  0  0
   55.6042   23.2049   41.9765 H   0  0  0  0  0  0  0  0  0  0  0  0
   55.7415   21.6429   45.1289 H   0  0  0  0  0  0  0  0  0  0  0  0
   56.9477   20.3951   44.6270 H   0  0  0  0  0  0  0  0  0  0  0  0
   57.8909   22.2099   46.1276 H   0  0  0  0  0  0  0  0  0  0  0  0
   58.7239   22.0472   44.5449 H   0  0  0  0  0  0  0  0  0  0  0  0
  1  2  1  0
  2  3  1  0
  3  4  1  0
  3  5  1  0
  5  6  1  0
  6  7  1  0
  7  8  1  0
  8  9  2  0
  8 10  1  0
 10 11  2  0
 11 12  1  0
 12 13  1  0
 13 14  2  0
 13 15  2  0
 13 16  1  0
 16 17  1  0
 17 18  2  0
 18 19  1  0
 19 20  2  0
 20 21  1  0
 20 22  1  0
 22 23  2  0
 12 24  2  0
 24 25  1  0
 25 26  2  0
 26 27  1  0
 27 28  1  0
 28 29  1  0
 29 30  1  0
 30 31  1  0
 31 32  1  0
 26 10  1  0
 32 27  1  0
 23 17  1  0
  1 33  1  0
  1 34  1  0
  1 35  1  0
  2 36  1  0
  2 37  1  0
  4 38  1  0
  4 39  1  0
  4 40  1  0
  5 41  1  0
  5 42  1  0
  6 43  1  0
  6 44  1  0
 11 45  1  0
 18 46  1  0
 19 47  1  0
 22 48  1  0
 23 49  1  0
 24 50  1  0
 25 51  1  0
 28 52  1  0
 28 53  1  0
 29 54  1  0
 29 55  1  0
 31 56  1  0
 31 57  1  0
 32 58  1  0
 32 59  1  0
M  CHG  2   7  -1  16  -1
M  END
>  <UniqueID>  (17) 
16

>  <SMILES>  (17) 
CCN(C)CC[N-]C(=O)c1cc(S(=O)(=O)[N-]c2ccc(Cl)cc2)ccc1N1CCOCC1

>  <Energy>  (17) 
71.89482804012424

>  <Genealogy>  (17) 
CCN(C)CC[N-]C(=O)c1cc(S(=O)(=O)[N-]c2ccc(Cl)cc2)ccc1N1CCOCC1 (protonated)
CCN(C)CC[N-]C(=O)c1cc(S(=O)(=O)[N-]c2ccc(Cl)cc2)ccc1N1CCOCC1 (3D coordinates assigned)
CCN(C)CC[N-]C(=O)c1cc(S(=O)(=O)[N-]c2ccc(Cl)cc2)ccc1N1CCOCC1 (nonaromatic ring conformer: 71.89482804012424 kcal/mol)

>  <smiles>  (17) 
CCN(C)CCNC(=O)c1cc(S(=O)(=O)Nc2ccc(Cl)cc2)ccc1N1CCOCC1

>  <score_type>  (17) 
oracle

>  <origin>  (17) 
adg

>  <m_score__min__energy>  (17) 
-11.4

>  <m_primary>  (17) 
energy

$$$$
17:0
     RDKit          3D

 59 61  0  0  0  0  0  0  0  0999 V2000
   56.1980   29.8051   44.9558 H   0  0  0  0  0  0  0  0  0  0  0  0
   56.6370   28.9540   45.4970 C   0  0  0  0  0  0  0  0  0  0  0  0
   55.9540   27.7900   45.5720 N   0  0  0  0  0  0  0  0  0  0  0  0
   56.4460   26.7040   46.2150 C   0  0  0  0  0  0  0  0  0  0  0  0
   55.6860   25.5230   46.2510 C   0  0  0  0  0  0  0  0  0  0  0  0
   54.4320   25.5080   45.6180 O   0  0  0  0  0  0  0  0  0  0  0  0
   53.7100   24.3270   45.2860 C   0  0  0  0  0  0  0  0  0  0  0  0
   53.3979   23.8164   46.2090 H   0  0  0  0  0  0  0  0  0  0  0  0
   52.8208   24.5944   44.6962 H   0  0  0  0  0  0  0  0  0  0  0  0
   54.3534   23.6575   44.6962 H   0  0  0  0  0  0  0  0  0  0  0  0
   56.1980   24.3940   46.9160 C   0  0  0  0  0  0  0  0  0  0  0  0
   55.6102   23.4648   46.9487 H   0  0  0  0  0  0  0  0  0  0  0  0
   57.4470   24.4470   47.5340 C   0  0  0  0  0  0  0  0  0  0  0  0
   57.8390   23.5590   48.0514 H   0  0  0  0  0  0  0  0  0  0  0  0
   58.2020   25.6190   47.5000 C   0  0  0  0  0  0  0  0  0  0  0  0
   59.1852   25.6483   47.9925 H   0  0  0  0  0  0  0  0  0  0  0  0
   57.7160   26.7690   46.8390 C   0  0  0  0  0  0  0  0  0  0  0  0
   58.4600   27.9790   46.7950 C   0  0  0  0  0  0  0  0  0  0  0  0
   59.6300   27.9830   47.3880 N   0  0  0  0  0  0  0  0  0  0  0  0
   60.3560   28.9830   48.1680 C   0  0  0  0  0  0  0  0  0  0  0  0
   61.4373   28.8275   48.0392 H   0  0  0  0  0  0  0  0  0  0  0  0
   60.0723   29.9851   47.8140 H   0  0  0  0  0  0  0  0  0  0  0  0
   60.0030   28.8640   49.6540 C   0  0  0  0  0  0  0  0  0  0  0  0
   60.0230   27.8035   49.9456 H   0  0  0  0  0  0  0  0  0  0  0  0
   60.7392   29.4357   50.2381 H   0  0  0  0  0  0  0  0  0  0  0  0
   58.6750   29.4070   49.9160 N   0  0  0  0  0  0  0  0  0  0  0  0
   58.3050   30.0520   51.1390 C   0  0  0  0  0  0  0  0  0  0  0  0
   57.1550   29.8860   51.6280 O   0  0  0  0  0  0  0  0  0  0  0  0
   59.3090   30.8750   51.8720 C   0  0  0  0  0  0  0  0  0  0  0  0
   59.1616   30.7542   52.9554 H   0  0  0  0  0  0  0  0  0  0  0  0
   60.3225   30.5444   51.6007 H   0  0  0  0  0  0  0  0  0  0  0  0
   59.1837   31.9336   51.6007 H   0  0  0  0  0  0  0  0  0  0  0  0
   57.8960   29.0940   46.0980 C   0  0  0  0  0  0  0  0  0  0  0  0
   58.5610   30.3830   45.8710 C   0  0  0  0  0  0  0  0  0  0  0  0
   59.6710   30.4290   45.2770 O   0  0  0  0  0  0  0  0  0  0  0  0
   57.9790   31.5750   46.4100 N   0  0  0  0  0  0  0  0  0  0  0  0
   58.5980   32.8670   46.3420 C   0  0  0  0  0  0  0  0  0  0  0  0
   59.3940   33.3520   47.4130 C   0  0  0  0  0  0  0  0  0  0  0  0
   59.5410   32.5940   48.7130 C   0  0  0  0  0  0  0  0  0  0  0  0
   60.2546   31.7691   48.5704 H   0  0  0  0  0  0  0  0  0  0  0  0
   58.5554   32.2027   49.0054 H   0  0  0  0  0  0  0  0  0  0  0  0
   60.0510   33.5100   49.8220 C   0  0  0  0  0  0  0  0  0  0  0  0
   59.8069   33.0716   50.8009 H   0  0  0  0  0  0  0  0  0  0  0  0
   61.1416   33.6224   49.7322 H   0  0  0  0  0  0  0  0  0  0  0  0
   59.5721   34.4962   49.7322 H   0  0  0  0  0  0  0  0  0  0  0  0
   59.9640   34.6330   47.3170 C   0  0  0  0  0  0  0  0  0  0  0  0
   60.5882   35.0137   48.1388 H   0  0  0  0  0  0  0  0  0  0  0  0
   59.7470   35.4260   46.1920 C   0  0  0  0  0  0  0  0  0  0  0  0
   60.2168   36.4181   46.1213 H   0  0  0  0  0  0  0  0  0  0  0  0
   58.9370   34.9660   45.1570 C   0  0  0  0  0  0  0  0  0  0  0  0
   58.7518   35.6079   44.2831 H   0  0  0  0  0  0  0  0  0  0  0  0
   58.3550   33.6910   45.2190 C   0  0  0  0  0  0  0  0  0  0  0  0
   57.4230   33.2580   44.1130 C   0  0  0  0  0  0  0  0  0  0  0  0
   56.5542   32.7461   44.5525 H   0  0  0  0  0  0  0  0  0  0  0  0
   57.0988   34.1486   43.5546 H   0  0  0  0  0  0  0  0  0  0  0  0
   58.1310   32.3080   43.1530 C   0  0  0  0  0  0  0  0  0  0  0  0
   58.6914   31.5561   43.7280 H   0  0  0  0  0  0  0  0  0  0  0  0
   57.3860   31.8046   42.5193 H   0  0  0  0  0  0  0  0  0  0  0  0
   58.8263   32.8780   42.5193 H   0  0  0  0  0  0  0  0  0  0  0  0
  1  2  1  0
  2  3  1  0
  3  4  1  0
  4  5  2  0
  5  6  1  0
  6  7  1  0
  7  8  1  0
  7  9  1  0
  7 10  1  0
  5 11  1  0
 11 12  1  0
 11 13  2  0
 13 14  1  0
 13 15  1  0
 15 16  1  0
 15 17  2  0
 17 18  1  0
 18 19  2  0
 19 20  1  0
 20 21  1  0
 20 22  1  0
 20 23  1  0
 23 24  1  0
 23 25  1  0
 23 26  1  0
 26 27  1  0
 27 28  2  0
 27 29  1  0
 29 30  1  0
 29 31  1  0
 29 32  1  0
 18 33  1  0
 33 34  1  0
 34 35  2  0
 34 36  1  0
 36 37  1  0
 37 38  2  0
 38 39  1  0
 39 40  1  0
 39 41  1  0
 39 42  1  0
 42 43  1  0
 42 44  1  0
 42 45  1  0
 38 46  1  0
 46 47  1  0
 46 48  2  0
 48 49  1  0
 48 50  1  0
 50 51  1  0
 50 52  2  0
 52 53  1  0
 53 54  1  0
 53 55  1  0
 53 56  1  0
 56 57  1  0
 56 58  1  0
 56 59  1  0
 33  2  2  0
 52 37  1  0
 17  4  1  0
M  CHG  3   3  -1  26  -1  36  -1
M  END
>  <UniqueID>  (18) 
17

>  <SMILES>  (18) 
CCc1cccc(CC)c1[N-]C(=O)c1c[n-]c2c(OC)cccc2/c1=N/CC[N-]C(C)=O

>  <Energy>  (18) 
81.29934507589942

>  <Genealogy>  (18) 
CCc1cccc(CC)c1[N-]C(=O)c1c[n-]c2c(OC)cccc2c1=NCC[N-]C(C)=O (protonated)
CCc1cccc(CC)c1[N-]C(=O)c1c[n-]c2c(OC)cccc2/c1=N/CC[N-]C(C)=O (cis-trans isomerization)
CCc1cccc(CC)c1[N-]C(=O)c1c[n-]c2c(OC)cccc2/c1=N/CC[N-]C(C)=O (3D coordinates assigned)
CCc1cccc(CC)c1[N-]C(=O)c1c[n-]c2c(OC)cccc2/c1=N/CC[N-]C(C)=O (optimized conformer: 81.29934507589942 kcal/mol)

>  <smiles>  (18) 
CCc1cccc(CC)c1NC(=O)c1c[nH]c2c(OC)cccc2c1=NCCNC(C)=O

>  <score_type>  (18) 
oracle

>  <origin>  (18) 
adg

>  <m_score__min__energy>  (18) 
-12.27

>  <m_primary>  (18) 
energy

$$$$
18:0
     RDKit          3D

 36 37  0  0  0  0  0  0  0  0999 V2000
   64.1500   32.4780   48.7320 N   0  0  0  0  0  0  0  0  0  0  0  0
   63.0700   33.7100   48.1830 S   0  0  0  0  0  0  0  0  0  0  0  0
   63.7610   34.5560   47.1510 O   0  0  0  0  0  0  0  0  0  0  0  0
   62.6760   34.5860   49.3390 O   0  0  0  0  0  0  0  0  0  0  0  0
   61.6370   32.9650   47.4830 C   0  0  0  0  0  0  0  0  0  0  0  0
   60.5190   33.7470   47.1700 C   0  0  0  0  0  0  0  0  0  0  0  0
   59.3740   33.1570   46.6260 C   0  0  0  0  0  0  0  0  0  0  0  0
   59.3280   31.7680   46.4050 C   0  0  0  0  0  0  0  0  0  0  0  0
   58.1720   31.1350   45.8320 N   0  0  0  0  0  0  0  0  0  0  0  0
   57.2980   31.7590   44.8760 C   0  0  0  0  0  0  0  0  0  0  0  0
   57.4530   32.9680   44.5540 O   0  0  0  0  0  0  0  0  0  0  0  0
   56.1510   30.9910   44.2890 C   0  0  0  0  0  0  0  0  0  0  0  0
   56.0740   29.6550   44.8750 N   0  0  0  0  0  0  0  0  0  0  0  0
   56.9140   28.5480   44.5270 C   0  0  0  0  0  0  0  0  0  0  0  0
   57.2220   28.3700   43.3200 O   0  0  0  0  0  0  0  0  0  0  0  0
   57.3970   27.5880   45.5370 C   0  0  0  0  0  0  0  0  0  0  0  0
   58.7580   27.5710   45.8750 C   0  0  0  0  0  0  0  0  0  0  0  0
   59.2370   26.6580   46.8200 C   0  0  0  0  0  0  0  0  0  0  0  0
   58.3590   25.7650   47.4380 C   0  0  0  0  0  0  0  0  0  0  0  0
   56.9980   25.7890   47.1200 C   0  0  0  0  0  0  0  0  0  0  0  0
   56.5120   26.7020   46.1780 C   0  0  0  0  0  0  0  0  0  0  0  0
   55.1490   26.7340   45.8980 O   0  0  0  0  0  0  0  0  0  0  0  0
   60.4590   30.9930   46.7010 C   0  0  0  0  0  0  0  0  0  0  0  0
   61.6020   31.5840   47.2480 C   0  0  0  0  0  0  0  0  0  0  0  0
   64.5390   32.0130   47.8810 H   0  0  0  0  0  0  0  0  0  0  0  0
   60.5413   34.8314   47.3530 H   0  0  0  0  0  0  0  0  0  0  0  0
   58.5054   33.7813   46.3697 H   0  0  0  0  0  0  0  0  0  0  0  0
   57.8840   30.2090   46.2220 H   0  0  0  0  0  0  0  0  0  0  0  0
   55.2136   31.5295   44.4921 H   0  0  0  0  0  0  0  0  0  0  0  0
   56.3067   30.8944   43.2044 H   0  0  0  0  0  0  0  0  0  0  0  0
   59.4509   28.2780   45.3954 H   0  0  0  0  0  0  0  0  0  0  0  0
   60.3065   26.6433   47.0768 H   0  0  0  0  0  0  0  0  0  0  0  0
   58.7386   25.0424   48.1754 H   0  0  0  0  0  0  0  0  0  0  0  0
   56.3073   25.0882   47.6117 H   0  0  0  0  0  0  0  0  0  0  0  0
   60.4466   29.9114   46.5012 H   0  0  0  0  0  0  0  0  0  0  0  0
   62.4760   30.9633   47.4945 H   0  0  0  0  0  0  0  0  0  0  0  0
  1  2  1  0
  2  3  2  0
  2  4  2  0
  2  5  1  0
  5  6  2  0
  6  7  1  0
  7  8  2  0
  8  9  1  0
  9 10  1  0
 10 11  2  0
 10 12  1  0
 12 13  1  0
 13 14  1  0
 14 15  2  0
 14 16  1  0
 16 17  2  0
 17 18  1  0
 18 19  2  0
 19 20  1  0
 20 21  2  0
 21 22  1  0
  8 23  1  0
 23 24  2  0
 24  5  1  0
 21 16  1  0
  1 25  1  0
  6 26  1  0
  7 27  1  0
  9 28  1  0
 12 29  1  0
 12 30  1  0
 17 31  1  0
 18 32  1  0
 19 33  1  0
 20 34  1  0
 23 35  1  0
 24 36  1  0
M  CHG  3   1  -1  13  -1  22  -1
M  END
>  <UniqueID>  (19) 
18

>  <SMILES>  (19) 
[NH-]S(=O)(=O)c1ccc(NC(=O)C[N-]C(=O)c2ccccc2[O-])cc1

>  <Energy>  (19) 
41.709329457254775

>  <Genealogy>  (19) 
[NH-]S(=O)(=O)c1ccc(NC(=O)C[N-]C(=O)c2ccccc2[O-])cc1 (protonated)
[NH-]S(=O)(=O)c1ccc(NC(=O)C[N-]C(=O)c2ccccc2[O-])cc1 (3D coordinates assigned)
[NH-]S(=O)(=O)c1ccc(NC(=O)C[N-]C(=O)c2ccccc2[O-])cc1 (optimized conformer: 41.709329457254775 kcal/mol)

>  <smiles>  (19) 
NS(=O)(=O)c1ccc(NC(=O)CNC(=O)c2ccccc2O)cc1

>  <score_type>  (19) 
oracle

>  <origin>  (19) 
adg

>  <m_score__min__energy>  (19) 
-13.68

>  <m_primary>  (19) 
energy

$$$$
19:0
     RDKit          3D

 20 20  0  0  0  0  0  0  0  0999 V2000
   55.3250   26.2000   46.0380 N   0  0  0  0  0  0  0  0  0  0  0  0
   56.2730   25.2010   46.5310 C   0  0  0  0  0  0  0  0  0  0  0  0
   57.6290   25.8220   46.9030 C   0  0  0  0  0  0  0  0  0  0  0  0
   58.0370   26.8860   45.9290 C   0  0  0  0  0  0  0  0  0  0  0  0
   59.3250   27.1960   45.5600 C   0  0  0  0  0  0  0  0  0  0  0  0
   59.2970   28.2330   44.7050 N   0  0  0  0  0  0  0  0  0  0  0  0
   57.9810   28.5200   44.5890 C   0  0  0  0  0  0  0  0  0  0  0  0
   57.5010   29.5860   43.7600 N   0  0  0  0  0  0  0  0  0  0  0  0
   56.2190   30.2070   43.9110 C   0  0  0  0  0  0  0  0  0  0  0  0
   55.4160   29.8410   44.8100 O   0  0  0  0  0  0  0  0  0  0  0  0
   57.1770   27.7240   45.3260 N   0  0  0  0  0  0  0  0  0  0  0  0
   55.5040   26.3710   45.0220 H   0  0  0  0  0  0  0  0  0  0  0  0
   55.4780   27.1000   46.5490 H   0  0  0  0  0  0  0  0  0  0  0  0
   55.8474   24.7186   47.4233 H   0  0  0  0  0  0  0  0  0  0  0  0
   56.4448   24.4718   45.7256 H   0  0  0  0  0  0  0  0  0  0  0  0
   57.5543   26.2667   47.9063 H   0  0  0  0  0  0  0  0  0  0  0  0
   58.3884   25.0266   46.8802 H   0  0  0  0  0  0  0  0  0  0  0  0
   60.2314   26.6791   45.9081 H   0  0  0  0  0  0  0  0  0  0  0  0
   58.1220   29.9350   42.9950 H   0  0  0  0  0  0  0  0  0  0  0  0
   55.9300   31.0197   43.2283 H   0  0  0  0  0  0  0  0  0  0  0  0
  1  2  1  0
  2  3  1  0
  3  4  1  0
  4  5  2  0
  5  6  1  0
  6  7  1  0
  7  8  1  0
  8  9  1  0
  9 10  2  0
  7 11  2  0
 11  4  1  0
  1 12  1  0
  1 13  1  0
  2 14  1  0
  2 15  1  0
  3 16  1  0
  3 17  1  0
  5 18  1  0
  8 19  1  0
  9 20  1  0
M  CHG  1   6  -1
M  END
>  <UniqueID>  (20) 
19

>  <SMILES>  (20) 
NCCc1c[n-]c(NC=O)n1

>  <Energy>  (20) 
41.25017114440561

>  <Genealogy>  (20) 
NCCc1c[n-]c(NC=O)n1 (protonated)
NCCc1c[n-]c(NC=O)n1 (3D coordinates assigned)
NCCc1c[n-]c(NC=O)n1 (optimized conformer: 41.25017114440561 kcal/mol)

>  <smiles>  (20) 
NCCc1c[nH]c(NC=O)n1

>  <score_type>  (20) 
oracle

>  <origin>  (20) 
adg

>  <m_score__min__energy>  (20) 
-7.0300000000000002

>  <m_primary>  (20) 
energy

$$$$
20:0
     RDKit          3D

 67 72  0  0  0  0  0  0  0  0999 V2000
   56.1536   19.8741   45.0988 H   0  0  0  0  0  0  0  0  0  0  0  0
   56.1530   20.8280   44.5510 C   0  0  0  0  0  0  0  0  0  0  0  0
   55.6240   21.9420   45.1260 N   0  0  0  0  0  0  0  0  0  0  0  0
   55.5860   23.1420   44.4840 C   0  0  0  0  0  0  0  0  0  0  0  0
   55.0890   24.1670   45.1190 N   0  0  0  0  0  0  0  0  0  0  0  0
   55.8090   25.3100   45.5960 C   0  0  0  0  0  0  0  0  0  0  0  0
   55.1640   26.3060   46.0210 O   0  0  0  0  0  0  0  0  0  0  0  0
   57.2380   25.3690   45.4900 N   0  0  0  0  0  0  0  0  0  0  0  0
   57.7230   24.6710   44.8840 H   0  0  0  0  0  0  0  0  0  0  0  0
   58.0020   26.4200   46.0970 C   0  0  0  0  0  0  0  0  0  0  0  0
   58.6870   26.1630   47.2910 C   0  0  0  0  0  0  0  0  0  0  0  0
   58.6109   25.1708   47.7597 H   0  0  0  0  0  0  0  0  0  0  0  0
   59.4650   27.1530   47.8920 C   0  0  0  0  0  0  0  0  0  0  0  0
   60.0061   26.9308   48.8236 H   0  0  0  0  0  0  0  0  0  0  0  0
   59.5630   28.4300   47.3180 C   0  0  0  0  0  0  0  0  0  0  0  0
   60.3290   29.4300   47.9340 O   0  0  0  0  0  0  0  0  0  0  0  0
   59.7850   30.5480   48.5740 C   0  0  0  0  0  0  0  0  0  0  0  0
   59.6300   31.7450   47.9300 N   0  0  0  0  0  0  0  0  0  0  0  0
   59.0230   32.8160   48.5360 C   0  0  0  0  0  0  0  0  0  0  0  0
   58.8790   33.9250   47.8730 N   0  0  0  0  0  0  0  0  0  0  0  0
   59.9810   34.7300   47.3450 C   0  0  0  0  0  0  0  0  0  0  0  0
   59.8995   34.7755   46.2490 H   0  0  0  0  0  0  0  0  0  0  0  0
   59.9164   35.7383   47.7800 H   0  0  0  0  0  0  0  0  0  0  0  0
   61.3150   34.1340   47.7150 C   0  0  0  0  0  0  0  0  0  0  0  0
   62.1060   33.4950   46.7460 C   0  0  0  0  0  0  0  0  0  0  0  0
   61.7434   33.4114   45.7109 H   0  0  0  0  0  0  0  0  0  0  0  0
   63.3520   32.9650   47.0920 C   0  0  0  0  0  0  0  0  0  0  0  0
   63.9687   32.4688   46.3281 H   0  0  0  0  0  0  0  0  0  0  0  0
   63.8160   33.0640   48.4060 C   0  0  0  0  0  0  0  0  0  0  0  0
   64.7959   32.6437   48.6765 H   0  0  0  0  0  0  0  0  0  0  0  0
   63.0340   33.6980   49.3780 C   0  0  0  0  0  0  0  0  0  0  0  0
   63.6660   33.8290   51.1740 Br  0  0  0  0  0  0  0  0  0  0  0  0
   61.7860   34.2330   49.0330 C   0  0  0  0  0  0  0  0  0  0  0  0
   61.1733   34.7324   49.7980 H   0  0  0  0  0  0  0  0  0  0  0  0
   58.5560   32.7010   49.8190 N   0  0  0  0  0  0  0  0  0  0  0  0
   58.7330   31.5240   50.4610 C   0  0  0  0  0  0  0  0  0  0  0  0
   59.3220   30.4580   49.8780 C   0  0  0  0  0  0  0  0  0  0  0  0
   59.3110   29.3980   50.7100 N   0  0  0  0  0  0  0  0  0  0  0  0
   58.6900   29.8940   51.8160 C   0  0  0  0  0  0  0  0  0  0  0  0
   58.4975   29.2971   52.7197 H   0  0  0  0  0  0  0  0  0  0  0  0
   58.3320   31.1980   51.6930 N   0  0  0  0  0  0  0  0  0  0  0  0
   57.5790   32.0160   52.6400 C   0  0  0  0  0  0  0  0  0  0  0  0
   57.2507   32.9402   52.1419 H   0  0  0  0  0  0  0  0  0  0  0  0
   58.2241   32.2616   53.4964 H   0  0  0  0  0  0  0  0  0  0  0  0
   56.3530   31.2470   53.1400 C   0  0  0  0  0  0  0  0  0  0  0  0
   55.8088   31.8718   53.8635 H   0  0  0  0  0  0  0  0  0  0  0  0
   56.6968   30.3146   53.6117 H   0  0  0  0  0  0  0  0  0  0  0  0
   55.4170   30.8880   51.9910 C   0  0  0  0  0  0  0  0  0  0  0  0
   54.4623   30.5218   52.3965 H   0  0  0  0  0  0  0  0  0  0  0  0
   55.2351   31.7802   51.3738 H   0  0  0  0  0  0  0  0  0  0  0  0
   55.8784   30.1030   51.3738 H   0  0  0  0  0  0  0  0  0  0  0  0
   58.8620   28.7160   46.1290 C   0  0  0  0  0  0  0  0  0  0  0  0
   58.9270   29.9980   45.5500 C   0  0  0  0  0  0  0  0  0  0  0  0
   59.5289   30.7841   46.0294 H   0  0  0  0  0  0  0  0  0  0  0  0
   58.2330   30.2780   44.3720 C   0  0  0  0  0  0  0  0  0  0  0  0
   58.2866   31.2836   43.9294 H   0  0  0  0  0  0  0  0  0  0  0  0
   57.4710   29.2850   43.7540 C   0  0  0  0  0  0  0  0  0  0  0  0
   56.9267   29.5106   42.8251 H   0  0  0  0  0  0  0  0  0  0  0  0
   57.3970   28.0050   44.3110 C   0  0  0  0  0  0  0  0  0  0  0  0
   56.7941   27.2289   43.8169 H   0  0  0  0  0  0  0  0  0  0  0  0
   58.0890   27.7010   45.5010 C   0  0  0  0  0  0  0  0  0  0  0  0
   56.1290   23.2420   43.1830 C   0  0  0  0  0  0  0  0  0  0  0  0
   56.1150   24.2034   42.6486 H   0  0  0  0  0  0  0  0  0  0  0  0
   56.6840   22.1090   42.5810 C   0  0  0  0  0  0  0  0  0  0  0  0
   57.1109   22.1753   41.5694 H   0  0  0  0  0  0  0  0  0  0  0  0
   56.6950   20.8950   43.2660 C   0  0  0  0  0  0  0  0  0  0  0  0
   57.1268   19.9979   42.7984 H   0  0  0  0  0  0  0  0  0  0  0  0
  1  2  1  0
  2  3  1  0
  3  4  1  0
  4  5  2  0
  5  6  1  0
  6  7  2  0
  6  8  1  0
  8  9  1  0
  8 10  1  0
 10 11  2  0
 11 12  1  0
 11 13  1  0
 13 14  1  0
 13 15  2  0
 15 16  1  0
 16 17  1  0
 17 18  1  0
 18 19  1  0
 19 20  2  3
 20 21  1  0
 21 22  1  0
 21 23  1  0
 21 24  1  0
 24 25  2  0
 25 26  1  0
 25 27  1  0
 27 28  1  0
 27 29  2  0
 29 30  1  0
 29 31  1  0
 31 32  1  0
 31 33  2  0
 33 34  1  0
 19 35  1  0
 35 36  2  0
 36 37  1  0
 37 38  1  0
 38 39  2  0
 39 40  1  0
 39 41  1  0
 41 42  1  0
 42 43  1  0
 42 44  1  0
 42 45  1  0
 45 46  1  0
 45 47  1  0
 45 48  1  0
 48 49  1  0
 48 50  1  0
 48 51  1  0
 15 52  1  0
 52 53  2  0
 53 54  1  0
 53 55  1  0
 55 56  1  0
 55 57  2  0
 57 58  1  0
 57 59  1  0
 59 60  1  0
 59 61  2  0
  4 62  1  0
 62 63  1  0
 62 64  2  0
 64 65  1  0
 64 66  1  0
 66 67  1  0
 66  2  2  0
 61 10  1  0
 37 17  2  0
 61 52  1  0
 33 24  1  0
 41 36  1  0
M  CHG  2   3  -1  18  -1
M  END
>  <UniqueID>  (21) 
20

>  <SMILES>  (21) 
CCCn1cnc2c(Oc3ccc(NC(=O)/N=c4\cccc[n-]4)c4ccccc34)[n-]c(=NCc3cccc(Br)c3)nc21

>  <Energy>  (21) 
132.04258325053704

>  <Genealogy>  (21) 
CCCn1cnc2c(Oc3ccc(NC(=O)N=c4cccc[n-]4)c4ccccc34)[n-]c(=NCc3cccc(Br)c3)nc21 (protonated)
CCCn1cnc2c(Oc3ccc(NC(=O)/N=c4\cccc[n-]4)c4ccccc34)[n-]c(=NCc3cccc(Br)c3)nc21 (cis-trans isomerization)
CCCn1cnc2c(Oc3ccc(NC(=O)/N=c4\cccc[n-]4)c4ccccc34)[n-]c(=NCc3cccc(Br)c3)nc21 (3D coordinates assigned)
CCCn1cnc2c(Oc3ccc(NC(=O)/N=c4\cccc[n-]4)c4ccccc34)[n-]c(=NCc3cccc(Br)c3)nc21 (optimized conformer: 132.04258325053704 kcal/mol)

>  <smiles>  (21) 
CCCn1cnc2c(Oc3ccc(NC(=O)N=c4cccc[nH]4)c4ccccc34)[nH]c(=NCc3cccc(Br)c3)nc21

>  <score_type>  (21) 
oracle

>  <origin>  (21) 
adg

>  <m_score__min__energy>  (21) 
-12.640000000000001

>  <m_primary>  (21) 
energy

$$$$
21:0
     RDKit          3D

 54 57  0  0  0  0  0  0  0  0999 V2000
   58.6140   34.2330   47.7780 O   0  0  0  0  0  0  0  0  0  0  0  0
   59.3420   33.2040   47.7210 C   0  0  0  0  0  0  0  0  0  0  0  0
   58.9220   32.0800   46.9400 N   0  0  0  0  0  0  0  0  0  0  0  0
   58.5180   32.1660   45.5680 C   0  0  0  0  0  0  0  0  0  0  0  0
   58.8600   33.2830   44.7700 C   0  0  0  0  0  0  0  0  0  0  0  0
   59.5350   34.3860   45.2920 O   0  0  0  0  0  0  0  0  0  0  0  0
   58.4910   33.3070   43.4210 C   0  0  0  0  0  0  0  0  0  0  0  0
   57.7680   32.2510   42.8660 C   0  0  0  0  0  0  0  0  0  0  0  0
   57.3950   31.1650   43.6600 C   0  0  0  0  0  0  0  0  0  0  0  0
   57.7440   31.1280   45.0210 C   0  0  0  0  0  0  0  0  0  0  0  0
   57.3950   30.0080   45.8490 N   0  0  0  0  0  0  0  0  0  0  0  0
   56.6150   28.8670   45.4630 C   0  0  0  0  0  0  0  0  0  0  0  0
   55.5330   29.0580   44.8490 O   0  0  0  0  0  0  0  0  0  0  0  0
   57.0600   27.4800   45.7250 C   0  0  0  0  0  0  0  0  0  0  0  0
   58.4350   27.1940   45.7610 C   0  0  0  0  0  0  0  0  0  0  0  0
   58.8830   25.8930   46.0050 C   0  0  0  0  0  0  0  0  0  0  0  0
   57.9640   24.8650   46.2220 C   0  0  0  0  0  0  0  0  0  0  0  0
   58.4120   23.5710   46.4620 O   0  0  0  0  0  0  0  0  0  0  0  0
   56.5940   25.1370   46.2020 C   0  0  0  0  0  0  0  0  0  0  0  0
   56.1380   26.4410   45.9690 C   0  0  0  0  0  0  0  0  0  0  0  0
   54.7700   26.6950   46.0130 O   0  0  0  0  0  0  0  0  0  0  0  0
   60.6380   33.1740   48.4360 C   0  0  0  0  0  0  0  0  0  0  0  0
   60.7980   33.8570   49.6550 C   0  0  0  0  0  0  0  0  0  0  0  0
   62.0300   33.8470   50.3160 C   0  0  0  0  0  0  0  0  0  0  0  0
   63.1180   33.1540   49.7740 C   0  0  0  0  0  0  0  0  0  0  0  0
   64.6720   33.1910   50.6020 S   0  0  0  0  0  0  0  0  0  0  0  0
   64.8990   34.5450   51.2160 O   0  0  0  0  0  0  0  0  0  0  0  0
   65.7560   32.9230   49.5960 O   0  0  0  0  0  0  0  0  0  0  0  0
   64.7000   31.9590   51.8450 N   0  0  0  0  0  0  0  0  0  0  0  0
   64.6730   30.6200   51.2450 C   0  0  0  0  0  0  0  0  0  0  0  0
   63.2250   30.1690   51.1610 C   0  0  0  0  0  0  0  0  0  0  0  0
   62.4610   31.0740   52.1110 C   0  0  0  0  0  0  0  0  0  0  0  0
   63.4940   32.0390   52.6760 C   0  0  0  0  0  0  0  0  0  0  0  0
   62.9630   32.4580   48.5690 C   0  0  0  0  0  0  0  0  0  0  0  0
   61.7330   32.4710   47.9020 C   0  0  0  0  0  0  0  0  0  0  0  0
   59.3590   34.7460   46.2210 H   0  0  0  0  0  0  0  0  0  0  0  0
   58.7731   34.1650   42.7931 H   0  0  0  0  0  0  0  0  0  0  0  0
   57.4915   32.2740   41.8016 H   0  0  0  0  0  0  0  0  0  0  0  0
   56.8252   30.3342   43.2183 H   0  0  0  0  0  0  0  0  0  0  0  0
   59.1646   28.0004   45.5958 H   0  0  0  0  0  0  0  0  0  0  0  0
   59.9617   25.6787   46.0261 H   0  0  0  0  0  0  0  0  0  0  0  0
   55.8711   24.3250   46.3697 H   0  0  0  0  0  0  0  0  0  0  0  0
   59.9483   34.4026   50.0912 H   0  0  0  0  0  0  0  0  0  0  0  0
   62.1446   34.3870   51.2675 H   0  0  0  0  0  0  0  0  0  0  0  0
   65.1118   30.6544   50.2369 H   0  0  0  0  0  0  0  0  0  0  0  0
   65.2561   29.9164   51.8574 H   0  0  0  0  0  0  0  0  0  0  0  0
   62.8463   30.2823   50.1345 H   0  0  0  0  0  0  0  0  0  0  0  0
   63.1123   29.1083   51.4296 H   0  0  0  0  0  0  0  0  0  0  0  0
   61.6769   31.6241   51.5701 H   0  0  0  0  0  0  0  0  0  0  0  0
   61.9614   30.5009   52.9060 H   0  0  0  0  0  0  0  0  0  0  0  0
   63.0957   33.0642   52.6562 H   0  0  0  0  0  0  0  0  0  0  0  0
   63.7319   31.7738   53.7167 H   0  0  0  0  0  0  0  0  0  0  0  0
   63.8106   31.8994   48.1454 H   0  0  0  0  0  0  0  0  0  0  0  0
   61.6215   31.9271   46.9524 H   0  0  0  0  0  0  0  0  0  0  0  0
  1  2  2  0
  2  3  1  0
  3  4  1  0
  4  5  2  0
  5  6  1  0
  5  7  1  0
  7  8  2  0
  8  9  1  0
  9 10  2  0
 10 11  1  0
 11 12  1  0
 12 13  2  0
 12 14  1  0
 14 15  2  0
 15 16  1  0
 16 17  2  0
 17 18  1  0
 17 19  1  0
 19 20  2  0
 20 21  1  0
  2 22  1  0
 22 23  2  0
 23 24  1  0
 24 25  2  0
 25 26  1  0
 26 27  2  0
 26 28  2  0
 26 29  1  0
 29 30  1  0
 30 31  1  0
 31 32  1  0
 32 33  1  0
 25 34  1  0
 34 35  2  0
 10  4  1  0
 20 14  1  0
 35 22  1  0
 33 29  1  0
  6 36  1  0
  7 37  1  0
  8 38  1  0
  9 39  1  0
 15 40  1  0
 16 41  1  0
 19 42  1  0
 23 43  1  0
 24 44  1  0
 30 45  1  0
 30 46  1  0
 31 47  1  0
 31 48  1  0
 32 49  1  0
 32 50  1  0
 33 51  1  0
 33 52  1  0
 34 53  1  0
 35 54  1  0
M  CHG  4   3  -1  11  -1  18  -1  21  -1
M  END
>  <UniqueID>  (22) 
21

>  <SMILES>  (22) 
O=C([N-]c1c(O)cccc1[N-]C(=O)c1ccc([O-])cc1[O-])c1ccc(S(=O)(=O)N2CCCC2)cc1

>  <Energy>  (22) 
75.53277882981253

>  <Genealogy>  (22) 
O=C([N-]c1c(O)cccc1[N-]C(=O)c1ccc([O-])cc1[O-])c1ccc(S(=O)(=O)N2CCCC2)cc1 (protonated)
O=C([N-]c1c(O)cccc1[N-]C(=O)c1ccc([O-])cc1[O-])c1ccc(S(=O)(=O)N2CCCC2)cc1 (3D coordinates assigned)
O=C([N-]c1c(O)cccc1[N-]C(=O)c1ccc([O-])cc1[O-])c1ccc(S(=O)(=O)N2CCCC2)cc1 (nonaromatic ring conformer: 75.53277882981253 kcal/mol)

>  <smiles>  (22) 
O=C(Nc1c(O)cccc1NC(=O)c1ccc(O)cc1O)c1ccc(S(=O)(=O)N2CCCC2)cc1

>  <score_type>  (22) 
oracle

>  <origin>  (22) 
adg

>  <m_score__min__energy>  (22) 
-16.649999999999999

>  <m_primary>  (22) 
energy

$$$$
22:0
     RDKit          3D

 41 44  0  0  0  0  0  0  0  0999 V2000
   59.0740   34.8090   44.5090 O   0  0  0  0  0  0  0  0  0  0  0  0
   58.8670   34.0070   45.4570 C   0  0  0  0  0  0  0  0  0  0  0  0
   57.6860   33.1940   45.4240 N   0  0  0  0  0  0  0  0  0  0  0  0
   57.6320   31.7910   45.1290 C   0  0  0  0  0  0  0  0  0  0  0  0
   57.0230   31.3070   43.9600 C   0  0  0  0  0  0  0  0  0  0  0  0
   56.9750   29.9350   43.7050 C   0  0  0  0  0  0  0  0  0  0  0  0
   57.5240   29.0230   44.6200 C   0  0  0  0  0  0  0  0  0  0  0  0
   57.4770   27.6820   44.3670 N   0  0  0  0  0  0  0  0  0  0  0  0
   57.9930   26.7660   45.2400 C   0  0  0  0  0  0  0  0  0  0  0  0
   57.9310   25.3160   44.9250 C   0  0  0  0  0  0  0  0  0  0  0  0
   57.0780   24.8460   43.9090 C   0  0  0  0  0  0  0  0  0  0  0  0
   57.0180   23.4810   43.6110 C   0  0  0  0  0  0  0  0  0  0  0  0
   57.8030   22.5720   44.3240 C   0  0  0  0  0  0  0  0  0  0  0  0
   58.6520   23.0270   45.3360 C   0  0  0  0  0  0  0  0  0  0  0  0
   58.7180   24.3910   45.6360 C   0  0  0  0  0  0  0  0  0  0  0  0
   58.5880   27.2070   46.4330 C   0  0  0  0  0  0  0  0  0  0  0  0
   58.6510   28.5700   46.7200 C   0  0  0  0  0  0  0  0  0  0  0  0
   59.1930   28.9510   47.7940 O   0  0  0  0  0  0  0  0  0  0  0  0
   58.1170   29.5000   45.8110 C   0  0  0  0  0  0  0  0  0  0  0  0
   58.1590   30.8850   46.0580 C   0  0  0  0  0  0  0  0  0  0  0  0
   59.8160   33.9680   46.5970 C   0  0  0  0  0  0  0  0  0  0  0  0
   59.3940   34.2930   47.8970 C   0  0  0  0  0  0  0  0  0  0  0  0
   60.2940   34.2540   48.9640 C   0  0  0  0  0  0  0  0  0  0  0  0
   61.6310   33.9020   48.7470 C   0  0  0  0  0  0  0  0  0  0  0  0
   62.7340   33.8640   50.1150 Cl  0  0  0  0  0  0  0  0  0  0  0  0
   62.0680   33.5920   47.4480 C   0  0  0  0  0  0  0  0  0  0  0  0
   63.7400   33.1520   47.1310 Cl  0  0  0  0  0  0  0  0  0  0  0  0
   61.1630   33.6310   46.3800 C   0  0  0  0  0  0  0  0  0  0  0  0
   56.5812   32.0127   43.2411 H   0  0  0  0  0  0  0  0  0  0  0  0
   56.5042   29.5667   42.7816 H   0  0  0  0  0  0  0  0  0  0  0  0
   57.0140   27.3480   43.4910 H   0  0  0  0  0  0  0  0  0  0  0  0
   56.4549   25.5565   43.3460 H   0  0  0  0  0  0  0  0  0  0  0  0
   56.3510   23.1223   42.8132 H   0  0  0  0  0  0  0  0  0  0  0  0
   57.7528   21.4986   44.0889 H   0  0  0  0  0  0  0  0  0  0  0  0
   59.2696   22.3108   45.8978 H   0  0  0  0  0  0  0  0  0  0  0  0
   59.3894   24.7434   46.4329 H   0  0  0  0  0  0  0  0  0  0  0  0
   59.0048   26.4764   47.1419 H   0  0  0  0  0  0  0  0  0  0  0  0
   58.6098   31.2592   46.9890 H   0  0  0  0  0  0  0  0  0  0  0  0
   58.3473   34.5802   48.0756 H   0  0  0  0  0  0  0  0  0  0  0  0
   59.9506   34.5010   49.9794 H   0  0  0  0  0  0  0  0  0  0  0  0
   61.5093   33.3959   45.3628 H   0  0  0  0  0  0  0  0  0  0  0  0
  1  2  2  0
  2  3  1  0
  3  4  1  0
  4  5  2  0
  5  6  1  0
  6  7  2  0
  7  8  1  0
  8  9  1  0
  9 10  1  0
 10 11  2  0
 11 12  1  0
 12 13  2  0
 13 14  1  0
 14 15  2  0
  9 16  2  0
 16 17  1  0
 17 18  2  0
 17 19  1  0
 19 20  2  0
  2 21  1  0
 21 22  2  0
 22 23  1  0
 23 24  2  0
 24 25  1  0
 24 26  1  0
 26 27  1  0
 26 28  2  0
 20  4  1  0
 28 21  1  0
 19  7  1  0
 15 10  1  0
  5 29  1  0
  6 30  1  0
  8 31  1  0
 11 32  1  0
 12 33  1  0
 13 34  1  0
 14 35  1  0
 15 36  1  0
 16 37  1  0
 20 38  1  0
 22 39  1  0
 23 40  1  0
 28 41  1  0
M  CHG  1   3  -1
M  END
>  <UniqueID>  (23) 
22

>  <SMILES>  (23) 
O=C([N-]c1ccc2[nH]c(-c3ccccc3)cc(=O)c2c1)c1ccc(Cl)c(Cl)c1

>  <Energy>  (23) 
63.5421774874463

>  <Genealogy>  (23) 
O=C([N-]c1ccc2[nH]c(-c3ccccc3)cc(=O)c2c1)c1ccc(Cl)c(Cl)c1 (protonated)
O=C([N-]c1ccc2[nH]c(-c3ccccc3)cc(=O)c2c1)c1ccc(Cl)c(Cl)c1 (3D coordinates assigned)
O=C([N-]c1ccc2[nH]c(-c3ccccc3)cc(=O)c2c1)c1ccc(Cl)c(Cl)c1 (optimized conformer: 63.5421774874463 kcal/mol)

>  <smiles>  (23) 
O=C(Nc1ccc2[nH]c(-c3ccccc3)cc(=O)c2c1)c1ccc(Cl)c(Cl)c1

>  <score_type>  (23) 
oracle

>  <origin>  (23) 
adg

>  <m_score__min__energy>  (23) 
-10.52

>  <m_primary>  (23) 
energy

$$$$
23:0
     RDKit          3D

 42 44  0  0  0  0  0  0  0  0999 V2000
   58.1986   25.3440   47.3827 H   0  0  0  0  0  0  0  0  0  0  0  0
   58.0250   26.0330   46.5430 C   0  0  0  0  0  0  0  0  0  0  0  0
   57.9660   25.5310   45.2300 C   0  0  0  0  0  0  0  0  0  0  0  0
   58.1450   24.0820   44.9700 C   0  0  0  0  0  0  0  0  0  0  0  0
   57.0920   23.3290   44.4250 C   0  0  0  0  0  0  0  0  0  0  0  0
   56.1322   23.8135   44.1927 H   0  0  0  0  0  0  0  0  0  0  0  0
   57.2650   21.9540   44.1760 C   0  0  0  0  0  0  0  0  0  0  0  0
   56.2450   21.1610   43.6300 O   0  0  0  0  0  0  0  0  0  0  0  0
   55.9170   19.8490   44.0750 C   0  0  0  0  0  0  0  0  0  0  0  0
   55.9111   19.8256   45.1747 H   0  0  0  0  0  0  0  0  0  0  0  0
   54.9219   19.5717   43.6970 H   0  0  0  0  0  0  0  0  0  0  0  0
   56.6645   19.1360   43.6970 H   0  0  0  0  0  0  0  0  0  0  0  0
   58.4590   21.3690   44.4710 N   0  0  0  0  0  0  0  0  0  0  0  0
   58.5850   20.3480   44.2870 H   0  0  0  0  0  0  0  0  0  0  0  0
   59.4920   22.0730   45.0040 C   0  0  0  0  0  0  0  0  0  0  0  0
   60.4401   21.5639   45.2319 H   0  0  0  0  0  0  0  0  0  0  0  0
   59.3580   23.4370   45.2640 C   0  0  0  0  0  0  0  0  0  0  0  0
   60.3910   24.1090   45.8310 F   0  0  0  0  0  0  0  0  0  0  0  0
   57.7510   26.4220   44.1650 C   0  0  0  0  0  0  0  0  0  0  0  0
   57.7087   26.0411   43.1339 H   0  0  0  0  0  0  0  0  0  0  0  0
   57.5900   27.7940   44.4080 C   0  0  0  0  0  0  0  0  0  0  0  0
   57.3710   28.6940   43.3560 C   0  0  0  0  0  0  0  0  0  0  0  0
   57.3238   28.3278   42.3198 H   0  0  0  0  0  0  0  0  0  0  0  0
   57.2170   30.0190   43.6160 N   0  0  0  0  0  0  0  0  0  0  0  0
   57.2670   30.5230   44.8810 C   0  0  0  0  0  0  0  0  0  0  0  0
   57.1180   31.7970   45.1090 N   0  0  0  0  0  0  0  0  0  0  0  0
   58.0120   32.8590   44.7300 C   0  0  0  0  0  0  0  0  0  0  0  0
   58.3470   33.0170   43.5240 O   0  0  0  0  0  0  0  0  0  0  0  0
   58.5290   33.7490   45.7370 N   0  0  0  0  0  0  0  0  0  0  0  0
   58.1400   33.5650   47.1370 C   0  0  0  0  0  0  0  0  0  0  0  0
   58.9387   33.9428   47.7922 H   0  0  0  0  0  0  0  0  0  0  0  0
   57.2105   34.1189   47.3351 H   0  0  0  0  0  0  0  0  0  0  0  0
   57.9786   32.4951   47.3351 H   0  0  0  0  0  0  0  0  0  0  0  0
   59.4400   34.8310   45.3510 C   0  0  0  0  0  0  0  0  0  0  0  0
   59.8437   35.3105   46.2550 H   0  0  0  0  0  0  0  0  0  0  0  0
   60.2670   34.4187   44.7542 H   0  0  0  0  0  0  0  0  0  0  0  0
   58.8928   35.5756   44.7542 H   0  0  0  0  0  0  0  0  0  0  0  0
   57.4830   29.6590   45.9610 C   0  0  0  0  0  0  0  0  0  0  0  0
   57.5246   30.0549   46.9864 H   0  0  0  0  0  0  0  0  0  0  0  0
   57.6460   28.2860   45.7280 C   0  0  0  0  0  0  0  0  0  0  0  0
   57.8650   27.3990   46.7900 C   0  0  0  0  0  0  0  0  0  0  0  0
   57.9111   27.7789   47.8213 H   0  0  0  0  0  0  0  0  0  0  0  0
  1  2  1  0
  2  3  1  0
  3  4  1  0
  4  5  2  0
  5  6  1  0
  5  7  1  0
  7  8  1  0
  8  9  1  0
  9 10  1  0
  9 11  1  0
  9 12  1  0
  7 13  2  0
 13 14  1  0
 13 15  1  0
 15 16  1  0
 15 17  2  0
 17 18  1  0
  3 19  2  0
 19 20  1  0
 19 21  1  0
 21 22  2  0
 22 23  1  0
 22 24  1  0
 24 25  1  0
 25 26  2  0
 26 27  1  0
 27 28  2  0
 27 29  1  0
 29 30  1  0
 30 31  1  0
 30 32  1  0
 30 33  1  0
 29 34  1  0
 34 35  1  0
 34 36  1  0
 34 37  1  0
 25 38  1  0
 38 39  1  0
 38 40  2  0
 40 41  1  0
 41 42  1  0
 41  2  2  0
 17  4  1  0
 40 21  1  0
M  CHG  2  13   1  24  -1
M  END
>  <UniqueID>  (24) 
23

>  <SMILES>  (24) 
COc1cc(-c2ccc3c/c(=N/C(=O)N(C)C)[n-]cc3c2)c(F)c[nH+]1

>  <Energy>  (24) 
52.902667762348806

>  <Genealogy>  (24) 
COc1cc(-c2ccc3cc(=NC(=O)N(C)C)[n-]cc3c2)c(F)c[nH+]1 (protonated)
COc1cc(-c2ccc3c/c(=N/C(=O)N(C)C)[n-]cc3c2)c(F)c[nH+]1 (cis-trans isomerization)
COc1cc(-c2ccc3c/c(=N/C(=O)N(C)C)[n-]cc3c2)c(F)c[nH+]1 (3D coordinates assigned)
COc1cc(-c2ccc3c/c(=N/C(=O)N(C)C)[n-]cc3c2)c(F)c[nH+]1 (optimized conformer: 52.902667762348806 kcal/mol)

>  <smiles>  (24) 
COc1cc(-c2ccc3cc(=NC(=O)N(C)C)[nH]cc3c2)c(F)cn1

>  <score_type>  (24) 
oracle

>  <origin>  (24) 
adg

>  <m_score__min__energy>  (24) 
-7.5700000000000003

>  <m_primary>  (24) 
energy

$$$$
24:0
     RDKit          3D

 48 51  0  0  0  0  0  0  0  0999 V2000
   58.2833   33.6822   44.8032 H   0  0  0  0  0  0  0  0  0  0  0  0
   57.8800   32.7950   44.2930 C   0  0  0  0  0  0  0  0  0  0  0  0
   57.9670   32.6890   42.9050 C   0  0  0  0  0  0  0  0  0  0  0  0
   58.4422   33.4916   42.3219 H   0  0  0  0  0  0  0  0  0  0  0  0
   57.4520   31.5660   42.2540 C   0  0  0  0  0  0  0  0  0  0  0  0
   57.5279   31.4863   41.1595 H   0  0  0  0  0  0  0  0  0  0  0  0
   56.8380   30.5380   42.9870 C   0  0  0  0  0  0  0  0  0  0  0  0
   56.2700   29.3430   42.2750 C   0  0  0  0  0  0  0  0  0  0  0  0
   55.9204   28.6075   43.0145 H   0  0  0  0  0  0  0  0  0  0  0  0
   55.4257   29.6589   41.6446 H   0  0  0  0  0  0  0  0  0  0  0  0
   57.0480   28.8877   41.6446 H   0  0  0  0  0  0  0  0  0  0  0  0
   56.7420   30.6500   44.3900 C   0  0  0  0  0  0  0  0  0  0  0  0
   56.1740   29.5790   45.1580 N   0  0  0  0  0  0  0  0  0  0  0  0
   56.6970   28.2480   45.2350 C   0  0  0  0  0  0  0  0  0  0  0  0
   55.9620   27.3280   45.6790 O   0  0  0  0  0  0  0  0  0  0  0  0
   58.1380   27.9550   44.9380 C   0  0  0  0  0  0  0  0  0  0  0  0
   58.2680   27.7967   43.8573 H   0  0  0  0  0  0  0  0  0  0  0  0
   58.7647   28.8020   45.2541 H   0  0  0  0  0  0  0  0  0  0  0  0
   58.6300   26.4470   45.8430 S   0  0  0  0  0  0  0  0  0  0  0  0
   59.2250   27.3080   47.2940 C   0  0  0  0  0  0  0  0  0  0  0  0
   60.2030   26.8360   48.0970 N   0  0  0  0  0  0  0  0  0  0  0  0
   60.4510   27.6280   49.1400 N   0  0  0  0  0  0  0  0  0  0  0  0
   59.6630   28.7230   49.1780 C   0  0  0  0  0  0  0  0  0  0  0  0
   59.7660   29.6130   50.1210 N   0  0  0  0  0  0  0  0  0  0  0  0
   59.6170   31.0380   50.0090 C   0  0  0  0  0  0  0  0  0  0  0  0
   58.5880   31.5700   50.5030 O   0  0  0  0  0  0  0  0  0  0  0  0
   60.5430   31.8630   49.1980 C   0  0  0  0  0  0  0  0  0  0  0  0
   61.8750   31.6620   49.3690 N   0  0  0  0  0  0  0  0  0  0  0  0
   62.8060   32.3300   48.6840 N   0  0  0  0  0  0  0  0  0  0  0  0
   64.2130   32.0490   48.9650 C   0  0  0  0  0  0  0  0  0  0  0  0
   64.3704   32.0176   50.0532 H   0  0  0  0  0  0  0  0  0  0  0  0
   64.4877   31.0783   48.5266 H   0  0  0  0  0  0  0  0  0  0  0  0
   64.8395   32.8398   48.5266 H   0  0  0  0  0  0  0  0  0  0  0  0
   62.4510   33.2600   47.7470 C   0  0  0  0  0  0  0  0  0  0  0  0
   63.3430   33.8820   47.1050 O   0  0  0  0  0  0  0  0  0  0  0  0
   61.0920   33.5200   47.5060 C   0  0  0  0  0  0  0  0  0  0  0  0
   60.6920   34.4730   46.5480 C   0  0  0  0  0  0  0  0  0  0  0  0
   61.4517   35.0112   45.9622 H   0  0  0  0  0  0  0  0  0  0  0  0
   59.3390   34.7380   46.3380 C   0  0  0  0  0  0  0  0  0  0  0  0
   59.0353   35.4780   45.5829 H   0  0  0  0  0  0  0  0  0  0  0  0
   58.3710   34.0670   47.0830 C   0  0  0  0  0  0  0  0  0  0  0  0
   57.3054   34.2849   46.9190 H   0  0  0  0  0  0  0  0  0  0  0  0
   58.7480   33.1190   48.0370 C   0  0  0  0  0  0  0  0  0  0  0  0
   57.9767   32.6034   48.6280 H   0  0  0  0  0  0  0  0  0  0  0  0
   60.1110   32.8170   48.2490 C   0  0  0  0  0  0  0  0  0  0  0  0
   58.6100   28.7700   47.8530 S   0  0  0  0  0  0  0  0  0  0  0  0
   57.2810   31.7750   45.0350 C   0  0  0  0  0  0  0  0  0  0  0  0
   57.2310   31.8531   46.1311 H   0  0  0  0  0  0  0  0  0  0  0  0
  1  2  1  0
  2  3  2  0
  3  4  1  0
  3  5  1  0
  5  6  1  0
  5  7  2  0
  7  8  1  0
  8  9  1  0
  8 10  1  0
  8 11  1  0
  7 12  1  0
 12 13  1  0
 13 14  1  0
 14 15  2  0
 14 16  1  0
 16 17  1  0
 16 18  1  0
 16 19  1  0
 19 20  1  0
 20 21  2  0
 21 22  1  0
 22 23  1  0
 23 24  2  0
 24 25  1  0
 25 26  2  0
 25 27  1  0
 27 28  2  0
 28 29  1  0
 29 30  1  0
 30 31  1  0
 30 32  1  0
 30 33  1  0
 29 34  1  0
 34 35  2  0
 34 36  1  0
 36 37  2  0
 37 38  1  0
 37 39  1  0
 39 40  1  0
 39 41  2  0
 41 42  1  0
 41 43  1  0
 43 44  1  0
 43 45  2  0
 23 46  1  0
 12 47  2  0
 47 48  1  0
 47  2  1  0
 46 20  1  0
 45 27  1  0
 45 36  1  0
M  CHG  2  13  -1  22  -1
M  END
>  <UniqueID>  (25) 
24

>  <SMILES>  (25) 
Cc1ccccc1[N-]C(=O)CSc1n[n-]/c(=N/C(=O)c2nn(C)c(=O)c3ccccc23)s1

>  <Energy>  (25) 
100.24249874137358

>  <Genealogy>  (25) 
Cc1ccccc1[N-]C(=O)CSc1n[n-]c(=NC(=O)c2nn(C)c(=O)c3ccccc23)s1 (protonated)
Cc1ccccc1[N-]C(=O)CSc1n[n-]/c(=N/C(=O)c2nn(C)c(=O)c3ccccc23)s1 (cis-trans isomerization)
Cc1ccccc1[N-]C(=O)CSc1n[n-]/c(=N/C(=O)c2nn(C)c(=O)c3ccccc23)s1 (3D coordinates assigned)
Cc1ccccc1[N-]C(=O)CSc1n[n-]/c(=N/C(=O)c2nn(C)c(=O)c3ccccc23)s1 (optimized conformer: 100.24249874137358 kcal/mol)

>  <smiles>  (25) 
Cc1ccccc1NC(=O)CSc1n[nH]c(=NC(=O)c2nn(C)c(=O)c3ccccc23)s1

>  <score_type>  (25) 
oracle

>  <origin>  (25) 
adg

>  <m_score__min__energy>  (25) 
-13.130000000000001

>  <m_primary>  (25) 
energy

$$$$
25:0
     RDKit          3D

 52 55  0  0  0  0  0  0  0  0999 V2000
   59.9198   27.7020   47.1221 H   0  0  0  0  0  0  0  0  0  0  0  0
   58.8940   27.6330   46.7310 C   0  0  0  0  0  0  0  0  0  0  0  0
   58.3270   28.7240   46.0680 C   0  0  0  0  0  0  0  0  0  0  0  0
   58.9145   29.6421   45.9199 H   0  0  0  0  0  0  0  0  0  0  0  0
   57.0080   28.6510   45.5900 C   0  0  0  0  0  0  0  0  0  0  0  0
   56.4010   29.7460   44.8860 N   0  0  0  0  0  0  0  0  0  0  0  0
   57.0040   30.8210   44.4690 C   0  0  0  0  0  0  0  0  0  0  0  0
   57.2340   30.9760   43.1410 N   0  0  0  0  0  0  0  0  0  0  0  0
   57.8100   32.1140   42.6700 C   0  0  0  0  0  0  0  0  0  0  0  0
   58.0560   32.2810   41.3050 O   0  0  0  0  0  0  0  0  0  0  0  0
   57.0500   32.6920   40.3860 C   0  0  0  0  0  0  0  0  0  0  0  0
   56.1709   33.0512   40.9411 H   0  0  0  0  0  0  0  0  0  0  0  0
   57.4405   33.5027   39.7533 H   0  0  0  0  0  0  0  0  0  0  0  0
   56.7611   31.8398   39.7533 H   0  0  0  0  0  0  0  0  0  0  0  0
   58.1450   33.1050   43.5330 N   0  0  0  0  0  0  0  0  0  0  0  0
   57.9230   32.9610   44.8640 C   0  0  0  0  0  0  0  0  0  0  0  0
   58.2170   33.9420   45.6660 N   0  0  0  0  0  0  0  0  0  0  0  0
   59.2770   33.9370   46.6350 C   0  0  0  0  0  0  0  0  0  0  0  0
   58.9880   34.2680   47.9640 C   0  0  0  0  0  0  0  0  0  0  0  0
   57.9565   34.5180   48.2529 H   0  0  0  0  0  0  0  0  0  0  0  0
   60.0010   34.2830   48.9260 C   0  0  0  0  0  0  0  0  0  0  0  0
   59.7600   34.5239   49.9719 H   0  0  0  0  0  0  0  0  0  0  0  0
   61.3240   33.9920   48.5630 C   0  0  0  0  0  0  0  0  0  0  0  0
   62.3500   34.0020   49.5200 C   0  0  0  0  0  0  0  0  0  0  0  0
   62.1179   34.2292   50.5710 H   0  0  0  0  0  0  0  0  0  0  0  0
   63.6660   33.7240   49.1410 C   0  0  0  0  0  0  0  0  0  0  0  0
   64.4661   33.7295   49.8959 H   0  0  0  0  0  0  0  0  0  0  0  0
   63.9700   33.4390   47.8070 C   0  0  0  0  0  0  0  0  0  0  0  0
   65.0081   33.2230   47.5144 H   0  0  0  0  0  0  0  0  0  0  0  0
   62.9570   33.4280   46.8440 C   0  0  0  0  0  0  0  0  0  0  0  0
   63.2009   33.2094   45.7939 H   0  0  0  0  0  0  0  0  0  0  0  0
   61.6300   33.6950   47.2130 C   0  0  0  0  0  0  0  0  0  0  0  0
   60.6040   33.6780   46.2560 C   0  0  0  0  0  0  0  0  0  0  0  0
   60.8403   33.4608   45.2039 H   0  0  0  0  0  0  0  0  0  0  0  0
   57.3470   31.8190   45.3280 N   0  0  0  0  0  0  0  0  0  0  0  0
   56.2920   27.4560   45.7300 C   0  0  0  0  0  0  0  0  0  0  0  0
   55.2713   27.3837   45.3264 H   0  0  0  0  0  0  0  0  0  0  0  0
   56.8600   26.3510   46.3780 C   0  0  0  0  0  0  0  0  0  0  0  0
   56.0870   25.1900   46.5190 O   0  0  0  0  0  0  0  0  0  0  0  0
   55.3010   24.6080   45.5130 C   0  0  0  0  0  0  0  0  0  0  0  0
   54.0420   24.6020   45.6090 O   0  0  0  0  0  0  0  0  0  0  0  0
   55.9370   23.9670   44.3950 N   0  0  0  0  0  0  0  0  0  0  0  0
   55.1220   23.3370   43.3540 C   0  0  0  0  0  0  0  0  0  0  0  0
   54.3347   22.7284   43.8228 H   0  0  0  0  0  0  0  0  0  0  0  0
   54.6603   24.1153   42.7286 H   0  0  0  0  0  0  0  0  0  0  0  0
   55.7589   22.6941   42.7286 H   0  0  0  0  0  0  0  0  0  0  0  0
   57.4000   23.9590   44.3110 C   0  0  0  0  0  0  0  0  0  0  0  0
   57.8255   23.9567   45.3254 H   0  0  0  0  0  0  0  0  0  0  0  0
   57.7314   23.0590   43.7723 H   0  0  0  0  0  0  0  0  0  0  0  0
   57.7412   24.8553   43.7723 H   0  0  0  0  0  0  0  0  0  0  0  0
   58.1630   26.4550   46.8990 C   0  0  0  0  0  0  0  0  0  0  0  0
   58.6069   25.6063   47.4400 H   0  0  0  0  0  0  0  0  0  0  0  0
  1  2  1  0
  2  3  2  0
  3  4  1  0
  3  5  1  0
  5  6  1  0
  6  7  2  0
  7  8  1  0
  8  9  2  0
  9 10  1  0
 10 11  1  0
 11 12  1  0
 11 13  1  0
 11 14  1  0
  9 15  1  0
 15 16  1  0
 16 17  2  0
 17 18  1  0
 18 19  2  0
 19 20  1  0
 19 21  1  0
 21 22  1  0
 21 23  2  0
 23 24  1  0
 24 25  1  0
 24 26  2  0
 26 27  1  0
 26 28  1  0
 28 29  1  0
 28 30  2  0
 30 31  1  0
 30 32  1  0
 32 33  2  0
 33 34  1  0
 16 35  1  0
  5 36  2  0
 36 37  1  0
 36 38  1  0
 38 39  1  0
 39 40  1  0
 40 41  2  0
 40 42  1  0
 42 43  1  0
 43 44  1  0
 43 45  1  0
 43 46  1  0
 42 47  1  0
 47 48  1  0
 47 49  1  0
 47 50  1  0
 38 51  2  0
 51 52  1  0
 51  2  1  0
 35  7  1  0
 33 18  1  0
 32 23  1  0
M  CHG  2  15  -1  35  -1
M  END
>  <UniqueID>  (26) 
25

>  <SMILES>  (26) 
COc1n/c(=N/c2cccc(OC(=O)N(C)C)c2)[n-]/c(=N\c2ccc3ccccc3c2)[n-]1

>  <Energy>  (26) 
69.59062146850742

>  <Genealogy>  (26) 
COc1nc(=Nc2cccc(OC(=O)N(C)C)c2)[n-]c(=Nc2ccc3ccccc3c2)[n-]1 (protonated)
COc1n/c(=N/c2cccc(OC(=O)N(C)C)c2)[n-]/c(=N\c2ccc3ccccc3c2)[n-]1 (cis-trans isomerization)
COc1n/c(=N/c2cccc(OC(=O)N(C)C)c2)[n-]/c(=N\c2ccc3ccccc3c2)[n-]1 (3D coordinates assigned)
COc1n/c(=N/c2cccc(OC(=O)N(C)C)c2)[n-]/c(=N\c2ccc3ccccc3c2)[n-]1 (optimized conformer: 69.59062146850742 kcal/mol)

>  <smiles>  (26) 
COc1nc(=Nc2cccc(OC(=O)N(C)C)c2)[nH]c(=Nc2ccc3ccccc3c2)[nH]1

>  <score_type>  (26) 
oracle

>  <origin>  (26) 
adg

>  <m_score__min__energy>  (26) 
-12.460000000000001

>  <m_primary>  (26) 
energy

$$$$
26:0
     RDKit          3D

 59 62  0  0  0  0  0  0  0  0999 V2000
   56.6025   24.2451   46.2659 H   0  0  0  0  0  0  0  0  0  0  0  0
   57.0710   25.2400   46.2380 C   0  0  0  0  0  0  0  0  0  0  0  0
   56.2850   26.3840   46.0810 C   0  0  0  0  0  0  0  0  0  0  0  0
   54.8970   26.2580   45.9730 O   0  0  0  0  0  0  0  0  0  0  0  0
   54.2620   25.0370   45.6110 C   0  0  0  0  0  0  0  0  0  0  0  0
   53.9767   24.4883   46.5207 H   0  0  0  0  0  0  0  0  0  0  0  0
   53.3624   25.2538   45.0162 H   0  0  0  0  0  0  0  0  0  0  0  0
   54.9561   24.4250   45.0162 H   0  0  0  0  0  0  0  0  0  0  0  0
   56.8800   27.6110   46.0420 N   0  0  0  0  0  0  0  0  0  0  0  0
   58.2270   27.7750   46.1420 C   0  0  0  0  0  0  0  0  0  0  0  0
   58.7080   28.9870   46.1220 N   0  0  0  0  0  0  0  0  0  0  0  0
   58.9890   29.8190   47.2570 C   0  0  0  0  0  0  0  0  0  0  0  0
   58.6690   29.3590   48.5380 C   0  0  0  0  0  0  0  0  0  0  0  0
   58.2154   28.3657   48.6708 H   0  0  0  0  0  0  0  0  0  0  0  0
   58.9280   30.1670   49.6500 C   0  0  0  0  0  0  0  0  0  0  0  0
   58.6560   29.6630   51.0380 C   0  0  0  0  0  0  0  0  0  0  0  0
   59.0449   30.3836   51.7725 H   0  0  0  0  0  0  0  0  0  0  0  0
   57.5715   29.5447   51.1792 H   0  0  0  0  0  0  0  0  0  0  0  0
   59.1523   28.6915   51.1792 H   0  0  0  0  0  0  0  0  0  0  0  0
   59.5060   31.4280   49.4600 C   0  0  0  0  0  0  0  0  0  0  0  0
   59.7645   32.0530   50.3275 H   0  0  0  0  0  0  0  0  0  0  0  0
   59.7550   31.8930   48.1560 C   0  0  0  0  0  0  0  0  0  0  0  0
   60.3400   33.2680   47.9230 C   0  0  2  0  0  0  0  0  0  0  0  0
   59.7299   34.0169   48.4493 H   0  0  0  0  0  0  0  0  0  0  0  0
   60.3080   33.5730   46.4940 N   0  0  0  0  0  0  0  0  0  0  0  0
   59.3940   34.5100   45.9110 C   0  0  0  0  0  0  0  0  0  0  0  0
   59.6360   35.7470   45.9460 O   0  0  0  0  0  0  0  0  0  0  0  0
   58.1470   34.0140   45.2480 C   0  0  0  0  0  0  0  0  0  0  0  0
   57.2748   34.5025   45.7069 H   0  0  0  0  0  0  0  0  0  0  0  0
   58.1965   34.2531   44.1754 H   0  0  0  0  0  0  0  0  0  0  0  0
   58.0260   32.6000   45.3990 O   0  0  0  0  0  0  0  0  0  0  0  0
   57.4540   31.7310   44.4530 C   0  0  0  0  0  0  0  0  0  0  0  0
   57.6150   32.0340   43.0940 C   0  0  0  0  0  0  0  0  0  0  0  0
   58.1941   32.9207   42.7965 H   0  0  0  0  0  0  0  0  0  0  0  0
   57.0440   31.2160   42.1140 C   0  0  0  0  0  0  0  0  0  0  0  0
   57.1741   31.4617   41.0497 H   0  0  0  0  0  0  0  0  0  0  0  0
   56.3090   30.0880   42.4840 C   0  0  0  0  0  0  0  0  0  0  0  0
   55.8542   29.4503   41.7117 H   0  0  0  0  0  0  0  0  0  0  0  0
   56.1510   29.7690   43.8360 C   0  0  0  0  0  0  0  0  0  0  0  0
   55.5747   28.8782   44.1266 H   0  0  0  0  0  0  0  0  0  0  0  0
   56.7240   30.5800   44.8180 C   0  0  0  0  0  0  0  0  0  0  0  0
   56.6057   30.3204   45.8804 H   0  0  0  0  0  0  0  0  0  0  0  0
   61.7390   33.3750   48.5010 C   0  0  0  0  0  0  0  0  0  0  0  0
   62.8790   32.9880   47.7680 C   0  0  0  0  0  0  0  0  0  0  0  0
   62.7677   32.6262   46.7352 H   0  0  0  0  0  0  0  0  0  0  0  0
   64.1500   33.0610   48.3450 C   0  0  0  0  0  0  0  0  0  0  0  0
   65.0349   32.7679   47.7610 H   0  0  0  0  0  0  0  0  0  0  0  0
   64.3000   33.5050   49.6610 C   0  0  0  0  0  0  0  0  0  0  0  0
   65.3015   33.5617   50.1124 H   0  0  0  0  0  0  0  0  0  0  0  0
   63.1760   33.8770   50.4030 C   0  0  0  0  0  0  0  0  0  0  0  0
   63.2926   34.2185   51.4421 H   0  0  0  0  0  0  0  0  0  0  0  0
   61.9030   33.8160   49.8270 C   0  0  0  0  0  0  0  0  0  0  0  0
   61.0230   34.1152   50.4153 H   0  0  0  0  0  0  0  0  0  0  0  0
   59.4940   31.0770   47.0920 N   0  0  0  0  0  0  0  0  0  0  0  0
   59.6750   31.4190   46.1200 H   0  0  0  0  0  0  0  0  0  0  0  0
   59.0440   26.6350   46.3130 C   0  0  0  0  0  0  0  0  0  0  0  0
   60.1345   26.7430   46.4090 H   0  0  0  0  0  0  0  0  0  0  0  0
   58.4540   25.3690   46.3590 C   0  0  0  0  0  0  0  0  0  0  0  0
   59.0805   24.4745   46.4906 H   0  0  0  0  0  0  0  0  0  0  0  0
  1  2  1  0
  2  3  2  0
  3  4  1  0
  4  5  1  0
  5  6  1  0
  5  7  1  0
  5  8  1  0
  3  9  1  0
  9 10  1  0
 10 11  2  0
 11 12  1  0
 12 13  2  0
 13 14  1  0
 13 15  1  0
 15 16  1  0
 16 17  1  0
 16 18  1  0
 16 19  1  0
 15 20  2  0
 20 21  1  0
 20 22  1  0
 22 23  1  0
 23 24  1  1
 23 25  1  0
 25 26  1  0
 26 27  2  0
 26 28  1  0
 28 29  1  0
 28 30  1  0
 28 31  1  0
 31 32  1  0
 32 33  2  0
 33 34  1  0
 33 35  1  0
 35 36  1  0
 35 37  2  0
 37 38  1  0
 37 39  1  0
 39 40  1  0
 39 41  2  0
 41 42  1  0
 23 43  1  0
 43 44  2  0
 44 45  1  0
 44 46  1  0
 46 47  1  0
 46 48  2  0
 48 49  1  0
 48 50  1  0
 50 51  1  0
 50 52  2  0
 52 53  1  0
 22 54  2  0
 54 55  1  0
 10 56  1  0
 56 57  1  0
 56 58  2  0
 58 59  1  0
 58  2  1  0
 54 12  1  0
 41 32  1  0
 52 43  1  0
M  CHG  3   9  -1  25  -1  54   1
M  END
>  <UniqueID>  (27) 
26

>  <SMILES>  (27) 
COc1ccc/c(=N\c2cc(C)cc([C@H]([N-]C(=O)COc3ccccc3)c3ccccc3)[nH+]2)[n-]1

>  <Energy>  (27) 
67.62806160375384

>  <Genealogy>  (27) 
COc1cccc(=Nc2cc(C)cc(C([N-]C(=O)COc3ccccc3)c3ccccc3)[nH+]2)[n-]1 (protonated)
COc1cccc(=Nc2cc(C)cc([C@H]([N-]C(=O)COc3ccccc3)c3ccccc3)[nH+]2)[n-]1 (chirality)
COc1ccc/c(=N\c2cc(C)cc([C@H]([N-]C(=O)COc3ccccc3)c3ccccc3)[nH+]2)[n-]1 (cis-trans isomerization)
COc1ccc/c(=N\c2cc(C)cc([C@H]([N-]C(=O)COc3ccccc3)c3ccccc3)[nH+]2)[n-]1 (3D coordinates assigned)
COc1ccc/c(=N\c2cc(C)cc([C@H]([N-]C(=O)COc3ccccc3)c3ccccc3)[nH+]2)[n-]1 (optimized conformer: 67.62806160375384 kcal/mol)

>  <smiles>  (27) 
COc1cccc(=Nc2cc(C)cc(C(NC(=O)COc3ccccc3)c3ccccc3)n2)[nH]1

>  <score_type>  (27) 
oracle

>  <origin>  (27) 
adg

>  <m_score__min__energy>  (27) 
-10.15

>  <m_primary>  (27) 
energy

$$$$
27:0
     RDKit          3D

 41 42  0  0  0  0  0  0  0  0999 V2000
   55.2090   29.4220   44.5850 N   0  0  0  0  0  0  0  0  0  0  0  0
   56.4210   29.5250   43.7680 C   0  0  1  0  0  0  0  0  0  0  0  0
   56.5920   30.9600   43.2130 C   0  0  0  0  0  0  0  0  0  0  0  0
   58.0060   31.5370   43.4080 C   0  0  0  0  0  0  0  0  0  0  0  0
   58.1100   32.4300   44.6180 C   0  0  0  0  0  0  0  0  0  0  0  0
   58.5250   33.7660   44.4750 C   0  0  0  0  0  0  0  0  0  0  0  0
   58.6390   34.5910   45.5980 C   0  0  0  0  0  0  0  0  0  0  0  0
   58.3270   34.0960   46.8670 C   0  0  0  0  0  0  0  0  0  0  0  0
   57.9150   32.7690   47.0180 C   0  0  0  0  0  0  0  0  0  0  0  0
   57.8150   31.9360   45.9000 C   0  0  0  0  0  0  0  0  0  0  0  0
   57.6050   29.0740   44.5840 C   0  0  0  0  0  0  0  0  0  0  0  0
   58.7350   28.9880   44.0270 O   0  0  0  0  0  0  0  0  0  0  0  0
   57.4590   28.7430   45.9750 N   0  0  0  0  0  0  0  0  0  0  0  0
   58.4670   28.0450   46.7320 C   0  0  0  0  0  0  0  0  0  0  0  0
   59.4120   28.7800   47.4750 C   0  0  0  0  0  0  0  0  0  0  0  0
   60.3930   28.1310   48.2250 C   0  0  0  0  0  0  0  0  0  0  0  0
   60.4550   26.7390   48.2360 C   0  0  0  0  0  0  0  0  0  0  0  0
   59.5420   25.9930   47.4920 C   0  0  0  0  0  0  0  0  0  0  0  0
   58.5430   26.6280   46.7300 C   0  0  0  0  0  0  0  0  0  0  0  0
   57.6070   25.7860   45.9470 C   0  0  0  0  0  0  0  0  0  0  0  0
   58.0590   24.9360   45.1350 O   0  0  0  0  0  0  0  0  0  0  0  0
   56.1480   25.8830   46.1290 C   0  0  0  0  0  0  0  0  0  0  0  0
   55.4730   24.8770   46.4740 O   0  0  0  0  0  0  0  0  0  0  0  0
   55.5050   27.0990   45.9370 O   0  0  0  0  0  0  0  0  0  0  0  0
   54.7890   28.4700   44.4740 H   0  0  0  0  0  0  0  0  0  0  0  0
   55.4730   29.5260   45.5920 H   0  0  0  0  0  0  0  0  0  0  0  0
   56.3394   28.8653   42.8916 H   0  0  0  0  0  0  0  0  0  0  0  0
   56.3694   30.9441   42.1359 H   0  0  0  0  0  0  0  0  0  0  0  0
   55.9019   31.6057   43.7760 H   0  0  0  0  0  0  0  0  0  0  0  0
   58.7132   30.7026   43.5250 H   0  0  0  0  0  0  0  0  0  0  0  0
   58.2394   32.1483   42.5238 H   0  0  0  0  0  0  0  0  0  0  0  0
   58.7606   34.1631   43.4766 H   0  0  0  0  0  0  0  0  0  0  0  0
   58.9750   35.6320   45.4824 H   0  0  0  0  0  0  0  0  0  0  0  0
   58.4057   34.7509   47.7473 H   0  0  0  0  0  0  0  0  0  0  0  0
   57.6693   32.3800   48.0171 H   0  0  0  0  0  0  0  0  0  0  0  0
   57.5038   30.8883   46.0244 H   0  0  0  0  0  0  0  0  0  0  0  0
   56.5600   28.9870   46.4420 H   0  0  0  0  0  0  0  0  0  0  0  0
   59.3758   29.8793   47.4635 H   0  0  0  0  0  0  0  0  0  0  0  0
   61.1178   28.7183   48.8079 H   0  0  0  0  0  0  0  0  0  0  0  0
   61.2252   26.2281   48.8324 H   0  0  0  0  0  0  0  0  0  0  0  0
   59.6030   24.8947   47.5005 H   0  0  0  0  0  0  0  0  0  0  0  0
  1  2  1  0
  2  3  1  0
  3  4  1  0
  4  5  1  0
  5  6  2  0
  6  7  1  0
  7  8  2  0
  8  9  1  0
  9 10  2  0
  2 11  1  0
 11 12  2  0
 11 13  1  0
 13 14  1  0
 14 15  2  0
 15 16  1  0
 16 17  2  0
 17 18  1  0
 18 19  2  0
 19 20  1  0
 20 21  2  0
 20 22  1  0
 22 23  2  0
 22 24  1  0
 10  5  1  0
 19 14  1  0
  1 25  1  0
  1 26  1  0
  2 27  1  6
  3 28  1  0
  3 29  1  0
  4 30  1  0
  4 31  1  0
  6 32  1  0
  7 33  1  0
  8 34  1  0
  9 35  1  0
 10 36  1  0
 13 37  1  0
 15 38  1  0
 16 39  1  0
 17 40  1  0
 18 41  1  0
M  CHG  1  24  -1
M  END
>  <UniqueID>  (28) 
27

>  <SMILES>  (28) 
N[C@@H](CCc1ccccc1)C(=O)Nc1ccccc1C(=O)C(=O)[O-]

>  <Energy>  (28) 
45.44011526140547

>  <Genealogy>  (28) 
NC(CCc1ccccc1)C(=O)Nc1ccccc1C(=O)C(=O)[O-] (protonated)
N[C@@H](CCc1ccccc1)C(=O)Nc1ccccc1C(=O)C(=O)[O-] (chirality)
N[C@@H](CCc1ccccc1)C(=O)Nc1ccccc1C(=O)C(=O)[O-] (3D coordinates assigned)
N[C@@H](CCc1ccccc1)C(=O)Nc1ccccc1C(=O)C(=O)[O-] (optimized conformer: 45.44011526140547 kcal/mol)

>  <smiles>  (28) 
NC(CCc1ccccc1)C(=O)Nc1ccccc1C(=O)C(=O)O

>  <score_type>  (28) 
oracle

>  <origin>  (28) 
adg

>  <m_score__min__energy>  (28) 
-11.16

>  <m_primary>  (28) 
energy

$$$$
28:0
     RDKit          3D

 54 57  0  0  0  0  0  0  0  0999 V2000
   56.6310   27.4740   44.9000 H   0  0  0  0  0  0  0  0  0  0  0  0
   55.9560   28.1160   45.2420 O   0  0  0  0  0  0  0  0  0  0  0  0
   56.2870   29.3870   44.7400 C   0  0  1  0  0  0  0  0  0  0  0  0
   56.0705   30.1485   45.5037 H   0  0  0  0  0  0  0  0  0  0  0  0
   57.7980   29.4470   44.4270 C   0  0  0  0  0  0  0  0  0  0  0  0
   58.0758   28.5593   43.8398 H   0  0  0  0  0  0  0  0  0  0  0  0
   57.9947   30.3706   43.8628 H   0  0  0  0  0  0  0  0  0  0  0  0
   58.6130   29.4790   45.6630 N   0  0  0  0  0  0  0  0  0  0  0  0
   59.0150   30.6860   46.1820 C   0  0  0  0  0  0  0  0  0  0  0  0
   58.6830   31.7600   45.6020 O   0  0  0  0  0  0  0  0  0  0  0  0
   59.7840   30.7420   47.3160 N   0  0  0  0  0  0  0  0  0  0  0  0
   60.1930   32.0220   47.8450 C   0  0  0  0  0  0  0  0  0  0  0  0
   59.2540   32.8700   48.4530 C   0  0  0  0  0  0  0  0  0  0  0  0
   58.2013   32.5593   48.5260 H   0  0  0  0  0  0  0  0  0  0  0  0
   59.6520   34.1080   48.9660 C   0  0  0  0  0  0  0  0  0  0  0  0
   58.9131   34.7679   49.4441 H   0  0  0  0  0  0  0  0  0  0  0  0
   60.9880   34.5080   48.8720 C   0  0  0  0  0  0  0  0  0  0  0  0
   61.2994   35.4833   49.2742 H   0  0  0  0  0  0  0  0  0  0  0  0
   61.9290   33.6690   48.2670 C   0  0  0  0  0  0  0  0  0  0  0  0
   62.9804   33.9841   48.1947 H   0  0  0  0  0  0  0  0  0  0  0  0
   61.5340   32.4300   47.7540 C   0  0  0  0  0  0  0  0  0  0  0  0
   62.2759   31.7723   47.2775 H   0  0  0  0  0  0  0  0  0  0  0  0
   60.1700   29.5930   47.9510 C   0  0  0  0  0  0  0  0  0  0  0  0
   60.8680   29.6490   49.0030 O   0  0  0  0  0  0  0  0  0  0  0  0
   59.7810   28.3510   47.4390 C   0  0  0  0  0  0  0  0  0  0  0  0
   60.1470   27.1370   48.0390 C   0  0  0  0  0  0  0  0  0  0  0  0
   60.7608   27.1369   48.9518 H   0  0  0  0  0  0  0  0  0  0  0  0
   59.7430   25.9630   47.4920 N   0  0  0  0  0  0  0  0  0  0  0  0
   58.9880   25.9350   46.3610 C   0  0  0  0  0  0  0  0  0  0  0  0
   58.5810   24.8120   45.8460 N   0  0  0  0  0  0  0  0  0  0  0  0
   57.2350   24.4680   45.4740 C   0  0  0  0  0  0  0  0  0  0  0  0
   57.0240   23.7680   44.2810 C   0  0  0  0  0  0  0  0  0  0  0  0
   57.8806   23.5160   43.6385 H   0  0  0  0  0  0  0  0  0  0  0  0
   55.7360   23.3860   43.8980 C   0  0  0  0  0  0  0  0  0  0  0  0
   55.5824   22.8520   42.9486 H   0  0  0  0  0  0  0  0  0  0  0  0
   54.6330   23.6820   44.7230 C   0  0  0  0  0  0  0  0  0  0  0  0
   53.3210   23.3230   44.3850 O   0  0  0  0  0  0  0  0  0  0  0  0
   52.1610   24.0360   44.7980 C   0  0  0  0  0  0  0  0  0  0  0  0
   52.1185   24.0621   45.8969 H   0  0  0  0  0  0  0  0  0  0  0  0
   52.2042   25.0637   44.4082 H   0  0  0  0  0  0  0  0  0  0  0  0
   51.2635   23.5334   44.4082 H   0  0  0  0  0  0  0  0  0  0  0  0
   54.8480   24.3540   45.9310 C   0  0  0  0  0  0  0  0  0  0  0  0
   53.9948   24.5825   46.5866 H   0  0  0  0  0  0  0  0  0  0  0  0
   56.1370   24.7380   46.3130 C   0  0  0  0  0  0  0  0  0  0  0  0
   56.2938   25.2528   47.2723 H   0  0  0  0  0  0  0  0  0  0  0  0
   58.6140   27.1030   45.7780 N   0  0  0  0  0  0  0  0  0  0  0  0
   58.9900   28.3120   46.2800 C   0  0  0  0  0  0  0  0  0  0  0  0
   55.4220   29.7330   43.5110 C   0  0  0  0  0  0  0  0  0  0  0  0
   54.7707   30.5831   43.7624 H   0  0  0  0  0  0  0  0  0  0  0  0
   54.8297   28.8437   43.2494 H   0  0  0  0  0  0  0  0  0  0  0  0
   56.2760   30.1060   42.3010 C   0  0  0  0  0  0  0  0  0  0  0  0
   57.2340   30.5244   42.6433 H   0  0  0  0  0  0  0  0  0  0  0  0
   56.4640   29.2081   41.6941 H   0  0  0  0  0  0  0  0  0  0  0  0
   55.7451   30.8542   41.6941 H   0  0  0  0  0  0  0  0  0  0  0  0
  1  2  1  0
  2  3  1  0
  3  4  1  1
  3  5  1  0
  5  6  1  0
  5  7  1  0
  5  8  1  0
  8  9  1  0
  9 10  2  0
  9 11  1  0
 11 12  1  0
 12 13  2  0
 13 14  1  0
 13 15  1  0
 15 16  1  0
 15 17  2  0
 17 18  1  0
 17 19  1  0
 19 20  1  0
 19 21  2  0
 21 22  1  0
 11 23  1  0
 23 24  2  0
 23 25  1  0
 25 26  2  0
 26 27  1  0
 26 28  1  0
 28 29  1  0
 29 30  2  0
 30 31  1  0
 31 32  2  0
 32 33  1  0
 32 34  1  0
 34 35  1  0
 34 36  2  0
 36 37  1  0
 37 38  1  0
 38 39  1  0
 38 40  1  0
 38 41  1  0
 36 42  1  0
 42 43  1  0
 42 44  2  0
 44 45  1  0
 29 46  1  0
 46 47  2  0
  3 48  1  0
 48 49  1  0
 48 50  1  0
 48 51  1  0
 51 52  1  0
 51 53  1  0
 51 54  1  0
 47  8  1  0
 21 12  1  0
 47 25  1  0
 44 31  1  0
M  CHG  1  28  -1
M  END
>  <UniqueID>  (29) 
28

>  <SMILES>  (29) 
CC[C@@H](O)Cn1c(=O)n(-c2ccccc2)c(=O)c2c[n-]/c(=N\c3ccc(OC)cc3)nc21

>  <Energy>  (29) 
77.9489463942713

>  <Genealogy>  (29) 
CCC(O)Cn1c(=O)n(-c2ccccc2)c(=O)c2c[n-]c(=Nc3ccc(OC)cc3)nc21 (protonated)
CC[C@@H](O)Cn1c(=O)n(-c2ccccc2)c(=O)c2c[n-]c(=Nc3ccc(OC)cc3)nc21 (chirality)
CC[C@@H](O)Cn1c(=O)n(-c2ccccc2)c(=O)c2c[n-]/c(=N\c3ccc(OC)cc3)nc21 (cis-trans isomerization)
CC[C@@H](O)Cn1c(=O)n(-c2ccccc2)c(=O)c2c[n-]/c(=N\c3ccc(OC)cc3)nc21 (3D coordinates assigned)
CC[C@@H](O)Cn1c(=O)n(-c2ccccc2)c(=O)c2c[n-]/c(=N\c3ccc(OC)cc3)nc21 (optimized conformer: 77.9489463942713 kcal/mol)

>  <smiles>  (29) 
CCC(O)Cn1c(=O)n(-c2ccccc2)c(=O)c2c[nH]c(=Nc3ccc(OC)cc3)nc21

>  <score_type>  (29) 
oracle

>  <origin>  (29) 
adg

>  <m_score__min__energy>  (29) 
-9.7599999999999998

>  <m_primary>  (29) 
energy

$$$$
29:0
     RDKit          3D

 27 27  0  0  0  0  0  0  0  0999 V2000
   55.9840   22.2660   42.7810 N   0  0  0  0  0  0  0  0  0  0  0  0
   56.2980   22.2160   44.2070 C   0  0  0  0  0  0  0  0  0  0  0  0
   56.6000   23.5920   44.7430 C   0  0  0  0  0  0  0  0  0  0  0  0
   57.9200   24.0640   44.7750 C   0  0  0  0  0  0  0  0  0  0  0  0
   58.1970   25.3520   45.2390 C   0  0  0  0  0  0  0  0  0  0  0  0
   57.1590   26.1920   45.6750 C   0  0  0  0  0  0  0  0  0  0  0  0
   57.4710   27.5950   46.1430 C   0  0  0  0  0  0  0  0  0  0  0  0
   57.6070   28.5750   44.9590 C   0  0  1  0  0  0  0  0  0  0  0  0
   57.7010   27.8530   43.6890 N   0  0  0  0  0  0  0  0  0  0  0  0
   56.4520   29.5370   44.9080 C   0  0  0  0  0  0  0  0  0  0  0  0
   56.6540   30.7800   44.9340 O   0  0  0  0  0  0  0  0  0  0  0  0
   55.1530   29.0570   44.8010 O   0  0  0  0  0  0  0  0  0  0  0  0
   55.8300   25.7270   45.6210 C   0  0  0  0  0  0  0  0  0  0  0  0
   54.7780   26.5400   46.0230 O   0  0  0  0  0  0  0  0  0  0  0  0
   55.5580   24.4350   45.1560 C   0  0  0  0  0  0  0  0  0  0  0  0
   56.3060   23.1840   42.3970 H   0  0  0  0  0  0  0  0  0  0  0  0
   54.9470   22.2180   42.6620 H   0  0  0  0  0  0  0  0  0  0  0  0
   55.4371   21.7994   44.7504 H   0  0  0  0  0  0  0  0  0  0  0  0
   57.1863   21.5827   44.3479 H   0  0  0  0  0  0  0  0  0  0  0  0
   58.7412   23.4169   44.4331 H   0  0  0  0  0  0  0  0  0  0  0  0
   59.2363   25.7114   45.2632 H   0  0  0  0  0  0  0  0  0  0  0  0
   56.6592   27.9403   46.8000 H   0  0  0  0  0  0  0  0  0  0  0  0
   58.4305   27.5716   46.6805 H   0  0  0  0  0  0  0  0  0  0  0  0
   58.5335   29.1468   45.1159 H   0  0  0  0  0  0  0  0  0  0  0  0
   56.7350   27.6080   43.3720 H   0  0  0  0  0  0  0  0  0  0  0  0
   58.1150   28.4800   42.9600 H   0  0  0  0  0  0  0  0  0  0  0  0
   54.5184   24.0780   45.1142 H   0  0  0  0  0  0  0  0  0  0  0  0
  1  2  1  0
  2  3  1  0
  3  4  2  0
  4  5  1  0
  5  6  2  0
  6  7  1  0
  7  8  1  0
  8  9  1  0
  8 10  1  0
 10 11  2  0
 10 12  1  0
  6 13  1  0
 13 14  1  0
 13 15  2  0
 15  3  1  0
  1 16  1  0
  1 17  1  0
  2 18  1  0
  2 19  1  0
  4 20  1  0
  5 21  1  0
  7 22  1  0
  7 23  1  0
  8 24  1  1
  9 25  1  0
  9 26  1  0
 15 27  1  0
M  CHG  2  12  -1  14  -1
M  END
>  <UniqueID>  (30) 
29

>  <SMILES>  (30) 
NCc1ccc(C[C@@H](N)C(=O)[O-])c([O-])c1

>  <Energy>  (30) 
21.593107828228153

>  <Genealogy>  (30) 
NCc1ccc(CC(N)C(=O)[O-])c([O-])c1 (protonated)
NCc1ccc(C[C@@H](N)C(=O)[O-])c([O-])c1 (chirality)
NCc1ccc(C[C@@H](N)C(=O)[O-])c([O-])c1 (3D coordinates assigned)
NCc1ccc(C[C@@H](N)C(=O)[O-])c([O-])c1 (optimized conformer: 21.593107828228153 kcal/mol)

>  <smiles>  (30) 
NCc1ccc(CC(N)C(=O)O)c(O)c1

>  <score_type>  (30) 
oracle

>  <origin>  (30) 
adg

>  <m_score__min__energy>  (30) 
-13.140000000000001

>  <m_primary>  (30) 
energy

$$$$
30:0
     RDKit          3D

 48 51  0  0  0  0  0  0  0  0999 V2000
   50.2540   32.3250   49.9610 H   0  0  0  0  0  0  0  0  0  0  0  0
   51.1090   32.1010   50.5160 N   0  0  0  0  0  0  0  0  0  0  0  0
   51.1420   32.3100   51.9260 C   0  0  0  0  0  0  0  0  0  0  0  0
   50.5730   33.3160   52.4250 O   0  0  0  0  0  0  0  0  0  0  0  0
   51.8190   31.3130   52.8160 C   0  0  0  0  0  0  0  0  0  0  0  0
   52.4859   31.8470   53.5089 H   0  0  0  0  0  0  0  0  0  0  0  0
   51.0443   30.7597   53.3671 H   0  0  0  0  0  0  0  0  0  0  0  0
   52.6430   30.3090   52.0070 C   0  0  0  0  0  0  0  0  0  0  0  0
   52.3237   29.2889   52.2666 H   0  0  0  0  0  0  0  0  0  0  0  0
   52.4797   30.5020   50.9364 H   0  0  0  0  0  0  0  0  0  0  0  0
   54.0680   30.4520   52.2950 N   0  0  0  0  0  0  0  0  0  0  0  0
   54.6660   29.9090   53.3420 N   0  0  0  0  0  0  0  0  0  0  0  0
   55.9570   30.2910   53.3190 C   0  0  0  0  0  0  0  0  0  0  0  0
   56.7193   29.9977   54.0558 H   0  0  0  0  0  0  0  0  0  0  0  0
   56.1770   31.1120   52.2220 C   0  0  0  0  0  0  0  0  0  0  0  0
   57.4480   31.7660   51.8170 C   0  0  0  0  0  0  0  0  0  0  0  0
   58.4470   32.0450   52.7610 C   0  0  0  0  0  0  0  0  0  0  0  0
   58.2877   31.7864   53.8182 H   0  0  0  0  0  0  0  0  0  0  0  0
   59.6090   32.6320   52.3780 N   0  0  0  0  0  0  0  0  0  0  0  0
   59.8650   32.9760   51.0850 C   0  0  0  0  0  0  0  0  0  0  0  0
   60.9990   33.5320   50.7590 N   0  0  0  0  0  0  0  0  0  0  0  0
   61.8770   33.1510   49.6860 C   0  0  0  0  0  0  0  0  0  0  0  0
   62.0040   31.8140   49.2610 C   0  0  0  0  0  0  0  0  0  0  0  0
   61.4424   31.0199   49.7748 H   0  0  0  0  0  0  0  0  0  0  0  0
   62.8410   31.4930   48.1890 C   0  0  0  0  0  0  0  0  0  0  0  0
   62.9483   30.4456   47.8704 H   0  0  0  0  0  0  0  0  0  0  0  0
   63.5420   32.5010   47.5210 C   0  0  0  0  0  0  0  0  0  0  0  0
   64.2067   32.2462   46.6824 H   0  0  0  0  0  0  0  0  0  0  0  0
   63.3980   33.8320   47.9190 C   0  0  0  0  0  0  0  0  0  0  0  0
   63.9443   34.6259   47.3886 H   0  0  0  0  0  0  0  0  0  0  0  0
   62.5610   34.1570   48.9900 C   0  0  0  0  0  0  0  0  0  0  0  0
   62.4383   35.2086   49.2885 H   0  0  0  0  0  0  0  0  0  0  0  0
   58.8830   32.7430   50.1000 C   0  0  0  0  0  0  0  0  0  0  0  0
   59.0890   33.1250   48.6790 C   0  0  0  0  0  0  0  0  0  0  0  0
   59.3370   34.4670   48.3370 C   0  0  0  0  0  0  0  0  0  0  0  0
   59.3738   35.2348   49.1238 H   0  0  0  0  0  0  0  0  0  0  0  0
   59.5370   34.8290   47.0010 C   0  0  0  0  0  0  0  0  0  0  0  0
   59.7254   35.8808   46.7397 H   0  0  0  0  0  0  0  0  0  0  0  0
   59.4980   33.8580   45.9980 C   0  0  0  0  0  0  0  0  0  0  0  0
   59.6523   34.1457   44.9476 H   0  0  0  0  0  0  0  0  0  0  0  0
   59.2630   32.5210   46.3290 C   0  0  0  0  0  0  0  0  0  0  0  0
   59.2368   31.7563   45.5387 H   0  0  0  0  0  0  0  0  0  0  0  0
   59.0610   32.1530   47.6630 C   0  0  0  0  0  0  0  0  0  0  0  0
   58.8794   31.0987   47.9187 H   0  0  0  0  0  0  0  0  0  0  0  0
   57.6820   32.1250   50.4800 C   0  0  0  0  0  0  0  0  0  0  0  0
   56.9136   31.9190   49.7203 H   0  0  0  0  0  0  0  0  0  0  0  0
   54.9470   31.1930   51.5940 C   0  0  0  0  0  0  0  0  0  0  0  0
   54.7254   31.7639   50.6802 H   0  0  0  0  0  0  0  0  0  0  0  0
  1  2  1  0
  2  3  1  0
  3  4  2  0
  3  5  1  0
  5  6  1  0
  5  7  1  0
  5  8  1  0
  8  9  1  0
  8 10  1  0
  8 11  1  0
 11 12  1  0
 12 13  2  0
 13 14  1  0
 13 15  1  0
 15 16  1  0
 16 17  2  0
 17 18  1  0
 17 19  1  0
 19 20  1  0
 20 21  2  0
 21 22  1  0
 22 23  2  0
 23 24  1  0
 23 25  1  0
 25 26  1  0
 25 27  2  0
 27 28  1  0
 27 29  1  0
 29 30  1  0
 29 31  2  0
 31 32  1  0
 20 33  1  0
 33 34  1  0
 34 35  2  0
 35 36  1  0
 35 37  1  0
 37 38  1  0
 37 39  2  0
 39 40  1  0
 39 41  1  0
 41 42  1  0
 41 43  2  0
 43 44  1  0
 33 45  2  0
 45 46  1  0
 15 47  2  0
 47 48  1  0
 47 11  1  0
 45 16  1  0
 31 22  1  0
 43 34  1  0
M  CHG  2   2  -1  19  -1
M  END
>  <UniqueID>  (31) 
30

>  <SMILES>  (31) 
[NH-]C(=O)CCn1cc(-c2c[n-]/c(=N\c3ccccc3)c(-c3ccccc3)c2)cn1

>  <Energy>  (31) 
93.4790065201599

>  <Genealogy>  (31) 
[NH-]C(=O)CCn1cc(-c2c[n-]c(=Nc3ccccc3)c(-c3ccccc3)c2)cn1 (protonated)
[NH-]C(=O)CCn1cc(-c2c[n-]/c(=N\c3ccccc3)c(-c3ccccc3)c2)cn1 (cis-trans isomerization)
[NH-]C(=O)CCn1cc(-c2c[n-]/c(=N\c3ccccc3)c(-c3ccccc3)c2)cn1 (3D coordinates assigned)
[NH-]C(=O)CCn1cc(-c2c[n-]/c(=N\c3ccccc3)c(-c3ccccc3)c2)cn1 (optimized conformer: 93.4790065201599 kcal/mol)

>  <smiles>  (31) 
NC(=O)CCn1cc(-c2c[nH]c(=Nc3ccccc3)c(-c3ccccc3)c2)cn1

>  <score_type>  (31) 
oracle

>  <origin>  (31) 
adg

>  <m_score__min__energy>  (31) 
-13.220000000000001

>  <m_primary>  (31) 
energy

$$$$
31:0
     RDKit          3D

 71 74  0  0  1  0  0  0  0  0999 V2000
   65.5280   33.1630   50.3350 C   0  0  0  0  0  0  0  0  0  0  0  0
   64.3460   32.3320   50.0620 C   0  0  0  0  0  0  0  0  0  0  0  0
   63.8870   31.6020   50.9660 O   0  0  0  0  0  0  0  0  0  0  0  0
   63.6690   32.3020   48.8030 N   0  0  0  0  0  0  0  0  0  0  0  0
   62.5120   31.4140   48.7210 C   0  0  0  0  0  0  0  0  0  0  0  0
   62.1500   31.3830   47.2310 C   0  0  0  0  0  0  0  0  0  0  0  0
   61.8850   32.7240   46.8260 N   0  0  0  0  0  0  0  0  0  0  0  0
   60.6180   33.1920   46.3570 C   0  0  0  0  0  0  0  0  0  0  0  0
   60.4040   34.5050   45.9910 C   0  0  0  0  0  0  0  0  0  0  0  0
   59.1770   34.9640   45.5370 C   0  0  0  0  0  0  0  0  0  0  0  0
   58.1110   34.0980   45.4380 C   0  0  0  0  0  0  0  0  0  0  0  0
   58.2920   32.7720   45.7990 C   0  0  0  0  0  0  0  0  0  0  0  0
   57.2060   31.8560   45.7050 N   0  0  0  0  0  0  0  0  0  0  0  0
   57.4140   30.7500   45.0760 C   0  0  0  0  0  0  0  0  0  0  0  0
   56.8770   30.6790   43.8250 N   0  0  0  0  0  0  0  0  0  0  0  0
   57.0120   29.5870   43.0530 C   0  0  0  0  0  0  0  0  0  0  0  0
   57.7230   28.5260   43.5740 C   0  0  0  0  0  0  0  0  0  0  0  0
   57.9060   27.0960   42.5750 Cl  0  0  0  0  0  0  0  0  0  0  0  0
   58.2620   28.6140   44.8480 C   0  0  0  0  0  0  0  0  0  0  0  0
   58.9120   27.5880   45.2700 N   0  0  0  0  0  0  0  0  0  0  0  0
   58.1910   26.6040   46.0000 C   0  0  0  0  0  0  0  0  0  0  0  0
   56.9990   26.1500   45.4720 C   0  0  0  0  0  0  0  0  0  0  0  0
   56.2490   25.1980   46.1270 C   0  0  0  0  0  0  0  0  0  0  0  0
   56.7350   24.7220   47.3230 C   0  0  0  0  0  0  0  0  0  0  0  0
   57.9390   25.1840   47.8530 C   0  0  0  0  0  0  0  0  0  0  0  0
   58.6920   26.1270   47.2130 C   0  0  0  0  0  0  0  0  0  0  0  0
   60.1740   26.8120   47.7840 S   0  0  0  0  0  0  0  0  0  0  0  0
   61.2900   26.2030   46.9410 O   0  0  0  0  0  0  0  0  0  0  0  0
   60.4560   26.3580   49.2000 O   0  0  0  0  0  0  0  0  0  0  0  0
   60.2210   28.5110   47.6540 N   0  0  0  0  0  0  0  0  0  0  0  0
   60.3060   29.1430   48.9420 C   0  0  0  0  0  0  0  0  0  0  0  0
   59.3840   30.2860   49.0290 C   0  0  0  0  0  0  0  0  0  0  0  0
   58.5030   30.3530   48.1060 O   0  0  0  0  0  0  0  0  0  0  0  0
   59.3430   31.3090   49.9850 N   0  0  0  0  0  0  0  0  0  0  0  0
   58.2940   32.3340   49.7720 C   0  0  0  0  0  0  0  0  0  0  0  0
   60.1690   31.4880   51.1380 C   0  0  0  0  0  0  0  0  0  0  0  0
   58.1070   29.7210   45.5940 N   0  0  0  0  0  0  0  0  0  0  0  0
   59.5370   32.3390   46.2510 C   0  0  0  0  0  0  0  0  0  0  0  0
   62.9750   33.6890   46.8970 C   0  0  0  0  0  0  0  0  0  0  0  0
   64.1210   33.1080   47.6960 C   0  0  0  0  0  0  0  0  0  0  0  0
   65.6652   33.2595   51.4221 H   0  0  0  0  0  0  0  0  0  0  0  0
   66.4181   32.6908   49.8935 H   0  0  0  0  0  0  0  0  0  0  0  0
   65.3849   34.1603   49.8935 H   0  0  0  0  0  0  0  0  0  0  0  0
   62.7703   30.4063   49.0785 H   0  0  0  0  0  0  0  0  0  0  0  0
   61.6756   31.7613   49.3454 H   0  0  0  0  0  0  0  0  0  0  0  0
   62.9891   30.9739   46.6492 H   0  0  0  0  0  0  0  0  0  0  0  0
   61.2701   30.7456   47.0594 H   0  0  0  0  0  0  0  0  0  0  0  0
   61.2403   35.2160   46.0623 H   0  0  0  0  0  0  0  0  0  0  0  0
   59.0550   36.0204   45.2558 H   0  0  0  0  0  0  0  0  0  0  0  0
   57.1334   34.4521   45.0789 H   0  0  0  0  0  0  0  0  0  0  0  0
   56.3370   31.4880   43.4320 H   0  0  0  0  0  0  0  0  0  0  0  0
   56.5728   29.5412   42.0455 H   0  0  0  0  0  0  0  0  0  0  0  0
   56.6425   26.5547   44.5133 H   0  0  0  0  0  0  0  0  0  0  0  0
   55.2988   24.8327   45.7102 H   0  0  0  0  0  0  0  0  0  0  0  0
   56.1616   23.9610   47.8726 H   0  0  0  0  0  0  0  0  0  0  0  0
   58.2921   24.7781   48.8125 H   0  0  0  0  0  0  0  0  0  0  0  0
   59.3120   28.7930   47.1920 H   0  0  0  0  0  0  0  0  0  0  0  0
   60.0456   28.4105   49.7202 H   0  0  0  0  0  0  0  0  0  0  0  0
   61.3333   29.5090   49.0862 H   0  0  0  0  0  0  0  0  0  0  0  0
   57.9279   32.6918   50.7456 H   0  0  0  0  0  0  0  0  0  0  0  0
   58.7155   33.1779   49.2061 H   0  0  0  0  0  0  0  0  0  0  0  0
   57.4601   31.8931   49.2061 H   0  0  0  0  0  0  0  0  0  0  0  0
   59.5634   31.3568   52.0469 H   0  0  0  0  0  0  0  0  0  0  0  0
   60.9798   30.7447   51.1272 H   0  0  0  0  0  0  0  0  0  0  0  0
   60.5994   32.5003   51.1272 H   0  0  0  0  0  0  0  0  0  0  0  0
   58.5110   29.7940   46.5530 H   0  0  0  0  0  0  0  0  0  0  0  0
   59.6629   31.2831   46.5326 H   0  0  0  0  0  0  0  0  0  0  0  0
   63.3212   33.9247   45.8798 H   0  0  0  0  0  0  0  0  0  0  0  0
   62.6174   34.6061   47.3880 H   0  0  0  0  0  0  0  0  0  0  0  0
   64.7334   32.4818   47.0305 H   0  0  0  0  0  0  0  0  0  0  0  0
   64.7007   33.9471   48.1080 H   0  0  0  0  0  0  0  0  0  0  0  0
  1  2  1  0
  2  3  2  0
  2  4  1  0
  4  5  1  0
  5  6  1  0
  6  7  1  0
  7  8  1  0
  8  9  2  0
  9 10  1  0
 10 11  2  0
 11 12  1  0
 12 13  1  0
 13 14  2  0
 14 15  1  0
 15 16  1  0
 16 17  2  0
 17 18  1  0
 17 19  1  0
 19 20  2  0
 20 21  1  0
 21 22  2  0
 22 23  1  0
 23 24  2  0
 24 25  1  0
 25 26  2  0
 26 27  1  0
 27 28  2  0
 27 29  2  0
 27 30  1  0
 30 31  1  0
 31 32  1  0
 32 33  2  0
 32 34  1  0
 34 35  1  0
 34 36  1  0
 19 37  1  0
 12 38  2  0
  7 39  1  0
 39 40  1  0
 40  4  1  0
 38  8  1  0
 37 14  1  0
 26 21  1  0
  1 41  1  0
  1 42  1  0
  1 43  1  0
  5 44  1  0
  5 45  1  0
  6 46  1  0
  6 47  1  0
  9 48  1  0
 10 49  1  0
 11 50  1  0
 15 51  1  0
 16 52  1  0
 22 53  1  0
 23 54  1  0
 24 55  1  0
 25 56  1  0
 30 57  1  0
 31 58  1  0
 31 59  1  0
 35 60  1  0
 35 61  1  0
 35 62  1  0
 36 63  1  0
 36 64  1  0
 36 65  1  0
 37 66  1  0
 38 67  1  0
 39 68  1  0
 39 69  1  0
 40 70  1  0
 40 71  1  0
M  END
>  <smiles>  (32) 
CC(=O)N1CCN(c2cccc(N=c3[nH]cc(Cl)c(=Nc4ccccc4S(=O)(=O)NCC(=O)N(C)C)[nH]3)c2)CC1

>  <score_type>  (32) 
oracle

>  <origin>  (32) 
adg

>  <m_score__min__energy>  (32) 
-10.359999999999999

>  <m_primary>  (32) 
energy

$$$$
32:0
     RDKit          3D

 34 35  0  0  0  0  0  0  0  0999 V2000
   53.9000   24.0930   45.1400 C   0  0  0  0  0  0  0  0  0  0  0  0
   55.0000   24.9760   45.6230 C   0  0  0  0  0  0  0  0  0  0  0  0
   56.2540   24.5510   45.8660 N   0  0  0  0  0  0  0  0  0  0  0  0
   56.8400   25.6900   46.2900 C   0  0  0  0  0  0  0  0  0  0  0  0
   58.2510   25.7750   46.6930 C   0  0  0  0  0  0  0  0  0  0  0  0
   59.0820   24.9610   46.2070 O   0  0  0  0  0  0  0  0  0  0  0  0
   58.6850   26.7690   47.6320 N   0  0  0  0  0  0  0  0  0  0  0  0
   60.0840   26.8660   48.0460 C   0  0  0  0  0  0  0  0  0  0  0  0
   60.2980   28.0720   48.9050 C   0  0  0  0  0  0  0  0  0  0  0  0
   61.3040   28.1270   49.6610 O   0  0  0  0  0  0  0  0  0  0  0  0
   59.3000   29.1010   48.9340 N   0  0  0  0  0  0  0  0  0  0  0  0
   58.8850   29.9170   47.8280 C   0  0  0  0  0  0  0  0  0  0  0  0
   59.1820   31.2850   47.8570 C   0  0  0  0  0  0  0  0  0  0  0  0
   58.7760   32.1200   46.8120 C   0  0  0  0  0  0  0  0  0  0  0  0
   58.0580   31.5940   45.7340 C   0  0  0  0  0  0  0  0  0  0  0  0
   57.7400   30.2300   45.7000 C   0  0  0  0  0  0  0  0  0  0  0  0
   56.8010   29.5760   44.3630 S   0  0  0  0  0  0  0  0  0  0  0  0
   55.1650   29.3390   44.8660 N   0  0  0  0  0  0  0  0  0  0  0  0
   56.8350   30.5270   43.2000 O   0  0  0  0  0  0  0  0  0  0  0  0
   57.3860   28.2610   43.9270 O   0  0  0  0  0  0  0  0  0  0  0  0
   58.1410   29.3960   46.7540 C   0  0  0  0  0  0  0  0  0  0  0  0
   55.9890   26.7360   46.3070 N   0  0  0  0  0  0  0  0  0  0  0  0
   54.8600   26.2510   45.8890 O   0  0  0  0  0  0  0  0  0  0  0  0
   53.3675   23.6655   46.0024 H   0  0  0  0  0  0  0  0  0  0  0  0
   53.1983   24.6814   44.5306 H   0  0  0  0  0  0  0  0  0  0  0  0
   54.3227   23.2806   44.5306 H   0  0  0  0  0  0  0  0  0  0  0  0
   57.9810   27.4350   48.0270 H   0  0  0  0  0  0  0  0  0  0  0  0
   60.3557   25.9645   48.6148 H   0  0  0  0  0  0  0  0  0  0  0  0
   60.7135   26.9546   47.1483 H   0  0  0  0  0  0  0  0  0  0  0  0
   59.7384   31.7054   48.7077 H   0  0  0  0  0  0  0  0  0  0  0  0
   59.0217   33.1919   46.8379 H   0  0  0  0  0  0  0  0  0  0  0  0
   57.7422   32.2521   44.9111 H   0  0  0  0  0  0  0  0  0  0  0  0
   55.1800   28.6240   45.6270 H   0  0  0  0  0  0  0  0  0  0  0  0
   57.8724   28.3294   46.7406 H   0  0  0  0  0  0  0  0  0  0  0  0
  1  2  1  0
  2  3  2  0
  3  4  1  0
  4  5  1  0
  5  6  2  0
  5  7  1  0
  7  8  1  0
  8  9  1  0
  9 10  2  0
  9 11  1  0
 11 12  1  0
 12 13  2  0
 13 14  1  0
 14 15  2  0
 15 16  1  0
 16 17  1  0
 17 18  1  0
 17 19  2  0
 17 20  2  0
 16 21  2  0
  4 22  2  0
 22 23  1  0
 23  2  1  0
 21 12  1  0
  1 24  1  0
  1 25  1  0
  1 26  1  0
  7 27  1  0
  8 28  1  0
  8 29  1  0
 13 30  1  0
 14 31  1  0
 15 32  1  0
 18 33  1  0
 21 34  1  0
M  CHG  2  11  -1  18  -1
M  END
>  <UniqueID>  (33) 
31

>  <SMILES>  (33) 
Cc1nc(C(=O)NCC(=O)[N-]c2cccc(S([NH-])(=O)=O)c2)no1

>  <Energy>  (33) 
64.53551492513938

>  <Genealogy>  (33) 
Cc1nc(C(=O)NCC(=O)[N-]c2cccc(S([NH-])(=O)=O)c2)no1 (protonated)
Cc1nc(C(=O)NCC(=O)[N-]c2cccc(S([NH-])(=O)=O)c2)no1 (3D coordinates assigned)
Cc1nc(C(=O)NCC(=O)[N-]c2cccc(S([NH-])(=O)=O)c2)no1 (optimized conformer: 64.53551492513938 kcal/mol)

>  <smiles>  (33) 
Cc1nc(C(=O)NCC(=O)Nc2cccc(S(N)(=O)=O)c2)no1

>  <score_type>  (33) 
oracle

>  <origin>  (33) 
adg

>  <m_score__min__energy>  (33) 
-11.66

>  <m_primary>  (33) 
energy

$$$$
33:0
     RDKit          3D

 51 54  0  0  0  0  0  0  0  0999 V2000
   57.3232   32.1573   42.8003 H   0  0  0  0  0  0  0  0  0  0  0  0
   57.4060   31.7360   43.8130 C   0  0  0  0  0  0  0  0  0  0  0  0
   57.0040   30.4630   44.0030 C   0  0  0  0  0  0  0  0  0  0  0  0
   55.5450   30.0950   44.1160 C   0  0  0  0  0  0  0  0  0  0  0  0
   55.2658   30.0246   45.1776 H   0  0  0  0  0  0  0  0  0  0  0  0
   54.9332   30.8669   43.6264 H   0  0  0  0  0  0  0  0  0  0  0  0
   55.3725   29.1252   43.6264 H   0  0  0  0  0  0  0  0  0  0  0  0
   58.0410   29.3700   44.0930 C   0  0  0  0  0  0  0  0  0  0  0  0
   57.5370   28.4054   44.2527 H   0  0  0  0  0  0  0  0  0  0  0  0
   58.6158   29.3476   43.1554 H   0  0  0  0  0  0  0  0  0  0  0  0
   58.9590   29.6230   45.2040 N   0  0  0  0  0  0  0  0  0  0  0  0
   59.7500   30.2930   45.0730 H   0  0  0  0  0  0  0  0  0  0  0  0
   58.7850   28.9810   46.4760 C   0  0  0  0  0  0  0  0  0  0  0  0
   57.8650   28.1310   46.6270 O   0  0  0  0  0  0  0  0  0  0  0  0
   59.6720   29.3120   47.6110 C   0  0  0  0  0  0  0  0  0  0  0  0
   60.5340   30.3720   47.5160 N   0  0  0  0  0  0  0  0  0  0  0  0
   61.3750   30.7350   48.5290 C   0  0  0  0  0  0  0  0  0  0  0  0
   62.2540   31.8670   48.3620 N   0  0  0  0  0  0  0  0  0  0  0  0
   62.4750   32.8350   49.4420 C   0  0  0  0  0  0  0  0  0  0  0  0
   61.5818   32.8760   50.0827 H   0  0  0  0  0  0  0  0  0  0  0  0
   63.3462   32.5206   50.0355 H   0  0  0  0  0  0  0  0  0  0  0  0
   62.7420   34.2240   48.8550 C   0  0  0  0  0  0  0  0  0  0  0  0
   61.8206   34.6006   48.3869 H   0  0  0  0  0  0  0  0  0  0  0  0
   63.0612   34.8939   49.6670 H   0  0  0  0  0  0  0  0  0  0  0  0
   63.7670   34.1710   47.8830 O   0  0  0  0  0  0  0  0  0  0  0  0
   63.3340   33.4010   46.7770 C   0  0  0  0  0  0  0  0  0  0  0  0
   62.3854   33.8116   46.4009 H   0  0  0  0  0  0  0  0  0  0  0  0
   64.1059   33.4424   45.9944 H   0  0  0  0  0  0  0  0  0  0  0  0
   63.1230   31.9390   47.1820 C   0  0  0  0  0  0  0  0  0  0  0  0
   62.6534   31.3943   46.3497 H   0  0  0  0  0  0  0  0  0  0  0  0
   64.0963   31.4859   47.4215 H   0  0  0  0  0  0  0  0  0  0  0  0
   61.3410   29.9620   49.7000 C   0  0  0  0  0  0  0  0  0  0  0  0
   62.1130   30.1090   50.7970 N   0  0  0  0  0  0  0  0  0  0  0  0
   61.7020   29.1060   51.6100 C   0  0  0  0  0  0  0  0  0  0  0  0
   62.1034   28.9050   52.6142 H   0  0  0  0  0  0  0  0  0  0  0  0
   60.7040   28.3710   50.9940 C   0  0  0  0  0  0  0  0  0  0  0  0
   60.1805   27.4986   51.4122 H   0  0  0  0  0  0  0  0  0  0  0  0
   60.4970   28.9240   49.7920 N   0  0  0  0  0  0  0  0  0  0  0  0
   59.6500   28.5580   48.8000 C   0  0  0  0  0  0  0  0  0  0  0  0
   58.9693   27.7022   48.9192 H   0  0  0  0  0  0  0  0  0  0  0  0
   57.9500   32.5990   44.8790 C   0  0  0  0  0  0  0  0  0  0  0  0
   57.7670   32.2800   46.2350 C   0  0  0  0  0  0  0  0  0  0  0  0
   57.1884   31.3875   46.5154 H   0  0  0  0  0  0  0  0  0  0  0  0
   58.3190   33.0950   47.2300 C   0  0  0  0  0  0  0  0  0  0  0  0
   58.1647   32.8482   48.2908 H   0  0  0  0  0  0  0  0  0  0  0  0
   59.0660   34.2220   46.8770 C   0  0  0  0  0  0  0  0  0  0  0  0
   59.4919   34.8668   47.6599 H   0  0  0  0  0  0  0  0  0  0  0  0
   59.2720   34.5300   45.5300 C   0  0  0  0  0  0  0  0  0  0  0  0
   59.8644   35.4146   45.2534 H   0  0  0  0  0  0  0  0  0  0  0  0
   58.7260   33.7150   44.5320 C   0  0  0  0  0  0  0  0  0  0  0  0
   58.9058   33.9501   43.4726 H   0  0  0  0  0  0  0  0  0  0  0  0
  1  2  1  0
  2  3  2  0
  3  4  1  0
  4  5  1  0
  4  6  1  0
  4  7  1  0
  3  8  1  0
  8  9  1  0
  8 10  1  0
  8 11  1  0
 11 12  1  0
 11 13  1  0
 13 14  2  0
 13 15  1  0
 15 16  1  0
 16 17  2  0
 17 18  1  0
 18 19  1  0
 19 20  1  0
 19 21  1  0
 19 22  1  0
 22 23  1  0
 22 24  1  0
 22 25  1  0
 25 26  1  0
 26 27  1  0
 26 28  1  0
 26 29  1  0
 29 30  1  0
 29 31  1  0
 17 32  1  0
 32 33  2  0
 33 34  1  0
 34 35  1  0
 34 36  2  0
 36 37  1  0
 36 38  1  0
 38 39  1  0
 39 40  1  0
  2 41  1  0
 41 42  2  0
 42 43  1  0
 42 44  1  0
 44 45  1  0
 44 46  2  0
 46 47  1  0
 46 48  1  0
 48 49  1  0
 48 50  2  0
 50 51  1  0
 39 15  2  0
 50 41  1  0
 29 18  1  0
 38 32  1  0
M  END
>  <UniqueID>  (34) 
32

>  <SMILES>  (34) 
C/C(=C\c1ccccc1)CNC(=O)c1cn2ccnc2c(N2CCOCC2)n1

>  <Energy>  (34) 
97.4333979596614

>  <Genealogy>  (34) 
C/C(=C\c1ccccc1)CNC(=O)c1cn2ccnc2c(N2CCOCC2)n1 (cis-trans isomerization)
C/C(=C\c1ccccc1)CNC(=O)c1cn2ccnc2c(N2CCOCC2)n1 (3D coordinates assigned)
C/C(=C\c1ccccc1)CNC(=O)c1cn2ccnc2c(N2CCOCC2)n1 (nonaromatic ring conformer: 97.4333979596614 kcal/mol)

>  <smiles>  (34) 
CC(=Cc1ccccc1)CNC(=O)c1cn2ccnc2c(N2CCOCC2)n1

>  <score_type>  (34) 
oracle

>  <origin>  (34) 
adg

>  <m_score__min__energy>  (34) 
-8.5500000000000007

>  <m_primary>  (34) 
energy

$$$$
34:0
     RDKit          3D

 48 50  0  0  0  0  0  0  0  0999 V2000
   60.9330   33.6828   50.4875 H   0  0  0  0  0  0  0  0  0  0  0  0
   60.9270   33.7570   49.3900 C   0  0  0  0  0  0  0  0  0  0  0  0
   59.7520   33.9280   48.7300 N   0  0  0  0  0  0  0  0  0  0  0  0
   59.6850   34.0280   47.3770 C   0  0  0  0  0  0  0  0  0  0  0  0
   58.5160   34.1850   46.8260 N   0  0  0  0  0  0  0  0  0  0  0  0
   58.0850   33.8170   45.1820 S   0  0  0  0  0  0  0  0  0  0  0  0
   59.1820   34.2890   44.2680 O   0  0  0  0  0  0  0  0  0  0  0  0
   56.8160   34.5420   44.8350 O   0  0  0  0  0  0  0  0  0  0  0  0
   57.8190   32.0870   44.9970 C   0  0  0  0  0  0  0  0  0  0  0  0
   57.0050   31.6120   43.9620 C   0  0  0  0  0  0  0  0  0  0  0  0
   56.5395   32.3214   43.2620 H   0  0  0  0  0  0  0  0  0  0  0  0
   56.7810   30.2400   43.8140 C   0  0  0  0  0  0  0  0  0  0  0  0
   56.1414   29.8749   42.9969 H   0  0  0  0  0  0  0  0  0  0  0  0
   57.3690   29.3250   44.7040 C   0  0  0  0  0  0  0  0  0  0  0  0
   57.1750   27.9050   44.5260 N   0  0  0  0  0  0  0  0  0  0  0  0
   57.4830   27.6360   43.5620 H   0  0  0  0  0  0  0  0  0  0  0  0
   56.1600   27.6590   44.6050 H   0  0  0  0  0  0  0  0  0  0  0  0
   57.9560   27.1290   45.5040 C   0  0  0  0  0  0  0  0  0  0  0  0
   57.9891   27.6837   46.4533 H   0  0  0  0  0  0  0  0  0  0  0  0
   58.9666   26.9831   45.0950 H   0  0  0  0  0  0  0  0  0  0  0  0
   57.3490   25.7640   45.7550 C   0  0  0  0  0  0  0  0  0  0  0  0
   58.1730   24.6290   45.7340 C   0  0  0  0  0  0  0  0  0  0  0  0
   59.2546   24.7421   45.5689 H   0  0  0  0  0  0  0  0  0  0  0  0
   57.6300   23.3580   45.9210 C   0  0  0  0  0  0  0  0  0  0  0  0
   58.2852   22.4745   45.9093 H   0  0  0  0  0  0  0  0  0  0  0  0
   56.2570   23.2040   46.1230 C   0  0  0  0  0  0  0  0  0  0  0  0
   55.8345   22.1995   46.2726 H   0  0  0  0  0  0  0  0  0  0  0  0
   55.4110   24.3300   46.1360 C   0  0  0  0  0  0  0  0  0  0  0  0
   54.0240   24.2190   46.3250 O   0  0  0  0  0  0  0  0  0  0  0  0
   53.0730   24.1050   45.2720 C   0  0  0  0  0  0  0  0  0  0  0  0
   52.0663   23.9843   45.6986 H   0  0  0  0  0  0  0  0  0  0  0  0
   53.1020   25.0131   44.6518 H   0  0  0  0  0  0  0  0  0  0  0  0
   53.3158   23.2295   44.6518 H   0  0  0  0  0  0  0  0  0  0  0  0
   55.9620   25.6060   45.9510 C   0  0  0  0  0  0  0  0  0  0  0  0
   55.1200   26.7150   45.9570 O   0  0  0  0  0  0  0  0  0  0  0  0
   58.1910   29.8070   45.7390 C   0  0  0  0  0  0  0  0  0  0  0  0
   58.6601   29.0999   46.4390 H   0  0  0  0  0  0  0  0  0  0  0  0
   58.4150   31.1790   45.8830 C   0  0  0  0  0  0  0  0  0  0  0  0
   59.0607   31.5472   46.6938 H   0  0  0  0  0  0  0  0  0  0  0  0
   60.8760   33.9550   46.6250 C   0  0  0  0  0  0  0  0  0  0  0  0
   60.8421   34.0421   45.5290 H   0  0  0  0  0  0  0  0  0  0  0  0
   62.1040   33.7710   47.2780 C   0  0  0  0  0  0  0  0  0  0  0  0
   63.3760   33.6970   46.4790 C   0  0  0  0  0  0  0  0  0  0  0  0
   64.2362   33.6470   47.1628 H   0  0  0  0  0  0  0  0  0  0  0  0
   63.3589   32.7983   45.8449 H   0  0  0  0  0  0  0  0  0  0  0  0
   63.4633   34.5916   45.8449 H   0  0  0  0  0  0  0  0  0  0  0  0
   62.1270   33.6750   48.6810 C   0  0  0  0  0  0  0  0  0  0  0  0
   63.6300   33.4570   49.5710 Cl  0  0  0  0  0  0  0  0  0  0  0  0
  1  2  1  0
  2  3  1  0
  3  4  1  0
  4  5  2  0
  5  6  1  0
  6  7  2  0
  6  8  2  0
  6  9  1  0
  9 10  2  0
 10 11  1  0
 10 12  1  0
 12 13  1  0
 12 14  2  0
 14 15  1  0
 15 16  1  0
 15 17  1  0
 15 18  1  0
 18 19  1  0
 18 20  1  0
 18 21  1  0
 21 22  2  0
 22 23  1  0
 22 24  1  0
 24 25  1  0
 24 26  2  0
 26 27  1  0
 26 28  1  0
 28 29  1  0
 29 30  1  0
 30 31  1  0
 30 32  1  0
 30 33  1  0
 28 34  2  0
 34 35  1  0
 14 36  1  0
 36 37  1  0
 36 38  2  0
 38 39  1  0
  4 40  1  0
 40 41  1  0
 40 42  2  0
 42 43  1  0
 43 44  1  0
 43 45  1  0
 43 46  1  0
 42 47  1  0
 47 48  1  0
 47  2  2  0
 38  9  1  0
 34 21  1  0
M  CHG  3   3  -1  15   1  35  -1
M  END
>  <UniqueID>  (35) 
33

>  <SMILES>  (35) 
COc1cccc(C[NH2+]c2ccc(S(=O)(=O)/N=c3\cc(C)c(Cl)c[n-]3)cc2)c1[O-]

>  <Energy>  (35) 
56.65197662411992

>  <Genealogy>  (35) 
COc1cccc(C[NH2+]c2ccc(S(=O)(=O)N=c3cc(C)c(Cl)c[n-]3)cc2)c1[O-] (protonated)
COc1cccc(C[NH2+]c2ccc(S(=O)(=O)/N=c3\cc(C)c(Cl)c[n-]3)cc2)c1[O-] (cis-trans isomerization)
COc1cccc(C[NH2+]c2ccc(S(=O)(=O)/N=c3\cc(C)c(Cl)c[n-]3)cc2)c1[O-] (3D coordinates assigned)
COc1cccc(C[NH2+]c2ccc(S(=O)(=O)/N=c3\cc(C)c(Cl)c[n-]3)cc2)c1[O-] (optimized conformer: 56.65197662411992 kcal/mol)

>  <smiles>  (35) 
COc1cccc(CNc2ccc(S(=O)(=O)N=c3cc(C)c(Cl)c[nH]3)cc2)c1O

>  <score_type>  (35) 
oracle

>  <origin>  (35) 
adg

>  <m_score__min__energy>  (35) 
-12.69

>  <m_primary>  (35) 
energy

$$$$
35:0
     RDKit          3D

 56 59  0  0  1  0  0  0  0  0999 V2000
   55.5210   30.4940   52.9510 C   0  0  0  0  0  0  0  0  0  0  0  0
   56.7710   31.1200   53.1660 O   0  0  0  0  0  0  0  0  0  0  0  0
   57.5860   31.4210   52.0690 C   0  0  0  0  0  0  0  0  0  0  0  0
   57.7490   30.4490   51.0990 C   0  0  0  0  0  0  0  0  0  0  0  0
   58.5470   30.7130   50.0020 C   0  0  0  0  0  0  0  0  0  0  0  0
   58.7000   29.7680   49.0670 N   0  0  0  0  0  0  0  0  0  0  0  0
   59.4820   30.0490   48.0090 C   0  0  0  0  0  0  0  0  0  0  0  0
   59.6390   29.1500   47.1000 N   0  0  0  0  0  0  0  0  0  0  0  0
   59.8140   29.4040   45.7000 C   0  0  0  0  0  0  0  0  0  0  0  0
   58.4500   29.7030   45.1340 C   0  0  0  0  0  0  0  0  0  0  0  0
   58.2810   30.5460   44.0550 C   0  0  0  0  0  0  0  0  0  0  0  0
   57.0200   30.8090   43.5480 C   0  0  0  0  0  0  0  0  0  0  0  0
   55.9240   30.2090   44.1430 C   0  0  0  0  0  0  0  0  0  0  0  0
   56.0740   29.3760   45.2080 N   0  0  0  0  0  0  0  0  0  0  0  0
   57.3130   29.1380   45.6800 C   0  0  0  0  0  0  0  0  0  0  0  0
   60.0980   31.2590   47.8960 N   0  0  0  0  0  0  0  0  0  0  0  0
   59.9470   32.2130   48.8350 C   0  0  0  0  0  0  0  0  0  0  0  0
   60.6260   33.4470   48.6400 N   0  0  0  0  0  0  0  0  0  0  0  0
   62.0460   33.6210   48.8830 C   0  0  0  0  0  0  0  0  0  0  0  0
   59.8840   34.5920   48.1790 C   0  0  0  0  0  0  0  0  0  0  0  0
   59.0970   34.3080   46.9470 C   0  0  0  0  0  0  0  0  0  0  0  0
   59.6240   34.5620   45.6850 C   0  0  0  0  0  0  0  0  0  0  0  0
   58.8490   34.2790   44.5810 C   0  0  0  0  0  0  0  0  0  0  0  0
   57.5820   33.7570   44.7080 C   0  0  0  0  0  0  0  0  0  0  0  0
   57.0600   33.5050   45.9670 C   0  0  0  0  0  0  0  0  0  0  0  0
   57.8250   33.7830   47.0870 C   0  0  0  0  0  0  0  0  0  0  0  0
   59.1500   31.9490   49.9290 C   0  0  0  0  0  0  0  0  0  0  0  0
   58.9840   32.9100   50.8960 C   0  0  0  0  0  0  0  0  0  0  0  0
   58.1920   32.6570   51.9910 C   0  0  0  0  0  0  0  0  0  0  0  0
   57.9740   33.5750   53.0110 O   0  0  0  0  0  0  0  0  0  0  0  0
   58.9020   34.5950   53.2370 C   0  0  0  0  0  0  0  0  0  0  0  0
   55.0560   30.2611   53.9203 H   0  0  0  0  0  0  0  0  0  0  0  0
   54.8653   31.1701   52.3827 H   0  0  0  0  0  0  0  0  0  0  0  0
   55.6696   29.5639   52.3827 H   0  0  0  0  0  0  0  0  0  0  0  0
   57.2482   29.4748   51.1996 H   0  0  0  0  0  0  0  0  0  0  0  0
   58.2410   28.8380   49.1310 H   0  0  0  0  0  0  0  0  0  0  0  0
   60.4816   30.2658   45.5527 H   0  0  0  0  0  0  0  0  0  0  0  0
   60.2670   28.5370   45.1968 H   0  0  0  0  0  0  0  0  0  0  0  0
   59.1608   31.0158   43.5910 H   0  0  0  0  0  0  0  0  0  0  0  0
   56.8915   31.4826   42.6879 H   0  0  0  0  0  0  0  0  0  0  0  0
   54.9166   30.4086   43.7489 H   0  0  0  0  0  0  0  0  0  0  0  0
   57.4251   28.4621   46.5406 H   0  0  0  0  0  0  0  0  0  0  0  0
   62.2324   33.6438   49.9668 H   0  0  0  0  0  0  0  0  0  0  0  0
   62.6002   32.7840   48.4332 H   0  0  0  0  0  0  0  0  0  0  0  0
   62.3818   34.5670   48.4332 H   0  0  0  0  0  0  0  0  0  0  0  0
   59.1920   34.9065   48.9741 H   0  0  0  0  0  0  0  0  0  0  0  0
   60.6093   35.3823   47.9355 H   0  0  0  0  0  0  0  0  0  0  0  0
   60.6355   34.9789   45.5708 H   0  0  0  0  0  0  0  0  0  0  0  0
   59.2520   34.4747   43.5764 H   0  0  0  0  0  0  0  0  0  0  0  0
   56.9838   33.5399   43.8108 H   0  0  0  0  0  0  0  0  0  0  0  0
   56.0478   33.0882   46.0753 H   0  0  0  0  0  0  0  0  0  0  0  0
   57.4202   33.5859   48.0906 H   0  0  0  0  0  0  0  0  0  0  0  0
   59.4855   33.8837   50.7943 H   0  0  0  0  0  0  0  0  0  0  0  0
   59.0326   34.7386   54.3197 H   0  0  0  0  0  0  0  0  0  0  0  0
   59.8663   34.3203   52.7846 H   0  0  0  0  0  0  0  0  0  0  0  0
   58.5376   35.5291   52.7846 H   0  0  0  0  0  0  0  0  0  0  0  0
  1  2  1  0
  2  3  1  0
  3  4  2  0
  4  5  1  0
  5  6  1  0
  6  7  1  0
  7  8  2  0
  8  9  1  0
  9 10  1  0
 10 11  2  0
 11 12  1  0
 12 13  2  0
 13 14  1  0
 14 15  2  0
  7 16  1  0
 16 17  2  0
 17 18  1  0
 18 19  1  0
 18 20  1  0
 20 21  1  0
 21 22  2  0
 22 23  1  0
 23 24  2  0
 24 25  1  0
 25 26  2  0
 17 27  1  0
 27 28  1  0
 28 29  2  0
 29 30  1  0
 30 31  1  0
 29  3  1  0
 27  5  2  0
 15 10  1  0
 26 21  1  0
  1 32  1  0
  1 33  1  0
  1 34  1  0
  4 35  1  0
  6 36  1  0
  9 37  1  0
  9 38  1  0
 11 39  1  0
 12 40  1  0
 13 41  1  0
 15 42  1  0
 19 43  1  0
 19 44  1  0
 19 45  1  0
 20 46  1  0
 20 47  1  0
 22 48  1  0
 23 49  1  0
 24 50  1  0
 25 51  1  0
 26 52  1  0
 28 53  1  0
 31 54  1  0
 31 55  1  0
 31 56  1  0
M  END
>  <smiles>  (36) 
COc1cc2[nH]c(=NCc3cccnc3)nc(N(C)Cc3ccccc3)c2cc1OC

>  <score_type>  (36) 
oracle

>  <origin>  (36) 
adg

>  <m_score__min__energy>  (36) 
-8.0399999999999991

>  <m_primary>  (36) 
energy

$$$$
36:0
     RDKit          3D

 61 64  0  0  0  0  0  0  0  0999 V2000
   59.4230   32.5710   52.0430 C   0  0  0  0  0  0  0  0  0  0  0  0
   60.4950   32.0720   51.1800 N   0  0  0  0  0  0  0  0  0  0  0  0
   61.7800   32.7790   51.1570 C   0  0  0  0  0  0  0  0  0  0  0  0
   62.3130   32.8520   49.7520 C   0  0  0  0  0  0  0  0  0  0  0  0
   61.8390   33.8340   48.8690 C   0  0  0  0  0  0  0  0  0  0  0  0
   62.3180   33.8890   47.5550 C   0  0  0  0  0  0  0  0  0  0  0  0
   63.2590   32.9560   47.1120 C   0  0  0  0  0  0  0  0  0  0  0  0
   63.7230   31.9660   47.9800 C   0  0  0  0  0  0  0  0  0  0  0  0
   63.2440   31.9050   49.2940 C   0  0  0  0  0  0  0  0  0  0  0  0
   60.4260   30.7240   50.6810 C   0  0  0  0  0  0  0  0  0  0  0  0
   60.9280   29.6760   51.4690 C   0  0  0  0  0  0  0  0  0  0  0  0
   60.9510   28.3690   50.9840 C   0  0  0  0  0  0  0  0  0  0  0  0
   60.4810   28.0940   49.6990 C   0  0  0  0  0  0  0  0  0  0  0  0
   59.9730   29.1240   48.9030 C   0  0  0  0  0  0  0  0  0  0  0  0
   59.9240   30.4430   49.3860 C   0  0  0  0  0  0  0  0  0  0  0  0
   59.3370   31.4970   48.5270 C   0  0  0  0  0  0  0  0  0  0  0  0
   58.4130   32.2250   48.9830 O   0  0  0  0  0  0  0  0  0  0  0  0
   59.8390   31.7280   47.2030 N   0  0  0  0  0  0  0  0  0  0  0  0
   59.1370   32.5300   46.2390 C   0  0  0  0  0  0  0  0  0  0  0  0
   59.3940   33.9110   46.1830 C   0  0  0  0  0  0  0  0  0  0  0  0
   58.6710   34.7340   45.3200 C   0  0  0  0  0  0  0  0  0  0  0  0
   57.6840   34.1890   44.5010 C   0  0  0  0  0  0  0  0  0  0  0  0
   57.4200   32.8190   44.5380 C   0  0  0  0  0  0  0  0  0  0  0  0
   58.1400   31.9670   45.3980 C   0  0  0  0  0  0  0  0  0  0  0  0
   57.8690   30.5050   45.3530 C   0  0  0  0  0  0  0  0  0  0  0  0
   56.6850   30.0790   45.3020 O   0  0  0  0  0  0  0  0  0  0  0  0
   58.9650   29.5790   45.3530 N   0  0  0  0  0  0  0  0  0  0  0  0
   58.9130   28.1830   45.6940 C   0  0  0  0  0  0  0  0  0  0  0  0
   60.1030   27.5350   46.0520 C   0  0  0  0  0  0  0  0  0  0  0  0
   60.0930   26.1830   46.4050 C   0  0  0  0  0  0  0  0  0  0  0  0
   58.8920   25.4710   46.4200 C   0  0  0  0  0  0  0  0  0  0  0  0
   57.6890   26.1150   46.1070 C   0  0  0  0  0  0  0  0  0  0  0  0
   56.1690   25.2260   46.1390 S   0  0  0  0  0  0  0  0  0  0  0  0
   54.8470   26.3230   45.9580 N   0  0  0  0  0  0  0  0  0  0  0  0
   56.0240   24.5070   47.4510 O   0  0  0  0  0  0  0  0  0  0  0  0
   56.1520   24.2270   45.0180 O   0  0  0  0  0  0  0  0  0  0  0  0
   57.7000   27.4710   45.7460 C   0  0  0  0  0  0  0  0  0  0  0  0
   59.7088   32.4380   53.0969 H   0  0  0  0  0  0  0  0  0  0  0  0
   59.2564   33.6392   51.8403 H   0  0  0  0  0  0  0  0  0  0  0  0
   58.4983   32.0107   51.8403 H   0  0  0  0  0  0  0  0  0  0  0  0
   61.6397   33.7987   51.5449 H   0  0  0  0  0  0  0  0  0  0  0  0
   62.4996   32.2320   51.7838 H   0  0  0  0  0  0  0  0  0  0  0  0
   61.0889   34.5626   49.2103 H   0  0  0  0  0  0  0  0  0  0  0  0
   61.9529   34.6682   46.8698 H   0  0  0  0  0  0  0  0  0  0  0  0
   63.6343   33.0016   46.0790 H   0  0  0  0  0  0  0  0  0  0  0  0
   64.4656   31.2333   47.6312 H   0  0  0  0  0  0  0  0  0  0  0  0
   63.5979   31.1128   49.9702 H   0  0  0  0  0  0  0  0  0  0  0  0
   61.3071   29.8883   52.4796 H   0  0  0  0  0  0  0  0  0  0  0  0
   61.3394   27.5551   51.6138 H   0  0  0  0  0  0  0  0  0  0  0  0
   60.5105   27.0647   49.3122 H   0  0  0  0  0  0  0  0  0  0  0  0
   59.6083   28.9006   47.8896 H   0  0  0  0  0  0  0  0  0  0  0  0
   60.7730   31.3360   46.9400 H   0  0  0  0  0  0  0  0  0  0  0  0
   60.1729   34.3466   46.8261 H   0  0  0  0  0  0  0  0  0  0  0  0
   58.8798   35.8135   45.2858 H   0  0  0  0  0  0  0  0  0  0  0  0
   57.1117   34.8400   43.8238 H   0  0  0  0  0  0  0  0  0  0  0  0
   56.6392   32.3990   43.8868 H   0  0  0  0  0  0  0  0  0  0  0  0
   61.0504   28.0939   46.0551 H   0  0  0  0  0  0  0  0  0  0  0  0
   61.0334   25.6785   46.6717 H   0  0  0  0  0  0  0  0  0  0  0  0
   58.8911   24.4018   46.6783 H   0  0  0  0  0  0  0  0  0  0  0  0
   55.1620   27.0770   45.3060 H   0  0  0  0  0  0  0  0  0  0  0  0
   56.7558   27.9801   45.5024 H   0  0  0  0  0  0  0  0  0  0  0  0
  1  2  1  0
  2  3  1  0
  3  4  1  0
  4  5  2  0
  5  6  1  0
  6  7  2  0
  7  8  1  0
  8  9  2  0
  2 10  1  0
 10 11  2  0
 11 12  1  0
 12 13  2  0
 13 14  1  0
 14 15  2  0
 15 16  1  0
 16 17  2  0
 16 18  1  0
 18 19  1  0
 19 20  2  0
 20 21  1  0
 21 22  2  0
 22 23  1  0
 23 24  2  0
 24 25  1  0
 25 26  2  0
 25 27  1  0
 27 28  1  0
 28 29  2  0
 29 30  1  0
 30 31  2  0
 31 32  1  0
 32 33  1  0
 33 34  1  0
 33 35  2  0
 33 36  2  0
 32 37  2  0
  9  4  1  0
 15 10  1  0
 24 19  1  0
 37 28  1  0
  1 38  1  0
  1 39  1  0
  1 40  1  0
  3 41  1  0
  3 42  1  0
  5 43  1  0
  6 44  1  0
  7 45  1  0
  8 46  1  0
  9 47  1  0
 11 48  1  0
 12 49  1  0
 13 50  1  0
 14 51  1  0
 18 52  1  0
 20 53  1  0
 21 54  1  0
 22 55  1  0
 23 56  1  0
 29 57  1  0
 30 58  1  0
 31 59  1  0
 34 60  1  0
 37 61  1  0
M  CHG  2  27  -1  34  -1
M  END
>  <UniqueID>  (37) 
34

>  <SMILES>  (37) 
CN(Cc1ccccc1)c1ccccc1C(=O)Nc1ccccc1C(=O)[N-]c1cccc(S([NH-])(=O)=O)c1

>  <Energy>  (37) 
82.09764431601091

>  <Genealogy>  (37) 
CN(Cc1ccccc1)c1ccccc1C(=O)Nc1ccccc1C(=O)[N-]c1cccc(S([NH-])(=O)=O)c1 (protonated)
CN(Cc1ccccc1)c1ccccc1C(=O)Nc1ccccc1C(=O)[N-]c1cccc(S([NH-])(=O)=O)c1 (3D coordinates assigned)
CN(Cc1ccccc1)c1ccccc1C(=O)Nc1ccccc1C(=O)[N-]c1cccc(S([NH-])(=O)=O)c1 (optimized conformer: 82.09764431601091 kcal/mol)

>  <smiles>  (37) 
CN(Cc1ccccc1)c1ccccc1C(=O)Nc1ccccc1C(=O)Nc1cccc(S(N)(=O)=O)c1

>  <score_type>  (37) 
oracle

>  <origin>  (37) 
adg

>  <m_score__min__energy>  (37) 
-14.5

>  <m_primary>  (37) 
energy

$$$$
37:0
     RDKit          3D

 71 74  0  0  0  0  0  0  0  0999 V2000
   65.7020   32.9740   50.0960 C   0  0  0  0  0  0  0  0  0  0  0  0
   64.5500   31.9840   50.1890 C   0  0  0  0  0  0  0  0  0  0  0  0
   64.0920   31.6610   48.8780 O   0  0  0  0  0  0  0  0  0  0  0  0
   63.0250   32.3010   48.2310 C   0  0  0  0  0  0  0  0  0  0  0  0
   61.6820   32.0810   48.5900 C   0  0  0  0  0  0  0  0  0  0  0  0
   60.6540   32.7400   47.9100 C   0  0  0  0  0  0  0  0  0  0  0  0
   60.9520   33.6240   46.8640 C   0  0  0  0  0  0  0  0  0  0  0  0
   59.6620   34.4150   45.9590 S   0  0  0  0  0  0  0  0  0  0  0  0
   59.6220   35.8820   46.2860 O   0  0  0  0  0  0  0  0  0  0  0  0
   59.9510   34.2700   44.4920 O   0  0  0  0  0  0  0  0  0  0  0  0
   58.1130   33.6930   46.3040 N   0  0  0  0  0  0  0  0  0  0  0  0
   57.3130   33.5080   45.0880 C   0  0  0  0  0  0  0  0  0  0  0  0
   57.7830   32.3190   44.3030 C   0  0  0  0  0  0  0  0  0  0  0  0
   58.1690   32.4640   43.1120 O   0  0  0  0  0  0  0  0  0  0  0  0
   57.7360   30.9690   44.8890 C   0  0  0  0  0  0  0  0  0  0  0  0
   58.4290   30.7400   46.0850 C   0  0  0  0  0  0  0  0  0  0  0  0
   58.4200   29.4780   46.6790 C   0  0  0  0  0  0  0  0  0  0  0  0
   57.7190   28.4170   46.0790 C   0  0  0  0  0  0  0  0  0  0  0  0
   57.6820   27.1310   46.6390 O   0  0  0  0  0  0  0  0  0  0  0  0
   57.3890   25.9470   45.9040 C   0  0  0  0  0  0  0  0  0  0  0  0
   55.9070   25.7250   45.8760 C   0  0  0  0  0  0  0  0  0  0  0  0
   55.1380   26.7100   46.0280 O   0  0  0  0  0  0  0  0  0  0  0  0
   55.3420   24.4140   45.7540 N   0  0  0  0  0  0  0  0  0  0  0  0
   55.8580   23.3370   44.9570 C   0  0  0  0  0  0  0  0  0  0  0  0
   55.9500   23.4560   43.5590 C   0  0  0  0  0  0  0  0  0  0  0  0
   56.4530   22.4030   42.7930 C   0  0  0  0  0  0  0  0  0  0  0  0
   56.8570   21.2190   43.4110 C   0  0  0  0  0  0  0  0  0  0  0  0
   56.7500   21.0800   44.7970 C   0  0  0  0  0  0  0  0  0  0  0  0
   56.2410   22.1290   45.5780 C   0  0  0  0  0  0  0  0  0  0  0  0
   56.1580   21.9770   47.0030 N   0  0  0  0  0  0  0  0  0  0  0  0
   56.6340   22.9830   47.9360 C   0  0  0  0  0  0  0  0  0  0  0  0
   56.5800   22.3220   49.3080 C   0  0  0  0  0  0  0  0  0  0  0  0
   55.6790   21.1000   49.1460 C   0  0  0  0  0  0  0  0  0  0  0  0
   55.6950   20.7670   47.6600 C   0  0  0  0  0  0  0  0  0  0  0  0
   57.0260   28.6430   44.8840 C   0  0  0  0  0  0  0  0  0  0  0  0
   57.0100   29.9160   44.2870 C   0  0  0  0  0  0  0  0  0  0  0  0
   56.2640   30.1120   42.9940 C   0  0  0  0  0  0  0  0  0  0  0  0
   62.2870   33.8420   46.5050 C   0  0  0  0  0  0  0  0  0  0  0  0
   63.3160   33.1880   47.1870 C   0  0  0  0  0  0  0  0  0  0  0  0
   66.0276   33.2538   51.1087 H   0  0  0  0  0  0  0  0  0  0  0  0
   66.5409   32.5107   49.5560 H   0  0  0  0  0  0  0  0  0  0  0  0
   65.3702   33.8731   49.5560 H   0  0  0  0  0  0  0  0  0  0  0  0
   64.8934   31.0686   50.6930 H   0  0  0  0  0  0  0  0  0  0  0  0
   63.7268   32.4333   50.7639 H   0  0  0  0  0  0  0  0  0  0  0  0
   61.4405   31.3876   49.4091 H   0  0  0  0  0  0  0  0  0  0  0  0
   59.6067   32.5641   48.1969 H   0  0  0  0  0  0  0  0  0  0  0  0
   57.6030   34.3690   46.9170 H   0  0  0  0  0  0  0  0  0  0  0  0
   56.2606   33.3577   45.3707 H   0  0  0  0  0  0  0  0  0  0  0  0
   57.4226   34.4045   44.4601 H   0  0  0  0  0  0  0  0  0  0  0  0
   58.9847   31.5622   46.5594 H   0  0  0  0  0  0  0  0  0  0  0  0
   58.9636   29.3121   47.6208 H   0  0  0  0  0  0  0  0  0  0  0  0
   57.7625   26.0534   44.8748 H   0  0  0  0  0  0  0  0  0  0  0  0
   57.8775   25.0877   46.3867 H   0  0  0  0  0  0  0  0  0  0  0  0
   55.6239   24.3838   43.0663 H   0  0  0  0  0  0  0  0  0  0  0  0
   56.5310   22.5068   41.7007 H   0  0  0  0  0  0  0  0  0  0  0  0
   57.2604   20.3937   42.8059 H   0  0  0  0  0  0  0  0  0  0  0  0
   57.0665   20.1431   45.2788 H   0  0  0  0  0  0  0  0  0  0  0  0
   57.6652   23.2774   47.6912 H   0  0  0  0  0  0  0  0  0  0  0  0
   56.0229   23.8969   47.8984 H   0  0  0  0  0  0  0  0  0  0  0  0
   57.5876   22.0156   49.6254 H   0  0  0  0  0  0  0  0  0  0  0  0
   56.1943   23.0106   50.0742 H   0  0  0  0  0  0  0  0  0  0  0  0
   56.0701   20.2553   49.7321 H   0  0  0  0  0  0  0  0  0  0  0  0
   54.6586   21.2988   49.5055 H   0  0  0  0  0  0  0  0  0  0  0  0
   56.3824   19.9320   47.4593 H   0  0  0  0  0  0  0  0  0  0  0  0
   54.7039   20.4563   47.2978 H   0  0  0  0  0  0  0  0  0  0  0  0
   56.4862   27.8128   44.4051 H   0  0  0  0  0  0  0  0  0  0  0  0
   55.2209   30.3861   43.2104 H   0  0  0  0  0  0  0  0  0  0  0  0
   56.7413   30.9152   42.4134 H   0  0  0  0  0  0  0  0  0  0  0  0
   56.2848   29.1779   42.4134 H   0  0  0  0  0  0  0  0  0  0  0  0
   62.5271   34.5314   45.6822 H   0  0  0  0  0  0  0  0  0  0  0  0
   64.3625   33.3711   46.9019 H   0  0  0  0  0  0  0  0  0  0  0  0
  1  2  1  0
  2  3  1  0
  3  4  1  0
  4  5  2  0
  5  6  1  0
  6  7  2  0
  7  8  1  0
  8  9  2  0
  8 10  2  0
  8 11  1  0
 11 12  1  0
 12 13  1  0
 13 14  2  0
 13 15  1  0
 15 16  2  0
 16 17  1  0
 17 18  2  0
 18 19  1  0
 19 20  1  0
 20 21  1  0
 21 22  2  0
 21 23  1  0
 23 24  1  0
 24 25  2  0
 25 26  1  0
 26 27  2  0
 27 28  1  0
 28 29  2  0
 29 30  1  0
 30 31  1  0
 31 32  1  0
 32 33  1  0
 33 34  1  0
 18 35  1  0
 35 36  2  0
 36 37  1  0
  7 38  1  0
 38 39  2  0
 39  4  1  0
 36 15  1  0
 29 24  1  0
 34 30  1  0
  1 40  1  0
  1 41  1  0
  1 42  1  0
  2 43  1  0
  2 44  1  0
  5 45  1  0
  6 46  1  0
 11 47  1  0
 12 48  1  0
 12 49  1  0
 16 50  1  0
 17 51  1  0
 20 52  1  0
 20 53  1  0
 25 54  1  0
 26 55  1  0
 27 56  1  0
 28 57  1  0
 31 58  1  0
 31 59  1  0
 32 60  1  0
 32 61  1  0
 33 62  1  0
 33 63  1  0
 34 64  1  0
 34 65  1  0
 35 66  1  0
 37 67  1  0
 37 68  1  0
 37 69  1  0
 38 70  1  0
 39 71  1  0
M  CHG  1  23  -1
M  END
>  <UniqueID>  (38) 
35

>  <SMILES>  (38) 
CCOc1ccc(S(=O)(=O)NCC(=O)c2ccc(OCC(=O)[N-]c3ccccc3N3CCCC3)cc2C)cc1

>  <Energy>  (38) 
84.98066694372478

>  <Genealogy>  (38) 
CCOc1ccc(S(=O)(=O)NCC(=O)c2ccc(OCC(=O)[N-]c3ccccc3N3CCCC3)cc2C)cc1 (protonated)
CCOc1ccc(S(=O)(=O)NCC(=O)c2ccc(OCC(=O)[N-]c3ccccc3N3CCCC3)cc2C)cc1 (3D coordinates assigned)
CCOc1ccc(S(=O)(=O)NCC(=O)c2ccc(OCC(=O)[N-]c3ccccc3N3CCCC3)cc2C)cc1 (nonaromatic ring conformer: 84.98066694372478 kcal/mol)

>  <smiles>  (38) 
CCOc1ccc(S(=O)(=O)NCC(=O)c2ccc(OCC(=O)Nc3ccccc3N3CCCC3)cc2C)cc1

>  <score_type>  (38) 
oracle

>  <origin>  (38) 
adg

>  <m_score__min__energy>  (38) 
-11.5

>  <m_primary>  (38) 
energy

$$$$
38:0
     RDKit          3D

 33 35  0  0  0  0  0  0  0  0999 V2000
   60.3920   26.8910   48.0110 O   0  0  0  0  0  0  0  0  0  0  0  0
   59.6550   27.2690   47.0630 C   0  0  0  0  0  0  0  0  0  0  0  0
   59.8790   28.5660   46.4900 N   0  0  0  0  0  0  0  0  0  0  0  0
   59.1180   29.7810   46.7820 C   0  0  0  0  0  0  0  0  0  0  0  0
   58.1460   30.0900   45.6710 C   0  0  0  0  0  0  0  0  0  0  0  0
   58.4790   31.0330   44.6850 C   0  0  0  0  0  0  0  0  0  0  0  0
   57.5940   31.2980   43.6360 C   0  0  0  0  0  0  0  0  0  0  0  0
   56.3700   30.6280   43.5660 C   0  0  0  0  0  0  0  0  0  0  0  0
   56.0260   29.6950   44.5490 C   0  0  0  0  0  0  0  0  0  0  0  0
   54.8090   29.0260   44.4780 O   0  0  0  0  0  0  0  0  0  0  0  0
   56.9060   29.4320   45.6030 C   0  0  0  0  0  0  0  0  0  0  0  0
   58.6310   26.3480   46.5450 C   0  0  0  0  0  0  0  0  0  0  0  0
   58.8980   25.0830   46.0260 C   0  0  0  0  0  0  0  0  0  0  0  0
   57.6710   24.5930   45.6400 C   0  0  0  0  0  0  0  0  0  0  0  0
   57.3280   23.3860   45.0350 C   0  0  0  0  0  0  0  0  0  0  0  0
   55.9660   23.1560   44.7420 C   0  0  0  0  0  0  0  0  0  0  0  0
   55.5660   21.9670   44.1380 O   0  0  0  0  0  0  0  0  0  0  0  0
   54.9970   24.1350   45.0610 C   0  0  0  0  0  0  0  0  0  0  0  0
   55.3780   25.3450   45.6700 C   0  0  0  0  0  0  0  0  0  0  0  0
   54.4320   26.3140   45.9820 O   0  0  0  0  0  0  0  0  0  0  0  0
   56.7310   25.5410   45.9460 C   0  0  0  0  0  0  0  0  0  0  0  0
   57.3040   26.6190   46.5090 N   0  0  0  0  0  0  0  0  0  0  0  0
   58.5599   29.6393   47.7192 H   0  0  0  0  0  0  0  0  0  0  0  0
   59.8217   30.6212   46.8758 H   0  0  0  0  0  0  0  0  0  0  0  0
   59.4402   31.5652   44.7384 H   0  0  0  0  0  0  0  0  0  0  0  0
   57.8616   32.0351   42.8646 H   0  0  0  0  0  0  0  0  0  0  0  0
   55.6767   30.8345   42.7373 H   0  0  0  0  0  0  0  0  0  0  0  0
   56.6268   28.7073   46.3820 H   0  0  0  0  0  0  0  0  0  0  0  0
   59.8752   24.5849   45.9429 H   0  0  0  0  0  0  0  0  0  0  0  0
   58.0946   22.6352   44.7930 H   0  0  0  0  0  0  0  0  0  0  0  0
   56.1910   21.1740   44.0650 H   0  0  0  0  0  0  0  0  0  0  0  0
   53.9374   23.9494   44.8314 H   0  0  0  0  0  0  0  0  0  0  0  0
   56.8190   27.4710   46.8660 H   0  0  0  0  0  0  0  0  0  0  0  0
  1  2  2  0
  2  3  1  0
  3  4  1  0
  4  5  1  0
  5  6  2  0
  6  7  1  0
  7  8  2  0
  8  9  1  0
  9 10  1  0
  9 11  2  0
  2 12  1  0
 12 13  2  0
 13 14  1  0
 14 15  2  0
 15 16  1  0
 16 17  1  0
 16 18  2  0
 18 19  1  0
 19 20  1  0
 19 21  2  0
 21 22  1  0
 11  5  1  0
 22 12  1  0
 21 14  1  0
  4 23  1  0
  4 24  1  0
  6 25  1  0
  7 26  1  0
  8 27  1  0
 11 28  1  0
 13 29  1  0
 15 30  1  0
 17 31  1  0
 18 32  1  0
 22 33  1  0
M  CHG  3   3  -1  10  -1  20  -1
M  END
>  <UniqueID>  (39) 
36

>  <SMILES>  (39) 
O=C([N-]Cc1cccc([O-])c1)c1cc2cc(O)cc([O-])c2[nH]1

>  <Energy>  (39) 
68.7799336521687

>  <Genealogy>  (39) 
O=C([N-]Cc1cccc([O-])c1)c1cc2cc(O)cc([O-])c2[nH]1 (protonated)
O=C([N-]Cc1cccc([O-])c1)c1cc2cc(O)cc([O-])c2[nH]1 (3D coordinates assigned)
O=C([N-]Cc1cccc([O-])c1)c1cc2cc(O)cc([O-])c2[nH]1 (optimized conformer: 68.7799336521687 kcal/mol)

>  <smiles>  (39) 
O=C(NCc1cccc(O)c1)c1cc2cc(O)cc(O)c2[nH]1

>  <score_type>  (39) 
oracle

>  <origin>  (39) 
adg

>  <m_score__min__energy>  (39) 
-16

>  <m_primary>  (39) 
energy

$$$$
39:0
     RDKit          3D

 39 40  0  0  0  0  0  0  0  0999 V2000
   55.3100   29.3410   44.9680 N   0  0  0  0  0  0  0  0  0  0  0  0
   56.2530   30.1390   44.2550 C   0  0  0  0  0  0  0  0  0  0  0  0
   56.2160   30.1640   42.9940 O   0  0  0  0  0  0  0  0  0  0  0  0
   57.2620   30.8830   44.9770 N   0  0  2  0  0  0  0  0  0  0  0  0
   57.2920   32.2880   44.5010 C   0  0  0  0  0  0  0  0  0  0  0  0
   56.9890   33.2940   45.6280 C   0  0  0  0  0  0  0  0  0  0  0  0
   58.2300   33.5730   46.4330 C   0  0  0  0  0  0  0  0  0  0  0  0
   59.2630   34.3600   45.8960 C   0  0  0  0  0  0  0  0  0  0  0  0
   60.4280   34.5910   46.6340 C   0  0  0  0  0  0  0  0  0  0  0  0
   60.5750   34.0290   47.9060 C   0  0  0  0  0  0  0  0  0  0  0  0
   59.5580   33.2340   48.4400 C   0  0  0  0  0  0  0  0  0  0  0  0
   58.3910   33.0010   47.7060 C   0  0  0  0  0  0  0  0  0  0  0  0
   58.5820   30.2210   44.8210 C   0  0  0  0  0  0  0  0  0  0  0  0
   58.7110   29.0030   45.7220 C   0  0  0  0  0  0  0  0  0  0  0  0
   59.4130   29.1670   46.9290 C   0  0  0  0  0  0  0  0  0  0  0  0
   59.5760   28.1050   47.8130 C   0  0  0  0  0  0  0  0  0  0  0  0
   59.0360   26.8590   47.5110 C   0  0  0  0  0  0  0  0  0  0  0  0
   58.3240   26.6630   46.3250 C   0  0  0  0  0  0  0  0  0  0  0  0
   57.5980   24.9140   46.0150 Br  0  0  0  0  0  0  0  0  0  0  0  0
   58.1460   27.7320   45.4140 C   0  0  0  0  0  0  0  0  0  0  0  0
   57.3990   27.5160   44.2040 N   0  0  0  0  0  0  0  0  0  0  0  0
   54.4140   29.7500   45.3130 H   0  0  0  0  0  0  0  0  0  0  0  0
   56.9950   30.8820   45.9900 H   0  0  0  0  0  0  0  0  0  0  0  0
   58.2914   32.5025   44.0946 H   0  0  0  0  0  0  0  0  0  0  0  0
   56.5132   32.3994   43.7322 H   0  0  0  0  0  0  0  0  0  0  0  0
   56.6250   34.2335   45.1865 H   0  0  0  0  0  0  0  0  0  0  0  0
   56.2234   32.8653   46.2914 H   0  0  0  0  0  0  0  0  0  0  0  0
   59.1548   34.7957   44.8918 H   0  0  0  0  0  0  0  0  0  0  0  0
   61.2299   35.2156   46.2134 H   0  0  0  0  0  0  0  0  0  0  0  0
   61.4914   34.2129   48.4860 H   0  0  0  0  0  0  0  0  0  0  0  0
   59.6755   32.7905   49.4398 H   0  0  0  0  0  0  0  0  0  0  0  0
   57.5962   32.3676   48.1268 H   0  0  0  0  0  0  0  0  0  0  0  0
   58.7003   29.9041   43.7743 H   0  0  0  0  0  0  0  0  0  0  0  0
   59.3626   30.9419   45.1056 H   0  0  0  0  0  0  0  0  0  0  0  0
   59.8398   30.1497   47.1782 H   0  0  0  0  0  0  0  0  0  0  0  0
   60.1320   28.2506   48.7509 H   0  0  0  0  0  0  0  0  0  0  0  0
   59.1706   26.0216   48.2114 H   0  0  0  0  0  0  0  0  0  0  0  0
   56.7220   28.2070   43.8230 H   0  0  0  0  0  0  0  0  0  0  0  0
   57.4800   26.6290   43.6620 H   0  0  0  0  0  0  0  0  0  0  0  0
  1  2  1  0
  2  3  2  0
  2  4  1  0
  4  5  1  0
  5  6  1  0
  6  7  1  0
  7  8  2  0
  8  9  1  0
  9 10  2  0
 10 11  1  0
 11 12  2  0
  4 13  1  0
 13 14  1  0
 14 15  2  0
 15 16  1  0
 16 17  2  0
 17 18  1  0
 18 19  1  0
 18 20  2  0
 20 21  1  0
 12  7  1  0
 20 14  1  0
  1 22  1  0
  4 23  1  1
  5 24  1  0
  5 25  1  0
  6 26  1  0
  6 27  1  0
  8 28  1  0
  9 29  1  0
 10 30  1  0
 11 31  1  0
 12 32  1  0
 13 33  1  0
 13 34  1  0
 15 35  1  0
 16 36  1  0
 17 37  1  0
 21 38  1  0
 21 39  1  0
M  CHG  2   1  -1   4   1
M  END
>  <UniqueID>  (40) 
37

>  <SMILES>  (40) 
[NH-]C(=O)[N@H+](CCc1ccccc1)Cc1cccc(Br)c1N

>  <Energy>  (40) 
45.12132848747191

>  <Genealogy>  (40) 
[NH-]C(=O)[NH+](CCc1ccccc1)Cc1cccc(Br)c1N (protonated)
[NH-]C(=O)[N@H+](CCc1ccccc1)Cc1cccc(Br)c1N (chirality)
[NH-]C(=O)[N@H+](CCc1ccccc1)Cc1cccc(Br)c1N (3D coordinates assigned)
[NH-]C(=O)[N@H+](CCc1ccccc1)Cc1cccc(Br)c1N (optimized conformer: 45.12132848747191 kcal/mol)

>  <smiles>  (40) 
NC(=O)N(CCc1ccccc1)Cc1cccc(Br)c1N

>  <score_type>  (40) 
oracle

>  <origin>  (40) 
adg

>  <m_score__min__energy>  (40) 
-9.2599999999999998

>  <m_primary>  (40) 
energy

$$$$
40:0
     RDKit          3D

 33 34  0  0  0  0  0  0  0  0999 V2000
   56.8730   29.2600   42.8580 N   0  0  0  0  0  0  0  0  0  0  0  0
   56.6630   29.7830   44.4920 S   0  0  0  0  0  0  0  0  0  0  0  0
   55.5290   29.0270   45.1270 O   0  0  0  0  0  0  0  0  0  0  0  0
   56.3140   31.2450   44.4930 O   0  0  0  0  0  0  0  0  0  0  0  0
   58.1550   29.5140   45.4060 C   0  0  0  0  0  0  0  0  0  0  0  0
   58.7990   30.6110   46.0030 C   0  0  0  0  0  0  0  0  0  0  0  0
   59.9900   30.4380   46.7310 C   0  0  0  0  0  0  0  0  0  0  0  0
   60.6630   31.5960   47.3630 C   0  0  0  0  0  0  0  0  0  0  0  0
   61.6590   32.1320   46.8050 O   0  0  0  0  0  0  0  0  0  0  0  0
   60.1920   32.0920   48.5860 O   0  0  0  0  0  0  0  0  0  0  0  0
   59.4460   33.3010   48.7070 C   0  0  0  0  0  0  0  0  0  0  0  0
   58.9360   33.7380   47.3610 C   0  0  0  0  0  0  0  0  0  0  0  0
   57.6430   33.3920   46.9370 C   0  0  0  0  0  0  0  0  0  0  0  0
   57.1720   33.8200   45.6910 C   0  0  0  0  0  0  0  0  0  0  0  0
   57.9880   34.5960   44.8630 C   0  0  0  0  0  0  0  0  0  0  0  0
   59.2740   34.9480   45.2800 C   0  0  0  0  0  0  0  0  0  0  0  0
   59.7480   34.5220   46.5250 C   0  0  0  0  0  0  0  0  0  0  0  0
   60.5350   29.1510   46.8550 C   0  0  0  0  0  0  0  0  0  0  0  0
   59.9050   28.0570   46.2570 C   0  0  0  0  0  0  0  0  0  0  0  0
   58.7210   28.2280   45.5320 C   0  0  0  0  0  0  0  0  0  0  0  0
   57.9930   26.8050   44.7960 Cl  0  0  0  0  0  0  0  0  0  0  0  0
   56.6550   28.2390   42.8270 H   0  0  0  0  0  0  0  0  0  0  0  0
   57.8890   29.3580   42.6350 H   0  0  0  0  0  0  0  0  0  0  0  0
   58.3665   31.6171   45.8998 H   0  0  0  0  0  0  0  0  0  0  0  0
   58.5931   33.1349   49.3815 H   0  0  0  0  0  0  0  0  0  0  0  0
   60.1010   34.0859   49.1130 H   0  0  0  0  0  0  0  0  0  0  0  0
   56.9980   32.7822   47.5868 H   0  0  0  0  0  0  0  0  0  0  0  0
   56.1586   33.5455   45.3627 H   0  0  0  0  0  0  0  0  0  0  0  0
   57.6174   34.9297   43.8825 H   0  0  0  0  0  0  0  0  0  0  0  0
   59.9144   35.5608   44.6286 H   0  0  0  0  0  0  0  0  0  0  0  0
   60.7607   34.8020   46.8507 H   0  0  0  0  0  0  0  0  0  0  0  0
   61.4633   29.0027   47.4262 H   0  0  0  0  0  0  0  0  0  0  0  0
   60.3434   27.0531   46.3570 H   0  0  0  0  0  0  0  0  0  0  0  0
  1  2  1  0
  2  3  2  0
  2  4  2  0
  2  5  1  0
  5  6  2  0
  6  7  1  0
  7  8  1  0
  8  9  2  0
  8 10  1  0
 10 11  1  0
 11 12  1  0
 12 13  2  0
 13 14  1  0
 14 15  2  0
 15 16  1  0
 16 17  2  0
  7 18  2  0
 18 19  1  0
 19 20  2  0
 20 21  1  0
 20  5  1  0
 17 12  1  0
  1 22  1  0
  1 23  1  0
  6 24  1  0
 11 25  1  0
 11 26  1  0
 13 27  1  0
 14 28  1  0
 15 29  1  0
 16 30  1  0
 17 31  1  0
 18 32  1  0
 19 33  1  0
M  END
>  <UniqueID>  (41) 
38

>  <SMILES>  (41) 
NS(=O)(=O)c1cc(C(=O)OCc2ccccc2)ccc1Cl

>  <Energy>  (41) 
32.71563041141192

>  <Genealogy>  (41) 
NS(=O)(=O)c1cc(C(=O)OCc2ccccc2)ccc1Cl (3D coordinates assigned)
NS(=O)(=O)c1cc(C(=O)OCc2ccccc2)ccc1Cl (optimized conformer: 32.71563041141192 kcal/mol)

>  <smiles>  (41) 
NS(=O)(=O)c1cc(C(=O)OCc2ccccc2)ccc1Cl

>  <score_type>  (41) 
oracle

>  <origin>  (41) 
adg

>  <m_score__min__energy>  (41) 
-8.5600000000000005

>  <m_primary>  (41) 
energy

$$$$
41:0
     RDKit          3D

 56 59  0  0  0  0  0  0  0  0999 V2000
   58.0750   24.0760   46.3910 C   0  0  0  0  0  0  0  0  0  0  0  0
   58.3240   25.5370   46.1110 C   0  0  0  0  0  0  0  0  0  0  0  0
   59.6530   25.9940   46.0940 C   0  0  0  0  0  0  0  0  0  0  0  0
   59.9400   27.3290   45.8360 C   0  0  0  0  0  0  0  0  0  0  0  0
   58.9140   28.2250   45.5610 C   0  0  0  0  0  0  0  0  0  0  0  0
   57.5710   27.8030   45.5380 C   0  0  0  0  0  0  0  0  0  0  0  0
   56.5050   28.8290   45.1860 C   0  0  0  0  0  0  0  0  0  0  0  0
   57.1100   30.1410   44.7440 C   0  0  0  0  0  0  0  0  0  0  0  0
   57.7960   30.8710   45.6640 N   0  0  0  0  0  0  0  0  0  0  0  0
   58.3940   32.0500   45.3500 C   0  0  0  0  0  0  0  0  0  0  0  0
   59.1190   32.7940   46.3520 N   0  0  0  0  0  0  0  0  0  0  0  0
   59.0840   32.3340   47.7500 C   0  0  0  0  0  0  0  0  0  0  0  0
   59.7550   33.3360   48.6930 C   0  0  0  0  0  0  0  0  0  0  0  0
   61.0460   33.7510   48.1350 N   0  0  0  0  0  0  0  0  0  0  0  0
   62.2370   33.7060   48.9420 C   0  0  0  0  0  0  0  0  0  0  0  0
   62.2330   34.2400   50.2420 C   0  0  0  0  0  0  0  0  0  0  0  0
   63.3860   34.1840   51.0310 C   0  0  0  0  0  0  0  0  0  0  0  0
   64.5510   33.5960   50.5300 C   0  0  0  0  0  0  0  0  0  0  0  0
   64.5630   33.0580   49.2400 C   0  0  0  0  0  0  0  0  0  0  0  0
   63.4110   33.1100   48.4480 C   0  0  0  0  0  0  0  0  0  0  0  0
   61.1370   34.1720   46.7290 C   0  0  0  0  0  0  0  0  0  0  0  0
   59.7840   34.0630   46.0130 C   0  0  0  0  0  0  0  0  0  0  0  0
   58.3090   32.5180   44.0780 N   0  0  0  0  0  0  0  0  0  0  0  0
   57.6430   31.8380   43.1120 C   0  0  0  0  0  0  0  0  0  0  0  0
   57.5980   32.3190   41.9480 O   0  0  0  0  0  0  0  0  0  0  0  0
   57.0170   30.6140   43.4150 C   0  0  0  0  0  0  0  0  0  0  0  0
   56.2780   29.8330   42.3530 C   0  0  0  0  0  0  0  0  0  0  0  0
   57.2600   26.4560   45.8870 C   0  0  0  0  0  0  0  0  0  0  0  0
   55.8160   26.0090   45.9950 C   0  0  0  0  0  0  0  0  0  0  0  0
   58.0468   23.9106   47.4781 H   0  0  0  0  0  0  0  0  0  0  0  0
   57.1129   23.7768   45.9495 H   0  0  0  0  0  0  0  0  0  0  0  0
   58.8837   23.4750   45.9495 H   0  0  0  0  0  0  0  0  0  0  0  0
   60.4741   25.2879   46.2868 H   0  0  0  0  0  0  0  0  0  0  0  0
   60.9832   27.6778   45.8495 H   0  0  0  0  0  0  0  0  0  0  0  0
   59.1546   29.2791   45.3584 H   0  0  0  0  0  0  0  0  0  0  0  0
   55.8840   28.4309   44.3700 H   0  0  0  0  0  0  0  0  0  0  0  0
   55.9027   29.0177   46.0869 H   0  0  0  0  0  0  0  0  0  0  0  0
   58.0356   32.2034   48.0561 H   0  0  0  0  0  0  0  0  0  0  0  0
   59.6342   31.3835   47.8120 H   0  0  0  0  0  0  0  0  0  0  0  0
   59.1074   34.2173   48.8112 H   0  0  0  0  0  0  0  0  0  0  0  0
   59.9166   32.8626   49.6727 H   0  0  0  0  0  0  0  0  0  0  0  0
   61.3188   34.7041   50.6405 H   0  0  0  0  0  0  0  0  0  0  0  0
   63.3763   34.6034   52.0478 H   0  0  0  0  0  0  0  0  0  0  0  0
   65.4582   33.5567   51.1509 H   0  0  0  0  0  0  0  0  0  0  0  0
   65.4793   32.5932   48.8471 H   0  0  0  0  0  0  0  0  0  0  0  0
   63.4236   32.6828   47.4344 H   0  0  0  0  0  0  0  0  0  0  0  0
   61.4764   35.2176   46.6916 H   0  0  0  0  0  0  0  0  0  0  0  0
   61.8488   33.5069   46.2182 H   0  0  0  0  0  0  0  0  0  0  0  0
   59.1426   34.9013   46.3227 H   0  0  0  0  0  0  0  0  0  0  0  0
   59.9541   34.0951   44.9267 H   0  0  0  0  0  0  0  0  0  0  0  0
   55.5978   29.1141   42.8332 H   0  0  0  0  0  0  0  0  0  0  0  0
   55.6968   30.5255   41.7264 H   0  0  0  0  0  0  0  0  0  0  0  0
   57.0015   29.2909   41.7264 H   0  0  0  0  0  0  0  0  0  0  0  0
   55.5372   25.9227   47.0556 H   0  0  0  0  0  0  0  0  0  0  0  0
   55.1657   26.7479   45.5039 H   0  0  0  0  0  0  0  0  0  0  0  0
   55.6969   25.0319   45.5039 H   0  0  0  0  0  0  0  0  0  0  0  0
  1  2  1  0
  2  3  2  0
  3  4  1  0
  4  5  2  0
  5  6  1  0
  6  7  1  0
  7  8  1  0
  8  9  1  0
  9 10  1  0
 10 11  1  0
 11 12  1  0
 12 13  1  0
 13 14  1  0
 14 15  1  0
 15 16  2  0
 16 17  1  0
 17 18  2  0
 18 19  1  0
 19 20  2  0
 14 21  1  0
 21 22  1  0
 10 23  2  0
 23 24  1  0
 24 25  2  0
 24 26  1  0
 26 27  1  0
  6 28  2  0
 28 29  1  0
 28  2  1  0
 26  8  2  0
 22 11  1  0
 20 15  1  0
  1 30  1  0
  1 31  1  0
  1 32  1  0
  3 33  1  0
  4 34  1  0
  5 35  1  0
  7 36  1  0
  7 37  1  0
 12 38  1  0
 12 39  1  0
 13 40  1  0
 13 41  1  0
 16 42  1  0
 17 43  1  0
 18 44  1  0
 19 45  1  0
 20 46  1  0
 21 47  1  0
 21 48  1  0
 22 49  1  0
 22 50  1  0
 27 51  1  0
 27 52  1  0
 27 53  1  0
 29 54  1  0
 29 55  1  0
 29 56  1  0
M  CHG  1   9  -1
M  END
>  <UniqueID>  (42) 
39

>  <SMILES>  (42) 
Cc1cccc(Cc2[n-]c(N3CCN(c4ccccc4)CC3)nc(=O)c2C)c1C

>  <Energy>  (42) 
70.42391802862166

>  <Genealogy>  (42) 
Cc1cccc(Cc2[n-]c(N3CCN(c4ccccc4)CC3)nc(=O)c2C)c1C (protonated)
Cc1cccc(Cc2[n-]c(N3CCN(c4ccccc4)CC3)nc(=O)c2C)c1C (3D coordinates assigned)
Cc1cccc(Cc2[n-]c(N3CCN(c4ccccc4)CC3)nc(=O)c2C)c1C (nonaromatic ring conformer: 70.42391802862166 kcal/mol)

>  <smiles>  (42) 
Cc1cccc(Cc2[nH]c(N3CCN(c4ccccc4)CC3)nc(=O)c2C)c1C

>  <score_type>  (42) 
oracle

>  <origin>  (42) 
adg

>  <m_score__min__energy>  (42) 
-9.8800000000000008

>  <m_primary>  (42) 
energy

$$$$
42:0
     RDKit          3D

 38 40  0  0  0  0  0  0  0  0999 V2000
   55.1910   26.7030   46.0040 O   0  0  0  0  0  0  0  0  0  0  0  0
   56.3040   26.2030   46.3200 C   0  0  0  0  0  0  0  0  0  0  0  0
   56.4180   24.7930   46.5510 N   0  0  0  0  0  0  0  0  0  0  0  0
   56.4360   23.7750   45.5400 C   0  0  0  0  0  0  0  0  0  0  0  0
   56.6140   22.4170   45.8510 C   0  0  0  0  0  0  0  0  0  0  0  0
   56.6570   21.4690   44.8290 C   0  0  0  0  0  0  0  0  0  0  0  0
   56.5350   21.8850   43.5010 C   0  0  0  0  0  0  0  0  0  0  0  0
   56.5710   21.0370   42.5690 O   0  0  0  0  0  0  0  0  0  0  0  0
   56.3840   23.2090   43.2130 N   0  0  0  0  0  0  0  0  0  0  0  0
   56.3420   24.1500   44.1950 C   0  0  0  0  0  0  0  0  0  0  0  0
   57.5120   27.0560   46.3880 C   0  0  0  0  0  0  0  0  0  0  0  0
   58.5110   26.7240   47.3230 C   0  0  0  0  0  0  0  0  0  0  0  0
   59.6810   27.4790   47.4150 C   0  0  0  0  0  0  0  0  0  0  0  0
   59.8730   28.5750   46.5780 C   0  0  0  0  0  0  0  0  0  0  0  0
   58.8890   28.9320   45.6560 C   0  0  0  0  0  0  0  0  0  0  0  0
   57.6930   28.1970   45.5570 C   0  0  0  0  0  0  0  0  0  0  0  0
   56.6380   28.6690   44.5760 C   0  0  0  0  0  0  0  0  0  0  0  0
   56.2510   30.0590   44.8340 N   0  0  0  0  0  0  0  0  0  0  0  0
   56.9330   31.1350   44.5620 C   0  0  0  0  0  0  0  0  0  0  0  0
   57.4100   31.4260   43.2670 C   0  0  0  0  0  0  0  0  0  0  0  0
   58.1450   32.5940   43.0530 C   0  0  0  0  0  0  0  0  0  0  0  0
   58.3980   33.4630   44.1140 C   0  0  0  0  0  0  0  0  0  0  0  0
   57.9090   33.1490   45.3830 C   0  0  0  0  0  0  0  0  0  0  0  0
   57.1950   32.0070   45.5740 N   0  0  0  0  0  0  0  0  0  0  0  0
   56.7194   22.1015   46.8995 H   0  0  0  0  0  0  0  0  0  0  0  0
   56.7859   20.4027   45.0666 H   0  0  0  0  0  0  0  0  0  0  0  0
   56.3010   23.5150   42.2170 H   0  0  0  0  0  0  0  0  0  0  0  0
   56.2335   25.2121   43.9300 H   0  0  0  0  0  0  0  0  0  0  0  0
   58.3676   25.8599   47.9884 H   0  0  0  0  0  0  0  0  0  0  0  0
   60.4530   27.2078   48.1501 H   0  0  0  0  0  0  0  0  0  0  0  0
   60.8021   29.1602   46.6439 H   0  0  0  0  0  0  0  0  0  0  0  0
   59.0499   29.7988   44.9981 H   0  0  0  0  0  0  0  0  0  0  0  0
   57.0395   28.5930   43.5547 H   0  0  0  0  0  0  0  0  0  0  0  0
   55.7473   28.0343   44.6937 H   0  0  0  0  0  0  0  0  0  0  0  0
   57.2049   30.7389   42.4328 H   0  0  0  0  0  0  0  0  0  0  0  0
   58.5244   32.8286   42.0475 H   0  0  0  0  0  0  0  0  0  0  0  0
   58.9760   34.3849   43.9527 H   0  0  0  0  0  0  0  0  0  0  0  0
   58.1011   33.8253   46.2290 H   0  0  0  0  0  0  0  0  0  0  0  0
  1  2  2  0
  2  3  1  0
  3  4  1  0
  4  5  1  0
  5  6  2  0
  6  7  1  0
  7  8  2  0
  7  9  1  0
  9 10  1  0
  2 11  1  0
 11 12  2  0
 12 13  1  0
 13 14  2  0
 14 15  1  0
 15 16  2  0
 16 17  1  0
 17 18  1  0
 18 19  2  3
 19 20  1  0
 20 21  2  0
 21 22  1  0
 22 23  2  0
 23 24  1  0
 10  4  2  0
 16 11  1  0
 24 19  1  0
  5 25  1  0
  6 26  1  0
  9 27  1  0
 10 28  1  0
 12 29  1  0
 13 30  1  0
 14 31  1  0
 15 32  1  0
 17 33  1  0
 17 34  1  0
 20 35  1  0
 21 36  1  0
 22 37  1  0
 23 38  1  0
M  CHG  2   3  -1  24  -1
M  END
>  <UniqueID>  (43) 
40

>  <SMILES>  (43) 
O=C([N-]c1ccc(=O)[nH]c1)c1ccccc1CN=c1cccc[n-]1

>  <Energy>  (43) 
52.10979880788299

>  <Genealogy>  (43) 
O=C([N-]c1ccc(=O)[nH]c1)c1ccccc1CN=c1cccc[n-]1 (protonated)
O=C([N-]c1ccc(=O)[nH]c1)c1ccccc1CN=c1cccc[n-]1 (3D coordinates assigned)
O=C([N-]c1ccc(=O)[nH]c1)c1ccccc1CN=c1cccc[n-]1 (optimized conformer: 52.10979880788299 kcal/mol)

>  <smiles>  (43) 
O=C(Nc1ccc(=O)[nH]c1)c1ccccc1CN=c1cccc[nH]1

>  <score_type>  (43) 
oracle

>  <origin>  (43) 
adg

>  <m_score__min__energy>  (43) 
-11.76

>  <m_primary>  (43) 
energy

$$$$
43:0
     RDKit          3D

 76 81  0  0  1  0  0  0  0  0999 V2000
   63.1140   33.4400   47.2530 C   0  0  0  0  0  0  0  0  0  0  0  0
   61.9180   34.0660   47.9260 C   0  0  0  0  0  0  0  0  0  0  0  0
   60.6670   33.6060   47.3750 N   0  0  0  0  0  0  0  0  0  0  0  0
   59.5280   33.8420   48.2070 C   0  0  0  0  0  0  0  0  0  0  0  0
   58.2090   33.5000   47.5060 C   0  0  0  0  0  0  0  0  0  0  0  0
   58.5790   32.7460   46.3350 N   0  0  0  0  0  0  0  0  0  0  0  0
   58.2410   31.4010   46.0750 C   0  0  0  0  0  0  0  0  0  0  0  0
   57.2960   31.1620   45.1590 N   0  0  0  0  0  0  0  0  0  0  0  0
   56.8560   29.9350   44.8310 C   0  0  0  0  0  0  0  0  0  0  0  0
   57.4230   28.8560   45.4920 C   0  0  0  0  0  0  0  0  0  0  0  0
   57.0000   27.6320   45.2000 N   0  0  0  0  0  0  0  0  0  0  0  0
   57.5230   26.5730   45.8330 C   0  0  0  0  0  0  0  0  0  0  0  0
   57.1410   25.2290   45.5910 N   0  0  0  0  0  0  0  0  0  0  0  0
   56.1550   24.5100   46.3600 C   0  0  0  0  0  0  0  0  0  0  0  0
   55.1720   23.9060   45.3520 C   0  0  0  0  0  0  0  0  0  0  0  0
   55.8800   23.0700   44.4710 O   0  0  0  0  0  0  0  0  0  0  0  0
   56.6400   23.8900   43.6520 C   0  0  0  0  0  0  0  0  0  0  0  0
   57.7610   24.4760   44.4890 C   0  0  0  0  0  0  0  0  0  0  0  0
   58.4790   26.8120   46.7630 N   0  0  0  0  0  0  0  0  0  0  0  0
   55.8580   30.6050   52.4540 C   0  0  0  0  0  0  0  0  0  0  0  0
   56.9600   31.2720   52.4000 N   0  0  0  0  0  0  0  0  0  0  0  0
   59.5790   28.7220   49.2740 C   0  0  0  0  0  0  0  0  0  0  0  0
   58.7390   29.7830   49.5200 C   0  0  0  0  0  0  0  0  0  0  0  0
   58.5770   30.2060   50.8220 C   0  0  0  0  0  0  0  0  0  0  0  0
   57.7040   31.3320   51.1650 C   0  0  0  0  0  0  0  0  0  0  0  0
   57.5960   32.3330   50.4140 O   0  0  0  0  0  0  0  0  0  0  0  0
   59.8370   28.1740   47.9900 N   0  0  0  0  0  0  0  0  0  0  0  0
   58.9350   28.0210   47.0890 C   0  0  0  0  0  0  0  0  0  0  0  0
   54.8160   30.7620   51.5670 C   0  0  0  0  0  0  0  0  0  0  0  0
   53.6750   30.0050   51.7030 C   0  0  0  0  0  0  0  0  0  0  0  0
   52.5890   30.1780   50.7630 C   0  0  0  0  0  0  0  0  0  0  0  0
   51.7190   30.3050   49.9970 N   0  0  0  0  0  0  0  0  0  0  0  0
   53.5140   29.0690   52.7110 C   0  0  0  0  0  0  0  0  0  0  0  0
   54.5980   28.9440   53.5860 C   0  0  0  0  0  0  0  0  0  0  0  0
   55.7120   29.6900   53.4460 N   0  0  0  0  0  0  0  0  0  0  0  0
   59.2580   29.5620   51.8640 C   0  0  0  0  0  0  0  0  0  0  0  0
   60.1040   28.4960   51.6350 C   0  0  0  0  0  0  0  0  0  0  0  0
   60.2540   28.0850   50.3280 C   0  0  0  0  0  0  0  0  0  0  0  0
   61.1680   26.9230   50.0580 C   0  0  0  0  0  0  0  0  0  0  0  0
   58.3950   29.1060   46.4350 C   0  0  0  0  0  0  0  0  0  0  0  0
   58.7970   30.3560   46.7210 N   0  0  0  0  0  0  0  0  0  0  0  0
   59.3790   33.4730   45.3300 C   0  0  0  0  0  0  0  0  0  0  0  0
   60.5440   34.1310   46.0280 C   0  0  0  0  0  0  0  0  0  0  0  0
   63.8147   33.0732   48.0175 H   0  0  0  0  0  0  0  0  0  0  0  0
   62.7833   32.5994   46.6253 H   0  0  0  0  0  0  0  0  0  0  0  0
   63.6162   34.1908   46.6253 H   0  0  0  0  0  0  0  0  0  0  0  0
   61.9448   33.8149   48.9966 H   0  0  0  0  0  0  0  0  0  0  0  0
   61.9745   35.1523   47.7622 H   0  0  0  0  0  0  0  0  0  0  0  0
   59.6176   33.2229   49.1118 H   0  0  0  0  0  0  0  0  0  0  0  0
   59.5087   34.9143   48.4513 H   0  0  0  0  0  0  0  0  0  0  0  0
   57.5686   32.8960   48.1656 H   0  0  0  0  0  0  0  0  0  0  0  0
   57.6390   34.4041   47.2457 H   0  0  0  0  0  0  0  0  0  0  0  0
   56.0766   29.7924   44.0680 H   0  0  0  0  0  0  0  0  0  0  0  0
   56.2610   27.4920   44.4790 H   0  0  0  0  0  0  0  0  0  0  0  0
   56.6369   23.7129   46.9451 H   0  0  0  0  0  0  0  0  0  0  0  0
   55.6397   25.1761   47.0676 H   0  0  0  0  0  0  0  0  0  0  0  0
   54.4098   23.3192   45.8856 H   0  0  0  0  0  0  0  0  0  0  0  0
   54.6769   24.7093   44.7868 H   0  0  0  0  0  0  0  0  0  0  0  0
   57.0608   23.3029   42.8224 H   0  0  0  0  0  0  0  0  0  0  0  0
   56.0174   24.6927   43.2300 H   0  0  0  0  0  0  0  0  0  0  0  0
   58.3902   23.6689   44.8925 H   0  0  0  0  0  0  0  0  0  0  0  0
   58.3974   25.1340   43.8792 H   0  0  0  0  0  0  0  0  0  0  0  0
   58.2083   30.2828   48.6962 H   0  0  0  0  0  0  0  0  0  0  0  0
   54.8960   31.4932   50.7491 H   0  0  0  0  0  0  0  0  0  0  0  0
   52.5993   28.4671   52.8159 H   0  0  0  0  0  0  0  0  0  0  0  0
   54.5399   28.2178   54.4101 H   0  0  0  0  0  0  0  0  0  0  0  0
   56.5010   29.5550   54.1360 H   0  0  0  0  0  0  0  0  0  0  0  0
   59.1139   29.9168   52.8952 H   0  0  0  0  0  0  0  0  0  0  0  0
   60.6349   27.9966   52.4588 H   0  0  0  0  0  0  0  0  0  0  0  0
   61.5062   26.4930   51.0123 H   0  0  0  0  0  0  0  0  0  0  0  0
   60.6275   26.1574   49.4820 H   0  0  0  0  0  0  0  0  0  0  0  0
   62.0393   27.2680   49.4820 H   0  0  0  0  0  0  0  0  0  0  0  0
   59.7510   32.7682   44.5718 H   0  0  0  0  0  0  0  0  0  0  0  0
   58.7587   34.2342   44.8342 H   0  0  0  0  0  0  0  0  0  0  0  0
   61.4688   33.9248   45.4693 H   0  0  0  0  0  0  0  0  0  0  0  0
   60.3748   35.2169   46.0743 H   0  0  0  0  0  0  0  0  0  0  0  0
  1  2  1  0
  2  3  1  0
  3  4  1  0
  4  5  1  0
  5  6  1  0
  6  7  1  0
  7  8  2  0
  8  9  1  0
  9 10  2  0
 10 11  1  0
 11 12  1  0
 12 13  1  0
 13 14  1  0
 14 15  1  0
 15 16  1  0
 16 17  1  0
 17 18  1  0
 12 19  2  0
 19 20  1  0
 20 21  2  0
 21 22  1  0
 22 23  2  0
 23 24  1  0
 24 25  1  0
 25 26  2  0
 25 27  1  0
 27 28  2  0
 28 29  1  0
 29 30  2  0
 30 31  1  0
 31 32  3  0
 30 33  1  0
 33 34  2  0
 34 35  1  0
 24 36  2  0
 36 37  1  0
 37 38  2  0
 38 39  1  0
 20 40  1  0
 40 41  2  0
  6 42  1  0
 42 43  1  0
 43  3  1  0
 41  7  1  0
 40 10  1  0
 18 13  1  0
 38 22  1  0
 35 28  1  0
  1 44  1  0
  1 45  1  0
  1 46  1  0
  2 47  1  0
  2 48  1  0
  4 49  1  0
  4 50  1  0
  5 51  1  0
  5 52  1  0
  9 53  1  0
 11 54  1  0
 14 55  1  0
 14 56  1  0
 15 57  1  0
 15 58  1  0
 17 59  1  0
 17 60  1  0
 18 61  1  0
 18 62  1  0
 23 63  1  0
 29 64  1  0
 33 65  1  0
 34 66  1  0
 35 67  1  0
 36 68  1  0
 37 69  1  0
 39 70  1  0
 39 71  1  0
 39 72  1  0
 42 73  1  0
 42 74  1  0
 43 75  1  0
 43 76  1  0
M  END
>  <smiles>  (44) 
CCN1CCN(c2ncc3[nH]c(N4CCOCC4)nc(=Nc4cc(C(=O)N=c5cc(C#N)cc[nH]5)ccc4C)c3n2)CC1

>  <score_type>  (44) 
oracle

>  <origin>  (44) 
adg

>  <m_score__min__energy>  (44) 
-11.039999999999999

>  <m_primary>  (44) 
energy

$$$$
44:0
     RDKit          3D

 32 33  0  0  0  0  0  0  0  0999 V2000
   57.9400   29.0890   46.8050 O   0  0  0  0  0  0  0  0  0  0  0  0
   57.4390   29.0610   45.6480 C   0  0  0  0  0  0  0  0  0  0  0  0
   56.7770   27.8680   45.1950 N   0  0  0  0  0  0  0  0  0  0  0  0
   56.5100   26.7430   46.0880 C   0  0  0  0  0  0  0  0  0  0  0  0
   55.1080   26.3390   46.0010 N   0  0  0  0  0  0  0  0  0  0  0  0
   54.6530   25.0510   45.5700 C   0  0  0  0  0  0  0  0  0  0  0  0
   53.4260   24.7800   45.6410 O   0  0  0  0  0  0  0  0  0  0  0  0
   55.5770   24.0520   45.0080 C   0  0  0  0  0  0  0  0  0  0  0  0
   55.5060   23.7550   43.6390 C   0  0  0  0  0  0  0  0  0  0  0  0
   56.3840   22.8260   43.0730 C   0  0  0  0  0  0  0  0  0  0  0  0
   57.3310   22.1820   43.8720 C   0  0  0  0  0  0  0  0  0  0  0  0
   57.3950   22.4580   45.2400 C   0  0  0  0  0  0  0  0  0  0  0  0
   56.5200   23.3860   45.8170 C   0  0  0  0  0  0  0  0  0  0  0  0
   56.6090   23.6720   47.7110 Br  0  0  0  0  0  0  0  0  0  0  0  0
   57.5540   30.2590   44.7780 C   0  0  0  0  0  0  0  0  0  0  0  0
   58.0430   31.4680   45.3100 C   0  0  0  0  0  0  0  0  0  0  0  0
   58.1470   32.6080   44.5070 C   0  0  0  0  0  0  0  0  0  0  0  0
   57.7580   32.5590   43.1670 C   0  0  0  0  0  0  0  0  0  0  0  0
   57.2630   31.3700   42.6270 C   0  0  0  0  0  0  0  0  0  0  0  0
   57.1600   30.2260   43.4250 C   0  0  0  0  0  0  0  0  0  0  0  0
   56.5280   27.7540   44.1890 H   0  0  0  0  0  0  0  0  0  0  0  0
   57.1491   25.8947   45.8019 H   0  0  0  0  0  0  0  0  0  0  0  0
   56.7269   27.0511   47.1214 H   0  0  0  0  0  0  0  0  0  0  0  0
   54.7564   24.2551   43.0082 H   0  0  0  0  0  0  0  0  0  0  0  0
   56.3288   22.6021   41.9974 H   0  0  0  0  0  0  0  0  0  0  0  0
   58.0268   21.4572   43.4242 H   0  0  0  0  0  0  0  0  0  0  0  0
   58.1374   21.9431   45.8675 H   0  0  0  0  0  0  0  0  0  0  0  0
   58.3457   31.5158   46.3664 H   0  0  0  0  0  0  0  0  0  0  0  0
   58.5360   33.5451   44.9318 H   0  0  0  0  0  0  0  0  0  0  0  0
   57.8414   33.4567   42.5368 H   0  0  0  0  0  0  0  0  0  0  0  0
   56.9535   31.3332   41.5721 H   0  0  0  0  0  0  0  0  0  0  0  0
   56.7684   29.2931   42.9933 H   0  0  0  0  0  0  0  0  0  0  0  0
  1  2  2  0
  2  3  1  0
  3  4  1  0
  4  5  1  0
  5  6  1  0
  6  7  2  0
  6  8  1  0
  8  9  2  0
  9 10  1  0
 10 11  2  0
 11 12  1  0
 12 13  2  0
 13 14  1  0
  2 15  1  0
 15 16  2  0
 16 17  1  0
 17 18  2  0
 18 19  1  0
 19 20  2  0
 13  8  1  0
 20 15  1  0
  3 21  1  0
  4 22  1  0
  4 23  1  0
  9 24  1  0
 10 25  1  0
 11 26  1  0
 12 27  1  0
 16 28  1  0
 17 29  1  0
 18 30  1  0
 19 31  1  0
 20 32  1  0
M  CHG  1   5  -1
M  END
>  <UniqueID>  (45) 
41

>  <SMILES>  (45) 
O=C(NC[N-]C(=O)c1ccccc1Br)c1ccccc1

>  <Energy>  (45) 
37.328203138443

>  <Genealogy>  (45) 
O=C(NC[N-]C(=O)c1ccccc1Br)c1ccccc1 (protonated)
O=C(NC[N-]C(=O)c1ccccc1Br)c1ccccc1 (3D coordinates assigned)
O=C(NC[N-]C(=O)c1ccccc1Br)c1ccccc1 (optimized conformer: 37.328203138443 kcal/mol)

>  <smiles>  (45) 
O=C(NCNC(=O)c1ccccc1Br)c1ccccc1

>  <score_type>  (45) 
oracle

>  <origin>  (45) 
adg

>  <m_score__min__energy>  (45) 
-9.7300000000000004

>  <m_primary>  (45) 
energy

$$$$
45:0
     RDKit          3D

 40 41  0  0  0  0  0  0  0  0999 V2000
   61.7868   30.0311   46.6840 H   0  0  0  0  0  0  0  0  0  0  0  0
   60.7480   29.9940   46.3240 C   0  0  0  0  0  0  0  0  0  0  0  0
   60.3740   28.9050   45.6310 C   0  0  0  0  0  0  0  0  0  0  0  0
   61.1093   28.4712   44.9374 H   0  0  0  0  0  0  0  0  0  0  0  0
   59.0540   28.2410   45.7240 C   0  0  0  0  0  0  0  0  0  0  0  0
   57.9200   28.9120   45.2580 C   0  0  0  0  0  0  0  0  0  0  0  0
   58.0263   29.9156   44.8204 H   0  0  0  0  0  0  0  0  0  0  0  0
   56.6430   28.3230   45.3400 C   0  0  0  0  0  0  0  0  0  0  0  0
   55.5080   28.9970   44.8580 O   0  0  0  0  0  0  0  0  0  0  0  0
   55.5130   29.9610   43.8100 C   0  0  0  0  0  0  0  0  0  0  0  0
   55.5182   30.9725   44.2423 H   0  0  0  0  0  0  0  0  0  0  0  0
   56.4104   29.8229   43.1891 H   0  0  0  0  0  0  0  0  0  0  0  0
   54.6142   29.8323   43.1891 H   0  0  0  0  0  0  0  0  0  0  0  0
   56.5100   27.0350   45.9190 C   0  0  0  0  0  0  0  0  0  0  0  0
   55.2830   26.3530   46.0380 O   0  0  0  0  0  0  0  0  0  0  0  0
   55.0040   25.0250   45.6050 C   0  0  0  0  0  0  0  0  0  0  0  0
   54.8674   24.3746   46.4816 H   0  0  0  0  0  0  0  0  0  0  0  0
   54.0856   25.0221   44.9995 H   0  0  0  0  0  0  0  0  0  0  0  0
   55.8435   24.6527   44.9995 H   0  0  0  0  0  0  0  0  0  0  0  0
   57.6470   26.3750   46.4140 C   0  0  0  0  0  0  0  0  0  0  0  0
   57.4810   25.1000   46.9810 O   0  0  0  0  0  0  0  0  0  0  0  0
   57.9180   23.8840   46.3790 C   0  0  0  0  0  0  0  0  0  0  0  0
   58.1785   23.1591   47.1642 H   0  0  0  0  0  0  0  0  0  0  0  0
   57.1111   23.4735   45.7541 H   0  0  0  0  0  0  0  0  0  0  0  0
   58.8016   24.0811   45.7541 H   0  0  0  0  0  0  0  0  0  0  0  0
   58.9070   26.9890   46.3330 C   0  0  0  0  0  0  0  0  0  0  0  0
   59.7879   26.4810   46.7524 H   0  0  0  0  0  0  0  0  0  0  0  0
   59.8790   31.1450   46.6420 C   0  0  0  0  0  0  0  0  0  0  0  0
   59.1120   31.6790   45.6530 N   0  0  0  0  0  0  0  0  0  0  0  0
   58.2990   32.7500   45.8630 C   0  0  0  0  0  0  0  0  0  0  0  0
   57.4620   33.2820   44.7440 C   0  0  0  0  0  0  0  0  0  0  0  0
   56.6017   33.8288   45.1575 H   0  0  0  0  0  0  0  0  0  0  0  0
   58.0660   33.9623   44.1257 H   0  0  0  0  0  0  0  0  0  0  0  0
   57.1025   32.4463   44.1257 H   0  0  0  0  0  0  0  0  0  0  0  0
   58.2410   33.3380   47.1320 C   0  0  0  0  0  0  0  0  0  0  0  0
   57.5743   34.1929   47.3182 H   0  0  0  0  0  0  0  0  0  0  0  0
   59.0370   32.8290   48.1580 C   0  0  0  0  0  0  0  0  0  0  0  0
   59.0086   33.2894   49.1566 H   0  0  0  0  0  0  0  0  0  0  0  0
   59.8690   31.7360   47.9170 C   0  0  0  0  0  0  0  0  0  0  0  0
   60.5114   31.3402   48.7174 H   0  0  0  0  0  0  0  0  0  0  0  0
  1  2  1  0
  2  3  2  0
  3  4  1  0
  3  5  1  0
  5  6  2  0
  6  7  1  0
  6  8  1  0
  8  9  1  0
  9 10  1  0
 10 11  1  0
 10 12  1  0
 10 13  1  0
  8 14  2  0
 14 15  1  0
 15 16  1  0
 16 17  1  0
 16 18  1  0
 16 19  1  0
 14 20  1  0
 20 21  1  0
 21 22  1  0
 22 23  1  0
 22 24  1  0
 22 25  1  0
 20 26  2  0
 26 27  1  0
  2 28  1  0
 28 29  2  0
 29 30  1  0
 30 31  1  0
 31 32  1  0
 31 33  1  0
 31 34  1  0
 30 35  2  0
 35 36  1  0
 35 37  1  0
 37 38  1  0
 37 39  2  0
 39 40  1  0
 26  5  1  0
 39 28  1  0
M  END
>  <UniqueID>  (46) 
42

>  <SMILES>  (46) 
COc1cc(/C=C\c2cccc(C)n2)cc(OC)c1OC

>  <Energy>  (46) 
49.61165289610806

>  <Genealogy>  (46) 
COc1cc(/C=C\c2cccc(C)n2)cc(OC)c1OC (cis-trans isomerization)
COc1cc(/C=C\c2cccc(C)n2)cc(OC)c1OC (3D coordinates assigned)
COc1cc(/C=C\c2cccc(C)n2)cc(OC)c1OC (optimized conformer: 49.61165289610806 kcal/mol)

>  <smiles>  (46) 
COc1cc(C=Cc2cccc(C)n2)cc(OC)c1OC

>  <score_type>  (46) 
oracle

>  <origin>  (46) 
adg

>  <m_score__min__energy>  (46) 
-7.0499999999999998

>  <m_primary>  (46) 
energy

$$$$
46:0
     RDKit          3D

 69 73  0  0  0  0  0  0  0  0999 V2000
   55.2780   29.9340   44.4360 O   0  0  0  0  0  0  0  0  0  0  0  0
   56.1640   29.2370   45.0050 C   0  0  0  0  0  0  0  0  0  0  0  0
   55.9350   27.8490   45.2530 N   0  0  0  0  0  0  0  0  0  0  0  0
   56.6050   27.0720   46.2890 C   0  0  0  0  0  0  0  0  0  0  0  0
   57.3660   25.8840   45.7280 C   0  0  0  0  0  0  0  0  0  0  0  0
   56.8500   25.2420   44.5870 C   0  0  0  0  0  0  0  0  0  0  0  0
   57.3820   24.0270   44.1470 C   0  0  0  0  0  0  0  0  0  0  0  0
   58.4140   23.4170   44.8570 C   0  0  0  0  0  0  0  0  0  0  0  0
   58.9380   24.0340   45.9930 C   0  0  0  0  0  0  0  0  0  0  0  0
   58.4460   25.2770   46.4200 C   0  0  0  0  0  0  0  0  0  0  0  0
   59.2360   26.0760   47.8270 S   0  0  0  0  0  0  0  0  0  0  0  0
   59.7820   27.5400   46.9110 C   0  0  0  0  0  0  0  0  0  0  0  0
   59.9790   27.4150   45.5250 C   0  0  0  0  0  0  0  0  0  0  0  0
   60.4720   28.4770   44.7720 C   0  0  0  0  0  0  0  0  0  0  0  0
   60.7640   29.6890   45.3900 C   0  0  0  0  0  0  0  0  0  0  0  0
   60.5580   29.8450   46.7600 C   0  0  0  0  0  0  0  0  0  0  0  0
   60.0550   28.7870   47.5470 C   0  0  0  0  0  0  0  0  0  0  0  0
   59.7460   29.0720   48.9790 C   0  0  0  0  0  0  0  0  0  0  0  0
   58.5440   29.1310   49.3570 O   0  0  0  0  0  0  0  0  0  0  0  0
   60.7840   29.2090   49.9540 N   0  0  0  0  0  0  0  0  0  0  0  0
   61.3480   30.4890   50.3650 C   0  0  0  0  0  0  0  0  0  0  0  0
   61.3160   31.4910   49.1970 C   0  0  0  0  0  0  0  0  0  0  0  0
   61.9230   32.8000   49.5460 N   0  0  0  0  0  0  0  0  0  0  0  0
   63.3250   32.6490   50.0130 C   0  0  0  0  0  0  0  0  0  0  0  0
   64.3720   32.8880   48.9010 C   0  0  0  0  0  0  0  0  0  0  0  0
   63.8100   32.5560   47.5910 N   0  0  0  0  0  0  0  0  0  0  0  0
   62.6930   33.4510   47.2470 C   0  0  0  0  0  0  0  0  0  0  0  0
   61.8300   33.8160   48.4740 C   0  0  0  0  0  0  0  0  0  0  0  0
   57.4320   29.8060   45.3510 N   0  0  0  0  0  0  0  0  0  0  0  0
   57.8040   31.1360   44.9680 C   0  0  0  0  0  0  0  0  0  0  0  0
   57.8480   31.4530   43.6040 C   0  0  0  0  0  0  0  0  0  0  0  0
   58.1570   32.7480   43.1840 C   0  0  0  0  0  0  0  0  0  0  0  0
   58.4470   33.7400   44.1200 C   0  0  0  0  0  0  0  0  0  0  0  0
   58.4520   33.4360   45.4900 C   0  0  0  0  0  0  0  0  0  0  0  0
   58.7760   34.4170   46.4380 C   0  0  0  0  0  0  0  0  0  0  0  0
   58.8180   34.1010   47.7590 N   0  0  0  0  0  0  0  0  0  0  0  0
   58.5480   32.8450   48.2050 C   0  0  0  0  0  0  0  0  0  0  0  0
   58.2090   31.8350   47.3020 C   0  0  0  0  0  0  0  0  0  0  0  0
   58.1420   32.1230   45.9260 C   0  0  0  0  0  0  0  0  0  0  0  0
   57.3137   27.7266   46.8174 H   0  0  0  0  0  0  0  0  0  0  0  0
   55.8307   26.6819   46.9659 H   0  0  0  0  0  0  0  0  0  0  0  0
   56.0175   25.7023   44.0346 H   0  0  0  0  0  0  0  0  0  0  0  0
   56.9851   23.5512   43.2381 H   0  0  0  0  0  0  0  0  0  0  0  0
   58.8154   22.4492   44.5219 H   0  0  0  0  0  0  0  0  0  0  0  0
   59.7432   23.5424   46.5586 H   0  0  0  0  0  0  0  0  0  0  0  0
   59.7400   26.4634   45.0277 H   0  0  0  0  0  0  0  0  0  0  0  0
   60.6305   28.3582   43.6900 H   0  0  0  0  0  0  0  0  0  0  0  0
   61.1585   30.5265   44.7959 H   0  0  0  0  0  0  0  0  0  0  0  0
   60.7915   30.8090   47.2356 H   0  0  0  0  0  0  0  0  0  0  0  0
   60.7604   30.8912   51.2034 H   0  0  0  0  0  0  0  0  0  0  0  0
   62.3925   30.3353   50.6739 H   0  0  0  0  0  0  0  0  0  0  0  0
   61.8704   31.0611   48.3497 H   0  0  0  0  0  0  0  0  0  0  0  0
   60.2608   31.6718   48.9442 H   0  0  0  0  0  0  0  0  0  0  0  0
   63.5032   33.3736   50.8212 H   0  0  0  0  0  0  0  0  0  0  0  0
   63.4438   31.6095   50.3527 H   0  0  0  0  0  0  0  0  0  0  0  0
   64.6736   33.9458   48.9085 H   0  0  0  0  0  0  0  0  0  0  0  0
   65.2445   32.2448   49.0883 H   0  0  0  0  0  0  0  0  0  0  0  0
   64.5640   32.6810   46.8740 H   0  0  0  0  0  0  0  0  0  0  0  0
   63.1022   34.3764   46.8154 H   0  0  0  0  0  0  0  0  0  0  0  0
   62.0484   32.9215   46.5300 H   0  0  0  0  0  0  0  0  0  0  0  0
   62.1714   34.7830   48.8720 H   0  0  0  0  0  0  0  0  0  0  0  0
   60.7812   33.8654   48.1461 H   0  0  0  0  0  0  0  0  0  0  0  0
   58.1850   29.1580   45.6760 H   0  0  0  0  0  0  0  0  0  0  0  0
   57.6370   30.6739   42.8567 H   0  0  0  0  0  0  0  0  0  0  0  0
   58.1718   32.9868   42.1103 H   0  0  0  0  0  0  0  0  0  0  0  0
   58.6723   34.7629   43.7839 H   0  0  0  0  0  0  0  0  0  0  0  0
   58.9966   35.4441   46.1119 H   0  0  0  0  0  0  0  0  0  0  0  0
   58.5968   32.6237   49.2814 H   0  0  0  0  0  0  0  0  0  0  0  0
   57.9953   30.8187   47.6647 H   0  0  0  0  0  0  0  0  0  0  0  0
  1  2  2  0
  2  3  1  0
  3  4  1  0
  4  5  1  0
  5  6  2  0
  6  7  1  0
  7  8  2  0
  8  9  1  0
  9 10  2  0
 10 11  1  0
 11 12  1  0
 12 13  2  0
 13 14  1  0
 14 15  2  0
 15 16  1  0
 16 17  2  0
 17 18  1  0
 18 19  2  0
 18 20  1  0
 20 21  1  0
 21 22  1  0
 22 23  1  0
 23 24  1  0
 24 25  1  0
 25 26  1  0
 26 27  1  0
 27 28  1  0
  2 29  1  0
 29 30  1  0
 30 31  2  0
 31 32  1  0
 32 33  2  0
 33 34  1  0
 34 35  2  0
 35 36  1  0
 36 37  2  0
 37 38  1  0
 38 39  2  0
 10  5  1  0
 17 12  1  0
 28 23  1  0
 39 30  1  0
 39 34  1  0
  4 40  1  0
  4 41  1  0
  6 42  1  0
  7 43  1  0
  8 44  1  0
  9 45  1  0
 13 46  1  0
 14 47  1  0
 15 48  1  0
 16 49  1  0
 21 50  1  0
 21 51  1  0
 22 52  1  0
 22 53  1  0
 24 54  1  0
 24 55  1  0
 25 56  1  0
 25 57  1  0
 26 58  1  0
 27 59  1  0
 27 60  1  0
 28 61  1  0
 28 62  1  0
 29 63  1  0
 31 64  1  0
 32 65  1  0
 33 66  1  0
 35 67  1  0
 37 68  1  0
 38 69  1  0
M  CHG  2   3  -1  20  -1
M  END
>  <UniqueID>  (47) 
43

>  <SMILES>  (47) 
O=C([N-]Cc1ccccc1Sc1ccccc1C(=O)[N-]CCN1CCNCC1)Nc1cccc2cnccc12

>  <Energy>  (47) 
98.596989480691

>  <Genealogy>  (47) 
O=C([N-]Cc1ccccc1Sc1ccccc1C(=O)[N-]CCN1CCNCC1)Nc1cccc2cnccc12 (protonated)
O=C([N-]Cc1ccccc1Sc1ccccc1C(=O)[N-]CCN1CCNCC1)Nc1cccc2cnccc12 (3D coordinates assigned)
O=C([N-]Cc1ccccc1Sc1ccccc1C(=O)[N-]CCN1CCNCC1)Nc1cccc2cnccc12 (nonaromatic ring conformer: 98.596989480691 kcal/mol)

>  <smiles>  (47) 
O=C(NCc1ccccc1Sc1ccccc1C(=O)NCCN1CCNCC1)Nc1cccc2cnccc12

>  <score_type>  (47) 
oracle

>  <origin>  (47) 
adg

>  <m_score__min__energy>  (47) 
-12.630000000000001

>  <m_primary>  (47) 
energy

$$$$
47:0
     RDKit          3D

 35 37  0  0  0  0  0  0  0  0999 V2000
   60.3490   27.6510   48.2960 C   0  0  0  0  0  0  0  0  0  0  0  0
   60.5510   28.6870   47.3390 O   0  0  0  0  0  0  0  0  0  0  0  0
   59.7500   29.8330   47.2330 C   0  0  0  0  0  0  0  0  0  0  0  0
   59.8190   30.8660   48.1850 C   0  0  0  0  0  0  0  0  0  0  0  0
   58.9720   31.9880   48.0970 C   0  0  0  0  0  0  0  0  0  0  0  0
   58.9540   33.0030   49.0670 O   0  0  0  0  0  0  0  0  0  0  0  0
   59.8050   34.1510   49.0780 C   0  0  0  0  0  0  0  0  0  0  0  0
   61.1060   33.8650   48.3650 C   0  0  0  0  0  0  0  0  0  0  0  0
   62.1930   33.3380   49.0860 C   0  0  0  0  0  0  0  0  0  0  0  0
   63.4050   33.0560   48.4430 C   0  0  0  0  0  0  0  0  0  0  0  0
   63.5460   33.3070   47.0790 C   0  0  0  0  0  0  0  0  0  0  0  0
   62.4750   33.8340   46.3490 C   0  0  0  0  0  0  0  0  0  0  0  0
   61.2530   34.1060   46.9790 C   0  0  0  0  0  0  0  0  0  0  0  0
   59.9270   34.7400   46.0000 Cl  0  0  0  0  0  0  0  0  0  0  0  0
   58.0950   32.1030   47.0190 C   0  0  0  0  0  0  0  0  0  0  0  0
   58.0130   31.0890   46.0640 C   0  0  0  0  0  0  0  0  0  0  0  0
   57.1610   31.2110   45.0520 O   0  0  0  0  0  0  0  0  0  0  0  0
   57.0260   30.2800   44.1130 C   0  0  0  0  0  0  0  0  0  0  0  0
   56.2100   30.4580   43.1740 O   0  0  0  0  0  0  0  0  0  0  0  0
   57.7870   29.1090   44.1620 C   0  0  0  0  0  0  0  0  0  0  0  0
   58.6960   28.9390   45.2040 C   0  0  0  0  0  0  0  0  0  0  0  0
   58.8280   29.9400   46.1760 C   0  0  0  0  0  0  0  0  0  0  0  0
   60.4303   28.0681   49.3106 H   0  0  0  0  0  0  0  0  0  0  0  0
   59.3488   27.2144   48.1581 H   0  0  0  0  0  0  0  0  0  0  0  0
   61.1119   26.8706   48.1581 H   0  0  0  0  0  0  0  0  0  0  0  0
   60.5441   30.7968   49.0093 H   0  0  0  0  0  0  0  0  0  0  0  0
   59.2931   34.9835   48.5731 H   0  0  0  0  0  0  0  0  0  0  0  0
   60.0273   34.4135   50.1228 H   0  0  0  0  0  0  0  0  0  0  0  0
   62.0902   33.1457   50.1642 H   0  0  0  0  0  0  0  0  0  0  0  0
   64.2459   32.6363   49.0146 H   0  0  0  0  0  0  0  0  0  0  0  0
   64.5001   33.0905   46.5762 H   0  0  0  0  0  0  0  0  0  0  0  0
   62.5928   34.0360   45.2742 H   0  0  0  0  0  0  0  0  0  0  0  0
   57.4639   32.9986   46.9209 H   0  0  0  0  0  0  0  0  0  0  0  0
   57.6702   28.3339   43.3903 H   0  0  0  0  0  0  0  0  0  0  0  0
   59.3059   28.0255   45.2634 H   0  0  0  0  0  0  0  0  0  0  0  0
  1  2  1  0
  2  3  1  0
  3  4  2  0
  4  5  1  0
  5  6  1  0
  6  7  1  0
  7  8  1  0
  8  9  2  0
  9 10  1  0
 10 11  2  0
 11 12  1  0
 12 13  2  0
 13 14  1  0
  5 15  2  0
 15 16  1  0
 16 17  1  0
 17 18  1  0
 18 19  2  0
 18 20  1  0
 20 21  2  0
 21 22  1  0
 22  3  1  0
 13  8  1  0
 22 16  2  0
  1 23  1  0
  1 24  1  0
  1 25  1  0
  4 26  1  0
  7 27  1  0
  7 28  1  0
  9 29  1  0
 10 30  1  0
 11 31  1  0
 12 32  1  0
 15 33  1  0
 20 34  1  0
 21 35  1  0
M  END
>  <UniqueID>  (48) 
44

>  <SMILES>  (48) 
COc1cc(OCc2ccccc2Cl)cc2oc(=O)ccc12

>  <Energy>  (48) 
46.37745067686459

>  <Genealogy>  (48) 
COc1cc(OCc2ccccc2Cl)cc2oc(=O)ccc12 (3D coordinates assigned)
COc1cc(OCc2ccccc2Cl)cc2oc(=O)ccc12 (optimized conformer: 46.37745067686459 kcal/mol)

>  <smiles>  (48) 
COc1cc(OCc2ccccc2Cl)cc2oc(=O)ccc12

>  <score_type>  (48) 
oracle

>  <origin>  (48) 
adg

>  <m_score__min__energy>  (48) 
-7.4100000000000001

>  <m_primary>  (48) 
energy

$$$$
48:0
     RDKit          3D

 51 55  0  0  0  0  0  0  0  0999 V2000
   55.8030   25.9700   46.3310 O   0  0  0  0  0  0  0  0  0  0  0  0
   56.9230   25.5240   45.9680 C   0  0  0  0  0  0  0  0  0  0  0  0
   58.1100   26.1530   46.4760 N   0  0  0  0  0  0  0  0  0  0  0  0
   58.3650   27.5630   46.4680 C   0  0  0  0  0  0  0  0  0  0  0  0
   57.7160   28.3900   45.5290 C   0  0  0  0  0  0  0  0  0  0  0  0
   57.8200   29.8030   45.6140 C   0  0  0  0  0  0  0  0  0  0  0  0
   56.9290   30.8260   44.4940 S   0  0  0  0  0  0  0  0  0  0  0  0
   55.6110   30.1970   44.1390 O   0  0  0  0  0  0  0  0  0  0  0  0
   57.7420   31.0060   43.2440 O   0  0  0  0  0  0  0  0  0  0  0  0
   56.6340   32.3780   45.2110 N   0  0  0  0  0  0  0  0  0  0  0  0
   57.5820   33.1790   45.5870 C   0  0  0  0  0  0  0  0  0  0  0  0
   57.8260   33.5090   46.8750 N   0  0  0  0  0  0  0  0  0  0  0  0
   58.8830   34.3570   46.9760 C   0  0  0  0  0  0  0  0  0  0  0  0
   59.4770   34.7060   45.7690 C   0  0  0  0  0  0  0  0  0  0  0  0
   58.6510   33.9200   44.5290 S   0  0  0  0  0  0  0  0  0  0  0  0
   58.6000   30.3960   46.6280 C   0  0  0  0  0  0  0  0  0  0  0  0
   59.2630   29.5470   47.5090 C   0  0  0  0  0  0  0  0  0  0  0  0
   59.1710   28.1920   47.4240 C   0  0  0  0  0  0  0  0  0  0  0  0
   59.8990   27.6660   48.4260 N   0  0  0  0  0  0  0  0  0  0  0  0
   60.3930   28.6820   49.1250 N   0  0  0  0  0  0  0  0  0  0  0  0
   60.0220   29.8380   48.5820 N   0  0  0  0  0  0  0  0  0  0  0  0
   60.2400   31.1450   49.1930 C   0  0  0  0  0  0  0  0  0  0  0  0
   61.4480   31.8060   48.5800 C   0  0  0  0  0  0  0  0  0  0  0  0
   61.3750   32.3850   47.3020 C   0  0  0  0  0  0  0  0  0  0  0  0
   62.4950   33.0080   46.7450 C   0  0  0  0  0  0  0  0  0  0  0  0
   63.6930   33.0670   47.4610 C   0  0  0  0  0  0  0  0  0  0  0  0
   63.7770   32.4940   48.7340 C   0  0  0  0  0  0  0  0  0  0  0  0
   64.9400   32.5530   49.4280 F   0  0  0  0  0  0  0  0  0  0  0  0
   62.6610   31.8590   49.2890 C   0  0  0  0  0  0  0  0  0  0  0  0
   56.9810   24.3530   45.0560 C   0  0  0  0  0  0  0  0  0  0  0  0
   55.9350   24.0980   44.1490 C   0  0  0  0  0  0  0  0  0  0  0  0
   55.9690   22.9670   43.3290 C   0  0  0  0  0  0  0  0  0  0  0  0
   57.0520   22.0910   43.3880 C   0  0  0  0  0  0  0  0  0  0  0  0
   58.1100   22.3470   44.2640 C   0  0  0  0  0  0  0  0  0  0  0  0
   58.0820   23.4740   45.0920 C   0  0  0  0  0  0  0  0  0  0  0  0
   59.1080   23.6810   45.9560 F   0  0  0  0  0  0  0  0  0  0  0  0
   57.1227   27.9355   44.7219 H   0  0  0  0  0  0  0  0  0  0  0  0
   59.2423   34.7394   47.9428 H   0  0  0  0  0  0  0  0  0  0  0  0
   60.3380   35.3793   45.6448 H   0  0  0  0  0  0  0  0  0  0  0  0
   58.6814   31.4892   46.7193 H   0  0  0  0  0  0  0  0  0  0  0  0
   60.0590   26.6580   48.6480 H   0  0  0  0  0  0  0  0  0  0  0  0
   59.3552   31.7770   49.0265 H   0  0  0  0  0  0  0  0  0  0  0  0
   60.4083   31.0153   50.2723 H   0  0  0  0  0  0  0  0  0  0  0  0
   60.4318   32.3477   46.7372 H   0  0  0  0  0  0  0  0  0  0  0  0
   62.4331   33.4528   45.7408 H   0  0  0  0  0  0  0  0  0  0  0  0
   64.5710   33.5645   47.0232 H   0  0  0  0  0  0  0  0  0  0  0  0
   62.7328   31.3987   50.2855 H   0  0  0  0  0  0  0  0  0  0  0  0
   55.0853   24.7937   44.0853 H   0  0  0  0  0  0  0  0  0  0  0  0
   55.1391   22.7673   42.6351 H   0  0  0  0  0  0  0  0  0  0  0  0
   57.0735   21.1986   42.7452 H   0  0  0  0  0  0  0  0  0  0  0  0
   58.9680   21.6598   44.3026 H   0  0  0  0  0  0  0  0  0  0  0  0
  1  2  2  0
  2  3  1  0
  3  4  1  0
  4  5  2  0
  5  6  1  0
  6  7  1  0
  7  8  2  0
  7  9  2  0
  7 10  1  0
 10 11  2  3
 11 12  1  0
 12 13  1  0
 13 14  2  0
 14 15  1  0
  6 16  2  0
 16 17  1  0
 17 18  2  0
 18 19  1  0
 19 20  2  0
 20 21  1  0
 21 22  1  0
 22 23  1  0
 23 24  2  0
 24 25  1  0
 25 26  2  0
 26 27  1  0
 27 28  1  0
 27 29  2  0
  2 30  1  0
 30 31  2  0
 31 32  1  0
 32 33  2  0
 33 34  1  0
 34 35  2  0
 35 36  1  0
 18  4  1  0
 29 23  1  0
 35 30  1  0
 15 11  1  0
 21 17  1  0
  5 37  1  0
 13 38  1  0
 14 39  1  0
 16 40  1  0
 19 41  1  0
 22 42  1  0
 22 43  1  0
 24 44  1  0
 25 45  1  0
 26 46  1  0
 29 47  1  0
 31 48  1  0
 32 49  1  0
 33 50  1  0
 34 51  1  0
M  CHG  3   3  -1  12  -1  19   1
M  END
>  <UniqueID>  (49) 
45

>  <SMILES>  (49) 
O=C([N-]c1cc(S(=O)(=O)N=c2[n-]ccs2)cc2c1[nH+]nn2Cc1cccc(F)c1)c1ccccc1F

>  <Energy>  (49) 
137.6384915095782

>  <Genealogy>  (49) 
O=C([N-]c1cc(S(=O)(=O)N=c2[n-]ccs2)cc2c1[nH+]nn2Cc1cccc(F)c1)c1ccccc1F (protonated)
O=C([N-]c1cc(S(=O)(=O)N=c2[n-]ccs2)cc2c1[nH+]nn2Cc1cccc(F)c1)c1ccccc1F (3D coordinates assigned)
O=C([N-]c1cc(S(=O)(=O)N=c2[n-]ccs2)cc2c1[nH+]nn2Cc1cccc(F)c1)c1ccccc1F (optimized conformer: 137.6384915095782 kcal/mol)

>  <smiles>  (49) 
O=C(Nc1cc(S(=O)(=O)N=c2[nH]ccs2)cc2c1nnn2Cc1cccc(F)c1)c1ccccc1F

>  <score_type>  (49) 
oracle

>  <origin>  (49) 
adg

>  <m_score__min__energy>  (49) 
-11.93

>  <m_primary>  (49) 
energy

$$$$
49:0
     RDKit          3D

 36 38  0  0  0  0  0  0  0  0999 V2000
   55.2370   30.2560   44.3600 C   0  0  0  0  0  0  0  0  0  0  0  0
   56.2810   29.2630   44.7550 C   0  0  0  0  0  0  0  0  0  0  0  0
   55.9930   28.0370   45.2430 N   0  0  0  0  0  0  0  0  0  0  0  0
   57.1340   27.3820   45.4090 N   0  0  0  0  0  0  0  0  0  0  0  0
   57.2070   26.0280   45.8960 C   0  0  0  0  0  0  0  0  0  0  0  0
   58.1230   25.1070   45.3560 C   0  0  0  0  0  0  0  0  0  0  0  0
   58.1860   23.8000   45.8490 C   0  0  0  0  0  0  0  0  0  0  0  0
   57.3430   23.4000   46.8930 C   0  0  0  0  0  0  0  0  0  0  0  0
   57.3960   22.0990   47.3920 O   0  0  0  0  0  0  0  0  0  0  0  0
   56.4410   24.3140   47.4440 C   0  0  0  0  0  0  0  0  0  0  0  0
   56.3760   25.6210   46.9540 C   0  0  0  0  0  0  0  0  0  0  0  0
   58.1490   28.1730   45.0000 C   0  0  0  0  0  0  0  0  0  0  0  0
   59.3590   27.8260   44.9560 O   0  0  0  0  0  0  0  0  0  0  0  0
   57.6530   29.3900   44.5840 C   0  0  0  0  0  0  0  0  0  0  0  0
   58.4140   30.5210   43.9550 C   0  0  0  0  0  0  0  0  0  0  0  0
   58.2560   31.7780   44.7680 C   0  0  0  0  0  0  0  0  0  0  0  0
   58.1300   33.0250   44.1340 C   0  0  0  0  0  0  0  0  0  0  0  0
   58.0120   34.1920   44.8940 C   0  0  0  0  0  0  0  0  0  0  0  0
   58.0240   34.1240   46.2900 C   0  0  0  0  0  0  0  0  0  0  0  0
   58.1540   32.8870   46.9280 C   0  0  0  0  0  0  0  0  0  0  0  0
   58.2720   31.7180   46.1710 C   0  0  0  0  0  0  0  0  0  0  0  0
   54.7821   30.6887   45.2632 H   0  0  0  0  0  0  0  0  0  0  0  0
   55.6991   31.0560   43.7630 H   0  0  0  0  0  0  0  0  0  0  0  0
   54.4611   29.7544   43.7630 H   0  0  0  0  0  0  0  0  0  0  0  0
   58.7937   25.4168   44.5411 H   0  0  0  0  0  0  0  0  0  0  0  0
   58.8998   23.0841   45.4155 H   0  0  0  0  0  0  0  0  0  0  0  0
   58.1540   21.4710   47.1500 H   0  0  0  0  0  0  0  0  0  0  0  0
   55.7798   24.0035   48.2664 H   0  0  0  0  0  0  0  0  0  0  0  0
   55.6693   26.3366   47.3995 H   0  0  0  0  0  0  0  0  0  0  0  0
   59.4801   30.2552   43.9025 H   0  0  0  0  0  0  0  0  0  0  0  0
   58.0177   30.6983   42.9443 H   0  0  0  0  0  0  0  0  0  0  0  0
   58.1242   33.0833   43.0356 H   0  0  0  0  0  0  0  0  0  0  0  0
   57.9095   35.1657   44.3926 H   0  0  0  0  0  0  0  0  0  0  0  0
   57.9312   35.0436   46.8864 H   0  0  0  0  0  0  0  0  0  0  0  0
   58.1634   32.8336   48.0267 H   0  0  0  0  0  0  0  0  0  0  0  0
   58.3779   30.7467   46.6764 H   0  0  0  0  0  0  0  0  0  0  0  0
  1  2  1  0
  2  3  1  0
  3  4  1  0
  4  5  1  0
  5  6  2  0
  6  7  1  0
  7  8  2  0
  8  9  1  0
  8 10  1  0
 10 11  2  0
  4 12  1  0
 12 13  2  0
 12 14  1  0
 14 15  1  0
 15 16  1  0
 16 17  2  0
 17 18  1  0
 18 19  2  0
 19 20  1  0
 20 21  2  0
 14  2  2  0
 21 16  1  0
 11  5  1  0
  1 22  1  0
  1 23  1  0
  1 24  1  0
  6 25  1  0
  7 26  1  0
  9 27  1  0
 10 28  1  0
 11 29  1  0
 15 30  1  0
 15 31  1  0
 17 32  1  0
 18 33  1  0
 19 34  1  0
 20 35  1  0
 21 36  1  0
M  CHG  1   3  -1
M  END
>  <UniqueID>  (50) 
46

>  <SMILES>  (50) 
Cc1[n-]n(-c2ccc(O)cc2)c(=O)c1Cc1ccccc1

>  <Energy>  (50) 
71.51370174340325

>  <Genealogy>  (50) 
Cc1[n-]n(-c2ccc(O)cc2)c(=O)c1Cc1ccccc1 (protonated)
Cc1[n-]n(-c2ccc(O)cc2)c(=O)c1Cc1ccccc1 (3D coordinates assigned)
Cc1[n-]n(-c2ccc(O)cc2)c(=O)c1Cc1ccccc1 (optimized conformer: 71.51370174340325 kcal/mol)

>  <smiles>  (50) 
Cc1[nH]n(-c2ccc(O)cc2)c(=O)c1Cc1ccccc1

>  <score_type>  (50) 
oracle

>  <origin>  (50) 
adg

>  <m_score__min__energy>  (50) 
-8.8399999999999999

>  <m_primary>  (50) 
energy

$$$$
50:0
     RDKit          3D

 41 43  0  0  0  0  0  0  0  0999 V2000
   56.6360   23.2800   42.8670 N   0  0  0  0  0  0  0  0  0  0  0  0
   56.8800   24.4100   43.7040 C   0  0  0  0  0  0  0  0  0  0  0  0
   56.2790   24.4250   44.9500 C   0  0  0  0  0  0  0  0  0  0  0  0
   56.5030   25.5070   45.7710 C   0  0  0  0  0  0  0  0  0  0  0  0
   57.3140   26.5810   45.3820 C   0  0  0  0  0  0  0  0  0  0  0  0
   57.4630   27.6680   46.3740 C   0  0  0  0  0  0  0  0  0  0  0  0
   57.6470   29.0130   45.7850 C   0  0  0  0  0  0  0  0  0  0  0  0
   58.7980   29.7580   45.8900 C   0  0  0  0  0  0  0  0  0  0  0  0
   59.8820   29.2620   46.5980 O   0  0  0  0  0  0  0  0  0  0  0  0
   58.8660   30.9850   45.2950 N   0  0  0  0  0  0  0  0  0  0  0  0
   57.8820   31.5310   44.6060 C   0  0  0  0  0  0  0  0  0  0  0  0
   57.8800   33.1130   43.8330 S   0  0  0  0  0  0  0  0  0  0  0  0
   58.2850   34.5030   44.8710 C   0  0  0  0  0  0  0  0  0  0  0  0
   59.0300   34.1540   46.0970 C   0  0  0  0  0  0  0  0  0  0  0  0
   58.5020   33.8570   47.3130 C   0  0  0  0  0  0  0  0  0  0  0  0
   59.3210   33.5640   48.3940 C   0  0  0  0  0  0  0  0  0  0  0  0
   60.6730   33.5660   48.2580 C   0  0  0  0  0  0  0  0  0  0  0  0
   61.2520   33.8620   47.0380 C   0  0  0  0  0  0  0  0  0  0  0  0
   60.4200   34.1470   45.9920 C   0  0  0  0  0  0  0  0  0  0  0  0
   56.7300   30.7960   44.4930 N   0  0  0  0  0  0  0  0  0  0  0  0
   56.6140   29.6000   45.0540 C   0  0  0  0  0  0  0  0  0  0  0  0
   55.5290   28.9680   44.9180 O   0  0  0  0  0  0  0  0  0  0  0  0
   57.9080   26.5620   44.1440 C   0  0  0  0  0  0  0  0  0  0  0  0
   57.6880   25.4690   43.2990 C   0  0  0  0  0  0  0  0  0  0  0  0
   56.4210   22.3650   43.3300 H   0  0  0  0  0  0  0  0  0  0  0  0
   56.6620   23.3200   41.8280 H   0  0  0  0  0  0  0  0  0  0  0  0
   55.6380   23.5929   45.2766 H   0  0  0  0  0  0  0  0  0  0  0  0
   56.0302   25.5290   46.7640 H   0  0  0  0  0  0  0  0  0  0  0  0
   56.5593   27.6878   47.0009 H   0  0  0  0  0  0  0  0  0  0  0  0
   58.3769   27.4481   46.9453 H   0  0  0  0  0  0  0  0  0  0  0  0
   60.4610   28.5690   46.1310 H   0  0  0  0  0  0  0  0  0  0  0  0
   59.7500   31.4850   45.3980 H   0  0  0  0  0  0  0  0  0  0  0  0
   58.8976   35.2033   44.2842 H   0  0  0  0  0  0  0  0  0  0  0  0
   57.3294   34.9384   45.1984 H   0  0  0  0  0  0  0  0  0  0  0  0
   57.4097   33.8487   47.4424 H   0  0  0  0  0  0  0  0  0  0  0  0
   58.8718   33.3280   49.3699 H   0  0  0  0  0  0  0  0  0  0  0  0
   61.3102   33.3308   49.1233 H   0  0  0  0  0  0  0  0  0  0  0  0
   62.3449   33.8679   46.9135 H   0  0  0  0  0  0  0  0  0  0  0  0
   60.8705   34.3831   45.0167 H   0  0  0  0  0  0  0  0  0  0  0  0
   58.5487   27.3957   43.8208 H   0  0  0  0  0  0  0  0  0  0  0  0
   58.1581   25.4460   42.3048 H   0  0  0  0  0  0  0  0  0  0  0  0
  1  2  1  0
  2  3  2  0
  3  4  1  0
  4  5  2  0
  5  6  1  0
  6  7  1  0
  7  8  2  0
  8  9  1  0
  8 10  1  0
 10 11  1  0
 11 12  1  0
 12 13  1  0
 13 14  1  0
 14 15  2  0
 15 16  1  0
 16 17  2  0
 17 18  1  0
 18 19  2  0
 11 20  2  0
 20 21  1  0
 21 22  2  0
  5 23  1  0
 23 24  2  0
 24  2  1  0
 21  7  1  0
 19 14  1  0
  1 25  1  0
  1 26  1  0
  3 27  1  0
  4 28  1  0
  6 29  1  0
  6 30  1  0
  9 31  1  0
 10 32  1  0
 13 33  1  0
 13 34  1  0
 15 35  1  0
 16 36  1  0
 17 37  1  0
 18 38  1  0
 19 39  1  0
 23 40  1  0
 24 41  1  0
M  END
>  <smiles>  (51) 
Nc1ccc(Cc2c(O)[nH]c(SCc3ccccc3)nc2=O)cc1

>  <score_type>  (51) 
oracle

>  <origin>  (51) 
adg

>  <m_score__min__energy>  (51) 
-9.4900000000000002

>  <m_primary>  (51) 
energy

$$$$
51:0
     RDKit          3D

 44 46  0  0  0  0  0  0  0  0999 V2000
   59.7630   29.7700   50.5880 C   0  0  0  0  0  0  0  0  0  0  0  0
   60.9040   29.0140   49.9720 C   0  0  0  0  0  0  0  0  0  0  0  0
   60.9270   28.9830   48.5870 O   0  0  0  0  0  0  0  0  0  0  0  0
   59.9950   29.4010   47.6920 C   0  0  0  0  0  0  0  0  0  0  0  0
   58.9410   28.6670   47.2050 C   0  0  0  0  0  0  0  0  0  0  0  0
   58.0360   29.1940   46.2850 C   0  0  0  0  0  0  0  0  0  0  0  0
   58.1430   30.4720   45.8110 C   0  0  0  0  0  0  0  0  0  0  0  0
   57.2900   31.1380   44.8740 C   0  0  0  0  0  0  0  0  0  0  0  0
   56.2380   30.4660   44.5170 O   0  0  0  0  0  0  0  0  0  0  0  0
   57.4110   32.3920   44.2890 N   0  0  0  0  0  0  0  0  0  0  0  0
   58.0000   32.4280   42.9340 C   0  0  0  0  0  0  0  0  0  0  0  0
   57.0790   33.6790   44.8410 C   0  0  0  0  0  0  0  0  0  0  0  0
   58.1050   34.0320   45.8480 C   0  0  0  0  0  0  0  0  0  0  0  0
   59.2380   34.7730   45.5010 C   0  0  0  0  0  0  0  0  0  0  0  0
   60.0150   34.9570   46.6290 C   0  0  0  0  0  0  0  0  0  0  0  0
   59.3300   34.3260   47.6130 N   0  0  0  0  0  0  0  0  0  0  0  0
   58.2270   33.7960   47.1440 N   0  0  0  0  0  0  0  0  0  0  0  0
   59.2200   31.2120   46.3150 C   0  0  0  0  0  0  0  0  0  0  0  0
   60.1120   30.7130   47.2120 C   0  0  0  0  0  0  0  0  0  0  0  0
   61.2160   31.5660   47.7060 C   0  0  0  0  0  0  0  0  0  0  0  0
   62.4210   31.3890   47.1590 N   0  0  0  0  0  0  0  0  0  0  0  0
   63.4580   32.1310   47.5650 C   0  0  0  0  0  0  0  0  0  0  0  0
   63.2580   33.0700   48.5470 C   0  0  0  0  0  0  0  0  0  0  0  0
   64.3370   33.8130   48.9420 F   0  0  0  0  0  0  0  0  0  0  0  0
   62.0100   33.2680   49.1290 C   0  0  0  0  0  0  0  0  0  0  0  0
   60.9790   32.4880   48.6820 N   0  0  0  0  0  0  0  0  0  0  0  0
   59.8391   29.7196   51.6842 H   0  0  0  0  0  0  0  0  0  0  0  0
   59.8029   30.8209   50.2656 H   0  0  0  0  0  0  0  0  0  0  0  0
   58.8108   29.3235   50.2656 H   0  0  0  0  0  0  0  0  0  0  0  0
   61.8407   29.4775   50.3151 H   0  0  0  0  0  0  0  0  0  0  0  0
   60.7790   27.9693   50.2929 H   0  0  0  0  0  0  0  0  0  0  0  0
   58.8070   27.6317   47.5516 H   0  0  0  0  0  0  0  0  0  0  0  0
   57.2094   28.5615   45.9290 H   0  0  0  0  0  0  0  0  0  0  0  0
   59.0952   32.4949   43.0119 H   0  0  0  0  0  0  0  0  0  0  0  0
   57.7264   31.5115   42.3908 H   0  0  0  0  0  0  0  0  0  0  0  0
   57.6168   33.3044   42.3908 H   0  0  0  0  0  0  0  0  0  0  0  0
   57.0670   34.4346   44.0417 H   0  0  0  0  0  0  0  0  0  0  0  0
   56.0843   33.6451   45.3095 H   0  0  0  0  0  0  0  0  0  0  0  0
   59.4730   35.1486   44.4942 H   0  0  0  0  0  0  0  0  0  0  0  0
   60.9718   35.4936   46.7096 H   0  0  0  0  0  0  0  0  0  0  0  0
   59.7150   34.3140   48.5980 H   0  0  0  0  0  0  0  0  0  0  0  0
   59.3508   32.2477   45.9682 H   0  0  0  0  0  0  0  0  0  0  0  0
   64.4540   31.9911   47.1196 H   0  0  0  0  0  0  0  0  0  0  0  0
   61.8585   34.0210   49.9164 H   0  0  0  0  0  0  0  0  0  0  0  0
  1  2  1  0
  2  3  1  0
  3  4  1  0
  4  5  2  0
  5  6  1  0
  6  7  2  0
  7  8  1  0
  8  9  2  0
  8 10  1  0
 10 11  1  0
 10 12  1  0
 12 13  1  0
 13 14  1  0
 14 15  2  0
 15 16  1  0
 16 17  1  0
  7 18  1  0
 18 19  2  0
 19 20  1  0
 20 21  2  0
 21 22  1  0
 22 23  2  0
 23 24  1  0
 23 25  1  0
 25 26  2  0
 19  4  1  0
 26 20  1  0
 17 13  2  0
  1 27  1  0
  1 28  1  0
  1 29  1  0
  2 30  1  0
  2 31  1  0
  5 32  1  0
  6 33  1  0
 11 34  1  0
 11 35  1  0
 11 36  1  0
 12 37  1  0
 12 38  1  0
 14 39  1  0
 15 40  1  0
 16 41  1  0
 18 42  1  0
 22 43  1  0
 25 44  1  0
M  END
>  <smiles>  (52) 
CCOc1ccc(C(=O)N(C)Cc2cc[nH]n2)cc1-c1ncc(F)cn1

>  <score_type>  (52) 
oracle

>  <origin>  (52) 
adg

>  <m_score__min__energy>  (52) 
-7.5800000000000001

>  <m_primary>  (52) 
energy

$$$$
52:0
     RDKit          3D

 84 88  0  0  0  0  0  0  0  0999 V2000
   60.8472   34.9511   47.8006 H   0  0  0  0  0  0  0  0  0  0  0  0
   60.0830   34.1800   47.6230 C   0  0  0  0  0  0  0  0  0  0  0  0
   59.3710   33.6770   48.6660 N   0  0  0  0  0  0  0  0  0  0  0  0
   58.4160   32.7200   48.5070 C   0  0  0  0  0  0  0  0  0  0  0  0
   57.7910   32.2940   49.5720 N   0  0  0  0  0  0  0  0  0  0  0  0
   58.3190   31.6410   50.7430 C   0  0  0  0  0  0  0  0  0  0  0  0
   58.1350   30.4060   50.9290 O   0  0  0  0  0  0  0  0  0  0  0  0
   59.1670   32.4040   51.6900 C   0  0  0  0  0  0  0  0  0  0  0  0
   58.5780   33.1440   52.7320 C   0  0  0  0  0  0  0  0  0  0  0  0
   57.4834   33.1617   52.8390 H   0  0  0  0  0  0  0  0  0  0  0  0
   59.3750   33.8560   53.6310 C   0  0  0  0  0  0  0  0  0  0  0  0
   58.9056   34.4414   54.4353 H   0  0  0  0  0  0  0  0  0  0  0  0
   60.7660   33.8270   53.5120 C   0  0  0  0  0  0  0  0  0  0  0  0
   61.3864   34.3883   54.2262 H   0  0  0  0  0  0  0  0  0  0  0  0
   61.3770   33.0900   52.4920 C   0  0  0  0  0  0  0  0  0  0  0  0
   62.7800   33.0800   52.4340 O   0  0  0  0  0  0  0  0  0  0  0  0
   63.6590   32.8800   53.5430 C   0  0  0  0  0  0  0  0  0  0  0  0
   63.0650   32.7749   54.4628 H   0  0  0  0  0  0  0  0  0  0  0  0
   64.2510   31.9689   53.3714 H   0  0  0  0  0  0  0  0  0  0  0  0
   64.6150   34.0800   53.6890 C   0  0  0  0  0  0  0  0  0  0  0  0
   64.1405   34.8184   54.3521 H   0  0  0  0  0  0  0  0  0  0  0  0
   65.5574   33.6814   54.0928 H   0  0  0  0  0  0  0  0  0  0  0  0
   64.9560   34.7560   52.4110 N   0  0  0  0  0  0  0  0  0  0  0  0
   64.3680   34.3060   51.6690 H   0  0  0  0  0  0  0  0  0  0  0  0
   66.3630   34.5540   52.0180 C   0  0  0  0  0  0  0  0  0  0  0  0
   66.9864   34.4645   52.9199 H   0  0  0  0  0  0  0  0  0  0  0  0
   66.4484   33.6344   51.4205 H   0  0  0  0  0  0  0  0  0  0  0  0
   66.7037   35.4124   51.4205 H   0  0  0  0  0  0  0  0  0  0  0  0
   64.6120   36.1890   52.4180 C   0  0  0  0  0  0  0  0  0  0  0  0
   64.5276   36.5407   53.4568 H   0  0  0  0  0  0  0  0  0  0  0  0
   65.3992   36.7576   51.9012 H   0  0  0  0  0  0  0  0  0  0  0  0
   63.6525   36.3383   51.9012 H   0  0  0  0  0  0  0  0  0  0  0  0
   60.5700   32.3950   51.5690 C   0  0  0  0  0  0  0  0  0  0  0  0
   61.0413   31.8393   50.7449 H   0  0  0  0  0  0  0  0  0  0  0  0
   58.1260   32.2580   47.2060 C   0  0  0  0  0  0  0  0  0  0  0  0
   57.3391   31.5050   47.0522 H   0  0  0  0  0  0  0  0  0  0  0  0
   58.8440   32.7610   46.1050 C   0  0  0  0  0  0  0  0  0  0  0  0
   58.5840   32.1970   44.7210 C   0  0  1  0  0  0  0  0  0  0  0  0
   59.5266   31.8101   44.3066 H   0  0  0  0  0  0  0  0  0  0  0  0
   57.6570   30.9890   44.7650 C   0  0  0  0  0  0  0  0  0  0  0  0
   56.3070   31.1610   44.4250 C   0  0  0  0  0  0  0  0  0  0  0  0
   55.9341   32.1547   44.1359 H   0  0  0  0  0  0  0  0  0  0  0  0
   55.4380   30.0700   44.4540 C   0  0  0  0  0  0  0  0  0  0  0  0
   54.3784   30.2051   44.1914 H   0  0  0  0  0  0  0  0  0  0  0  0
   55.8980   28.8410   44.8060 N   0  0  0  0  0  0  0  0  0  0  0  0
   57.2020   28.6250   45.1310 C   0  0  0  0  0  0  0  0  0  0  0  0
   57.6320   27.4380   45.4590 N   0  0  0  0  0  0  0  0  0  0  0  0
   58.5930   27.0920   46.4720 C   0  0  0  0  0  0  0  0  0  0  0  0
   59.5250   26.3030   46.1630 O   0  0  0  0  0  0  0  0  0  0  0  0
   58.5220   27.6470   47.8740 C   0  0  0  0  0  0  0  0  0  0  0  0
   57.5508   28.1457   48.0086 H   0  0  0  0  0  0  0  0  0  0  0  0
   58.6425   26.8082   48.5753 H   0  0  0  0  0  0  0  0  0  0  0  0
   59.6210   28.6420   48.1500 C   0  0  0  0  0  0  0  0  0  0  0  0
   60.1720   29.3970   47.1080 C   0  0  0  0  0  0  0  0  0  0  0  0
   59.7946   29.2668   46.0830 H   0  0  0  0  0  0  0  0  0  0  0  0
   61.1960   30.3140   47.3560 C   0  0  0  0  0  0  0  0  0  0  0  0
   61.6122   30.8993   46.5228 H   0  0  0  0  0  0  0  0  0  0  0  0
   61.7070   30.5020   48.6640 C   0  0  0  0  0  0  0  0  0  0  0  0
   62.7680   31.4700   48.9290 N   0  0  0  0  0  0  0  0  0  0  0  0
   62.8550   32.6980   48.1060 C   0  0  0  0  0  0  0  0  0  0  0  0
   62.9510   32.4013   47.0511 H   0  0  0  0  0  0  0  0  0  0  0  0
   61.9407   33.2775   48.3016 H   0  0  0  0  0  0  0  0  0  0  0  0
   64.0410   33.6060   48.4620 C   0  0  0  0  0  0  0  0  0  0  0  0
   64.9279   33.2684   47.9058 H   0  0  0  0  0  0  0  0  0  0  0  0
   63.7755   34.6386   48.1915 H   0  0  0  0  0  0  0  0  0  0  0  0
   64.3270   33.5730   49.8410 O   0  0  0  0  0  0  0  0  0  0  0  0
   64.7890   32.2850   50.1680 C   0  0  0  0  0  0  0  0  0  0  0  0
   65.5722   31.9884   49.4548 H   0  0  0  0  0  0  0  0  0  0  0  0
   65.1960   32.2994   51.1898 H   0  0  0  0  0  0  0  0  0  0  0  0
   63.6420   31.2790   50.1040 C   0  0  0  0  0  0  0  0  0  0  0  0
   64.0674   30.2654   50.0627 H   0  0  0  0  0  0  0  0  0  0  0  0
   63.0232   31.4301   51.0008 H   0  0  0  0  0  0  0  0  0  0  0  0
   61.1560   29.7120   49.7000 C   0  0  0  0  0  0  0  0  0  0  0  0
   61.5412   29.8198   50.7247 H   0  0  0  0  0  0  0  0  0  0  0  0
   60.1310   28.7970   49.4450 C   0  0  0  0  0  0  0  0  0  0  0  0
   59.7213   28.1935   50.2684 H   0  0  0  0  0  0  0  0  0  0  0  0
   58.1080   29.6920   45.0900 C   0  0  0  0  0  0  0  0  0  0  0  0
   59.1716   29.5190   45.3112 H   0  0  0  0  0  0  0  0  0  0  0  0
   58.1110   33.3140   43.7780 C   0  0  0  0  0  0  0  0  0  0  0  0
   57.7499   34.1667   44.3717 H   0  0  0  0  0  0  0  0  0  0  0  0
   58.9493   33.6377   43.1436 H   0  0  0  0  0  0  0  0  0  0  0  0
   57.2952   32.9373   43.1436 H   0  0  0  0  0  0  0  0  0  0  0  0
   59.8460   33.7200   46.3290 C   0  0  0  0  0  0  0  0  0  0  0  0
   60.4403   34.1057   45.4875 H   0  0  0  0  0  0  0  0  0  0  0  0
  1  2  1  0
  2  3  1  0
  3  4  1  0
  4  5  2  3
  5  6  1  0
  6  7  2  0
  6  8  1  0
  8  9  2  0
  9 10  1  0
  9 11  1  0
 11 12  1  0
 11 13  2  0
 13 14  1  0
 13 15  1  0
 15 16  1  0
 16 17  1  0
 17 18  1  0
 17 19  1  0
 17 20  1  0
 20 21  1  0
 20 22  1  0
 20 23  1  0
 23 24  1  0
 23 25  1  0
 25 26  1  0
 25 27  1  0
 25 28  1  0
 23 29  1  0
 29 30  1  0
 29 31  1  0
 29 32  1  0
 15 33  2  0
 33 34  1  0
  4 35  1  0
 35 36  1  0
 35 37  2  0
 37 38  1  0
 38 39  1  6
 38 40  1  0
 40 41  1  0
 41 42  1  0
 41 43  2  0
 43 44  1  0
 43 45  1  0
 45 46  1  0
 46 47  2  0
 47 48  1  0
 48 49  2  0
 48 50  1  0
 50 51  1  0
 50 52  1  0
 50 53  1  0
 53 54  2  0
 54 55  1  0
 54 56  1  0
 56 57  1  0
 56 58  2  0
 58 59  1  0
 59 60  1  0
 60 61  1  0
 60 62  1  0
 60 63  1  0
 63 64  1  0
 63 65  1  0
 63 66  1  0
 66 67  1  0
 67 68  1  0
 67 69  1  0
 67 70  1  0
 70 71  1  0
 70 72  1  0
 58 73  1  0
 73 74  1  0
 73 75  2  0
 75 76  1  0
 46 77  1  0
 77 78  1  0
 38 79  1  0
 79 80  1  0
 79 81  1  0
 79 82  1  0
 37 83  1  0
 83 84  1  0
 83  2  2  0
 33  8  1  0
 77 40  2  0
 75 53  1  0
 70 59  1  0
M  CHG  3   3  -1  23   1  45  -1
M  END
>  <UniqueID>  (53) 
47

>  <SMILES>  (53) 
C[C@@H](c1cc[n-]c(=NC(=O)c2cccc(OCC[NH+](C)C)c2)c1)c1cc[n-]/c(=N\C(=O)Cc2ccc(N3CCOCC3)cc2)c1

>  <Energy>  (53) 
114.85122738515543

>  <Genealogy>  (53) 
CC(c1cc[n-]c(=NC(=O)Cc2ccc(N3CCOCC3)cc2)c1)c1cc[n-]c(=NC(=O)c2cccc(OCC[NH+](C)C)c2)c1 (protonated)
C[C@H](c1cc[n-]c(=NC(=O)Cc2ccc(N3CCOCC3)cc2)c1)c1cc[n-]c(=NC(=O)c2cccc(OCC[NH+](C)C)c2)c1 (chirality)
C[C@@H](c1cc[n-]c(=NC(=O)c2cccc(OCC[NH+](C)C)c2)c1)c1cc[n-]/c(=N\C(=O)Cc2ccc(N3CCOCC3)cc2)c1 (cis-trans isomerization)
C[C@@H](c1cc[n-]c(=NC(=O)c2cccc(OCC[NH+](C)C)c2)c1)c1cc[n-]/c(=N\C(=O)Cc2ccc(N3CCOCC3)cc2)c1 (3D coordinates assigned)
C[C@@H](c1cc[n-]c(=NC(=O)c2cccc(OCC[NH+](C)C)c2)c1)c1cc[n-]/c(=N\C(=O)Cc2ccc(N3CCOCC3)cc2)c1 (nonaromatic ring conformer: 114.85122738515543 kcal/mol)

>  <smiles>  (53) 
CC(c1cc[nH]c(=NC(=O)Cc2ccc(N3CCOCC3)cc2)c1)c1cc[nH]c(=NC(=O)c2cccc(OCCN(C)C)c2)c1

>  <score_type>  (53) 
oracle

>  <origin>  (53) 
adg

>  <m_score__min__energy>  (53) 
-11.390000000000001

>  <m_primary>  (53) 
energy

$$$$
53:0
     RDKit          3D

 48 50  0  0  0  0  0  0  0  0999 V2000
   58.8160   27.2910   47.4300 C   0  0  0  0  0  0  0  0  0  0  0  0
   58.2880   28.4460   46.6300 C   0  0  0  0  0  0  0  0  0  0  0  0
   57.1250   28.4730   45.8670 C   0  0  0  0  0  0  0  0  0  0  0  0
   56.1650   27.4310   45.6480 N   0  0  0  0  0  0  0  0  0  0  0  0
   56.4630   26.0320   45.6650 C   0  0  0  0  0  0  0  0  0  0  0  0
   55.7460   25.2320   46.3250 O   0  0  0  0  0  0  0  0  0  0  0  0
   57.6910   25.5300   44.9740 C   0  0  0  0  0  0  0  0  0  0  0  0
   57.9990   24.0890   45.4000 C   0  0  0  0  0  0  0  0  0  0  0  0
   57.2080   23.1220   44.6080 N   0  0  0  0  0  0  0  0  0  0  0  0
   58.0270   21.9590   44.1940 C   0  0  0  0  0  0  0  0  0  0  0  0
   57.3290   21.1430   43.0890 C   0  0  0  0  0  0  0  0  0  0  0  0
   55.9510   21.4430   43.0460 O   0  0  0  0  0  0  0  0  0  0  0  0
   55.7670   22.7820   42.6220 C   0  0  0  0  0  0  0  0  0  0  0  0
   56.6330   23.7800   43.4200 C   0  0  0  0  0  0  0  0  0  0  0  0
   57.0090   29.7740   45.4390 C   0  0  0  0  0  0  0  0  0  0  0  0
   56.0600   30.2410   44.7540 O   0  0  0  0  0  0  0  0  0  0  0  0
   58.0620   30.4900   45.8800 N   0  0  0  0  0  0  0  0  0  0  0  0
   58.2820   31.8920   45.6460 C   0  0  0  0  0  0  0  0  0  0  0  0
   58.3400   32.3870   44.3320 C   0  0  0  0  0  0  0  0  0  0  0  0
   58.5450   33.7510   44.1020 C   0  0  0  0  0  0  0  0  0  0  0  0
   58.6870   34.6300   45.1790 C   0  0  0  0  0  0  0  0  0  0  0  0
   58.6190   34.1470   46.4900 C   0  0  0  0  0  0  0  0  0  0  0  0
   58.4140   32.7820   46.7230 C   0  0  0  0  0  0  0  0  0  0  0  0
   58.8490   29.6810   46.5880 N   0  0  0  0  0  0  0  0  0  0  0  0
   60.1050   30.0730   47.2330 C   0  0  0  0  0  0  0  0  0  0  0  0
   58.7152   27.5116   48.5029 H   0  0  0  0  0  0  0  0  0  0  0  0
   58.2431   26.3841   47.1867 H   0  0  0  0  0  0  0  0  0  0  0  0
   59.8767   27.1309   47.1867 H   0  0  0  0  0  0  0  0  0  0  0  0
   57.5311   25.5591   43.8861 H   0  0  0  0  0  0  0  0  0  0  0  0
   58.5409   26.1711   45.2508 H   0  0  0  0  0  0  0  0  0  0  0  0
   59.0698   23.8894   45.2463 H   0  0  0  0  0  0  0  0  0  0  0  0
   57.7341   23.9729   46.4613 H   0  0  0  0  0  0  0  0  0  0  0  0
   58.9946   22.3197   43.8151 H   0  0  0  0  0  0  0  0  0  0  0  0
   58.1681   21.3068   45.0685 H   0  0  0  0  0  0  0  0  0  0  0  0
   57.7828   21.3878   42.1174 H   0  0  0  0  0  0  0  0  0  0  0  0
   57.4523   20.0720   43.3073 H   0  0  0  0  0  0  0  0  0  0  0  0
   56.0353   22.8549   41.5577 H   0  0  0  0  0  0  0  0  0  0  0  0
   54.7124   23.0443   42.7926 H   0  0  0  0  0  0  0  0  0  0  0  0
   57.4476   24.1474   42.7786 H   0  0  0  0  0  0  0  0  0  0  0  0
   56.0024   24.6202   43.7461 H   0  0  0  0  0  0  0  0  0  0  0  0
   58.2237   31.6991   43.4815 H   0  0  0  0  0  0  0  0  0  0  0  0
   58.5946   34.1327   43.0715 H   0  0  0  0  0  0  0  0  0  0  0  0
   58.8523   35.7020   44.9958 H   0  0  0  0  0  0  0  0  0  0  0  0
   58.7266   34.8397   47.3377 H   0  0  0  0  0  0  0  0  0  0  0  0
   58.3561   32.4053   47.7549 H   0  0  0  0  0  0  0  0  0  0  0  0
   59.9835   30.0351   48.3256 H   0  0  0  0  0  0  0  0  0  0  0  0
   60.9048   29.3817   46.9288 H   0  0  0  0  0  0  0  0  0  0  0  0
   60.3696   31.0964   46.9288 H   0  0  0  0  0  0  0  0  0  0  0  0
  1  2  1  0
  2  3  2  0
  3  4  1  0
  4  5  1  0
  5  6  2  0
  5  7  1  0
  7  8  1  0
  8  9  1  0
  9 10  1  0
 10 11  1  0
 11 12  1  0
 12 13  1  0
 13 14  1  0
  3 15  1  0
 15 16  2  0
 15 17  1  0
 17 18  1  0
 18 19  2  0
 19 20  1  0
 20 21  2  0
 21 22  1  0
 22 23  2  0
 17 24  1  0
 24 25  1  0
 24  2  1  0
 14  9  1  0
 23 18  1  0
  1 26  1  0
  1 27  1  0
  1 28  1  0
  7 29  1  0
  7 30  1  0
  8 31  1  0
  8 32  1  0
 10 33  1  0
 10 34  1  0
 11 35  1  0
 11 36  1  0
 13 37  1  0
 13 38  1  0
 14 39  1  0
 14 40  1  0
 19 41  1  0
 20 42  1  0
 21 43  1  0
 22 44  1  0
 23 45  1  0
 25 46  1  0
 25 47  1  0
 25 48  1  0
M  CHG  1   4  -1
M  END
>  <UniqueID>  (54) 
48

>  <SMILES>  (54) 
Cc1c([N-]C(=O)CCN2CCOCC2)c(=O)n(-c2ccccc2)n1C

>  <Energy>  (54) 
101.08432656094105

>  <Genealogy>  (54) 
Cc1c([N-]C(=O)CCN2CCOCC2)c(=O)n(-c2ccccc2)n1C (protonated)
Cc1c([N-]C(=O)CCN2CCOCC2)c(=O)n(-c2ccccc2)n1C (3D coordinates assigned)
Cc1c([N-]C(=O)CCN2CCOCC2)c(=O)n(-c2ccccc2)n1C (nonaromatic ring conformer: 101.08432656094105 kcal/mol)

>  <smiles>  (54) 
Cc1c(NC(=O)CCN2CCOCC2)c(=O)n(-c2ccccc2)n1C

>  <score_type>  (54) 
oracle

>  <origin>  (54) 
adg

>  <m_score__min__energy>  (54) 
-10.67

>  <m_primary>  (54) 
energy

$$$$
54:0
     RDKit          3D

 44 46  0  0  0  0  0  0  0  0999 V2000
   59.9000   28.2070   49.4690 O   0  0  0  0  0  0  0  0  0  0  0  0
   59.3140   28.7000   48.4680 C   0  0  0  0  0  0  0  0  0  0  0  0
   58.4730   27.8480   47.6780 N   0  0  0  0  0  0  0  0  0  0  0  0
   58.5200   27.6960   46.2490 C   0  0  0  0  0  0  0  0  0  0  0  0
   59.5660   28.2810   45.5110 C   0  0  0  0  0  0  0  0  0  0  0  0
   59.6120   28.1590   44.1230 C   0  0  0  0  0  0  0  0  0  0  0  0
   58.6070   27.4670   43.4500 C   0  0  0  0  0  0  0  0  0  0  0  0
   57.5500   26.8990   44.1630 C   0  0  0  0  0  0  0  0  0  0  0  0
   57.4850   27.0060   45.5660 C   0  0  0  0  0  0  0  0  0  0  0  0
   56.3400   26.3790   46.2790 C   0  0  0  0  0  0  0  0  0  0  0  0
   55.1510   26.7140   46.0300 O   0  0  0  0  0  0  0  0  0  0  0  0
   56.5660   25.4070   47.2470 O   0  0  0  0  0  0  0  0  0  0  0  0
   59.5520   30.1190   48.1130 C   0  0  0  0  0  0  0  0  0  0  0  0
   60.8130   30.5490   47.6670 C   0  0  0  0  0  0  0  0  0  0  0  0
   61.0300   31.8890   47.3350 C   0  0  0  0  0  0  0  0  0  0  0  0
   59.9910   32.8290   47.4590 C   0  0  0  0  0  0  0  0  0  0  0  0
   60.1490   34.1860   47.1420 O   0  0  0  0  0  0  0  0  0  0  0  0
   59.3210   34.9350   46.2490 C   0  0  0  0  0  0  0  0  0  0  0  0
   59.2940   34.3170   44.8430 C   0  0  0  0  0  0  0  0  0  0  0  0
   57.9750   33.6050   44.4880 C   0  0  0  0  0  0  0  0  0  0  0  0
   58.1650   32.2730   43.7410 C   0  0  0  0  0  0  0  0  0  0  0  0
   57.1750   31.2320   44.1680 C   0  0  0  0  0  0  0  0  0  0  0  0
   56.1170   30.8410   43.4330 N   0  0  0  0  0  0  0  0  0  0  0  0
   55.5350   29.9020   44.1600 N   0  0  0  0  0  0  0  0  0  0  0  0
   56.2110   29.7210   45.2840 N   0  0  0  0  0  0  0  0  0  0  0  0
   57.2500   30.5390   45.3170 N   0  0  0  0  0  0  0  0  0  0  0  0
   58.7380   32.4010   47.9130 C   0  0  0  0  0  0  0  0  0  0  0  0
   58.5190   31.0610   48.2450 C   0  0  0  0  0  0  0  0  0  0  0  0
   60.3553   28.8402   46.0348 H   0  0  0  0  0  0  0  0  0  0  0  0
   60.4420   28.6092   43.5588 H   0  0  0  0  0  0  0  0  0  0  0  0
   58.6467   27.3682   42.3552 H   0  0  0  0  0  0  0  0  0  0  0  0
   56.7575   26.3609   43.6223 H   0  0  0  0  0  0  0  0  0  0  0  0
   61.6363   29.8249   47.5784 H   0  0  0  0  0  0  0  0  0  0  0  0
   62.0185   32.2103   46.9748 H   0  0  0  0  0  0  0  0  0  0  0  0
   58.2961   34.9574   46.6479 H   0  0  0  0  0  0  0  0  0  0  0  0
   59.7360   35.9505   46.1684 H   0  0  0  0  0  0  0  0  0  0  0  0
   59.4595   35.1206   44.1104 H   0  0  0  0  0  0  0  0  0  0  0  0
   60.0816   33.5494   44.8214 H   0  0  0  0  0  0  0  0  0  0  0  0
   57.4285   33.4035   45.4211 H   0  0  0  0  0  0  0  0  0  0  0  0
   57.4239   34.2742   43.8109 H   0  0  0  0  0  0  0  0  0  0  0  0
   58.0455   32.4528   42.6624 H   0  0  0  0  0  0  0  0  0  0  0  0
   59.1709   31.8962   43.9779 H   0  0  0  0  0  0  0  0  0  0  0  0
   57.9171   33.1268   48.0095 H   0  0  0  0  0  0  0  0  0  0  0  0
   57.5320   30.7426   48.6117 H   0  0  0  0  0  0  0  0  0  0  0  0
  1  2  2  0
  2  3  1  0
  3  4  1  0
  4  5  2  0
  5  6  1  0
  6  7  2  0
  7  8  1  0
  8  9  2  0
  9 10  1  0
 10 11  2  0
 10 12  1  0
  2 13  1  0
 13 14  2  0
 14 15  1  0
 15 16  2  0
 16 17  1  0
 17 18  1  0
 18 19  1  0
 19 20  1  0
 20 21  1  0
 21 22  1  0
 22 23  1  0
 23 24  2  0
 24 25  1  0
 25 26  1  0
 16 27  1  0
 27 28  2  0
  9  4  1  0
 28 13  1  0
 26 22  2  0
  5 29  1  0
  6 30  1  0
  7 31  1  0
  8 32  1  0
 14 33  1  0
 15 34  1  0
 18 35  1  0
 18 36  1  0
 19 37  1  0
 19 38  1  0
 20 39  1  0
 20 40  1  0
 21 41  1  0
 21 42  1  0
 27 43  1  0
 28 44  1  0
M  CHG  3   3  -1  12  -1  25  -1
M  END
>  <UniqueID>  (55) 
49

>  <SMILES>  (55) 
O=C([N-]c1ccccc1C(=O)[O-])c1ccc(OCCCCc2nn[n-]n2)cc1

>  <Energy>  (55) 
90.05457286513598

>  <Genealogy>  (55) 
O=C([N-]c1ccccc1C(=O)[O-])c1ccc(OCCCCc2nn[n-]n2)cc1 (protonated)
O=C([N-]c1ccccc1C(=O)[O-])c1ccc(OCCCCc2nn[n-]n2)cc1 (3D coordinates assigned)
O=C([N-]c1ccccc1C(=O)[O-])c1ccc(OCCCCc2nn[n-]n2)cc1 (optimized conformer: 90.05457286513598 kcal/mol)

>  <smiles>  (55) 
O=C(Nc1ccccc1C(=O)O)c1ccc(OCCCCc2nn[nH]n2)cc1

>  <score_type>  (55) 
oracle

>  <origin>  (55) 
adg

>  <m_score__min__energy>  (55) 
-14.25

>  <m_primary>  (55) 
energy

$$$$
55:0
     RDKit          3D

 40 42  0  0  0  0  0  0  0  0999 V2000
   60.7930   30.0030   48.4640 O   0  0  0  0  0  0  0  0  0  0  0  0
   59.5630   30.1170   48.7160 C   0  0  0  0  0  0  0  0  0  0  0  0
   58.7340   30.9470   47.9000 N   0  0  0  0  0  0  0  0  0  0  0  0
   58.3800   32.3130   48.2610 C   0  0  0  0  0  0  0  0  0  0  0  0
   58.5820   33.2070   47.0730 C   0  0  0  0  0  0  0  0  0  0  0  0
   57.7710   33.0820   45.9320 C   0  0  0  0  0  0  0  0  0  0  0  0
   57.9540   33.9380   44.8420 C   0  0  0  0  0  0  0  0  0  0  0  0
   58.9380   34.9310   44.8860 C   0  0  0  0  0  0  0  0  0  0  0  0
   59.7390   35.0700   46.0230 C   0  0  0  0  0  0  0  0  0  0  0  0
   59.5590   34.2150   47.1140 C   0  0  0  0  0  0  0  0  0  0  0  0
   58.9840   29.4340   49.8330 N   0  0  0  0  0  0  0  0  0  0  0  0
   59.7860   28.7920   50.8750 C   0  0  0  0  0  0  0  0  0  0  0  0
   59.2580   29.1270   52.2760 C   0  0  0  0  0  0  0  0  0  0  0  0
   58.1440   30.1260   52.2170 C   0  0  0  0  0  0  0  0  0  0  0  0
   56.8470   29.7830   52.0660 N   0  0  0  0  0  0  0  0  0  0  0  0
   56.0200   30.8590   52.1480 C   0  0  0  0  0  0  0  0  0  0  0  0
   54.5640   30.7160   52.0210 C   0  0  0  0  0  0  0  0  0  0  0  0
   53.7540   31.7200   51.6210 N   0  0  0  0  0  0  0  0  0  0  0  0
   52.4490   31.3380   51.5710 C   0  0  0  0  0  0  0  0  0  0  0  0
   51.3890   32.2710   51.1630 C   0  0  0  0  0  0  0  0  0  0  0  0
   50.7970   32.9800   52.0180 O   0  0  0  0  0  0  0  0  0  0  0  0
   51.0340   32.3760   49.8240 O   0  0  0  0  0  0  0  0  0  0  0  0
   52.2090   30.0130   51.9330 C   0  0  0  0  0  0  0  0  0  0  0  0
   53.6850   29.3140   52.3280 S   0  0  0  0  0  0  0  0  0  0  0  0
   56.6620   32.0760   52.3800 C   0  0  0  0  0  0  0  0  0  0  0  0
   58.3140   31.7770   52.4850 S   0  0  0  0  0  0  0  0  0  0  0  0
   57.3259   32.3493   48.5734 H   0  0  0  0  0  0  0  0  0  0  0  0
   59.0175   32.6523   49.0907 H   0  0  0  0  0  0  0  0  0  0  0  0
   56.9899   32.3083   45.8965 H   0  0  0  0  0  0  0  0  0  0  0  0
   57.3227   33.8303   43.9477 H   0  0  0  0  0  0  0  0  0  0  0  0
   59.0814   35.6021   44.0264 H   0  0  0  0  0  0  0  0  0  0  0  0
   60.5113   35.8525   46.0592 H   0  0  0  0  0  0  0  0  0  0  0  0
   60.1863   34.3324   48.0100 H   0  0  0  0  0  0  0  0  0  0  0  0
   57.9440   29.4340   49.9340 H   0  0  0  0  0  0  0  0  0  0  0  0
   59.7525   27.7019   50.7314 H   0  0  0  0  0  0  0  0  0  0  0  0
   60.8177   29.1653   50.7962 H   0  0  0  0  0  0  0  0  0  0  0  0
   58.8872   28.2053   52.7483 H   0  0  0  0  0  0  0  0  0  0  0  0
   60.0818   29.5620   52.8609 H   0  0  0  0  0  0  0  0  0  0  0  0
   51.2287   29.5145   51.9559 H   0  0  0  0  0  0  0  0  0  0  0  0
   56.1742   33.0571   52.4770 H   0  0  0  0  0  0  0  0  0  0  0  0
  1  2  2  0
  2  3  1  0
  3  4  1  0
  4  5  1  0
  5  6  2  0
  6  7  1  0
  7  8  2  0
  8  9  1  0
  9 10  2  0
  2 11  1  0
 11 12  1  0
 12 13  1  0
 13 14  1  0
 14 15  2  0
 15 16  1  0
 16 17  1  0
 17 18  2  0
 18 19  1  0
 19 20  1  0
 20 21  2  0
 20 22  1  0
 19 23  2  0
 23 24  1  0
 16 25  2  0
 25 26  1  0
 10  5  1  0
 26 14  1  0
 24 17  1  0
  4 27  1  0
  4 28  1  0
  6 29  1  0
  7 30  1  0
  8 31  1  0
  9 32  1  0
 10 33  1  0
 11 34  1  0
 12 35  1  0
 12 36  1  0
 13 37  1  0
 13 38  1  0
 23 39  1  0
 25 40  1  0
M  CHG  2   3  -1  22  -1
M  END
>  <UniqueID>  (56) 
50

>  <SMILES>  (56) 
O=C([N-]Cc1ccccc1)NCCc1nc(-c2nc(C(=O)[O-])cs2)cs1

>  <Energy>  (56) 
88.9650254651068

>  <Genealogy>  (56) 
O=C([N-]Cc1ccccc1)NCCc1nc(-c2nc(C(=O)[O-])cs2)cs1 (protonated)
O=C([N-]Cc1ccccc1)NCCc1nc(-c2nc(C(=O)[O-])cs2)cs1 (3D coordinates assigned)
O=C([N-]Cc1ccccc1)NCCc1nc(-c2nc(C(=O)[O-])cs2)cs1 (optimized conformer: 88.9650254651068 kcal/mol)

>  <smiles>  (56) 
O=C(NCCc1nc(-c2nc(C(=O)O)cs2)cs1)NCc1ccccc1

>  <score_type>  (56) 
oracle

>  <origin>  (56) 
adg

>  <m_score__min__energy>  (56) 
-12.58

>  <m_primary>  (56) 
energy

$$$$
56:0
     RDKit          3D

 60 64  0  0  0  0  0  0  0  0999 V2000
   60.0965   28.2093   44.5397 H   0  0  0  0  0  0  0  0  0  0  0  0
   59.0290   28.3200   44.7810 C   0  0  0  0  0  0  0  0  0  0  0  0
   58.3790   29.4710   44.4740 N   0  0  0  0  0  0  0  0  0  0  0  0
   57.0580   29.6310   44.7690 C   0  0  0  0  0  0  0  0  0  0  0  0
   56.4330   30.7300   44.4700 N   0  0  0  0  0  0  0  0  0  0  0  0
   57.1010   31.9870   44.1450 C   0  0  0  0  0  0  0  0  0  0  0  0
   57.7816   31.8319   43.2948 H   0  0  0  0  0  0  0  0  0  0  0  0
   56.3492   32.7444   43.8782 H   0  0  0  0  0  0  0  0  0  0  0  0
   57.8860   32.4570   45.3360 C   0  0  0  0  0  0  0  0  0  0  0  0
   59.2140   32.0480   45.5190 C   0  0  0  0  0  0  0  0  0  0  0  0
   59.6915   31.3920   44.7763 H   0  0  0  0  0  0  0  0  0  0  0  0
   59.9350   32.4690   46.6400 C   0  0  0  0  0  0  0  0  0  0  0  0
   60.9818   32.1549   46.7643 H   0  0  0  0  0  0  0  0  0  0  0  0
   59.3330   33.2920   47.6120 C   0  0  0  0  0  0  0  0  0  0  0  0
   60.0820   33.7710   48.8080 C   0  0  0  0  0  0  0  0  0  0  0  0
   61.1880   34.3490   48.6220 O   0  0  0  0  0  0  0  0  0  0  0  0
   59.5920   33.5540   50.1620 N   0  0  1  0  0  0  0  0  0  0  0  0
   58.9490   34.3490   50.3830 H   0  0  0  0  0  0  0  0  0  0  0  0
   58.7570   32.3360   50.2810 C   0  0  0  0  0  0  0  0  0  0  0  0
   57.8328   32.4926   49.7054 H   0  0  0  0  0  0  0  0  0  0  0  0
   58.5673   32.1838   51.3538 H   0  0  0  0  0  0  0  0  0  0  0  0
   59.4260   31.0800   49.7730 C   0  0  0  0  0  0  0  0  0  0  0  0
   58.8580   30.3600   48.7060 C   0  0  0  0  0  0  0  0  0  0  0  0
   57.9764   30.7606   48.1842 H   0  0  0  0  0  0  0  0  0  0  0  0
   59.4070   29.1390   48.3050 C   0  0  0  0  0  0  0  0  0  0  0  0
   58.9655   28.5878   47.4617 H   0  0  0  0  0  0  0  0  0  0  0  0
   60.5160   28.6190   48.9750 C   0  0  0  0  0  0  0  0  0  0  0  0
   60.9376   27.6498   48.6703 H   0  0  0  0  0  0  0  0  0  0  0  0
   61.0900   29.3280   50.0310 C   0  0  0  0  0  0  0  0  0  0  0  0
   61.9589   28.9116   50.5618 H   0  0  0  0  0  0  0  0  0  0  0  0
   60.5650   30.5670   50.4180 C   0  0  0  0  0  0  0  0  0  0  0  0
   61.1880   31.2790   51.4400 O   0  0  0  0  0  0  0  0  0  0  0  0
   61.7170   32.5830   51.2330 C   0  0  0  0  0  0  0  0  0  0  0  0
   62.2482   32.5967   50.2699 H   0  0  0  0  0  0  0  0  0  0  0  0
   62.3884   32.8028   52.0761 H   0  0  0  0  0  0  0  0  0  0  0  0
   60.6360   33.6740   51.2110 C   0  0  0  0  0  0  0  0  0  0  0  0
   61.1407   34.6412   51.0705 H   0  0  0  0  0  0  0  0  0  0  0  0
   60.1006   33.5712   52.1664 H   0  0  0  0  0  0  0  0  0  0  0  0
   57.9980   33.6910   47.4250 C   0  0  0  0  0  0  0  0  0  0  0  0
   57.5145   34.3400   48.1700 H   0  0  0  0  0  0  0  0  0  0  0  0
   57.2790   33.2720   46.3030 C   0  0  0  0  0  0  0  0  0  0  0  0
   56.2313   33.5828   46.1771 H   0  0  0  0  0  0  0  0  0  0  0  0
   56.3800   28.6240   45.3790 N   0  0  0  0  0  0  0  0  0  0  0  0
   56.9840   27.4410   45.6790 C   0  0  0  0  0  0  0  0  0  0  0  0
   56.2820   26.3990   46.3740 N   0  0  0  0  0  0  0  0  0  0  0  0
   55.6070   25.3930   45.8870 C   0  0  0  0  0  0  0  0  0  0  0  0
   54.2800   25.5700   45.6450 N   0  0  0  0  0  0  0  0  0  0  0  0
   53.4910   24.5840   45.1430 C   0  0  0  0  0  0  0  0  0  0  0  0
   52.4235   24.7754   44.9591 H   0  0  0  0  0  0  0  0  0  0  0  0
   54.0310   23.3320   44.8610 C   0  0  0  0  0  0  0  0  0  0  0  0
   53.4002   22.5394   44.4323 H   0  0  0  0  0  0  0  0  0  0  0  0
   55.3840   23.0910   45.1280 C   0  0  0  0  0  0  0  0  0  0  0  0
   55.9880   21.7540   44.8160 C   0  0  0  0  0  0  0  0  0  0  0  0
   56.2245   21.2306   45.7541 H   0  0  0  0  0  0  0  0  0  0  0  0
   55.2727   21.1557   44.2325 H   0  0  0  0  0  0  0  0  0  0  0  0
   56.9097   21.8952   44.2325 H   0  0  0  0  0  0  0  0  0  0  0  0
   56.1820   24.1270   45.6370 C   0  0  0  0  0  0  0  0  0  0  0  0
   57.2492   23.9543   45.8402 H   0  0  0  0  0  0  0  0  0  0  0  0
   58.3430   27.2790   45.4020 C   0  0  0  0  0  0  0  0  0  0  0  0
   58.8620   26.3467   45.6692 H   0  0  0  0  0  0  0  0  0  0  0  0
  1  2  1  0
  2  3  1  0
  3  4  1  0
  4  5  2  3
  5  6  1  0
  6  7  1  0
  6  8  1  0
  6  9  1  0
  9 10  2  0
 10 11  1  0
 10 12  1  0
 12 13  1  0
 12 14  2  0
 14 15  1  0
 15 16  2  0
 15 17  1  0
 17 18  1  1
 17 19  1  0
 19 20  1  0
 19 21  1  0
 19 22  1  0
 22 23  2  0
 23 24  1  0
 23 25  1  0
 25 26  1  0
 25 27  2  0
 27 28  1  0
 27 29  1  0
 29 30  1  0
 29 31  2  0
 31 32  1  0
 32 33  1  0
 33 34  1  0
 33 35  1  0
 33 36  1  0
 36 37  1  0
 36 38  1  0
 14 39  1  0
 39 40  1  0
 39 41  2  0
 41 42  1  0
  4 43  1  0
 43 44  2  0
 44 45  1  0
 45 46  2  0
 46 47  1  0
 47 48  1  0
 48 49  1  0
 48 50  2  0
 50 51  1  0
 50 52  1  0
 52 53  1  0
 53 54  1  0
 53 55  1  0
 53 56  1  0
 52 57  2  0
 57 58  1  0
 44 59  1  0
 59 60  1  0
 59  2  2  0
 41  9  1  0
 57 46  1  0
 36 17  1  0
 31 22  1  0
M  CHG  3   3  -1  17   1  47  -1
M  END
>  <UniqueID>  (57) 
51

>  <SMILES>  (57) 
Cc1cc[n-]/c(=N/c2cc[n-]c(=NCc3ccc(C(=O)[N@@H+]4CCOc5ccccc5C4)cc3)n2)c1

>  <Energy>  (57) 
94.56528060793069

>  <Genealogy>  (57) 
Cc1cc[n-]c(=Nc2cc[n-]c(=NCc3ccc(C(=O)[NH+]4CCOc5ccccc5C4)cc3)n2)c1 (protonated)
Cc1cc[n-]c(=Nc2cc[n-]c(=NCc3ccc(C(=O)[N@@H+]4CCOc5ccccc5C4)cc3)n2)c1 (chirality)
Cc1cc[n-]/c(=N/c2cc[n-]c(=NCc3ccc(C(=O)[N@@H+]4CCOc5ccccc5C4)cc3)n2)c1 (cis-trans isomerization)
Cc1cc[n-]/c(=N/c2cc[n-]c(=NCc3ccc(C(=O)[N@@H+]4CCOc5ccccc5C4)cc3)n2)c1 (3D coordinates assigned)
Cc1cc[n-]/c(=N/c2cc[n-]c(=NCc3ccc(C(=O)[N@@H+]4CCOc5ccccc5C4)cc3)n2)c1 (nonaromatic ring conformer: 94.56528060793069 kcal/mol)

>  <smiles>  (57) 
Cc1cc[nH]c(=Nc2cc[nH]c(=NCc3ccc(C(=O)N4CCOc5ccccc5C4)cc3)n2)c1

>  <score_type>  (57) 
oracle

>  <origin>  (57) 
adg

>  <m_score__min__energy>  (57) 
-9.7100000000000009

>  <m_primary>  (57) 
energy

$$$$
57:0
     RDKit          3D

 49 51  0  0  0  0  0  0  0  0999 V2000
   59.1720   33.2450   51.1700 C   0  0  0  0  0  0  0  0  0  0  0  0
   58.1960   32.1320   50.8050 C   0  0  0  0  0  0  0  0  0  0  0  0
   58.5970   31.4870   49.5170 C   0  0  0  0  0  0  0  0  0  0  0  0
   59.1500   30.2290   49.3760 C   0  0  0  0  0  0  0  0  0  0  0  0
   59.3680   30.0660   48.0240 C   0  0  0  0  0  0  0  0  0  0  0  0
   58.9420   31.2400   47.4320 C   0  0  0  0  0  0  0  0  0  0  0  0
   58.9580   31.5360   45.9640 C   0  0  0  0  0  0  0  0  0  0  0  0
   57.5750   31.6620   45.4490 N   0  0  0  0  0  0  0  0  0  0  0  0
   57.3170   33.0490   44.9880 C   0  0  0  0  0  0  0  0  0  0  0  0
   57.7700   34.0930   46.0240 C   0  0  0  0  0  0  0  0  0  0  0  0
   59.1150   34.7530   45.6790 C   0  0  0  0  0  0  0  0  0  0  0  0
   60.1500   34.4100   46.6500 N   0  0  0  0  0  0  0  0  0  0  0  0
   61.3250   33.8130   46.3770 C   0  0  0  0  0  0  0  0  0  0  0  0
   61.9890   33.6040   47.5680 C   0  0  0  0  0  0  0  0  0  0  0  0
   61.1420   34.1090   48.5370 C   0  0  0  0  0  0  0  0  0  0  0  0
   60.0250   34.5880   47.9550 N   0  0  0  0  0  0  0  0  0  0  0  0
   57.3580   30.7070   44.3360 C   0  0  0  0  0  0  0  0  0  0  0  0
   57.5370   29.2790   44.7960 C   0  0  0  0  0  0  0  0  0  0  0  0
   58.8240   28.7150   44.8050 C   0  0  0  0  0  0  0  0  0  0  0  0
   59.0200   27.4000   45.2330 C   0  0  0  0  0  0  0  0  0  0  0  0
   57.9330   26.6370   45.6690 C   0  0  0  0  0  0  0  0  0  0  0  0
   56.6480   27.1880   45.6730 C   0  0  0  0  0  0  0  0  0  0  0  0
   56.4430   28.5020   45.2370 C   0  0  0  0  0  0  0  0  0  0  0  0
   55.1510   29.0200   45.2410 O   0  0  0  0  0  0  0  0  0  0  0  0
   58.4890   32.0680   48.3440 O   0  0  0  0  0  0  0  0  0  0  0  0
   59.2430   33.3260   52.2647 H   0  0  0  0  0  0  0  0  0  0  0  0
   60.1639   33.0138   50.7543 H   0  0  0  0  0  0  0  0  0  0  0  0
   58.8133   34.1982   50.7543 H   0  0  0  0  0  0  0  0  0  0  0  0
   58.1941   31.3756   51.6037 H   0  0  0  0  0  0  0  0  0  0  0  0
   57.1907   32.5634   50.6896 H   0  0  0  0  0  0  0  0  0  0  0  0
   59.3707   29.5071   50.1761 H   0  0  0  0  0  0  0  0  0  0  0  0
   59.7927   29.1846   47.5212 H   0  0  0  0  0  0  0  0  0  0  0  0
   59.4972   32.4789   45.7900 H   0  0  0  0  0  0  0  0  0  0  0  0
   59.4613   30.7110   45.4385 H   0  0  0  0  0  0  0  0  0  0  0  0
   57.8645   33.2191   44.0492 H   0  0  0  0  0  0  0  0  0  0  0  0
   56.2327   33.1629   44.8417 H   0  0  0  0  0  0  0  0  0  0  0  0
   57.0022   34.8783   46.0861 H   0  0  0  0  0  0  0  0  0  0  0  0
   57.9035   33.5649   46.9797 H   0  0  0  0  0  0  0  0  0  0  0  0
   59.4340   34.4125   44.6828 H   0  0  0  0  0  0  0  0  0  0  0  0
   58.9761   35.8440   45.6971 H   0  0  0  0  0  0  0  0  0  0  0  0
   61.6924   33.5391   45.3770 H   0  0  0  0  0  0  0  0  0  0  0  0
   62.9748   33.1383   47.7144 H   0  0  0  0  0  0  0  0  0  0  0  0
   61.3483   34.1184   49.6174 H   0  0  0  0  0  0  0  0  0  0  0  0
   56.3361   30.8336   43.9492 H   0  0  0  0  0  0  0  0  0  0  0  0
   58.0996   30.9146   43.5505 H   0  0  0  0  0  0  0  0  0  0  0  0
   59.6844   29.3142   44.4722 H   0  0  0  0  0  0  0  0  0  0  0  0
   60.0302   26.9646   45.2270 H   0  0  0  0  0  0  0  0  0  0  0  0
   58.0886   25.6025   46.0091 H   0  0  0  0  0  0  0  0  0  0  0  0
   55.7950   26.5865   46.0201 H   0  0  0  0  0  0  0  0  0  0  0  0
  1  2  1  0
  2  3  1  0
  3  4  2  0
  4  5  1  0
  5  6  2  0
  6  7  1  0
  7  8  1  0
  8  9  1  0
  9 10  1  0
 10 11  1  0
 11 12  1  0
 12 13  1  0
 13 14  2  0
 14 15  1  0
 15 16  2  0
  8 17  1  0
 17 18  1  0
 18 19  2  0
 19 20  1  0
 20 21  2  0
 21 22  1  0
 22 23  2  0
 23 24  1  0
  6 25  1  0
 25  3  1  0
 16 12  1  0
 23 18  1  0
  1 26  1  0
  1 27  1  0
  1 28  1  0
  2 29  1  0
  2 30  1  0
  4 31  1  0
  5 32  1  0
  7 33  1  0
  7 34  1  0
  9 35  1  0
  9 36  1  0
 10 37  1  0
 10 38  1  0
 11 39  1  0
 11 40  1  0
 13 41  1  0
 14 42  1  0
 15 43  1  0
 17 44  1  0
 17 45  1  0
 19 46  1  0
 20 47  1  0
 21 48  1  0
 22 49  1  0
M  CHG  1  24  -1
M  END
>  <UniqueID>  (58) 
52

>  <SMILES>  (58) 
CCc1ccc(CN(CCCn2cccn2)Cc2ccccc2[O-])o1

>  <Energy>  (58) 
98.05580287952066

>  <Genealogy>  (58) 
CCc1ccc(CN(CCCn2cccn2)Cc2ccccc2[O-])o1 (protonated)
CCc1ccc(CN(CCCn2cccn2)Cc2ccccc2[O-])o1 (3D coordinates assigned)
CCc1ccc(CN(CCCn2cccn2)Cc2ccccc2[O-])o1 (optimized conformer: 98.05580287952066 kcal/mol)

>  <smiles>  (58) 
CCc1ccc(CN(CCCn2cccn2)Cc2ccccc2O)o1

>  <score_type>  (58) 
oracle

>  <origin>  (58) 
adg

>  <m_score__min__energy>  (58) 
-11.289999999999999

>  <m_primary>  (58) 
energy

$$$$
58:0
     RDKit          3D

 51 56  0  0  0  0  0  0  0  0999 V2000
   55.8300   30.2060   44.5260 O   0  0  0  0  0  0  0  0  0  0  0  0
   56.4380   29.3180   45.1810 C   0  0  0  0  0  0  0  0  0  0  0  0
   55.9400   28.0490   45.2530 N   0  0  0  0  0  0  0  0  0  0  0  0
   56.5770   27.0600   45.9560 C   0  0  0  0  0  0  0  0  0  0  0  0
   57.7790   27.3290   46.6350 C   0  0  0  0  0  0  0  0  0  0  0  0
   58.2770   28.6280   46.5560 C   0  0  0  0  0  0  0  0  0  0  0  0
   59.3980   29.1100   47.1170 N   0  0  0  0  0  0  0  0  0  0  0  0
   59.4590   30.4170   46.7550 C   0  0  0  0  0  0  0  0  0  0  0  0
   60.5480   31.3430   47.1610 C   0  0  0  0  0  0  0  0  0  0  0  0
   60.6470   32.6170   46.5790 C   0  0  0  0  0  0  0  0  0  0  0  0
   61.6750   33.4770   46.9610 C   0  0  0  0  0  0  0  0  0  0  0  0
   62.6040   33.0710   47.9230 C   0  0  0  0  0  0  0  0  0  0  0  0
   63.6440   33.9180   48.3260 C   0  0  0  0  0  0  0  0  0  0  0  0
   64.5620   33.4930   49.2900 C   0  0  0  0  0  0  0  0  0  0  0  0
   64.4540   32.2150   49.8670 C   0  0  0  0  0  0  0  0  0  0  0  0
   65.4320   31.7670   50.8910 C   0  0  0  0  0  0  0  0  0  0  0  0
   65.8650   32.6460   51.8980 C   0  0  0  0  0  0  0  0  0  0  0  0
   66.7850   32.2230   52.8590 C   0  0  0  0  0  0  0  0  0  0  0  0
   67.2840   30.9200   52.8290 C   0  0  0  0  0  0  0  0  0  0  0  0
   66.8680   30.0210   51.8320 C   0  0  0  0  0  0  0  0  0  0  0  0
   67.4000   28.6350   51.7970 C   0  0  0  0  0  0  0  0  0  0  0  0
   67.9160   28.0950   50.6040 C   0  0  0  0  0  0  0  0  0  0  0  0
   68.4160   26.7890   50.5740 C   0  0  0  0  0  0  0  0  0  0  0  0
   68.4080   26.0090   51.7320 C   0  0  0  0  0  0  0  0  0  0  0  0
   67.8990   26.5330   52.9230 C   0  0  0  0  0  0  0  0  0  0  0  0
   67.3970   27.8380   52.9580 C   0  0  0  0  0  0  0  0  0  0  0  0
   65.9420   30.4550   50.8660 C   0  0  0  0  0  0  0  0  0  0  0  0
   63.4080   31.3670   49.4610 C   0  0  0  0  0  0  0  0  0  0  0  0
   62.4820   31.7850   48.4920 C   0  0  0  0  0  0  0  0  0  0  0  0
   61.4660   30.9610   48.1010 N   0  0  0  0  0  0  0  0  0  0  0  0
   58.3660   30.7590   45.9570 C   0  0  0  0  0  0  0  0  0  0  0  0
   57.6290   29.6000   45.8470 C   0  0  0  0  0  0  0  0  0  0  0  0
   56.1453   26.0488   45.9895 H   0  0  0  0  0  0  0  0  0  0  0  0
   58.3035   26.5473   47.2041 H   0  0  0  0  0  0  0  0  0  0  0  0
   60.0820   28.5710   47.6930 H   0  0  0  0  0  0  0  0  0  0  0  0
   59.9144   32.9357   45.8229 H   0  0  0  0  0  0  0  0  0  0  0  0
   61.7552   34.4750   46.5055 H   0  0  0  0  0  0  0  0  0  0  0  0
   63.7384   34.9202   47.8826 H   0  0  0  0  0  0  0  0  0  0  0  0
   65.3764   34.1641   49.6003 H   0  0  0  0  0  0  0  0  0  0  0  0
   65.4764   33.6746   51.9294 H   0  0  0  0  0  0  0  0  0  0  0  0
   67.1179   32.9193   53.6428 H   0  0  0  0  0  0  0  0  0  0  0  0
   68.0077   30.5944   53.5907 H   0  0  0  0  0  0  0  0  0  0  0  0
   67.9261   28.7046   49.6884 H   0  0  0  0  0  0  0  0  0  0  0  0
   68.8162   26.3757   49.6364 H   0  0  0  0  0  0  0  0  0  0  0  0
   68.8022   24.9824   51.7067 H   0  0  0  0  0  0  0  0  0  0  0  0
   67.8931   25.9180   53.8350 H   0  0  0  0  0  0  0  0  0  0  0  0
   66.9972   28.2445   53.8987 H   0  0  0  0  0  0  0  0  0  0  0  0
   65.6118   29.7596   50.0802 H   0  0  0  0  0  0  0  0  0  0  0  0
   63.3144   30.3659   49.9073 H   0  0  0  0  0  0  0  0  0  0  0  0
   61.3840   30.0190   48.5480 H   0  0  0  0  0  0  0  0  0  0  0  0
   58.1419   31.7400   45.5128 H   0  0  0  0  0  0  0  0  0  0  0  0
  1  2  2  0
  2  3  1  0
  3  4  1  0
  4  5  2  0
  5  6  1  0
  6  7  1  0
  7  8  1  0
  8  9  1  0
  9 10  2  0
 10 11  1  0
 11 12  2  0
 12 13  1  0
 13 14  2  0
 14 15  1  0
 15 16  1  0
 16 17  2  0
 17 18  1  0
 18 19  2  0
 19 20  1  0
 20 21  1  0
 21 22  2  0
 22 23  1  0
 23 24  2  0
 24 25  1  0
 25 26  2  0
 20 27  2  0
 15 28  2  0
 28 29  1  0
 29 30  2  0
  8 31  2  0
 31 32  1  0
 32  2  1  0
 32  6  2  0
 30  9  1  0
 29 12  1  0
 27 16  1  0
 26 21  1  0
  4 33  1  0
  5 34  1  0
  7 35  1  0
 10 36  1  0
 11 37  1  0
 13 38  1  0
 14 39  1  0
 17 40  1  0
 18 41  1  0
 19 42  1  0
 22 43  1  0
 23 44  1  0
 24 45  1  0
 25 46  1  0
 26 47  1  0
 27 48  1  0
 28 49  1  0
 30 50  1  0
 31 51  1  0
M  CHG  2   3  -1  30   1
M  END
>  <UniqueID>  (59) 
53

>  <SMILES>  (59) 
O=c1[n-]ccc2[nH]c(-c3ccc4ccc(-c5cccc(-c6ccccc6)c5)cc4[nH+]3)cc12

>  <Energy>  (59) 
110.85518175267221

>  <Genealogy>  (59) 
O=c1[n-]ccc2[nH]c(-c3ccc4ccc(-c5cccc(-c6ccccc6)c5)cc4[nH+]3)cc12 (protonated)
O=c1[n-]ccc2[nH]c(-c3ccc4ccc(-c5cccc(-c6ccccc6)c5)cc4[nH+]3)cc12 (3D coordinates assigned)
O=c1[n-]ccc2[nH]c(-c3ccc4ccc(-c5cccc(-c6ccccc6)c5)cc4[nH+]3)cc12 (optimized conformer: 110.85518175267221 kcal/mol)

>  <smiles>  (59) 
O=c1[nH]ccc2[nH]c(-c3ccc4ccc(-c5cccc(-c6ccccc6)c5)cc4n3)cc12

>  <score_type>  (59) 
oracle

>  <origin>  (59) 
adg

>  <m_score__min__energy>  (59) 
-10.460000000000001

>  <m_primary>  (59) 
energy

$$$$
59:0
     RDKit          3D

 35 37  0  0  0  0  0  0  0  0999 V2000
   63.8610   32.1460   48.9790 C   0  0  0  0  0  0  0  0  0  0  0  0
   62.6190   32.0120   48.2310 N   0  0  0  0  0  0  0  0  0  0  0  0
   61.7660   33.0090   47.9380 C   0  0  0  0  0  0  0  0  0  0  0  0
   60.7600   32.4990   47.1400 C   0  0  0  0  0  0  0  0  0  0  0  0
   59.6770   33.2820   46.5070 C   0  0  0  0  0  0  0  0  0  0  0  0
   59.9580   34.2220   45.5020 C   0  0  0  0  0  0  0  0  0  0  0  0
   58.9140   34.9480   44.9260 C   0  0  0  0  0  0  0  0  0  0  0  0
   57.6360   34.7560   45.3460 N   0  0  0  0  0  0  0  0  0  0  0  0
   57.3360   33.8660   46.3290 C   0  0  0  0  0  0  0  0  0  0  0  0
   58.3500   33.1180   46.9320 C   0  0  0  0  0  0  0  0  0  0  0  0
   61.0780   31.1490   46.9910 C   0  0  0  0  0  0  0  0  0  0  0  0
   60.3040   30.1030   46.2880 C   0  0  0  0  0  0  0  0  0  0  0  0
   60.8120   28.7980   46.2000 C   0  0  0  0  0  0  0  0  0  0  0  0
   60.0870   27.8010   45.5430 C   0  0  0  0  0  0  0  0  0  0  0  0
   58.8450   28.0960   44.9740 C   0  0  0  0  0  0  0  0  0  0  0  0
   58.3200   29.3910   45.0660 C   0  0  0  0  0  0  0  0  0  0  0  0
   56.7530   29.7720   44.3600 S   0  0  0  0  0  0  0  0  0  0  0  0
   55.5180   28.8860   45.1830 N   0  0  0  0  0  0  0  0  0  0  0  0
   56.7570   29.4030   42.9040 O   0  0  0  0  0  0  0  0  0  0  0  0
   56.4710   31.2420   44.5020 O   0  0  0  0  0  0  0  0  0  0  0  0
   59.0410   30.3850   45.7410 C   0  0  0  0  0  0  0  0  0  0  0  0
   62.2230   30.8880   47.6560 N   0  0  0  0  0  0  0  0  0  0  0  0
   63.6441   32.1226   50.0571 H   0  0  0  0  0  0  0  0  0  0  0  0
   64.5350   31.3154   48.7225 H   0  0  0  0  0  0  0  0  0  0  0  0
   64.3423   33.1013   48.7225 H   0  0  0  0  0  0  0  0  0  0  0  0
   61.8539   34.0522   48.2758 H   0  0  0  0  0  0  0  0  0  0  0  0
   60.9942   34.3851   45.1708 H   0  0  0  0  0  0  0  0  0  0  0  0
   59.1264   35.6772   44.1303 H   0  0  0  0  0  0  0  0  0  0  0  0
   56.2922   33.7346   46.6503 H   0  0  0  0  0  0  0  0  0  0  0  0
   58.1097   32.4052   47.7346 H   0  0  0  0  0  0  0  0  0  0  0  0
   61.7864   28.5588   46.6508 H   0  0  0  0  0  0  0  0  0  0  0  0
   60.4944   26.7816   45.4733 H   0  0  0  0  0  0  0  0  0  0  0  0
   58.2790   27.3097   44.4531 H   0  0  0  0  0  0  0  0  0  0  0  0
   54.6070   29.3440   44.9510 H   0  0  0  0  0  0  0  0  0  0  0  0
   58.6148   31.3939   45.8434 H   0  0  0  0  0  0  0  0  0  0  0  0
  1  2  1  0
  2  3  1  0
  3  4  2  0
  4  5  1  0
  5  6  2  0
  6  7  1  0
  7  8  2  0
  8  9  1  0
  9 10  2  0
  4 11  1  0
 11 12  1  0
 12 13  2  0
 13 14  1  0
 14 15  2  0
 15 16  1  0
 16 17  1  0
 17 18  1  0
 17 19  2  0
 17 20  2  0
 16 21  2  0
 11 22  2  0
 22  2  1  0
 10  5  1  0
 21 12  1  0
  1 23  1  0
  1 24  1  0
  1 25  1  0
  3 26  1  0
  6 27  1  0
  7 28  1  0
  9 29  1  0
 10 30  1  0
 13 31  1  0
 14 32  1  0
 15 33  1  0
 18 34  1  0
 21 35  1  0
M  CHG  1  18  -1
M  END
>  <UniqueID>  (60) 
54

>  <SMILES>  (60) 
Cn1cc(-c2ccncc2)c(-c2cccc(S([NH-])(=O)=O)c2)n1

>  <Energy>  (60) 
74.2670574070183

>  <Genealogy>  (60) 
Cn1cc(-c2ccncc2)c(-c2cccc(S([NH-])(=O)=O)c2)n1 (protonated)
Cn1cc(-c2ccncc2)c(-c2cccc(S([NH-])(=O)=O)c2)n1 (3D coordinates assigned)
Cn1cc(-c2ccncc2)c(-c2cccc(S([NH-])(=O)=O)c2)n1 (optimized conformer: 74.2670574070183 kcal/mol)

>  <smiles>  (60) 
Cn1cc(-c2ccncc2)c(-c2cccc(S(N)(=O)=O)c2)n1

>  <score_type>  (60) 
oracle

>  <origin>  (60) 
adg

>  <m_score__min__energy>  (60) 
-10.75

>  <m_primary>  (60) 
energy

$$$$
60:0
     RDKit          3D

 27 28  0  0  0  0  0  0  0  0999 V2000
   55.1350   26.4200   46.0430 N   0  0  0  0  0  0  0  0  0  0  0  0
   56.2590   25.6650   46.4900 C   0  0  0  0  0  0  0  0  0  0  0  0
   56.0710   24.5500   47.0460 O   0  0  0  0  0  0  0  0  0  0  0  0
   57.6360   26.1750   46.3060 C   0  0  0  0  0  0  0  0  0  0  0  0
   58.7660   25.3380   46.3390 C   0  0  0  0  0  0  0  0  0  0  0  0
   59.9690   26.0100   46.1610 C   0  0  0  0  0  0  0  0  0  0  0  0
   59.6430   27.6470   45.9670 S   0  0  0  0  0  0  0  0  0  0  0  0
   57.9690   27.5130   46.0990 C   0  0  0  0  0  0  0  0  0  0  0  0
   57.0290   28.5940   46.0470 N   0  0  0  0  0  0  0  0  0  0  0  0
   56.4200   29.1430   44.8730 C   0  0  0  0  0  0  0  0  0  0  0  0
   55.1750   29.3180   44.8060 O   0  0  0  0  0  0  0  0  0  0  0  0
   57.2760   29.4610   43.6890 C   0  0  0  0  0  0  0  0  0  0  0  0
   57.0400   31.1950   43.1670 S   0  0  0  0  0  0  0  0  0  0  0  0
   57.6020   31.9010   44.7150 C   0  0  0  0  0  0  0  0  0  0  0  0
   58.7050   31.3980   45.3300 N   0  0  0  0  0  0  0  0  0  0  0  0
   59.1380   31.9070   46.5120 C   0  0  0  0  0  0  0  0  0  0  0  0
   58.4500   32.9640   47.1070 C   0  0  0  0  0  0  0  0  0  0  0  0
   57.3250   33.4730   46.4590 C   0  0  0  0  0  0  0  0  0  0  0  0
   56.9210   32.9350   45.2780 N   0  0  0  0  0  0  0  0  0  0  0  0
   55.1680   27.4630   46.0060 H   0  0  0  0  0  0  0  0  0  0  0  0
   58.7030   24.2505   46.4918 H   0  0  0  0  0  0  0  0  0  0  0  0
   60.9672   25.5480   46.1491 H   0  0  0  0  0  0  0  0  0  0  0  0
   58.3319   29.3047   43.9547 H   0  0  0  0  0  0  0  0  0  0  0  0
   56.9890   28.7999   42.8580 H   0  0  0  0  0  0  0  0  0  0  0  0
   60.0299   31.4863   46.9994 H   0  0  0  0  0  0  0  0  0  0  0  0
   58.7869   33.3864   48.0652 H   0  0  0  0  0  0  0  0  0  0  0  0
   56.7651   34.3091   46.9032 H   0  0  0  0  0  0  0  0  0  0  0  0
  1  2  1  0
  2  3  2  0
  2  4  1  0
  4  5  1  0
  5  6  2  0
  6  7  1  0
  7  8  1  0
  8  9  1  0
  9 10  1  0
 10 11  2  0
 10 12  1  0
 12 13  1  0
 13 14  1  0
 14 15  2  0
 15 16  1  0
 16 17  2  0
 17 18  1  0
 18 19  2  0
  8  4  2  0
 19 14  1  0
  1 20  1  0
  5 21  1  0
  6 22  1  0
 12 23  1  0
 12 24  1  0
 16 25  1  0
 17 26  1  0
 18 27  1  0
M  CHG  2   1  -1   9  -1
M  END
>  <UniqueID>  (61) 
55

>  <SMILES>  (61) 
[NH-]C(=O)c1ccsc1[N-]C(=O)CSc1ncccn1

>  <Energy>  (61) 
49.4199617223545

>  <Genealogy>  (61) 
[NH-]C(=O)c1ccsc1[N-]C(=O)CSc1ncccn1 (protonated)
[NH-]C(=O)c1ccsc1[N-]C(=O)CSc1ncccn1 (3D coordinates assigned)
[NH-]C(=O)c1ccsc1[N-]C(=O)CSc1ncccn1 (optimized conformer: 49.4199617223545 kcal/mol)

>  <smiles>  (61) 
NC(=O)c1ccsc1NC(=O)CSc1ncccn1

>  <score_type>  (61) 
oracle

>  <origin>  (61) 
adg

>  <m_score__min__energy>  (61) 
-12.529999999999999

>  <m_primary>  (61) 
energy

$$$$
61:0
     RDKit          3D

 63 67  0  0  0  0  0  0  0  0999 V2000
   59.0640   34.8120   48.0770 O   0  0  0  0  0  0  0  0  0  0  0  0
   59.8950   34.2120   46.9770 S   0  0  0  0  0  0  0  0  0  0  0  0
   60.1850   35.2910   45.9710 O   0  0  0  0  0  0  0  0  0  0  0  0
   58.9790   32.9200   46.1990 C   0  0  0  0  0  0  0  0  0  0  0  0
   58.7690   32.9330   44.8140 C   0  0  0  0  0  0  0  0  0  0  0  0
   58.0870   31.8830   44.1920 C   0  0  0  0  0  0  0  0  0  0  0  0
   57.5960   30.8120   44.9520 C   0  0  0  0  0  0  0  0  0  0  0  0
   56.6800   29.5100   44.1820 S   0  0  0  0  0  0  0  0  0  0  0  0
   55.3280   29.4540   44.8350 O   0  0  0  0  0  0  0  0  0  0  0  0
   56.4690   29.8620   42.7360 O   0  0  0  0  0  0  0  0  0  0  0  0
   57.4270   27.9230   44.3160 N   0  0  0  0  0  0  0  0  0  0  0  0
   57.3670   27.3650   45.6880 C   0  0  0  0  0  0  0  0  0  0  0  0
   58.6710   27.5530   46.4890 C   0  0  0  0  0  0  0  0  0  0  0  0
   59.3970   28.7590   46.0530 N   0  0  0  0  0  0  0  0  0  0  0  0
   60.5660   28.9770   46.9350 C   0  0  0  0  0  0  0  0  0  0  0  0
   60.1790   29.6810   48.2000 C   0  0  0  0  0  0  0  0  0  0  0  0
   60.9350   30.6660   48.7560 N   0  0  0  0  0  0  0  0  0  0  0  0
   60.2050   31.0220   49.8230 C   0  0  0  0  0  0  0  0  0  0  0  0
   60.4950   32.0050   50.7660 C   0  0  0  0  0  0  0  0  0  0  0  0
   59.5640   32.2090   51.8030 C   0  0  0  0  0  0  0  0  0  0  0  0
   58.3820   31.4360   51.8660 C   0  0  0  0  0  0  0  0  0  0  0  0
   58.1240   30.4510   50.8930 C   0  0  0  0  0  0  0  0  0  0  0  0
   59.0680   30.2770   49.8850 C   0  0  0  0  0  0  0  0  0  0  0  0
   59.0250   29.4150   48.8620 N   0  0  0  0  0  0  0  0  0  0  0  0
   59.8110   28.6450   44.6340 C   0  0  0  0  0  0  0  0  0  0  0  0
   58.7920   27.8870   43.7610 C   0  0  0  0  0  0  0  0  0  0  0  0
   57.7700   30.8220   46.3440 C   0  0  0  0  0  0  0  0  0  0  0  0
   58.4670   31.8620   46.9630 C   0  0  0  0  0  0  0  0  0  0  0  0
   61.4010   33.6220   47.6380 N   0  0  0  0  0  0  0  0  0  0  0  0
   61.6890   34.3000   48.9180 C   0  0  0  0  0  0  0  0  0  0  0  0
   63.1080   33.9840   49.4430 C   0  0  0  0  0  0  0  0  0  0  0  0
   63.7600   32.8310   48.6720 C   0  0  0  0  0  0  0  0  0  0  0  0
   63.7760   33.1160   47.1610 C   0  0  0  0  0  0  0  0  0  0  0  0
   62.5000   33.8350   46.6830 C   0  0  0  0  0  0  0  0  0  0  0  0
   59.1430   33.7744   44.2122 H   0  0  0  0  0  0  0  0  0  0  0  0
   57.9351   31.8972   43.1026 H   0  0  0  0  0  0  0  0  0  0  0  0
   56.8470   27.2990   43.7060 H   0  0  0  0  0  0  0  0  0  0  0  0
   56.5506   27.8639   46.2308 H   0  0  0  0  0  0  0  0  0  0  0  0
   57.2031   26.2818   45.5886 H   0  0  0  0  0  0  0  0  0  0  0  0
   58.4251   27.6490   47.5569 H   0  0  0  0  0  0  0  0  0  0  0  0
   59.3147   26.6780   46.3155 H   0  0  0  0  0  0  0  0  0  0  0  0
   61.0077   28.0023   47.1897 H   0  0  0  0  0  0  0  0  0  0  0  0
   61.2895   29.6078   46.3977 H   0  0  0  0  0  0  0  0  0  0  0  0
   61.4177   32.6005   50.7032 H   0  0  0  0  0  0  0  0  0  0  0  0
   59.7578   32.9746   52.5687 H   0  0  0  0  0  0  0  0  0  0  0  0
   57.6603   31.6047   52.6789 H   0  0  0  0  0  0  0  0  0  0  0  0
   57.2093   29.8411   50.9284 H   0  0  0  0  0  0  0  0  0  0  0  0
   59.9364   29.6581   44.2244 H   0  0  0  0  0  0  0  0  0  0  0  0
   60.7489   28.0707   44.6133 H   0  0  0  0  0  0  0  0  0  0  0  0
   58.7770   28.3444   42.7607 H   0  0  0  0  0  0  0  0  0  0  0  0
   59.1067   26.8337   43.7230 H   0  0  0  0  0  0  0  0  0  0  0  0
   57.3546   30.0050   46.9522 H   0  0  0  0  0  0  0  0  0  0  0  0
   58.6146   31.8509   48.0530 H   0  0  0  0  0  0  0  0  0  0  0  0
   61.6002   35.3865   48.7706 H   0  0  0  0  0  0  0  0  0  0  0  0
   60.9659   33.9350   49.6622 H   0  0  0  0  0  0  0  0  0  0  0  0
   63.7345   34.8819   49.3366 H   0  0  0  0  0  0  0  0  0  0  0  0
   63.0217   33.6827   50.4974 H   0  0  0  0  0  0  0  0  0  0  0  0
   64.7940   32.7022   49.0245 H   0  0  0  0  0  0  0  0  0  0  0  0
   63.1749   31.9165   48.8493 H   0  0  0  0  0  0  0  0  0  0  0  0
   64.6453   33.7495   46.9306 H   0  0  0  0  0  0  0  0  0  0  0  0
   63.8306   32.1493   46.6390 H   0  0  0  0  0  0  0  0  0  0  0  0
   62.7020   34.9129   46.5979 H   0  0  0  0  0  0  0  0  0  0  0  0
   62.2061   33.4263   45.7049 H   0  0  0  0  0  0  0  0  0  0  0  0
  1  2  2  0
  2  3  2  0
  2  4  1  0
  4  5  2  0
  5  6  1  0
  6  7  2  0
  7  8  1  0
  8  9  2  0
  8 10  2  0
  8 11  1  0
 11 12  1  0
 12 13  1  0
 13 14  1  0
 14 15  1  0
 15 16  1  0
 16 17  2  0
 17 18  1  0
 18 19  2  0
 19 20  1  0
 20 21  2  0
 21 22  1  0
 22 23  2  0
 23 24  1  0
 14 25  1  0
 25 26  1  0
  7 27  1  0
 27 28  2  0
  2 29  1  0
 29 30  1  0
 30 31  1  0
 31 32  1  0
 32 33  1  0
 33 34  1  0
 28  4  1  0
 34 29  1  0
 26 11  1  0
 24 16  1  0
 23 18  1  0
  5 35  1  0
  6 36  1  0
 11 37  1  0
 12 38  1  0
 12 39  1  0
 13 40  1  0
 13 41  1  0
 15 42  1  0
 15 43  1  0
 19 44  1  0
 20 45  1  0
 21 46  1  0
 22 47  1  0
 25 48  1  0
 25 49  1  0
 26 50  1  0
 26 51  1  0
 27 52  1  0
 28 53  1  0
 30 54  1  0
 30 55  1  0
 31 56  1  0
 31 57  1  0
 32 58  1  0
 32 59  1  0
 33 60  1  0
 33 61  1  0
 34 62  1  0
 34 63  1  0
M  CHG  2  11   1  24  -1
M  END
>  <UniqueID>  (62) 
56

>  <SMILES>  (62) 
O=S(=O)(c1ccc(S(=O)(=O)[NH+]2CCN(Cc3nc4ccccc4[n-]3)CC2)cc1)N1CCCCC1

>  <Energy>  (62) 
110.74562190245713

>  <Genealogy>  (62) 
O=S(=O)(c1ccc(S(=O)(=O)[NH+]2CCN(Cc3nc4ccccc4[n-]3)CC2)cc1)N1CCCCC1 (protonated)
O=S(=O)(c1ccc(S(=O)(=O)[NH+]2CCN(Cc3nc4ccccc4[n-]3)CC2)cc1)N1CCCCC1 (3D coordinates assigned)
O=S(=O)(c1ccc(S(=O)(=O)[NH+]2CCN(Cc3nc4ccccc4[n-]3)CC2)cc1)N1CCCCC1 (nonaromatic ring conformer: 110.74562190245713 kcal/mol)

>  <smiles>  (62) 
O=S(=O)(c1ccc(S(=O)(=O)N2CCN(Cc3nc4ccccc4[nH]3)CC2)cc1)N1CCCCC1

>  <score_type>  (62) 
oracle

>  <origin>  (62) 
adg

>  <m_score__min__energy>  (62) 
-11.33

>  <m_primary>  (62) 
energy

$$$$
62:0
     RDKit          3D

 97101  0  0  0  0  0  0  0  0999 V2000
   57.5208   32.2290   49.3339 H   0  0  0  0  0  0  0  0  0  0  0  0
   58.5480   32.0430   48.9870 C   0  0  0  0  0  0  0  0  0  0  0  0
   59.0140   30.7790   49.0800 C   0  0  0  0  0  0  0  0  0  0  0  0
   58.8630   29.7660   48.0000 C   0  0  0  0  0  0  0  0  0  0  0  0
   59.0500   28.4060   48.3030 C   0  0  0  0  0  0  0  0  0  0  0  0
   59.2736   28.1036   49.3367 H   0  0  0  0  0  0  0  0  0  0  0  0
   58.9550   27.4410   47.3090 C   0  0  0  0  0  0  0  0  0  0  0  0
   59.1138   26.3823   47.5617 H   0  0  0  0  0  0  0  0  0  0  0  0
   58.6600   27.8000   45.9920 C   0  0  0  0  0  0  0  0  0  0  0  0
   58.6310   26.7860   45.0210 O   0  0  0  0  0  0  0  0  0  0  0  0
   58.4500   25.4050   45.3230 C   0  0  0  0  0  0  0  0  0  0  0  0
   59.3715   24.8533   45.0854 H   0  0  0  0  0  0  0  0  0  0  0  0
   58.2205   25.2893   46.3926 H   0  0  0  0  0  0  0  0  0  0  0  0
   57.2940   24.8510   44.4890 C   0  0  0  0  0  0  0  0  0  0  0  0
   56.4583   24.5999   45.1587 H   0  0  0  0  0  0  0  0  0  0  0  0
   56.9949   25.6190   43.7605 H   0  0  0  0  0  0  0  0  0  0  0  0
   57.6960   23.6350   43.7440 N   0  0  0  0  0  0  0  0  0  0  0  0
   56.5210   22.8920   43.2150 C   0  0  0  0  0  0  0  0  0  0  0  0
   55.6964   22.9654   43.9393 H   0  0  0  0  0  0  0  0  0  0  0  0
   56.2370   23.3383   42.2505 H   0  0  0  0  0  0  0  0  0  0  0  0
   56.8490   21.4090   42.9810 C   0  0  0  0  0  0  0  0  0  0  0  0
   55.9605   20.9084   42.5689 H   0  0  0  0  0  0  0  0  0  0  0  0
   57.6950   21.3520   42.2803 H   0  0  0  0  0  0  0  0  0  0  0  0
   57.2460   20.7250   44.2440 N   0  0  0  0  0  0  0  0  0  0  0  0
   57.9400   19.9790   43.9920 H   0  0  0  0  0  0  0  0  0  0  0  0
   56.0860   20.0540   44.8590 C   0  0  0  0  0  0  0  0  0  0  0  0
   56.1720   20.1037   45.9545 H   0  0  0  0  0  0  0  0  0  0  0  0
   55.1606   20.5563   44.5407 H   0  0  0  0  0  0  0  0  0  0  0  0
   56.0600   19.0014   44.5407 H   0  0  0  0  0  0  0  0  0  0  0  0
   57.8970   21.6300   45.2280 C   0  0  0  0  0  0  0  0  0  0  0  0
   57.1273   22.0414   45.8975 H   0  0  0  0  0  0  0  0  0  0  0  0
   58.6391   21.0461   45.7922 H   0  0  0  0  0  0  0  0  0  0  0  0
   58.6270   22.7910   44.5360 C   0  0  0  0  0  0  0  0  0  0  0  0
   59.1091   23.4156   45.3024 H   0  0  0  0  0  0  0  0  0  0  0  0
   59.3713   22.3646   43.8474 H   0  0  0  0  0  0  0  0  0  0  0  0
   58.4750   29.1730   45.6650 C   0  0  0  0  0  0  0  0  0  0  0  0
   58.3030   29.6560   44.2440 C   0  0  0  0  0  0  0  0  0  0  0  0
   58.1836   28.7854   43.5824 H   0  0  0  0  0  0  0  0  0  0  0  0
   59.1940   30.2386   43.9669 H   0  0  0  0  0  0  0  0  0  0  0  0
   57.0730   30.5610   44.1040 C   0  0  0  0  0  0  0  0  0  0  0  0
   57.1777   31.1714   43.1949 H   0  0  0  0  0  0  0  0  0  0  0  0
   57.0081   31.2027   44.9951 H   0  0  0  0  0  0  0  0  0  0  0  0
   55.7920   29.7360   44.0060 C   0  0  0  0  0  0  0  0  0  0  0  0
   55.4284   29.5018   45.0174 H   0  0  0  0  0  0  0  0  0  0  0  0
   55.0260   30.3110   43.4650 H   0  0  0  0  0  0  0  0  0  0  0  0
   55.9987   28.8008   43.4650 H   0  0  0  0  0  0  0  0  0  0  0  0
   58.5270   30.1330   46.6880 C   0  0  0  0  0  0  0  0  0  0  0  0
   58.3018   31.1849   46.4584 H   0  0  0  0  0  0  0  0  0  0  0  0
   59.9150   30.4480   50.2050 C   0  0  0  0  0  0  0  0  0  0  0  0
   61.2480   30.8820   50.1990 C   0  0  0  0  0  0  0  0  0  0  0  0
   61.6528   31.3909   49.3118 H   0  0  0  0  0  0  0  0  0  0  0  0
   62.0680   30.6720   51.3150 C   0  0  0  0  0  0  0  0  0  0  0  0
   63.3910   31.1480   51.2600 O   0  0  0  0  0  0  0  0  0  0  0  0
   63.7650   32.5010   51.0010 C   0  0  0  0  0  0  0  0  0  0  0  0
   63.1783   33.1717   51.6460 H   0  0  0  0  0  0  0  0  0  0  0  0
   64.8372   32.6275   51.2116 H   0  0  0  0  0  0  0  0  0  0  0  0
   63.5000   32.8370   49.5600 C   0  0  0  0  0  0  0  0  0  0  0  0
   62.8150   33.9740   49.1430 C   0  0  0  0  0  0  0  0  0  0  0  0
   62.4721   34.7982   49.7857 H   0  0  0  0  0  0  0  0  0  0  0  0
   62.6070   33.8600   47.4830 S   0  0  0  0  0  0  0  0  0  0  0  0
   63.3950   32.4010   47.2710 C   0  0  0  0  0  0  0  0  0  0  0  0
   63.5508   31.8823   46.3136 H   0  0  0  0  0  0  0  0  0  0  0  0
   63.8170   31.9610   48.5150 C   0  0  0  0  0  0  0  0  0  0  0  0
   64.3514   31.0117   48.6675 H   0  0  0  0  0  0  0  0  0  0  0  0
   61.5410   30.0120   52.4460 C   0  0  0  0  0  0  0  0  0  0  0  0
   62.1848   29.8186   53.3167 H   0  0  0  0  0  0  0  0  0  0  0  0
   60.2070   29.6040   52.4640 C   0  0  0  0  0  0  0  0  0  0  0  0
   59.7966   29.1086   53.3562 H   0  0  0  0  0  0  0  0  0  0  0  0
   59.3890   29.8240   51.3480 C   0  0  0  0  0  0  0  0  0  0  0  0
   58.0420   29.4530   51.3650 O   0  0  0  0  0  0  0  0  0  0  0  0
   57.1540   29.8350   52.4060 C   0  0  0  0  0  0  0  0  0  0  0  0
   56.4835   28.9964   52.6451 H   0  0  0  0  0  0  0  0  0  0  0  0
   57.7285   30.1051   53.3043 H   0  0  0  0  0  0  0  0  0  0  0  0
   56.3490   31.0050   51.9520 C   0  0  0  0  0  0  0  0  0  0  0  0
   55.1320   30.8470   51.6560 O   0  0  0  0  0  0  0  0  0  0  0  0
   56.9500   32.2620   51.8610 O   0  0  0  0  0  0  0  0  0  0  0  0
   57.9730   32.6830   52.7560 C   0  0  0  0  0  0  0  0  0  0  0  0
   57.5218   33.2166   53.6056 H   0  0  0  0  0  0  0  0  0  0  0  0
   58.5224   31.8057   53.1282 H   0  0  0  0  0  0  0  0  0  0  0  0
   58.9280   33.6100   52.0230 C   0  0  0  0  0  0  0  0  0  0  0  0
   59.5175   34.1822   52.7545 H   0  0  0  0  0  0  0  0  0  0  0  0
   59.6045   33.0150   51.3919 H   0  0  0  0  0  0  0  0  0  0  0  0
   58.3534   34.3039   51.3919 H   0  0  0  0  0  0  0  0  0  0  0  0
   59.3180   33.2180   48.4480 C   0  0  0  0  0  0  0  0  0  0  0  0
   59.1817   34.0810   49.1163 H   0  0  0  0  0  0  0  0  0  0  0  0
   60.3850   32.9567   48.3913 H   0  0  0  0  0  0  0  0  0  0  0  0
   58.8210   33.5680   47.0750 C   0  0  0  0  0  0  0  0  0  0  0  0
   59.6860   34.1660   46.1440 C   0  0  0  0  0  0  0  0  0  0  0  0
   60.7273   34.3828   46.4245 H   0  0  0  0  0  0  0  0  0  0  0  0
   59.2290   34.4870   44.8620 C   0  0  0  0  0  0  0  0  0  0  0  0
   59.9143   34.9456   44.1339 H   0  0  0  0  0  0  0  0  0  0  0  0
   57.9010   34.2260   44.5030 C   0  0  0  0  0  0  0  0  0  0  0  0
   57.5456   34.4709   43.4912 H   0  0  0  0  0  0  0  0  0  0  0  0
   57.0280   33.6540   45.4320 C   0  0  0  0  0  0  0  0  0  0  0  0
   55.9818   33.4589   45.1538 H   0  0  0  0  0  0  0  0  0  0  0  0
   57.4820   33.3280   46.7180 C   0  0  0  0  0  0  0  0  0  0  0  0
   56.7899   32.8839   47.4486 H   0  0  0  0  0  0  0  0  0  0  0  0
  1  2  1  0
  2  3  2  0
  3  4  1  0
  4  5  2  0
  5  6  1  0
  5  7  1  0
  7  8  1  0
  7  9  2  0
  9 10  1  0
 10 11  1  0
 11 12  1  0
 11 13  1  0
 11 14  1  0
 14 15  1  0
 14 16  1  0
 14 17  1  0
 17 18  1  0
 18 19  1  0
 18 20  1  0
 18 21  1  0
 21 22  1  0
 21 23  1  0
 21 24  1  0
 24 25  1  0
 24 26  1  0
 26 27  1  0
 26 28  1  0
 26 29  1  0
 24 30  1  0
 30 31  1  0
 30 32  1  0
 30 33  1  0
 33 34  1  0
 33 35  1  0
  9 36  1  0
 36 37  1  0
 37 38  1  0
 37 39  1  0
 37 40  1  0
 40 41  1  0
 40 42  1  0
 40 43  1  0
 43 44  1  0
 43 45  1  0
 43 46  1  0
 36 47  2  0
 47 48  1  0
  3 49  1  0
 49 50  2  0
 50 51  1  0
 50 52  1  0
 52 53  1  0
 53 54  1  0
 54 55  1  0
 54 56  1  0
 54 57  1  0
 57 58  2  0
 58 59  1  0
 58 60  1  0
 60 61  1  0
 61 62  1  0
 61 63  2  0
 63 64  1  0
 52 65  2  0
 65 66  1  0
 65 67  1  0
 67 68  1  0
 67 69  2  0
 69 70  1  0
 70 71  1  0
 71 72  1  0
 71 73  1  0
 71 74  1  0
 74 75  2  0
 74 76  1  0
 76 77  1  0
 77 78  1  0
 77 79  1  0
 77 80  1  0
 80 81  1  0
 80 82  1  0
 80 83  1  0
  2 84  1  0
 84 85  1  0
 84 86  1  0
 84 87  1  0
 87 88  2  0
 88 89  1  0
 88 90  1  0
 90 91  1  0
 90 92  2  0
 92 93  1  0
 92 94  1  0
 94 95  1  0
 94 96  2  0
 96 97  1  0
 47  4  1  0
 69 49  1  0
 96 87  1  0
 33 17  1  0
 63 57  1  0
M  CHG  1  24   1
M  END
>  <UniqueID>  (63) 
57

>  <SMILES>  (63) 
CCCc1cc(/C(=C\Cc2ccccc2)c2cc(OCc3ccsc3)ccc2OCC(=O)OCC)ccc1OCCN1CC[NH+](C)CC1

>  <Energy>  (63) 
152.05951928394785

>  <Genealogy>  (63) 
CCCc1cc(C(=CCc2ccccc2)c2cc(OCc3ccsc3)ccc2OCC(=O)OCC)ccc1OCCN1CC[NH+](C)CC1 (protonated)
CCCc1cc(/C(=C\Cc2ccccc2)c2cc(OCc3ccsc3)ccc2OCC(=O)OCC)ccc1OCCN1CC[NH+](C)CC1 (cis-trans isomerization)
CCCc1cc(/C(=C\Cc2ccccc2)c2cc(OCc3ccsc3)ccc2OCC(=O)OCC)ccc1OCCN1CC[NH+](C)CC1 (3D coordinates assigned)
CCCc1cc(/C(=C\Cc2ccccc2)c2cc(OCc3ccsc3)ccc2OCC(=O)OCC)ccc1OCCN1CC[NH+](C)CC1 (nonaromatic ring conformer: 152.05951928394785 kcal/mol)

>  <smiles>  (63) 
CCCc1cc(C(=CCc2ccccc2)c2cc(OCc3ccsc3)ccc2OCC(=O)OCC)ccc1OCCN1CCN(C)CC1

>  <score_type>  (63) 
oracle

>  <origin>  (63) 
adg

>  <m_score__min__energy>  (63) 
-9.6099999999999994

>  <m_primary>  (63) 
energy

$$$$
63:0
     RDKit          3D

 37 39  0  0  1  0  0  0  0  0999 V2000
   64.0530   33.1170   48.2230 C   0  0  0  0  0  0  0  0  0  0  0  0
   63.1260   33.7370   46.7890 S   0  0  0  0  0  0  0  0  0  0  0  0
   61.3810   33.8650   47.1240 C   0  0  0  0  0  0  0  0  0  0  0  0
   60.4710   33.9370   46.0910 C   0  0  0  0  0  0  0  0  0  0  0  0
   59.1470   34.0330   46.3820 C   0  0  0  0  0  0  0  0  0  0  0  0
   58.2470   34.1050   45.4690 N   0  0  0  0  0  0  0  0  0  0  0  0
   57.9470   33.0000   44.6240 C   0  0  0  0  0  0  0  0  0  0  0  0
   58.1360   33.0620   43.2590 C   0  0  0  0  0  0  0  0  0  0  0  0
   57.8540   32.0070   42.4130 C   0  0  0  0  0  0  0  0  0  0  0  0
   57.3550   30.8350   42.9920 C   0  0  0  0  0  0  0  0  0  0  0  0
   57.1500   30.7300   44.3540 C   0  0  0  0  0  0  0  0  0  0  0  0
   56.6280   29.4730   44.8710 C   0  0  0  0  0  0  0  0  0  0  0  0
   55.3770   29.3400   44.8980 O   0  0  0  0  0  0  0  0  0  0  0  0
   57.4350   28.4170   45.3370 N   0  0  0  0  0  0  0  0  0  0  0  0
   56.8560   27.1880   45.8410 C   0  0  0  0  0  0  0  0  0  0  0  0
   57.5620   26.2880   46.7550 C   0  0  0  0  0  0  0  0  0  0  0  0
   57.2540   25.8730   45.3160 C   0  0  0  0  0  0  0  0  0  0  0  0
   57.4470   31.8100   45.1600 C   0  0  0  0  0  0  0  0  0  0  0  0
   58.7660   34.0550   47.6690 N   0  0  0  0  0  0  0  0  0  0  0  0
   59.6780   33.9810   48.6600 C   0  0  0  0  0  0  0  0  0  0  0  0
   60.9960   33.8850   48.4120 N   0  0  0  0  0  0  0  0  0  0  0  0
   63.5596   33.4470   49.1491 H   0  0  0  0  0  0  0  0  0  0  0  0
   64.0810   32.0177   48.1941 H   0  0  0  0  0  0  0  0  0  0  0  0
   65.0797   33.5109   48.1941 H   0  0  0  0  0  0  0  0  0  0  0  0
   60.8119   33.9170   45.0454 H   0  0  0  0  0  0  0  0  0  0  0  0
   58.5288   33.9932   42.8247 H   0  0  0  0  0  0  0  0  0  0  0  0
   58.0153   32.0851   41.3277 H   0  0  0  0  0  0  0  0  0  0  0  0
   57.1201   29.9758   42.3465 H   0  0  0  0  0  0  0  0  0  0  0  0
   58.4740   28.5150   45.3210 H   0  0  0  0  0  0  0  0  0  0  0  0
   55.9034   27.7341   45.9076 H   0  0  0  0  0  0  0  0  0  0  0  0
   58.5964   26.5073   47.0582 H   0  0  0  0  0  0  0  0  0  0  0  0
   57.3635   25.8684   47.7523 H   0  0  0  0  0  0  0  0  0  0  0  0
   58.0644   25.7934   44.5764 H   0  0  0  0  0  0  0  0  0  0  0  0
   56.7389   25.0295   44.8332 H   0  0  0  0  0  0  0  0  0  0  0  0
   57.2871   31.7328   46.2456 H   0  0  0  0  0  0  0  0  0  0  0  0
   57.7700   34.1260   47.9220 H   0  0  0  0  0  0  0  0  0  0  0  0
   59.3325   33.9998   49.7042 H   0  0  0  0  0  0  0  0  0  0  0  0
  1  2  1  0
  2  3  1  0
  3  4  2  0
  4  5  1  0
  5  6  2  0
  6  7  1  0
  7  8  2  0
  8  9  1  0
  9 10  2  0
 10 11  1  0
 11 12  1  0
 12 13  2  0
 12 14  1  0
 14 15  1  0
 15 16  1  0
 16 17  1  0
 11 18  2  0
  5 19  1  0
 19 20  1  0
 20 21  2  0
 21  3  1  0
 18  7  1  0
 17 15  1  0
  1 22  1  0
  1 23  1  0
  1 24  1  0
  4 25  1  0
  8 26  1  0
  9 27  1  0
 10 28  1  0
 14 29  1  0
 15 30  1  0
 16 31  1  0
 16 32  1  0
 17 33  1  0
 17 34  1  0
 18 35  1  0
 19 36  1  0
 20 37  1  0
M  END
>  <smiles>  (64) 
CSc1cc(=Nc2cccc(C(=O)NC3CC3)c2)[nH]cn1

>  <score_type>  (64) 
oracle

>  <origin>  (64) 
adg

>  <m_score__min__energy>  (64) 
-7.7800000000000002

>  <m_primary>  (64) 
energy

$$$$
64:0
     RDKit          3D

 46 48  0  0  0  0  0  0  0  0999 V2000
   55.3810   29.3290   44.9380 O   0  0  0  0  0  0  0  0  0  0  0  0
   56.1810   30.1300   44.3870 C   0  0  0  0  0  0  0  0  0  0  0  0
   57.1820   29.6020   43.3840 C   0  0  0  0  0  0  0  0  0  0  0  0
   58.2410   28.7920   44.0120 N   0  0  0  0  0  0  0  0  0  0  0  0
   57.7950   27.4410   44.2540 C   0  0  0  0  0  0  0  0  0  0  0  0
   57.3900   27.0480   45.5430 C   0  0  0  0  0  0  0  0  0  0  0  0
   57.0040   25.7280   45.7920 C   0  0  0  0  0  0  0  0  0  0  0  0
   57.0130   24.7870   44.7550 C   0  0  0  0  0  0  0  0  0  0  0  0
   56.5390   23.0860   45.0820 S   0  0  0  0  0  0  0  0  0  0  0  0
   54.7460   23.3940   44.9580 C   0  0  0  0  0  0  0  0  0  0  0  0
   54.3420   23.3460   43.6360 F   0  0  0  0  0  0  0  0  0  0  0  0
   54.4330   24.6290   45.4970 F   0  0  0  0  0  0  0  0  0  0  0  0
   57.4190   25.1690   43.4730 C   0  0  0  0  0  0  0  0  0  0  0  0
   57.8070   26.4870   43.2200 C   0  0  0  0  0  0  0  0  0  0  0  0
   56.2330   31.4810   44.8620 N   0  0  0  0  0  0  0  0  0  0  0  0
   57.4060   32.1770   45.3010 C   0  0  0  0  0  0  0  0  0  0  0  0
   57.5420   33.5560   45.0790 C   0  0  0  0  0  0  0  0  0  0  0  0
   58.7000   34.2280   45.4750 C   0  0  0  0  0  0  0  0  0  0  0  0
   59.7300   33.5280   46.1060 C   0  0  0  0  0  0  0  0  0  0  0  0
   59.5920   32.1610   46.3640 C   0  0  0  0  0  0  0  0  0  0  0  0
   58.4240   31.4840   45.9930 C   0  0  0  0  0  0  0  0  0  0  0  0
   58.3250   30.1150   46.2790 O   0  0  0  0  0  0  0  0  0  0  0  0
   59.0320   29.4530   47.2940 C   0  0  0  0  0  0  0  0  0  0  0  0
   59.8220   28.3170   47.0360 C   0  0  0  0  0  0  0  0  0  0  0  0
   60.5030   27.6820   48.0790 C   0  0  0  0  0  0  0  0  0  0  0  0
   60.3950   28.1670   49.3850 C   0  0  0  0  0  0  0  0  0  0  0  0
   59.5990   29.2850   49.6500 C   0  0  0  0  0  0  0  0  0  0  0  0
   58.9170   29.9230   48.6090 C   0  0  0  0  0  0  0  0  0  0  0  0
   56.6500   28.9785   42.6503 H   0  0  0  0  0  0  0  0  0  0  0  0
   57.6640   30.4682   42.9071 H   0  0  0  0  0  0  0  0  0  0  0  0
   58.5670   29.2380   44.9010 H   0  0  0  0  0  0  0  0  0  0  0  0
   59.0660   28.7660   43.3680 H   0  0  0  0  0  0  0  0  0  0  0  0
   57.3771   27.7845   46.3600 H   0  0  0  0  0  0  0  0  0  0  0  0
   56.6928   25.4280   46.8035 H   0  0  0  0  0  0  0  0  0  0  0  0
   54.2183   22.6118   45.5234 H   0  0  0  0  0  0  0  0  0  0  0  0
   57.4330   24.4284   42.6598 H   0  0  0  0  0  0  0  0  0  0  0  0
   58.1232   26.7801   42.2080 H   0  0  0  0  0  0  0  0  0  0  0  0
   56.7294   34.1122   44.5888 H   0  0  0  0  0  0  0  0  0  0  0  0
   58.8007   35.3077   45.2900 H   0  0  0  0  0  0  0  0  0  0  0  0
   60.6510   34.0526   46.4004 H   0  0  0  0  0  0  0  0  0  0  0  0
   60.4062   31.6138   46.8616 H   0  0  0  0  0  0  0  0  0  0  0  0
   59.9039   27.9275   46.0105 H   0  0  0  0  0  0  0  0  0  0  0  0
   61.1250   26.7989   47.8711 H   0  0  0  0  0  0  0  0  0  0  0  0
   60.9358   27.6696   50.2036 H   0  0  0  0  0  0  0  0  0  0  0  0
   59.5089   29.6636   50.6789 H   0  0  0  0  0  0  0  0  0  0  0  0
   58.2868   30.7986   48.8237 H   0  0  0  0  0  0  0  0  0  0  0  0
  1  2  2  0
  2  3  1  0
  3  4  1  0
  4  5  1  0
  5  6  2  0
  6  7  1  0
  7  8  2  0
  8  9  1  0
  9 10  1  0
 10 11  1  0
 10 12  1  0
  8 13  1  0
 13 14  2  0
  2 15  1  0
 15 16  1  0
 16 17  2  0
 17 18  1  0
 18 19  2  0
 19 20  1  0
 20 21  2  0
 21 22  1  0
 22 23  1  0
 23 24  2  0
 24 25  1  0
 25 26  2  0
 26 27  1  0
 27 28  2  0
 14  5  1  0
 21 16  1  0
 28 23  1  0
  3 29  1  0
  3 30  1  0
  4 31  1  0
  4 32  1  0
  6 33  1  0
  7 34  1  0
 10 35  1  0
 13 36  1  0
 14 37  1  0
 17 38  1  0
 18 39  1  0
 19 40  1  0
 20 41  1  0
 24 42  1  0
 25 43  1  0
 26 44  1  0
 27 45  1  0
 28 46  1  0
M  CHG  2   4   1  15  -1
M  END
>  <UniqueID>  (65) 
58

>  <SMILES>  (65) 
O=C(C[NH2+]c1ccc(SC(F)F)cc1)[N-]c1ccccc1Oc1ccccc1

>  <Energy>  (65) 
57.980798952311495

>  <Genealogy>  (65) 
O=C(C[NH2+]c1ccc(SC(F)F)cc1)[N-]c1ccccc1Oc1ccccc1 (protonated)
O=C(C[NH2+]c1ccc(SC(F)F)cc1)[N-]c1ccccc1Oc1ccccc1 (3D coordinates assigned)
O=C(C[NH2+]c1ccc(SC(F)F)cc1)[N-]c1ccccc1Oc1ccccc1 (optimized conformer: 57.980798952311495 kcal/mol)

>  <smiles>  (65) 
O=C(CNc1ccc(SC(F)F)cc1)Nc1ccccc1Oc1ccccc1

>  <score_type>  (65) 
oracle

>  <origin>  (65) 
adg

>  <m_score__min__energy>  (65) 
-8.3699999999999992

>  <m_primary>  (65) 
energy

$$$$
65:0
     RDKit          3D

 69 74  0  0  0  0  0  0  0  0999 V2000
   51.3640   24.1240   44.0030 C   0  0  0  0  0  0  0  0  0  0  0  0
   52.3050   23.5090   44.9900 C   0  0  0  0  0  0  0  0  0  0  0  0
   53.4510   24.2030   45.4020 C   0  0  0  0  0  0  0  0  0  0  0  0
   54.3170   23.6220   46.3350 C   0  0  0  0  0  0  0  0  0  0  0  0
   55.4760   24.3590   46.7500 N   0  0  0  0  0  0  0  0  0  0  0  0
   56.8200   23.8670   46.8080 C   0  0  0  0  0  0  0  0  0  0  0  0
   57.0880   22.8170   47.4520 O   0  0  0  0  0  0  0  0  0  0  0  0
   57.8690   24.6500   46.2290 N   0  0  0  0  0  0  0  0  0  0  0  0
   58.2630   25.9650   46.6450 C   0  0  0  0  0  0  0  0  0  0  0  0
   59.4590   26.1910   47.3470 C   0  0  0  0  0  0  0  0  0  0  0  0
   59.8130   27.4840   47.7430 C   0  0  0  0  0  0  0  0  0  0  0  0
   58.9780   28.5750   47.4470 C   0  0  0  0  0  0  0  0  0  0  0  0
   59.3250   29.9390   47.9090 C   0  0  0  0  0  0  0  0  0  0  0  0
   58.6610   31.0200   47.4220 N   0  0  0  0  0  0  0  0  0  0  0  0
   58.9920   32.2720   47.8310 C   0  0  0  0  0  0  0  0  0  0  0  0
   58.2780   33.4670   47.2530 C   0  0  0  0  0  0  0  0  0  0  0  0
   59.2320   34.6680   47.0520 C   0  0  0  0  0  0  0  0  0  0  0  0
   59.6880   34.7670   45.5870 C   0  0  0  0  0  0  0  0  0  0  0  0
   58.6210   34.9390   44.6600 O   0  0  0  0  0  0  0  0  0  0  0  0
   57.4010   34.3170   45.0470 C   0  0  0  0  0  0  0  0  0  0  0  0
   57.5790   33.0790   45.9370 C   0  0  0  0  0  0  0  0  0  0  0  0
   60.0160   32.4430   48.7050 N   0  0  0  0  0  0  0  0  0  0  0  0
   60.6910   31.3720   49.1990 C   0  0  0  0  0  0  0  0  0  0  0  0
   61.7980   31.5630   50.1040 N   0  0  0  0  0  0  0  0  0  0  0  0
   61.9840   30.6170   51.2090 C   0  0  0  0  0  0  0  0  0  0  0  0
   63.3390   30.8150   51.8640 C   0  0  0  0  0  0  0  0  0  0  0  0
   63.4980   32.1660   52.2320 O   0  0  0  0  0  0  0  0  0  0  0  0
   63.6450   33.0080   51.0960 C   0  0  1  0  0  0  0  0  0  0  0  0
   65.0870   33.0350   50.5740 C   0  0  0  0  0  0  0  0  0  0  0  0
   64.9730   33.0980   49.0600 C   0  0  0  0  0  0  0  0  0  0  0  0
   63.6690   32.4010   48.7180 C   0  0  0  0  0  0  0  0  0  0  0  0
   62.7280   32.6890   49.8870 C   0  0  1  0  0  0  0  0  0  0  0  0
   60.3350   30.1220   48.7990 N   0  0  0  0  0  0  0  0  0  0  0  0
   57.7960   28.3470   46.7200 C   0  0  0  0  0  0  0  0  0  0  0  0
   57.4520   27.0560   46.3100 C   0  0  0  0  0  0  0  0  0  0  0  0
   56.3050   26.8600   45.6100 F   0  0  0  0  0  0  0  0  0  0  0  0
   54.0470   22.3250   46.8020 C   0  0  0  0  0  0  0  0  0  0  0  0
   52.8990   21.6610   46.3610 C   0  0  0  0  0  0  0  0  0  0  0  0
   52.0590   22.2620   45.4780 N   0  0  0  0  0  0  0  0  0  0  0  0
   50.5606   24.6491   44.5404 H   0  0  0  0  0  0  0  0  0  0  0  0
   51.9111   24.8394   43.3714 H   0  0  0  0  0  0  0  0  0  0  0  0
   50.9284   23.3358   43.3714 H   0  0  0  0  0  0  0  0  0  0  0  0
   53.6688   25.2008   44.9934 H   0  0  0  0  0  0  0  0  0  0  0  0
   60.1206   25.3455   47.5864 H   0  0  0  0  0  0  0  0  0  0  0  0
   60.7526   27.6489   48.2907 H   0  0  0  0  0  0  0  0  0  0  0  0
   57.5134   33.7894   47.9751 H   0  0  0  0  0  0  0  0  0  0  0  0
   58.7081   35.5945   47.3295 H   0  0  0  0  0  0  0  0  0  0  0  0
   60.1184   34.5230   47.6870 H   0  0  0  0  0  0  0  0  0  0  0  0
   60.3693   35.6256   45.4938 H   0  0  0  0  0  0  0  0  0  0  0  0
   60.1747   33.8121   45.3393 H   0  0  0  0  0  0  0  0  0  0  0  0
   56.7980   35.0538   45.5979 H   0  0  0  0  0  0  0  0  0  0  0  0
   56.9148   33.9734   44.1221 H   0  0  0  0  0  0  0  0  0  0  0  0
   56.5921   32.6487   46.1628 H   0  0  0  0  0  0  0  0  0  0  0  0
   58.1976   32.3407   45.4058 H   0  0  0  0  0  0  0  0  0  0  0  0
   61.1943   30.7770   51.9579 H   0  0  0  0  0  0  0  0  0  0  0  0
   61.9307   29.5932   50.8102 H   0  0  0  0  0  0  0  0  0  0  0  0
   63.4072   30.1817   52.7608 H   0  0  0  0  0  0  0  0  0  0  0  0
   64.1306   30.5365   51.1528 H   0  0  0  0  0  0  0  0  0  0  0  0
   63.3379   33.9849   51.4978 H   0  0  0  0  0  0  0  0  0  0  0  0
   65.6171   33.9198   50.9562 H   0  0  0  0  0  0  0  0  0  0  0  0
   65.6552   32.1524   50.9028 H   0  0  0  0  0  0  0  0  0  0  0  0
   64.9496   34.1439   48.7202 H   0  0  0  0  0  0  0  0  0  0  0  0
   65.8316   32.6182   48.5675 H   0  0  0  0  0  0  0  0  0  0  0  0
   63.2529   32.8031   47.7825 H   0  0  0  0  0  0  0  0  0  0  0  0
   63.8128   31.3207   48.5688 H   0  0  0  0  0  0  0  0  0  0  0  0
   62.0641   33.5462   49.7011 H   0  0  0  0  0  0  0  0  0  0  0  0
   57.1367   29.1919   46.4720 H   0  0  0  0  0  0  0  0  0  0  0  0
   54.7334   21.8360   47.5089 H   0  0  0  0  0  0  0  0  0  0  0  0
   52.6748   20.6492   46.7297 H   0  0  0  0  0  0  0  0  0  0  0  0
  1  2  1  0
  2  3  2  0
  3  4  1  0
  4  5  1  0
  5  6  1  0
  6  7  2  0
  6  8  1  0
  8  9  1  0
  9 10  2  0
 10 11  1  0
 11 12  2  0
 12 13  1  0
 13 14  2  0
 14 15  1  0
 15 16  1  0
 16 17  1  0
 17 18  1  0
 18 19  1  0
 19 20  1  0
 20 21  1  0
 15 22  2  0
 22 23  1  0
 23 24  1  0
 24 25  1  0
 25 26  1  0
 26 27  1  0
 27 28  1  0
 28 29  1  0
 29 30  1  0
 30 31  1  0
 31 32  1  0
 23 33  2  0
 12 34  1  0
 34 35  2  0
 35 36  1  0
  4 37  2  0
 37 38  1  0
 38 39  2  0
 39  2  1  0
 35  9  1  0
 33 13  1  0
 21 16  1  0
 32 24  1  0
 32 28  1  0
  1 40  1  0
  1 41  1  0
  1 42  1  0
  3 43  1  0
 10 44  1  0
 11 45  1  0
 16 46  1  0
 17 47  1  0
 17 48  1  0
 18 49  1  0
 18 50  1  0
 20 51  1  0
 20 52  1  0
 21 53  1  0
 21 54  1  0
 25 55  1  0
 25 56  1  0
 26 57  1  0
 26 58  1  0
 28 59  1  1
 29 60  1  0
 29 61  1  0
 30 62  1  0
 30 63  1  0
 31 64  1  0
 31 65  1  0
 32 66  1  6
 34 67  1  0
 37 68  1  0
 38 69  1  0
M  CHG  2   5  -1   8  -1
M  END
>  <UniqueID>  (66) 
59

>  <SMILES>  (66) 
Cc1cc([N-]C(=O)[N-]c2ccc(-c3nc(C4CCOCC4)nc(N4CCO[C@H]5CCC[C@H]54)n3)cc2F)ccn1

>  <Energy>  (66) 
99.04276131482862

>  <Genealogy>  (66) 
Cc1cc([N-]C(=O)[N-]c2ccc(-c3nc(C4CCOCC4)nc(N4CCOC5CCCC54)n3)cc2F)ccn1 (protonated)
Cc1cc([N-]C(=O)[N-]c2ccc(-c3nc(C4CCOCC4)nc(N4CCO[C@H]5CCC[C@H]54)n3)cc2F)ccn1 (chirality)
Cc1cc([N-]C(=O)[N-]c2ccc(-c3nc(C4CCOCC4)nc(N4CCO[C@H]5CCC[C@H]54)n3)cc2F)ccn1 (3D coordinates assigned)
Cc1cc([N-]C(=O)[N-]c2ccc(-c3nc(C4CCOCC4)nc(N4CCO[C@H]5CCC[C@H]54)n3)cc2F)ccn1 (nonaromatic ring conformer: 99.04276131482862 kcal/mol)

>  <smiles>  (66) 
Cc1cc(NC(=O)Nc2ccc(-c3nc(C4CCOCC4)nc(N4CCOC5CCCC54)n3)cc2F)ccn1

>  <score_type>  (66) 
oracle

>  <origin>  (66) 
adg

>  <m_score__min__energy>  (66) 
-12.130000000000001

>  <m_primary>  (66) 
energy

$$$$
66:0
     RDKit          3D

 38 38  0  0  0  0  0  0  0  0999 V2000
   57.8200   32.0970   42.0420 C   0  0  0  0  0  0  0  0  0  0  0  0
   57.0270   30.9250   42.6170 C   0  0  0  0  0  0  0  0  0  0  0  0
   56.7100   31.1290   44.0750 C   0  0  0  0  0  0  0  0  0  0  0  0
   55.7380   30.5100   44.5860 O   0  0  0  0  0  0  0  0  0  0  0  0
   57.5650   31.9810   44.9400 C   0  0  0  0  0  0  0  0  0  0  0  0
   57.4790   33.3810   44.8340 C   0  0  0  0  0  0  0  0  0  0  0  0
   58.3370   34.2040   45.5680 C   0  0  0  0  0  0  0  0  0  0  0  0
   59.2990   33.6430   46.4060 C   0  0  0  0  0  0  0  0  0  0  0  0
   59.3970   32.2550   46.5260 C   0  0  0  0  0  0  0  0  0  0  0  0
   58.5250   31.4150   45.8180 C   0  0  0  0  0  0  0  0  0  0  0  0
   58.6310   29.9980   46.0100 N   0  0  0  0  0  0  0  0  0  0  0  0
   59.8310   29.3720   46.4890 C   0  0  0  0  0  0  0  0  0  0  0  0
   60.8520   30.0640   46.7530 O   0  0  0  0  0  0  0  0  0  0  0  0
   59.8760   27.8860   46.6730 C   0  0  0  0  0  0  0  0  0  0  0  0
   58.5100   27.3530   46.8300 N   0  0  0  0  0  0  0  0  0  0  0  0
   58.5410   26.0240   47.4590 C   0  0  0  0  0  0  0  0  0  0  0  0
   57.7380   27.2250   45.2680 S   0  0  0  0  0  0  0  0  0  0  0  0
   57.5400   25.5110   44.8260 C   0  0  0  0  0  0  0  0  0  0  0  0
   56.3900   27.8920   45.2970 O   0  0  0  0  0  0  0  0  0  0  0  0
   58.5910   27.8860   44.2210 O   0  0  0  0  0  0  0  0  0  0  0  0
   58.2291   32.7017   42.8648 H   0  0  0  0  0  0  0  0  0  0  0  0
   58.6448   31.7134   41.4236 H   0  0  0  0  0  0  0  0  0  0  0  0
   57.1571   32.7200   41.4236 H   0  0  0  0  0  0  0  0  0  0  0  0
   56.0850   30.8236   42.0582 H   0  0  0  0  0  0  0  0  0  0  0  0
   57.6406   30.0169   42.5233 H   0  0  0  0  0  0  0  0  0  0  0  0
   56.7294   33.8320   44.1671 H   0  0  0  0  0  0  0  0  0  0  0  0
   58.2530   35.2976   45.4842 H   0  0  0  0  0  0  0  0  0  0  0  0
   59.9812   34.2935   46.9730 H   0  0  0  0  0  0  0  0  0  0  0  0
   60.1644   31.8170   47.1812 H   0  0  0  0  0  0  0  0  0  0  0  0
   57.8840   29.3880   45.6050 H   0  0  0  0  0  0  0  0  0  0  0  0
   60.3476   27.4246   45.7928 H   0  0  0  0  0  0  0  0  0  0  0  0
   60.4594   27.6526   47.5759 H   0  0  0  0  0  0  0  0  0  0  0  0
   58.5384   26.1361   48.5533 H   0  0  0  0  0  0  0  0  0  0  0  0
   57.6560   25.4500   47.1471 H   0  0  0  0  0  0  0  0  0  0  0  0
   59.4518   25.4919   47.1471 H   0  0  0  0  0  0  0  0  0  0  0  0
   57.4697   24.9025   45.7397 H   0  0  0  0  0  0  0  0  0  0  0  0
   56.6218   25.3890   44.2327 H   0  0  0  0  0  0  0  0  0  0  0  0
   58.4062   25.1829   44.2327 H   0  0  0  0  0  0  0  0  0  0  0  0
  1  2  1  0
  2  3  1  0
  3  4  2  0
  3  5  1  0
  5  6  2  0
  6  7  1  0
  7  8  2  0
  8  9  1  0
  9 10  2  0
 10 11  1  0
 11 12  1  0
 12 13  2  0
 12 14  1  0
 14 15  1  0
 15 16  1  0
 15 17  1  0
 17 18  1  0
 17 19  2  0
 17 20  2  0
 10  5  1  0
  1 21  1  0
  1 22  1  0
  1 23  1  0
  2 24  1  0
  2 25  1  0
  6 26  1  0
  7 27  1  0
  8 28  1  0
  9 29  1  0
 11 30  1  0
 14 31  1  0
 14 32  1  0
 16 33  1  0
 16 34  1  0
 16 35  1  0
 18 36  1  0
 18 37  1  0
 18 38  1  0
M  END
>  <UniqueID>  (67) 
60

>  <SMILES>  (67) 
CCC(=O)c1ccccc1NC(=O)CN(C)S(C)(=O)=O

>  <Energy>  (67) 
34.59491466625996

>  <Genealogy>  (67) 
CCC(=O)c1ccccc1NC(=O)CN(C)S(C)(=O)=O (3D coordinates assigned)
CCC(=O)c1ccccc1NC(=O)CN(C)S(C)(=O)=O (optimized conformer: 34.59491466625996 kcal/mol)

>  <smiles>  (67) 
CCC(=O)c1ccccc1NC(=O)CN(C)S(C)(=O)=O

>  <score_type>  (67) 
oracle

>  <origin>  (67) 
adg

>  <m_score__min__energy>  (67) 
-6.8799999999999999

>  <m_primary>  (67) 
energy

$$$$
67:0
     RDKit          3D

 46 48  0  0  0  0  0  0  0  0999 V2000
   64.2600   33.0480   48.8800 C   0  0  0  0  0  0  0  0  0  0  0  0
   63.0010   33.6950   49.2690 N   0  0  0  0  0  0  0  0  0  0  0  0
   62.8580   34.2030   50.6390 C   0  0  0  0  0  0  0  0  0  0  0  0
   61.9150   33.8280   48.3160 C   0  0  0  0  0  0  0  0  0  0  0  0
   60.6010   34.1000   48.7490 C   0  0  0  0  0  0  0  0  0  0  0  0
   59.5560   34.2320   47.8300 C   0  0  0  0  0  0  0  0  0  0  0  0
   59.8030   34.1080   46.4520 C   0  0  0  0  0  0  0  0  0  0  0  0
   58.7550   34.2180   45.4800 N   0  0  0  0  0  0  0  0  0  0  0  0
   57.6140   33.3570   45.3650 C   0  0  0  0  0  0  0  0  0  0  0  0
   56.6430   33.4620   46.1620 O   0  0  0  0  0  0  0  0  0  0  0  0
   57.5770   32.3260   44.2830 C   0  0  0  0  0  0  0  0  0  0  0  0
   57.6090   30.9500   44.8880 C   0  0  0  0  0  0  0  0  0  0  0  0
   56.8670   29.9060   44.3140 C   0  0  0  0  0  0  0  0  0  0  0  0
   56.9280   28.6180   44.8550 C   0  0  0  0  0  0  0  0  0  0  0  0
   57.7300   28.3540   45.9790 C   0  0  0  0  0  0  0  0  0  0  0  0
   57.8300   27.0320   46.5360 N   0  0  0  0  0  0  0  0  0  0  0  0
   56.7680   26.0640   46.4960 C   0  0  0  0  0  0  0  0  0  0  0  0
   55.5890   26.4280   46.2340 O   0  0  0  0  0  0  0  0  0  0  0  0
   57.0300   24.6480   46.8040 C   0  0  0  0  0  0  0  0  0  0  0  0
   57.4820   23.6800   45.9330 C   0  0  0  0  0  0  0  0  0  0  0  0
   57.6060   22.5150   46.5980 N   0  0  0  0  0  0  0  0  0  0  0  0
   57.2510   22.7090   47.8600 N   0  0  0  0  0  0  0  0  0  0  0  0
   56.8960   23.9990   48.0150 C   0  0  0  0  0  0  0  0  0  0  0  0
   58.4970   29.3940   46.5280 C   0  0  0  0  0  0  0  0  0  0  0  0
   58.4360   30.6810   45.9900 C   0  0  0  0  0  0  0  0  0  0  0  0
   61.0980   33.8120   46.0160 C   0  0  0  0  0  0  0  0  0  0  0  0
   62.1450   33.6820   46.9320 C   0  0  0  0  0  0  0  0  0  0  0  0
   64.8189   32.7608   49.7829 H   0  0  0  0  0  0  0  0  0  0  0  0
   64.0417   32.1504   48.2828 H   0  0  0  0  0  0  0  0  0  0  0  0
   64.8628   33.7480   48.2828 H   0  0  0  0  0  0  0  0  0  0  0  0
   63.0845   33.3983   51.3540 H   0  0  0  0  0  0  0  0  0  0  0  0
   63.5557   35.0390   50.7948 H   0  0  0  0  0  0  0  0  0  0  0  0
   61.8266   34.5523   50.7948 H   0  0  0  0  0  0  0  0  0  0  0  0
   60.3955   34.2098   49.8241 H   0  0  0  0  0  0  0  0  0  0  0  0
   58.5354   34.4339   48.1871 H   0  0  0  0  0  0  0  0  0  0  0  0
   56.6541   32.4454   43.6964 H   0  0  0  0  0  0  0  0  0  0  0  0
   58.4519   32.4551   43.6288 H   0  0  0  0  0  0  0  0  0  0  0  0
   56.2351   30.1018   43.4352 H   0  0  0  0  0  0  0  0  0  0  0  0
   56.3442   27.8055   44.3978 H   0  0  0  0  0  0  0  0  0  0  0  0
   58.6860   26.8030   47.0900 H   0  0  0  0  0  0  0  0  0  0  0  0
   57.7054   23.8339   44.8670 H   0  0  0  0  0  0  0  0  0  0  0  0
   56.5549   24.4602   48.9536 H   0  0  0  0  0  0  0  0  0  0  0  0
   59.1514   29.1932   47.3891 H   0  0  0  0  0  0  0  0  0  0  0  0
   59.0389   31.4881   46.4318 H   0  0  0  0  0  0  0  0  0  0  0  0
   61.2944   33.6802   44.9417 H   0  0  0  0  0  0  0  0  0  0  0  0
   63.1603   33.4633   46.5697 H   0  0  0  0  0  0  0  0  0  0  0  0
  1  2  1  0
  2  3  1  0
  2  4  1  0
  4  5  2  0
  5  6  1  0
  6  7  2  0
  7  8  1  0
  8  9  1  0
  9 10  2  0
  9 11  1  0
 11 12  1  0
 12 13  2  0
 13 14  1  0
 14 15  2  0
 15 16  1  0
 16 17  1  0
 17 18  2  0
 17 19  1  0
 19 20  1  0
 20 21  2  0
 21 22  1  0
 22 23  1  0
 15 24  1  0
 24 25  2  0
  7 26  1  0
 26 27  2  0
 27  4  1  0
 25 12  1  0
 23 19  2  0
  1 28  1  0
  1 29  1  0
  1 30  1  0
  3 31  1  0
  3 32  1  0
  3 33  1  0
  5 34  1  0
  6 35  1  0
 11 36  1  0
 11 37  1  0
 13 38  1  0
 14 39  1  0
 16 40  1  0
 20 41  1  0
 23 42  1  0
 24 43  1  0
 25 44  1  0
 26 45  1  0
 27 46  1  0
M  CHG  2   8  -1  22  -1
M  END
>  <UniqueID>  (68) 
61

>  <SMILES>  (68) 
CN(C)c1ccc([N-]C(=O)Cc2ccc(NC(=O)c3cn[n-]c3)cc2)cc1

>  <Energy>  (68) 
83.72419832046243

>  <Genealogy>  (68) 
CN(C)c1ccc([N-]C(=O)Cc2ccc(NC(=O)c3cn[n-]c3)cc2)cc1 (protonated)
CN(C)c1ccc([N-]C(=O)Cc2ccc(NC(=O)c3cn[n-]c3)cc2)cc1 (3D coordinates assigned)
CN(C)c1ccc([N-]C(=O)Cc2ccc(NC(=O)c3cn[n-]c3)cc2)cc1 (optimized conformer: 83.72419832046243 kcal/mol)

>  <smiles>  (68) 
CN(C)c1ccc(NC(=O)Cc2ccc(NC(=O)c3cn[nH]c3)cc2)cc1

>  <score_type>  (68) 
oracle

>  <origin>  (68) 
adg

>  <m_score__min__energy>  (68) 
-10.73

>  <m_primary>  (68) 
energy

$$$$
68:0
     RDKit          3D

 53 56  0  0  0  0  0  0  0  0999 V2000
   55.5370   28.9980   44.8630 O   0  0  0  0  0  0  0  0  0  0  0  0
   56.4170   29.8700   44.6290 C   0  0  0  0  0  0  0  0  0  0  0  0
   57.7610   29.4580   44.1060 C   0  0  0  0  0  0  0  0  0  0  0  0
   58.4070   28.4910   45.0070 N   0  0  0  0  0  0  0  0  0  0  0  0
   58.4830   27.1000   44.6170 C   0  0  0  0  0  0  0  0  0  0  0  0
   58.1140   26.7400   43.4660 O   0  0  0  0  0  0  0  0  0  0  0  0
   59.0240   26.0730   45.5640 C   0  0  0  0  0  0  0  0  0  0  0  0
   58.3220   26.3770   47.2120 S   0  0  0  0  0  0  0  0  0  0  0  0
   59.0820   28.0000   47.3360 C   0  0  0  0  0  0  0  0  0  0  0  0
   59.7600   28.3500   48.5080 C   0  0  0  0  0  0  0  0  0  0  0  0
   60.3200   29.6210   48.6420 C   0  0  0  0  0  0  0  0  0  0  0  0
   60.2200   30.5480   47.5970 C   0  0  0  0  0  0  0  0  0  0  0  0
   60.9120   32.1610   47.7540 S   0  0  0  0  0  0  0  0  0  0  0  0
   61.1090   32.7310   46.3760 O   0  0  0  0  0  0  0  0  0  0  0  0
   62.2500   32.0760   48.4340 O   0  0  0  0  0  0  0  0  0  0  0  0
   59.8180   33.1710   48.6770 N   0  0  0  0  0  0  0  0  0  0  0  0
   60.5120   33.8100   49.8190 C   0  0  0  0  0  0  0  0  0  0  0  0
   60.8160   32.8300   50.9680 C   0  0  0  0  0  0  0  0  0  0  0  0
   59.6720   31.8360   51.2360 C   0  0  0  0  0  0  0  0  0  0  0  0
   58.3710   32.2690   50.5650 C   0  0  0  0  0  0  0  0  0  0  0  0
   58.5760   32.4320   49.0490 C   0  0  0  0  0  0  0  0  0  0  0  0
   59.5620   30.1910   46.4130 C   0  0  0  0  0  0  0  0  0  0  0  0
   58.9890   28.9120   46.2650 C   0  0  0  0  0  0  0  0  0  0  0  0
   56.1170   31.2640   44.7610 N   0  0  0  0  0  0  0  0  0  0  0  0
   57.0670   32.3250   44.9350 C   0  0  0  0  0  0  0  0  0  0  0  0
   58.0020   32.6610   43.9360 C   0  0  0  0  0  0  0  0  0  0  0  0
   58.8940   33.7190   44.1370 C   0  0  0  0  0  0  0  0  0  0  0  0
   58.8520   34.4570   45.3220 C   0  0  0  0  0  0  0  0  0  0  0  0
   57.9110   34.1430   46.3070 C   0  0  0  0  0  0  0  0  0  0  0  0
   57.0180   33.0860   46.1100 C   0  0  0  0  0  0  0  0  0  0  0  0
   57.6349   28.9970   43.1153 H   0  0  0  0  0  0  0  0  0  0  0  0
   58.3984   30.3520   44.0386 H   0  0  0  0  0  0  0  0  0  0  0  0
   58.7413   25.0669   45.2206 H   0  0  0  0  0  0  0  0  0  0  0  0
   60.1212   26.1404   45.6047 H   0  0  0  0  0  0  0  0  0  0  0  0
   59.8521   27.6211   49.3267 H   0  0  0  0  0  0  0  0  0  0  0  0
   60.8414   29.8956   49.5709 H   0  0  0  0  0  0  0  0  0  0  0  0
   59.5430   33.9450   48.0290 H   0  0  0  0  0  0  0  0  0  0  0  0
   61.4617   34.2327   49.4592 H   0  0  0  0  0  0  0  0  0  0  0  0
   59.8407   34.5846   50.2182 H   0  0  0  0  0  0  0  0  0  0  0  0
   61.7212   32.2602   50.7112 H   0  0  0  0  0  0  0  0  0  0  0  0
   60.9496   33.4285   51.8812 H   0  0  0  0  0  0  0  0  0  0  0  0
   59.9609   30.8484   50.8471 H   0  0  0  0  0  0  0  0  0  0  0  0
   59.4995   31.8004   52.3218 H   0  0  0  0  0  0  0  0  0  0  0  0
   57.5989   31.5067   50.7462 H   0  0  0  0  0  0  0  0  0  0  0  0
   58.0565   33.2346   50.9877 H   0  0  0  0  0  0  0  0  0  0  0  0
   58.6220   31.4301   48.5971 H   0  0  0  0  0  0  0  0  0  0  0  0
   57.7295   33.0280   48.6772 H   0  0  0  0  0  0  0  0  0  0  0  0
   59.4918   30.9170   45.5896 H   0  0  0  0  0  0  0  0  0  0  0  0
   58.0304   32.0900   42.9962 H   0  0  0  0  0  0  0  0  0  0  0  0
   59.6306   33.9707   43.3598 H   0  0  0  0  0  0  0  0  0  0  0  0
   59.5589   35.2848   45.4801 H   0  0  0  0  0  0  0  0  0  0  0  0
   57.8733   34.7282   47.2377 H   0  0  0  0  0  0  0  0  0  0  0  0
   56.2717   32.8501   46.8829 H   0  0  0  0  0  0  0  0  0  0  0  0
  1  2  2  0
  2  3  1  0
  3  4  1  0
  4  5  1  0
  5  6  2  0
  5  7  1  0
  7  8  1  0
  8  9  1  0
  9 10  2  0
 10 11  1  0
 11 12  2  0
 12 13  1  0
 13 14  2  0
 13 15  2  0
 13 16  1  0
 16 17  1  0
 17 18  1  0
 18 19  1  0
 19 20  1  0
 20 21  1  0
 12 22  1  0
 22 23  2  0
  2 24  1  0
 24 25  1  0
 25 26  2  0
 26 27  1  0
 27 28  2  0
 28 29  1  0
 29 30  2  0
 23  4  1  0
 30 25  1  0
 23  9  1  0
 21 16  1  0
  3 31  1  0
  3 32  1  0
  7 33  1  0
  7 34  1  0
 10 35  1  0
 11 36  1  0
 16 37  1  0
 17 38  1  0
 17 39  1  0
 18 40  1  0
 18 41  1  0
 19 42  1  0
 19 43  1  0
 20 44  1  0
 20 45  1  0
 21 46  1  0
 21 47  1  0
 22 48  1  0
 26 49  1  0
 27 50  1  0
 28 51  1  0
 29 52  1  0
 30 53  1  0
M  CHG  2  16   1  24  -1
M  END
>  <UniqueID>  (69) 
62

>  <SMILES>  (69) 
O=C(CN1C(=O)CSc2ccc(S(=O)(=O)[NH+]3CCCCC3)cc21)[N-]c1ccccc1

>  <Energy>  (69) 
71.36919413185372

>  <Genealogy>  (69) 
O=C(CN1C(=O)CSc2ccc(S(=O)(=O)[NH+]3CCCCC3)cc21)[N-]c1ccccc1 (protonated)
O=C(CN1C(=O)CSc2ccc(S(=O)(=O)[NH+]3CCCCC3)cc21)[N-]c1ccccc1 (3D coordinates assigned)
O=C(CN1C(=O)CSc2ccc(S(=O)(=O)[NH+]3CCCCC3)cc21)[N-]c1ccccc1 (nonaromatic ring conformer: 71.36919413185372 kcal/mol)

>  <smiles>  (69) 
O=C(CN1C(=O)CSc2ccc(S(=O)(=O)N3CCCCC3)cc21)Nc1ccccc1

>  <score_type>  (69) 
oracle

>  <origin>  (69) 
adg

>  <m_score__min__energy>  (69) 
-9.6600000000000001

>  <m_primary>  (69) 
energy

$$$$
69:0
     RDKit          3D

 45 48  0  0  0  0  0  0  0  0999 V2000
   57.8000   27.0910   47.2280 O   0  0  0  0  0  0  0  0  0  0  0  0
   57.0200   27.4760   46.3170 C   0  0  0  0  0  0  0  0  0  0  0  0
   55.8860   26.6600   45.9960 N   0  0  0  0  0  0  0  0  0  0  0  0
   55.9230   25.3550   45.3980 C   0  0  0  0  0  0  0  0  0  0  0  0
   57.0260   24.9190   44.6430 C   0  0  0  0  0  0  0  0  0  0  0  0
   57.0350   23.6360   44.0880 C   0  0  0  0  0  0  0  0  0  0  0  0
   55.9530   22.7750   44.2940 C   0  0  0  0  0  0  0  0  0  0  0  0
   55.9630   21.5320   43.7550 F   0  0  0  0  0  0  0  0  0  0  0  0
   54.8640   23.1960   45.0630 C   0  0  0  0  0  0  0  0  0  0  0  0
   54.8520   24.4780   45.6200 C   0  0  0  0  0  0  0  0  0  0  0  0
   57.2690   28.7770   45.6520 C   0  0  0  0  0  0  0  0  0  0  0  0
   56.5140   29.1580   44.5330 C   0  0  0  0  0  0  0  0  0  0  0  0
   56.7640   30.3760   43.9000 C   0  0  0  0  0  0  0  0  0  0  0  0
   57.7810   31.2040   44.3820 C   0  0  0  0  0  0  0  0  0  0  0  0
   58.1590   32.7470   43.5440 S   0  0  0  0  0  0  0  0  0  0  0  0
   57.6170   33.8180   44.9240 C   0  0  0  0  0  0  0  0  0  0  0  0
   58.6600   33.8740   46.0080 C   0  0  0  0  0  0  0  0  0  0  0  0
   58.2750   33.8390   47.3570 C   0  0  0  0  0  0  0  0  0  0  0  0
   59.2390   33.8210   48.3680 C   0  0  0  0  0  0  0  0  0  0  0  0
   60.6020   33.8260   48.0440 C   0  0  0  0  0  0  0  0  0  0  0  0
   61.5790   33.7910   49.0510 C   0  0  0  0  0  0  0  0  0  0  0  0
   62.9350   33.7840   48.7150 C   0  0  0  0  0  0  0  0  0  0  0  0
   63.3270   33.8110   47.3730 C   0  0  0  0  0  0  0  0  0  0  0  0
   62.3640   33.8480   46.3600 C   0  0  0  0  0  0  0  0  0  0  0  0
   60.9990   33.8590   46.6850 C   0  0  0  0  0  0  0  0  0  0  0  0
   60.0250   33.8900   45.6770 C   0  0  0  0  0  0  0  0  0  0  0  0
   58.5060   30.8260   45.4720 N   0  0  0  0  0  0  0  0  0  0  0  0
   58.2830   29.6400   46.1000 C   0  0  0  0  0  0  0  0  0  0  0  0
   57.8843   25.5894   44.4886 H   0  0  0  0  0  0  0  0  0  0  0  0
   57.8949   23.3033   43.4881 H   0  0  0  0  0  0  0  0  0  0  0  0
   54.0149   22.5170   45.2301 H   0  0  0  0  0  0  0  0  0  0  0  0
   53.9987   24.8001   46.2350 H   0  0  0  0  0  0  0  0  0  0  0  0
   55.7227   28.4948   44.1535 H   0  0  0  0  0  0  0  0  0  0  0  0
   56.1657   30.6817   43.0291 H   0  0  0  0  0  0  0  0  0  0  0  0
   57.4407   34.8344   44.5422 H   0  0  0  0  0  0  0  0  0  0  0  0
   56.6930   33.3993   45.3493 H   0  0  0  0  0  0  0  0  0  0  0  0
   57.2070   33.8256   47.6202 H   0  0  0  0  0  0  0  0  0  0  0  0
   58.9266   33.8028   49.4226 H   0  0  0  0  0  0  0  0  0  0  0  0
   61.2760   33.7690   50.1082 H   0  0  0  0  0  0  0  0  0  0  0  0
   63.6965   33.7572   49.5084 H   0  0  0  0  0  0  0  0  0  0  0  0
   64.3959   33.8031   47.1136 H   0  0  0  0  0  0  0  0  0  0  0  0
   62.6772   33.8685   45.3057 H   0  0  0  0  0  0  0  0  0  0  0  0
   60.3314   33.9271   44.6212 H   0  0  0  0  0  0  0  0  0  0  0  0
   59.2700   31.4460   45.8220 H   0  0  0  0  0  0  0  0  0  0  0  0
   58.9008   29.3548   46.9643 H   0  0  0  0  0  0  0  0  0  0  0  0
  1  2  2  0
  2  3  1  0
  3  4  1  0
  4  5  2  0
  5  6  1  0
  6  7  2  0
  7  8  1  0
  7  9  1  0
  9 10  2  0
  2 11  1  0
 11 12  2  0
 12 13  1  0
 13 14  2  0
 14 15  1  0
 15 16  1  0
 16 17  1  0
 17 18  2  0
 18 19  1  0
 19 20  2  0
 20 21  1  0
 21 22  2  0
 22 23  1  0
 23 24  2  0
 24 25  1  0
 25 26  2  0
 14 27  1  0
 27 28  2  0
 10  4  1  0
 28 11  1  0
 26 17  1  0
 25 20  1  0
  5 29  1  0
  6 30  1  0
  9 31  1  0
 10 32  1  0
 12 33  1  0
 13 34  1  0
 16 35  1  0
 16 36  1  0
 18 37  1  0
 19 38  1  0
 21 39  1  0
 22 40  1  0
 23 41  1  0
 24 42  1  0
 26 43  1  0
 27 44  1  0
 28 45  1  0
M  CHG  2   3  -1  27   1
M  END
>  <UniqueID>  (70) 
63

>  <SMILES>  (70) 
O=C([N-]c1ccc(F)cc1)c1ccc(SCc2ccc3ccccc3c2)[nH+]c1

>  <Energy>  (70) 
53.61182039501225

>  <Genealogy>  (70) 
O=C([N-]c1ccc(F)cc1)c1ccc(SCc2ccc3ccccc3c2)[nH+]c1 (protonated)
O=C([N-]c1ccc(F)cc1)c1ccc(SCc2ccc3ccccc3c2)[nH+]c1 (3D coordinates assigned)
O=C([N-]c1ccc(F)cc1)c1ccc(SCc2ccc3ccccc3c2)[nH+]c1 (optimized conformer: 53.61182039501225 kcal/mol)

>  <smiles>  (70) 
O=C(Nc1ccc(F)cc1)c1ccc(SCc2ccc3ccccc3c2)nc1

>  <score_type>  (70) 
oracle

>  <origin>  (70) 
adg

>  <m_score__min__energy>  (70) 
-9.2400000000000002

>  <m_primary>  (70) 
energy

$$$$
70:0
     RDKit          3D

 45 48  0  0  0  0  0  0  0  0999 V2000
   59.1584   28.4804   50.8640 H   0  0  0  0  0  0  0  0  0  0  0  0
   58.6340   29.4470   50.8370 C   0  0  0  0  0  0  0  0  0  0  0  0
   57.5440   29.6490   51.6190 N   0  0  0  0  0  0  0  0  0  0  0  0
   56.8670   30.8280   51.5870 C   0  0  0  0  0  0  0  0  0  0  0  0
   55.7570   31.0700   52.4650 N   0  0  0  0  0  0  0  0  0  0  0  0
   54.5030   30.7380   52.3080 C   0  0  0  0  0  0  0  0  0  0  0  0
   53.5330   31.6160   51.7860 C   0  0  0  0  0  0  0  0  0  0  0  0
   53.8174   32.6322   51.4755 H   0  0  0  0  0  0  0  0  0  0  0  0
   52.2020   31.1880   51.6640 C   0  0  0  0  0  0  0  0  0  0  0  0
   51.1550   32.0760   51.1280 C   0  0  0  0  0  0  0  0  0  0  0  0
   51.0430   32.2690   49.8890 O   0  0  0  0  0  0  0  0  0  0  0  0
   50.2760   32.7100   51.9970 O   0  0  0  0  0  0  0  0  0  0  0  0
   51.8630   29.9320   52.0600 N   0  0  0  0  0  0  0  0  0  0  0  0
   52.7660   29.0550   52.5780 C   0  0  0  0  0  0  0  0  0  0  0  0
   52.3090   27.7060   52.9960 C   0  0  0  0  0  0  0  0  0  0  0  0
   53.2420   26.7710   53.4860 C   0  0  0  0  0  0  0  0  0  0  0  0
   54.3057   27.0439   53.5497 H   0  0  0  0  0  0  0  0  0  0  0  0
   52.8270   25.4990   53.8920 C   0  0  0  0  0  0  0  0  0  0  0  0
   53.5648   24.7750   54.2681 H   0  0  0  0  0  0  0  0  0  0  0  0
   51.4780   25.1460   53.8210 C   0  0  0  0  0  0  0  0  0  0  0  0
   51.1539   24.1432   54.1363 H   0  0  0  0  0  0  0  0  0  0  0  0
   50.5400   26.0680   53.3490 C   0  0  0  0  0  0  0  0  0  0  0  0
   49.4767   25.7911   53.2976 H   0  0  0  0  0  0  0  0  0  0  0  0
   50.9490   27.3410   52.9420 C   0  0  0  0  0  0  0  0  0  0  0  0
   50.2039   28.0632   52.5769 H   0  0  0  0  0  0  0  0  0  0  0  0
   54.1040   29.4610   52.7220 C   0  0  0  0  0  0  0  0  0  0  0  0
   54.8408   28.7728   53.1618 H   0  0  0  0  0  0  0  0  0  0  0  0
   57.3150   31.8380   50.7960 N   0  0  0  0  0  0  0  0  0  0  0  0
   58.4010   31.6890   49.9890 C   0  0  0  0  0  0  0  0  0  0  0  0
   58.8290   32.7900   49.1570 N   0  0  0  0  0  0  0  0  0  0  0  0
   58.1710   33.0110   47.8630 C   0  0  0  0  0  0  0  0  0  0  0  0
   57.8866   32.0404   47.4305 H   0  0  0  0  0  0  0  0  0  0  0  0
   57.2765   33.6319   48.0189 H   0  0  0  0  0  0  0  0  0  0  0  0
   59.1170   33.7350   46.9000 C   0  0  0  0  0  0  0  0  0  0  0  0
   59.9407   33.0590   46.6271 H   0  0  0  0  0  0  0  0  0  0  0  0
   58.5509   34.0295   46.0040 H   0  0  0  0  0  0  0  0  0  0  0  0
   59.6510   34.8970   47.5010 O   0  0  0  0  0  0  0  0  0  0  0  0
   60.4800   34.5290   48.5860 C   0  0  0  0  0  0  0  0  0  0  0  0
   61.2418   33.8187   48.2322 H   0  0  0  0  0  0  0  0  0  0  0  0
   60.9562   35.4358   48.9872 H   0  0  0  0  0  0  0  0  0  0  0  0
   59.6620   33.8720   49.7020 C   0  0  0  0  0  0  0  0  0  0  0  0
   60.3461   33.4576   50.4571 H   0  0  0  0  0  0  0  0  0  0  0  0
   59.0088   34.6297   50.1594 H   0  0  0  0  0  0  0  0  0  0  0  0
   59.0900   30.4640   49.9990 C   0  0  0  0  0  0  0  0  0  0  0  0
   59.9712   30.3106   49.3587 H   0  0  0  0  0  0  0  0  0  0  0  0
  1  2  1  0
  2  3  2  0
  3  4  1  0
  4  5  1  0
  5  6  2  0
  6  7  1  0
  7  8  1  0
  7  9  2  0
  9 10  1  0
 10 11  2  0
 10 12  1  0
  9 13  1  0
 13 14  1  0
 14 15  1  0
 15 16  2  0
 16 17  1  0
 16 18  1  0
 18 19  1  0
 18 20  2  0
 20 21  1  0
 20 22  1  0
 22 23  1  0
 22 24  2  0
 24 25  1  0
 14 26  2  0
 26 27  1  0
  4 28  2  0
 28 29  1  0
 29 30  1  0
 30 31  1  0
 31 32  1  0
 31 33  1  0
 31 34  1  0
 34 35  1  0
 34 36  1  0
 34 37  1  0
 37 38  1  0
 38 39  1  0
 38 40  1  0
 38 41  1  0
 41 42  1  0
 41 43  1  0
 29 44  2  0
 44 45  1  0
 44  2  1  0
 26  6  1  0
 41 30  1  0
 24 15  1  0
M  CHG  2  12  -1  13  -1
M  END
>  <UniqueID>  (71) 
64

>  <SMILES>  (71) 
O=C([O-])c1c/c(=N\c2nccc(N3CCOCC3)n2)cc(-c2ccccc2)[n-]1

>  <Energy>  (71) 
66.39579198291686

>  <Genealogy>  (71) 
O=C([O-])c1cc(=Nc2nccc(N3CCOCC3)n2)cc(-c2ccccc2)[n-]1 (protonated)
O=C([O-])c1c/c(=N\c2nccc(N3CCOCC3)n2)cc(-c2ccccc2)[n-]1 (cis-trans isomerization)
O=C([O-])c1c/c(=N\c2nccc(N3CCOCC3)n2)cc(-c2ccccc2)[n-]1 (3D coordinates assigned)
O=C([O-])c1c/c(=N\c2nccc(N3CCOCC3)n2)cc(-c2ccccc2)[n-]1 (nonaromatic ring conformer: 66.39579198291686 kcal/mol)

>  <smiles>  (71) 
O=C(O)c1cc(=Nc2nccc(N3CCOCC3)n2)cc(-c2ccccc2)[nH]1

>  <score_type>  (71) 
oracle

>  <origin>  (71) 
adg

>  <m_score__min__energy>  (71) 
-12.369999999999999

>  <m_primary>  (71) 
energy

$$$$
71:0
     RDKit          3D

 52 55  0  0  0  0  0  0  0  0999 V2000
   55.3230   22.3080   45.7860 C   0  0  0  0  0  0  0  0  0  0  0  0
   55.6750   23.3490   47.1860 S   0  0  0  0  0  0  0  0  0  0  0  0
   57.0520   23.0230   47.6920 O   0  0  0  0  0  0  0  0  0  0  0  0
   54.6840   23.1010   48.2880 O   0  0  0  0  0  0  0  0  0  0  0  0
   55.6360   25.0180   46.7160 N   0  0  0  0  0  0  0  0  0  0  0  0
   56.4980   25.6390   45.7520 C   0  0  0  0  0  0  0  0  0  0  0  0
   56.9210   24.9760   44.5870 C   0  0  0  0  0  0  0  0  0  0  0  0
   57.7500   25.6280   43.6710 C   0  0  0  0  0  0  0  0  0  0  0  0
   58.1700   26.9380   43.9100 C   0  0  0  0  0  0  0  0  0  0  0  0
   57.7750   27.6080   45.0780 C   0  0  0  0  0  0  0  0  0  0  0  0
   58.2000   28.9650   45.2870 N   0  0  0  0  0  0  0  0  0  0  0  0
   57.3400   30.1120   45.1370 C   0  0  0  0  0  0  0  0  0  0  0  0
   56.1180   29.9550   44.8670 O   0  0  0  0  0  0  0  0  0  0  0  0
   57.8650   31.4860   45.3090 C   0  0  0  0  0  0  0  0  0  0  0  0
   57.7310   32.4510   44.2940 C   0  0  0  0  0  0  0  0  0  0  0  0
   58.2380   33.7410   44.4730 C   0  0  0  0  0  0  0  0  0  0  0  0
   58.8910   34.0800   45.6590 C   0  0  0  0  0  0  0  0  0  0  0  0
   59.0480   33.1280   46.6730 C   0  0  0  0  0  0  0  0  0  0  0  0
   59.8440   33.5720   48.1800 S   0  0  0  0  0  0  0  0  0  0  0  0
   59.4220   32.6190   49.2620 O   0  0  0  0  0  0  0  0  0  0  0  0
   59.4440   34.9670   48.5700 O   0  0  0  0  0  0  0  0  0  0  0  0
   61.5640   33.4990   47.9760 N   0  0  0  0  0  0  0  0  0  0  0  0
   62.2550   33.5360   46.6900 C   0  0  0  0  0  0  0  0  0  0  0  0
   63.7620   33.3870   47.0150 C   0  0  0  0  0  0  0  0  0  0  0  0
   63.7840   33.2540   48.4990 C   0  0  0  0  0  0  0  0  0  0  0  0
   64.8900   33.0800   49.3340 C   0  0  0  0  0  0  0  0  0  0  0  0
   64.6750   32.9760   50.7180 C   0  0  0  0  0  0  0  0  0  0  0  0
   63.3680   33.0470   51.2390 C   0  0  0  0  0  0  0  0  0  0  0  0
   62.2720   33.2230   50.3800 C   0  0  0  0  0  0  0  0  0  0  0  0
   62.5160   33.3230   49.0080 C   0  0  0  0  0  0  0  0  0  0  0  0
   58.5340   31.8350   46.4960 C   0  0  0  0  0  0  0  0  0  0  0  0
   56.9180   26.9560   45.9840 C   0  0  0  0  0  0  0  0  0  0  0  0
   54.9892   21.3207   46.1379 H   0  0  0  0  0  0  0  0  0  0  0  0
   54.5303   22.7676   45.1774 H   0  0  0  0  0  0  0  0  0  0  0  0
   56.2320   22.1922   45.1774 H   0  0  0  0  0  0  0  0  0  0  0  0
   56.5986   23.9417   44.3962 H   0  0  0  0  0  0  0  0  0  0  0  0
   58.0733   25.1072   42.7576 H   0  0  0  0  0  0  0  0  0  0  0  0
   58.8142   27.4478   43.1785 H   0  0  0  0  0  0  0  0  0  0  0  0
   59.1790   29.1070   45.6180 H   0  0  0  0  0  0  0  0  0  0  0  0
   57.2240   32.1885   43.3537 H   0  0  0  0  0  0  0  0  0  0  0  0
   58.1221   34.4912   43.6769 H   0  0  0  0  0  0  0  0  0  0  0  0
   59.2834   35.0983   45.7973 H   0  0  0  0  0  0  0  0  0  0  0  0
   61.9176   32.7073   46.0501 H   0  0  0  0  0  0  0  0  0  0  0  0
   62.0488   34.4701   46.1469 H   0  0  0  0  0  0  0  0  0  0  0  0
   64.1818   32.4916   46.5333 H   0  0  0  0  0  0  0  0  0  0  0  0
   64.3653   34.2315   46.6506 H   0  0  0  0  0  0  0  0  0  0  0  0
   65.9065   33.0256   48.9171 H   0  0  0  0  0  0  0  0  0  0  0  0
   65.5294   32.8387   51.3970 H   0  0  0  0  0  0  0  0  0  0  0  0
   63.2057   32.9641   52.3238 H   0  0  0  0  0  0  0  0  0  0  0  0
   61.2476   33.2807   50.7767 H   0  0  0  0  0  0  0  0  0  0  0  0
   58.6553   31.0868   47.2931 H   0  0  0  0  0  0  0  0  0  0  0  0
   56.5738   27.4859   46.8844 H   0  0  0  0  0  0  0  0  0  0  0  0
  1  2  1  0
  2  3  2  0
  2  4  2  0
  2  5  1  0
  5  6  1  0
  6  7  2  0
  7  8  1  0
  8  9  2  0
  9 10  1  0
 10 11  1  0
 11 12  1  0
 12 13  2  0
 12 14  1  0
 14 15  2  0
 15 16  1  0
 16 17  2  0
 17 18  1  0
 18 19  1  0
 19 20  2  0
 19 21  2  0
 19 22  1  0
 22 23  1  0
 23 24  1  0
 24 25  1  0
 25 26  2  0
 26 27  1  0
 27 28  2  0
 28 29  1  0
 29 30  2  0
 18 31  2  0
 10 32  2  0
 32  6  1  0
 31 14  1  0
 30 22  1  0
 30 25  1  0
  1 33  1  0
  1 34  1  0
  1 35  1  0
  7 36  1  0
  8 37  1  0
  9 38  1  0
 11 39  1  0
 15 40  1  0
 16 41  1  0
 17 42  1  0
 23 43  1  0
 23 44  1  0
 24 45  1  0
 24 46  1  0
 26 47  1  0
 27 48  1  0
 28 49  1  0
 29 50  1  0
 31 51  1  0
 32 52  1  0
M  CHG  1   5  -1
M  END
>  <UniqueID>  (72) 
65

>  <SMILES>  (72) 
CS(=O)(=O)[N-]c1cccc(NC(=O)c2cccc(S(=O)(=O)N3CCc4ccccc43)c2)c1

>  <Energy>  (72) 
77.95174916271411

>  <Genealogy>  (72) 
CS(=O)(=O)[N-]c1cccc(NC(=O)c2cccc(S(=O)(=O)N3CCc4ccccc43)c2)c1 (protonated)
CS(=O)(=O)[N-]c1cccc(NC(=O)c2cccc(S(=O)(=O)N3CCc4ccccc43)c2)c1 (3D coordinates assigned)
CS(=O)(=O)[N-]c1cccc(NC(=O)c2cccc(S(=O)(=O)N3CCc4ccccc43)c2)c1 (nonaromatic ring conformer: 77.95174916271411 kcal/mol)

>  <smiles>  (72) 
CS(=O)(=O)Nc1cccc(NC(=O)c2cccc(S(=O)(=O)N3CCc4ccccc43)c2)c1

>  <score_type>  (72) 
oracle

>  <origin>  (72) 
adg

>  <m_score__min__energy>  (72) 
-12.56

>  <m_primary>  (72) 
energy

$$$$
72:0
     RDKit          3D

 61 64  0  0  0  0  0  0  0  0999 V2000
   64.1120   31.3900   50.4960 C   0  0  0  0  0  0  0  0  0  0  0  0
   65.2510   32.3140   50.0620 C   0  0  0  0  0  0  0  0  0  0  0  0
   64.8740   33.0750   48.9140 O   0  0  0  0  0  0  0  0  0  0  0  0
   63.5620   33.2690   48.4500 C   0  0  0  0  0  0  0  0  0  0  0  0
   62.6840   34.0080   49.2520 C   0  0  0  0  0  0  0  0  0  0  0  0
   61.3620   34.2200   48.8500 C   0  0  0  0  0  0  0  0  0  0  0  0
   60.9020   33.7050   47.6310 C   0  0  0  0  0  0  0  0  0  0  0  0
   59.2340   33.9610   47.1290 S   0  0  0  0  0  0  0  0  0  0  0  0
   58.9110   35.4290   47.1490 O   0  0  0  0  0  0  0  0  0  0  0  0
   58.3140   33.2510   48.0840 O   0  0  0  0  0  0  0  0  0  0  0  0
   58.9710   33.3580   45.5220 N   0  0  0  0  0  0  0  0  0  0  0  0
   58.4430   32.0600   45.2210 C   0  0  0  0  0  0  0  0  0  0  0  0
   59.1380   30.9290   45.6460 C   0  0  0  0  0  0  0  0  0  0  0  0
   58.6150   29.6540   45.4150 C   0  0  0  0  0  0  0  0  0  0  0  0
   57.4030   29.4910   44.7370 C   0  0  0  0  0  0  0  0  0  0  0  0
   56.8860   28.1600   44.5580 N   0  0  0  0  0  0  0  0  0  0  0  0
   56.7190   26.9780   45.8180 S   0  0  0  0  0  0  0  0  0  0  0  0
   57.3060   27.5310   47.0830 O   0  0  0  0  0  0  0  0  0  0  0  0
   55.2570   26.7120   46.0290 O   0  0  0  0  0  0  0  0  0  0  0  0
   57.5100   25.4580   45.3760 C   0  0  0  0  0  0  0  0  0  0  0  0
   56.8780   24.5980   44.4590 C   0  0  0  0  0  0  0  0  0  0  0  0
   57.4370   23.3580   44.1460 C   0  0  0  0  0  0  0  0  0  0  0  0
   58.6290   22.9560   44.7450 C   0  0  0  0  0  0  0  0  0  0  0  0
   59.2720   23.7940   45.6570 C   0  0  0  0  0  0  0  0  0  0  0  0
   58.7180   25.0440   45.9970 C   0  0  0  0  0  0  0  0  0  0  0  0
   59.3690   25.8770   46.9720 N   0  0  0  0  0  0  0  0  0  0  0  0
   60.2350   27.0080   46.6220 C   0  0  0  0  0  0  0  0  0  0  0  0
   60.4430   27.8900   47.8210 C   0  0  0  0  0  0  0  0  0  0  0  0
   60.7550   29.2520   47.6720 C   0  0  0  0  0  0  0  0  0  0  0  0
   60.9780   30.0300   48.8080 C   0  0  0  0  0  0  0  0  0  0  0  0
   60.9080   29.4450   50.0740 C   0  0  0  0  0  0  0  0  0  0  0  0
   60.6140   28.0850   50.1840 C   0  0  0  0  0  0  0  0  0  0  0  0
   60.3860   27.3450   49.0680 N   0  0  0  0  0  0  0  0  0  0  0  0
   56.7110   30.6280   44.2810 C   0  0  0  0  0  0  0  0  0  0  0  0
   57.2250   31.9020   44.5260 C   0  0  0  0  0  0  0  0  0  0  0  0
   61.7740   32.9640   46.8190 C   0  0  0  0  0  0  0  0  0  0  0  0
   63.0980   32.7430   47.2240 C   0  0  0  0  0  0  0  0  0  0  0  0
   64.0675   31.3539   51.5945 H   0  0  0  0  0  0  0  0  0  0  0  0
   63.1589   31.7733   50.1028 H   0  0  0  0  0  0  0  0  0  0  0  0
   64.2905   30.3783   50.1028 H   0  0  0  0  0  0  0  0  0  0  0  0
   65.4932   33.0005   50.8867 H   0  0  0  0  0  0  0  0  0  0  0  0
   66.1271   31.6997   49.8070 H   0  0  0  0  0  0  0  0  0  0  0  0
   63.0374   34.4253   50.2064 H   0  0  0  0  0  0  0  0  0  0  0  0
   60.6795   34.7940   49.4940 H   0  0  0  0  0  0  0  0  0  0  0  0
   60.1014   31.0405   46.1650 H   0  0  0  0  0  0  0  0  0  0  0  0
   59.1628   28.7688   45.7704 H   0  0  0  0  0  0  0  0  0  0  0  0
   55.9346   24.9058   43.9844 H   0  0  0  0  0  0  0  0  0  0  0  0
   56.9352   22.6964   43.4246 H   0  0  0  0  0  0  0  0  0  0  0  0
   59.0641   21.9762   44.4986 H   0  0  0  0  0  0  0  0  0  0  0  0
   60.2202   23.4756   46.1147 H   0  0  0  0  0  0  0  0  0  0  0  0
   59.3080   25.6270   47.9810 H   0  0  0  0  0  0  0  0  0  0  0  0
   61.2079   26.6280   46.2768 H   0  0  0  0  0  0  0  0  0  0  0  0
   59.7568   27.5936   45.8230 H   0  0  0  0  0  0  0  0  0  0  0  0
   60.8227   29.7001   46.6697 H   0  0  0  0  0  0  0  0  0  0  0  0
   61.2083   31.1009   48.7069 H   0  0  0  0  0  0  0  0  0  0  0  0
   61.0829   30.0501   50.9758 H   0  0  0  0  0  0  0  0  0  0  0  0
   60.5669   27.6118   51.1759 H   0  0  0  0  0  0  0  0  0  0  0  0
   55.7651   30.5127   43.7315 H   0  0  0  0  0  0  0  0  0  0  0  0
   56.6771   32.7890   44.1751 H   0  0  0  0  0  0  0  0  0  0  0  0
   61.4178   32.5553   45.8619 H   0  0  0  0  0  0  0  0  0  0  0  0
   63.7769   32.1587   46.5855 H   0  0  0  0  0  0  0  0  0  0  0  0
  1  2  1  0
  2  3  1  0
  3  4  1  0
  4  5  2  0
  5  6  1  0
  6  7  2  0
  7  8  1  0
  8  9  2  0
  8 10  2  0
  8 11  1  0
 11 12  1  0
 12 13  2  0
 13 14  1  0
 14 15  2  0
 15 16  1  0
 16 17  1  0
 17 18  2  0
 17 19  2  0
 17 20  1  0
 20 21  2  0
 21 22  1  0
 22 23  2  0
 23 24  1  0
 24 25  2  0
 25 26  1  0
 26 27  1  0
 27 28  1  0
 28 29  2  0
 29 30  1  0
 30 31  2  0
 31 32  1  0
 32 33  2  0
 15 34  1  0
 34 35  2  0
  7 36  1  0
 36 37  2  0
 37  4  1  0
 35 12  1  0
 25 20  1  0
 33 28  1  0
  1 38  1  0
  1 39  1  0
  1 40  1  0
  2 41  1  0
  2 42  1  0
  5 43  1  0
  6 44  1  0
 13 45  1  0
 14 46  1  0
 21 47  1  0
 22 48  1  0
 23 49  1  0
 24 50  1  0
 26 51  1  0
 27 52  1  0
 27 53  1  0
 29 54  1  0
 30 55  1  0
 31 56  1  0
 32 57  1  0
 34 58  1  0
 35 59  1  0
 36 60  1  0
 37 61  1  0
M  CHG  2  11  -1  16  -1
M  END
>  <UniqueID>  (73) 
66

>  <SMILES>  (73) 
CCOc1ccc(S(=O)(=O)[N-]c2ccc([N-]S(=O)(=O)c3ccccc3NCc3ccccn3)cc2)cc1

>  <Energy>  (73) 
74.07546379577084

>  <Genealogy>  (73) 
CCOc1ccc(S(=O)(=O)[N-]c2ccc([N-]S(=O)(=O)c3ccccc3NCc3ccccn3)cc2)cc1 (protonated)
CCOc1ccc(S(=O)(=O)[N-]c2ccc([N-]S(=O)(=O)c3ccccc3NCc3ccccn3)cc2)cc1 (3D coordinates assigned)
CCOc1ccc(S(=O)(=O)[N-]c2ccc([N-]S(=O)(=O)c3ccccc3NCc3ccccn3)cc2)cc1 (optimized conformer: 74.07546379577084 kcal/mol)

>  <smiles>  (73) 
CCOc1ccc(S(=O)(=O)Nc2ccc(NS(=O)(=O)c3ccccc3NCc3ccccn3)cc2)cc1

>  <score_type>  (73) 
oracle

>  <origin>  (73) 
adg

>  <m_score__min__energy>  (73) 
-12.119999999999999

>  <m_primary>  (73) 
energy

$$$$
73:0
     RDKit          3D

 55 59  0  0  0  0  0  0  0  0999 V2000
   57.3840   34.2230   44.8270 C   0  0  0  0  0  0  0  0  0  0  0  0
   58.1940   34.0470   46.0750 C   0  0  0  0  0  0  0  0  0  0  0  0
   57.7110   33.2450   47.1200 C   0  0  0  0  0  0  0  0  0  0  0  0
   58.4710   33.0650   48.2780 C   0  0  0  0  0  0  0  0  0  0  0  0
   59.7220   33.6940   48.4110 C   0  0  0  0  0  0  0  0  0  0  0  0
   60.4830   33.5870   49.5860 O   0  0  0  0  0  0  0  0  0  0  0  0
   61.8310   33.1980   49.6270 C   0  0  0  0  0  0  0  0  0  0  0  0
   62.7910   34.1700   49.9330 C   0  0  0  0  0  0  0  0  0  0  0  0
   64.1510   33.8490   49.9300 C   0  0  0  0  0  0  0  0  0  0  0  0
   64.5630   32.5500   49.6270 C   0  0  0  0  0  0  0  0  0  0  0  0
   63.6150   31.5610   49.3510 C   0  0  0  0  0  0  0  0  0  0  0  0
   62.2450   31.8650   49.3760 C   0  0  0  0  0  0  0  0  0  0  0  0
   61.2720   30.7790   49.1570 C   0  0  0  0  0  0  0  0  0  0  0  0
   60.8710   29.9490   50.2120 C   0  0  0  0  0  0  0  0  0  0  0  0
   59.8970   28.9760   49.9830 C   0  0  0  0  0  0  0  0  0  0  0  0
   59.3320   28.8400   48.7130 C   0  0  0  0  0  0  0  0  0  0  0  0
   59.7580   29.6840   47.6730 C   0  0  0  0  0  0  0  0  0  0  0  0
   59.1770   29.6040   46.3570 N   0  0  0  0  0  0  0  0  0  0  0  0
   59.3290   28.4360   45.5050 C   0  0  0  0  0  0  0  0  0  0  0  0
   58.7760   28.8470   44.1460 C   0  0  0  0  0  0  0  0  0  0  0  0
   57.8500   30.0480   44.4350 C   0  0  2  0  0  0  0  0  0  0  0  0
   56.4070   29.6090   44.5750 C   0  0  0  0  0  0  0  0  0  0  0  0
   55.8790   29.7320   43.1560 C   0  0  0  0  0  0  0  0  0  0  0  0
   56.7180   30.5900   42.4110 O   0  0  0  0  0  0  0  0  0  0  0  0
   57.7520   31.0210   43.2650 C   0  0  0  0  0  0  0  0  0  0  0  0
   58.4210   30.6720   45.7200 C   0  0  0  0  0  0  0  0  0  0  0  0
   60.7150   30.6190   47.9260 N   0  0  0  0  0  0  0  0  0  0  0  0
   60.2260   34.4480   47.3460 C   0  0  0  0  0  0  0  0  0  0  0  0
   59.4680   34.6270   46.1850 C   0  0  0  0  0  0  0  0  0  0  0  0
   56.3416   34.4495   45.0954 H   0  0  0  0  0  0  0  0  0  0  0  0
   57.7986   35.0520   44.2347 H   0  0  0  0  0  0  0  0  0  0  0  0
   57.4172   33.2967   44.2347 H   0  0  0  0  0  0  0  0  0  0  0  0
   56.7300   32.7561   47.0270 H   0  0  0  0  0  0  0  0  0  0  0  0
   58.0894   32.4283   49.0898 H   0  0  0  0  0  0  0  0  0  0  0  0
   62.4723   35.1940   50.1776 H   0  0  0  0  0  0  0  0  0  0  0  0
   64.8980   34.6210   50.1667 H   0  0  0  0  0  0  0  0  0  0  0  0
   65.6351   32.3046   49.6055 H   0  0  0  0  0  0  0  0  0  0  0  0
   63.9443   30.5388   49.1129 H   0  0  0  0  0  0  0  0  0  0  0  0
   61.3190   30.0630   51.2101 H   0  0  0  0  0  0  0  0  0  0  0  0
   59.5745   28.3166   50.8023 H   0  0  0  0  0  0  0  0  0  0  0  0
   58.5599   28.0786   48.5282 H   0  0  0  0  0  0  0  0  0  0  0  0
   60.3899   28.1579   45.4200 H   0  0  0  0  0  0  0  0  0  0  0  0
   58.7998   27.5623   45.9130 H   0  0  0  0  0  0  0  0  0  0  0  0
   59.5922   29.1425   43.4703 H   0  0  0  0  0  0  0  0  0  0  0  0
   58.2400   28.0227   43.6527 H   0  0  0  0  0  0  0  0  0  0  0  0
   56.3415   28.5712   44.9336 H   0  0  0  0  0  0  0  0  0  0  0  0
   55.8391   30.2052   45.3043 H   0  0  0  0  0  0  0  0  0  0  0  0
   55.8606   28.7382   42.6848 H   0  0  0  0  0  0  0  0  0  0  0  0
   54.8606   30.1471   43.1798 H   0  0  0  0  0  0  0  0  0  0  0  0
   58.7047   31.0375   42.7153 H   0  0  0  0  0  0  0  0  0  0  0  0
   57.5378   32.0347   43.6346 H   0  0  0  0  0  0  0  0  0  0  0  0
   59.0790   31.5197   45.4782 H   0  0  0  0  0  0  0  0  0  0  0  0
   57.6288   31.0634   46.3752 H   0  0  0  0  0  0  0  0  0  0  0  0
   61.2247   34.9028   47.4225 H   0  0  0  0  0  0  0  0  0  0  0  0
   59.8713   35.2247   45.3543 H   0  0  0  0  0  0  0  0  0  0  0  0
  1  2  1  0
  2  3  2  0
  3  4  1  0
  4  5  2  0
  5  6  1  0
  6  7  1  0
  7  8  2  0
  8  9  1  0
  9 10  2  0
 10 11  1  0
 11 12  2  0
 12 13  1  0
 13 14  2  0
 14 15  1  0
 15 16  2  0
 16 17  1  0
 17 18  1  0
 18 19  1  0
 19 20  1  0
 21 20  1  6
 21 22  1  0
 22 23  1  0
 23 24  1  0
 24 25  1  0
 21 26  1  0
 17 27  2  0
  5 28  1  0
 28 29  2  0
 29  2  1  0
 12  7  1  0
 27 13  1  0
 26 18  1  0
 25 21  1  0
  1 30  1  0
  1 31  1  0
  1 32  1  0
  3 33  1  0
  4 34  1  0
  8 35  1  0
  9 36  1  0
 10 37  1  0
 11 38  1  0
 14 39  1  0
 15 40  1  0
 16 41  1  0
 19 42  1  0
 19 43  1  0
 20 44  1  0
 20 45  1  0
 22 46  1  0
 22 47  1  0
 23 48  1  0
 23 49  1  0
 25 50  1  0
 25 51  1  0
 26 52  1  0
 26 53  1  0
 28 54  1  0
 29 55  1  0
M  END
>  <UniqueID>  (74) 
67

>  <SMILES>  (74) 
Cc1ccc(Oc2ccccc2-c2cccc(N3CC[C@@]4(CCOC4)C3)n2)cc1

>  <Energy>  (74) 
75.59981857852615

>  <Genealogy>  (74) 
Cc1ccc(Oc2ccccc2-c2cccc(N3CC[C@@]4(CCOC4)C3)n2)cc1 (chirality)
Cc1ccc(Oc2ccccc2-c2cccc(N3CC[C@@]4(CCOC4)C3)n2)cc1 (3D coordinates assigned)
Cc1ccc(Oc2ccccc2-c2cccc(N3CC[C@@]4(CCOC4)C3)n2)cc1 (nonaromatic ring conformer: 75.59981857852615 kcal/mol)

>  <smiles>  (74) 
Cc1ccc(Oc2ccccc2-c2cccc(N3CCC4(CCOC4)C3)n2)cc1

>  <score_type>  (74) 
oracle

>  <origin>  (74) 
adg

>  <m_score__min__energy>  (74) 
-9.3599999999999994

>  <m_primary>  (74) 
energy

$$$$
74:0
     RDKit          3D

 31 33  0  0  0  0  0  0  0  0999 V2000
   58.8440   29.3870   49.7560 C   0  0  0  0  0  0  0  0  0  0  0  0
   57.7640   29.6860   50.6330 O   0  0  0  0  0  0  0  0  0  0  0  0
   57.6770   30.8420   51.4260 C   0  0  0  0  0  0  0  0  0  0  0  0
   58.2040   32.0750   50.9980 C   0  0  0  0  0  0  0  0  0  0  0  0
   58.1270   33.1880   51.8360 C   0  0  0  0  0  0  0  0  0  0  0  0
   57.5470   33.0810   53.0590 N   0  0  0  0  0  0  0  0  0  0  0  0
   57.0220   31.9090   53.5010 C   0  0  0  0  0  0  0  0  0  0  0  0
   57.0580   30.7640   52.6900 C   0  0  0  0  0  0  0  0  0  0  0  0
   56.4580   29.5030   53.1810 C   0  0  0  0  0  0  0  0  0  0  0  0
   57.2440   28.4860   53.7170 C   0  0  0  0  0  0  0  0  0  0  0  0
   56.1850   27.2430   54.0300 S   0  0  0  0  0  0  0  0  0  0  0  0
   54.7510   27.9180   53.5410 N   0  0  0  0  0  0  0  0  0  0  0  0
   55.0720   29.1670   53.1120 C   0  0  0  0  0  0  0  0  0  0  0  0
   54.0090   30.0840   52.6410 C   0  0  0  0  0  0  0  0  0  0  0  0
   54.0440   30.5700   51.3240 C   0  0  0  0  0  0  0  0  0  0  0  0
   53.0560   31.4500   50.8700 C   0  0  0  0  0  0  0  0  0  0  0  0
   52.0180   31.8370   51.7210 C   0  0  0  0  0  0  0  0  0  0  0  0
   51.0380   32.7130   51.2680 O   0  0  0  0  0  0  0  0  0  0  0  0
   51.9630   31.3410   53.0260 C   0  0  0  0  0  0  0  0  0  0  0  0
   52.9490   30.4630   53.4840 C   0  0  0  0  0  0  0  0  0  0  0  0
   59.7383   29.1394   50.3467 H   0  0  0  0  0  0  0  0  0  0  0  0
   58.5747   28.5296   49.1217 H   0  0  0  0  0  0  0  0  0  0  0  0
   59.0539   30.2608   49.1217 H   0  0  0  0  0  0  0  0  0  0  0  0
   58.6744   32.1608   50.0074 H   0  0  0  0  0  0  0  0  0  0  0  0
   58.5369   34.1537   51.5053 H   0  0  0  0  0  0  0  0  0  0  0  0
   56.5658   31.8568   54.5006 H   0  0  0  0  0  0  0  0  0  0  0  0
   58.3294   28.5016   53.8947 H   0  0  0  0  0  0  0  0  0  0  0  0
   54.8520   30.2573   50.6463 H   0  0  0  0  0  0  0  0  0  0  0  0
   53.0965   31.8378   49.8414 H   0  0  0  0  0  0  0  0  0  0  0  0
   51.1424   31.6420   53.6939 H   0  0  0  0  0  0  0  0  0  0  0  0
   52.8958   30.0665   54.5087 H   0  0  0  0  0  0  0  0  0  0  0  0
  1  2  1  0
  2  3  1  0
  3  4  2  0
  4  5  1  0
  5  6  2  0
  6  7  1  0
  7  8  2  0
  8  9  1  0
  9 10  2  0
 10 11  1  0
 11 12  1  0
 12 13  2  0
 13 14  1  0
 14 15  2  0
 15 16  1  0
 16 17  2  0
 17 18  1  0
 17 19  1  0
 19 20  2  0
  8  3  1  0
 13  9  1  0
 20 14  1  0
  1 21  1  0
  1 22  1  0
  1 23  1  0
  4 24  1  0
  5 25  1  0
  7 26  1  0
 10 27  1  0
 15 28  1  0
 16 29  1  0
 19 30  1  0
 20 31  1  0
M  CHG  1  18  -1
M  END
>  <UniqueID>  (75) 
68

>  <SMILES>  (75) 
COc1ccncc1-c1csnc1-c1ccc([O-])cc1

>  <Energy>  (75) 
75.03222345279865

>  <Genealogy>  (75) 
COc1ccncc1-c1csnc1-c1ccc([O-])cc1 (protonated)
COc1ccncc1-c1csnc1-c1ccc([O-])cc1 (3D coordinates assigned)
COc1ccncc1-c1csnc1-c1ccc([O-])cc1 (optimized conformer: 75.03222345279865 kcal/mol)

>  <smiles>  (75) 
COc1ccncc1-c1csnc1-c1ccc(O)cc1

>  <score_type>  (75) 
oracle

>  <origin>  (75) 
adg

>  <m_score__min__energy>  (75) 
-9.3300000000000001

>  <m_primary>  (75) 
energy

$$$$
75:0
     RDKit          3D

 73 78  0  0  0  0  0  0  0  0999 V2000
   50.9900   30.2640   47.8700 C   0  0  0  0  0  0  0  0  0  0  0  0
   51.4670   29.6880   49.0820 O   0  0  0  0  0  0  0  0  0  0  0  0
   52.1130   30.3740   50.1250 C   0  0  0  0  0  0  0  0  0  0  0  0
   53.2100   29.7370   50.7220 C   0  0  0  0  0  0  0  0  0  0  0  0
   53.9230   30.3490   51.7670 C   0  0  0  0  0  0  0  0  0  0  0  0
   55.0550   29.6580   52.4200 C   0  0  0  0  0  0  0  0  0  0  0  0
   56.3280   29.7950   51.9960 N   0  0  0  0  0  0  0  0  0  0  0  0
   57.0380   29.1520   52.9440 C   0  0  0  0  0  0  0  0  0  0  0  0
   58.4650   29.0890   52.9400 N   0  0  0  0  0  0  0  0  0  0  0  0
   59.2440   30.3130   52.7660 C   0  0  0  0  0  0  0  0  0  0  0  0
   60.1200   30.2130   51.4990 C   0  0  0  0  0  0  0  0  0  0  0  0
   60.2700   28.8200   51.0080 N   0  0  0  0  0  0  0  0  0  0  0  0
   61.3900   28.7410   50.0490 C   0  0  0  0  0  0  0  0  0  0  0  0
   60.8940   28.4960   48.6420 C   0  0  0  0  0  0  0  0  0  0  0  0
   60.8050   27.1800   48.1570 C   0  0  0  0  0  0  0  0  0  0  0  0
   60.3880   26.9350   46.8480 C   0  0  0  0  0  0  0  0  0  0  0  0
   60.0610   27.9990   46.0090 C   0  0  0  0  0  0  0  0  0  0  0  0
   60.1440   29.3120   46.4750 C   0  0  0  0  0  0  0  0  0  0  0  0
   60.5550   29.5760   47.7970 C   0  0  0  0  0  0  0  0  0  0  0  0
   60.6280   30.8860   48.3060 O   0  0  0  0  0  0  0  0  0  0  0  0
   59.5090   31.7290   48.5940 C   0  0  0  0  0  0  0  0  0  0  0  0
   59.2640   32.7450   47.5050 C   0  0  0  0  0  0  0  0  0  0  0  0
   60.1000   33.8660   47.3540 C   0  0  0  0  0  0  0  0  0  0  0  0
   59.8650   34.7920   46.3340 C   0  0  0  0  0  0  0  0  0  0  0  0
   58.8130   34.5930   45.4360 C   0  0  0  0  0  0  0  0  0  0  0  0
   57.9940   33.4670   45.5590 C   0  0  0  0  0  0  0  0  0  0  0  0
   58.2190   32.5450   46.5870 C   0  0  0  0  0  0  0  0  0  0  0  0
   60.4540   27.8800   52.1320 C   0  0  0  0  0  0  0  0  0  0  0  0
   59.1550   27.7980   52.9500 C   0  0  0  0  0  0  0  0  0  0  0  0
   56.2950   28.6370   53.8960 O   0  0  0  0  0  0  0  0  0  0  0  0
   55.0500   28.9140   53.5970 C   0  0  0  0  0  0  0  0  0  0  0  0
   53.9000   28.4460   54.3990 C   0  0  0  0  0  0  0  0  0  0  0  0
   53.2050   29.3150   55.2590 C   0  0  0  0  0  0  0  0  0  0  0  0
   52.0970   28.8600   55.9790 C   0  0  0  0  0  0  0  0  0  0  0  0
   51.6620   27.5400   55.8350 C   0  0  0  0  0  0  0  0  0  0  0  0
   52.3330   26.6750   54.9670 C   0  0  0  0  0  0  0  0  0  0  0  0
   53.4440   27.1250   54.2470 C   0  0  0  0  0  0  0  0  0  0  0  0
   53.5030   31.5970   52.2410 C   0  0  0  0  0  0  0  0  0  0  0  0
   52.4130   32.2440   51.6580 C   0  0  0  0  0  0  0  0  0  0  0  0
   51.7170   31.6480   50.6020 C   0  0  0  0  0  0  0  0  0  0  0  0
   50.6440   32.3350   50.0500 O   0  0  0  0  0  0  0  0  0  0  0  0
   50.3043   31.0921   48.1026 H   0  0  0  0  0  0  0  0  0  0  0  0
   51.8404   30.6453   47.2857 H   0  0  0  0  0  0  0  0  0  0  0  0
   50.4569   29.4996   47.2857 H   0  0  0  0  0  0  0  0  0  0  0  0
   53.5175   28.7424   50.3668 H   0  0  0  0  0  0  0  0  0  0  0  0
   58.5593   31.1683   52.6676 H   0  0  0  0  0  0  0  0  0  0  0  0
   59.8949   30.4512   53.6419 H   0  0  0  0  0  0  0  0  0  0  0  0
   59.6579   30.8172   50.7044 H   0  0  0  0  0  0  0  0  0  0  0  0
   61.1232   30.5799   51.7618 H   0  0  0  0  0  0  0  0  0  0  0  0
   61.9485   29.6884   50.0719 H   0  0  0  0  0  0  0  0  0  0  0  0
   62.0367   27.9001   50.3399 H   0  0  0  0  0  0  0  0  0  0  0  0
   61.0659   26.3371   48.8139 H   0  0  0  0  0  0  0  0  0  0  0  0
   60.3173   25.9015   46.4780 H   0  0  0  0  0  0  0  0  0  0  0  0
   59.7365   27.8032   44.9763 H   0  0  0  0  0  0  0  0  0  0  0  0
   59.8869   30.1464   45.8059 H   0  0  0  0  0  0  0  0  0  0  0  0
   58.6117   31.1019   48.7015 H   0  0  0  0  0  0  0  0  0  0  0  0
   59.7292   32.2763   49.5224 H   0  0  0  0  0  0  0  0  0  0  0  0
   60.9443   34.0148   48.0432 H   0  0  0  0  0  0  0  0  0  0  0  0
   60.5090   35.6786   46.2379 H   0  0  0  0  0  0  0  0  0  0  0  0
   58.6295   35.3219   44.6329 H   0  0  0  0  0  0  0  0  0  0  0  0
   57.1715   33.3056   44.8466 H   0  0  0  0  0  0  0  0  0  0  0  0
   57.5742   31.6584   46.6772 H   0  0  0  0  0  0  0  0  0  0  0  0
   60.7034   26.8832   51.7392 H   0  0  0  0  0  0  0  0  0  0  0  0
   61.2713   28.2353   52.7768 H   0  0  0  0  0  0  0  0  0  0  0  0
   58.4981   27.0322   52.5117 H   0  0  0  0  0  0  0  0  0  0  0  0
   59.4027   27.5331   53.9885 H   0  0  0  0  0  0  0  0  0  0  0  0
   53.5354   30.3588   55.3656 H   0  0  0  0  0  0  0  0  0  0  0  0
   51.5667   29.5419   56.6600 H   0  0  0  0  0  0  0  0  0  0  0  0
   50.7918   27.1821   56.4047 H   0  0  0  0  0  0  0  0  0  0  0  0
   51.9865   25.6376   54.8497 H   0  0  0  0  0  0  0  0  0  0  0  0
   53.9635   26.4422   53.5586 H   0  0  0  0  0  0  0  0  0  0  0  0
   54.0357   32.0709   53.0786 H   0  0  0  0  0  0  0  0  0  0  0  0
   52.0991   33.2298   52.0317 H   0  0  0  0  0  0  0  0  0  0  0  0
  1  2  1  0
  2  3  1  0
  3  4  2  0
  4  5  1  0
  5  6  1  0
  6  7  1  0
  7  8  2  0
  8  9  1  0
  9 10  1  0
 10 11  1  0
 11 12  1  0
 12 13  1  0
 13 14  1  0
 14 15  2  0
 15 16  1  0
 16 17  2  0
 17 18  1  0
 18 19  2  0
 19 20  1  0
 20 21  1  0
 21 22  1  0
 22 23  2  0
 23 24  1  0
 24 25  2  0
 25 26  1  0
 26 27  2  0
 12 28  1  0
 28 29  1  0
  8 30  1  0
 30 31  1  0
 31 32  1  0
 32 33  2  0
 33 34  1  0
 34 35  2  0
 35 36  1  0
 36 37  2  0
  5 38  2  0
 38 39  1  0
 39 40  2  0
 40 41  1  0
 40  3  1  0
 31  6  2  0
 37 32  1  0
 29  9  1  0
 19 14  1  0
 27 22  1  0
  1 42  1  0
  1 43  1  0
  1 44  1  0
  4 45  1  0
 10 46  1  0
 10 47  1  0
 11 48  1  0
 11 49  1  0
 13 50  1  0
 13 51  1  0
 15 52  1  0
 16 53  1  0
 17 54  1  0
 18 55  1  0
 21 56  1  0
 21 57  1  0
 23 58  1  0
 24 59  1  0
 25 60  1  0
 26 61  1  0
 27 62  1  0
 28 63  1  0
 28 64  1  0
 29 65  1  0
 29 66  1  0
 33 67  1  0
 34 68  1  0
 35 69  1  0
 36 70  1  0
 37 71  1  0
 38 72  1  0
 39 73  1  0
M  CHG  1  41  -1
M  END
>  <UniqueID>  (76) 
69

>  <SMILES>  (76) 
COc1cc(-c2nc(N3CCN(Cc4ccccc4OCc4ccccc4)CC3)oc2-c2ccccc2)ccc1[O-]

>  <Energy>  (76) 
128.51694278208475

>  <Genealogy>  (76) 
COc1cc(-c2nc(N3CCN(Cc4ccccc4OCc4ccccc4)CC3)oc2-c2ccccc2)ccc1[O-] (protonated)
COc1cc(-c2nc(N3CCN(Cc4ccccc4OCc4ccccc4)CC3)oc2-c2ccccc2)ccc1[O-] (3D coordinates assigned)
COc1cc(-c2nc(N3CCN(Cc4ccccc4OCc4ccccc4)CC3)oc2-c2ccccc2)ccc1[O-] (nonaromatic ring conformer: 128.51694278208475 kcal/mol)

>  <smiles>  (76) 
COc1cc(-c2nc(N3CCN(Cc4ccccc4OCc4ccccc4)CC3)oc2-c2ccccc2)ccc1O

>  <score_type>  (76) 
oracle

>  <origin>  (76) 
adg

>  <m_score__min__energy>  (76) 
-13.67

>  <m_primary>  (76) 
energy

$$$$
76:0
     RDKit          3D

 54 57  0  0  0  0  0  0  0  0999 V2000
   57.0420   26.1070   47.1040 O   0  0  0  0  0  0  0  0  0  0  0  0
   56.5210   26.7410   46.1480 C   0  0  0  0  0  0  0  0  0  0  0  0
   55.1430   26.7000   45.9630 O   0  0  0  0  0  0  0  0  0  0  0  0
   57.3760   27.5660   45.2420 C   0  0  0  0  0  0  0  0  0  0  0  0
   57.5010   28.9430   45.7450 N   0  0  0  0  0  0  0  0  0  0  0  0
   56.9060   30.0960   44.5670 S   0  0  0  0  0  0  0  0  0  0  0  0
   55.4050   30.1450   44.5970 O   0  0  0  0  0  0  0  0  0  0  0  0
   57.3460   29.7060   43.1850 O   0  0  0  0  0  0  0  0  0  0  0  0
   57.5620   31.6930   44.9080 C   0  0  0  0  0  0  0  0  0  0  0  0
   57.3950   32.2860   46.1690 C   0  0  0  0  0  0  0  0  0  0  0  0
   57.9370   33.5470   46.4290 C   0  0  0  0  0  0  0  0  0  0  0  0
   58.6450   34.2240   45.4310 C   0  0  0  0  0  0  0  0  0  0  0  0
   58.8100   33.6390   44.1720 C   0  0  0  0  0  0  0  0  0  0  0  0
   58.2680   32.3780   43.9090 C   0  0  0  0  0  0  0  0  0  0  0  0
   59.1780   29.2880   46.1000 S   0  0  0  0  0  0  0  0  0  0  0  0
   59.8080   29.9980   44.9330 O   0  0  0  0  0  0  0  0  0  0  0  0
   59.9260   27.9970   46.3040 O   0  0  0  0  0  0  0  0  0  0  0  0
   59.3450   30.2980   47.5410 C   0  0  0  0  0  0  0  0  0  0  0  0
   58.5180   30.0870   48.6460 C   0  0  0  0  0  0  0  0  0  0  0  0
   58.6160   30.9170   49.7600 C   0  0  0  0  0  0  0  0  0  0  0  0
   59.5520   31.9580   49.7970 C   0  0  0  0  0  0  0  0  0  0  0  0
   60.4570   32.1390   48.7170 C   0  0  0  0  0  0  0  0  0  0  0  0
   60.3030   31.3210   47.5760 C   0  0  0  0  0  0  0  0  0  0  0  0
   61.5580   33.0870   48.8110 N   0  0  0  0  0  0  0  0  0  0  0  0
   62.8510   32.8390   48.1440 C   0  0  0  0  0  0  0  0  0  0  0  0
   63.8810   32.4020   49.1520 C   0  0  0  0  0  0  0  0  0  0  0  0
   65.1170   33.0640   49.2470 C   0  0  0  0  0  0  0  0  0  0  0  0
   66.0850   32.6090   50.1430 C   0  0  0  0  0  0  0  0  0  0  0  0
   65.8100   31.4920   50.9390 C   0  0  0  0  0  0  0  0  0  0  0  0
   67.0100   30.8950   52.0650 Cl  0  0  0  0  0  0  0  0  0  0  0  0
   64.6080   30.8580   50.8340 N   0  0  0  0  0  0  0  0  0  0  0  0
   63.6500   31.2800   49.9660 C   0  0  0  0  0  0  0  0  0  0  0  0
   61.5120   34.1590   49.8140 C   0  0  0  0  0  0  0  0  0  0  0  0
   61.1970   33.5750   51.1830 C   0  0  0  0  0  0  0  0  0  0  0  0
   59.4560   33.0840   51.2060 S   0  0  0  0  0  0  0  0  0  0  0  0
   58.3766   27.1132   45.1806 H   0  0  0  0  0  0  0  0  0  0  0  0
   56.9056   27.5971   44.2481 H   0  0  0  0  0  0  0  0  0  0  0  0
   56.8359   31.7565   46.9546 H   0  0  0  0  0  0  0  0  0  0  0  0
   57.8068   34.0077   47.4194 H   0  0  0  0  0  0  0  0  0  0  0  0
   59.0720   35.2167   45.6365 H   0  0  0  0  0  0  0  0  0  0  0  0
   59.3671   34.1719   43.3874 H   0  0  0  0  0  0  0  0  0  0  0  0
   58.3956   31.9220   42.9162 H   0  0  0  0  0  0  0  0  0  0  0  0
   57.7881   29.2641   48.6366 H   0  0  0  0  0  0  0  0  0  0  0  0
   57.9507   30.7530   50.6205 H   0  0  0  0  0  0  0  0  0  0  0  0
   60.9459   31.4895   46.6995 H   0  0  0  0  0  0  0  0  0  0  0  0
   62.7245   32.0498   47.3883 H   0  0  0  0  0  0  0  0  0  0  0  0
   63.1909   33.7682   47.6634 H   0  0  0  0  0  0  0  0  0  0  0  0
   65.3213   33.9408   48.6150 H   0  0  0  0  0  0  0  0  0  0  0  0
   67.0542   33.1232   50.2226 H   0  0  0  0  0  0  0  0  0  0  0  0
   62.6926   30.7422   49.9009 H   0  0  0  0  0  0  0  0  0  0  0  0
   62.4871   34.6669   49.8498 H   0  0  0  0  0  0  0  0  0  0  0  0
   60.7273   34.8789   49.5384 H   0  0  0  0  0  0  0  0  0  0  0  0
   61.8333   32.6970   51.3679 H   0  0  0  0  0  0  0  0  0  0  0  0
   61.3898   34.3224   51.9667 H   0  0  0  0  0  0  0  0  0  0  0  0
  1  2  2  0
  2  3  1  0
  2  4  1  0
  4  5  1  0
  5  6  1  0
  6  7  2  0
  6  8  2  0
  6  9  1  0
  9 10  2  0
 10 11  1  0
 11 12  2  0
 12 13  1  0
 13 14  2  0
  5 15  1  0
 15 16  2  0
 15 17  2  0
 15 18  1  0
 18 19  2  0
 19 20  1  0
 20 21  2  0
 21 22  1  0
 22 23  2  0
 22 24  1  0
 24 25  1  0
 25 26  1  0
 26 27  2  0
 27 28  1  0
 28 29  2  0
 29 30  1  0
 29 31  1  0
 31 32  2  0
 24 33  1  0
 33 34  1  0
 34 35  1  0
 14  9  1  0
 23 18  1  0
 32 26  1  0
 35 21  1  0
  4 36  1  0
  4 37  1  0
 10 38  1  0
 11 39  1  0
 12 40  1  0
 13 41  1  0
 14 42  1  0
 19 43  1  0
 20 44  1  0
 23 45  1  0
 25 46  1  0
 25 47  1  0
 27 48  1  0
 28 49  1  0
 32 50  1  0
 33 51  1  0
 33 52  1  0
 34 53  1  0
 34 54  1  0
M  CHG  1   3  -1
M  END
>  <UniqueID>  (77) 
70

>  <SMILES>  (77) 
O=C([O-])CN(S(=O)(=O)c1ccccc1)S(=O)(=O)c1ccc2c(c1)N(Cc1ccc(Cl)nc1)CCS2

>  <Energy>  (77) 
63.82371986655968

>  <Genealogy>  (77) 
O=C([O-])CN(S(=O)(=O)c1ccccc1)S(=O)(=O)c1ccc2c(c1)N(Cc1ccc(Cl)nc1)CCS2 (protonated)
O=C([O-])CN(S(=O)(=O)c1ccccc1)S(=O)(=O)c1ccc2c(c1)N(Cc1ccc(Cl)nc1)CCS2 (3D coordinates assigned)
O=C([O-])CN(S(=O)(=O)c1ccccc1)S(=O)(=O)c1ccc2c(c1)N(Cc1ccc(Cl)nc1)CCS2 (nonaromatic ring conformer: 63.82371986655968 kcal/mol)

>  <smiles>  (77) 
O=C(O)CN(S(=O)(=O)c1ccccc1)S(=O)(=O)c1ccc2c(c1)N(Cc1ccc(Cl)nc1)CCS2

>  <score_type>  (77) 
oracle

>  <origin>  (77) 
adg

>  <m_score__min__energy>  (77) 
-12.869999999999999

>  <m_primary>  (77) 
energy

$$$$
77:0
     RDKit          3D

 51 54  0  0  1  0  0  0  0  0999 V2000
   56.2970   28.6100   44.8720 O   0  0  0  0  0  0  0  0  0  0  0  0
   57.5020   28.8470   45.1520 C   0  0  0  0  0  0  0  0  0  0  0  0
   58.3970   27.7480   45.1260 N   0  0  0  0  0  0  0  0  0  0  0  0
   57.8570   26.4800   44.7840 C   0  0  0  0  0  0  0  0  0  0  0  0
   57.3840   25.6360   45.7690 C   0  0  0  0  0  0  0  0  0  0  0  0
   56.8530   24.3790   45.4510 C   0  0  0  0  0  0  0  0  0  0  0  0
   56.7740   23.9220   44.1590 C   0  0  0  0  0  0  0  0  0  0  0  0
   56.2370   22.6440   43.7490 C   0  0  0  0  0  0  0  0  0  0  0  0
   55.3940   22.6120   42.6290 O   0  0  0  0  0  0  0  0  0  0  0  0
   59.6580   33.3570   51.4710 N   0  0  0  0  0  0  0  0  0  0  0  0
   56.2550   20.3290   43.6760 O   0  0  0  0  0  0  0  0  0  0  0  0
   57.2520   24.7810   43.1830 C   0  0  0  0  0  0  0  0  0  0  0  0
   57.7740   26.0160   43.4860 C   0  0  0  0  0  0  0  0  0  0  0  0
   57.8880   30.2110   45.4800 C   0  0  0  0  0  0  0  0  0  0  0  0
   57.6120   31.1870   44.5320 C   0  0  0  0  0  0  0  0  0  0  0  0
   57.9370   32.5200   44.7330 C   0  0  0  0  0  0  0  0  0  0  0  0
   58.5510   32.8700   45.9130 C   0  0  0  0  0  0  0  0  0  0  0  0
   58.8660   34.2020   46.0850 C   0  0  0  0  0  0  0  0  0  0  0  0
   58.5870   35.0430   45.1820 O   0  0  0  0  0  0  0  0  0  0  0  0
   59.4680   34.5760   47.2260 N   0  0  0  0  0  0  0  0  0  0  0  0
   59.7710   33.6760   48.2030 C   0  0  0  0  0  0  0  0  0  0  0  0
   60.4210   34.1980   49.3840 C   0  0  0  0  0  0  0  0  0  0  0  0
   61.6100   34.6060   49.4150 O   0  0  0  0  0  0  0  0  0  0  0  0
   56.4500   21.5130   44.3050 N   0  0  0  0  0  0  0  0  0  0  0  0
   59.6660   34.2560   50.6010 N   0  0  0  0  0  0  0  0  0  0  0  0
   58.6460   32.3780   51.6530 C   0  0  0  0  0  0  0  0  0  0  0  0
   57.4630   32.7230   52.2610 C   0  0  0  0  0  0  0  0  0  0  0  0
   56.4690   31.7670   52.4440 C   0  0  0  0  0  0  0  0  0  0  0  0
   56.6770   30.4550   52.0050 C   0  0  0  0  0  0  0  0  0  0  0  0
   57.8770   30.1100   51.3880 C   0  0  0  0  0  0  0  0  0  0  0  0
   58.8630   31.0760   51.2130 C   0  0  0  0  0  0  0  0  0  0  0  0
   59.4530   32.3370   48.0270 C   0  0  0  0  0  0  0  0  0  0  0  0
   58.8330   31.9060   46.8710 C   0  0  0  0  0  0  0  0  0  0  0  0
   58.5020   30.5720   46.6580 C   0  0  0  0  0  0  0  0  0  0  0  0
   59.3970   27.9190   45.3570 H   0  0  0  0  0  0  0  0  0  0  0  0
   57.4247   25.9557   46.8207 H   0  0  0  0  0  0  0  0  0  0  0  0
   56.4867   23.7360   46.2649 H   0  0  0  0  0  0  0  0  0  0  0  0
   55.1340   21.7330   42.2380 H   0  0  0  0  0  0  0  0  0  0  0  0
   56.7860   19.4870   43.8340 H   0  0  0  0  0  0  0  0  0  0  0  0
   57.2125   24.4642   42.1303 H   0  0  0  0  0  0  0  0  0  0  0  0
   58.1374   26.6554   42.6680 H   0  0  0  0  0  0  0  0  0  0  0  0
   57.1204   30.8939   43.5926 H   0  0  0  0  0  0  0  0  0  0  0  0
   57.7097   33.2777   43.9687 H   0  0  0  0  0  0  0  0  0  0  0  0
   59.6950   35.5890   47.3240 H   0  0  0  0  0  0  0  0  0  0  0  0
   57.3018   33.7559   52.6033 H   0  0  0  0  0  0  0  0  0  0  0  0
   55.5224   32.0418   52.9324 H   0  0  0  0  0  0  0  0  0  0  0  0
   55.8932   29.6964   52.1471 H   0  0  0  0  0  0  0  0  0  0  0  0
   58.0443   29.0797   51.0410 H   0  0  0  0  0  0  0  0  0  0  0  0
   59.8135   30.8105   50.7271 H   0  0  0  0  0  0  0  0  0  0  0  0
   59.6974   31.6112   48.8166 H   0  0  0  0  0  0  0  0  0  0  0  0
   58.7283   29.8139   47.4223 H   0  0  0  0  0  0  0  0  0  0  0  0
  1  2  2  0
  2  3  1  0
  3  4  1  0
  4  5  2  0
  5  6  1  0
  6  7  2  0
  7  8  1  0
  8  9  1  0
  8 10  2  0
 10 11  1  0
  7 12  1  0
 12 13  2  0
  2 14  1  0
 14 15  2  0
 15 16  1  0
 16 17  2  0
 17 18  1  0
 18 19  2  0
 18 20  1  0
 20 21  1  0
 21 22  1  0
 22 23  2  0
 22 24  1  0
 24 25  2  0
 25 26  1  0
 26 27  2  0
 27 28  1  0
 28 29  2  0
 29 30  1  0
 30 31  2  0
 21 32  2  0
 32 33  1  0
 33 34  2  0
 13  4  1  0
 34 14  1  0
 33 17  1  0
 31 26  1  0
  3 35  1  0
  5 36  1  0
  6 37  1  0
  9 38  1  0
 11 39  1  0
 12 40  1  0
 13 41  1  0
 15 42  1  0
 16 43  1  0
 20 44  1  0
 27 45  1  0
 28 46  1  0
 29 47  1  0
 30 48  1  0
 31 49  1  0
 32 50  1  0
 34 51  1  0
M  END
>  <smiles>  (78) 
O=C(Nc1ccc(C(O)=NO)cc1)c1ccc2c(=O)[nH]c(C(=O)N=Nc3ccccc3)cc2c1

>  <score_type>  (78) 
oracle

>  <origin>  (78) 
adg

>  <m_score__min__energy>  (78) 
-9.9600000000000009

>  <m_primary>  (78) 
energy

$$$$
78:0
     RDKit          3D

 44 47  0  0  0  0  0  0  0  0999 V2000
   55.5960   29.1160   44.8770 O   0  0  0  0  0  0  0  0  0  0  0  0
   56.6620   28.8360   45.4890 C   0  0  0  0  0  0  0  0  0  0  0  0
   57.4950   29.8860   45.9980 N   0  0  0  0  0  0  0  0  0  0  0  0
   57.8040   31.1280   45.3490 C   0  0  0  0  0  0  0  0  0  0  0  0
   57.6450   31.2170   43.9610 C   0  0  0  0  0  0  0  0  0  0  0  0
   57.9690   32.3950   43.2850 C   0  0  0  0  0  0  0  0  0  0  0  0
   58.4680   33.4930   43.9880 C   0  0  0  0  0  0  0  0  0  0  0  0
   58.6510   33.4190   45.3790 C   0  0  0  0  0  0  0  0  0  0  0  0
   59.2310   34.5890   46.1330 C   0  0  0  0  0  0  0  0  0  0  0  0
   60.5230   34.1950   46.8020 C   0  0  0  0  0  0  0  0  0  0  0  0
   61.6360   34.1280   46.0230 N   0  0  0  0  0  0  0  0  0  0  0  0
   62.8270   33.7870   46.5150 N   0  0  0  0  0  0  0  0  0  0  0  0
   62.9950   33.4790   47.8240 C   0  0  0  0  0  0  0  0  0  0  0  0
   64.1440   33.1790   48.2440 O   0  0  0  0  0  0  0  0  0  0  0  0
   61.8910   33.5010   48.6900 C   0  0  0  0  0  0  0  0  0  0  0  0
   60.6310   33.8790   48.1780 C   0  0  0  0  0  0  0  0  0  0  0  0
   59.4940   33.9070   49.0640 N   0  0  0  0  0  0  0  0  0  0  0  0
   59.6670   33.8260   50.5100 C   0  0  0  0  0  0  0  0  0  0  0  0
   60.7530   32.8050   50.8430 C   0  0  0  0  0  0  0  0  0  0  0  0
   62.0690   33.1980   50.1630 C   0  0  0  0  0  0  0  0  0  0  0  0
   58.3270   32.2280   46.0520 C   0  0  0  0  0  0  0  0  0  0  0  0
   57.0620   27.4170   45.6210 C   0  0  0  0  0  0  0  0  0  0  0  0
   58.3840   27.1020   45.4960 N   0  0  0  0  0  0  0  0  0  0  0  0
   58.8420   25.8270   45.5970 C   0  0  0  0  0  0  0  0  0  0  0  0
   57.9510   24.7820   45.8330 C   0  0  0  0  0  0  0  0  0  0  0  0
   56.5920   25.0630   45.9690 C   0  0  0  0  0  0  0  0  0  0  0  0
   56.1340   26.3810   45.8660 C   0  0  0  0  0  0  0  0  0  0  0  0
   54.7730   26.6340   46.0070 O   0  0  0  0  0  0  0  0  0  0  0  0
   57.2620   30.3526   43.3988 H   0  0  0  0  0  0  0  0  0  0  0  0
   57.8307   32.4580   42.1956 H   0  0  0  0  0  0  0  0  0  0  0  0
   58.7188   34.4196   43.4509 H   0  0  0  0  0  0  0  0  0  0  0  0
   59.4233   35.4134   45.4306 H   0  0  0  0  0  0  0  0  0  0  0  0
   58.5134   34.9081   46.9032 H   0  0  0  0  0  0  0  0  0  0  0  0
   58.5160   33.8890   48.7020 H   0  0  0  0  0  0  0  0  0  0  0  0
   59.9609   34.8122   50.8987 H   0  0  0  0  0  0  0  0  0  0  0  0
   58.7194   33.5134   50.9729 H   0  0  0  0  0  0  0  0  0  0  0  0
   60.9013   32.7734   51.9325 H   0  0  0  0  0  0  0  0  0  0  0  0
   60.4408   31.8147   50.4798 H   0  0  0  0  0  0  0  0  0  0  0  0
   62.4705   34.0926   50.6614 H   0  0  0  0  0  0  0  0  0  0  0  0
   62.7580   32.3448   50.2485 H   0  0  0  0  0  0  0  0  0  0  0  0
   58.4840   32.1558   47.1383 H   0  0  0  0  0  0  0  0  0  0  0  0
   59.9172   25.6194   45.4924 H   0  0  0  0  0  0  0  0  0  0  0  0
   58.3156   23.7471   45.9111 H   0  0  0  0  0  0  0  0  0  0  0  0
   55.8788   24.2471   46.1576 H   0  0  0  0  0  0  0  0  0  0  0  0
  1  2  2  0
  2  3  1  0
  3  4  1  0
  4  5  2  0
  5  6  1  0
  6  7  2  0
  7  8  1  0
  8  9  1  0
  9 10  1  0
 10 11  2  0
 11 12  1  0
 12 13  1  0
 13 14  2  0
 13 15  1  0
 15 16  2  0
 16 17  1  0
 17 18  1  0
 18 19  1  0
 19 20  1  0
  8 21  2  0
  2 22  1  0
 22 23  2  0
 23 24  1  0
 24 25  2  0
 25 26  1  0
 26 27  2  0
 27 28  1  0
 21  4  1  0
 27 22  1  0
 16 10  1  0
 20 15  1  0
  5 29  1  0
  6 30  1  0
  7 31  1  0
  9 32  1  0
  9 33  1  0
 17 34  1  0
 18 35  1  0
 18 36  1  0
 19 37  1  0
 19 38  1  0
 20 39  1  0
 20 40  1  0
 21 41  1  0
 24 42  1  0
 25 43  1  0
 26 44  1  0
M  CHG  3   3  -1  12  -1  28  -1
M  END
>  <UniqueID>  (79) 
71

>  <SMILES>  (79) 
O=C([N-]c1cccc(Cc2n[n-]c(=O)c3c2NCCC3)c1)c1ncccc1[O-]

>  <Energy>  (79) 
56.27721291769332

>  <Genealogy>  (79) 
O=C([N-]c1cccc(Cc2n[n-]c(=O)c3c2NCCC3)c1)c1ncccc1[O-] (protonated)
O=C([N-]c1cccc(Cc2n[n-]c(=O)c3c2NCCC3)c1)c1ncccc1[O-] (3D coordinates assigned)
O=C([N-]c1cccc(Cc2n[n-]c(=O)c3c2NCCC3)c1)c1ncccc1[O-] (nonaromatic ring conformer: 56.27721291769332 kcal/mol)

>  <smiles>  (79) 
O=C(Nc1cccc(Cc2n[nH]c(=O)c3c2NCCC3)c1)c1ncccc1O

>  <score_type>  (79) 
oracle

>  <origin>  (79) 
adg

>  <m_score__min__energy>  (79) 
-15.08

>  <m_primary>  (79) 
energy

$$$$
79:0
     RDKit          3D

 41 44  0  0  0  0  0  0  0  0999 V2000
   57.7740   27.7500   42.9760 C   0  0  0  0  0  0  0  0  0  0  0  0
   57.7220   28.3070   44.3260 N   0  0  0  0  0  0  0  0  0  0  0  0
   57.4840   27.6780   45.5020 C   0  0  0  0  0  0  0  0  0  0  0  0
   57.1910   26.2380   45.6680 C   0  0  0  0  0  0  0  0  0  0  0  0
   58.2180   25.2860   45.5510 C   0  0  0  0  0  0  0  0  0  0  0  0
   57.9400   23.9240   45.6820 C   0  0  0  0  0  0  0  0  0  0  0  0
   56.6310   23.4970   45.9210 C   0  0  0  0  0  0  0  0  0  0  0  0
   55.6000   24.4310   46.0240 C   0  0  0  0  0  0  0  0  0  0  0  0
   55.8720   25.7980   45.8950 C   0  0  0  0  0  0  0  0  0  0  0  0
   54.8280   26.7110   46.0070 O   0  0  0  0  0  0  0  0  0  0  0  0
   57.5250   28.5430   46.5390 N   0  0  0  0  0  0  0  0  0  0  0  0
   57.7720   29.7350   46.0200 N   0  0  0  0  0  0  0  0  0  0  0  0
   57.8810   29.5950   44.6890 C   0  0  0  0  0  0  0  0  0  0  0  0
   58.1590   30.9670   43.5600 S   0  0  0  0  0  0  0  0  0  0  0  0
   57.0660   32.1260   44.4530 C   0  0  0  0  0  0  0  0  0  0  0  0
   57.8050   32.8190   45.5600 C   0  0  0  0  0  0  0  0  0  0  0  0
   58.4840   34.0210   45.3240 C   0  0  0  0  0  0  0  0  0  0  0  0
   59.2120   34.6190   46.3550 C   0  0  0  0  0  0  0  0  0  0  0  0
   59.8190   35.7040   46.1360 O   0  0  0  0  0  0  0  0  0  0  0  0
   59.2640   34.0060   47.6210 C   0  0  0  0  0  0  0  0  0  0  0  0
   59.9880   34.5600   48.6930 C   0  0  0  0  0  0  0  0  0  0  0  0
   60.0170   33.9110   49.9310 C   0  0  0  0  0  0  0  0  0  0  0  0
   59.3300   32.7080   50.1110 C   0  0  0  0  0  0  0  0  0  0  0  0
   58.6070   32.1470   49.0550 C   0  0  0  0  0  0  0  0  0  0  0  0
   58.5680   32.7880   47.8130 C   0  0  0  0  0  0  0  0  0  0  0  0
   57.8670   32.2360   46.7880 N   0  0  0  0  0  0  0  0  0  0  0  0
   57.8761   26.6563   43.0343 H   0  0  0  0  0  0  0  0  0  0  0  0
   56.8483   28.0037   42.4388 H   0  0  0  0  0  0  0  0  0  0  0  0
   58.6368   28.1707   42.4388 H   0  0  0  0  0  0  0  0  0  0  0  0
   59.2487   25.6163   45.3547 H   0  0  0  0  0  0  0  0  0  0  0  0
   58.7518   23.1866   45.5970 H   0  0  0  0  0  0  0  0  0  0  0  0
   56.4136   22.4240   46.0279 H   0  0  0  0  0  0  0  0  0  0  0  0
   54.5697   24.0921   46.2072 H   0  0  0  0  0  0  0  0  0  0  0  0
   57.8470   30.6200   46.5680 H   0  0  0  0  0  0  0  0  0  0  0  0
   56.6873   32.8795   43.7468 H   0  0  0  0  0  0  0  0  0  0  0  0
   56.2340   31.5553   44.8912 H   0  0  0  0  0  0  0  0  0  0  0  0
   58.4441   34.4921   44.3308 H   0  0  0  0  0  0  0  0  0  0  0  0
   60.5325   35.5060   48.5566 H   0  0  0  0  0  0  0  0  0  0  0  0
   60.5828   34.3492   50.7663 H   0  0  0  0  0  0  0  0  0  0  0  0
   59.3583   32.2009   51.0868 H   0  0  0  0  0  0  0  0  0  0  0  0
   58.0676   31.1995   49.2011 H   0  0  0  0  0  0  0  0  0  0  0  0
  1  2  1  0
  2  3  1  0
  3  4  1  0
  4  5  2  0
  5  6  1  0
  6  7  2  0
  7  8  1  0
  8  9  2  0
  9 10  1  0
  3 11  2  0
 11 12  1  0
 12 13  2  0
 13 14  1  0
 14 15  1  0
 15 16  1  0
 16 17  2  0
 17 18  1  0
 18 19  2  0
 18 20  1  0
 20 21  2  0
 21 22  1  0
 22 23  2  0
 23 24  1  0
 24 25  2  0
 25 26  1  0
 13  2  1  0
 26 16  1  0
  9  4  1  0
 25 20  1  0
  1 27  1  0
  1 28  1  0
  1 29  1  0
  5 30  1  0
  6 31  1  0
  7 32  1  0
  8 33  1  0
 12 34  1  0
 15 35  1  0
 15 36  1  0
 17 37  1  0
 21 38  1  0
 22 39  1  0
 23 40  1  0
 24 41  1  0
M  CHG  3  10  -1  12   1  26  -1
M  END
>  <UniqueID>  (80) 
72

>  <SMILES>  (80) 
Cn1c(-c2ccccc2[O-])n[nH+]c1SCc1cc(=O)c2ccccc2[n-]1

>  <Energy>  (80) 
84.97052660979806

>  <Genealogy>  (80) 
Cn1c(-c2ccccc2[O-])n[nH+]c1SCc1cc(=O)c2ccccc2[n-]1 (protonated)
Cn1c(-c2ccccc2[O-])n[nH+]c1SCc1cc(=O)c2ccccc2[n-]1 (3D coordinates assigned)
Cn1c(-c2ccccc2[O-])n[nH+]c1SCc1cc(=O)c2ccccc2[n-]1 (optimized conformer: 84.97052660979806 kcal/mol)

>  <smiles>  (80) 
Cn1c(SCc2cc(=O)c3ccccc3[nH]2)nnc1-c1ccccc1O

>  <score_type>  (80) 
oracle

>  <origin>  (80) 
adg

>  <m_score__min__energy>  (80) 
-11.59

>  <m_primary>  (80) 
energy

$$$$
80:0
     RDKit          3D

 48 50  0  0  0  0  0  0  0  0999 V2000
   55.1790   31.0200   52.0090 C   0  0  0  0  0  0  0  0  0  0  0  0
   56.4190   30.3230   52.0420 O   0  0  0  0  0  0  0  0  0  0  0  0
   57.5590   30.6980   51.3140 C   0  0  0  0  0  0  0  0  0  0  0  0
   57.9760   32.0340   51.2050 C   0  0  0  0  0  0  0  0  0  0  0  0
   59.1100   32.3580   50.4590 C   0  0  0  0  0  0  0  0  0  0  0  0
   59.8500   31.3610   49.8050 C   0  0  0  0  0  0  0  0  0  0  0  0
   61.2110   31.8650   48.7850 S   0  0  0  0  0  0  0  0  0  0  0  0
   61.1720   31.1480   47.4640 O   0  0  0  0  0  0  0  0  0  0  0  0
   62.4970   31.5330   49.4890 O   0  0  0  0  0  0  0  0  0  0  0  0
   61.1600   33.5820   48.4970 N   0  0  0  0  0  0  0  0  0  0  0  0
   61.1240   33.8770   47.0630 C   0  0  0  0  0  0  0  0  0  0  0  0
   59.7080   33.8670   46.5520 C   0  0  0  0  0  0  0  0  0  0  0  0
   59.3770   34.5180   45.3510 C   0  0  0  0  0  0  0  0  0  0  0  0
   58.0570   34.5100   44.8870 C   0  0  0  0  0  0  0  0  0  0  0  0
   57.0620   33.8520   45.6150 C   0  0  0  0  0  0  0  0  0  0  0  0
   57.3850   33.1970   46.8060 C   0  0  0  0  0  0  0  0  0  0  0  0
   58.7030   33.2020   47.2750 C   0  0  0  0  0  0  0  0  0  0  0  0
   59.4610   30.0050   49.9480 C   0  0  0  0  0  0  0  0  0  0  0  0
   60.2350   28.8890   49.3670 C   0  0  0  0  0  0  0  0  0  0  0  0
   61.4350   28.7160   49.7140 O   0  0  0  0  0  0  0  0  0  0  0  0
   59.6580   28.0770   48.3350 N   0  0  0  0  0  0  0  0  0  0  0  0
   59.3570   28.4970   46.9970 C   0  0  0  0  0  0  0  0  0  0  0  0
   60.3940   28.5460   46.0600 C   0  0  0  0  0  0  0  0  0  0  0  0
   60.1470   28.9760   44.7550 C   0  0  0  0  0  0  0  0  0  0  0  0
   58.8630   29.3780   44.3800 C   0  0  0  0  0  0  0  0  0  0  0  0
   57.8110   29.3630   45.3130 C   0  0  0  0  0  0  0  0  0  0  0  0
   56.4910   29.7990   44.9380 N   0  0  0  0  0  0  0  0  0  0  0  0
   55.5320   28.9990   44.9440 O   0  0  0  0  0  0  0  0  0  0  0  0
   56.2620   31.1040   44.5670 O   0  0  0  0  0  0  0  0  0  0  0  0
   58.0690   28.9260   46.6260 C   0  0  0  0  0  0  0  0  0  0  0  0
   58.3040   29.6970   50.6840 C   0  0  0  0  0  0  0  0  0  0  0  0
   54.8385   31.2114   53.0373 H   0  0  0  0  0  0  0  0  0  0  0  0
   55.3100   31.9767   51.4821 H   0  0  0  0  0  0  0  0  0  0  0  0
   54.4299   30.4108   51.4821 H   0  0  0  0  0  0  0  0  0  0  0  0
   57.4067   32.8285   51.7096 H   0  0  0  0  0  0  0  0  0  0  0  0
   59.4279   33.4083   50.3826 H   0  0  0  0  0  0  0  0  0  0  0  0
   61.5640   34.8698   46.8876 H   0  0  0  0  0  0  0  0  0  0  0  0
   61.6976   33.1051   46.5291 H   0  0  0  0  0  0  0  0  0  0  0  0
   60.1579   35.0352   44.7743 H   0  0  0  0  0  0  0  0  0  0  0  0
   57.8020   35.0225   43.9477 H   0  0  0  0  0  0  0  0  0  0  0  0
   56.0243   33.8498   45.2502 H   0  0  0  0  0  0  0  0  0  0  0  0
   56.6015   32.6763   47.3761 H   0  0  0  0  0  0  0  0  0  0  0  0
   58.9534   32.6839   48.2125 H   0  0  0  0  0  0  0  0  0  0  0  0
   61.4103   28.2439   46.3530 H   0  0  0  0  0  0  0  0  0  0  0  0
   60.9654   28.9983   44.0204 H   0  0  0  0  0  0  0  0  0  0  0  0
   58.6735   29.7085   43.3481 H   0  0  0  0  0  0  0  0  0  0  0  0
   57.2572   28.9198   47.3682 H   0  0  0  0  0  0  0  0  0  0  0  0
   57.9788   28.6493   50.7658 H   0  0  0  0  0  0  0  0  0  0  0  0
  1  2  1  0
  2  3  1  0
  3  4  2  0
  4  5  1  0
  5  6  2  0
  6  7  1  0
  7  8  2  0
  7  9  2  0
  7 10  1  0
 10 11  1  0
 11 12  1  0
 12 13  2  0
 13 14  1  0
 14 15  2  0
 15 16  1  0
 16 17  2  0
  6 18  1  0
 18 19  1  0
 19 20  2  0
 19 21  1  0
 21 22  1  0
 22 23  2  0
 23 24  1  0
 24 25  2  0
 25 26  1  0
 26 27  1  0
 27 28  2  0
 27 29  1  0
 26 30  2  0
 18 31  2  0
 31  3  1  0
 17 12  1  0
 30 22  1  0
  1 32  1  0
  1 33  1  0
  1 34  1  0
  4 35  1  0
  5 36  1  0
 11 37  1  0
 11 38  1  0
 13 39  1  0
 14 40  1  0
 15 41  1  0
 16 42  1  0
 17 43  1  0
 23 44  1  0
 24 45  1  0
 25 46  1  0
 30 47  1  0
 31 48  1  0
M  CHG  4  10  -1  21  -1  27   1  29  -1
M  END
>  <UniqueID>  (81) 
73

>  <SMILES>  (81) 
COc1ccc(S(=O)(=O)[N-]Cc2ccccc2)c(C(=O)[N-]c2cccc([N+](=O)[O-])c2)c1

>  <Energy>  (81) 
59.80872700419422

>  <Genealogy>  (81) 
COc1ccc(S(=O)(=O)[N-]Cc2ccccc2)c(C(=O)[N-]c2cccc([N+](=O)[O-])c2)c1 (protonated)
COc1ccc(S(=O)(=O)[N-]Cc2ccccc2)c(C(=O)[N-]c2cccc([N+](=O)[O-])c2)c1 (3D coordinates assigned)
COc1ccc(S(=O)(=O)[N-]Cc2ccccc2)c(C(=O)[N-]c2cccc([N+](=O)[O-])c2)c1 (optimized conformer: 59.80872700419422 kcal/mol)

>  <smiles>  (81) 
COc1ccc(S(=O)(=O)NCc2ccccc2)c(C(=O)Nc2cccc([N+](=O)[O-])c2)c1

>  <score_type>  (81) 
oracle

>  <origin>  (81) 
adg

>  <m_score__min__energy>  (81) 
-12.74

>  <m_primary>  (81) 
energy

$$$$
81:0
     RDKit          3D

 64 67  0  0  0  0  0  0  0  0999 V2000
   62.5960   34.6580   49.7280 C   0  0  0  0  0  0  0  0  0  0  0  0
   63.1880   33.4440   49.2750 O   0  0  0  0  0  0  0  0  0  0  0  0
   62.4660   32.3020   48.8930 C   0  0  0  0  0  0  0  0  0  0  0  0
   62.2570   31.2230   49.7700 C   0  0  0  0  0  0  0  0  0  0  0  0
   61.5320   30.1040   49.3570 C   0  0  0  0  0  0  0  0  0  0  0  0
   61.0010   30.0400   48.0580 C   0  0  0  0  0  0  0  0  0  0  0  0
   60.2180   28.9190   47.6090 N   0  0  0  0  0  0  0  0  0  0  0  0
   59.9980   28.4870   45.9440 S   0  0  0  0  0  0  0  0  0  0  0  0
   61.2070   28.9080   45.1590 O   0  0  0  0  0  0  0  0  0  0  0  0
   59.8740   26.9900   45.8560 O   0  0  0  0  0  0  0  0  0  0  0  0
   58.5630   29.2660   45.2560 C   0  0  0  0  0  0  0  0  0  0  0  0
   58.6190   30.6410   44.9780 C   0  0  0  0  0  0  0  0  0  0  0  0
   57.5060   31.3140   44.4480 C   0  0  0  0  0  0  0  0  0  0  0  0
   57.5470   32.7190   44.1540 N   0  0  0  0  0  0  0  0  0  0  0  0
   57.4610   33.7840   45.1090 C   0  0  0  0  0  0  0  0  0  0  0  0
   56.6800   34.7440   44.8720 O   0  0  0  0  0  0  0  0  0  0  0  0
   58.2100   33.7520   46.3830 C   0  0  0  0  0  0  0  0  0  0  0  0
   57.9810   32.9020   47.4490 C   0  0  0  0  0  0  0  0  0  0  0  0
   58.9070   33.2560   48.4100 C   0  0  0  0  0  0  0  0  0  0  0  0
   59.0390   32.6340   49.7580 C   0  0  0  0  0  0  0  0  0  0  0  0
   59.6450   34.2570   47.9860 O   0  0  0  0  0  0  0  0  0  0  0  0
   59.2550   34.5780   46.7740 C   0  0  0  0  0  0  0  0  0  0  0  0
   59.8710   35.6800   45.9750 C   0  0  0  0  0  0  0  0  0  0  0  0
   56.3480   30.5950   44.1490 C   0  0  0  0  0  0  0  0  0  0  0  0
   56.2790   29.2280   44.4170 C   0  0  0  0  0  0  0  0  0  0  0  0
   57.3740   28.5510   44.9760 C   0  0  0  0  0  0  0  0  0  0  0  0
   57.2610   27.1450   45.2470 N   0  0  0  0  0  0  0  0  0  0  0  0
   57.7480   26.1820   44.2550 C   0  0  0  0  0  0  0  0  0  0  0  0
   57.0130   24.8300   44.3940 C   0  0  0  0  0  0  0  0  0  0  0  0
   56.1330   24.7810   45.5050 O   0  0  0  0  0  0  0  0  0  0  0  0
   56.8110   25.1870   46.6760 C   0  0  0  0  0  0  0  0  0  0  0  0
   57.0820   26.6960   46.6320 C   0  0  0  0  0  0  0  0  0  0  0  0
   61.2180   31.1120   47.1810 C   0  0  0  0  0  0  0  0  0  0  0  0
   61.9420   32.2470   47.5930 C   0  0  0  0  0  0  0  0  0  0  0  0
   62.1570   33.3430   46.7420 O   0  0  0  0  0  0  0  0  0  0  0  0
   63.4400   33.8510   46.3910 C   0  0  0  0  0  0  0  0  0  0  0  0
   62.5882   34.6740   50.8279 H   0  0  0  0  0  0  0  0  0  0  0  0
   63.1786   35.5123   49.3530 H   0  0  0  0  0  0  0  0  0  0  0  0
   61.5641   34.7250   49.3530 H   0  0  0  0  0  0  0  0  0  0  0  0
   62.6681   31.2610   50.7896 H   0  0  0  0  0  0  0  0  0  0  0  0
   61.3754   29.2669   50.0532 H   0  0  0  0  0  0  0  0  0  0  0  0
   59.7500   28.3110   48.3180 H   0  0  0  0  0  0  0  0  0  0  0  0
   59.5462   31.1982   45.1778 H   0  0  0  0  0  0  0  0  0  0  0  0
   57.2207   32.1100   47.5172 H   0  0  0  0  0  0  0  0  0  0  0  0
   58.8768   33.3985   50.5321 H   0  0  0  0  0  0  0  0  0  0  0  0
   58.2903   31.8358   49.8684 H   0  0  0  0  0  0  0  0  0  0  0  0
   60.0474   32.2087   49.8684 H   0  0  0  0  0  0  0  0  0  0  0  0
   60.2928   36.4346   46.6552 H   0  0  0  0  0  0  0  0  0  0  0  0
   60.6708   35.2702   45.3407 H   0  0  0  0  0  0  0  0  0  0  0  0
   59.1029   36.1466   45.3407 H   0  0  0  0  0  0  0  0  0  0  0  0
   55.4854   31.1089   43.6997 H   0  0  0  0  0  0  0  0  0  0  0  0
   55.3564   28.6745   44.1878 H   0  0  0  0  0  0  0  0  0  0  0  0
   57.5742   26.5847   43.2462 H   0  0  0  0  0  0  0  0  0  0  0  0
   58.8227   26.0173   44.4223 H   0  0  0  0  0  0  0  0  0  0  0  0
   56.4293   24.6543   43.4784 H   0  0  0  0  0  0  0  0  0  0  0  0
   57.7798   24.0573   44.5517 H   0  0  0  0  0  0  0  0  0  0  0  0
   56.1912   24.9542   47.5544 H   0  0  0  0  0  0  0  0  0  0  0  0
   57.7693   24.6509   46.7412 H   0  0  0  0  0  0  0  0  0  0  0  0
   56.2303   27.2300   47.0786 H   0  0  0  0  0  0  0  0  0  0  0  0
   58.0014   26.9093   47.1971 H   0  0  0  0  0  0  0  0  0  0  0  0
   60.8174   31.0657   46.1576 H   0  0  0  0  0  0  0  0  0  0  0  0
   64.0081   34.0759   47.3057 H   0  0  0  0  0  0  0  0  0  0  0  0
   63.9822   33.0997   45.7981 H   0  0  0  0  0  0  0  0  0  0  0  0
   63.3209   34.7698   45.7981 H   0  0  0  0  0  0  0  0  0  0  0  0
  1  2  1  0
  2  3  1  0
  3  4  2  0
  4  5  1  0
  5  6  2  0
  6  7  1  0
  7  8  1  0
  8  9  2  0
  8 10  2  0
  8 11  1  0
 11 12  2  0
 12 13  1  0
 13 14  1  0
 14 15  1  0
 15 16  2  0
 15 17  1  0
 17 18  1  0
 18 19  2  0
 19 20  1  0
 19 21  1  0
 21 22  1  0
 22 23  1  0
 13 24  2  0
 24 25  1  0
 25 26  2  0
 26 27  1  0
 27 28  1  0
 28 29  1  0
 29 30  1  0
 30 31  1  0
 31 32  1  0
  6 33  1  0
 33 34  2  0
 34 35  1  0
 35 36  1  0
 34  3  1  0
 26 11  1  0
 32 27  1  0
 22 17  2  0
  1 37  1  0
  1 38  1  0
  1 39  1  0
  4 40  1  0
  5 41  1  0
  7 42  1  0
 12 43  1  0
 18 44  1  0
 20 45  1  0
 20 46  1  0
 20 47  1  0
 23 48  1  0
 23 49  1  0
 23 50  1  0
 24 51  1  0
 25 52  1  0
 28 53  1  0
 28 54  1  0
 29 55  1  0
 29 56  1  0
 31 57  1  0
 31 58  1  0
 32 59  1  0
 32 60  1  0
 33 61  1  0
 36 62  1  0
 36 63  1  0
 36 64  1  0
M  CHG  1  14  -1
M  END
>  <UniqueID>  (82) 
74

>  <SMILES>  (82) 
COc1ccc(NS(=O)(=O)c2cc([N-]C(=O)c3cc(C)oc3C)ccc2N2CCOCC2)cc1OC

>  <Energy>  (82) 
106.65156324384559

>  <Genealogy>  (82) 
COc1ccc(NS(=O)(=O)c2cc([N-]C(=O)c3cc(C)oc3C)ccc2N2CCOCC2)cc1OC (protonated)
COc1ccc(NS(=O)(=O)c2cc([N-]C(=O)c3cc(C)oc3C)ccc2N2CCOCC2)cc1OC (3D coordinates assigned)
COc1ccc(NS(=O)(=O)c2cc([N-]C(=O)c3cc(C)oc3C)ccc2N2CCOCC2)cc1OC (nonaromatic ring conformer: 106.65156324384559 kcal/mol)

>  <smiles>  (82) 
COc1ccc(NS(=O)(=O)c2cc(NC(=O)c3cc(C)oc3C)ccc2N2CCOCC2)cc1OC

>  <score_type>  (82) 
oracle

>  <origin>  (82) 
adg

>  <m_score__min__energy>  (82) 
-10.35

>  <m_primary>  (82) 
energy

$$$$
82:0
     RDKit          3D

 55 57  0  0  0  0  0  0  0  0999 V2000
   56.6620   31.1190   52.0020 C   0  0  0  0  0  0  0  0  0  0  0  0
   57.2640   29.8640   51.7040 O   0  0  0  0  0  0  0  0  0  0  0  0
   58.4930   29.7110   51.0430 C   0  0  0  0  0  0  0  0  0  0  0  0
   58.6480   30.3090   49.7880 C   0  0  0  0  0  0  0  0  0  0  0  0
   59.8540   30.2030   49.0830 C   0  0  0  0  0  0  0  0  0  0  0  0
   59.9920   30.8880   47.8260 N   0  0  0  0  0  0  0  0  0  0  0  0
   59.1790   31.9970   47.4160 C   0  0  0  0  0  0  0  0  0  0  0  0
   58.9460   32.9320   48.2310 O   0  0  0  0  0  0  0  0  0  0  0  0
   58.6010   32.0240   46.0490 C   0  0  0  0  0  0  0  0  0  0  0  0
   57.9340   30.8730   45.5960 C   0  0  0  0  0  0  0  0  0  0  0  0
   57.3140   30.8420   44.3450 C   0  0  0  0  0  0  0  0  0  0  0  0
   56.4810   29.3820   43.8280 S   0  0  0  0  0  0  0  0  0  0  0  0
   57.4300   28.5580   43.0030 O   0  0  0  0  0  0  0  0  0  0  0  0
   55.2650   29.7250   43.0150 O   0  0  0  0  0  0  0  0  0  0  0  0
   55.9930   28.5090   45.2450 N   0  0  0  0  0  0  0  0  0  0  0  0
   56.7810   27.5210   45.9150 C   0  0  0  0  0  0  0  0  0  0  0  0
   58.1370   27.7430   46.2070 C   0  0  0  0  0  0  0  0  0  0  0  0
   58.8820   26.7660   46.8690 C   0  0  0  0  0  0  0  0  0  0  0  0
   58.2830   25.5610   47.2370 C   0  0  0  0  0  0  0  0  0  0  0  0
   56.9400   25.3250   46.9390 C   0  0  0  0  0  0  0  0  0  0  0  0
   56.1780   26.3030   46.2720 C   0  0  0  0  0  0  0  0  0  0  0  0
   54.8220   26.1120   45.9630 O   0  0  0  0  0  0  0  0  0  0  0  0
   54.2440   24.8600   45.6090 C   0  0  0  0  0  0  0  0  0  0  0  0
   57.3670   31.9650   43.5180 C   0  0  0  0  0  0  0  0  0  0  0  0
   58.0350   33.1150   43.9420 C   0  0  0  0  0  0  0  0  0  0  0  0
   58.6680   33.1600   45.1980 C   0  0  0  0  0  0  0  0  0  0  0  0
   59.3970   34.4170   45.5950 C   0  0  0  0  0  0  0  0  0  0  0  0
   60.9240   29.4940   49.6590 C   0  0  0  0  0  0  0  0  0  0  0  0
   60.7860   28.8820   50.9090 C   0  0  0  0  0  0  0  0  0  0  0  0
   61.8880   28.1890   51.4310 O   0  0  0  0  0  0  0  0  0  0  0  0
   62.3630   28.3230   52.7670 C   0  0  0  0  0  0  0  0  0  0  0  0
   59.5640   28.9910   51.6000 C   0  0  0  0  0  0  0  0  0  0  0  0
   56.6008   31.2465   53.0929 H   0  0  0  0  0  0  0  0  0  0  0  0
   57.2698   31.9286   51.5717 H   0  0  0  0  0  0  0  0  0  0  0  0
   55.6502   31.1517   51.5717 H   0  0  0  0  0  0  0  0  0  0  0  0
   57.8107   30.8707   49.3482 H   0  0  0  0  0  0  0  0  0  0  0  0
   60.6530   30.4940   47.1190 H   0  0  0  0  0  0  0  0  0  0  0  0
   57.8996   29.9806   46.2382 H   0  0  0  0  0  0  0  0  0  0  0  0
   58.6132   28.6900   45.9129 H   0  0  0  0  0  0  0  0  0  0  0  0
   59.9421   26.9462   47.1007 H   0  0  0  0  0  0  0  0  0  0  0  0
   58.8708   24.7947   47.7635 H   0  0  0  0  0  0  0  0  0  0  0  0
   56.4749   24.3706   47.2266 H   0  0  0  0  0  0  0  0  0  0  0  0
   53.9871   24.3034   46.5224 H   0  0  0  0  0  0  0  0  0  0  0  0
   53.3337   25.0311   45.0156 H   0  0  0  0  0  0  0  0  0  0  0  0
   54.9646   24.2782   45.0156 H   0  0  0  0  0  0  0  0  0  0  0  0
   56.8818   31.9438   42.5310 H   0  0  0  0  0  0  0  0  0  0  0  0
   58.0670   33.9974   43.2859 H   0  0  0  0  0  0  0  0  0  0  0  0
   59.4373   34.4865   46.6921 H   0  0  0  0  0  0  0  0  0  0  0  0
   60.4200   34.3906   45.1914 H   0  0  0  0  0  0  0  0  0  0  0  0
   58.8661   35.2918   45.1914 H   0  0  0  0  0  0  0  0  0  0  0  0
   61.8801   29.4202   49.1201 H   0  0  0  0  0  0  0  0  0  0  0  0
   61.5490   28.0934   53.4703 H   0  0  0  0  0  0  0  0  0  0  0  0
   63.1973   27.6252   52.9313 H   0  0  0  0  0  0  0  0  0  0  0  0
   62.7096   29.3540   52.9313 H   0  0  0  0  0  0  0  0  0  0  0  0
   59.4467   28.5096   52.5821 H   0  0  0  0  0  0  0  0  0  0  0  0
  1  2  1  0
  2  3  1  0
  3  4  2  0
  4  5  1  0
  5  6  1  0
  6  7  1  0
  7  8  2  0
  7  9  1  0
  9 10  2  0
 10 11  1  0
 11 12  1  0
 12 13  2  0
 12 14  2  0
 12 15  1  0
 15 16  1  0
 16 17  2  0
 17 18  1  0
 18 19  2  0
 19 20  1  0
 20 21  2  0
 21 22  1  0
 22 23  1  0
 11 24  2  0
 24 25  1  0
 25 26  2  0
 26 27  1  0
  5 28  2  0
 28 29  1  0
 29 30  1  0
 30 31  1  0
 29 32  2  0
 32  3  1  0
 26  9  1  0
 21 16  1  0
  1 33  1  0
  1 34  1  0
  1 35  1  0
  4 36  1  0
  6 37  1  0
 10 38  1  0
 17 39  1  0
 18 40  1  0
 19 41  1  0
 20 42  1  0
 23 43  1  0
 23 44  1  0
 23 45  1  0
 24 46  1  0
 25 47  1  0
 27 48  1  0
 27 49  1  0
 27 50  1  0
 28 51  1  0
 31 52  1  0
 31 53  1  0
 31 54  1  0
 32 55  1  0
M  CHG  1  15  -1
M  END
>  <UniqueID>  (83) 
75

>  <SMILES>  (83) 
COc1cc(NC(=O)c2cc(S(=O)(=O)[N-]c3ccccc3OC)ccc2C)cc(OC)c1

>  <Energy>  (83) 
68.65296718754449

>  <Genealogy>  (83) 
COc1cc(NC(=O)c2cc(S(=O)(=O)[N-]c3ccccc3OC)ccc2C)cc(OC)c1 (protonated)
COc1cc(NC(=O)c2cc(S(=O)(=O)[N-]c3ccccc3OC)ccc2C)cc(OC)c1 (3D coordinates assigned)
COc1cc(NC(=O)c2cc(S(=O)(=O)[N-]c3ccccc3OC)ccc2C)cc(OC)c1 (optimized conformer: 68.65296718754449 kcal/mol)

>  <smiles>  (83) 
COc1cc(NC(=O)c2cc(S(=O)(=O)Nc3ccccc3OC)ccc2C)cc(OC)c1

>  <score_type>  (83) 
oracle

>  <origin>  (83) 
adg

>  <m_score__min__energy>  (83) 
-11.02

>  <m_primary>  (83) 
energy

$$$$
83:0
     RDKit          3D

 54 58  0  0  0  0  0  0  0  0999 V2000
   50.9530   32.3410   51.4270 N   0  0  0  0  0  0  0  0  0  0  0  0
   51.3120   31.1800   52.6560 S   0  0  0  0  0  0  0  0  0  0  0  0
   50.6390   29.8740   52.3300 O   0  0  0  0  0  0  0  0  0  0  0  0
   50.7870   31.6780   53.9740 O   0  0  0  0  0  0  0  0  0  0  0  0
   53.0550   30.9480   52.7490 C   0  0  0  0  0  0  0  0  0  0  0  0
   53.8600   31.2530   51.6470 C   0  0  0  0  0  0  0  0  0  0  0  0
   55.2430   31.0720   51.7160 C   0  0  0  0  0  0  0  0  0  0  0  0
   55.8430   30.5580   52.8780 C   0  0  0  0  0  0  0  0  0  0  0  0
   57.2670   30.3320   52.8900 N   0  0  0  0  0  0  0  0  0  0  0  0
   58.0670   30.2890   51.6990 C   0  0  0  0  0  0  0  0  0  0  0  0
   57.7890   29.4770   50.7730 O   0  0  0  0  0  0  0  0  0  0  0  0
   59.2470   31.1000   51.5740 N   0  0  0  0  0  0  0  0  0  0  0  0
   59.8010   31.6230   50.3550 C   0  0  0  0  0  0  0  0  0  0  0  0
   61.1370   32.0390   50.3410 C   0  0  0  0  0  0  0  0  0  0  0  0
   61.7110   32.5300   49.1650 C   0  0  0  0  0  0  0  0  0  0  0  0
   60.9610   32.5920   47.9860 C   0  0  0  0  0  0  0  0  0  0  0  0
   59.6300   32.1430   47.9700 C   0  0  0  0  0  0  0  0  0  0  0  0
   58.8180   32.2450   46.7350 C   0  0  0  0  0  0  0  0  0  0  0  0
   58.5170   33.4240   46.0560 C   0  0  0  0  0  0  0  0  0  0  0  0
   57.6540   33.1840   45.0450 N   0  0  0  0  0  0  0  0  0  0  0  0
   57.4090   31.8640   45.0670 C   0  0  0  0  0  0  0  0  0  0  0  0
   56.5560   31.1560   44.2270 C   0  0  0  0  0  0  0  0  0  0  0  0
   56.4250   29.7720   44.4270 C   0  0  0  0  0  0  0  0  0  0  0  0
   57.1780   29.1070   45.4340 C   0  0  0  0  0  0  0  0  0  0  0  0
   57.0470   27.6430   45.6680 C   0  0  0  0  0  0  0  0  0  0  0  0
   58.1670   26.8090   45.8630 C   0  0  0  0  0  0  0  0  0  0  0  0
   57.9830   25.4350   46.0420 C   0  0  0  0  0  0  0  0  0  0  0  0
   56.6950   24.9010   46.0520 C   0  0  0  0  0  0  0  0  0  0  0  0
   55.6020   25.7530   45.8890 C   0  0  0  0  0  0  0  0  0  0  0  0
   54.4310   25.2900   45.9150 O   0  0  0  0  0  0  0  0  0  0  0  0
   55.8010   27.0850   45.7000 N   0  0  0  0  0  0  0  0  0  0  0  0
   58.0420   29.8670   46.2600 C   0  0  0  0  0  0  0  0  0  0  0  0
   58.1080   31.2500   46.0730 C   0  0  0  0  0  0  0  0  0  0  0  0
   59.0620   31.6610   49.1600 C   0  0  0  0  0  0  0  0  0  0  0  0
   55.0320   30.2870   53.9960 C   0  0  0  0  0  0  0  0  0  0  0  0
   53.6490   30.4830   53.9310 C   0  0  0  0  0  0  0  0  0  0  0  0
   49.9930   32.7070   51.6260 H   0  0  0  0  0  0  0  0  0  0  0  0
   53.4025   31.6366   50.7231 H   0  0  0  0  0  0  0  0  0  0  0  0
   55.8697   31.3348   50.8510 H   0  0  0  0  0  0  0  0  0  0  0  0
   57.7770   30.5360   53.7800 H   0  0  0  0  0  0  0  0  0  0  0  0
   61.7384   31.9793   51.2601 H   0  0  0  0  0  0  0  0  0  0  0  0
   62.7574   32.8692   49.1667 H   0  0  0  0  0  0  0  0  0  0  0  0
   61.4150   32.9937   47.0681 H   0  0  0  0  0  0  0  0  0  0  0  0
   58.9257   34.4135   46.3085 H   0  0  0  0  0  0  0  0  0  0  0  0
   57.2540   33.8890   44.3880 H   0  0  0  0  0  0  0  0  0  0  0  0
   55.9989   31.6663   43.4275 H   0  0  0  0  0  0  0  0  0  0  0  0
   55.7316   29.1953   43.7972 H   0  0  0  0  0  0  0  0  0  0  0  0
   59.1801   27.2373   45.8742 H   0  0  0  0  0  0  0  0  0  0  0  0
   58.8534   24.7757   46.1748 H   0  0  0  0  0  0  0  0  0  0  0  0
   56.5422   23.8200   46.1869 H   0  0  0  0  0  0  0  0  0  0  0  0
   58.6501   29.3771   47.0348 H   0  0  0  0  0  0  0  0  0  0  0  0
   58.0205   31.3069   49.1571 H   0  0  0  0  0  0  0  0  0  0  0  0
   55.4889   29.9188   54.9264 H   0  0  0  0  0  0  0  0  0  0  0  0
   53.0241   30.2714   54.8112 H   0  0  0  0  0  0  0  0  0  0  0  0
  1  2  1  0
  2  3  2  0
  2  4  2  0
  2  5  1  0
  5  6  2  0
  6  7  1  0
  7  8  2  0
  8  9  1  0
  9 10  1  0
 10 11  2  0
 10 12  1  0
 12 13  1  0
 13 14  2  0
 14 15  1  0
 15 16  2  0
 16 17  1  0
 17 18  1  0
 18 19  2  0
 19 20  1  0
 20 21  1  0
 21 22  2  0
 22 23  1  0
 23 24  2  0
 24 25  1  0
 25 26  2  0
 26 27  1  0
 27 28  2  0
 28 29  1  0
 29 30  2  0
 29 31  1  0
 24 32  1  0
 32 33  2  0
 17 34  2  0
  8 35  1  0
 35 36  2  0
 36  5  1  0
 34 13  1  0
 33 18  1  0
 33 21  1  0
 31 25  1  0
  1 37  1  0
  6 38  1  0
  7 39  1  0
  9 40  1  0
 14 41  1  0
 15 42  1  0
 16 43  1  0
 19 44  1  0
 20 45  1  0
 22 46  1  0
 23 47  1  0
 26 48  1  0
 27 49  1  0
 28 50  1  0
 32 51  1  0
 34 52  1  0
 35 53  1  0
 36 54  1  0
M  CHG  3   1  -1  12  -1  31  -1
M  END
>  <UniqueID>  (84) 
76

>  <SMILES>  (84) 
[NH-]S(=O)(=O)c1ccc(NC(=O)[N-]c2cccc(-c3c[nH]c4ccc(-c5cccc(=O)[n-]5)cc34)c2)cc1

>  <Energy>  (84) 
105.87319967682713

>  <Genealogy>  (84) 
[NH-]S(=O)(=O)c1ccc(NC(=O)[N-]c2cccc(-c3c[nH]c4ccc(-c5cccc(=O)[n-]5)cc34)c2)cc1 (protonated)
[NH-]S(=O)(=O)c1ccc(NC(=O)[N-]c2cccc(-c3c[nH]c4ccc(-c5cccc(=O)[n-]5)cc34)c2)cc1 (3D coordinates assigned)
[NH-]S(=O)(=O)c1ccc(NC(=O)[N-]c2cccc(-c3c[nH]c4ccc(-c5cccc(=O)[n-]5)cc34)c2)cc1 (optimized conformer: 105.87319967682713 kcal/mol)

>  <smiles>  (84) 
NS(=O)(=O)c1ccc(NC(=O)Nc2cccc(-c3c[nH]c4ccc(-c5cccc(=O)[nH]5)cc34)c2)cc1

>  <score_type>  (84) 
oracle

>  <origin>  (84) 
adg

>  <m_score__min__energy>  (84) 
-16.670000000000002

>  <m_primary>  (84) 
energy

$$$$
84:0
     RDKit          3D

 41 43  0  0  0  0  0  0  0  0999 V2000
   59.4140   32.7470   51.4280 C   0  0  0  0  0  0  0  0  0  0  0  0
   59.2810   33.2170   50.0170 C   0  0  0  0  0  0  0  0  0  0  0  0
   58.8460   32.4600   48.9510 C   0  0  0  0  0  0  0  0  0  0  0  0
   58.9750   33.3170   47.8720 C   0  0  0  0  0  0  0  0  0  0  0  0
   58.6440   33.0410   46.4550 C   0  0  0  0  0  0  0  0  0  0  0  0
   59.0620   33.9360   45.4600 C   0  0  0  0  0  0  0  0  0  0  0  0
   58.7710   33.6910   44.1180 C   0  0  0  0  0  0  0  0  0  0  0  0
   58.0530   32.5470   43.7370 C   0  0  0  0  0  0  0  0  0  0  0  0
   57.7690   32.3240   42.2750 C   0  0  0  0  0  0  0  0  0  0  0  0
   57.5920   31.6550   44.7360 C   0  0  0  0  0  0  0  0  0  0  0  0
   56.6490   30.2040   44.3410 S   0  0  0  0  0  0  0  0  0  0  0  0
   55.1780   30.4810   44.4680 O   0  0  0  0  0  0  0  0  0  0  0  0
   56.9530   29.8040   42.9250 O   0  0  0  0  0  0  0  0  0  0  0  0
   57.0720   28.8830   45.3930 N   0  0  0  0  0  0  0  0  0  0  0  0
   58.4570   28.4560   45.1810 C   0  0  0  0  0  0  0  0  0  0  0  0
   59.2500   28.5560   46.4610 C   0  0  0  0  0  0  0  0  0  0  0  0
   60.0240   29.7040   46.7090 C   0  0  0  0  0  0  0  0  0  0  0  0
   60.7590   29.8210   47.8910 C   0  0  0  0  0  0  0  0  0  0  0  0
   60.7350   28.7930   48.8350 C   0  0  0  0  0  0  0  0  0  0  0  0
   59.9760   27.6450   48.5990 C   0  0  0  0  0  0  0  0  0  0  0  0
   59.2340   27.5170   47.4180 C   0  0  0  0  0  0  0  0  0  0  0  0
   58.3060   26.0420   47.1690 Cl  0  0  0  0  0  0  0  0  0  0  0  0
   57.9150   31.9010   46.0810 C   0  0  0  0  0  0  0  0  0  0  0  0
   59.4580   34.4610   48.3050 O   0  0  0  0  0  0  0  0  0  0  0  0
   59.6610   34.4350   49.5900 N   0  0  0  0  0  0  0  0  0  0  0  0
   59.1798   33.5746   52.1138 H   0  0  0  0  0  0  0  0  0  0  0  0
   58.7159   31.9155   51.6049 H   0  0  0  0  0  0  0  0  0  0  0  0
   60.4443   32.4046   51.6049 H   0  0  0  0  0  0  0  0  0  0  0  0
   58.4827   31.4217   48.9563 H   0  0  0  0  0  0  0  0  0  0  0  0
   59.6242   34.8391   45.7400 H   0  0  0  0  0  0  0  0  0  0  0  0
   59.1081   34.4025   43.3497 H   0  0  0  0  0  0  0  0  0  0  0  0
   56.9080   31.6479   42.1677 H   0  0  0  0  0  0  0  0  0  0  0  0
   57.5411   33.2870   41.7947 H   0  0  0  0  0  0  0  0  0  0  0  0
   58.6505   31.8742   41.7947 H   0  0  0  0  0  0  0  0  0  0  0  0
   58.4635   27.4124   44.8332 H   0  0  0  0  0  0  0  0  0  0  0  0
   58.9175   29.1130   44.4285 H   0  0  0  0  0  0  0  0  0  0  0  0
   60.0507   30.5154   45.9668 H   0  0  0  0  0  0  0  0  0  0  0  0
   61.3577   30.7246   48.0782 H   0  0  0  0  0  0  0  0  0  0  0  0
   61.3143   28.8873   49.7653 H   0  0  0  0  0  0  0  0  0  0  0  0
   59.9607   26.8366   49.3448 H   0  0  0  0  0  0  0  0  0  0  0  0
   57.5913   31.1884   46.8540 H   0  0  0  0  0  0  0  0  0  0  0  0
  1  2  1  0
  2  3  1  0
  3  4  2  0
  4  5  1  0
  5  6  2  0
  6  7  1  0
  7  8  2  0
  8  9  1  0
  8 10  1  0
 10 11  1  0
 11 12  2  0
 11 13  2  0
 11 14  1  0
 14 15  1  0
 15 16  1  0
 16 17  2  0
 17 18  1  0
 18 19  2  0
 19 20  1  0
 20 21  2  0
 21 22  1  0
 10 23  2  0
  4 24  1  0
 24 25  1  0
 25  2  2  0
 23  5  1  0
 21 16  1  0
  1 26  1  0
  1 27  1  0
  1 28  1  0
  3 29  1  0
  6 30  1  0
  7 31  1  0
  9 32  1  0
  9 33  1  0
  9 34  1  0
 15 35  1  0
 15 36  1  0
 17 37  1  0
 18 38  1  0
 19 39  1  0
 20 40  1  0
 23 41  1  0
M  CHG  1  14  -1
M  END
>  <UniqueID>  (85) 
77

>  <SMILES>  (85) 
Cc1cc(-c2ccc(C)c(S(=O)(=O)[N-]Cc3ccccc3Cl)c2)on1

>  <Energy>  (85) 
74.98413597141365

>  <Genealogy>  (85) 
Cc1cc(-c2ccc(C)c(S(=O)(=O)[N-]Cc3ccccc3Cl)c2)on1 (protonated)
Cc1cc(-c2ccc(C)c(S(=O)(=O)[N-]Cc3ccccc3Cl)c2)on1 (3D coordinates assigned)
Cc1cc(-c2ccc(C)c(S(=O)(=O)[N-]Cc3ccccc3Cl)c2)on1 (optimized conformer: 74.98413597141365 kcal/mol)

>  <smiles>  (85) 
Cc1cc(-c2ccc(C)c(S(=O)(=O)NCc3ccccc3Cl)c2)on1

>  <score_type>  (85) 
oracle

>  <origin>  (85) 
adg

>  <m_score__min__energy>  (85) 
-10.73

>  <m_primary>  (85) 
energy

$$$$
85:0
     RDKit          3D

 45 47  0  0  1  0  0  0  0  0999 V2000
   60.9900   33.4730   51.0210 C   0  0  0  0  0  0  0  0  0  0  0  0
   60.9900   33.6430   49.5590 C   0  0  0  0  0  0  0  0  0  0  0  0
   59.8070   33.8410   48.8760 C   0  0  0  0  0  0  0  0  0  0  0  0
   59.8080   34.0020   47.5010 C   0  0  0  0  0  0  0  0  0  0  0  0
   58.6600   34.1830   46.9430 N   0  0  0  0  0  0  0  0  0  0  0  0
   58.4290   33.8240   45.2720 S   0  0  0  0  0  0  0  0  0  0  0  0
   59.5070   34.3160   44.3880 O   0  0  0  0  0  0  0  0  0  0  0  0
   57.1720   34.5920   44.8720 O   0  0  0  0  0  0  0  0  0  0  0  0
   58.0630   32.1300   45.0330 C   0  0  0  0  0  0  0  0  0  0  0  0
   57.0010   31.7150   44.2730 C   0  0  0  0  0  0  0  0  0  0  0  0
   56.7090   30.3780   44.0820 C   0  0  0  0  0  0  0  0  0  0  0  0
   57.5150   29.3980   44.6770 C   0  0  0  0  0  0  0  0  0  0  0  0
   57.2350   28.0090   44.4950 N   0  0  0  0  0  0  0  0  0  0  0  0
   57.2360   27.0820   45.5740 C   0  0  0  0  0  0  0  0  0  0  0  0
   57.5040   27.5750   46.7190 O   0  0  0  0  0  0  0  0  0  0  0  0
   56.9530   25.6610   45.4110 C   0  0  0  0  0  0  0  0  0  0  0  0
   56.2840   24.9090   46.3550 C   0  0  0  0  0  0  0  0  0  0  0  0
   56.0360   23.5590   46.1570 C   0  0  0  0  0  0  0  0  0  0  0  0
   56.4540   22.9350   45.0090 C   0  0  0  0  0  0  0  0  0  0  0  0
   56.1880   21.6210   44.8650 F   0  0  0  0  0  0  0  0  0  0  0  0
   57.1270   23.6810   44.0540 C   0  0  0  0  0  0  0  0  0  0  0  0
   57.3650   25.0350   44.2730 C   0  0  0  0  0  0  0  0  0  0  0  0
   58.5860   29.8220   45.4430 C   0  0  0  0  0  0  0  0  0  0  0  0
   58.8730   31.1680   45.6310 C   0  0  0  0  0  0  0  0  0  0  0  0
   60.9470   33.9680   46.7990 N   0  0  0  0  0  0  0  0  0  0  0  0
   62.0940   33.7740   47.4790 C   0  0  0  0  0  0  0  0  0  0  0  0
   63.3840   33.7310   46.7230 C   0  0  0  0  0  0  0  0  0  0  0  0
   62.1210   33.6140   48.8270 N   0  0  0  0  0  0  0  0  0  0  0  0
   62.0271   33.4306   51.3852 H   0  0  0  0  0  0  0  0  0  0  0  0
   60.4715   34.3228   51.4890 H   0  0  0  0  0  0  0  0  0  0  0  0
   60.4715   32.5385   51.2815 H   0  0  0  0  0  0  0  0  0  0  0  0
   58.8562   33.8711   49.4284 H   0  0  0  0  0  0  0  0  0  0  0  0
   56.3591   32.4720   43.7988 H   0  0  0  0  0  0  0  0  0  0  0  0
   55.8470   30.0839   43.4652 H   0  0  0  0  0  0  0  0  0  0  0  0
   57.0240   27.6770   43.5280 H   0  0  0  0  0  0  0  0  0  0  0  0
   55.9407   25.3898   47.2828 H   0  0  0  0  0  0  0  0  0  0  0  0
   55.4999   22.9840   46.9265 H   0  0  0  0  0  0  0  0  0  0  0  0
   57.4723   23.2040   43.1249 H   0  0  0  0  0  0  0  0  0  0  0  0
   57.9001   25.6151   43.5067 H   0  0  0  0  0  0  0  0  0  0  0  0
   59.2313   29.0688   45.9187 H   0  0  0  0  0  0  0  0  0  0  0  0
   59.7325   31.4713   46.2468 H   0  0  0  0  0  0  0  0  0  0  0  0
   60.9130   34.0920   45.7670 H   0  0  0  0  0  0  0  0  0  0  0  0
   64.2241   33.7030   47.4326 H   0  0  0  0  0  0  0  0  0  0  0  0
   63.4084   32.8315   46.0902 H   0  0  0  0  0  0  0  0  0  0  0  0
   63.4682   34.6268   46.0902 H   0  0  0  0  0  0  0  0  0  0  0  0
  1  2  1  0
  2  3  2  0
  3  4  1  0
  4  5  2  0
  5  6  1  0
  6  7  2  0
  6  8  2  0
  6  9  1  0
  9 10  2  0
 10 11  1  0
 11 12  2  0
 12 13  1  0
 13 14  1  0
 14 15  2  0
 14 16  1  0
 16 17  2  0
 17 18  1  0
 18 19  2  0
 19 20  1  0
 19 21  1  0
 21 22  2  0
 12 23  1  0
 23 24  2  0
  4 25  1  0
 25 26  1  0
 26 27  1  0
 26 28  2  0
 28  2  1  0
 24  9  1  0
 22 16  1  0
  1 29  1  0
  1 30  1  0
  1 31  1  0
  3 32  1  0
 10 33  1  0
 11 34  1  0
 13 35  1  0
 17 36  1  0
 18 37  1  0
 21 38  1  0
 22 39  1  0
 23 40  1  0
 24 41  1  0
 25 42  1  0
 27 43  1  0
 27 44  1  0
 27 45  1  0
M  END
>  <smiles>  (86) 
Cc1cc(=NS(=O)(=O)c2ccc(NC(=O)c3ccc(F)cc3)cc2)[nH]c(C)n1

>  <score_type>  (86) 
oracle

>  <origin>  (86) 
adg

>  <m_score__min__energy>  (86) 
-8.5

>  <m_primary>  (86) 
energy

$$$$
86:0
     RDKit          3D

 53 56  0  0  0  0  0  0  0  0999 V2000
   58.1170   28.2380   43.8460 C   0  0  0  0  0  0  0  0  0  0  0  0
   57.7420   29.2890   44.7950 N   0  0  0  0  0  0  0  0  0  0  0  0
   56.8100   30.2910   44.3580 C   0  0  0  0  0  0  0  0  0  0  0  0
   55.5770   30.1010   44.5360 O   0  0  0  0  0  0  0  0  0  0  0  0
   57.2540   31.5250   43.6110 C   0  0  0  0  0  0  0  0  0  0  0  0
   57.7800   32.6100   44.5120 C   0  0  0  0  0  0  0  0  0  0  0  0
   57.2760   32.7570   45.8150 C   0  0  0  0  0  0  0  0  0  0  0  0
   57.7870   33.7460   46.6620 C   0  0  0  0  0  0  0  0  0  0  0  0
   58.8080   34.5960   46.2160 C   0  0  0  0  0  0  0  0  0  0  0  0
   59.3270   35.5830   47.0520 O   0  0  0  0  0  0  0  0  0  0  0  0
   59.3140   34.4530   44.9200 C   0  0  0  0  0  0  0  0  0  0  0  0
   58.8050   33.4660   44.0720 C   0  0  0  0  0  0  0  0  0  0  0  0
   58.6500   29.5640   45.8830 C   0  0  0  0  0  0  0  0  0  0  0  0
   59.4440   30.6570   45.8970 N   0  0  0  0  0  0  0  0  0  0  0  0
   60.1460   30.5560   47.0420 C   0  0  0  0  0  0  0  0  0  0  0  0
   61.1530   31.5600   47.4550 C   0  0  0  0  0  0  0  0  0  0  0  0
   60.7740   32.7630   48.0790 C   0  0  0  0  0  0  0  0  0  0  0  0
   61.7440   33.6930   48.4670 C   0  0  0  0  0  0  0  0  0  0  0  0
   63.0960   33.4270   48.2500 C   0  0  0  0  0  0  0  0  0  0  0  0
   63.4850   32.2270   47.6510 C   0  0  0  0  0  0  0  0  0  0  0  0
   62.5190   31.2930   47.2600 C   0  0  0  0  0  0  0  0  0  0  0  0
   59.7710   29.3980   47.7090 C   0  0  0  0  0  0  0  0  0  0  0  0
   60.2460   28.9610   49.0380 C   0  0  0  0  0  0  0  0  0  0  0  0
   60.6800   27.6410   49.2380 C   0  0  0  0  0  0  0  0  0  0  0  0
   61.1580   27.2400   50.4880 C   0  0  0  0  0  0  0  0  0  0  0  0
   61.2140   28.1550   51.5440 C   0  0  0  0  0  0  0  0  0  0  0  0
   60.7920   29.4730   51.3480 C   0  0  0  0  0  0  0  0  0  0  0  0
   60.3120   29.8780   50.0990 C   0  0  0  0  0  0  0  0  0  0  0  0
   58.8260   28.7730   46.9720 N   0  0  0  0  0  0  0  0  0  0  0  0
   58.1230   27.5300   47.3010 C   0  0  0  0  0  0  0  0  0  0  0  0
   58.4366   27.3421   44.3985 H   0  0  0  0  0  0  0  0  0  0  0  0
   57.2521   27.9895   43.2134 H   0  0  0  0  0  0  0  0  0  0  0  0
   58.9439   28.5931   43.2134 H   0  0  0  0  0  0  0  0  0  0  0  0
   58.0497   31.2395   42.9071 H   0  0  0  0  0  0  0  0  0  0  0  0
   56.3701   31.9295   43.0960 H   0  0  0  0  0  0  0  0  0  0  0  0
   56.4758   32.0913   46.1709 H   0  0  0  0  0  0  0  0  0  0  0  0
   57.3865   33.8568   47.6805 H   0  0  0  0  0  0  0  0  0  0  0  0
   58.7240   36.2380   47.5360 H   0  0  0  0  0  0  0  0  0  0  0  0
   60.1149   35.1194   44.5673 H   0  0  0  0  0  0  0  0  0  0  0  0
   59.2085   33.3580   43.0544 H   0  0  0  0  0  0  0  0  0  0  0  0
   59.7099   32.9730   48.2625 H   0  0  0  0  0  0  0  0  0  0  0  0
   61.4400   34.6363   48.9443 H   0  0  0  0  0  0  0  0  0  0  0  0
   63.8562   34.1629   48.5509 H   0  0  0  0  0  0  0  0  0  0  0  0
   64.5519   32.0157   47.4863 H   0  0  0  0  0  0  0  0  0  0  0  0
   62.8305   30.3448   46.7976 H   0  0  0  0  0  0  0  0  0  0  0  0
   60.6436   26.9202   48.4079 H   0  0  0  0  0  0  0  0  0  0  0  0
   61.4908   26.2029   50.6418 H   0  0  0  0  0  0  0  0  0  0  0  0
   61.5898   27.8378   52.5280 H   0  0  0  0  0  0  0  0  0  0  0  0
   60.8377   30.1931   52.1783 H   0  0  0  0  0  0  0  0  0  0  0  0
   59.9853   30.9174   49.9472 H   0  0  0  0  0  0  0  0  0  0  0  0
   58.0617   27.4217   48.3939 H   0  0  0  0  0  0  0  0  0  0  0  0
   57.1080   27.5598   46.8780 H   0  0  0  0  0  0  0  0  0  0  0  0
   58.6716   26.6755   46.8780 H   0  0  0  0  0  0  0  0  0  0  0  0
  1  2  1  0
  2  3  1  0
  3  4  2  0
  3  5  1  0
  5  6  1  0
  6  7  2  0
  7  8  1  0
  8  9  2  0
  9 10  1  0
  9 11  1  0
 11 12  2  0
  2 13  1  0
 13 14  2  0
 14 15  1  0
 15 16  1  0
 16 17  2  0
 17 18  1  0
 18 19  2  0
 19 20  1  0
 20 21  2  0
 15 22  2  0
 22 23  1  0
 23 24  2  0
 24 25  1  0
 25 26  2  0
 26 27  1  0
 27 28  2  0
 22 29  1  0
 29 30  1  0
 12  6  1  0
 29 13  1  0
 21 16  1  0
 28 23  1  0
  1 31  1  0
  1 32  1  0
  1 33  1  0
  5 34  1  0
  5 35  1  0
  7 36  1  0
  8 37  1  0
 10 38  1  0
 11 39  1  0
 12 40  1  0
 17 41  1  0
 18 42  1  0
 19 43  1  0
 20 44  1  0
 21 45  1  0
 24 46  1  0
 25 47  1  0
 26 48  1  0
 27 49  1  0
 28 50  1  0
 30 51  1  0
 30 52  1  0
 30 53  1  0
M  END
>  <UniqueID>  (87) 
78

>  <SMILES>  (87) 
CN(C(=O)Cc1ccc(O)cc1)c1nc(-c2ccccc2)c(-c2ccccc2)n1C

>  <Energy>  (87) 
104.70151751022746

>  <Genealogy>  (87) 
CN(C(=O)Cc1ccc(O)cc1)c1nc(-c2ccccc2)c(-c2ccccc2)n1C (3D coordinates assigned)
CN(C(=O)Cc1ccc(O)cc1)c1nc(-c2ccccc2)c(-c2ccccc2)n1C (optimized conformer: 104.70151751022746 kcal/mol)

>  <smiles>  (87) 
CN(C(=O)Cc1ccc(O)cc1)c1nc(-c2ccccc2)c(-c2ccccc2)n1C

>  <score_type>  (87) 
oracle

>  <origin>  (87) 
adg

>  <m_score__min__energy>  (87) 
-9.2799999999999994

>  <m_primary>  (87) 
energy

$$$$
87:0
     RDKit          3D

 31 33  0  0  0  0  0  0  0  0999 V2000
   56.2690   21.7460   45.4250 C   0  0  0  0  0  0  0  0  0  0  0  0
   56.4390   23.2140   45.7280 C   0  0  0  0  0  0  0  0  0  0  0  0
   55.3080   24.0900   45.7180 C   0  0  0  0  0  0  0  0  0  0  0  0
   53.9850   23.5870   45.4280 C   0  0  0  0  0  0  0  0  0  0  0  0
   52.9250   23.1840   45.1970 N   0  0  0  0  0  0  0  0  0  0  0  0
   55.4740   25.4660   45.9890 C   0  0  0  0  0  0  0  0  0  0  0  0
   54.3920   26.3420   45.9870 O   0  0  0  0  0  0  0  0  0  0  0  0
   56.7570   25.9310   46.2570 C   0  0  0  0  0  0  0  0  0  0  0  0
   57.1330   27.1900   46.5250 N   0  0  0  0  0  0  0  0  0  0  0  0
   58.4760   27.0650   46.6950 C   0  0  0  0  0  0  0  0  0  0  0  0
   59.3680   28.2340   46.9620 C   0  0  0  0  0  0  0  0  0  0  0  0
   58.8620   29.4430   46.2250 C   0  0  0  0  0  0  0  0  0  0  0  0
   58.4410   29.3350   44.8890 C   0  0  0  0  0  0  0  0  0  0  0  0
   57.9360   30.4520   44.2170 C   0  0  0  0  0  0  0  0  0  0  0  0
   57.8380   31.6820   44.8760 C   0  0  0  0  0  0  0  0  0  0  0  0
   57.3360   32.7910   44.2060 O   0  0  0  0  0  0  0  0  0  0  0  0
   58.2420   31.7940   46.2090 C   0  0  0  0  0  0  0  0  0  0  0  0
   58.7470   30.6790   46.8850 C   0  0  0  0  0  0  0  0  0  0  0  0
   58.9510   25.8020   46.5290 N   0  0  0  0  0  0  0  0  0  0  0  0
   57.8370   25.1070   46.2590 C   0  0  0  0  0  0  0  0  0  0  0  0
   57.7270   23.7440   45.9960 C   0  0  0  0  0  0  0  0  0  0  0  0
   58.8640   22.9410   45.9980 O   0  0  0  0  0  0  0  0  0  0  0  0
   56.2037   21.1823   46.3673 H   0  0  0  0  0  0  0  0  0  0  0  0
   55.3475   21.5960   44.8434 H   0  0  0  0  0  0  0  0  0  0  0  0
   57.1318   21.3893   44.8434 H   0  0  0  0  0  0  0  0  0  0  0  0
   59.3807   28.4439   48.0417 H   0  0  0  0  0  0  0  0  0  0  0  0
   60.3857   27.9992   46.6167 H   0  0  0  0  0  0  0  0  0  0  0  0
   58.5090   28.3677   44.3697 H   0  0  0  0  0  0  0  0  0  0  0  0
   57.6152   30.3636   43.1685 H   0  0  0  0  0  0  0  0  0  0  0  0
   58.1626   32.7609   46.7274 H   0  0  0  0  0  0  0  0  0  0  0  0
   59.0554   30.7693   47.9370 H   0  0  0  0  0  0  0  0  0  0  0  0
  1  2  1  0
  2  3  2  0
  3  4  1  0
  4  5  3  0
  3  6  1  0
  6  7  1  0
  6  8  2  0
  8  9  1  0
  9 10  2  0
 10 11  1  0
 11 12  1  0
 12 13  2  0
 13 14  1  0
 14 15  2  0
 15 16  1  0
 15 17  1  0
 17 18  2  0
 10 19  1  0
 19 20  1  0
 20 21  2  0
 21 22  1  0
 21  2  1  0
 20  8  1  0
 18 12  1  0
  1 23  1  0
  1 24  1  0
  1 25  1  0
 11 26  1  0
 11 27  1  0
 13 28  1  0
 14 29  1  0
 17 30  1  0
 18 31  1  0
M  CHG  4   7  -1  16  -1  19  -1  22  -1
M  END
>  <UniqueID>  (88) 
79

>  <SMILES>  (88) 
Cc1c(C#N)c([O-])c2nc(Cc3ccc([O-])cc3)[n-]c2c1[O-]

>  <Energy>  (88) 
68.03187839738601

>  <Genealogy>  (88) 
Cc1c(C#N)c([O-])c2nc(Cc3ccc([O-])cc3)[n-]c2c1[O-] (protonated)
Cc1c(C#N)c([O-])c2nc(Cc3ccc([O-])cc3)[n-]c2c1[O-] (3D coordinates assigned)
Cc1c(C#N)c([O-])c2nc(Cc3ccc([O-])cc3)[n-]c2c1[O-] (optimized conformer: 68.03187839738601 kcal/mol)

>  <smiles>  (88) 
Cc1c(C#N)c(O)c2nc(Cc3ccc(O)cc3)[nH]c2c1O

>  <score_type>  (88) 
oracle

>  <origin>  (88) 
adg

>  <m_score__min__energy>  (88) 
-13.85

>  <m_primary>  (88) 
energy

$$$$
88:0
     RDKit          3D

 30 32  0  0  0  0  0  0  0  0999 V2000
   53.1100   22.9820   45.0930 N   0  0  0  0  0  0  0  0  0  0  0  0
   54.2290   23.6260   45.0040 C   0  0  0  0  0  0  0  0  0  0  0  0
   55.2320   23.1750   44.1120 C   0  0  0  0  0  0  0  0  0  0  0  0
   56.4470   23.8750   44.0110 C   0  0  0  0  0  0  0  0  0  0  0  0
   56.6050   24.9990   44.8150 C   0  0  0  0  0  0  0  0  0  0  0  0
   57.6460   25.8920   44.9390 C   0  0  0  0  0  0  0  0  0  0  0  0
   57.2160   26.8080   45.9020 C   0  0  0  0  0  0  0  0  0  0  0  0
   57.9850   27.9880   46.3450 C   0  0  0  0  0  0  0  0  0  0  0  0
   58.8330   27.8480   47.4560 C   0  0  0  0  0  0  0  0  0  0  0  0
   59.6150   28.9180   47.8930 C   0  0  0  0  0  0  0  0  0  0  0  0
   59.5550   30.1430   47.2310 C   0  0  0  0  0  0  0  0  0  0  0  0
   58.7020   30.3060   46.1380 C   0  0  0  0  0  0  0  0  0  0  0  0
   57.8990   29.2430   45.6900 C   0  0  0  0  0  0  0  0  0  0  0  0
   56.7670   29.5490   44.3610 S   0  0  0  0  0  0  0  0  0  0  0  0
   55.1360   29.3450   44.8970 N   0  0  0  0  0  0  0  0  0  0  0  0
   56.9250   30.9620   43.8740 O   0  0  0  0  0  0  0  0  0  0  0  0
   57.0510   28.6070   43.2250 O   0  0  0  0  0  0  0  0  0  0  0  0
   55.9680   26.5110   46.3360 N   0  0  0  0  0  0  0  0  0  0  0  0
   55.6180   25.4030   45.6660 C   0  0  0  0  0  0  0  0  0  0  0  0
   54.4380   24.7420   45.7710 N   0  0  0  0  0  0  0  0  0  0  0  0
   52.2480   23.4330   45.4740 H   0  0  0  0  0  0  0  0  0  0  0  0
   55.0607   22.2780   43.4988 H   0  0  0  0  0  0  0  0  0  0  0  0
   57.2408   23.5470   43.3238 H   0  0  0  0  0  0  0  0  0  0  0  0
   58.6043   25.8854   44.3990 H   0  0  0  0  0  0  0  0  0  0  0  0
   58.8811   26.8857   47.9867 H   0  0  0  0  0  0  0  0  0  0  0  0
   60.2795   28.7945   48.7609 H   0  0  0  0  0  0  0  0  0  0  0  0
   60.1803   30.9821   47.5700 H   0  0  0  0  0  0  0  0  0  0  0  0
   58.6579   31.2765   45.6220 H   0  0  0  0  0  0  0  0  0  0  0  0
   55.1480   28.6120   45.6410 H   0  0  0  0  0  0  0  0  0  0  0  0
   55.3800   27.0470   47.0120 H   0  0  0  0  0  0  0  0  0  0  0  0
  1  2  2  3
  2  3  1  0
  3  4  2  0
  4  5  1  0
  5  6  1  0
  6  7  2  0
  7  8  1  0
  8  9  2  0
  9 10  1  0
 10 11  2  0
 11 12  1  0
 12 13  2  0
 13 14  1  0
 14 15  1  0
 14 16  2  0
 14 17  2  0
  7 18  1  0
 18 19  1  0
 19 20  1  0
 20  2  1  0
 19  5  2  0
 13  8  1  0
  1 21  1  0
  3 22  1  0
  4 23  1  0
  6 24  1  0
  9 25  1  0
 10 26  1  0
 11 27  1  0
 12 28  1  0
 15 29  1  0
 18 30  1  0
M  CHG  2  15  -1  20  -1
M  END
>  <UniqueID>  (89) 
80

>  <SMILES>  (89) 
N=c1ccc2cc(-c3ccccc3S([NH-])(=O)=O)[nH]c2[n-]1

>  <Energy>  (89) 
74.33198555396628

>  <Genealogy>  (89) 
N=c1ccc2cc(-c3ccccc3S([NH-])(=O)=O)[nH]c2[n-]1 (protonated)
N=c1ccc2cc(-c3ccccc3S([NH-])(=O)=O)[nH]c2[n-]1 (3D coordinates assigned)
N=c1ccc2cc(-c3ccccc3S([NH-])(=O)=O)[nH]c2[n-]1 (optimized conformer: 74.33198555396628 kcal/mol)

>  <smiles>  (89) 
N=c1ccc2cc(-c3ccccc3S(N)(=O)=O)[nH]c2[nH]1

>  <score_type>  (89) 
oracle

>  <origin>  (89) 
adg

>  <m_score__min__energy>  (89) 
-12.69

>  <m_primary>  (89) 
energy

$$$$
89:0
     RDKit          3D

 73 75  0  0  0  0  0  0  0  0999 V2000
   59.8630   35.0200   46.1960 C   0  0  0  0  0  0  0  0  0  0  0  0
   60.8510   33.8560   46.0960 C   0  0  0  0  0  0  0  0  0  0  0  0
   61.8620   33.8330   47.2620 C   0  0  0  0  0  0  0  0  0  0  0  0
   62.9780   32.7850   47.1030 C   0  0  0  0  0  0  0  0  0  0  0  0
   64.0430   32.7720   48.2200 C   0  0  0  0  0  0  0  0  0  0  0  0
   63.8200   33.8210   49.3300 C   0  0  0  0  0  0  0  0  0  0  0  0
   64.3010   33.3600   50.7140 C   0  0  0  0  0  0  0  0  0  0  0  0
   63.2840   33.7330   51.8040 C   0  0  0  0  0  0  0  0  0  0  0  0
   61.8410   33.8250   51.2670 C   0  0  0  0  0  0  0  0  0  0  0  0
   61.1060   32.4730   51.2190 C   0  0  0  0  0  0  0  0  0  0  0  0
   60.3510   32.2660   49.9300 C   0  0  0  0  0  0  0  0  0  0  0  0
   59.2310   33.0530   49.6240 C   0  0  0  0  0  0  0  0  0  0  0  0
   58.5100   32.8280   48.4470 C   0  0  0  0  0  0  0  0  0  0  0  0
   58.9100   31.8250   47.5450 C   0  0  0  0  0  0  0  0  0  0  0  0
   58.1330   31.5510   46.3110 C   0  0  0  0  0  0  0  0  0  0  0  0
   57.3530   32.4320   45.8610 O   0  0  0  0  0  0  0  0  0  0  0  0
   58.3000   30.3420   45.5580 N   0  0  0  0  0  0  0  0  0  0  0  0
   57.8900   29.0300   45.9640 C   0  0  0  0  0  0  0  0  0  0  0  0
   58.4720   28.4660   47.1050 C   0  0  0  0  0  0  0  0  0  0  0  0
   58.1340   27.1710   47.5070 C   0  0  0  0  0  0  0  0  0  0  0  0
   57.2260   26.4100   46.7530 C   0  0  0  0  0  0  0  0  0  0  0  0
   56.8730   25.0070   47.1730 C   0  0  0  0  0  0  0  0  0  0  0  0
   56.6210   24.1590   45.9950 N   0  0  0  0  0  0  0  0  0  0  0  0
   57.6350   23.3980   45.4860 C   0  0  0  0  0  0  0  0  0  0  0  0
   57.4290   22.5850   44.3650 C   0  0  0  0  0  0  0  0  0  0  0  0
   58.5450   21.7140   43.8430 C   0  0  0  0  0  0  0  0  0  0  0  0
   59.8570   22.0330   44.5540 C   0  0  0  0  0  0  0  0  0  0  0  0
   56.1480   22.5670   43.7930 C   0  0  0  0  0  0  0  0  0  0  0  0
   55.8960   21.8400   42.7950 O   0  0  0  0  0  0  0  0  0  0  0  0
   55.1660   23.3410   44.3190 N   0  0  0  0  0  0  0  0  0  0  0  0
   55.3860   24.1310   45.4010 C   0  0  0  0  0  0  0  0  0  0  0  0
   54.4390   24.8330   45.8500 O   0  0  0  0  0  0  0  0  0  0  0  0
   56.6490   26.9720   45.6040 C   0  0  0  0  0  0  0  0  0  0  0  0
   56.9820   28.2700   45.2060 C   0  0  0  0  0  0  0  0  0  0  0  0
   60.0310   31.0380   47.8580 C   0  0  0  0  0  0  0  0  0  0  0  0
   60.7460   31.2570   49.0390 C   0  0  0  0  0  0  0  0  0  0  0  0
   59.6701   35.2473   47.2548 H   0  0  0  0  0  0  0  0  0  0  0  0
   60.2890   35.9060   45.7025 H   0  0  0  0  0  0  0  0  0  0  0  0
   58.9196   34.7436   45.7025 H   0  0  0  0  0  0  0  0  0  0  0  0
   60.2855   32.9125   46.1016 H   0  0  0  0  0  0  0  0  0  0  0  0
   61.4209   33.9822   45.1637 H   0  0  0  0  0  0  0  0  0  0  0  0
   62.3285   34.8265   47.3349 H   0  0  0  0  0  0  0  0  0  0  0  0
   61.2979   33.5622   48.1667 H   0  0  0  0  0  0  0  0  0  0  0  0
   62.5074   31.7912   47.0722 H   0  0  0  0  0  0  0  0  0  0  0  0
   63.5129   33.0519   46.1796 H   0  0  0  0  0  0  0  0  0  0  0  0
   64.0414   31.7749   48.6845 H   0  0  0  0  0  0  0  0  0  0  0  0
   65.0012   33.0224   47.7413 H   0  0  0  0  0  0  0  0  0  0  0  0
   64.3661   34.7365   49.0587 H   0  0  0  0  0  0  0  0  0  0  0  0
   62.7354   33.9887   49.4036 H   0  0  0  0  0  0  0  0  0  0  0  0
   64.4325   32.2679   50.7036 H   0  0  0  0  0  0  0  0  0  0  0  0
   65.2541   33.8613   50.9382 H   0  0  0  0  0  0  0  0  0  0  0  0
   63.3175   32.9673   52.5931 H   0  0  0  0  0  0  0  0  0  0  0  0
   63.5589   34.7263   52.1883 H   0  0  0  0  0  0  0  0  0  0  0  0
   61.2721   34.5056   51.9175 H   0  0  0  0  0  0  0  0  0  0  0  0
   61.9083   34.1888   50.2311 H   0  0  0  0  0  0  0  0  0  0  0  0
   61.8459   31.6662   51.3268 H   0  0  0  0  0  0  0  0  0  0  0  0
   60.3724   32.4646   52.0386 H   0  0  0  0  0  0  0  0  0  0  0  0
   58.9182   33.8512   50.3133 H   0  0  0  0  0  0  0  0  0  0  0  0
   57.6233   33.4399   48.2247 H   0  0  0  0  0  0  0  0  0  0  0  0
   59.2009   29.0464   47.6897 H   0  0  0  0  0  0  0  0  0  0  0  0
   58.5810   26.7460   48.4178 H   0  0  0  0  0  0  0  0  0  0  0  0
   57.7067   24.5827   47.7517 H   0  0  0  0  0  0  0  0  0  0  0  0
   55.9607   25.0404   47.7866 H   0  0  0  0  0  0  0  0  0  0  0  0
   58.6259   23.4244   45.9630 H   0  0  0  0  0  0  0  0  0  0  0  0
   58.2890   20.6580   44.0145 H   0  0  0  0  0  0  0  0  0  0  0  0
   58.6701   21.9070   42.7673 H   0  0  0  0  0  0  0  0  0  0  0  0
   59.7027   21.9955   45.6425 H   0  0  0  0  0  0  0  0  0  0  0  0
   60.6192   21.2940   44.2660 H   0  0  0  0  0  0  0  0  0  0  0  0
   60.1948   23.0395   44.2660 H   0  0  0  0  0  0  0  0  0  0  0  0
   55.9295   26.3870   45.0123 H   0  0  0  0  0  0  0  0  0  0  0  0
   56.5326   28.6978   44.2977 H   0  0  0  0  0  0  0  0  0  0  0  0
   60.3487   30.2426   47.1677 H   0  0  0  0  0  0  0  0  0  0  0  0
   61.6230   30.6349   49.2709 H   0  0  0  0  0  0  0  0  0  0  0  0
  1  2  1  0
  2  3  1  0
  3  4  1  0
  4  5  1  0
  5  6  1  0
  6  7  1  0
  7  8  1  0
  8  9  1  0
  9 10  1  0
 10 11  1  0
 11 12  2  0
 12 13  1  0
 13 14  2  0
 14 15  1  0
 15 16  2  0
 15 17  1  0
 17 18  1  0
 18 19  2  0
 19 20  1  0
 20 21  2  0
 21 22  1  0
 22 23  1  0
 23 24  1  0
 24 25  2  0
 25 26  1  0
 26 27  1  0
 25 28  1  0
 28 29  2  0
 28 30  1  0
 30 31  1  0
 31 32  2  0
 21 33  1  0
 33 34  2  0
 14 35  1  0
 35 36  2  0
 36 11  1  0
 34 18  1  0
 31 23  1  0
  1 37  1  0
  1 38  1  0
  1 39  1  0
  2 40  1  0
  2 41  1  0
  3 42  1  0
  3 43  1  0
  4 44  1  0
  4 45  1  0
  5 46  1  0
  5 47  1  0
  6 48  1  0
  6 49  1  0
  7 50  1  0
  7 51  1  0
  8 52  1  0
  8 53  1  0
  9 54  1  0
  9 55  1  0
 10 56  1  0
 10 57  1  0
 12 58  1  0
 13 59  1  0
 19 60  1  0
 20 61  1  0
 22 62  1  0
 22 63  1  0
 24 64  1  0
 26 65  1  0
 26 66  1  0
 27 67  1  0
 27 68  1  0
 27 69  1  0
 33 70  1  0
 34 71  1  0
 35 72  1  0
 36 73  1  0
M  CHG  2  17  -1  30  -1
M  END
>  <UniqueID>  (90) 
81

>  <SMILES>  (90) 
CCCCCCCCCCc1ccc(C(=O)[N-]c2ccc(Cn3cc(CC)c(=O)[n-]c3=O)cc2)cc1

>  <Energy>  (90) 
69.23847569233804

>  <Genealogy>  (90) 
CCCCCCCCCCc1ccc(C(=O)[N-]c2ccc(Cn3cc(CC)c(=O)[n-]c3=O)cc2)cc1 (protonated)
CCCCCCCCCCc1ccc(C(=O)[N-]c2ccc(Cn3cc(CC)c(=O)[n-]c3=O)cc2)cc1 (3D coordinates assigned)
CCCCCCCCCCc1ccc(C(=O)[N-]c2ccc(Cn3cc(CC)c(=O)[n-]c3=O)cc2)cc1 (optimized conformer: 69.23847569233804 kcal/mol)

>  <smiles>  (90) 
CCCCCCCCCCc1ccc(C(=O)Nc2ccc(Cn3cc(CC)c(=O)[nH]c3=O)cc2)cc1

>  <score_type>  (90) 
oracle

>  <origin>  (90) 
adg

>  <m_score__min__energy>  (90) 
-11.92

>  <m_primary>  (90) 
energy

$$$$
90:0
     RDKit          3D

 53 56  0  0  0  0  0  0  0  0999 V2000
   57.8930   29.8290   44.4020 C   0  0  0  0  0  0  0  0  0  0  0  0
   58.2950   30.7920   45.4740 C   0  0  0  0  0  0  0  0  0  0  0  0
   59.5520   30.6940   46.0720 C   0  0  0  0  0  0  0  0  0  0  0  0
   59.9300   31.6130   47.0650 C   0  0  0  0  0  0  0  0  0  0  0  0
   61.2890   31.4670   47.7020 C   0  0  0  0  0  0  0  0  0  0  0  0
   59.0350   32.6560   47.4230 C   0  0  0  0  0  0  0  0  0  0  0  0
   59.3970   33.7070   48.4570 C   0  0  0  0  0  0  0  0  0  0  0  0
   59.7550   33.0990   49.7370 N   0  0  0  0  0  0  0  0  0  0  0  0
   58.9920   33.2020   50.9470 C   0  0  0  0  0  0  0  0  0  0  0  0
   59.1440   34.2110   51.6830 O   0  0  0  0  0  0  0  0  0  0  0  0
   58.0310   32.1630   51.3470 C   0  0  0  0  0  0  0  0  0  0  0  0
   56.9450   32.3570   52.1790 C   0  0  0  0  0  0  0  0  0  0  0  0
   56.3970   31.1000   52.2910 C   0  0  0  0  0  0  0  0  0  0  0  0
   55.3890   30.8010   53.0540 N   0  0  0  0  0  0  0  0  0  0  0  0
   54.1800   30.1700   52.6090 C   0  0  0  0  0  0  0  0  0  0  0  0
   54.0980   28.9150   52.6610 O   0  0  0  0  0  0  0  0  0  0  0  0
   53.0170   30.9500   52.1360 C   0  0  0  0  0  0  0  0  0  0  0  0
   51.8950   31.3050   52.8640 C   0  0  0  0  0  0  0  0  0  0  0  0
   51.0270   31.9950   52.0980 N   0  0  0  0  0  0  0  0  0  0  0  0
   51.6080   32.0650   50.8850 C   0  0  0  0  0  0  0  0  0  0  0  0
   51.0260   32.7040   49.7980 O   0  0  0  0  0  0  0  0  0  0  0  0
   52.8310   31.4310   50.8570 C   0  0  0  0  0  0  0  0  0  0  0  0
   57.1040   30.2020   51.5740 N   0  0  0  0  0  0  0  0  0  0  0  0
   58.0840   30.8640   50.9760 N   0  0  0  0  0  0  0  0  0  0  0  0
   59.1160   30.2270   50.1500 C   0  0  0  0  0  0  0  0  0  0  0  0
   58.5250   29.3570   49.0470 C   0  0  0  0  0  0  0  0  0  0  0  0
   59.5940   28.3170   48.7470 C   0  0  0  0  0  0  0  0  0  0  0  0
   60.4690   28.2150   49.9970 C   0  0  0  0  0  0  0  0  0  0  0  0
   59.9840   29.2840   50.9720 C   0  0  0  0  0  0  0  0  0  0  0  0
   57.7600   32.6820   46.8140 C   0  0  0  0  0  0  0  0  0  0  0  0
   56.9090   33.5500   47.1390 O   0  0  0  0  0  0  0  0  0  0  0  0
   57.4360   31.7690   45.8620 N   0  0  0  0  0  0  0  0  0  0  0  0
   57.5082   28.9072   44.8627 H   0  0  0  0  0  0  0  0  0  0  0  0
   57.1088   30.2819   43.7776 H   0  0  0  0  0  0  0  0  0  0  0  0
   58.7664   29.5899   43.7776 H   0  0  0  0  0  0  0  0  0  0  0  0
   60.2464   29.8977   45.7660 H   0  0  0  0  0  0  0  0  0  0  0  0
   61.1839   31.4783   48.7969 H   0  0  0  0  0  0  0  0  0  0  0  0
   61.7413   30.5151   47.3869 H   0  0  0  0  0  0  0  0  0  0  0  0
   61.9332   32.3011   47.3869 H   0  0  0  0  0  0  0  0  0  0  0  0
   60.2522   34.2920   48.0876 H   0  0  0  0  0  0  0  0  0  0  0  0
   58.5200   34.3519   48.6148 H   0  0  0  0  0  0  0  0  0  0  0  0
   56.6005   33.2936   52.6417 H   0  0  0  0  0  0  0  0  0  0  0  0
   51.7336   31.0577   53.9236 H   0  0  0  0  0  0  0  0  0  0  0  0
   53.5123   31.3302   49.9992 H   0  0  0  0  0  0  0  0  0  0  0  0
   59.6930   31.0642   49.7302 H   0  0  0  0  0  0  0  0  0  0  0  0
   57.6000   28.8717   49.3918 H   0  0  0  0  0  0  0  0  0  0  0  0
   58.2602   29.9448   48.1557 H   0  0  0  0  0  0  0  0  0  0  0  0
   59.1272   27.3448   48.5304 H   0  0  0  0  0  0  0  0  0  0  0  0
   60.1903   28.6038   47.8683 H   0  0  0  0  0  0  0  0  0  0  0  0
   60.3665   27.2174   50.4491 H   0  0  0  0  0  0  0  0  0  0  0  0
   61.5294   28.3656   49.7463 H   0  0  0  0  0  0  0  0  0  0  0  0
   59.3947   28.8269   51.7805 H   0  0  0  0  0  0  0  0  0  0  0  0
   60.8241   29.8136   51.4451 H   0  0  0  0  0  0  0  0  0  0  0  0
  1  2  1  0
  2  3  2  0
  3  4  1  0
  4  5  1  0
  4  6  2  0
  6  7  1  0
  7  8  1  0
  8  9  1  0
  9 10  2  0
  9 11  1  0
 11 12  2  0
 12 13  1  0
 13 14  2  3
 14 15  1  0
 15 16  2  0
 15 17  1  0
 17 18  2  0
 18 19  1  0
 19 20  1  0
 20 21  1  0
 20 22  2  0
 13 23  1  0
 23 24  1  0
 24 25  1  0
 25 26  1  0
 26 27  1  0
 27 28  1  0
 28 29  1  0
  6 30  1  0
 30 31  2  0
 30 32  1  0
 32  2  1  0
 24 11  1  0
 29 25  1  0
 22 17  1  0
  1 33  1  0
  1 34  1  0
  1 35  1  0
  3 36  1  0
  5 37  1  0
  5 38  1  0
  5 39  1  0
  7 40  1  0
  7 41  1  0
 12 42  1  0
 18 43  1  0
 22 44  1  0
 25 45  1  0
 26 46  1  0
 26 47  1  0
 27 48  1  0
 27 49  1  0
 28 50  1  0
 28 51  1  0
 29 52  1  0
 29 53  1  0
M  CHG  5   8  -1  19  -1  21  -1  23  -1  32  -1
M  END
>  <UniqueID>  (91) 
82

>  <SMILES>  (91) 
Cc1cc(C)c(C[N-]C(=O)c2cc(=NC(=O)c3c[n-]c([O-])c3)[n-]n2C2CCCC2)c(=O)[n-]1

>  <Energy>  (91) 
122.1175344056486

>  <Genealogy>  (91) 
Cc1cc(C)c(C[N-]C(=O)c2cc(=NC(=O)c3c[n-]c([O-])c3)[n-]n2C2CCCC2)c(=O)[n-]1 (protonated)
Cc1cc(C)c(C[N-]C(=O)c2cc(=NC(=O)c3c[n-]c([O-])c3)[n-]n2C2CCCC2)c(=O)[n-]1 (3D coordinates assigned)
Cc1cc(C)c(C[N-]C(=O)c2cc(=NC(=O)c3c[n-]c([O-])c3)[n-]n2C2CCCC2)c(=O)[n-]1 (nonaromatic ring conformer: 122.1175344056486 kcal/mol)

>  <smiles>  (91) 
Cc1cc(C)c(CNC(=O)c2cc(=NC(=O)c3c[nH]c(O)c3)[nH]n2C2CCCC2)c(=O)[nH]1

>  <score_type>  (91) 
oracle

>  <origin>  (91) 
adg

>  <m_score__min__energy>  (91) 
-18.98

>  <m_primary>  (91) 
energy

$$$$
91:0
     RDKit          3D

 30 32  0  0  0  0  0  0  0  0999 V2000
   58.2690   33.9550   45.3420 O   0  0  0  0  0  0  0  0  0  0  0  0
   58.7450   32.8800   45.7970 C   0  0  0  0  0  0  0  0  0  0  0  0
   58.6770   31.6620   45.0370 N   0  0  0  0  0  0  0  0  0  0  0  0
   57.7340   30.7610   45.0000 C   0  0  0  0  0  0  0  0  0  0  0  0
   57.8300   29.5080   45.6420 C   0  0  0  0  0  0  0  0  0  0  0  0
   56.7650   28.6060   45.5570 C   0  0  0  0  0  0  0  0  0  0  0  0
   55.6410   28.9370   44.8710 N   0  0  0  0  0  0  0  0  0  0  0  0
   55.5120   30.1420   44.2560 C   0  0  0  0  0  0  0  0  0  0  0  0
   56.5500   31.0730   44.3170 C   0  0  0  0  0  0  0  0  0  0  0  0
   59.3610   32.8550   47.1440 C   0  0  0  0  0  0  0  0  0  0  0  0
   58.5410   32.5090   48.2270 C   0  0  0  0  0  0  0  0  0  0  0  0
   59.0800   32.4000   49.5090 C   0  0  0  0  0  0  0  0  0  0  0  0
   58.0430   31.9440   50.8500 Cl  0  0  0  0  0  0  0  0  0  0  0  0
   60.4010   32.6310   49.7200 N   0  0  0  0  0  0  0  0  0  0  0  0
   61.2350   32.9980   48.7040 C   0  0  0  0  0  0  0  0  0  0  0  0
   62.5900   33.2540   48.9690 C   0  0  0  0  0  0  0  0  0  0  0  0
   63.4430   33.6630   47.9450 C   0  0  0  0  0  0  0  0  0  0  0  0
   62.9530   33.8330   46.6510 C   0  0  0  0  0  0  0  0  0  0  0  0
   61.6080   33.5790   46.3680 C   0  0  0  0  0  0  0  0  0  0  0  0
   60.7320   33.1330   47.3810 C   0  0  0  0  0  0  0  0  0  0  0  0
   58.7366   29.2427   46.2056 H   0  0  0  0  0  0  0  0  0  0  0  0
   56.8381   27.6243   46.0479 H   0  0  0  0  0  0  0  0  0  0  0  0
   54.5885   30.3838   43.7095 H   0  0  0  0  0  0  0  0  0  0  0  0
   56.4391   32.0524   43.8288 H   0  0  0  0  0  0  0  0  0  0  0  0
   57.4690   32.3228   48.0654 H   0  0  0  0  0  0  0  0  0  0  0  0
   60.7750   32.5350   50.6920 H   0  0  0  0  0  0  0  0  0  0  0  0
   62.9805   33.1312   49.9900 H   0  0  0  0  0  0  0  0  0  0  0  0
   64.5054   33.8521   48.1586 H   0  0  0  0  0  0  0  0  0  0  0  0
   63.6276   34.1684   45.8495 H   0  0  0  0  0  0  0  0  0  0  0  0
   61.2286   33.7281   45.3463 H   0  0  0  0  0  0  0  0  0  0  0  0
  1  2  2  0
  2  3  1  0
  3  4  2  3
  4  5  1  0
  5  6  2  0
  6  7  1  0
  7  8  1  0
  8  9  2  0
  2 10  1  0
 10 11  2  0
 11 12  1  0
 12 13  1  0
 12 14  2  0
 14 15  1  0
 15 16  2  0
 16 17  1  0
 17 18  2  0
 18 19  1  0
 19 20  2  0
  9  4  1  0
 20 10  1  0
 20 15  1  0
  5 21  1  0
  6 22  1  0
  8 23  1  0
  9 24  1  0
 11 25  1  0
 14 26  1  0
 16 27  1  0
 17 28  1  0
 18 29  1  0
 19 30  1  0
M  CHG  2   7  -1  14   1
M  END
>  <UniqueID>  (92) 
83

>  <SMILES>  (92) 
O=C(N=c1cc[n-]cc1)c1cc(Cl)[nH+]c2ccccc12

>  <Energy>  (92) 
51.67785554733822

>  <Genealogy>  (92) 
O=C(N=c1cc[n-]cc1)c1cc(Cl)[nH+]c2ccccc12 (protonated)
O=C(N=c1cc[n-]cc1)c1cc(Cl)[nH+]c2ccccc12 (3D coordinates assigned)
O=C(N=c1cc[n-]cc1)c1cc(Cl)[nH+]c2ccccc12 (optimized conformer: 51.67785554733822 kcal/mol)

>  <smiles>  (92) 
O=C(N=c1cc[nH]cc1)c1cc(Cl)nc2ccccc12

>  <score_type>  (92) 
oracle

>  <origin>  (92) 
adg

>  <m_score__min__energy>  (92) 
-7.5599999999999996

>  <m_primary>  (92) 
energy

$$$$
92:0
     RDKit          3D

 44 46  0  0  0  0  0  0  0  0999 V2000
   57.0420   28.9110   43.0550 N   0  0  0  0  0  0  0  0  0  0  0  0
   56.6380   29.3920   44.6670 S   0  0  0  0  0  0  0  0  0  0  0  0
   57.0900   30.8100   44.8780 O   0  0  0  0  0  0  0  0  0  0  0  0
   55.1500   29.3300   44.8690 O   0  0  0  0  0  0  0  0  0  0  0  0
   57.4530   28.3600   45.8340 C   0  0  0  0  0  0  0  0  0  0  0  0
   58.5380   28.7380   46.4700 O   0  0  0  0  0  0  0  0  0  0  0  0
   58.9180   27.7700   47.2730 C   0  0  0  0  0  0  0  0  0  0  0  0
   60.1060   27.8540   48.1390 C   0  0  0  0  0  0  0  0  0  0  0  0
   61.1280   27.1860   47.8380 O   0  0  0  0  0  0  0  0  0  0  0  0
   60.1210   28.6350   49.3420 N   0  0  0  0  0  0  0  0  0  0  0  0
   59.6270   29.9730   49.4900 C   0  0  0  0  0  0  0  0  0  0  0  0
   58.6130   30.2250   50.4200 C   0  0  0  0  0  0  0  0  0  0  0  0
   58.1190   31.5210   50.5920 C   0  0  0  0  0  0  0  0  0  0  0  0
   58.6440   32.5770   49.8450 C   0  0  0  0  0  0  0  0  0  0  0  0
   59.6800   32.3450   48.9300 C   0  0  0  0  0  0  0  0  0  0  0  0
   60.3610   33.6790   47.9960 S   0  0  0  0  0  0  0  0  0  0  0  0
   61.1920   34.5420   48.9040 O   0  0  0  0  0  0  0  0  0  0  0  0
   61.2660   33.1240   46.9320 O   0  0  0  0  0  0  0  0  0  0  0  0
   59.1180   34.6560   47.2420 N   0  0  0  0  0  0  0  0  0  0  0  0
   59.6290   35.3280   46.0420 C   0  0  0  0  0  0  0  0  0  0  0  0
   59.2240   34.5060   44.8270 C   0  0  0  0  0  0  0  0  0  0  0  0
   58.1430   33.5610   45.3100 C   0  0  0  0  0  0  0  0  0  0  0  0
   57.9880   33.8310   46.8000 C   0  0  0  0  0  0  0  0  0  0  0  0
   60.1750   31.0440   48.7600 C   0  0  0  0  0  0  0  0  0  0  0  0
   58.0570   26.6940   47.1540 C   0  0  0  0  0  0  0  0  0  0  0  0
   57.1030   27.0740   46.2300 C   0  0  0  0  0  0  0  0  0  0  0  0
   55.9680   26.2370   45.7930 C   0  0  0  0  0  0  0  0  0  0  0  0
   54.7880   26.6270   45.9970 O   0  0  0  0  0  0  0  0  0  0  0  0
   56.1750   25.0230   45.1550 O   0  0  0  0  0  0  0  0  0  0  0  0
   56.9370   27.8740   43.0020 H   0  0  0  0  0  0  0  0  0  0  0  0
   58.0590   29.1130   42.9230 H   0  0  0  0  0  0  0  0  0  0  0  0
   58.2023   29.3989   51.0190 H   0  0  0  0  0  0  0  0  0  0  0  0
   57.3143   31.7095   51.3179 H   0  0  0  0  0  0  0  0  0  0  0  0
   58.2437   33.5933   49.9748 H   0  0  0  0  0  0  0  0  0  0  0  0
   59.1983   36.3375   45.9688 H   0  0  0  0  0  0  0  0  0  0  0  0
   60.7243   35.4155   46.0932 H   0  0  0  0  0  0  0  0  0  0  0  0
   58.8339   35.1610   44.0340 H   0  0  0  0  0  0  0  0  0  0  0  0
   60.0800   33.9598   44.4040 H   0  0  0  0  0  0  0  0  0  0  0  0
   57.1975   33.7607   44.7846 H   0  0  0  0  0  0  0  0  0  0  0  0
   58.4077   32.5112   45.1152 H   0  0  0  0  0  0  0  0  0  0  0  0
   57.0440   34.3647   46.9845 H   0  0  0  0  0  0  0  0  0  0  0  0
   57.9730   32.8821   47.3561 H   0  0  0  0  0  0  0  0  0  0  0  0
   60.9964   30.8596   48.0519 H   0  0  0  0  0  0  0  0  0  0  0  0
   58.1192   25.7331   47.6859 H   0  0  0  0  0  0  0  0  0  0  0  0
  1  2  1  0
  2  3  2  0
  2  4  2  0
  2  5  1  0
  5  6  1  0
  6  7  1  0
  7  8  1  0
  8  9  2  0
  8 10  1  0
 10 11  1  0
 11 12  2  0
 12 13  1  0
 13 14  2  0
 14 15  1  0
 15 16  1  0
 16 17  2  0
 16 18  2  0
 16 19  1  0
 19 20  1  0
 20 21  1  0
 21 22  1  0
 22 23  1  0
 15 24  2  0
  7 25  2  0
 25 26  1  0
 26 27  1  0
 27 28  2  0
 27 29  1  0
 26  5  2  0
 24 11  1  0
 23 19  1  0
  1 30  1  0
  1 31  1  0
 12 32  1  0
 13 33  1  0
 14 34  1  0
 20 35  1  0
 20 36  1  0
 21 37  1  0
 21 38  1  0
 22 39  1  0
 22 40  1  0
 23 41  1  0
 23 42  1  0
 24 43  1  0
 25 44  1  0
M  CHG  2  10  -1  29  -1
M  END
>  <UniqueID>  (93) 
84

>  <SMILES>  (93) 
NS(=O)(=O)c1oc(C(=O)[N-]c2cccc(S(=O)(=O)N3CCCC3)c2)cc1C(=O)[O-]

>  <Energy>  (93) 
75.46310567573134

>  <Genealogy>  (93) 
NS(=O)(=O)c1oc(C(=O)[N-]c2cccc(S(=O)(=O)N3CCCC3)c2)cc1C(=O)[O-] (protonated)
NS(=O)(=O)c1oc(C(=O)[N-]c2cccc(S(=O)(=O)N3CCCC3)c2)cc1C(=O)[O-] (3D coordinates assigned)
NS(=O)(=O)c1oc(C(=O)[N-]c2cccc(S(=O)(=O)N3CCCC3)c2)cc1C(=O)[O-] (nonaromatic ring conformer: 75.46310567573134 kcal/mol)

>  <smiles>  (93) 
NS(=O)(=O)c1oc(C(=O)Nc2cccc(S(=O)(=O)N3CCCC3)c2)cc1C(=O)O

>  <score_type>  (93) 
oracle

>  <origin>  (93) 
adg

>  <m_score__min__energy>  (93) 
-13.01

>  <m_primary>  (93) 
energy

$$$$
93:0
     RDKit          3D

 55 59  0  0  1  0  0  0  0  0999 V2000
   67.4030   29.7410   52.0570 C   0  0  0  0  0  0  0  0  0  0  0  0
   67.1030   31.0320   51.3840 C   0  0  0  0  0  0  0  0  0  0  0  0
   67.9710   32.0800   51.4830 C   0  0  0  0  0  0  0  0  0  0  0  0
   67.6660   33.2490   50.8540 C   0  0  0  0  0  0  0  0  0  0  0  0
   68.5910   34.3890   50.9510 C   0  0  0  0  0  0  0  0  0  0  0  0
   66.5110   33.4070   50.1230 C   0  0  0  0  0  0  0  0  0  0  0  0
   65.6030   32.3560   50.0020 C   0  0  0  0  0  0  0  0  0  0  0  0
   64.4460   32.5910   49.2400 N   0  0  0  0  0  0  0  0  0  0  0  0
   63.2580   33.2040   49.6940 C   0  0  0  0  0  0  0  0  0  0  0  0
   63.0990   33.6180   50.8620 O   0  0  0  0  0  0  0  0  0  0  0  0
   62.1100   33.3900   48.7820 C   0  0  0  0  0  0  0  0  0  0  0  0
   61.1510   34.3700   48.9290 C   0  0  0  0  0  0  0  0  0  0  0  0
   60.2510   34.2120   47.8770 C   0  0  0  0  0  0  0  0  0  0  0  0
   59.1140   34.8760   47.5020 C   0  0  0  0  0  0  0  0  0  0  0  0
   58.4430   34.4520   46.3810 C   0  0  0  0  0  0  0  0  0  0  0  0
   58.8660   33.3780   45.6080 C   0  0  0  0  0  0  0  0  0  0  0  0
   58.0840   33.0360   44.4690 N   0  0  0  0  0  0  0  0  0  0  0  0
   57.7030   31.8390   44.1900 C   0  0  0  0  0  0  0  0  0  0  0  0
   57.9830   30.8510   45.0610 N   0  0  0  0  0  0  0  0  0  0  0  0
   57.6050   29.5620   44.8180 C   0  0  0  0  0  0  0  0  0  0  0  0
   57.9090   28.4930   45.7610 C   0  0  0  0  0  0  0  0  0  0  0  0
   58.9850   28.5180   46.6210 C   0  0  0  0  0  0  0  0  0  0  0  0
   59.1860   27.4490   47.4810 C   0  0  0  0  0  0  0  0  0  0  0  0
   58.3020   26.3910   47.4500 C   0  0  0  0  0  0  0  0  0  0  0  0
   57.2520   26.3530   46.6200 N   0  0  0  0  0  0  0  0  0  0  0  0
   57.0710   27.3980   45.7930 C   0  0  0  0  0  0  0  0  0  0  0  0
   56.9270   29.3590   43.6350 C   0  0  0  0  0  0  0  0  0  0  0  0
   56.6420   30.3790   42.7450 C   0  0  0  0  0  0  0  0  0  0  0  0
   57.0390   31.6190   43.0400 N   0  0  0  0  0  0  0  0  0  0  0  0
   59.9970   32.7270   45.9910 C   0  0  0  0  0  0  0  0  0  0  0  0
   60.6970   33.1300   47.1190 C   0  0  0  0  0  0  0  0  0  0  0  0
   61.8290   32.6470   47.6870 N   0  0  0  0  0  0  0  0  0  0  0  0
   65.9320   31.1970   50.6400 C   0  0  0  0  0  0  0  0  0  0  0  0
   67.3707   29.8799   53.1477 H   0  0  0  0  0  0  0  0  0  0  0  0
   66.6553   28.9906   51.7607 H   0  0  0  0  0  0  0  0  0  0  0  0
   68.4050   29.3972   51.7607 H   0  0  0  0  0  0  0  0  0  0  0  0
   68.9017   31.9825   52.0612 H   0  0  0  0  0  0  0  0  0  0  0  0
   68.7784   34.6200   52.0100 H   0  0  0  0  0  0  0  0  0  0  0  0
   69.5405   34.1338   50.4578 H   0  0  0  0  0  0  0  0  0  0  0  0
   68.1456   35.2656   50.4578 H   0  0  0  0  0  0  0  0  0  0  0  0
   66.3028   34.3686   49.6310 H   0  0  0  0  0  0  0  0  0  0  0  0
   64.4340   32.2900   48.2210 H   0  0  0  0  0  0  0  0  0  0  0  0
   61.1053   35.1297   49.7233 H   0  0  0  0  0  0  0  0  0  0  0  0
   58.7453   35.7317   48.0866 H   0  0  0  0  0  0  0  0  0  0  0  0
   57.5296   34.9869   46.0819 H   0  0  0  0  0  0  0  0  0  0  0  0
   59.6753   29.3744   46.6254 H   0  0  0  0  0  0  0  0  0  0  0  0
   60.0376   27.4450   48.1773 H   0  0  0  0  0  0  0  0  0  0  0  0
   58.4659   25.5452   48.1339 H   0  0  0  0  0  0  0  0  0  0  0  0
   56.2110   27.3784   45.1074 H   0  0  0  0  0  0  0  0  0  0  0  0
   56.5975   28.3391   43.3874 H   0  0  0  0  0  0  0  0  0  0  0  0
   56.0983   30.1721   41.8114 H   0  0  0  0  0  0  0  0  0  0  0  0
   56.8330   32.4020   42.3810 H   0  0  0  0  0  0  0  0  0  0  0  0
   60.3602   31.8728   45.4008 H   0  0  0  0  0  0  0  0  0  0  0  0
   62.3850   31.8410   47.3400 H   0  0  0  0  0  0  0  0  0  0  0  0
   65.2385   30.3464   50.5650 H   0  0  0  0  0  0  0  0  0  0  0  0
  1  2  1  0
  2  3  2  0
  3  4  1  0
  4  5  1  0
  4  6  2  0
  6  7  1  0
  7  8  1  0
  8  9  1  0
  9 10  2  0
  9 11  1  0
 11 12  2  0
 12 13  1  0
 13 14  2  0
 14 15  1  0
 15 16  2  0
 16 17  1  0
 17 18  2  0
 18 19  1  0
 19 20  2  0
 20 21  1  0
 21 22  2  0
 22 23  1  0
 23 24  2  0
 24 25  1  0
 25 26  2  0
 20 27  1  0
 27 28  2  0
 28 29  1  0
 16 30  1  0
 30 31  2  0
 31 32  1  0
  7 33  2  0
 33  2  1  0
 32 11  1  0
 31 13  1  0
 29 18  1  0
 26 21  1  0
  1 34  1  0
  1 35  1  0
  1 36  1  0
  3 37  1  0
  5 38  1  0
  5 39  1  0
  5 40  1  0
  6 41  1  0
  8 42  1  0
 12 43  1  0
 14 44  1  0
 15 45  1  0
 22 46  1  0
 23 47  1  0
 24 48  1  0
 26 49  1  0
 27 50  1  0
 28 51  1  0
 29 52  1  0
 30 53  1  0
 32 54  1  0
 33 55  1  0
M  END
>  <smiles>  (94) 
Cc1cc(C)cc(NC(=O)c2cc3ccc(N=c4nc(-c5cccnc5)cc[nH]4)cc3[nH]2)c1

>  <score_type>  (94) 
oracle

>  <origin>  (94) 
adg

>  <m_score__min__energy>  (94) 
-9.5199999999999996

>  <m_primary>  (94) 
energy

$$$$
94:0
     RDKit          3D

 53 56  0  0  0  0  0  0  0  0999 V2000
   55.3950   29.7140   43.9610 C   0  0  0  0  0  0  0  0  0  0  0  0
   56.0700   30.8590   44.4270 O   0  0  0  0  0  0  0  0  0  0  0  0
   57.0450   31.2430   43.4810 C   0  0  0  0  0  0  0  0  0  0  0  0
   58.4240   31.2550   44.1390 C   0  0  0  0  0  0  0  0  0  0  0  0
   58.3180   31.5680   45.5660 N   0  0  0  0  0  0  0  0  0  0  0  0
   58.6230   30.7820   46.6230 C   0  0  0  0  0  0  0  0  0  0  0  0
   59.0230   29.3700   46.5330 C   0  0  0  0  0  0  0  0  0  0  0  0
   58.3620   28.5380   45.6190 C   0  0  0  0  0  0  0  0  0  0  0  0
   58.7140   27.1910   45.5100 C   0  0  0  0  0  0  0  0  0  0  0  0
   59.7310   26.6670   46.3110 C   0  0  0  0  0  0  0  0  0  0  0  0
   60.4060   27.4910   47.2150 C   0  0  0  0  0  0  0  0  0  0  0  0
   60.0660   28.8490   47.3330 C   0  0  0  0  0  0  0  0  0  0  0  0
   60.8440   29.7330   48.2730 C   0  0  0  0  0  0  0  0  0  0  0  0
   58.4960   31.4420   47.7930 N   0  0  0  0  0  0  0  0  0  0  0  0
   58.1060   32.6680   47.4790 N   0  0  0  0  0  0  0  0  0  0  0  0
   57.9980   32.7430   46.1430 C   0  0  0  0  0  0  0  0  0  0  0  0
   57.4690   34.2190   45.2650 S   0  0  0  0  0  0  0  0  0  0  0  0
   59.1640   34.8600   45.0330 C   0  0  0  0  0  0  0  0  0  0  0  0
   60.0180   34.5330   46.2150 C   0  0  0  0  0  0  0  0  0  0  0  0
   59.5340   34.7250   47.4790 N   0  0  0  0  0  0  0  0  0  0  0  0
   60.2640   34.3980   48.5830 C   0  0  0  0  0  0  0  0  0  0  0  0
   59.7780   34.5860   49.7290 O   0  0  0  0  0  0  0  0  0  0  0  0
   61.5430   33.8490   48.4090 C   0  0  0  0  0  0  0  0  0  0  0  0
   62.4770   33.4380   49.3830 C   0  0  0  0  0  0  0  0  0  0  0  0
   62.2450   33.5330   50.8660 C   0  0  0  0  0  0  0  0  0  0  0  0
   63.6510   32.9290   48.8020 C   0  0  0  0  0  0  0  0  0  0  0  0
   64.8480   32.4040   49.5310 C   0  0  0  0  0  0  0  0  0  0  0  0
   63.5280   32.9930   47.1150 S   0  0  0  0  0  0  0  0  0  0  0  0
   61.9950   33.6610   47.1160 C   0  0  0  0  0  0  0  0  0  0  0  0
   61.2550   33.9880   46.0310 N   0  0  0  0  0  0  0  0  0  0  0  0
   55.0450   29.1203   44.8184 H   0  0  0  0  0  0  0  0  0  0  0  0
   54.5327   30.0198   43.3503 H   0  0  0  0  0  0  0  0  0  0  0  0
   56.0801   29.1076   43.3503 H   0  0  0  0  0  0  0  0  0  0  0  0
   57.0449   30.5281   42.6450 H   0  0  0  0  0  0  0  0  0  0  0  0
   56.8116   32.2503   43.1055 H   0  0  0  0  0  0  0  0  0  0  0  0
   58.8884   30.2649   44.0207 H   0  0  0  0  0  0  0  0  0  0  0  0
   59.0389   32.0274   43.6539 H   0  0  0  0  0  0  0  0  0  0  0  0
   57.5623   28.9479   44.9846 H   0  0  0  0  0  0  0  0  0  0  0  0
   58.1899   26.5423   44.7928 H   0  0  0  0  0  0  0  0  0  0  0  0
   60.0010   25.6037   46.2300 H   0  0  0  0  0  0  0  0  0  0  0  0
   61.2098   27.0733   47.8391 H   0  0  0  0  0  0  0  0  0  0  0  0
   60.6059   29.4624   49.3123 H   0  0  0  0  0  0  0  0  0  0  0  0
   61.9213   29.5976   48.0965 H   0  0  0  0  0  0  0  0  0  0  0  0
   60.5728   30.7843   48.0965 H   0  0  0  0  0  0  0  0  0  0  0  0
   57.9150   33.4270   48.1690 H   0  0  0  0  0  0  0  0  0  0  0  0
   59.6026   34.4040   44.1332 H   0  0  0  0  0  0  0  0  0  0  0  0
   59.1169   35.9534   44.9220 H   0  0  0  0  0  0  0  0  0  0  0  0
   63.1348   33.1687   51.4004 H   0  0  0  0  0  0  0  0  0  0  0  0
   62.0556   34.5811   51.1411 H   0  0  0  0  0  0  0  0  0  0  0  0
   61.3749   32.9188   51.1411 H   0  0  0  0  0  0  0  0  0  0  0  0
   64.6786   32.4783   50.6153 H   0  0  0  0  0  0  0  0  0  0  0  0
   65.0118   31.3514   49.2567 H   0  0  0  0  0  0  0  0  0  0  0  0
   65.7333   32.9964   49.2567 H   0  0  0  0  0  0  0  0  0  0  0  0
  1  2  1  0
  2  3  1  0
  3  4  1  0
  4  5  1  0
  5  6  1  0
  6  7  1  0
  7  8  2  0
  8  9  1  0
  9 10  2  0
 10 11  1  0
 11 12  2  0
 12 13  1  0
  6 14  2  0
 14 15  1  0
 15 16  2  0
 16 17  1  0
 17 18  1  0
 18 19  1  0
 19 20  2  0
 20 21  1  0
 21 22  2  0
 21 23  1  0
 23 24  1  0
 24 25  1  0
 24 26  2  0
 26 27  1  0
 26 28  1  0
 28 29  1  0
 29 30  1  0
 16  5  1  0
 30 19  1  0
 12  7  1  0
 29 23  2  0
  1 31  1  0
  1 32  1  0
  1 33  1  0
  3 34  1  0
  3 35  1  0
  4 36  1  0
  4 37  1  0
  8 38  1  0
  9 39  1  0
 10 40  1  0
 11 41  1  0
 13 42  1  0
 13 43  1  0
 13 44  1  0
 15 45  1  0
 18 46  1  0
 18 47  1  0
 25 48  1  0
 25 49  1  0
 25 50  1  0
 27 51  1  0
 27 52  1  0
 27 53  1  0
M  CHG  2  15   1  30  -1
M  END
>  <UniqueID>  (95) 
85

>  <SMILES>  (95) 
COCCn1c(-c2ccccc2C)n[nH+]c1SCc1nc(=O)c2c(C)c(C)sc2[n-]1

>  <Energy>  (95) 
123.86617755854115

>  <Genealogy>  (95) 
COCCn1c(-c2ccccc2C)n[nH+]c1SCc1nc(=O)c2c(C)c(C)sc2[n-]1 (protonated)
COCCn1c(-c2ccccc2C)n[nH+]c1SCc1nc(=O)c2c(C)c(C)sc2[n-]1 (3D coordinates assigned)
COCCn1c(-c2ccccc2C)n[nH+]c1SCc1nc(=O)c2c(C)c(C)sc2[n-]1 (optimized conformer: 123.86617755854115 kcal/mol)

>  <smiles>  (95) 
COCCn1c(SCc2nc(=O)c3c(C)c(C)sc3[nH]2)nnc1-c1ccccc1C

>  <score_type>  (95) 
oracle

>  <origin>  (95) 
adg

>  <m_score__min__energy>  (95) 
-9.4100000000000001

>  <m_primary>  (95) 
energy

$$$$
95:0
     RDKit          3D

 34 36  0  0  0  0  0  0  0  0999 V2000
   62.1440   31.0560   48.6750 H   0  0  0  0  0  0  0  0  0  0  0  0
   62.4070   31.3370   47.7040 N   0  0  0  0  0  0  0  0  0  0  0  0
   61.4780   32.7410   47.3170 S   0  0  0  0  0  0  0  0  0  0  0  0
   62.2810   33.6450   46.4240 O   0  0  0  0  0  0  0  0  0  0  0  0
   61.1460   33.4830   48.5810 O   0  0  0  0  0  0  0  0  0  0  0  0
   59.9960   32.2590   46.4990 C   0  0  0  0  0  0  0  0  0  0  0  0
   59.3220   33.1770   45.6560 C   0  0  0  0  0  0  0  0  0  0  0  0
   59.7245   34.1921   45.5236 H   0  0  0  0  0  0  0  0  0  0  0  0
   58.1430   32.8020   44.9870 C   0  0  0  0  0  0  0  0  0  0  0  0
   57.6120   33.5120   44.3359 H   0  0  0  0  0  0  0  0  0  0  0  0
   57.6670   31.5070   45.1720 C   0  0  0  0  0  0  0  0  0  0  0  0
   56.5480   30.9760   44.6360 N   0  0  0  0  0  0  0  0  0  0  0  0
   56.5100   29.7140   45.1270 C   0  0  0  0  0  0  0  0  0  0  0  0
   55.4600   28.8380   44.8660 O   0  0  0  0  0  0  0  0  0  0  0  0
   55.1320   28.1820   45.5640 H   0  0  0  0  0  0  0  0  0  0  0  0
   57.6110   29.4460   45.9350 C   0  0  0  0  0  0  0  0  0  0  0  0
   57.8590   28.2720   46.7190 N   0  0  0  0  0  0  0  0  0  0  0  0
   58.0690   27.1000   46.2510 N   0  0  0  0  0  0  0  0  0  0  0  0
   57.5130   26.5590   45.0370 C   0  0  0  0  0  0  0  0  0  0  0  0
   57.8460   27.0420   43.9210 O   0  0  0  0  0  0  0  0  0  0  0  0
   56.5940   25.3920   45.1030 C   0  0  0  0  0  0  0  0  0  0  0  0
   57.0280   24.1340   44.6370 C   0  0  0  0  0  0  0  0  0  0  0  0
   58.0429   24.0263   44.2265 H   0  0  0  0  0  0  0  0  0  0  0  0
   56.1830   23.0230   44.6910 C   0  0  0  0  0  0  0  0  0  0  0  0
   56.5346   22.0485   44.3213 H   0  0  0  0  0  0  0  0  0  0  0  0
   54.8950   23.1450   45.2120 C   0  0  0  0  0  0  0  0  0  0  0  0
   54.0570   22.0370   45.2640 O   0  0  0  0  0  0  0  0  0  0  0  0
   54.4490   24.3810   45.6820 C   0  0  0  0  0  0  0  0  0  0  0  0
   53.4333   24.4746   46.0938 H   0  0  0  0  0  0  0  0  0  0  0  0
   55.2850   25.5020   45.6330 C   0  0  0  0  0  0  0  0  0  0  0  0
   54.8010   26.7130   46.1180 O   0  0  0  0  0  0  0  0  0  0  0  0
   58.3250   30.6140   45.9820 C   0  0  0  0  0  0  0  0  0  0  0  0
   59.4930   30.9520   46.6630 C   0  0  0  0  0  0  0  0  0  0  0  0
   60.0058   30.2229   47.3075 H   0  0  0  0  0  0  0  0  0  0  0  0
  1  2  1  0
  2  3  1  0
  3  4  2  0
  3  5  2  0
  3  6  1  0
  6  7  2  0
  7  8  1  0
  7  9  1  0
  9 10  1  0
  9 11  2  0
 11 12  1  0
 12 13  1  0
 13 14  1  0
 14 15  1  0
 13 16  2  0
 16 17  1  0
 17 18  2  0
 18 19  1  0
 19 20  2  0
 19 21  1  0
 21 22  2  0
 22 23  1  0
 22 24  1  0
 24 25  1  0
 24 26  2  0
 26 27  1  0
 26 28  1  0
 28 29  1  0
 28 30  2  0
 30 31  1  0
 16 32  1  0
 32 33  2  0
 33 34  1  0
 33  6  1  0
 32 11  1  0
 30 21  1  0
M  CHG  4   2  -1  12  -1  27  -1  31  -1
M  END
>  <UniqueID>  (96) 
86

>  <SMILES>  (96) 
[NH-]S(=O)(=O)c1ccc2[n-]c(O)c(/N=N\C(=O)c3ccc([O-])cc3[O-])c2c1

>  <Energy>  (96) 
84.46008558267576

>  <Genealogy>  (96) 
[NH-]S(=O)(=O)c1ccc2[n-]c(O)c(N=NC(=O)c3ccc([O-])cc3[O-])c2c1 (protonated)
[NH-]S(=O)(=O)c1ccc2[n-]c(O)c(/N=N\C(=O)c3ccc([O-])cc3[O-])c2c1 (cis-trans isomerization)
[NH-]S(=O)(=O)c1ccc2[n-]c(O)c(/N=N\C(=O)c3ccc([O-])cc3[O-])c2c1 (3D coordinates assigned)
[NH-]S(=O)(=O)c1ccc2[n-]c(O)c(/N=N\C(=O)c3ccc([O-])cc3[O-])c2c1 (optimized conformer: 84.46008558267576 kcal/mol)

>  <smiles>  (96) 
NS(=O)(=O)c1ccc2[nH]c(O)c(N=NC(=O)c3ccc(O)cc3O)c2c1

>  <score_type>  (96) 
oracle

>  <origin>  (96) 
adg

>  <m_score__min__energy>  (96) 
-16.260000000000002

>  <m_primary>  (96) 
energy

$$$$
96:0
     RDKit          3D

 23 25  0  0  0  0  0  0  0  0999 V2000
   57.3340   23.2530   47.9120 O   0  0  0  0  0  0  0  0  0  0  0  0
   57.3740   24.3830   47.3600 C   0  0  0  0  0  0  0  0  0  0  0  0
   58.5620   25.0010   47.1690 N   0  0  0  0  0  0  0  0  0  0  0  0
   58.6310   26.2190   46.5750 C   0  0  0  0  0  0  0  0  0  0  0  0
   57.4620   26.8770   46.1400 C   0  0  0  0  0  0  0  0  0  0  0  0
   57.5790   28.2230   45.4880 C   0  0  0  0  0  0  0  0  0  0  0  0
   57.1330   28.5540   44.2410 N   0  0  0  0  0  0  0  0  0  0  0  0
   57.3850   29.8530   43.9290 C   0  0  0  0  0  0  0  0  0  0  0  0
   57.0390   30.4650   42.7200 C   0  0  0  0  0  0  0  0  0  0  0  0
   57.3610   31.8210   42.5310 C   0  0  0  0  0  0  0  0  0  0  0  0
   58.0200   32.5450   43.5430 C   0  0  0  0  0  0  0  0  0  0  0  0
   58.3630   31.9210   44.7530 C   0  0  0  0  0  0  0  0  0  0  0  0
   58.0320   30.5790   44.9130 C   0  0  0  0  0  0  0  0  0  0  0  0
   58.3060   29.5760   46.2250 S   0  0  0  0  0  0  0  0  0  0  0  0
   56.2360   26.2000   46.3570 C   0  0  0  0  0  0  0  0  0  0  0  0
   55.1360   26.6980   46.0070 O   0  0  0  0  0  0  0  0  0  0  0  0
   56.2280   24.9810   46.9560 N   0  0  0  0  0  0  0  0  0  0  0  0
   59.6103   26.6988   46.4311 H   0  0  0  0  0  0  0  0  0  0  0  0
   56.6510   27.9200   43.5720 H   0  0  0  0  0  0  0  0  0  0  0  0
   56.5245   29.8963   41.9314 H   0  0  0  0  0  0  0  0  0  0  0  0
   57.0963   32.3191   41.5866 H   0  0  0  0  0  0  0  0  0  0  0  0
   58.2674   33.6051   43.3847 H   0  0  0  0  0  0  0  0  0  0  0  0
   58.8780   32.4764   45.5507 H   0  0  0  0  0  0  0  0  0  0  0  0
  1  2  2  0
  2  3  1  0
  3  4  1  0
  4  5  2  0
  5  6  1  0
  6  7  2  0
  7  8  1  0
  8  9  2  0
  9 10  1  0
 10 11  2  0
 11 12  1  0
 12 13  2  0
 13 14  1  0
  5 15  1  0
 15 16  2  0
 15 17  1  0
 17  2  1  0
 14  6  1  0
 13  8  1  0
  4 18  1  0
  7 19  1  0
  9 20  1  0
 10 21  1  0
 11 22  1  0
 12 23  1  0
M  CHG  3   3  -1   7   1  17  -1
M  END
>  <UniqueID>  (97) 
87

>  <SMILES>  (97) 
O=c1[n-]cc(-c2[nH+]c3ccccc3s2)c(=O)[n-]1

>  <Energy>  (97) 
67.70486815921454

>  <Genealogy>  (97) 
O=c1[n-]cc(-c2[nH+]c3ccccc3s2)c(=O)[n-]1 (protonated)
O=c1[n-]cc(-c2[nH+]c3ccccc3s2)c(=O)[n-]1 (3D coordinates assigned)
O=c1[n-]cc(-c2[nH+]c3ccccc3s2)c(=O)[n-]1 (optimized conformer: 67.70486815921454 kcal/mol)

>  <smiles>  (97) 
O=c1[nH]cc(-c2nc3ccccc3s2)c(=O)[nH]1

>  <score_type>  (97) 
oracle

>  <origin>  (97) 
adg

>  <m_score__min__energy>  (97) 
-9.3200000000000003

>  <m_primary>  (97) 
energy

$$$$
