0:0
     RDKit          3D

 57 60  0  0  0  0  0  0  0  0999 V2000
   56.2230   30.8650   52.3680 C   0  0  0  0  0  0  0  0  0  0  0  0
   57.0300   30.5600   51.2350 O   0  0  0  0  0  0  0  0  0  0  0  0
   58.3320   31.0440   51.0360 C   0  0  0  0  0  0  0  0  0  0  0  0
   59.4060   30.1860   51.3000 C   0  0  0  0  0  0  0  0  0  0  0  0
   60.7210   30.6170   51.1100 C   0  0  0  0  0  0  0  0  0  0  0  0
   60.9750   31.9130   50.6570 C   0  0  0  0  0  0  0  0  0  0  0  0
   59.9130   32.7920   50.3970 C   0  0  0  0  0  0  0  0  0  0  0  0
   60.1940   34.1800   49.8770 C   0  0  0  0  0  0  0  0  0  0  0  0
   60.2270   34.1970   48.3980 N   0  0  0  0  0  0  0  0  0  0  0  0
   60.7750   32.9260   47.8570 C   0  0  0  0  0  0  0  0  0  0  0  0
   60.3950   32.7080   46.3890 C   0  0  0  0  0  0  0  0  0  0  0  0
   58.9340   32.7100   46.2400 N   0  0  0  0  0  0  0  0  0  0  0  0
   58.3070   32.0150   45.1390 C   0  0  0  0  0  0  0  0  0  0  0  0
   57.9850   32.6970   43.9520 C   0  0  0  0  0  0  0  0  0  0  0  0
   57.3960   32.0190   42.8830 C   0  0  0  0  0  0  0  0  0  0  0  0
   57.1120   30.6570   42.9860 C   0  0  0  0  0  0  0  0  0  0  0  0
   57.4010   29.9600   44.1670 C   0  0  0  0  0  0  0  0  0  0  0  0
   57.1190   28.5530   44.2390 N   0  0  0  0  0  0  0  0  0  0  0  0
   58.0780   27.5610   44.6460 C   0  0  0  0  0  0  0  0  0  0  0  0
   59.2620   27.8950   44.9200 O   0  0  0  0  0  0  0  0  0  0  0  0
   57.7080   26.1380   44.7350 C   0  0  0  0  0  0  0  0  0  0  0  0
   57.3810   25.1750   43.3950 S   0  0  0  0  0  0  0  0  0  0  0  0
   57.0760   23.7550   44.2370 C   0  0  0  0  0  0  0  0  0  0  0  0
   57.2420   24.0110   45.5910 C   0  0  0  0  0  0  0  0  0  0  0  0
   57.6140   25.3350   45.8790 C   0  0  0  0  0  0  0  0  0  0  0  0
   57.9020   25.7890   47.2790 C   0  0  0  0  0  0  0  0  0  0  0  0
   58.0190   30.6390   45.2320 C   0  0  0  0  0  0  0  0  0  0  0  0
   58.1230   33.4060   47.2460 C   0  0  0  0  0  0  0  0  0  0  0  0
   58.9100   34.5880   47.8300 C   0  0  0  0  0  0  0  0  0  0  0  0
   58.5920   32.3520   50.5820 C   0  0  0  0  0  0  0  0  0  0  0  0
   56.7871   30.6518   53.2880 H   0  0  0  0  0  0  0  0  0  0  0  0
   55.9468   31.9295   52.3456 H   0  0  0  0  0  0  0  0  0  0  0  0
   55.3118   30.2492   52.3456 H   0  0  0  0  0  0  0  0  0  0  0  0
   59.2130   29.1646   51.6598 H   0  0  0  0  0  0  0  0  0  0  0  0
   61.5580   29.9341   51.3177 H   0  0  0  0  0  0  0  0  0  0  0  0
   62.0120   32.2462   50.5033 H   0  0  0  0  0  0  0  0  0  0  0  0
   59.4046   34.8615   50.2268 H   0  0  0  0  0  0  0  0  0  0  0  0
   61.1765   34.5020   50.2526 H   0  0  0  0  0  0  0  0  0  0  0  0
   61.8717   32.9503   47.9388 H   0  0  0  0  0  0  0  0  0  0  0  0
   60.3471   32.0986   48.4421 H   0  0  0  0  0  0  0  0  0  0  0  0
   60.8241   33.5161   45.7783 H   0  0  0  0  0  0  0  0  0  0  0  0
   60.7895   31.7368   46.0555 H   0  0  0  0  0  0  0  0  0  0  0  0
   58.1988   33.7725   43.8651 H   0  0  0  0  0  0  0  0  0  0  0  0
   57.1551   32.5606   41.9564 H   0  0  0  0  0  0  0  0  0  0  0  0
   56.6586   30.1271   42.1353 H   0  0  0  0  0  0  0  0  0  0  0  0
   56.1410   28.2520   44.0330 H   0  0  0  0  0  0  0  0  0  0  0  0
   56.7936   22.7892   43.7927 H   0  0  0  0  0  0  0  0  0  0  0  0
   57.0956   23.2466   46.3683 H   0  0  0  0  0  0  0  0  0  0  0  0
   57.4538   25.0825   47.9931 H   0  0  0  0  0  0  0  0  0  0  0  0
   58.9901   25.8277   47.4354 H   0  0  0  0  0  0  0  0  0  0  0  0
   57.4733   26.7899   47.4354 H   0  0  0  0  0  0  0  0  0  0  0  0
   58.2806   30.0895   46.1483 H   0  0  0  0  0  0  0  0  0  0  0  0
   57.2011   33.7790   46.7760 H   0  0  0  0  0  0  0  0  0  0  0  0
   57.8721   32.7046   48.0553 H   0  0  0  0  0  0  0  0  0  0  0  0
   59.0798   35.3234   47.0297 H   0  0  0  0  0  0  0  0  0  0  0  0
   58.3106   35.0018   48.6543 H   0  0  0  0  0  0  0  0  0  0  0  0
   57.7547   33.0335   50.3709 H   0  0  0  0  0  0  0  0  0  0  0  0
  1  2  1  0
  2  3  1  0
  3  4  2  0
  4  5  1  0
  5  6  2  0
  6  7  1  0
  7  8  1  0
  8  9  1  0
  9 10  1  0
 10 11  1  0
 11 12  1  0
 12 13  1  0
 13 14  2  0
 14 15  1  0
 15 16  2  0
 16 17  1  0
 17 18  1  0
 18 19  1  0
 19 20  2  0
 19 21  1  0
 21 22  1  0
 22 23  1  0
 23 24  2  0
 24 25  1  0
 25 26  1  0
 17 27  2  0
 12 28  1  0
 28 29  1  0
  7 30  2  0
 30  3  1  0
 29  9  1  0
 27 13  1  0
 25 21  2  0
  1 31  1  0
  1 32  1  0
  1 33  1  0
  4 34  1  0
  5 35  1  0
  6 36  1  0
  8 37  1  0
  8 38  1  0
 10 39  1  0
 10 40  1  0
 11 41  1  0
 11 42  1  0
 14 43  1  0
 15 44  1  0
 16 45  1  0
 18 46  1  0
 23 47  1  0
 24 48  1  0
 26 49  1  0
 26 50  1  0
 26 51  1  0
 27 52  1  0
 28 53  1  0
 28 54  1  0
 29 55  1  0
 29 56  1  0
 30 57  1  0
M  END
>  <UniqueID>  (1) 
1

>  <SMILES>  (1) 
COc1cccc(CN2CCN(c3cccc(NC(=O)c4sccc4C)c3)CC2)c1

>  <Energy>  (1) 
102.17335557502979

>  <Genealogy>  (1) 
COc1cccc(CN2CCN(c3cccc(NC(=O)c4sccc4C)c3)CC2)c1 (3D coordinates assigned)
COc1cccc(CN2CCN(c3cccc(NC(=O)c4sccc4C)c3)CC2)c1 (nonaromatic ring conformer: 102.17335557502979 kcal/mol)

>  <smiles>  (1) 
COc1cccc(CN2CCN(c3cccc(NC(=O)c4sccc4C)c3)CC2)c1

>  <score_type>  (1) 
oracle

>  <origin>  (1) 
adg

>  <m_score__min__energy>  (1) 
-8.6899999999999995

>  <m_primary>  (1) 
energy

$$$$
1:0
     RDKit          3D

 61 64  0  0  0  0  0  0  0  0999 V2000
   60.1730   30.2460   47.8600 N   0  0  0  0  0  0  0  0  0  0  0  0
   60.0510   29.8340   49.2250 C   0  0  0  0  0  0  0  0  0  0  0  0
   58.8250   29.9620   49.8920 C   0  0  0  0  0  0  0  0  0  0  0  0
   58.7090   29.5600   51.2250 C   0  0  0  0  0  0  0  0  0  0  0  0
   59.8170   29.0400   51.9020 C   0  0  0  0  0  0  0  0  0  0  0  0
   61.0610   28.9280   51.2530 C   0  0  0  0  0  0  0  0  0  0  0  0
   62.2710   28.3860   51.9860 C   0  0  0  0  0  0  0  0  0  0  0  0
   63.0980   29.4350   52.6330 N   0  0  0  0  0  0  0  0  0  0  0  0
   62.3690   30.4180   53.4710 C   0  0  0  0  0  0  0  0  0  0  0  0
   62.5960   31.8720   53.0250 C   0  0  0  0  0  0  0  0  0  0  0  0
   62.6640   31.9570   51.5530 N   0  0  0  0  0  0  0  0  0  0  0  0
   62.6630   33.3650   51.0880 C   0  0  0  0  0  0  0  0  0  0  0  0
   61.6860   33.5810   49.9550 C   0  0  0  0  0  0  0  0  0  0  0  0
   62.1530   33.9690   48.6890 C   0  0  0  0  0  0  0  0  0  0  0  0
   61.2670   34.1150   47.6210 C   0  0  0  0  0  0  0  0  0  0  0  0
   59.8910   33.8760   47.7980 C   0  0  0  0  0  0  0  0  0  0  0  0
   58.9370   34.0320   46.6720 C   0  0  0  0  0  0  0  0  0  0  0  0
   58.9100   35.1240   46.0340 O   0  0  0  0  0  0  0  0  0  0  0  0
   58.0420   32.9630   46.3080 N   0  0  0  0  0  0  0  0  0  0  0  0
   57.2620   32.9550   45.1000 C   0  0  0  0  0  0  0  0  0  0  0  0
   57.0370   34.0290   44.4830 O   0  0  0  0  0  0  0  0  0  0  0  0
   56.6360   31.7470   44.6400 N   0  0  0  0  0  0  0  0  0  0  0  0
   57.0670   30.5200   44.7830 C   0  0  0  0  0  0  0  0  0  0  0  0
   56.9970   29.5580   43.7500 C   0  0  0  0  0  0  0  0  0  0  0  0
   57.4510   28.2600   43.9880 C   0  0  0  0  0  0  0  0  0  0  0  0
   57.9610   27.9170   45.2400 C   0  0  0  0  0  0  0  0  0  0  0  0
   57.9970   28.8870   46.2470 C   0  0  0  0  0  0  0  0  0  0  0  0
   57.5510   30.1490   45.9990 N   0  0  0  0  0  0  0  0  0  0  0  0
   59.4220   33.5090   49.0740 C   0  0  0  0  0  0  0  0  0  0  0  0
   60.3130   33.3560   50.1400 C   0  0  0  0  0  0  0  0  0  0  0  0
   63.8720   31.2580   51.0500 C   0  0  0  0  0  0  0  0  0  0  0  0
   64.2200   29.9690   51.8400 C   0  0  0  0  0  0  0  0  0  0  0  0
   61.1610   29.3070   49.9030 C   0  0  0  0  0  0  0  0  0  0  0  0
   59.3290   30.3840   47.2650 H   0  0  0  0  0  0  0  0  0  0  0  0
   61.1110   30.4170   47.4360 H   0  0  0  0  0  0  0  0  0  0  0  0
   57.9538   30.3791   49.3658 H   0  0  0  0  0  0  0  0  0  0  0  0
   57.7434   29.6527   51.7437 H   0  0  0  0  0  0  0  0  0  0  0  0
   59.7155   28.7165   52.9484 H   0  0  0  0  0  0  0  0  0  0  0  0
   61.9227   27.6901   52.7635 H   0  0  0  0  0  0  0  0  0  0  0  0
   62.9069   27.8939   51.2353 H   0  0  0  0  0  0  0  0  0  0  0  0
   61.2928   30.1977   53.4139 H   0  0  0  0  0  0  0  0  0  0  0  0
   62.7530   30.3246   54.4976 H   0  0  0  0  0  0  0  0  0  0  0  0
   61.7643   32.4952   53.3855 H   0  0  0  0  0  0  0  0  0  0  0  0
   63.5476   32.2287   53.4461 H   0  0  0  0  0  0  0  0  0  0  0  0
   61.8220   31.4880   51.1480 H   0  0  0  0  0  0  0  0  0  0  0  0
   62.3836   34.0174   51.9284 H   0  0  0  0  0  0  0  0  0  0  0  0
   63.6717   33.6045   50.7202 H   0  0  0  0  0  0  0  0  0  0  0  0
   63.2258   34.1594   48.5379 H   0  0  0  0  0  0  0  0  0  0  0  0
   61.6462   34.4189   46.6342 H   0  0  0  0  0  0  0  0  0  0  0  0
   57.9380   32.1440   46.9480 H   0  0  0  0  0  0  0  0  0  0  0  0
   56.5878   29.8303   42.7659 H   0  0  0  0  0  0  0  0  0  0  0  0
   57.4066   27.5068   43.1875 H   0  0  0  0  0  0  0  0  0  0  0  0
   58.3295   26.8986   45.4326 H   0  0  0  0  0  0  0  0  0  0  0  0
   58.3870   28.6292   47.2427 H   0  0  0  0  0  0  0  0  0  0  0  0
   58.3465   33.3415   49.2330 H   0  0  0  0  0  0  0  0  0  0  0  0
   59.9361   33.0576   51.1294 H   0  0  0  0  0  0  0  0  0  0  0  0
   63.7029   30.9856   49.9978 H   0  0  0  0  0  0  0  0  0  0  0  0
   64.7186   31.9494   51.1733 H   0  0  0  0  0  0  0  0  0  0  0  0
   64.5356   29.1973   51.1225 H   0  0  0  0  0  0  0  0  0  0  0  0
   65.0164   30.2346   52.5508 H   0  0  0  0  0  0  0  0  0  0  0  0
   62.1179   29.1894   49.3733 H   0  0  0  0  0  0  0  0  0  0  0  0
  1  2  1  0
  2  3  2  0
  3  4  1  0
  4  5  2  0
  5  6  1  0
  6  7  1  0
  7  8  1  0
  8  9  1  0
  9 10  1  0
 10 11  1  0
 11 12  1  0
 12 13  1  0
 13 14  2  0
 14 15  1  0
 15 16  2  0
 16 17  1  0
 17 18  2  0
 17 19  1  0
 19 20  1  0
 20 21  2  0
 20 22  1  0
 22 23  2  3
 23 24  1  0
 24 25  2  0
 25 26  1  0
 26 27  2  0
 27 28  1  0
 16 29  1  0
 29 30  2  0
 11 31  1  0
 31 32  1  0
  6 33  2  0
 33  2  1  0
 32  8  1  0
 30 13  1  0
 28 23  1  0
  1 34  1  0
  1 35  1  0
  3 36  1  0
  4 37  1  0
  5 38  1  0
  7 39  1  0
  7 40  1  0
  9 41  1  0
  9 42  1  0
 10 43  1  0
 10 44  1  0
 11 45  1  0
 12 46  1  0
 12 47  1  0
 14 48  1  0
 15 49  1  0
 19 50  1  0
 24 51  1  0
 25 52  1  0
 26 53  1  0
 27 54  1  0
 29 55  1  0
 30 56  1  0
 31 57  1  0
 31 58  1  0
 32 59  1  0
 32 60  1  0
 33 61  1  0
M  CHG  2  11   1  28  -1
M  END
>  <UniqueID>  (2) 
2

>  <SMILES>  (2) 
Nc1cccc(CN2CC[NH+](Cc3ccc(C(=O)NC(=O)N=c4cccc[n-]4)cc3)CC2)c1

>  <Energy>  (2) 
90.09579081012335

>  <Genealogy>  (2) 
Nc1cccc(CN2CC[NH+](Cc3ccc(C(=O)NC(=O)N=c4cccc[n-]4)cc3)CC2)c1 (protonated)
Nc1cccc(CN2CC[NH+](Cc3ccc(C(=O)NC(=O)N=c4cccc[n-]4)cc3)CC2)c1 (3D coordinates assigned)
Nc1cccc(CN2CC[NH+](Cc3ccc(C(=O)NC(=O)N=c4cccc[n-]4)cc3)CC2)c1 (nonaromatic ring conformer: 90.09579081012335 kcal/mol)

>  <smiles>  (2) 
Nc1cccc(CN2CCN(Cc3ccc(C(=O)NC(=O)N=c4cccc[nH]4)cc3)CC2)c1

>  <score_type>  (2) 
oracle

>  <origin>  (2) 
adg

>  <m_score__min__energy>  (2) 
-8.8800000000000008

>  <m_primary>  (2) 
energy

$$$$
2:0
     RDKit          3D

 49 51  0  0  0  0  0  0  0  0999 V2000
   60.4770   27.2310   46.3300 C   0  0  0  0  0  0  0  0  0  0  0  0
   59.6680   28.0990   45.6960 C   0  0  0  0  0  0  0  0  0  0  0  0
   60.0950   29.4380   45.6170 C   0  0  0  0  0  0  0  0  0  0  0  0
   59.2210   30.4500   45.2310 C   0  0  0  0  0  0  0  0  0  0  0  0
   57.8840   30.1610   44.9260 C   0  0  0  0  0  0  0  0  0  0  0  0
   56.9250   31.2400   44.5620 C   0  0  0  0  0  0  0  0  0  0  0  0
   55.6960   30.9680   44.4700 O   0  0  0  0  0  0  0  0  0  0  0  0
   57.3980   32.6430   44.2570 C   0  0  0  0  0  0  0  0  0  0  0  0
   57.2790   33.5870   45.4610 C   0  0  0  0  0  0  0  0  0  0  0  0
   58.5720   33.6270   46.2310 C   0  0  0  0  0  0  0  0  0  0  0  0
   58.6370   33.1150   47.5330 C   0  0  0  0  0  0  0  0  0  0  0  0
   59.8260   33.1820   48.2630 C   0  0  0  0  0  0  0  0  0  0  0  0
   60.9810   33.7740   47.7090 C   0  0  0  0  0  0  0  0  0  0  0  0
   62.2190   33.8440   48.4660 N   0  0  0  0  0  0  0  0  0  0  0  0
   63.5070   33.5720   47.8150 C   0  0  0  0  0  0  0  0  0  0  0  0
   62.2030   34.1880   49.8930 C   0  0  0  0  0  0  0  0  0  0  0  0
   60.9000   34.2990   46.4030 C   0  0  0  0  0  0  0  0  0  0  0  0
   59.7090   34.2310   45.6760 C   0  0  0  0  0  0  0  0  0  0  0  0
   57.4630   28.8200   44.9380 C   0  0  0  0  0  0  0  0  0  0  0  0
   58.3540   27.7630   45.2350 C   0  0  0  0  0  0  0  0  0  0  0  0
   57.8950   26.5020   45.0340 C   0  0  0  0  0  0  0  0  0  0  0  0
   57.2310   25.6500   46.0410 C   0  0  0  0  0  0  0  0  0  0  0  0
   57.8070   24.6110   46.6730 N   0  0  0  0  0  0  0  0  0  0  0  0
   56.7940   24.0810   47.3920 C   0  0  0  0  0  0  0  0  0  0  0  0
   56.9440   23.0810   48.1400 O   0  0  0  0  0  0  0  0  0  0  0  0
   55.6040   24.7030   47.2380 N   0  0  0  0  0  0  0  0  0  0  0  0
   55.8970   25.6860   46.3700 C   0  0  0  0  0  0  0  0  0  0  0  0
   54.9650   26.5970   45.8840 O   0  0  0  0  0  0  0  0  0  0  0  0
   60.1878   26.1734   46.4182 H   0  0  0  0  0  0  0  0  0  0  0  0
   61.4277   27.5789   46.7602 H   0  0  0  0  0  0  0  0  0  0  0  0
   61.1370   29.6887   45.8645 H   0  0  0  0  0  0  0  0  0  0  0  0
   59.5831   31.4866   45.1647 H   0  0  0  0  0  0  0  0  0  0  0  0
   58.4529   32.5987   43.9484 H   0  0  0  0  0  0  0  0  0  0  0  0
   56.7550   33.0425   43.4589 H   0  0  0  0  0  0  0  0  0  0  0  0
   57.0388   34.5995   45.1045 H   0  0  0  0  0  0  0  0  0  0  0  0
   56.4821   33.2187   46.1238 H   0  0  0  0  0  0  0  0  0  0  0  0
   57.7447   32.6565   47.9843 H   0  0  0  0  0  0  0  0  0  0  0  0
   59.8625   32.7685   49.2817 H   0  0  0  0  0  0  0  0  0  0  0  0
   64.2784   33.4091   48.5821 H   0  0  0  0  0  0  0  0  0  0  0  0
   63.4181   32.6728   47.1876 H   0  0  0  0  0  0  0  0  0  0  0  0
   63.7893   34.4303   47.1876 H   0  0  0  0  0  0  0  0  0  0  0  0
   62.2459   33.2669   50.4927 H   0  0  0  0  0  0  0  0  0  0  0  0
   63.0728   34.8192   50.1278 H   0  0  0  0  0  0  0  0  0  0  0  0
   61.2784   34.7357   50.1278 H   0  0  0  0  0  0  0  0  0  0  0  0
   61.7861   34.7682   45.9506 H   0  0  0  0  0  0  0  0  0  0  0  0
   59.6630   34.6540   44.6616 H   0  0  0  0  0  0  0  0  0  0  0  0
   56.4124   28.5866   44.7103 H   0  0  0  0  0  0  0  0  0  0  0  0
   58.0298   26.0754   44.0291 H   0  0  0  0  0  0  0  0  0  0  0  0
   54.7890   27.4650   46.3740 H   0  0  0  0  0  0  0  0  0  0  0  0
  1  2  2  0
  2  3  1  0
  3  4  2  0
  4  5  1  0
  5  6  1  0
  6  7  2  0
  6  8  1  0
  8  9  1  0
  9 10  1  0
 10 11  2  0
 11 12  1  0
 12 13  2  0
 13 14  1  0
 14 15  1  0
 14 16  1  0
 13 17  1  0
 17 18  2  0
  5 19  2  0
 19 20  1  0
 20 21  2  3
 21 22  1  0
 22 23  1  0
 23 24  1  0
 24 25  2  0
 24 26  1  0
 26 27  1  0
 27 28  1  0
 20  2  1  0
 27 22  2  0
 18 10  1  0
  1 29  1  0
  1 30  1  0
  3 31  1  0
  4 32  1  0
  8 33  1  0
  8 34  1  0
  9 35  1  0
  9 36  1  0
 11 37  1  0
 12 38  1  0
 15 39  1  0
 15 40  1  0
 15 41  1  0
 16 42  1  0
 16 43  1  0
 16 44  1  0
 17 45  1  0
 18 46  1  0
 19 47  1  0
 21 48  1  0
 28 49  1  0
M  CHG  2  23  -1  26  -1
M  END
>  <UniqueID>  (3) 
3

>  <SMILES>  (3) 
C=c1ccc(C(=O)CCc2ccc(N(C)C)cc2)cc1=Cc1[n-]c(=O)[n-]c1O

>  <Energy>  (3) 
101.07928952159021

>  <Genealogy>  (3) 
C=c1ccc(C(=O)CCc2ccc(N(C)C)cc2)cc1=Cc1[n-]c(=O)[n-]c1O (protonated)
C=c1ccc(C(=O)CCc2ccc(N(C)C)cc2)cc1=Cc1[n-]c(=O)[n-]c1O (3D coordinates assigned)
C=c1ccc(C(=O)CCc2ccc(N(C)C)cc2)cc1=Cc1[n-]c(=O)[n-]c1O (optimized conformer: 101.07928952159021 kcal/mol)

>  <smiles>  (3) 
C=c1ccc(C(=O)CCc2ccc(N(C)C)cc2)cc1=Cc1[nH]c(=O)[nH]c1O

>  <score_type>  (3) 
oracle

>  <origin>  (3) 
adg

>  <m_score__min__energy>  (3) 
-14.640000000000001

>  <m_primary>  (3) 
energy

$$$$
3:0
     RDKit          3D

 58 61  0  0  0  0  0  0  0  0999 V2000
   59.0550   27.8120   45.9670 C   0  0  0  0  0  0  0  0  0  0  0  0
   59.7040   28.8930   45.1000 C   0  0  0  0  0  0  0  0  0  0  0  0
   58.6620   29.9130   44.6280 C   0  0  0  0  0  0  0  0  0  0  0  0
   60.7560   29.5710   45.8600 N   0  0  0  0  0  0  0  0  0  0  0  0
   60.4940   30.2610   47.0950 C   0  0  0  0  0  0  0  0  0  0  0  0
   59.3050   30.4040   47.4910 O   0  0  0  0  0  0  0  0  0  0  0  0
   61.6000   30.8320   47.9010 C   0  0  0  0  0  0  0  0  0  0  0  0
   62.5150   31.7130   47.2980 C   0  0  0  0  0  0  0  0  0  0  0  0
   63.5610   32.2710   48.0400 C   0  0  0  0  0  0  0  0  0  0  0  0
   63.6990   31.9760   49.4020 C   0  0  0  0  0  0  0  0  0  0  0  0
   64.8350   32.5320   50.1670 C   0  0  0  0  0  0  0  0  0  0  0  0
   66.3820   31.8750   50.1260 S   0  0  0  0  0  0  0  0  0  0  0  0
   66.9830   32.9060   51.3040 C   0  0  0  0  0  0  0  0  0  0  0  0
   66.0260   33.7550   51.7360 N   0  0  0  0  0  0  0  0  0  0  0  0
   64.8310   33.5750   51.1100 C   0  0  0  0  0  0  0  0  0  0  0  0
   63.6750   34.4600   51.4070 C   0  0  0  0  0  0  0  0  0  0  0  0
   63.7610   35.7030   51.2320 O   0  0  0  0  0  0  0  0  0  0  0  0
   62.4250   33.9240   51.8600 N   0  0  0  0  0  0  0  0  0  0  0  0
   61.2820   33.6490   51.0410 C   0  0  0  0  0  0  0  0  0  0  0  0
   60.1920   32.9710   51.6030 C   0  0  0  0  0  0  0  0  0  0  0  0
   59.0670   32.6800   50.8270 C   0  0  0  0  0  0  0  0  0  0  0  0
   59.0320   33.0430   49.4790 C   0  0  0  0  0  0  0  0  0  0  0  0
   60.1390   33.6780   48.8840 C   0  0  0  0  0  0  0  0  0  0  0  0
   60.1180   34.0560   47.4540 C   0  0  0  0  0  0  0  0  0  0  0  0
   61.1860   34.4580   46.9120 O   0  0  0  0  0  0  0  0  0  0  0  0
   58.9180   33.9550   46.6640 N   0  0  0  0  0  0  0  0  0  0  0  0
   57.8670   32.9780   46.9070 C   0  0  0  0  0  0  0  0  0  0  0  0
   57.0480   32.9270   45.6220 C   0  0  0  0  0  0  0  0  0  0  0  0
   57.4030   34.1970   44.8540 C   0  0  0  0  0  0  0  0  0  0  0  0
   58.7700   34.6180   45.3770 C   0  0  0  0  0  0  0  0  0  0  0  0
   61.2580   33.9870   49.6760 C   0  0  0  0  0  0  0  0  0  0  0  0
   62.8010   31.0830   50.0050 C   0  0  0  0  0  0  0  0  0  0  0  0
   61.7470   30.5310   49.2720 C   0  0  0  0  0  0  0  0  0  0  0  0
   60.8560   29.7340   49.9160 F   0  0  0  0  0  0  0  0  0  0  0  0
   59.2019   28.0568   47.0293 H   0  0  0  0  0  0  0  0  0  0  0  0
   57.9782   27.7634   45.7475 H   0  0  0  0  0  0  0  0  0  0  0  0
   59.5183   26.8388   45.7475 H   0  0  0  0  0  0  0  0  0  0  0  0
   60.1434   28.4119   44.2137 H   0  0  0  0  0  0  0  0  0  0  0  0
   58.1845   30.3804   45.5018 H   0  0  0  0  0  0  0  0  0  0  0  0
   59.1551   30.6871   44.0217 H   0  0  0  0  0  0  0  0  0  0  0  0
   57.8986   29.4035   44.0217 H   0  0  0  0  0  0  0  0  0  0  0  0
   61.6880   29.6990   45.4020 H   0  0  0  0  0  0  0  0  0  0  0  0
   62.4072   31.9657   46.2329 H   0  0  0  0  0  0  0  0  0  0  0  0
   64.2794   32.9454   47.5510 H   0  0  0  0  0  0  0  0  0  0  0  0
   68.0184   32.8925   51.6752 H   0  0  0  0  0  0  0  0  0  0  0  0
   60.2221   32.6666   52.6596 H   0  0  0  0  0  0  0  0  0  0  0  0
   58.2071   32.1639   51.2789 H   0  0  0  0  0  0  0  0  0  0  0  0
   58.1348   32.8317   48.8787 H   0  0  0  0  0  0  0  0  0  0  0  0
   58.3027   31.9915   47.1238 H   0  0  0  0  0  0  0  0  0  0  0  0
   57.2477   33.2540   47.7732 H   0  0  0  0  0  0  0  0  0  0  0  0
   57.3133   32.0363   45.0335 H   0  0  0  0  0  0  0  0  0  0  0  0
   55.9696   32.8673   45.8305 H   0  0  0  0  0  0  0  0  0  0  0  0
   57.4503   33.9930   43.7741 H   0  0  0  0  0  0  0  0  0  0  0  0
   56.6497   34.9856   44.9977 H   0  0  0  0  0  0  0  0  0  0  0  0
   59.5619   34.2948   44.6853 H   0  0  0  0  0  0  0  0  0  0  0  0
   58.8509   35.7110   45.4706 H   0  0  0  0  0  0  0  0  0  0  0  0
   62.1218   34.4972   49.2248 H   0  0  0  0  0  0  0  0  0  0  0  0
   62.9275   30.8148   51.0643 H   0  0  0  0  0  0  0  0  0  0  0  0
  1  2  1  0
  2  3  1  0
  2  4  1  0
  4  5  1  0
  5  6  2  0
  5  7  1  0
  7  8  2  0
  8  9  1  0
  9 10  2  0
 10 11  1  0
 11 12  1  0
 12 13  1  0
 13 14  2  0
 14 15  1  0
 15 16  1  0
 16 17  2  0
 16 18  1  0
 18 19  1  0
 19 20  2  0
 20 21  1  0
 21 22  2  0
 22 23  1  0
 23 24  1  0
 24 25  2  0
 24 26  1  0
 26 27  1  0
 27 28  1  0
 28 29  1  0
 29 30  1  0
 23 31  2  0
 10 32  1  0
 32 33  2  0
 33 34  1  0
 33  7  1  0
 15 11  2  0
 31 19  1  0
 30 26  1  0
  1 35  1  0
  1 36  1  0
  1 37  1  0
  2 38  1  0
  3 39  1  0
  3 40  1  0
  3 41  1  0
  4 42  1  0
  8 43  1  0
  9 44  1  0
 13 45  1  0
 20 46  1  0
 21 47  1  0
 22 48  1  0
 27 49  1  0
 27 50  1  0
 28 51  1  0
 28 52  1  0
 29 53  1  0
 29 54  1  0
 30 55  1  0
 30 56  1  0
 31 57  1  0
 32 58  1  0
M  CHG  1  18  -1
M  END
>  <UniqueID>  (4) 
4

>  <SMILES>  (4) 
CC(C)NC(=O)c1ccc(-c2scnc2C(=O)[N-]c2cccc(C(=O)N3CCCC3)c2)cc1F

>  <Energy>  (4) 
106.14158667908465

>  <Genealogy>  (4) 
CC(C)NC(=O)c1ccc(-c2scnc2C(=O)[N-]c2cccc(C(=O)N3CCCC3)c2)cc1F (protonated)
CC(C)NC(=O)c1ccc(-c2scnc2C(=O)[N-]c2cccc(C(=O)N3CCCC3)c2)cc1F (3D coordinates assigned)
CC(C)NC(=O)c1ccc(-c2scnc2C(=O)[N-]c2cccc(C(=O)N3CCCC3)c2)cc1F (nonaromatic ring conformer: 106.14158667908465 kcal/mol)

>  <smiles>  (4) 
CC(C)NC(=O)c1ccc(-c2scnc2C(=O)Nc2cccc(C(=O)N3CCCC3)c2)cc1F

>  <score_type>  (4) 
oracle

>  <origin>  (4) 
adg

>  <m_score__min__energy>  (4) 
-11.24

>  <m_primary>  (4) 
energy

$$$$
4:0
     RDKit          3D

 43 45  0  0  0  0  0  0  0  0999 V2000
   54.3430   27.1010   46.3680 H   0  0  0  0  0  0  0  0  0  0  0  0
   55.2000   26.5590   46.3530 O   0  0  0  0  0  0  0  0  0  0  0  0
   56.3950   27.0750   45.8530 C   0  0  0  0  0  0  0  0  0  0  0  0
   57.5900   26.3980   46.1150 C   0  0  0  0  0  0  0  0  0  0  0  0
   57.5750   25.4688   46.7035 H   0  0  0  0  0  0  0  0  0  0  0  0
   58.8030   26.8960   45.6330 C   0  0  0  0  0  0  0  0  0  0  0  0
   59.7407   26.3641   45.8517 H   0  0  0  0  0  0  0  0  0  0  0  0
   58.8270   28.0680   44.8740 C   0  0  0  0  0  0  0  0  0  0  0  0
   59.7858   28.4627   44.5066 H   0  0  0  0  0  0  0  0  0  0  0  0
   57.6350   28.7440   44.5780 C   0  0  0  0  0  0  0  0  0  0  0  0
   57.6930   29.9960   43.7900 C   0  0  0  0  0  0  0  0  0  0  0  0
   57.5974   29.9071   42.6978 H   0  0  0  0  0  0  0  0  0  0  0  0
   57.8550   31.2520   44.3020 C   0  0  0  0  0  0  0  0  0  0  0  0
   58.0220   32.3950   43.4590 C   0  0  0  0  0  0  0  0  0  0  0  0
   57.9840   32.3660   42.1160 C   0  0  0  0  0  0  0  0  0  0  0  0
   57.7874   31.4192   41.5917 H   0  0  0  0  0  0  0  0  0  0  0  0
   58.1495   33.2891   41.5410 H   0  0  0  0  0  0  0  0  0  0  0  0
   58.2700   33.6010   44.0260 N   0  0  0  0  0  0  0  0  0  0  0  0
   58.3570   33.7820   45.3610 C   0  0  0  0  0  0  0  0  0  0  0  0
   58.6270   34.9330   45.8010 O   0  0  0  0  0  0  0  0  0  0  0  0
   58.1490   32.7340   46.2140 N   0  0  0  0  0  0  0  0  0  0  0  0
   58.2870   32.9170   47.6750 C   0  0  0  0  0  0  0  0  0  0  0  0
   57.7264   33.8113   47.9847 H   0  0  0  0  0  0  0  0  0  0  0  0
   57.8882   32.0302   48.1893 H   0  0  0  0  0  0  0  0  0  0  0  0
   59.7400   33.0880   48.0380 C   0  0  0  0  0  0  0  0  0  0  0  0
   60.7310   32.3330   47.3910 C   0  0  0  0  0  0  0  0  0  0  0  0
   60.4422   31.5732   46.6498 H   0  0  0  0  0  0  0  0  0  0  0  0
   62.0810   32.5400   47.6820 C   0  0  0  0  0  0  0  0  0  0  0  0
   62.8494   31.9424   47.1697 H   0  0  0  0  0  0  0  0  0  0  0  0
   62.4630   33.5100   48.6280 C   0  0  0  0  0  0  0  0  0  0  0  0
   63.8050   33.7590   48.9520 O   0  0  0  0  0  0  0  0  0  0  0  0
   64.7270   32.7610   49.3780 C   0  0  0  0  0  0  0  0  0  0  0  0
   64.7539   32.7319   50.4773 H   0  0  0  0  0  0  0  0  0  0  0  0
   64.4100   31.7806   48.9929 H   0  0  0  0  0  0  0  0  0  0  0  0
   65.7294   32.9995   48.9929 H   0  0  0  0  0  0  0  0  0  0  0  0
   61.4720   34.2610   49.2730 C   0  0  0  0  0  0  0  0  0  0  0  0
   61.7593   35.0184   50.0172 H   0  0  0  0  0  0  0  0  0  0  0  0
   60.1220   34.0560   48.9790 C   0  0  0  0  0  0  0  0  0  0  0  0
   59.3540   34.6569   49.4881 H   0  0  0  0  0  0  0  0  0  0  0  0
   57.8570   31.4920   45.7080 C   0  0  0  0  0  0  0  0  0  0  0  0
   57.5500   30.5660   46.5100 O   0  0  0  0  0  0  0  0  0  0  0  0
   56.4150   28.2600   45.0970 C   0  0  0  0  0  0  0  0  0  0  0  0
   55.2310   28.9550   44.8650 O   0  0  0  0  0  0  0  0  0  0  0  0
  1  2  1  0
  2  3  1  0
  3  4  2  0
  4  5  1  0
  4  6  1  0
  6  7  1  0
  6  8  2  0
  8  9  1  0
  8 10  1  0
 10 11  1  0
 11 12  1  0
 11 13  2  0
 13 14  1  0
 14 15  2  0
 15 16  1  0
 15 17  1  0
 14 18  1  0
 18 19  1  0
 19 20  2  0
 19 21  1  0
 21 22  1  0
 22 23  1  0
 22 24  1  0
 22 25  1  0
 25 26  2  0
 26 27  1  0
 26 28  1  0
 28 29  1  0
 28 30  2  0
 30 31  1  0
 31 32  1  0
 32 33  1  0
 32 34  1  0
 32 35  1  0
 30 36  1  0
 36 37  1  0
 36 38  2  0
 38 39  1  0
 21 40  1  0
 40 41  2  0
 10 42  2  0
 42 43  1  0
 42  3  1  0
 40 13  1  0
 38 25  1  0
M  CHG  2  18  -1  43  -1
M  END
>  <UniqueID>  (5) 
5

>  <SMILES>  (5) 
C=c1[n-]c(=O)n(Cc2ccc(OC)cc2)c(=O)/c1=C\c1cccc(O)c1[O-]

>  <Energy>  (5) 
69.95074432920376

>  <Genealogy>  (5) 
C=c1[n-]c(=O)n(Cc2ccc(OC)cc2)c(=O)c1=Cc1cccc(O)c1[O-] (protonated)
C=c1[n-]c(=O)n(Cc2ccc(OC)cc2)c(=O)/c1=C\c1cccc(O)c1[O-] (cis-trans isomerization)
C=c1[n-]c(=O)n(Cc2ccc(OC)cc2)c(=O)/c1=C\c1cccc(O)c1[O-] (3D coordinates assigned)
C=c1[n-]c(=O)n(Cc2ccc(OC)cc2)c(=O)/c1=C\c1cccc(O)c1[O-] (optimized conformer: 69.95074432920376 kcal/mol)

>  <smiles>  (5) 
C=c1[nH]c(=O)n(Cc2ccc(OC)cc2)c(=O)c1=Cc1cccc(O)c1O

>  <score_type>  (5) 
oracle

>  <origin>  (5) 
adg

>  <m_score__min__energy>  (5) 
-14.6

>  <m_primary>  (5) 
energy

$$$$
5:0
     RDKit          3D

 71 74  0  0  0  0  0  0  0  0999 V2000
   57.7600   33.4770   47.0770 C   0  0  0  0  0  0  0  0  0  0  0  0
   56.9720   33.5660   45.9110 O   0  0  0  0  0  0  0  0  0  0  0  0
   57.8120   33.5450   44.7770 C   0  0  0  0  0  0  0  0  0  0  0  0
   57.4040   32.3820   43.8770 C   0  0  0  0  0  0  0  0  0  0  0  0
   56.3160   31.6240   44.4990 N   0  0  0  0  0  0  0  0  0  0  0  0
   56.6720   29.9240   44.4320 S   0  0  0  0  0  0  0  0  0  0  0  0
   55.5300   29.1520   45.0310 O   0  0  0  0  0  0  0  0  0  0  0  0
   56.8230   29.5060   42.9950 O   0  0  0  0  0  0  0  0  0  0  0  0
   58.1520   29.5620   45.3330 C   0  0  0  0  0  0  0  0  0  0  0  0
   59.0040   30.6100   45.7160 C   0  0  0  0  0  0  0  0  0  0  0  0
   60.1690   30.3560   46.4580 C   0  0  0  0  0  0  0  0  0  0  0  0
   61.0580   31.4710   46.8710 C   0  0  0  0  0  0  0  0  0  0  0  0
   60.8440   32.7750   46.3870 C   0  0  0  0  0  0  0  0  0  0  0  0
   61.6840   33.8210   46.7760 C   0  0  0  0  0  0  0  0  0  0  0  0
   62.7440   33.5820   47.6530 C   0  0  0  0  0  0  0  0  0  0  0  0
   62.9710   32.2910   48.1510 C   0  0  0  0  0  0  0  0  0  0  0  0
   64.1330   32.0220   49.0790 C   0  0  0  0  0  0  0  0  0  0  0  0
   64.1890   32.9860   50.1890 N   0  0  0  0  0  0  0  0  0  0  0  0
   63.3890   32.5420   51.3380 C   0  0  0  0  0  0  0  0  0  0  0  0
   61.9290   32.5810   50.9810 C   0  0  0  0  0  0  0  0  0  0  0  0
   61.2940   33.8070   50.7290 C   0  0  0  0  0  0  0  0  0  0  0  0
   59.9490   33.8380   50.3510 C   0  0  0  0  0  0  0  0  0  0  0  0
   59.2320   32.6470   50.2110 C   0  0  0  0  0  0  0  0  0  0  0  0
   59.8580   31.4160   50.4500 C   0  0  0  0  0  0  0  0  0  0  0  0
   58.9680   29.9130   50.2390 S   0  0  0  0  0  0  0  0  0  0  0  0
   60.0450   28.5390   50.5750 C   0  0  0  0  0  0  0  0  0  0  0  0
   57.7980   29.8780   51.1840 O   0  0  0  0  0  0  0  0  0  0  0  0
   58.4530   29.8160   48.8300 O   0  0  0  0  0  0  0  0  0  0  0  0
   61.2090   31.3860   50.8230 C   0  0  0  0  0  0  0  0  0  0  0  0
   62.1290   31.2390   47.7550 C   0  0  0  0  0  0  0  0  0  0  0  0
   60.4800   29.0310   46.8040 C   0  0  0  0  0  0  0  0  0  0  0  0
   59.6340   27.9850   46.4340 C   0  0  0  0  0  0  0  0  0  0  0  0
   58.4530   28.2410   45.7180 C   0  0  0  0  0  0  0  0  0  0  0  0
   57.5720   27.1750   45.3300 N   0  0  0  0  0  0  0  0  0  0  0  0
   56.6540   26.4720   46.1780 C   0  0  0  0  0  0  0  0  0  0  0  0
   55.4150   26.6670   46.0770 O   0  0  0  0  0  0  0  0  0  0  0  0
   57.1440   25.4450   47.1640 C   0  0  0  0  0  0  0  0  0  0  0  0
   57.7350   24.1860   46.5460 C   0  0  0  0  0  0  0  0  0  0  0  0
   56.3690   24.1360   47.2160 C   0  0  0  0  0  0  0  0  0  0  0  0
   57.1128   33.5501   47.9634 H   0  0  0  0  0  0  0  0  0  0  0  0
   58.2902   32.5133   47.0886 H   0  0  0  0  0  0  0  0  0  0  0  0
   58.4918   34.2982   47.0886 H   0  0  0  0  0  0  0  0  0  0  0  0
   57.7104   34.4913   44.2254 H   0  0  0  0  0  0  0  0  0  0  0  0
   58.8585   33.4211   45.0923 H   0  0  0  0  0  0  0  0  0  0  0  0
   57.0662   32.7739   42.9063 H   0  0  0  0  0  0  0  0  0  0  0  0
   58.2688   31.7181   43.7312 H   0  0  0  0  0  0  0  0  0  0  0  0
   56.2690   31.8870   45.5110 H   0  0  0  0  0  0  0  0  0  0  0  0
   58.7559   31.6432   45.4313 H   0  0  0  0  0  0  0  0  0  0  0  0
   60.0096   32.9718   45.6977 H   0  0  0  0  0  0  0  0  0  0  0  0
   61.5099   34.8363   46.3902 H   0  0  0  0  0  0  0  0  0  0  0  0
   63.4033   34.4094   47.9543 H   0  0  0  0  0  0  0  0  0  0  0  0
   64.0283   31.0087   49.4941 H   0  0  0  0  0  0  0  0  0  0  0  0
   65.0613   32.1208   48.4972 H   0  0  0  0  0  0  0  0  0  0  0  0
   63.8270   33.9120   49.8590 H   0  0  0  0  0  0  0  0  0  0  0  0
   63.6729   31.5137   51.6064 H   0  0  0  0  0  0  0  0  0  0  0  0
   63.5743   33.2099   52.1922 H   0  0  0  0  0  0  0  0  0  0  0  0
   61.8569   34.7467   50.8294 H   0  0  0  0  0  0  0  0  0  0  0  0
   59.4537   34.8021   50.1633 H   0  0  0  0  0  0  0  0  0  0  0  0
   58.1737   32.6755   49.9125 H   0  0  0  0  0  0  0  0  0  0  0  0
   60.1462   28.4099   51.6627 H   0  0  0  0  0  0  0  0  0  0  0  0
   59.6207   27.6244   50.1351 H   0  0  0  0  0  0  0  0  0  0  0  0
   61.0345   28.7326   50.1351 H   0  0  0  0  0  0  0  0  0  0  0  0
   61.7080   30.4205   50.9929 H   0  0  0  0  0  0  0  0  0  0  0  0
   62.3080   30.2239   48.1392 H   0  0  0  0  0  0  0  0  0  0  0  0
   61.3977   28.8161   47.3711 H   0  0  0  0  0  0  0  0  0  0  0  0
   59.8941   26.9512   46.7053 H   0  0  0  0  0  0  0  0  0  0  0  0
   57.4703   26.1799   47.9147 H   0  0  0  0  0  0  0  0  0  0  0  0
   57.8150   24.0954   45.4527 H   0  0  0  0  0  0  0  0  0  0  0  0
   58.6785   23.6322   46.6609 H   0  0  0  0  0  0  0  0  0  0  0  0
   55.4619   24.0093   46.6068 H   0  0  0  0  0  0  0  0  0  0  0  0
   55.9165   23.5312   48.0156 H   0  0  0  0  0  0  0  0  0  0  0  0
  1  2  1  0
  2  3  1  0
  3  4  1  0
  4  5  1  0
  5  6  1  0
  6  7  2  0
  6  8  2  0
  6  9  1  0
  9 10  2  0
 10 11  1  0
 11 12  1  0
 12 13  2  0
 13 14  1  0
 14 15  2  0
 15 16  1  0
 16 17  1  0
 17 18  1  0
 18 19  1  0
 19 20  1  0
 20 21  2  0
 21 22  1  0
 22 23  2  0
 23 24  1  0
 24 25  1  0
 25 26  1  0
 25 27  2  0
 25 28  2  0
 24 29  2  0
 16 30  2  0
 11 31  2  0
 31 32  1  0
 32 33  2  0
 33 34  1  0
 34 35  1  0
 35 36  2  0
 35 37  1  0
 37 38  1  0
 38 39  1  0
 33  9  1  0
 39 37  1  0
 30 12  1  0
 29 20  1  0
  1 40  1  0
  1 41  1  0
  1 42  1  0
  3 43  1  0
  3 44  1  0
  4 45  1  0
  4 46  1  0
  5 47  1  0
 10 48  1  0
 13 49  1  0
 14 50  1  0
 15 51  1  0
 17 52  1  0
 17 53  1  0
 18 54  1  0
 19 55  1  0
 19 56  1  0
 21 57  1  0
 22 58  1  0
 23 59  1  0
 26 60  1  0
 26 61  1  0
 26 62  1  0
 29 63  1  0
 30 64  1  0
 31 65  1  0
 32 66  1  0
 37 67  1  0
 38 68  1  0
 38 69  1  0
 39 70  1  0
 39 71  1  0
M  CHG  1  34  -1
M  END
>  <UniqueID>  (6) 
6

>  <SMILES>  (6) 
COCCNS(=O)(=O)c1cc(-c2cccc(CNCc3cccc(S(C)(=O)=O)c3)c2)ccc1[N-]C(=O)C1CC1

>  <Energy>  (6) 
337.9908336463541

>  <Genealogy>  (6) 
COCCNS(=O)(=O)c1cc(-c2cccc(CNCc3cccc(S(C)(=O)=O)c3)c2)ccc1[N-]C(=O)C1CC1 (protonated)
COCCNS(=O)(=O)c1cc(-c2cccc(CNCc3cccc(S(C)(=O)=O)c3)c2)ccc1[N-]C(=O)C1CC1 (3D coordinates assigned)
COCCNS(=O)(=O)c1cc(-c2cccc(CNCc3cccc(S(C)(=O)=O)c3)c2)ccc1[N-]C(=O)C1CC1 (nonaromatic ring conformer: 337.9908336463541 kcal/mol)

>  <smiles>  (6) 
COCCNS(=O)(=O)c1cc(-c2cccc(CNCc3cccc(S(C)(=O)=O)c3)c2)ccc1NC(=O)C1CC1

>  <score_type>  (6) 
oracle

>  <origin>  (6) 
adg

>  <m_score__min__energy>  (6) 
-12.720000000000001

>  <m_primary>  (6) 
energy

$$$$
6:0
     RDKit          3D

 36 38  0  0  0  0  0  0  0  0999 V2000
   58.2480   30.3470   45.3340 H   0  0  0  0  0  0  0  0  0  0  0  0
   58.4190   29.3980   45.0320 O   0  0  0  0  0  0  0  0  0  0  0  0
   57.9180   28.2740   45.6920 C   0  0  0  0  0  0  0  0  0  0  0  0
   56.6200   27.8530   45.3750 C   0  0  0  0  0  0  0  0  0  0  0  0
   56.0401   28.3997   44.6169 H   0  0  0  0  0  0  0  0  0  0  0  0
   56.0550   26.7460   46.0120 C   0  0  0  0  0  0  0  0  0  0  0  0
   54.7660   26.3410   45.6890 O   0  0  0  0  0  0  0  0  0  0  0  0
   56.7850   26.0480   46.9750 C   0  0  0  0  0  0  0  0  0  0  0  0
   56.3387   25.1779   47.4788 H   0  0  0  0  0  0  0  0  0  0  0  0
   58.0820   26.4530   47.3000 C   0  0  0  0  0  0  0  0  0  0  0  0
   58.6488   25.9018   48.0648 H   0  0  0  0  0  0  0  0  0  0  0  0
   58.6710   27.5590   46.6590 C   0  0  0  0  0  0  0  0  0  0  0  0
   60.0660   27.9710   47.0620 C   0  0  0  0  0  0  0  0  0  0  0  0
   60.7770   27.6453   46.2884 H   0  0  0  0  0  0  0  0  0  0  0  0
   60.3107   27.5003   48.0256 H   0  0  0  0  0  0  0  0  0  0  0  0
   60.1520   29.4580   47.2150 C   0  0  0  0  0  0  0  0  0  0  0  0
   59.0500   30.4230   48.0410 S   0  0  0  0  0  0  0  0  0  0  0  0
   59.9170   31.8390   47.7270 C   0  0  0  0  0  0  0  0  0  0  0  0
   59.5870   33.0440   48.0870 N   0  0  0  0  0  0  0  0  0  0  0  0
   59.2210   34.1420   47.2340 C   0  0  0  0  0  0  0  0  0  0  0  0
   59.5840   35.3200   47.5000 O   0  0  0  0  0  0  0  0  0  0  0  0
   58.5100   33.8940   45.9670 C   0  0  0  0  0  0  0  0  0  0  0  0
   58.8935   34.3947   45.0658 H   0  0  0  0  0  0  0  0  0  0  0  0
   57.4330   33.1070   45.8240 C   0  0  0  0  0  0  0  0  0  0  0  0
   56.6879   33.1237   46.6330 H   0  0  0  0  0  0  0  0  0  0  0  0
   57.1610   32.2210   44.6760 C   0  0  0  0  0  0  0  0  0  0  0  0
   56.3420   31.1970   44.7400 O   0  0  0  0  0  0  0  0  0  0  0  0
   56.3440   30.5810   43.5800 C   0  0  0  0  0  0  0  0  0  0  0  0
   55.7454   29.6916   43.3339 H   0  0  0  0  0  0  0  0  0  0  0  0
   57.2110   31.2190   42.7170 C   0  0  0  0  0  0  0  0  0  0  0  0
   57.4293   30.9426   41.6749 H   0  0  0  0  0  0  0  0  0  0  0  0
   57.7480   32.2720   43.4240 C   0  0  0  0  0  0  0  0  0  0  0  0
   58.4896   33.0020   43.0674 H   0  0  0  0  0  0  0  0  0  0  0  0
   61.0290   31.5920   47.0010 N   0  0  0  0  0  0  0  0  0  0  0  0
   61.1670   30.2700   46.7180 C   0  0  0  0  0  0  0  0  0  0  0  0
   62.0150   29.8727   46.1410 H   0  0  0  0  0  0  0  0  0  0  0  0
  1  2  1  0
  2  3  1  0
  3  4  2  0
  4  5  1  0
  4  6  1  0
  6  7  1  0
  6  8  2  0
  8  9  1  0
  8 10  1  0
 10 11  1  0
 10 12  2  0
 12 13  1  0
 13 14  1  0
 13 15  1  0
 13 16  1  0
 16 17  1  0
 17 18  1  0
 18 19  2  0
 19 20  1  0
 20 21  2  0
 20 22  1  0
 22 23  1  0
 22 24  2  3
 24 25  1  0
 24 26  1  0
 26 27  1  0
 27 28  1  0
 28 29  1  0
 28 30  2  0
 30 31  1  0
 30 32  1  0
 32 33  1  0
 18 34  1  0
 34 35  1  0
 35 36  1  0
 12  3  1  0
 35 16  2  0
 32 26  2  0
M  CHG  2   7  -1  34  -1
M  END
>  <UniqueID>  (7) 
7

>  <SMILES>  (7) 
O=C(C=Cc1ccco1)/N=c1/[n-]cc(Cc2ccc([O-])cc2O)s1

>  <Energy>  (7) 
104.20681883456255

>  <Genealogy>  (7) 
O=C(C=Cc1ccco1)N=c1[n-]cc(Cc2ccc([O-])cc2O)s1 (protonated)
O=C(C=Cc1ccco1)/N=c1/[n-]cc(Cc2ccc([O-])cc2O)s1 (cis-trans isomerization)
O=C(C=Cc1ccco1)/N=c1/[n-]cc(Cc2ccc([O-])cc2O)s1 (3D coordinates assigned)
O=C(C=Cc1ccco1)/N=c1/[n-]cc(Cc2ccc([O-])cc2O)s1 (optimized conformer: 104.20681883456255 kcal/mol)

>  <smiles>  (7) 
O=C(C=Cc1ccco1)N=c1[nH]cc(Cc2ccc(O)cc2O)s1

>  <score_type>  (7) 
oracle

>  <origin>  (7) 
adg

>  <m_score__min__energy>  (7) 
-11.640000000000001

>  <m_primary>  (7) 
energy

$$$$
7:0
     RDKit          3D

 52 56  0  0  0  0  0  0  0  0999 V2000
   57.5110   34.3400   44.9020 C   0  0  0  0  0  0  0  0  0  0  0  0
   58.5640   34.5750   45.8350 O   0  0  0  0  0  0  0  0  0  0  0  0
   59.3190   33.5620   46.4420 C   0  0  0  0  0  0  0  0  0  0  0  0
   60.7370   33.6090   46.5090 C   0  0  0  0  0  0  0  0  0  0  0  0
   61.4560   32.5700   47.1280 C   0  0  0  0  0  0  0  0  0  0  0  0
   60.7410   31.5040   47.6670 C   0  0  0  0  0  0  0  0  0  0  0  0
   59.3780   31.4480   47.6050 C   0  0  0  0  0  0  0  0  0  0  0  0
   58.6370   32.4640   47.0030 C   0  0  0  0  0  0  0  0  0  0  0  0
   58.8940   30.1980   48.2480 C   0  0  0  0  0  0  0  0  0  0  0  0
   60.2160   29.5260   48.7250 C   0  0  1  0  0  0  0  0  0  0  0  0
   60.4320   28.1310   48.1240 C   0  0  0  0  0  0  0  0  0  0  0  0
   59.6880   27.9780   46.8650 N   0  0  0  0  0  0  0  0  0  0  0  0
   58.5910   27.2140   46.8760 N   0  0  0  0  0  0  0  0  0  0  0  0
   57.8360   27.0010   45.7650 C   0  0  0  0  0  0  0  0  0  0  0  0
   56.6380   26.1530   45.8480 C   0  0  0  0  0  0  0  0  0  0  0  0
   56.6160   24.7750   45.8720 C   0  0  0  0  0  0  0  0  0  0  0  0
   55.2720   24.4770   45.9540 C   0  0  0  0  0  0  0  0  0  0  0  0
   54.6850   23.1090   46.0870 C   0  0  0  0  0  0  0  0  0  0  0  0
   55.1770   22.2540   45.0140 N   0  0  0  0  0  0  0  0  0  0  0  0
   55.5420   22.7460   43.7210 C   0  0  0  0  0  0  0  0  0  0  0  0
   54.6970   23.3470   43.0030 O   0  0  0  0  0  0  0  0  0  0  0  0
   56.9540   22.5630   43.2450 C   0  0  0  0  0  0  0  0  0  0  0  0
   57.8540   21.8940   44.2800 C   0  0  0  0  0  0  0  0  0  0  0  0
   57.4260   21.1260   43.0350 C   0  0  0  0  0  0  0  0  0  0  0  0
   54.5540   25.6170   45.9900 N   0  0  0  0  0  0  0  0  0  0  0  0
   55.4050   26.6000   45.9200 O   0  0  0  0  0  0  0  0  0  0  0  0
   58.2180   27.5950   44.5620 C   0  0  0  0  0  0  0  0  0  0  0  0
   59.3550   28.3940   44.5340 C   0  0  0  0  0  0  0  0  0  0  0  0
   60.0930   28.5840   45.7030 C   0  0  0  0  0  0  0  0  0  0  0  0
   61.1230   29.3130   45.6730 O   0  0  0  0  0  0  0  0  0  0  0  0
   61.2650   30.4010   48.3020 O   0  0  0  0  0  0  0  0  0  0  0  0
   56.5782   34.1318   45.4466 H   0  0  0  0  0  0  0  0  0  0  0  0
   57.3757   35.2300   44.2699 H   0  0  0  0  0  0  0  0  0  0  0  0
   57.7670   33.4769   44.2699 H   0  0  0  0  0  0  0  0  0  0  0  0
   61.2766   34.4633   46.0741 H   0  0  0  0  0  0  0  0  0  0  0  0
   62.5542   32.5992   47.1846 H   0  0  0  0  0  0  0  0  0  0  0  0
   57.5390   32.4094   46.9666 H   0  0  0  0  0  0  0  0  0  0  0  0
   58.2322   30.4196   49.0982 H   0  0  0  0  0  0  0  0  0  0  0  0
   58.2987   29.5628   47.5756 H   0  0  0  0  0  0  0  0  0  0  0  0
   60.1878   29.3790   49.8148 H   0  0  0  0  0  0  0  0  0  0  0  0
   61.5046   27.9861   47.9277 H   0  0  0  0  0  0  0  0  0  0  0  0
   60.0662   27.3806   48.8403 H   0  0  0  0  0  0  0  0  0  0  0  0
   57.4672   24.0792   45.8347 H   0  0  0  0  0  0  0  0  0  0  0  0
   54.9748   22.6801   47.0576 H   0  0  0  0  0  0  0  0  0  0  0  0
   53.5889   23.1765   46.0239 H   0  0  0  0  0  0  0  0  0  0  0  0
   56.9841   23.4714   42.6254 H   0  0  0  0  0  0  0  0  0  0  0  0
   58.8985   22.2199   44.3929 H   0  0  0  0  0  0  0  0  0  0  0  0
   57.7925   21.7144   45.3635 H   0  0  0  0  0  0  0  0  0  0  0  0
   58.1616   20.8980   42.2495 H   0  0  0  0  0  0  0  0  0  0  0  0
   56.9278   20.1633   42.8481 H   0  0  0  0  0  0  0  0  0  0  0  0
   57.6275   27.4333   43.6481 H   0  0  0  0  0  0  0  0  0  0  0  0
   59.6712   28.8737   43.5960 H   0  0  0  0  0  0  0  0  0  0  0  0
  1  2  1  0
  2  3  1  0
  3  4  2  0
  4  5  1  0
  5  6  2  0
  6  7  1  0
  7  8  2  0
  7  9  1  0
  9 10  1  0
 10 11  1  0
 11 12  1  0
 12 13  1  0
 13 14  2  0
 14 15  1  0
 15 16  2  0
 16 17  1  0
 17 18  1  0
 18 19  1  0
 19 20  1  0
 20 21  2  0
 20 22  1  0
 22 23  1  0
 23 24  1  0
 17 25  2  0
 25 26  1  0
 14 27  1  0
 27 28  2  0
 28 29  1  0
 29 30  2  0
 10 31  1  0
  8  3  1  0
 29 12  1  0
 31  6  1  0
 26 15  1  0
 24 22  1  0
  1 32  1  0
  1 33  1  0
  1 34  1  0
  4 35  1  0
  5 36  1  0
  8 37  1  0
  9 38  1  0
  9 39  1  0
 10 40  1  1
 11 41  1  0
 11 42  1  0
 16 43  1  0
 18 44  1  0
 18 45  1  0
 22 46  1  0
 23 47  1  0
 23 48  1  0
 24 49  1  0
 24 50  1  0
 27 51  1  0
 28 52  1  0
M  CHG  1  19  -1
M  END
>  <UniqueID>  (8) 
8

>  <SMILES>  (8) 
COc1ccc2c(c1)C[C@@H](Cn1nc(-c3cc(C[N-]C(=O)C4CC4)no3)ccc1=O)O2

>  <Energy>  (8) 
363.32017519680426

>  <Genealogy>  (8) 
COc1ccc2c(c1)CC(Cn1nc(-c3cc(C[N-]C(=O)C4CC4)no3)ccc1=O)O2 (protonated)
COc1ccc2c(c1)C[C@@H](Cn1nc(-c3cc(C[N-]C(=O)C4CC4)no3)ccc1=O)O2 (chirality)
COc1ccc2c(c1)C[C@@H](Cn1nc(-c3cc(C[N-]C(=O)C4CC4)no3)ccc1=O)O2 (3D coordinates assigned)
COc1ccc2c(c1)C[C@@H](Cn1nc(-c3cc(C[N-]C(=O)C4CC4)no3)ccc1=O)O2 (nonaromatic ring conformer: 363.32017519680426 kcal/mol)

>  <smiles>  (8) 
COc1ccc2c(c1)CC(Cn1nc(-c3cc(CNC(=O)C4CC4)no3)ccc1=O)O2

>  <score_type>  (8) 
oracle

>  <origin>  (8) 
adg

>  <m_score__min__energy>  (8) 
-11.970000000000001

>  <m_primary>  (8) 
energy

$$$$
8:0
     RDKit          3D

 61 64  0  0  0  0  0  0  0  0999 V2000
   57.0460   29.0000   43.3810 N   0  0  0  0  0  0  0  0  0  0  0  0
   57.0160   30.3010   43.9700 C   0  0  0  0  0  0  0  0  0  0  0  0
   56.1310   30.5790   44.8230 O   0  0  0  0  0  0  0  0  0  0  0  0
   58.0260   31.3390   43.5830 C   0  0  0  0  0  0  0  0  0  0  0  0
   58.2630   32.3070   44.7200 C   0  0  0  0  0  0  0  0  0  0  0  0
   58.0380   33.6780   44.5010 C   0  0  0  0  0  0  0  0  0  0  0  0
   58.3000   34.6120   45.5050 C   0  0  0  0  0  0  0  0  0  0  0  0
   58.8010   34.1950   46.7370 C   0  0  0  0  0  0  0  0  0  0  0  0
   59.0410   32.8410   46.9710 C   0  0  0  0  0  0  0  0  0  0  0  0
   58.7710   31.8860   45.9770 C   0  0  0  0  0  0  0  0  0  0  0  0
   59.0550   30.4670   46.2720 C   0  0  0  0  0  0  0  0  0  0  0  0
   58.1620   29.7050   47.0410 C   0  0  0  0  0  0  0  0  0  0  0  0
   58.4370   28.3620   47.3130 C   0  0  0  0  0  0  0  0  0  0  0  0
   59.6170   27.7700   46.8380 C   0  0  0  0  0  0  0  0  0  0  0  0
   59.8960   26.3150   47.1140 C   0  0  0  0  0  0  0  0  0  0  0  0
   59.4210   25.4560   46.0050 N   0  0  0  0  0  0  0  0  0  0  0  0
   58.5520   24.3440   46.4590 C   0  0  0  0  0  0  0  0  0  0  0  0
   57.1770   24.8300   46.9500 C   0  0  0  0  0  0  0  0  0  0  0  0
   56.6160   25.9740   46.0770 C   0  0  0  0  0  0  0  0  0  0  0  0
   55.1450   25.9330   45.9980 N   0  0  0  0  0  0  0  0  0  0  0  0
   54.4470   24.3390   45.8340 S   0  0  0  0  0  0  0  0  0  0  0  0
   54.2540   23.6950   47.1780 O   0  0  0  0  0  0  0  0  0  0  0  0
   53.1090   24.4620   45.1610 O   0  0  0  0  0  0  0  0  0  0  0  0
   55.4900   23.3400   44.8260 C   0  0  0  0  0  0  0  0  0  0  0  0
   55.6650   23.6340   43.4660 C   0  0  0  0  0  0  0  0  0  0  0  0
   56.4900   22.8280   42.6740 C   0  0  0  0  0  0  0  0  0  0  0  0
   57.1440   21.7290   43.2370 C   0  0  0  0  0  0  0  0  0  0  0  0
   56.9750   21.4340   44.5930 C   0  0  0  0  0  0  0  0  0  0  0  0
   56.1520   22.2380   45.3870 C   0  0  0  0  0  0  0  0  0  0  0  0
   57.3140   26.0630   44.7080 C   0  0  0  0  0  0  0  0  0  0  0  0
   58.8340   26.2480   44.8880 C   0  0  0  0  0  0  0  0  0  0  0  0
   60.5180   28.5380   46.0850 C   0  0  0  0  0  0  0  0  0  0  0  0
   60.2410   29.8800   45.8080 C   0  0  0  0  0  0  0  0  0  0  0  0
   57.7670   28.7510   42.6710 H   0  0  0  0  0  0  0  0  0  0  0  0
   56.3330   28.2850   43.6470 H   0  0  0  0  0  0  0  0  0  0  0  0
   58.9740   30.8426   43.3284 H   0  0  0  0  0  0  0  0  0  0  0  0
   57.6426   31.8988   42.7172 H   0  0  0  0  0  0  0  0  0  0  0  0
   57.6517   34.0178   43.5287 H   0  0  0  0  0  0  0  0  0  0  0  0
   58.1105   35.6802   45.3232 H   0  0  0  0  0  0  0  0  0  0  0  0
   59.0072   34.9341   47.5252 H   0  0  0  0  0  0  0  0  0  0  0  0
   59.4450   32.5185   47.9419 H   0  0  0  0  0  0  0  0  0  0  0  0
   57.2426   30.1662   47.4309 H   0  0  0  0  0  0  0  0  0  0  0  0
   57.7247   27.7661   47.9025 H   0  0  0  0  0  0  0  0  0  0  0  0
   60.9802   26.1750   47.2365 H   0  0  0  0  0  0  0  0  0  0  0  0
   59.3602   26.0266   48.0304 H   0  0  0  0  0  0  0  0  0  0  0  0
   58.4010   23.6496   45.6194 H   0  0  0  0  0  0  0  0  0  0  0  0
   59.0539   23.8535   47.3060 H   0  0  0  0  0  0  0  0  0  0  0  0
   56.4725   23.9856   46.9228 H   0  0  0  0  0  0  0  0  0  0  0  0
   57.3009   25.2156   47.9727 H   0  0  0  0  0  0  0  0  0  0  0  0
   56.8580   26.9215   46.5807 H   0  0  0  0  0  0  0  0  0  0  0  0
   55.1527   24.4998   43.0211 H   0  0  0  0  0  0  0  0  0  0  0  0
   56.6239   23.0597   41.6071 H   0  0  0  0  0  0  0  0  0  0  0  0
   57.7920   21.0958   42.6131 H   0  0  0  0  0  0  0  0  0  0  0  0
   57.4900   20.5686   45.0355 H   0  0  0  0  0  0  0  0  0  0  0  0
   56.0232   22.0058   46.4545 H   0  0  0  0  0  0  0  0  0  0  0  0
   57.1262   25.1368   44.1450 H   0  0  0  0  0  0  0  0  0  0  0  0
   56.9128   26.9280   44.1596 H   0  0  0  0  0  0  0  0  0  0  0  0
   59.3306   25.9463   43.9540 H   0  0  0  0  0  0  0  0  0  0  0  0
   58.9948   27.3077   45.1354 H   0  0  0  0  0  0  0  0  0  0  0  0
   61.4466   28.0821   45.7109 H   0  0  0  0  0  0  0  0  0  0  0  0
   60.9561   30.4778   45.2238 H   0  0  0  0  0  0  0  0  0  0  0  0
  1  2  1  0
  2  3  2  0
  2  4  1  0
  4  5  1  0
  5  6  2  0
  6  7  1  0
  7  8  2  0
  8  9  1  0
  9 10  2  0
 10 11  1  0
 11 12  2  0
 12 13  1  0
 13 14  2  0
 14 15  1  0
 15 16  1  0
 16 17  1  0
 17 18  1  0
 18 19  1  0
 19 20  1  0
 20 21  1  0
 21 22  2  0
 21 23  2  0
 21 24  1  0
 24 25  2  0
 25 26  1  0
 26 27  2  0
 27 28  1  0
 28 29  2  0
 19 30  1  0
 30 31  1  0
 14 32  1  0
 32 33  2  0
 10  5  1  0
 33 11  1  0
 31 16  1  0
 29 24  1  0
  1 34  1  0
  1 35  1  0
  4 36  1  0
  4 37  1  0
  6 38  1  0
  7 39  1  0
  8 40  1  0
  9 41  1  0
 12 42  1  0
 13 43  1  0
 15 44  1  0
 15 45  1  0
 17 46  1  0
 17 47  1  0
 18 48  1  0
 18 49  1  0
 19 50  1  0
 25 51  1  0
 26 52  1  0
 27 53  1  0
 28 54  1  0
 29 55  1  0
 30 56  1  0
 30 57  1  0
 31 58  1  0
 31 59  1  0
 32 60  1  0
 33 61  1  0
M  CHG  1  20  -1
M  END
>  <UniqueID>  (9) 
9

>  <SMILES>  (9) 
NC(=O)Cc1ccccc1-c1ccc(CN2CCC([N-]S(=O)(=O)c3ccccc3)CC2)cc1

>  <Energy>  (9) 
81.8552635476695

>  <Genealogy>  (9) 
NC(=O)Cc1ccccc1-c1ccc(CN2CCC([N-]S(=O)(=O)c3ccccc3)CC2)cc1 (protonated)
NC(=O)Cc1ccccc1-c1ccc(CN2CCC([N-]S(=O)(=O)c3ccccc3)CC2)cc1 (3D coordinates assigned)
NC(=O)Cc1ccccc1-c1ccc(CN2CCC([N-]S(=O)(=O)c3ccccc3)CC2)cc1 (nonaromatic ring conformer: 81.8552635476695 kcal/mol)

>  <smiles>  (9) 
NC(=O)Cc1ccccc1-c1ccc(CN2CCC(NS(=O)(=O)c3ccccc3)CC2)cc1

>  <score_type>  (9) 
oracle

>  <origin>  (9) 
adg

>  <m_score__min__energy>  (9) 
-12.65

>  <m_primary>  (9) 
energy

$$$$
9:0
     RDKit          3D

 49 51  0  0  0  0  0  0  0  0999 V2000
   51.3400   24.5080   44.4700 C   0  0  0  0  0  0  0  0  0  0  0  0
   51.8880   23.3220   45.1930 C   0  0  0  0  0  0  0  0  0  0  0  0
   51.4210   22.1760   44.9580 O   0  0  0  0  0  0  0  0  0  0  0  0
   52.9720   23.4890   46.1170 N   0  0  0  0  0  0  0  0  0  0  0  0
   53.5000   22.3950   46.9340 C   0  0  0  0  0  0  0  0  0  0  0  0
   54.4920   22.9060   47.9920 C   0  0  0  0  0  0  0  0  0  0  0  0
   55.6690   23.6700   47.4250 C   0  0  0  0  0  0  0  0  0  0  0  0
   55.4780   24.8430   46.7600 N   0  0  0  0  0  0  0  0  0  0  0  0
   56.5180   25.5670   46.2760 C   0  0  0  0  0  0  0  0  0  0  0  0
   56.2930   26.7800   45.6220 C   0  0  0  0  0  0  0  0  0  0  0  0
   57.3790   27.5500   45.1640 C   0  0  0  0  0  0  0  0  0  0  0  0
   57.1520   28.8630   44.5160 C   0  0  0  0  0  0  0  0  0  0  0  0
   57.2220   28.9530   43.2620 O   0  0  0  0  0  0  0  0  0  0  0  0
   56.8120   30.0350   45.2730 N   0  0  0  0  0  0  0  0  0  0  0  0
   57.7070   31.1040   45.6140 C   0  0  0  0  0  0  0  0  0  0  0  0
   58.5860   31.0160   46.7030 C   0  0  0  0  0  0  0  0  0  0  0  0
   59.4360   32.0800   47.0060 C   0  0  0  0  0  0  0  0  0  0  0  0
   59.4160   33.2380   46.2040 C   0  0  0  0  0  0  0  0  0  0  0  0
   60.2680   34.3730   46.4830 N   0  0  0  0  0  0  0  0  0  0  0  0
   59.7030   35.7240   46.3980 C   0  0  0  0  0  0  0  0  0  0  0  0
   61.6820   34.1970   46.8380 C   0  0  0  0  0  0  0  0  0  0  0  0
   58.5660   33.2820   45.1380 N   0  0  0  0  0  0  0  0  0  0  0  0
   57.7320   32.2550   44.8250 C   0  0  0  0  0  0  0  0  0  0  0  0
   58.6860   27.0550   45.3240 C   0  0  0  0  0  0  0  0  0  0  0  0
   58.9110   25.8320   45.9670 C   0  0  0  0  0  0  0  0  0  0  0  0
   57.8290   25.0930   46.4540 C   0  0  0  0  0  0  0  0  0  0  0  0
   58.0270   23.9170   47.1070 N   0  0  0  0  0  0  0  0  0  0  0  0
   56.9840   23.1960   47.5970 C   0  0  0  0  0  0  0  0  0  0  0  0
   57.2060   22.1160   48.2040 O   0  0  0  0  0  0  0  0  0  0  0  0
   50.9948   25.2551   45.1999 H   0  0  0  0  0  0  0  0  0  0  0  0
   52.1261   24.9480   43.8388 H   0  0  0  0  0  0  0  0  0  0  0  0
   50.4954   24.1946   43.8388 H   0  0  0  0  0  0  0  0  0  0  0  0
   53.4280   24.4270   46.1870 H   0  0  0  0  0  0  0  0  0  0  0  0
   52.6634   21.8931   47.4421 H   0  0  0  0  0  0  0  0  0  0  0  0
   54.0330   21.6972   46.2714 H   0  0  0  0  0  0  0  0  0  0  0  0
   53.9494   23.5705   48.6804 H   0  0  0  0  0  0  0  0  0  0  0  0
   54.9048   22.0173   48.4919 H   0  0  0  0  0  0  0  0  0  0  0  0
   55.2639   27.1351   45.4641 H   0  0  0  0  0  0  0  0  0  0  0  0
   58.6054   30.1056   47.3200 H   0  0  0  0  0  0  0  0  0  0  0  0
   60.1181   32.0151   47.8665 H   0  0  0  0  0  0  0  0  0  0  0  0
   59.5386   36.1171   47.4121 H   0  0  0  0  0  0  0  0  0  0  0  0
   60.4020   36.3805   45.8591 H   0  0  0  0  0  0  0  0  0  0  0  0
   58.7448   35.6875   45.8591 H   0  0  0  0  0  0  0  0  0  0  0  0
   61.7863   34.1840   47.9330 H   0  0  0  0  0  0  0  0  0  0  0  0
   62.0485   33.2463   46.4235 H   0  0  0  0  0  0  0  0  0  0  0  0
   62.2704   35.0288   46.4235 H   0  0  0  0  0  0  0  0  0  0  0  0
   57.0744   32.3315   43.9465 H   0  0  0  0  0  0  0  0  0  0  0  0
   59.5389   27.6341   44.9404 H   0  0  0  0  0  0  0  0  0  0  0  0
   59.9366   25.4535   46.0887 H   0  0  0  0  0  0  0  0  0  0  0  0
  1  2  1  0
  2  3  2  0
  2  4  1  0
  4  5  1  0
  5  6  1  0
  6  7  1  0
  7  8  2  0
  8  9  1  0
  9 10  2  0
 10 11  1  0
 11 12  1  0
 12 13  2  0
 12 14  1  0
 14 15  1  0
 15 16  2  0
 16 17  1  0
 17 18  2  0
 18 19  1  0
 19 20  1  0
 19 21  1  0
 18 22  1  0
 22 23  2  0
 11 24  2  0
 24 25  1  0
 25 26  2  0
 26 27  1  0
 27 28  1  0
 28 29  2  0
 28  7  1  0
 26  9  1  0
 23 15  1  0
  1 30  1  0
  1 31  1  0
  1 32  1  0
  4 33  1  0
  5 34  1  0
  5 35  1  0
  6 36  1  0
  6 37  1  0
 10 38  1  0
 16 39  1  0
 17 40  1  0
 20 41  1  0
 20 42  1  0
 20 43  1  0
 21 44  1  0
 21 45  1  0
 21 46  1  0
 23 47  1  0
 24 48  1  0
 25 49  1  0
M  CHG  2  14  -1  27  -1
M  END
>  <UniqueID>  (10) 
10

>  <SMILES>  (10) 
CC(=O)NCCc1nc2cc(C(=O)[N-]c3ccc(N(C)C)nc3)ccc2[n-]c1=O

>  <Energy>  (10) 
54.67393849951407

>  <Genealogy>  (10) 
CC(=O)NCCc1nc2cc(C(=O)[N-]c3ccc(N(C)C)nc3)ccc2[n-]c1=O (protonated)
CC(=O)NCCc1nc2cc(C(=O)[N-]c3ccc(N(C)C)nc3)ccc2[n-]c1=O (3D coordinates assigned)
CC(=O)NCCc1nc2cc(C(=O)[N-]c3ccc(N(C)C)nc3)ccc2[n-]c1=O (optimized conformer: 54.67393849951407 kcal/mol)

>  <smiles>  (10) 
CC(=O)NCCc1nc2cc(C(=O)Nc3ccc(N(C)C)nc3)ccc2[nH]c1=O

>  <score_type>  (10) 
oracle

>  <origin>  (10) 
adg

>  <m_score__min__energy>  (10) 
-10.91

>  <m_primary>  (10) 
energy

$$$$
10:0
     RDKit          3D

 59 63  0  0  0  0  0  0  0  0999 V2000
   58.1320   26.2560   44.5500 O   0  0  0  0  0  0  0  0  0  0  0  0
   57.0560   26.1490   45.2340 C   0  0  0  0  0  0  0  0  0  0  0  0
   56.7160   27.2810   46.0150 N   0  0  0  0  0  0  0  0  0  0  0  0
   57.6070   28.3950   45.9350 C   0  0  0  0  0  0  0  0  0  0  0  0
   57.2350   29.3730   45.0010 C   0  0  0  0  0  0  0  0  0  0  0  0
   58.0690   30.4580   44.8680 C   0  0  0  0  0  0  0  0  0  0  0  0
   59.2250   30.5670   45.6320 C   0  0  0  0  0  0  0  0  0  0  0  0
   59.6060   29.6210   46.5500 C   0  0  0  0  0  0  0  0  0  0  0  0
   60.8060   29.6490   47.3800 C   0  0  0  0  0  0  0  0  0  0  0  0
   61.4780   30.9440   47.4800 C   0  0  0  0  0  0  0  0  0  0  0  0
   62.7760   31.0230   47.0890 N   0  0  0  0  0  0  0  0  0  0  0  0
   63.4770   32.1270   47.1630 N   0  0  0  0  0  0  0  0  0  0  0  0
   62.9930   33.2760   47.6230 C   0  0  0  0  0  0  0  0  0  0  0  0
   63.6830   34.3450   47.6900 O   0  0  0  0  0  0  0  0  0  0  0  0
   61.6630   33.2790   48.0460 C   0  0  0  0  0  0  0  0  0  0  0  0
   60.9230   32.1050   47.9650 C   0  0  0  0  0  0  0  0  0  0  0  0
   59.5250   32.1310   48.3860 C   0  0  0  0  0  0  0  0  0  0  0  0
   58.9440   33.4910   47.9670 C   0  0  0  0  0  0  0  0  0  0  0  0
   59.6480   34.5840   48.7100 C   0  0  0  0  0  0  0  0  0  0  0  0
   61.1320   34.5500   48.5550 C   0  0  0  0  0  0  0  0  0  0  0  0
   58.7530   28.5190   46.6800 C   0  0  0  0  0  0  0  0  0  0  0  0
   56.2930   24.9220   45.1560 C   0  0  0  0  0  0  0  0  0  0  0  0
   56.6170   24.0510   44.1220 C   0  0  0  0  0  0  0  0  0  0  0  0
   55.9540   22.8550   43.9270 C   0  0  0  0  0  0  0  0  0  0  0  0
   56.2310   22.0640   43.0070 O   0  0  0  0  0  0  0  0  0  0  0  0
   54.9680   22.5570   44.7860 N   0  0  0  0  0  0  0  0  0  0  0  0
   54.6470   23.3930   45.7900 C   0  0  0  0  0  0  0  0  0  0  0  0
   53.5790   22.9880   46.6410 N   0  0  0  0  0  0  0  0  0  0  0  0
   52.1780   22.9360   46.2700 C   0  0  0  0  0  0  0  0  0  0  0  0
   51.6150   21.8210   47.0940 C   0  0  0  0  0  0  0  0  0  0  0  0
   52.5750   21.5870   48.2090 C   0  0  0  0  0  0  0  0  0  0  0  0
   53.7220   22.5500   48.0250 C   0  0  0  0  0  0  0  0  0  0  0  0
   55.3100   24.5700   45.9720 N   0  0  0  0  0  0  0  0  0  0  0  0
   55.8580   27.2600   46.5990 H   0  0  0  0  0  0  0  0  0  0  0  0
   56.3175   29.2763   44.4020 H   0  0  0  0  0  0  0  0  0  0  0  0
   57.8180   31.2503   44.1474 H   0  0  0  0  0  0  0  0  0  0  0  0
   59.8636   31.4520   45.4944 H   0  0  0  0  0  0  0  0  0  0  0  0
   60.5218   29.3365   48.3956 H   0  0  0  0  0  0  0  0  0  0  0  0
   61.5248   28.9753   46.8906 H   0  0  0  0  0  0  0  0  0  0  0  0
   64.4860   32.1350   46.8440 H   0  0  0  0  0  0  0  0  0  0  0  0
   58.9696   31.3178   47.8959 H   0  0  0  0  0  0  0  0  0  0  0  0
   59.4445   31.9929   49.4743 H   0  0  0  0  0  0  0  0  0  0  0  0
   59.0853   33.6327   46.8854 H   0  0  0  0  0  0  0  0  0  0  0  0
   57.8700   33.5196   48.2029 H   0  0  0  0  0  0  0  0  0  0  0  0
   59.2811   35.5513   48.3362 H   0  0  0  0  0  0  0  0  0  0  0  0
   59.4312   34.4400   49.7788 H   0  0  0  0  0  0  0  0  0  0  0  0
   61.4226   35.3481   47.8560 H   0  0  0  0  0  0  0  0  0  0  0  0
   61.5545   34.6843   49.5617 H   0  0  0  0  0  0  0  0  0  0  0  0
   59.0088   27.7285   47.4009 H   0  0  0  0  0  0  0  0  0  0  0  0
   57.4308   24.3242   43.4342 H   0  0  0  0  0  0  0  0  0  0  0  0
   51.6772   23.8863   46.5071 H   0  0  0  0  0  0  0  0  0  0  0  0
   52.0360   22.7729   45.1915 H   0  0  0  0  0  0  0  0  0  0  0  0
   50.6306   22.1049   47.4944 H   0  0  0  0  0  0  0  0  0  0  0  0
   51.4799   20.9115   46.4902 H   0  0  0  0  0  0  0  0  0  0  0  0
   52.0815   21.7699   49.1749 H   0  0  0  0  0  0  0  0  0  0  0  0
   52.9348   20.5475   48.2006 H   0  0  0  0  0  0  0  0  0  0  0  0
   53.6366   23.4004   48.7175 H   0  0  0  0  0  0  0  0  0  0  0  0
   54.7017   22.0945   48.2316 H   0  0  0  0  0  0  0  0  0  0  0  0
   55.0520   25.1990   46.7470 H   0  0  0  0  0  0  0  0  0  0  0  0
  1  2  2  0
  2  3  1  0
  3  4  1  0
  4  5  2  0
  5  6  1  0
  6  7  2  0
  7  8  1  0
  8  9  1  0
  9 10  1  0
 10 11  2  0
 11 12  1  0
 12 13  1  0
 13 14  2  0
 13 15  1  0
 15 16  2  0
 16 17  1  0
 17 18  1  0
 18 19  1  0
 19 20  1  0
  8 21  2  0
  2 22  1  0
 22 23  2  0
 23 24  1  0
 24 25  2  0
 24 26  1  0
 26 27  2  0
 27 28  1  0
 28 29  1  0
 29 30  1  0
 30 31  1  0
 31 32  1  0
 27 33  1  0
 21  4  1  0
 33 22  1  0
 16 10  1  0
 32 28  1  0
 20 15  1  0
  3 34  1  0
  5 35  1  0
  6 36  1  0
  7 37  1  0
  9 38  1  0
  9 39  1  0
 12 40  1  0
 17 41  1  0
 17 42  1  0
 18 43  1  0
 18 44  1  0
 19 45  1  0
 19 46  1  0
 20 47  1  0
 20 48  1  0
 21 49  1  0
 23 50  1  0
 29 51  1  0
 29 52  1  0
 30 53  1  0
 30 54  1  0
 31 55  1  0
 31 56  1  0
 32 57  1  0
 32 58  1  0
 33 59  1  0
M  END
>  <smiles>  (11) 
O=C(Nc1cccc(Cc2n[nH]c(=O)c3c2CCCC3)c1)c1cc(=O)nc(N2CCCC2)[nH]1

>  <score_type>  (11) 
oracle

>  <origin>  (11) 
adg

>  <m_score__min__energy>  (11) 
-9.8699999999999992

>  <m_primary>  (11) 
energy

$$$$
11:0
     RDKit          3D

 50 53  0  0  0  0  0  0  0  0999 V2000
   52.8284   28.6288   53.5758 H   0  0  0  0  0  0  0  0  0  0  0  0
   53.9070   28.4490   53.4560 C   0  0  0  0  0  0  0  0  0  0  0  0
   54.3516   27.5102   53.8180 H   0  0  0  0  0  0  0  0  0  0  0  0
   54.6780   29.3720   52.8700 C   0  0  0  0  0  0  0  0  0  0  0  0
   54.2770   30.6110   52.3660 C   0  0  0  0  0  0  0  0  0  0  0  0
   53.0410   31.1440   52.3970 C   0  0  0  0  0  0  0  0  0  0  0  0
   52.6714   31.5349   53.3565 H   0  0  0  0  0  0  0  0  0  0  0  0
   52.1530   31.2360   51.2250 C   0  0  0  0  0  0  0  0  0  0  0  0
   52.1830   30.3580   50.2070 N   0  0  0  0  0  0  0  0  0  0  0  0
   51.2850   30.8610   49.3310 C   0  0  0  0  0  0  0  0  0  0  0  0
   51.0190   30.3000   48.2370 O   0  0  0  0  0  0  0  0  0  0  0  0
   50.7050   32.0170   49.7170 N   0  0  0  0  0  0  0  0  0  0  0  0
   51.2730   32.2490   50.9110 C   0  0  0  0  0  0  0  0  0  0  0  0
   51.0270   33.3860   51.6710 O   0  0  0  0  0  0  0  0  0  0  0  0
   55.4300   31.2160   51.8840 C   0  0  0  0  0  0  0  0  0  0  0  0
   55.5072   32.2149   51.4297 H   0  0  0  0  0  0  0  0  0  0  0  0
   56.4620   30.3190   52.0860 C   0  0  0  0  0  0  0  0  0  0  0  0
   57.8790   30.5870   51.7690 C   0  0  0  0  0  0  0  0  0  0  0  0
   58.7660   30.1670   52.5580 O   0  0  0  0  0  0  0  0  0  0  0  0
   58.2870   31.3480   50.6240 N   0  0  0  0  0  0  0  0  0  0  0  0
   58.8920   32.6730   50.6560 C   0  0  0  0  0  0  0  0  0  0  0  0
   58.2104   33.3766   51.1564 H   0  0  0  0  0  0  0  0  0  0  0  0
   59.8422   32.6321   51.2087 H   0  0  0  0  0  0  0  0  0  0  0  0
   59.1460   33.1340   49.2500 C   0  0  0  0  0  0  0  0  0  0  0  0
   60.3040   33.8660   48.9440 C   0  0  0  0  0  0  0  0  0  0  0  0
   61.0079   34.1374   49.7445 H   0  0  0  0  0  0  0  0  0  0  0  0
   60.5660   34.2510   47.6280 C   0  0  0  0  0  0  0  0  0  0  0  0
   61.4742   34.8260   47.3946 H   0  0  0  0  0  0  0  0  0  0  0  0
   59.6760   33.9070   46.6060 C   0  0  0  0  0  0  0  0  0  0  0  0
   59.8895   34.2082   45.5698 H   0  0  0  0  0  0  0  0  0  0  0  0
   58.5110   33.1790   46.8960 C   0  0  0  0  0  0  0  0  0  0  0  0
   57.5870   32.8020   45.8070 C   0  0  0  0  0  0  0  0  0  0  0  0
   56.7420   33.6470   45.4040 O   0  0  0  0  0  0  0  0  0  0  0  0
   57.6180   31.4920   45.2090 N   0  0  0  0  0  0  0  0  0  0  0  0
   58.1070   30.3010   45.8890 C   0  0  0  0  0  0  0  0  0  0  0  0
   59.2067   30.2771   45.8796 H   0  0  0  0  0  0  0  0  0  0  0  0
   57.7951   30.2759   46.9436 H   0  0  0  0  0  0  0  0  0  0  0  0
   57.5420   29.1240   45.1040 C   0  0  0  0  0  0  0  0  0  0  0  0
   58.3075   28.3442   44.9781 H   0  0  0  0  0  0  0  0  0  0  0  0
   56.6911   28.6602   45.6244 H   0  0  0  0  0  0  0  0  0  0  0  0
   57.1320   29.6900   43.7490 C   0  0  0  0  0  0  0  0  0  0  0  0
   57.9273   29.5246   43.0073 H   0  0  0  0  0  0  0  0  0  0  0  0
   56.2248   29.2028   43.3622 H   0  0  0  0  0  0  0  0  0  0  0  0
   56.9180   31.1800   43.9750 C   0  0  0  0  0  0  0  0  0  0  0  0
   57.3367   31.7593   43.1389 H   0  0  0  0  0  0  0  0  0  0  0  0
   55.8493   31.4330   44.0379 H   0  0  0  0  0  0  0  0  0  0  0  0
   58.2650   32.7750   48.2180 C   0  0  0  0  0  0  0  0  0  0  0  0
   57.3740   32.1719   48.4469 H   0  0  0  0  0  0  0  0  0  0  0  0
   56.0040   29.2070   52.6960 N   0  0  0  0  0  0  0  0  0  0  0  0
   56.5700   28.3980   53.0310 H   0  0  0  0  0  0  0  0  0  0  0  0
  1  2  1  0
  2  3  1  0
  2  4  2  0
  4  5  1  0
  5  6  2  0
  6  7  1  0
  6  8  1  0
  8  9  1  0
  9 10  1  0
 10 11  2  0
 10 12  1  0
 12 13  1  0
 13 14  1  0
  5 15  1  0
 15 16  1  0
 15 17  2  0
 17 18  1  0
 18 19  2  0
 18 20  1  0
 20 21  1  0
 21 22  1  0
 21 23  1  0
 21 24  1  0
 24 25  2  0
 25 26  1  0
 25 27  1  0
 27 28  1  0
 27 29  2  0
 29 30  1  0
 29 31  1  0
 31 32  1  0
 32 33  2  0
 32 34  1  0
 34 35  1  0
 35 36  1  0
 35 37  1  0
 35 38  1  0
 38 39  1  0
 38 40  1  0
 38 41  1  0
 41 42  1  0
 41 43  1  0
 41 44  1  0
 44 45  1  0
 44 46  1  0
 31 47  2  0
 47 48  1  0
 17 49  1  0
 49 50  1  0
 49  4  1  0
 13  8  2  0
 47 24  1  0
 44 34  1  0
M  CHG  4   9  -1  12  -1  14  -1  20  -1
M  END
>  <UniqueID>  (12) 
11

>  <SMILES>  (12) 
C=c1[nH]c(C(=O)[N-]Cc2cccc(C(=O)N3CCCC3)c2)c/c1=C\c1[n-]c(=O)[n-]c1[O-]

>  <Energy>  (12) 
121.91318310880533

>  <Genealogy>  (12) 
C=c1[nH]c(C(=O)[N-]Cc2cccc(C(=O)N3CCCC3)c2)cc1=Cc1[n-]c(=O)[n-]c1[O-] (protonated)
C=c1[nH]c(C(=O)[N-]Cc2cccc(C(=O)N3CCCC3)c2)c/c1=C\c1[n-]c(=O)[n-]c1[O-] (cis-trans isomerization)
C=c1[nH]c(C(=O)[N-]Cc2cccc(C(=O)N3CCCC3)c2)c/c1=C\c1[n-]c(=O)[n-]c1[O-] (3D coordinates assigned)
C=c1[nH]c(C(=O)[N-]Cc2cccc(C(=O)N3CCCC3)c2)c/c1=C\c1[n-]c(=O)[n-]c1[O-] (nonaromatic ring conformer: 121.91318310880533 kcal/mol)

>  <smiles>  (12) 
C=c1[nH]c(C(=O)NCc2cccc(C(=O)N3CCCC3)c2)cc1=Cc1[nH]c(=O)[nH]c1O

>  <score_type>  (12) 
oracle

>  <origin>  (12) 
adg

>  <m_score__min__energy>  (12) 
-19.829999999999998

>  <m_primary>  (12) 
energy

$$$$
12:0
     RDKit          3D

 61 66  0  0  0  0  0  0  0  0999 V2000
   57.9598   35.7932   44.5290 H   0  0  0  0  0  0  0  0  0  0  0  0
   58.4260   34.8940   44.9580 C   0  0  0  0  0  0  0  0  0  0  0  0
   59.6430   34.9980   45.6350 C   0  0  0  0  0  0  0  0  0  0  0  0
   60.1269   35.9799   45.7434 H   0  0  0  0  0  0  0  0  0  0  0  0
   60.2530   33.8530   46.1790 C   0  0  0  0  0  0  0  0  0  0  0  0
   61.5360   33.9360   46.9100 C   0  0  0  0  0  0  0  0  0  0  0  0
   62.5980   34.1330   46.2590 O   0  0  0  0  0  0  0  0  0  0  0  0
   61.5890   33.7880   48.3410 N   0  0  0  0  0  0  0  0  0  0  0  0
   60.7040   33.8560   48.8900 H   0  0  0  0  0  0  0  0  0  0  0  0
   62.8010   33.5590   49.0800 C   0  0  0  0  0  0  0  0  0  0  0  0
   63.0080   34.2400   50.2890 C   0  0  0  0  0  0  0  0  0  0  0  0
   62.2603   34.9657   50.6417 H   0  0  0  0  0  0  0  0  0  0  0  0
   64.1590   34.0030   51.0500 C   0  0  0  0  0  0  0  0  0  0  0  0
   64.3158   34.5469   51.9932 H   0  0  0  0  0  0  0  0  0  0  0  0
   65.1100   33.0750   50.6120 C   0  0  0  0  0  0  0  0  0  0  0  0
   66.2910   32.8240   51.3980 C   0  0  0  0  0  0  0  0  0  0  0  0
   67.2410   32.6230   52.0300 N   0  0  0  0  0  0  0  0  0  0  0  0
   64.9020   32.3760   49.4160 C   0  0  0  0  0  0  0  0  0  0  0  0
   65.6459   31.6422   49.0721 H   0  0  0  0  0  0  0  0  0  0  0  0
   63.7490   32.6100   48.6580 C   0  0  0  0  0  0  0  0  0  0  0  0
   63.5834   32.0484   47.7268 H   0  0  0  0  0  0  0  0  0  0  0  0
   59.6270   32.6060   46.0150 C   0  0  0  0  0  0  0  0  0  0  0  0
   60.1115   31.6995   46.4068 H   0  0  0  0  0  0  0  0  0  0  0  0
   58.3900   32.5020   45.3570 C   0  0  0  0  0  0  0  0  0  0  0  0
   57.7390   31.2240   45.2370 N   0  0  0  0  0  0  0  0  0  0  0  0
   57.7700   30.2730   46.3580 C   0  0  0  0  0  0  0  0  0  0  0  0
   56.7675   30.1992   46.8047 H   0  0  0  0  0  0  0  0  0  0  0  0
   58.4838   30.6235   47.1181 H   0  0  0  0  0  0  0  0  0  0  0  0
   58.1970   28.9170   45.8520 C   0  0  0  0  0  0  0  0  0  0  0  0
   59.0740   28.0520   46.5560 C   0  0  0  0  0  0  0  0  0  0  0  0
   59.7850   28.4610   47.7840 C   0  0  0  0  0  0  0  0  0  0  0  0
   60.0930   27.5940   48.6470 O   0  0  0  0  0  0  0  0  0  0  0  0
   60.0530   29.8540   48.0100 N   0  0  0  0  0  0  0  0  0  0  0  0
   59.6220   30.5630   49.0130 C   0  0  0  0  0  0  0  0  0  0  0  0
   59.9800   31.8510   49.2420 N   0  0  0  0  0  0  0  0  0  0  0  0
   59.3570   32.3310   50.3480 C   0  0  0  0  0  0  0  0  0  0  0  0
   59.5170   33.6250   50.8460 C   0  0  0  0  0  0  0  0  0  0  0  0
   60.1863   34.3395   50.3444 H   0  0  0  0  0  0  0  0  0  0  0  0
   58.8080   33.9980   51.9990 C   0  0  0  0  0  0  0  0  0  0  0  0
   58.9218   35.0136   52.4059 H   0  0  0  0  0  0  0  0  0  0  0  0
   57.9520   33.0800   52.6380 C   0  0  0  0  0  0  0  0  0  0  0  0
   57.4011   33.3828   53.5406 H   0  0  0  0  0  0  0  0  0  0  0  0
   57.7980   31.7800   52.1290 C   0  0  0  0  0  0  0  0  0  0  0  0
   57.1316   31.0557   52.6202 H   0  0  0  0  0  0  0  0  0  0  0  0
   58.5120   31.4340   50.9860 C   0  0  0  0  0  0  0  0  0  0  0  0
   58.5260   29.9720   50.1560 S   0  0  0  0  0  0  0  0  0  0  0  0
   59.2950   26.7550   46.0630 C   0  0  0  0  0  0  0  0  0  0  0  0
   59.9580   26.0702   46.6120 H   0  0  0  0  0  0  0  0  0  0  0  0
   58.6830   26.3260   44.8850 C   0  0  0  0  0  0  0  0  0  0  0  0
   58.8653   25.3072   44.5124 H   0  0  0  0  0  0  0  0  0  0  0  0
   57.8410   27.1840   44.1780 C   0  0  0  0  0  0  0  0  0  0  0  0
   57.3662   26.8427   43.2463 H   0  0  0  0  0  0  0  0  0  0  0  0
   57.5990   28.4790   44.6520 C   0  0  0  0  0  0  0  0  0  0  0  0
   56.6310   29.3900   43.9400 C   0  0  0  0  0  0  0  0  0  0  0  0
   55.6553   29.3434   44.4458 H   0  0  0  0  0  0  0  0  0  0  0  0
   56.5409   29.0569   42.8955 H   0  0  0  0  0  0  0  0  0  0  0  0
   57.1330   30.8460   43.9480 C   0  0  0  0  0  0  0  0  0  0  0  0
   56.2823   31.5141   43.7481 H   0  0  0  0  0  0  0  0  0  0  0  0
   57.9083   30.9378   43.1731 H   0  0  0  0  0  0  0  0  0  0  0  0
   57.7980   33.6540   44.8230 C   0  0  0  0  0  0  0  0  0  0  0  0
   56.8354   33.5815   44.2957 H   0  0  0  0  0  0  0  0  0  0  0  0
  1  2  1  0
  2  3  2  0
  3  4  1  0
  3  5  1  0
  5  6  1  0
  6  7  2  0
  6  8  1  0
  8  9  1  0
  8 10  1  0
 10 11  2  0
 11 12  1  0
 11 13  1  0
 13 14  1  0
 13 15  2  0
 15 16  1  0
 16 17  3  0
 15 18  1  0
 18 19  1  0
 18 20  2  0
 20 21  1  0
  5 22  2  0
 22 23  1  0
 22 24  1  0
 24 25  1  0
 25 26  1  0
 26 27  1  0
 26 28  1  0
 26 29  1  0
 29 30  2  0
 30 31  1  0
 31 32  2  0
 31 33  1  0
 33 34  2  0
 34 35  1  0
 35 36  1  0
 36 37  2  0
 37 38  1  0
 37 39  1  0
 39 40  1  0
 39 41  2  0
 41 42  1  0
 41 43  1  0
 43 44  1  0
 43 45  2  0
 45 46  1  0
 30 47  1  0
 47 48  1  0
 47 49  2  0
 49 50  1  0
 49 51  1  0
 51 52  1  0
 51 53  2  0
 53 54  1  0
 54 55  1  0
 54 56  1  0
 54 57  1  0
 57 58  1  0
 57 59  1  0
 24 60  2  0
 60 61  1  0
 60  2  1  0
 20 10  1  0
 57 25  1  0
 53 29  1  0
 46 34  1  0
 45 36  1  0
M  CHG  1  35  -1
M  END
>  <UniqueID>  (13) 
12

>  <SMILES>  (13) 
N#Cc1ccc(NC(=O)c2cccc(N3CCc4cccc(C(=O)/N=c5\[n-]c6ccccc6s5)c4C3)c2)cc1

>  <Energy>  (13) 
126.73494868958052

>  <Genealogy>  (13) 
N#Cc1ccc(NC(=O)c2cccc(N3CCc4cccc(C(=O)N=c5[n-]c6ccccc6s5)c4C3)c2)cc1 (protonated)
N#Cc1ccc(NC(=O)c2cccc(N3CCc4cccc(C(=O)/N=c5\[n-]c6ccccc6s5)c4C3)c2)cc1 (cis-trans isomerization)
N#Cc1ccc(NC(=O)c2cccc(N3CCc4cccc(C(=O)/N=c5\[n-]c6ccccc6s5)c4C3)c2)cc1 (3D coordinates assigned)
N#Cc1ccc(NC(=O)c2cccc(N3CCc4cccc(C(=O)/N=c5\[n-]c6ccccc6s5)c4C3)c2)cc1 (nonaromatic ring conformer: 126.73494868958052 kcal/mol)

>  <smiles>  (13) 
N#Cc1ccc(NC(=O)c2cccc(N3CCc4cccc(C(=O)N=c5[nH]c6ccccc6s5)c4C3)c2)cc1

>  <score_type>  (13) 
oracle

>  <origin>  (13) 
adg

>  <m_score__min__energy>  (13) 
-12.34

>  <m_primary>  (13) 
energy

$$$$
13:0
     RDKit          3D

 35 36  0  0  0  0  0  0  0  0999 V2000
   57.0840   33.8330   45.6690 N   0  0  0  0  0  0  0  0  0  0  0  0
   58.7430   33.8680   46.1500 S   0  0  0  0  0  0  0  0  0  0  0  0
   59.0070   35.1100   46.9530 O   0  0  0  0  0  0  0  0  0  0  0  0
   59.6180   33.8890   44.9280 O   0  0  0  0  0  0  0  0  0  0  0  0
   59.1040   32.4410   47.1150 C   0  0  0  0  0  0  0  0  0  0  0  0
   58.6150   32.3290   48.4230 C   0  0  0  0  0  0  0  0  0  0  0  0
   58.8890   31.1880   49.1820 C   0  0  0  0  0  0  0  0  0  0  0  0
   59.6550   30.1440   48.6420 C   0  0  0  0  0  0  0  0  0  0  0  0
   59.9280   28.9040   49.4570 C   0  0  0  0  0  0  0  0  0  0  0  0
   60.2180   27.6920   48.5620 C   0  0  0  0  0  0  0  0  0  0  0  0
   59.1220   27.4350   47.6280 N   0  0  0  0  0  0  0  0  0  0  0  0
   59.2460   26.4690   46.5760 C   0  0  0  0  0  0  0  0  0  0  0  0
   60.3150   25.8160   46.4360 O   0  0  0  0  0  0  0  0  0  0  0  0
   58.1200   26.2630   45.6110 C   0  0  0  0  0  0  0  0  0  0  0  0
   57.3830   27.5470   45.4020 C   0  0  0  0  0  0  0  0  0  0  0  0
   58.0640   28.9750   44.8210 S   0  0  0  0  0  0  0  0  0  0  0  0
   56.5850   29.7760   44.8250 C   0  0  0  0  0  0  0  0  0  0  0  0
   56.4260   30.9740   44.4750 O   0  0  0  0  0  0  0  0  0  0  0  0
   55.5690   28.9920   45.2440 N   0  0  0  0  0  0  0  0  0  0  0  0
   56.0140   27.7470   45.5590 C   0  0  0  0  0  0  0  0  0  0  0  0
   55.1500   26.7530   46.0000 O   0  0  0  0  0  0  0  0  0  0  0  0
   60.1350   30.2540   47.3260 C   0  0  0  0  0  0  0  0  0  0  0  0
   59.8610   31.3950   46.5680 C   0  0  0  0  0  0  0  0  0  0  0  0
   56.8420   32.8350   45.4830 H   0  0  0  0  0  0  0  0  0  0  0  0
   58.0130   33.1424   48.8543 H   0  0  0  0  0  0  0  0  0  0  0  0
   58.5019   31.1080   50.2085 H   0  0  0  0  0  0  0  0  0  0  0  0
   60.7988   29.0866   50.1038 H   0  0  0  0  0  0  0  0  0  0  0  0
   59.0327   28.6825   50.0565 H   0  0  0  0  0  0  0  0  0  0  0  0
   61.1372   27.8837   47.9890 H   0  0  0  0  0  0  0  0  0  0  0  0
   60.3330   26.8087   49.2074 H   0  0  0  0  0  0  0  0  0  0  0  0
   58.2270   27.9700   47.7080 H   0  0  0  0  0  0  0  0  0  0  0  0
   58.5240   25.9144   44.6491 H   0  0  0  0  0  0  0  0  0  0  0  0
   57.4277   25.5121   46.0195 H   0  0  0  0  0  0  0  0  0  0  0  0
   60.7296   29.4375   46.8904 H   0  0  0  0  0  0  0  0  0  0  0  0
   60.2404   31.4732   45.5385 H   0  0  0  0  0  0  0  0  0  0  0  0
  1  2  1  0
  2  3  2  0
  2  4  2  0
  2  5  1  0
  5  6  2  0
  6  7  1  0
  7  8  2  0
  8  9  1  0
  9 10  1  0
 10 11  1  0
 11 12  1  0
 12 13  2  0
 12 14  1  0
 14 15  1  0
 15 16  1  0
 16 17  1  0
 17 18  2  0
 17 19  1  0
 19 20  1  0
 20 21  1  0
  8 22  1  0
 22 23  2  0
 23  5  1  0
 20 15  2  0
  1 24  1  0
  6 25  1  0
  7 26  1  0
  9 27  1  0
  9 28  1  0
 10 29  1  0
 10 30  1  0
 11 31  1  0
 14 32  1  0
 14 33  1  0
 22 34  1  0
 23 35  1  0
M  CHG  3   1  -1  19  -1  21  -1
M  END
>  <UniqueID>  (14) 
13

>  <SMILES>  (14) 
[NH-]S(=O)(=O)c1ccc(CCNC(=O)Cc2sc(=O)[n-]c2[O-])cc1

>  <Energy>  (14) 
58.473271719244735

>  <Genealogy>  (14) 
[NH-]S(=O)(=O)c1ccc(CCNC(=O)Cc2sc(=O)[n-]c2[O-])cc1 (protonated)
[NH-]S(=O)(=O)c1ccc(CCNC(=O)Cc2sc(=O)[n-]c2[O-])cc1 (3D coordinates assigned)
[NH-]S(=O)(=O)c1ccc(CCNC(=O)Cc2sc(=O)[n-]c2[O-])cc1 (optimized conformer: 58.473271719244735 kcal/mol)

>  <smiles>  (14) 
NS(=O)(=O)c1ccc(CCNC(=O)Cc2sc(=O)[nH]c2O)cc1

>  <score_type>  (14) 
oracle

>  <origin>  (14) 
adg

>  <m_score__min__energy>  (14) 
-14.81

>  <m_primary>  (14) 
energy

$$$$
14:0
     RDKit          3D

 64 67  0  0  0  0  0  0  0  0999 V2000
   60.0210   34.8100   47.1470 C   0  0  0  0  0  0  0  0  0  0  0  0
   60.2700   34.5660   48.6320 C   0  0  0  0  0  0  0  0  0  0  0  0
   61.6600   33.9590   48.8730 C   0  0  0  0  0  0  0  0  0  0  0  0
   61.8090   33.3790   50.2910 C   0  0  0  0  0  0  0  0  0  0  0  0
   60.4780   32.9300   50.8600 C   0  0  0  0  0  0  0  0  0  0  0  0
   59.9090   33.7380   51.7860 N   0  0  0  0  0  0  0  0  0  0  0  0
   58.6940   33.4710   52.3060 C   0  0  0  0  0  0  0  0  0  0  0  0
   58.2060   34.2670   53.1530 O   0  0  0  0  0  0  0  0  0  0  0  0
   58.0050   32.3630   51.9020 N   0  0  0  0  0  0  0  0  0  0  0  0
   56.6430   32.1040   52.4080 C   0  0  0  0  0  0  0  0  0  0  0  0
   56.5680   30.7220   52.9760 C   0  0  0  0  0  0  0  0  0  0  0  0
   57.2570   30.4260   53.9900 O   0  0  0  0  0  0  0  0  0  0  0  0
   55.8070   29.7540   52.3090 O   0  0  0  0  0  0  0  0  0  0  0  0
   54.4130   29.7810   52.1510 C   0  0  0  0  0  0  0  0  0  0  0  0
   53.8590   30.7460   51.3000 C   0  0  0  0  0  0  0  0  0  0  0  0
   52.4740   30.8170   51.1180 C   0  0  0  0  0  0  0  0  0  0  0  0
   51.6320   29.9300   51.7950 C   0  0  0  0  0  0  0  0  0  0  0  0
   52.1740   28.9780   52.6610 C   0  0  0  0  0  0  0  0  0  0  0  0
   53.5580   28.9030   52.8450 C   0  0  0  0  0  0  0  0  0  0  0  0
   58.5650   31.5340   50.9640 C   0  0  0  0  0  0  0  0  0  0  0  0
   57.9170   30.5230   50.5680 O   0  0  0  0  0  0  0  0  0  0  0  0
   59.8140   31.7960   50.4460 N   0  0  0  0  0  0  0  0  0  0  0  0
   60.4120   30.8530   49.4710 C   0  0  0  0  0  0  0  0  0  0  0  0
   59.7410   30.9470   48.1240 C   0  0  0  0  0  0  0  0  0  0  0  0
   60.1170   30.0830   47.0830 C   0  0  0  0  0  0  0  0  0  0  0  0
   59.5250   30.1960   45.8220 C   0  0  0  0  0  0  0  0  0  0  0  0
   58.5450   31.1720   45.5840 C   0  0  0  0  0  0  0  0  0  0  0  0
   57.9460   31.3190   44.2360 C   0  0  0  0  0  0  0  0  0  0  0  0
   58.3480   32.4130   43.4510 C   0  0  0  0  0  0  0  0  0  0  0  0
   57.8890   32.5580   42.1420 C   0  0  0  0  0  0  0  0  0  0  0  0
   57.0260   31.6110   41.5970 C   0  0  0  0  0  0  0  0  0  0  0  0
   56.6030   30.5250   42.3640 C   0  0  0  0  0  0  0  0  0  0  0  0
   57.0390   30.3670   43.6940 C   0  0  0  0  0  0  0  0  0  0  0  0
   56.4940   29.2410   44.4910 C   0  0  0  0  0  0  0  0  0  0  0  0
   57.2250   28.2580   44.7850 O   0  0  0  0  0  0  0  0  0  0  0  0
   55.1620   29.2270   44.8840 O   0  0  0  0  0  0  0  0  0  0  0  0
   58.1810   32.0470   46.6190 C   0  0  0  0  0  0  0  0  0  0  0  0
   58.7760   31.9370   47.8780 C   0  0  0  0  0  0  0  0  0  0  0  0
   59.2400   35.5753   47.0271 H   0  0  0  0  0  0  0  0  0  0  0  0
   60.9503   35.1568   46.6715 H   0  0  0  0  0  0  0  0  0  0  0  0
   59.6931   33.8738   46.6715 H   0  0  0  0  0  0  0  0  0  0  0  0
   60.1992   35.5233   49.1691 H   0  0  0  0  0  0  0  0  0  0  0  0
   59.5134   33.8567   48.9987 H   0  0  0  0  0  0  0  0  0  0  0  0
   61.8251   33.1533   48.1426 H   0  0  0  0  0  0  0  0  0  0  0  0
   62.4016   34.7635   48.7600 H   0  0  0  0  0  0  0  0  0  0  0  0
   62.4890   32.5152   50.2524 H   0  0  0  0  0  0  0  0  0  0  0  0
   62.2094   34.1696   50.9427 H   0  0  0  0  0  0  0  0  0  0  0  0
   56.3998   32.8352   53.1930 H   0  0  0  0  0  0  0  0  0  0  0  0
   55.9243   32.1961   51.5804 H   0  0  0  0  0  0  0  0  0  0  0  0
   54.5169   31.4519   50.7719 H   0  0  0  0  0  0  0  0  0  0  0  0
   52.0468   31.5717   50.4413 H   0  0  0  0  0  0  0  0  0  0  0  0
   50.5434   29.9819   51.6457 H   0  0  0  0  0  0  0  0  0  0  0  0
   51.5105   28.2854   53.1997 H   0  0  0  0  0  0  0  0  0  0  0  0
   53.9802   28.1563   53.5336 H   0  0  0  0  0  0  0  0  0  0  0  0
   61.4800   31.0892   49.3550 H   0  0  0  0  0  0  0  0  0  0  0  0
   60.2748   29.8306   49.8529 H   0  0  0  0  0  0  0  0  0  0  0  0
   60.8819   29.3128   47.2610 H   0  0  0  0  0  0  0  0  0  0  0  0
   59.8287   29.5165   45.0120 H   0  0  0  0  0  0  0  0  0  0  0  0
   59.0323   33.1634   43.8736 H   0  0  0  0  0  0  0  0  0  0  0  0
   58.2090   33.4211   41.5398 H   0  0  0  0  0  0  0  0  0  0  0  0
   56.6769   31.7193   40.5595 H   0  0  0  0  0  0  0  0  0  0  0  0
   55.9204   29.7828   41.9245 H   0  0  0  0  0  0  0  0  0  0  0  0
   57.4232   32.8235   46.4379 H   0  0  0  0  0  0  0  0  0  0  0  0
   58.4868   32.6302   48.6817 H   0  0  0  0  0  0  0  0  0  0  0  0
  1  2  1  0
  2  3  1  0
  3  4  1  0
  4  5  1  0
  5  6  2  0
  6  7  1  0
  7  8  2  0
  7  9  1  0
  9 10  1  0
 10 11  1  0
 11 12  2  0
 11 13  1  0
 13 14  1  0
 14 15  2  0
 15 16  1  0
 16 17  2  0
 17 18  1  0
 18 19  2  0
  9 20  1  0
 20 21  2  0
 20 22  1  0
 22 23  1  0
 23 24  1  0
 24 25  2  0
 25 26  1  0
 26 27  2  0
 27 28  1  0
 28 29  2  0
 29 30  1  0
 30 31  2  0
 31 32  1  0
 32 33  2  0
 33 34  1  0
 34 35  2  0
 34 36  1  0
 27 37  1  0
 37 38  2  0
 22  5  1  0
 38 24  1  0
 19 14  1  0
 33 28  1  0
  1 39  1  0
  1 40  1  0
  1 41  1  0
  2 42  1  0
  2 43  1  0
  3 44  1  0
  3 45  1  0
  4 46  1  0
  4 47  1  0
 10 48  1  0
 10 49  1  0
 15 50  1  0
 16 51  1  0
 17 52  1  0
 18 53  1  0
 19 54  1  0
 23 55  1  0
 23 56  1  0
 25 57  1  0
 26 58  1  0
 29 59  1  0
 30 60  1  0
 31 61  1  0
 32 62  1  0
 37 63  1  0
 38 64  1  0
M  CHG  1  36  -1
M  END
>  <UniqueID>  (15) 
14

>  <SMILES>  (15) 
CCCCc1nc(=O)n(CC(=O)Oc2ccccc2)c(=O)n1Cc1ccc(-c2ccccc2C(=O)[O-])cc1

>  <Energy>  (15) 
83.4113311270762

>  <Genealogy>  (15) 
CCCCc1nc(=O)n(CC(=O)Oc2ccccc2)c(=O)n1Cc1ccc(-c2ccccc2C(=O)[O-])cc1 (protonated)
CCCCc1nc(=O)n(CC(=O)Oc2ccccc2)c(=O)n1Cc1ccc(-c2ccccc2C(=O)[O-])cc1 (3D coordinates assigned)
CCCCc1nc(=O)n(CC(=O)Oc2ccccc2)c(=O)n1Cc1ccc(-c2ccccc2C(=O)[O-])cc1 (optimized conformer: 83.4113311270762 kcal/mol)

>  <smiles>  (15) 
CCCCc1nc(=O)n(CC(=O)Oc2ccccc2)c(=O)n1Cc1ccc(-c2ccccc2C(=O)O)cc1

>  <score_type>  (15) 
oracle

>  <origin>  (15) 
adg

>  <m_score__min__energy>  (15) 
-12.470000000000001

>  <m_primary>  (15) 
energy

$$$$
15:0
     RDKit          3D

 43 45  0  0  0  0  0  0  0  0999 V2000
   55.3000   30.2060   53.7930 O   0  0  0  0  0  0  0  0  0  0  0  0
   55.3150   29.8660   52.5810 C   0  0  0  0  0  0  0  0  0  0  0  0
   54.0340   29.4120   51.9340 C   0  0  0  0  0  0  0  0  0  0  0  0
   52.9930   30.4920   52.0350 C   0  0  0  0  0  0  0  0  0  0  0  0
   52.4780   30.8570   53.2890 C   0  0  0  0  0  0  0  0  0  0  0  0
   51.4940   31.8430   53.3850 C   0  0  0  0  0  0  0  0  0  0  0  0
   51.0080   32.4640   52.2300 C   0  0  0  0  0  0  0  0  0  0  0  0
   50.0300   33.4440   52.3320 O   0  0  0  0  0  0  0  0  0  0  0  0
   51.5070   32.0950   50.9750 C   0  0  0  0  0  0  0  0  0  0  0  0
   51.0230   32.7050   49.8260 O   0  0  0  0  0  0  0  0  0  0  0  0
   52.4940   31.1090   50.8770 C   0  0  0  0  0  0  0  0  0  0  0  0
   56.5250   30.0320   51.8330 N   0  0  0  0  0  0  0  0  0  0  0  0
   57.3320   31.2160   51.7900 C   0  0  0  0  0  0  0  0  0  0  0  0
   57.4880   32.0390   52.9180 C   0  0  0  0  0  0  0  0  0  0  0  0
   58.2590   33.2020   52.8390 C   0  0  0  0  0  0  0  0  0  0  0  0
   58.8610   33.5640   51.6310 C   0  0  0  0  0  0  0  0  0  0  0  0
   58.6810   32.7690   50.4900 C   0  0  0  0  0  0  0  0  0  0  0  0
   59.4470   33.2080   48.9670 S   0  0  0  0  0  0  0  0  0  0  0  0
   58.7340   32.5150   47.8400 O   0  0  0  0  0  0  0  0  0  0  0  0
   59.3440   34.6950   48.7560 O   0  0  0  0  0  0  0  0  0  0  0  0
   61.1170   32.7060   49.0000 N   0  0  0  0  0  0  0  0  0  0  0  0
   61.9990   33.8180   49.3510 C   0  0  0  0  0  0  0  0  0  0  0  0
   63.3530   33.5030   48.7350 C   0  0  0  0  0  0  0  0  0  0  0  0
   63.0650   32.5030   47.6270 C   0  0  0  0  0  0  0  0  0  0  0  0
   61.5650   32.2570   47.6810 C   0  0  0  0  0  0  0  0  0  0  0  0
   57.9130   31.5980   50.5740 C   0  0  0  0  0  0  0  0  0  0  0  0
   54.2220   29.1859   50.8740 H   0  0  0  0  0  0  0  0  0  0  0  0
   53.6696   28.5114   52.4499 H   0  0  0  0  0  0  0  0  0  0  0  0
   52.8510   30.3645   54.1991 H   0  0  0  0  0  0  0  0  0  0  0  0
   51.1004   32.1318   54.3707 H   0  0  0  0  0  0  0  0  0  0  0  0
   52.8804   30.8161   49.8896 H   0  0  0  0  0  0  0  0  0  0  0  0
   57.0017   31.7671   53.8664 H   0  0  0  0  0  0  0  0  0  0  0  0
   58.3922   33.8337   53.7296 H   0  0  0  0  0  0  0  0  0  0  0  0
   59.4768   34.4737   51.5751 H   0  0  0  0  0  0  0  0  0  0  0  0
   61.6048   34.7600   48.9419 H   0  0  0  0  0  0  0  0  0  0  0  0
   62.0753   33.9375   50.4418 H   0  0  0  0  0  0  0  0  0  0  0  0
   63.8103   34.4144   48.3225 H   0  0  0  0  0  0  0  0  0  0  0  0
   64.0586   33.1016   49.4773 H   0  0  0  0  0  0  0  0  0  0  0  0
   63.3514   32.9190   46.6498 H   0  0  0  0  0  0  0  0  0  0  0  0
   63.6361   31.5722   47.7590 H   0  0  0  0  0  0  0  0  0  0  0  0
   61.0572   32.8307   46.8917 H   0  0  0  0  0  0  0  0  0  0  0  0
   61.3304   31.1941   47.5220 H   0  0  0  0  0  0  0  0  0  0  0  0
   57.7661   30.9756   49.6790 H   0  0  0  0  0  0  0  0  0  0  0  0
  1  2  2  0
  2  3  1  0
  3  4  1  0
  4  5  2  0
  5  6  1  0
  6  7  2  0
  7  8  1  0
  7  9  1  0
  9 10  1  0
  9 11  2  0
  2 12  1  0
 12 13  1  0
 13 14  2  0
 14 15  1  0
 15 16  2  0
 16 17  1  0
 17 18  1  0
 18 19  2  0
 18 20  2  0
 18 21  1  0
 21 22  1  0
 22 23  1  0
 23 24  1  0
 24 25  1  0
 17 26  2  0
 11  4  1  0
 26 13  1  0
 25 21  1  0
  3 27  1  0
  3 28  1  0
  5 29  1  0
  6 30  1  0
 11 31  1  0
 14 32  1  0
 15 33  1  0
 16 34  1  0
 22 35  1  0
 22 36  1  0
 23 37  1  0
 23 38  1  0
 24 39  1  0
 24 40  1  0
 25 41  1  0
 25 42  1  0
 26 43  1  0
M  CHG  3   8  -1  10  -1  12  -1
M  END
>  <UniqueID>  (16) 
15

>  <SMILES>  (16) 
O=C(Cc1ccc([O-])c([O-])c1)[N-]c1cccc(S(=O)(=O)N2CCCC2)c1

>  <Energy>  (16) 
48.89613958401238

>  <Genealogy>  (16) 
O=C(Cc1ccc([O-])c([O-])c1)[N-]c1cccc(S(=O)(=O)N2CCCC2)c1 (protonated)
O=C(Cc1ccc([O-])c([O-])c1)[N-]c1cccc(S(=O)(=O)N2CCCC2)c1 (3D coordinates assigned)
O=C(Cc1ccc([O-])c([O-])c1)[N-]c1cccc(S(=O)(=O)N2CCCC2)c1 (nonaromatic ring conformer: 48.89613958401238 kcal/mol)

>  <smiles>  (16) 
O=C(Cc1ccc(O)c(O)c1)Nc1cccc(S(=O)(=O)N2CCCC2)c1

>  <score_type>  (16) 
oracle

>  <origin>  (16) 
adg

>  <m_score__min__energy>  (16) 
-18.379999999999999

>  <m_primary>  (16) 
energy

$$$$
16:0
     RDKit          3D

 49 51  0  0  0  0  0  0  0  0999 V2000
   56.1680   29.0760   45.2480 O   0  0  0  0  0  0  0  0  0  0  0  0
   57.3140   28.5610   45.1380 C   0  0  0  0  0  0  0  0  0  0  0  0
   57.4870   27.1410   45.2630 N   0  0  0  0  0  0  0  0  0  0  0  0
   56.4240   26.2290   45.5880 C   0  0  0  0  0  0  0  0  0  0  0  0
   55.3100   26.6620   45.9900 O   0  0  0  0  0  0  0  0  0  0  0  0
   56.6480   24.7690   45.5290 C   0  0  0  0  0  0  0  0  0  0  0  0
   57.9030   24.2960   45.1070 C   0  0  0  0  0  0  0  0  0  0  0  0
   58.1370   22.9250   44.9780 C   0  0  0  0  0  0  0  0  0  0  0  0
   57.1240   22.0110   45.2700 C   0  0  0  0  0  0  0  0  0  0  0  0
   55.8800   22.4660   45.7130 C   0  0  0  0  0  0  0  0  0  0  0  0
   55.6370   23.8360   45.8660 C   0  0  0  0  0  0  0  0  0  0  0  0
   54.4010   24.2300   46.3830 O   0  0  0  0  0  0  0  0  0  0  0  0
   58.4500   29.3860   44.8340 N   0  0  0  0  0  0  0  0  0  0  0  0
   58.4360   30.8230   44.8730 C   0  0  0  0  0  0  0  0  0  0  0  0
   58.0840   31.5380   43.7200 C   0  0  0  0  0  0  0  0  0  0  0  0
   58.0830   32.9360   43.7270 C   0  0  0  0  0  0  0  0  0  0  0  0
   58.4490   33.6310   44.8820 C   0  0  0  0  0  0  0  0  0  0  0  0
   58.8250   32.9290   46.0350 C   0  0  0  0  0  0  0  0  0  0  0  0
   59.3340   33.7870   47.4860 S   0  0  0  0  0  0  0  0  0  0  0  0
   58.6420   33.1750   48.6730 O   0  0  0  0  0  0  0  0  0  0  0  0
   58.9480   35.2390   47.3960 O   0  0  0  0  0  0  0  0  0  0  0  0
   61.0640   33.6440   47.6670 N   0  0  0  0  0  0  0  0  0  0  0  0
   61.4290   32.2400   47.9150 C   0  0  0  0  0  0  0  0  0  0  0  0
   62.9170   32.1310   48.2960 C   0  0  0  0  0  0  0  0  0  0  0  0
   63.7490   33.3090   47.7650 C   0  0  0  0  0  0  0  0  0  0  0  0
   63.2320   33.7720   46.4000 C   0  0  0  0  0  0  0  0  0  0  0  0
   61.7370   34.1600   46.4560 C   0  0  0  0  0  0  0  0  0  0  0  0
   58.8270   31.5290   46.0250 C   0  0  0  0  0  0  0  0  0  0  0  0
   58.4450   26.7500   45.1210 H   0  0  0  0  0  0  0  0  0  0  0  0
   58.7066   25.0110   44.8767 H   0  0  0  0  0  0  0  0  0  0  0  0
   59.1219   22.5652   44.6455 H   0  0  0  0  0  0  0  0  0  0  0  0
   57.3050   20.9325   45.1514 H   0  0  0  0  0  0  0  0  0  0  0  0
   55.0847   21.7418   45.9435 H   0  0  0  0  0  0  0  0  0  0  0  0
   54.0860   25.1910   46.3900 H   0  0  0  0  0  0  0  0  0  0  0  0
   59.3090   28.9120   44.4720 H   0  0  0  0  0  0  0  0  0  0  0  0
   57.8068   30.9958   42.8039 H   0  0  0  0  0  0  0  0  0  0  0  0
   57.7935   33.4895   42.8215 H   0  0  0  0  0  0  0  0  0  0  0  0
   58.4421   34.7310   44.8865 H   0  0  0  0  0  0  0  0  0  0  0  0
   60.8145   31.8457   48.7377 H   0  0  0  0  0  0  0  0  0  0  0  0
   61.2520   31.6582   46.9984 H   0  0  0  0  0  0  0  0  0  0  0  0
   62.9994   32.1071   49.3927 H   0  0  0  0  0  0  0  0  0  0  0  0
   63.3119   31.2110   47.8403 H   0  0  0  0  0  0  0  0  0  0  0  0
   63.6847   34.1451   48.4769 H   0  0  0  0  0  0  0  0  0  0  0  0
   64.7924   32.9796   47.6522 H   0  0  0  0  0  0  0  0  0  0  0  0
   63.8153   34.6465   46.0759 H   0  0  0  0  0  0  0  0  0  0  0  0
   63.3434   32.9387   45.6907 H   0  0  0  0  0  0  0  0  0  0  0  0
   61.6566   35.2570   46.4479 H   0  0  0  0  0  0  0  0  0  0  0  0
   61.2421   33.7121   45.5816 H   0  0  0  0  0  0  0  0  0  0  0  0
   59.1366   30.9771   46.9247 H   0  0  0  0  0  0  0  0  0  0  0  0
  1  2  2  0
  2  3  1  0
  3  4  1  0
  4  5  2  0
  4  6  1  0
  6  7  2  0
  7  8  1  0
  8  9  2  0
  9 10  1  0
 10 11  2  0
 11 12  1  0
  2 13  1  0
 13 14  1  0
 14 15  2  0
 15 16  1  0
 16 17  2  0
 17 18  1  0
 18 19  1  0
 19 20  2  0
 19 21  2  0
 19 22  1  0
 22 23  1  0
 23 24  1  0
 24 25  1  0
 25 26  1  0
 26 27  1  0
 18 28  2  0
 11  6  1  0
 28 14  1  0
 27 22  1  0
  3 29  1  0
  7 30  1  0
  8 31  1  0
  9 32  1  0
 10 33  1  0
 12 34  1  0
 13 35  1  0
 15 36  1  0
 16 37  1  0
 17 38  1  0
 23 39  1  0
 23 40  1  0
 24 41  1  0
 24 42  1  0
 25 43  1  0
 25 44  1  0
 26 45  1  0
 26 46  1  0
 27 47  1  0
 27 48  1  0
 28 49  1  0
M  END
>  <UniqueID>  (17) 
16

>  <SMILES>  (17) 
O=C(NC(=O)c1ccccc1O)Nc1cccc(S(=O)(=O)N2CCCCC2)c1

>  <Energy>  (17) 
61.99688330108183

>  <Genealogy>  (17) 
O=C(NC(=O)c1ccccc1O)Nc1cccc(S(=O)(=O)N2CCCCC2)c1 (3D coordinates assigned)
O=C(NC(=O)c1ccccc1O)Nc1cccc(S(=O)(=O)N2CCCCC2)c1 (nonaromatic ring conformer: 61.99688330108183 kcal/mol)

>  <smiles>  (17) 
O=C(NC(=O)c1ccccc1O)Nc1cccc(S(=O)(=O)N2CCCCC2)c1

>  <score_type>  (17) 
oracle

>  <origin>  (17) 
adg

>  <m_score__min__energy>  (17) 
-10.49

>  <m_primary>  (17) 
energy

$$$$
17:0
     RDKit          3D

 83 89  0  0  0  0  0  0  0  0999 V2000
   68.5260   29.5920   54.1900 C   0  0  0  0  0  0  0  0  0  0  0  0
   67.6620   28.5550   53.7340 O   0  0  0  0  0  0  0  0  0  0  0  0
   67.8280   27.8470   52.5320 C   0  0  0  0  0  0  0  0  0  0  0  0
   68.4770   26.5980   52.4820 C   0  0  0  0  0  0  0  0  0  0  0  0
   68.6450   25.9370   51.2650 C   0  0  0  0  0  0  0  0  0  0  0  0
   68.1660   26.5110   50.0850 C   0  0  0  0  0  0  0  0  0  0  0  0
   67.5170   27.7460   50.1190 C   0  0  0  0  0  0  0  0  0  0  0  0
   67.3400   28.4180   51.3380 C   0  0  0  0  0  0  0  0  0  0  0  0
   66.6860   29.6930   51.3580 N   0  0  0  0  0  0  0  0  0  0  0  0
   65.5960   29.9370   52.3090 C   0  0  0  0  0  0  0  0  0  0  0  0
   64.5610   30.8810   51.6990 C   0  0  0  0  0  0  0  0  0  0  0  0
   65.1980   32.0790   51.1260 N   0  0  0  0  0  0  0  0  0  0  0  0
   64.3960   33.2450   50.8610 C   0  0  0  0  0  0  0  0  0  0  0  0
   64.9090   34.3970   50.9130 O   0  0  0  0  0  0  0  0  0  0  0  0
   62.9650   33.1120   50.5420 C   0  0  0  0  0  0  0  0  0  0  0  0
   62.0300   32.9490   51.5910 C   0  0  0  0  0  0  0  0  0  0  0  0
   60.6710   32.7160   51.3100 C   0  0  0  0  0  0  0  0  0  0  0  0
   60.2830   32.6270   49.9710 C   0  0  0  0  0  0  0  0  0  0  0  0
   61.1690   32.8720   48.9620 C   0  0  0  0  0  0  0  0  0  0  0  0
   60.5370   32.8880   47.7800 N   0  0  0  0  0  0  0  0  0  0  0  0
   59.2510   32.5940   48.0980 C   0  0  0  0  0  0  0  0  0  0  0  0
   58.1440   32.6450   47.0740 C   0  0  0  0  0  0  0  0  0  0  0  0
   58.5310   32.0010   45.7310 C   0  0  0  0  0  0  0  0  0  0  0  0
   58.0480   30.5800   45.6150 C   0  0  0  0  0  0  0  0  0  0  0  0
   57.0990   30.1020   44.7170 C   0  0  0  0  0  0  0  0  0  0  0  0
   56.8910   28.7780   44.9070 N   0  0  0  0  0  0  0  0  0  0  0  0
   57.7030   28.4140   45.9140 C   0  0  0  0  0  0  0  0  0  0  0  0
   57.8540   27.1370   46.4560 C   0  0  0  0  0  0  0  0  0  0  0  0
   58.7870   26.9680   47.4960 C   0  0  0  0  0  0  0  0  0  0  0  0
   59.5430   28.0660   47.9620 C   0  0  0  0  0  0  0  0  0  0  0  0
   59.3760   29.3420   47.3870 C   0  0  0  0  0  0  0  0  0  0  0  0
   58.4320   29.4850   46.3690 C   0  0  0  0  0  0  0  0  0  0  0  0
   59.0600   32.4130   49.4390 N   0  0  0  0  0  0  0  0  0  0  0  0
   57.7980   32.1150   50.1390 C   0  0  0  0  0  0  0  0  0  0  0  0
   57.7570   30.7120   50.8420 C   0  0  1  0  0  0  0  0  0  0  0  0
   59.0060   30.2500   51.6070 C   0  0  0  0  0  0  0  0  0  0  0  0
   58.4840   29.2660   52.6430 C   0  0  0  0  0  0  0  0  0  0  0  0
   56.9730   29.2360   52.4410 C   0  0  0  0  0  0  0  0  0  0  0  0
   56.5950   30.4700   51.7270 N   0  0  0  0  0  0  0  0  0  0  0  0
   56.3570   31.5590   52.6950 C   0  0  0  0  0  0  0  0  0  0  0  0
   62.5240   33.1110   49.1980 C   0  0  0  0  0  0  0  0  0  0  0  0
   63.7040   33.4690   47.7230 Br  0  0  0  0  0  0  0  0  0  0  0  0
   66.6550   32.1360   50.9420 C   0  0  0  0  0  0  0  0  0  0  0  0
   67.1960   30.7710   50.5020 C   0  0  0  0  0  0  0  0  0  0  0  0
   68.5359   29.6039   55.2899 H   0  0  0  0  0  0  0  0  0  0  0  0
   69.5446   29.4115   53.8161 H   0  0  0  0  0  0  0  0  0  0  0  0
   68.1646   30.5613   53.8161 H   0  0  0  0  0  0  0  0  0  0  0  0
   68.8539   26.1407   53.4087 H   0  0  0  0  0  0  0  0  0  0  0  0
   69.1551   24.9629   51.2346 H   0  0  0  0  0  0  0  0  0  0  0  0
   68.3007   25.9882   49.1266 H   0  0  0  0  0  0  0  0  0  0  0  0
   67.1428   28.1943   49.1868 H   0  0  0  0  0  0  0  0  0  0  0  0
   65.1123   28.9813   52.5595 H   0  0  0  0  0  0  0  0  0  0  0  0
   66.0104   30.3992   53.2171 H   0  0  0  0  0  0  0  0  0  0  0  0
   64.0170   30.3500   50.9040 H   0  0  0  0  0  0  0  0  0  0  0  0
   63.8733   31.2019   52.4953 H   0  0  0  0  0  0  0  0  0  0  0  0
   62.3685   33.0049   52.6361 H   0  0  0  0  0  0  0  0  0  0  0  0
   59.9358   32.6071   52.1209 H   0  0  0  0  0  0  0  0  0  0  0  0
   57.2696   32.1135   47.4776 H   0  0  0  0  0  0  0  0  0  0  0  0
   57.9283   33.7057   46.8780 H   0  0  0  0  0  0  0  0  0  0  0  0
   58.0887   32.5920   44.9155 H   0  0  0  0  0  0  0  0  0  0  0  0
   59.6292   31.9877   45.6698 H   0  0  0  0  0  0  0  0  0  0  0  0
   56.5890   30.7143   43.9587 H   0  0  0  0  0  0  0  0  0  0  0  0
   56.2430   28.1640   44.3690 H   0  0  0  0  0  0  0  0  0  0  0  0
   57.2621   26.2887   46.0819 H   0  0  0  0  0  0  0  0  0  0  0  0
   58.9281   25.9753   47.9483 H   0  0  0  0  0  0  0  0  0  0  0  0
   60.2664   27.9246   48.7785 H   0  0  0  0  0  0  0  0  0  0  0  0
   59.9723   30.2001   47.7306 H   0  0  0  0  0  0  0  0  0  0  0  0
   57.6400   32.8878   50.9057 H   0  0  0  0  0  0  0  0  0  0  0  0
   57.0106   32.1023   49.3710 H   0  0  0  0  0  0  0  0  0  0  0  0
   57.6800   30.1058   49.9273 H   0  0  0  0  0  0  0  0  0  0  0  0
   59.7165   29.7568   50.9274 H   0  0  0  0  0  0  0  0  0  0  0  0
   59.5461   31.0905   52.0672 H   0  0  0  0  0  0  0  0  0  0  0  0
   58.9150   28.2675   52.4780 H   0  0  0  0  0  0  0  0  0  0  0  0
   58.7559   29.5640   53.6664 H   0  0  0  0  0  0  0  0  0  0  0  0
   56.6916   28.3559   51.8442 H   0  0  0  0  0  0  0  0  0  0  0  0
   56.4545   29.1751   53.4092 H   0  0  0  0  0  0  0  0  0  0  0  0
   56.4431   31.1652   53.7185 H   0  0  0  0  0  0  0  0  0  0  0  0
   57.1027   32.3534   52.5439 H   0  0  0  0  0  0  0  0  0  0  0  0
   55.3479   31.9699   52.5439 H   0  0  0  0  0  0  0  0  0  0  0  0
   66.8933   32.8848   50.1722 H   0  0  0  0  0  0  0  0  0  0  0  0
   67.1231   32.4120   51.8984 H   0  0  0  0  0  0  0  0  0  0  0  0
   66.8864   30.5808   49.4638 H   0  0  0  0  0  0  0  0  0  0  0  0
   68.2928   30.7897   50.5843 H   0  0  0  0  0  0  0  0  0  0  0  0
  1  2  1  0
  2  3  1  0
  3  4  2  0
  4  5  1  0
  5  6  2  0
  6  7  1  0
  7  8  2  0
  8  9  1  0
  9 10  1  0
 10 11  1  0
 11 12  1  0
 12 13  1  0
 13 14  2  0
 13 15  1  0
 15 16  2  0
 16 17  1  0
 17 18  2  0
 18 19  1  0
 19 20  1  0
 20 21  2  0
 21 22  1  0
 22 23  1  0
 23 24  1  0
 24 25  2  0
 25 26  1  0
 26 27  1  0
 27 28  2  0
 28 29  1  0
 29 30  2  0
 30 31  1  0
 31 32  2  0
 21 33  1  0
 33 34  1  0
 34 35  1  0
 35 36  1  0
 36 37  1  0
 37 38  1  0
 38 39  1  0
 39 40  1  0
 19 41  2  0
 41 42  1  0
 12 43  1  0
 43 44  1  0
  8  3  1  0
 44  9  1  0
 41 15  1  0
 33 18  1  0
 39 35  1  0
 32 24  1  0
 32 27  1  0
  1 45  1  0
  1 46  1  0
  1 47  1  0
  4 48  1  0
  5 49  1  0
  6 50  1  0
  7 51  1  0
 10 52  1  0
 10 53  1  0
 11 54  1  0
 11 55  1  0
 16 56  1  0
 17 57  1  0
 22 58  1  0
 22 59  1  0
 23 60  1  0
 23 61  1  0
 25 62  1  0
 26 63  1  0
 28 64  1  0
 29 65  1  0
 30 66  1  0
 31 67  1  0
 34 68  1  0
 34 69  1  0
 35 70  1  6
 36 71  1  0
 36 72  1  0
 37 73  1  0
 37 74  1  0
 38 75  1  0
 38 76  1  0
 40 77  1  0
 40 78  1  0
 40 79  1  0
 43 80  1  0
 43 81  1  0
 44 82  1  0
 44 83  1  0
M  END
>  <UniqueID>  (18) 
17

>  <SMILES>  (18) 
COc1ccccc1N1CCN(C(=O)c2ccc3c(nc(CCc4c[nH]c5ccccc45)n3C[C@H]3CCCN3C)c2Br)CC1

>  <Energy>  (18) 
180.29292970602148

>  <Genealogy>  (18) 
COc1ccccc1N1CCN(C(=O)c2ccc3c(nc(CCc4c[nH]c5ccccc45)n3C[C@H]3CCCN3C)c2Br)CC1 (chirality)
COc1ccccc1N1CCN(C(=O)c2ccc3c(nc(CCc4c[nH]c5ccccc45)n3C[C@H]3CCCN3C)c2Br)CC1 (3D coordinates assigned)
COc1ccccc1N1CCN(C(=O)c2ccc3c(nc(CCc4c[nH]c5ccccc45)n3C[C@H]3CCCN3C)c2Br)CC1 (nonaromatic ring conformer: 180.29292970602148 kcal/mol)

>  <smiles>  (18) 
COc1ccccc1N1CCN(C(=O)c2ccc3c(nc(CCc4c[nH]c5ccccc45)n3CC3CCCN3C)c2Br)CC1

>  <score_type>  (18) 
oracle

>  <origin>  (18) 
adg

>  <m_score__min__energy>  (18) 
-11.550000000000001

>  <m_primary>  (18) 
energy

$$$$
18:0
     RDKit          3D

 53 55  0  0  0  0  0  0  0  0999 V2000
   55.1080   29.3400   44.8840 N   0  0  0  0  0  0  0  0  0  0  0  0
   56.6950   29.8340   44.4150 S   0  0  0  0  0  0  0  0  0  0  0  0
   56.8870   31.2870   44.7470 O   0  0  0  0  0  0  0  0  0  0  0  0
   56.8580   29.6520   42.9320 O   0  0  0  0  0  0  0  0  0  0  0  0
   57.8900   28.8680   45.2770 C   0  0  0  0  0  0  0  0  0  0  0  0
   58.4440   27.7350   44.6660 C   0  0  0  0  0  0  0  0  0  0  0  0
   59.4030   26.9750   45.3390 C   0  0  0  0  0  0  0  0  0  0  0  0
   59.8160   27.3380   46.6240 C   0  0  0  0  0  0  0  0  0  0  0  0
   59.2690   28.4720   47.2530 C   0  0  0  0  0  0  0  0  0  0  0  0
   59.7090   28.8770   48.6110 C   0  0  0  0  0  0  0  0  0  0  0  0
   59.9760   27.9900   49.4680 O   0  0  0  0  0  0  0  0  0  0  0  0
   59.8410   30.2620   48.9600 N   0  0  0  0  0  0  0  0  0  0  0  0
   60.0350   30.6880   50.3440 C   0  0  0  0  0  0  0  0  0  0  0  0
   58.9010   31.5590   50.7780 C   0  0  0  0  0  0  0  0  0  0  0  0
   57.8870   31.0510   51.3320 O   0  0  0  0  0  0  0  0  0  0  0  0
   58.9990   32.9740   50.5960 N   0  0  0  0  0  0  0  0  0  0  0  0
   59.4430   33.6090   49.3600 C   0  0  2  0  0  0  0  0  0  0  0  0
   58.7040   33.0550   48.1650 C   0  0  0  0  0  0  0  0  0  0  0  0
   58.1220   31.9430   48.2900 O   0  0  0  0  0  0  0  0  0  0  0  0
   58.5490   33.7900   46.9340 N   0  0  0  0  0  0  0  0  0  0  0  0
   57.3900   33.6140   46.0750 C   0  0  0  0  0  0  0  0  0  0  0  0
   57.6120   34.5410   44.8890 C   0  0  0  0  0  0  0  0  0  0  0  0
   59.1040   34.8540   44.8840 C   0  0  0  0  0  0  0  0  0  0  0  0
   59.5930   34.5800   46.3000 C   0  0  0  0  0  0  0  0  0  0  0  0
   60.9360   33.4420   49.1630 C   0  0  0  0  0  0  0  0  0  0  0  0
   61.4530   32.8010   48.0220 C   0  0  0  0  0  0  0  0  0  0  0  0
   62.8340   32.6700   47.8490 C   0  0  0  0  0  0  0  0  0  0  0  0
   63.7130   33.1840   48.8060 C   0  0  0  0  0  0  0  0  0  0  0  0
   65.0510   33.0560   48.6360 F   0  0  0  0  0  0  0  0  0  0  0  0
   63.2110   33.8410   49.9300 C   0  0  0  0  0  0  0  0  0  0  0  0
   61.8300   33.9760   50.1070 C   0  0  0  0  0  0  0  0  0  0  0  0
   58.3110   29.2400   46.5620 C   0  0  0  0  0  0  0  0  0  0  0  0
   55.2210   28.6100   45.6230 H   0  0  0  0  0  0  0  0  0  0  0  0
   58.1230   27.4439   43.6549 H   0  0  0  0  0  0  0  0  0  0  0  0
   59.8354   26.0865   44.8556 H   0  0  0  0  0  0  0  0  0  0  0  0
   60.5726   26.7342   47.1465 H   0  0  0  0  0  0  0  0  0  0  0  0
   59.8770   30.9770   48.1990 H   0  0  0  0  0  0  0  0  0  0  0  0
   60.0823   29.8018   50.9940 H   0  0  0  0  0  0  0  0  0  0  0  0
   60.9737   31.2568   50.4169 H   0  0  0  0  0  0  0  0  0  0  0  0
   59.2175   34.6821   49.4470 H   0  0  0  0  0  0  0  0  0  0  0  0
   57.3180   32.5696   45.7373 H   0  0  0  0  0  0  0  0  0  0  0  0
   56.4539   33.8476   46.6033 H   0  0  0  0  0  0  0  0  0  0  0  0
   57.3216   34.0422   43.9526 H   0  0  0  0  0  0  0  0  0  0  0  0
   57.0055   35.4552   44.9691 H   0  0  0  0  0  0  0  0  0  0  0  0
   59.6284   34.2062   44.1661 H   0  0  0  0  0  0  0  0  0  0  0  0
   59.2972   35.8946   44.5844 H   0  0  0  0  0  0  0  0  0  0  0  0
   60.5381   34.0177   46.2768 H   0  0  0  0  0  0  0  0  0  0  0  0
   59.7847   35.5133   46.8498 H   0  0  0  0  0  0  0  0  0  0  0  0
   60.7664   32.4006   47.2616 H   0  0  0  0  0  0  0  0  0  0  0  0
   63.2296   32.1612   46.9576 H   0  0  0  0  0  0  0  0  0  0  0  0
   63.9030   34.2538   50.6788 H   0  0  0  0  0  0  0  0  0  0  0  0
   61.4412   34.5034   50.9906 H   0  0  0  0  0  0  0  0  0  0  0  0
   57.8895   30.1394   47.0346 H   0  0  0  0  0  0  0  0  0  0  0  0
  1  2  1  0
  2  3  2  0
  2  4  2  0
  2  5  1  0
  5  6  2  0
  6  7  1  0
  7  8  2  0
  8  9  1  0
  9 10  1  0
 10 11  2  0
 10 12  1  0
 12 13  1  0
 13 14  1  0
 14 15  2  0
 14 16  1  0
 16 17  1  0
 17 18  1  0
 18 19  2  0
 18 20  1  0
 20 21  1  0
 21 22  1  0
 22 23  1  0
 23 24  1  0
 17 25  1  0
 25 26  2  0
 26 27  1  0
 27 28  2  0
 28 29  1  0
 28 30  1  0
 30 31  2  0
  9 32  2  0
 32  5  1  0
 24 20  1  0
 31 25  1  0
  1 33  1  0
  6 34  1  0
  7 35  1  0
  8 36  1  0
 12 37  1  0
 13 38  1  0
 13 39  1  0
 17 40  1  1
 21 41  1  0
 21 42  1  0
 22 43  1  0
 22 44  1  0
 23 45  1  0
 23 46  1  0
 24 47  1  0
 24 48  1  0
 26 49  1  0
 27 50  1  0
 30 51  1  0
 31 52  1  0
 32 53  1  0
M  CHG  2   1  -1  16  -1
M  END
>  <UniqueID>  (19) 
18

>  <SMILES>  (19) 
[NH-]S(=O)(=O)c1cccc(C(=O)NCC(=O)[N-][C@H](C(=O)N2CCCC2)c2ccc(F)cc2)c1

>  <Energy>  (19) 
52.16676378612991

>  <Genealogy>  (19) 
[NH-]S(=O)(=O)c1cccc(C(=O)NCC(=O)[N-]C(C(=O)N2CCCC2)c2ccc(F)cc2)c1 (protonated)
[NH-]S(=O)(=O)c1cccc(C(=O)NCC(=O)[N-][C@H](C(=O)N2CCCC2)c2ccc(F)cc2)c1 (chirality)
[NH-]S(=O)(=O)c1cccc(C(=O)NCC(=O)[N-][C@H](C(=O)N2CCCC2)c2ccc(F)cc2)c1 (3D coordinates assigned)
[NH-]S(=O)(=O)c1cccc(C(=O)NCC(=O)[N-][C@H](C(=O)N2CCCC2)c2ccc(F)cc2)c1 (nonaromatic ring conformer: 52.16676378612991 kcal/mol)

>  <smiles>  (19) 
NS(=O)(=O)c1cccc(C(=O)NCC(=O)NC(C(=O)N2CCCC2)c2ccc(F)cc2)c1

>  <score_type>  (19) 
oracle

>  <origin>  (19) 
adg

>  <m_score__min__energy>  (19) 
-13.109999999999999

>  <m_primary>  (19) 
energy

$$$$
19:0
     RDKit          3D

 49 52  0  0  0  0  0  0  0  0999 V2000
   57.4310   31.4560   42.6030 C   0  0  0  0  0  0  0  0  0  0  0  0
   57.4290   30.8330   43.9860 C   0  0  0  0  0  0  0  0  0  0  0  0
   56.1660   30.0080   44.1180 C   0  0  0  0  0  0  0  0  0  0  0  0
   57.3560   31.9670   44.9920 C   0  0  0  0  0  0  0  0  0  0  0  0
   58.5930   30.0740   44.1180 O   0  0  0  0  0  0  0  0  0  0  0  0
   58.6960   28.7670   44.5080 C   0  0  0  0  0  0  0  0  0  0  0  0
   58.4410   27.8930   43.6070 O   0  0  0  0  0  0  0  0  0  0  0  0
   59.0570   28.3210   45.8050 N   0  0  0  0  0  0  0  0  0  0  0  0
   58.7870   27.1310   46.3650 C   0  0  0  0  0  0  0  0  0  0  0  0
   58.0920   25.9730   45.8230 C   0  0  0  0  0  0  0  0  0  0  0  0
   56.7550   25.9590   45.4960 C   0  0  0  0  0  0  0  0  0  0  0  0
   56.1150   24.8270   44.9990 C   0  0  0  0  0  0  0  0  0  0  0  0
   56.8280   23.6810   44.8230 C   0  0  0  0  0  0  0  0  0  0  0  0
   56.1960   22.6030   44.3450 N   0  0  0  0  0  0  0  0  0  0  0  0
   56.9010   21.4860   44.1760 C   0  0  0  0  0  0  0  0  0  0  0  0
   56.2940   20.4270   43.7090 N   0  0  0  0  0  0  0  0  0  0  0  0
   58.2100   21.4460   44.4780 N   0  0  0  0  0  0  0  0  0  0  0  0
   58.8750   22.5330   44.9680 C   0  0  0  0  0  0  0  0  0  0  0  0
   60.1150   22.3680   45.2160 N   0  0  0  0  0  0  0  0  0  0  0  0
   58.1680   23.6960   45.1510 C   0  0  0  0  0  0  0  0  0  0  0  0
   58.8130   24.8090   45.6430 C   0  0  0  0  0  0  0  0  0  0  0  0
   59.2860   27.1150   47.6760 C   0  0  0  0  0  0  0  0  0  0  0  0
   59.8710   28.3420   47.8910 C   0  0  0  0  0  0  0  0  0  0  0  0
   60.5040   28.8280   49.0150 C   0  0  0  0  0  0  0  0  0  0  0  0
   61.0200   30.1060   48.9910 C   0  0  0  0  0  0  0  0  0  0  0  0
   60.8910   30.8680   47.8500 C   0  0  0  0  0  0  0  0  0  0  0  0
   60.2470   30.3500   46.7330 C   0  0  0  0  0  0  0  0  0  0  0  0
   59.7170   29.0610   46.7270 C   0  0  0  0  0  0  0  0  0  0  0  0
   57.4345   32.5522   42.6946 H   0  0  0  0  0  0  0  0  0  0  0  0
   58.3281   31.1309   42.0557 H   0  0  0  0  0  0  0  0  0  0  0  0
   56.5318   31.1367   42.0557 H   0  0  0  0  0  0  0  0  0  0  0  0
   55.9359   29.8577   45.1831 H   0  0  0  0  0  0  0  0  0  0  0  0
   55.3312   30.5355   43.6334 H   0  0  0  0  0  0  0  0  0  0  0  0
   56.3135   29.0316   43.6334 H   0  0  0  0  0  0  0  0  0  0  0  0
   57.3825   31.5549   46.0116 H   0  0  0  0  0  0  0  0  0  0  0  0
   58.2126   32.6417   44.8468 H   0  0  0  0  0  0  0  0  0  0  0  0
   56.4200   32.5263   44.8468 H   0  0  0  0  0  0  0  0  0  0  0  0
   56.1685   26.8795   45.6329 H   0  0  0  0  0  0  0  0  0  0  0  0
   55.0438   24.8584   44.7510 H   0  0  0  0  0  0  0  0  0  0  0  0
   55.1860   22.6590   44.1190 H   0  0  0  0  0  0  0  0  0  0  0  0
   56.8560   19.5950   43.4100 H   0  0  0  0  0  0  0  0  0  0  0  0
   58.7140   20.5430   44.3260 H   0  0  0  0  0  0  0  0  0  0  0  0
   60.8460   22.1930   44.5130 H   0  0  0  0  0  0  0  0  0  0  0  0
   59.8846   24.7714   45.8885 H   0  0  0  0  0  0  0  0  0  0  0  0
   59.2221   26.2832   48.3930 H   0  0  0  0  0  0  0  0  0  0  0  0
   60.5959   28.2055   49.9172 H   0  0  0  0  0  0  0  0  0  0  0  0
   61.5307   30.5144   49.8756 H   0  0  0  0  0  0  0  0  0  0  0  0
   61.2990   31.8892   47.8234 H   0  0  0  0  0  0  0  0  0  0  0  0
   60.1532   30.9727   45.8311 H   0  0  0  0  0  0  0  0  0  0  0  0
  1  2  1  0
  2  3  1  0
  2  4  1  0
  2  5  1  0
  5  6  1  0
  6  7  2  0
  6  8  1  0
  8  9  1  0
  9 10  1  0
 10 11  2  0
 11 12  1  0
 12 13  2  0
 13 14  1  0
 14 15  1  0
 15 16  2  3
 15 17  1  0
 17 18  1  0
 18 19  2  3
 18 20  1  0
 20 21  2  0
  9 22  2  0
 22 23  1  0
 23 24  2  0
 24 25  1  0
 25 26  2  0
 26 27  1  0
 27 28  2  0
 28  8  1  0
 21 10  1  0
 28 23  1  0
 20 13  1  0
  1 29  1  0
  1 30  1  0
  1 31  1  0
  3 32  1  0
  3 33  1  0
  3 34  1  0
  4 35  1  0
  4 36  1  0
  4 37  1  0
 11 38  1  0
 12 39  1  0
 14 40  1  0
 16 41  1  0
 17 42  1  0
 19 43  1  0
 21 44  1  0
 22 45  1  0
 24 46  1  0
 25 47  1  0
 26 48  1  0
 27 49  1  0
M  END
>  <smiles>  (20) 
CC(C)(C)OC(=O)n1c(-c2ccc3[nH]c(=N)[nH]c(=N)c3c2)cc2ccccc21

>  <score_type>  (20) 
oracle

>  <origin>  (20) 
adg

>  <m_score__min__energy>  (20) 
-8.8200000000000003

>  <m_primary>  (20) 
energy

$$$$
20:0
     RDKit          3D

 23 23  0  0  0  0  0  0  0  0999 V2000
   57.0130   31.2760   42.3670 C   0  0  0  0  0  0  0  0  0  0  0  0
   56.9810   30.5100   43.6060 N   0  0  0  0  0  0  0  0  0  0  0  0
   58.2620   30.2740   44.6360 S   0  0  0  0  0  0  0  0  0  0  0  0
   57.4430   29.2580   45.6720 C   0  0  0  0  0  0  0  0  0  0  0  0
   57.9490   28.7180   46.7380 N   0  0  0  0  0  0  0  0  0  0  0  0
   58.9670   27.6730   46.7000 C   0  0  0  0  0  0  0  0  0  0  0  0
   58.3410   26.3630   46.2390 C   0  0  0  0  0  0  0  0  0  0  0  0
   57.2930   26.0210   47.1130 O   0  0  0  0  0  0  0  0  0  0  0  0
   56.0750   25.2550   46.2180 S   0  0  0  0  0  0  0  0  0  0  0  0
   54.7560   26.3390   45.9440 N   0  0  0  0  0  0  0  0  0  0  0  0
   56.6200   24.7780   44.9000 O   0  0  0  0  0  0  0  0  0  0  0  0
   55.5780   24.0700   46.9950 O   0  0  0  0  0  0  0  0  0  0  0  0
   56.1750   29.0680   45.2400 N   0  0  0  0  0  0  0  0  0  0  0  0
   55.9450   29.7680   44.0870 C   0  0  0  0  0  0  0  0  0  0  0  0
   54.8310   29.7180   43.5020 O   0  0  0  0  0  0  0  0  0  0  0  0
   57.0579   32.3499   42.6009 H   0  0  0  0  0  0  0  0  0  0  0  0
   57.9000   30.9907   41.7823 H   0  0  0  0  0  0  0  0  0  0  0  0
   56.1053   31.0657   41.7823 H   0  0  0  0  0  0  0  0  0  0  0  0
   59.7637   27.9640   45.9996 H   0  0  0  0  0  0  0  0  0  0  0  0
   59.3904   27.5401   47.7065 H   0  0  0  0  0  0  0  0  0  0  0  0
   57.9461   26.4822   45.2193 H   0  0  0  0  0  0  0  0  0  0  0  0
   59.1009   25.5677   46.2425 H   0  0  0  0  0  0  0  0  0  0  0  0
   55.1320   27.3080   46.0470 H   0  0  0  0  0  0  0  0  0  0  0  0
  1  2  1  0
  2  3  1  0
  3  4  1  0
  4  5  2  3
  5  6  1  0
  6  7  1  0
  7  8  1  0
  8  9  1  0
  9 10  1  0
  9 11  2  0
  9 12  2  0
  4 13  1  0
 13 14  1  0
 14 15  2  0
 14  2  1  0
  1 16  1  0
  1 17  1  0
  1 18  1  0
  6 19  1  0
  6 20  1  0
  7 21  1  0
  7 22  1  0
 10 23  1  0
M  CHG  2  10  -1  13  -1
M  END
>  <UniqueID>  (21) 
19

>  <SMILES>  (21) 
Cn1sc(=NCCOS([NH-])(=O)=O)[n-]c1=O

>  <Energy>  (21) 
55.16690661642608

>  <Genealogy>  (21) 
Cn1sc(=NCCOS([NH-])(=O)=O)[n-]c1=O (protonated)
Cn1sc(=NCCOS([NH-])(=O)=O)[n-]c1=O (3D coordinates assigned)
Cn1sc(=NCCOS([NH-])(=O)=O)[n-]c1=O (optimized conformer: 55.16690661642608 kcal/mol)

>  <smiles>  (21) 
Cn1sc(=NCCOS(N)(=O)=O)[nH]c1=O

>  <score_type>  (21) 
oracle

>  <origin>  (21) 
adg

>  <m_score__min__energy>  (21) 
-10.1

>  <m_primary>  (21) 
energy

$$$$
21:0
     RDKit          3D

 42 45  0  0  0  0  0  0  0  0999 V2000
   59.2090   36.2590   47.1270 H   0  0  0  0  0  0  0  0  0  0  0  0
   59.6210   35.3020   47.0600 N   0  0  0  0  0  0  0  0  0  0  0  0
   59.1090   34.3990   46.2890 C   0  0  0  0  0  0  0  0  0  0  0  0
   58.2270   34.7390   45.3010 N   0  0  0  0  0  0  0  0  0  0  0  0
   57.6700   33.7960   44.4800 C   0  0  0  0  0  0  0  0  0  0  0  0
   56.9637   34.0979   43.6926 H   0  0  0  0  0  0  0  0  0  0  0  0
   58.0030   32.4420   44.6460 C   0  0  0  0  0  0  0  0  0  0  0  0
   57.5640   31.6629   44.0055 H   0  0  0  0  0  0  0  0  0  0  0  0
   58.8880   32.1320   45.6280 N   0  0  0  0  0  0  0  0  0  0  0  0
   59.4080   30.9670   46.0600 C   0  0  0  0  0  0  0  0  0  0  0  0
   59.0470   29.5960   45.5400 C   0  0  0  0  0  0  0  0  0  0  0  0
   59.2690   29.5436   44.4639 H   0  0  0  0  0  0  0  0  0  0  0  0
   57.5320   29.3630   45.7180 C   0  0  0  0  0  0  0  0  0  0  0  0
   57.2355   29.6954   46.7238 H   0  0  0  0  0  0  0  0  0  0  0  0
   57.0023   29.9361   44.9428 H   0  0  0  0  0  0  0  0  0  0  0  0
   57.1660   27.8850   45.5550 C   0  0  0  0  0  0  0  0  0  0  0  0
   56.0969   27.7537   45.7780 H   0  0  0  0  0  0  0  0  0  0  0  0
   57.3870   27.5842   44.5203 H   0  0  0  0  0  0  0  0  0  0  0  0
   57.9540   27.0360   46.4650 N   0  0  0  0  0  0  0  0  0  0  0  0
   57.4510   25.7430   46.8510 C   0  0  0  0  0  0  0  0  0  0  0  0
   57.6240   25.3340   48.0310 O   0  0  0  0  0  0  0  0  0  0  0  0
   56.7120   24.8910   45.8970 C   0  0  0  0  0  0  0  0  0  0  0  0
   57.3450   23.7690   45.3350 C   0  0  0  0  0  0  0  0  0  0  0  0
   58.3857   23.5360   45.6046 H   0  0  0  0  0  0  0  0  0  0  0  0
   56.6600   22.9480   44.4360 C   0  0  0  0  0  0  0  0  0  0  0  0
   57.1587   22.0659   44.0079 H   0  0  0  0  0  0  0  0  0  0  0  0
   55.3420   23.2460   44.0800 C   0  0  0  0  0  0  0  0  0  0  0  0
   54.8014   22.5950   43.3772 H   0  0  0  0  0  0  0  0  0  0  0  0
   54.7110   24.3710   44.6170 C   0  0  0  0  0  0  0  0  0  0  0  0
   53.6745   24.6055   44.3331 H   0  0  0  0  0  0  0  0  0  0  0  0
   55.3920   25.2000   45.5140 C   0  0  0  0  0  0  0  0  0  0  0  0
   54.7590   26.3420   45.9970 O   0  0  0  0  0  0  0  0  0  0  0  0
   59.1310   27.5890   47.1480 C   0  0  0  0  0  0  0  0  0  0  0  0
   58.8040   28.1816   48.0151 H   0  0  0  0  0  0  0  0  0  0  0  0
   59.7757   26.7628   47.4824 H   0  0  0  0  0  0  0  0  0  0  0  0
   59.9200   28.4860   46.1890 C   0  0  0  0  0  0  0  0  0  0  0  0
   60.7369   28.9648   46.7488 H   0  0  0  0  0  0  0  0  0  0  0  0
   60.2982   27.8476   45.3770 H   0  0  0  0  0  0  0  0  0  0  0  0
   60.2210   31.1970   47.1160 N   0  0  0  0  0  0  0  0  0  0  0  0
   60.7390   30.4840   47.6770 H   0  0  0  0  0  0  0  0  0  0  0  0
   60.2500   32.5020   47.3590 N   0  0  0  0  0  0  0  0  0  0  0  0
   59.4320   33.0520   46.4390 C   0  0  0  0  0  0  0  0  0  0  0  0
  1  2  1  0
  2  3  2  0
  3  4  1  0
  4  5  1  0
  5  6  1  0
  5  7  2  0
  7  8  1  0
  7  9  1  0
  9 10  1  0
 10 11  1  0
 11 12  1  0
 11 13  1  0
 13 14  1  0
 13 15  1  0
 13 16  1  0
 16 17  1  0
 16 18  1  0
 16 19  1  0
 19 20  1  0
 20 21  2  0
 20 22  1  0
 22 23  2  0
 23 24  1  0
 23 25  1  0
 25 26  1  0
 25 27  2  0
 27 28  1  0
 27 29  1  0
 29 30  1  0
 29 31  2  0
 31 32  1  0
 19 33  1  0
 33 34  1  0
 33 35  1  0
 33 36  1  0
 36 37  1  0
 36 38  1  0
 10 39  2  0
 39 40  1  0
 39 41  1  0
 41 42  2  0
 42  3  1  0
 42  9  1  0
 36 11  1  0
 31 22  1  0
M  CHG  3   4  -1  32  -1  39   1
M  END
>  <UniqueID>  (22) 
20

>  <SMILES>  (22) 
[H]/N=c1\[n-]ccn2c(C3CCN(C(=O)c4ccccc4[O-])CC3)[nH+]nc12

>  <Energy>  (22) 
97.36187983501357

>  <Genealogy>  (22) 
N=c1[n-]ccn2c(C3CCN(C(=O)c4ccccc4[O-])CC3)[nH+]nc12 (protonated)
[H]/N=c1\[n-]ccn2c(C3CCN(C(=O)c4ccccc4[O-])CC3)[nH+]nc12 (cis-trans isomerization)
[H]/N=c1\[n-]ccn2c(C3CCN(C(=O)c4ccccc4[O-])CC3)[nH+]nc12 (3D coordinates assigned)
[H]/N=c1\[n-]ccn2c(C3CCN(C(=O)c4ccccc4[O-])CC3)[nH+]nc12 (nonaromatic ring conformer: 97.36187983501357 kcal/mol)

>  <smiles>  (22) 
N=c1[nH]ccn2c(C3CCN(C(=O)c4ccccc4O)CC3)nnc12

>  <score_type>  (22) 
oracle

>  <origin>  (22) 
adg

>  <m_score__min__energy>  (22) 
-11.359999999999999

>  <m_primary>  (22) 
energy

$$$$
22:0
     RDKit          3D

 58 61  0  0  0  0  0  0  0  0999 V2000
   58.3961   34.6229   46.8095 H   0  0  0  0  0  0  0  0  0  0  0  0
   58.1310   33.9460   45.9840 C   0  0  0  0  0  0  0  0  0  0  0  0
   57.1590   33.0070   46.0990 N   0  0  0  0  0  0  0  0  0  0  0  0
   57.0150   32.3070   44.9540 C   0  0  0  0  0  0  0  0  0  0  0  0
   56.1690   31.3410   44.7860 N   0  0  0  0  0  0  0  0  0  0  0  0
   56.4830   29.9900   44.4210 C   0  0  0  0  0  0  0  0  0  0  0  0
   55.8050   29.4320   43.5220 O   0  0  0  0  0  0  0  0  0  0  0  0
   57.5500   29.2710   45.0550 N   0  0  0  0  0  0  0  0  0  0  0  0
   58.8700   29.8340   45.3160 C   0  0  0  0  0  0  0  0  0  0  0  0
   59.6396   29.1298   44.9670 H   0  0  0  0  0  0  0  0  0  0  0  0
   58.9613   30.7907   44.7808 H   0  0  0  0  0  0  0  0  0  0  0  0
   59.0550   30.0800   46.7880 C   0  0  0  0  0  0  0  0  0  0  0  0
   58.5140   29.1840   47.7190 C   0  0  0  0  0  0  0  0  0  0  0  0
   57.9455   28.3093   47.3702 H   0  0  0  0  0  0  0  0  0  0  0  0
   58.6930   29.3960   49.0890 C   0  0  0  0  0  0  0  0  0  0  0  0
   58.2617   28.6889   49.8129 H   0  0  0  0  0  0  0  0  0  0  0  0
   59.4200   30.5060   49.5460 C   0  0  0  0  0  0  0  0  0  0  0  0
   59.6810   30.7040   51.0190 C   0  0  0  0  0  0  0  0  0  0  0  0
   60.5476   30.0964   51.3187 H   0  0  0  0  0  0  0  0  0  0  0  0
   59.8840   31.7688   51.2061 H   0  0  0  0  0  0  0  0  0  0  0  0
   58.5020   30.2940   51.8090 N   0  0  0  0  0  0  0  0  0  0  0  0
   57.9430   31.4300   52.6030 C   0  0  0  0  0  0  0  0  0  0  0  0
   58.1896   32.3600   52.0698 H   0  0  0  0  0  0  0  0  0  0  0  0
   58.3972   31.3310   53.5999 H   0  0  0  0  0  0  0  0  0  0  0  0
   56.4090   31.4290   52.8580 C   0  0  0  0  0  0  0  0  0  0  0  0
   55.9103   31.4515   51.8778 H   0  0  0  0  0  0  0  0  0  0  0  0
   56.2260   32.3078   53.4937 H   0  0  0  0  0  0  0  0  0  0  0  0
   55.8460   30.2750   53.6230 N   0  0  0  0  0  0  0  0  0  0  0  0
   54.8550   29.5270   52.8210 C   0  0  0  0  0  0  0  0  0  0  0  0
   55.3164   29.2286   51.8681 H   0  0  0  0  0  0  0  0  0  0  0  0
   54.5402   28.6422   53.3938 H   0  0  0  0  0  0  0  0  0  0  0  0
   53.6360   30.3690   52.5350 C   0  0  0  0  0  0  0  0  0  0  0  0
   52.8440   30.8500   53.5900 C   0  0  0  0  0  0  0  0  0  0  0  0
   53.1121   30.6100   54.6295 H   0  0  0  0  0  0  0  0  0  0  0  0
   51.7200   31.6300   53.3260 C   0  0  0  0  0  0  0  0  0  0  0  0
   51.1050   32.0073   54.1563 H   0  0  0  0  0  0  0  0  0  0  0  0
   51.3740   31.9330   52.0060 C   0  0  0  0  0  0  0  0  0  0  0  0
   50.2500   32.7050   51.7460 O   0  0  0  0  0  0  0  0  0  0  0  0
   52.1580   31.4590   50.9510 C   0  0  0  0  0  0  0  0  0  0  0  0
   51.8862   31.7006   49.9129 H   0  0  0  0  0  0  0  0  0  0  0  0
   53.2860   30.6790   51.2130 C   0  0  0  0  0  0  0  0  0  0  0  0
   53.9014   30.3069   50.3806 H   0  0  0  0  0  0  0  0  0  0  0  0
   56.8440   29.3670   54.2330 C   0  0  0  0  0  0  0  0  0  0  0  0
   56.3452   28.7341   54.9818 H   0  0  0  0  0  0  0  0  0  0  0  0
   57.6296   29.9744   54.7062 H   0  0  0  0  0  0  0  0  0  0  0  0
   57.4900   28.4720   53.1690 C   0  0  0  0  0  0  0  0  0  0  0  0
   56.7637   28.3200   52.3570 H   0  0  0  0  0  0  0  0  0  0  0  0
   57.7681   27.5323   53.6686 H   0  0  0  0  0  0  0  0  0  0  0  0
   58.7730   29.0510   52.5660 C   0  0  0  0  0  0  0  0  0  0  0  0
   59.2161   28.3079   51.8867 H   0  0  0  0  0  0  0  0  0  0  0  0
   59.4640   29.2903   53.3878 H   0  0  0  0  0  0  0  0  0  0  0  0
   59.9460   31.4130   48.6130 C   0  0  0  0  0  0  0  0  0  0  0  0
   60.5019   32.2959   48.9614 H   0  0  0  0  0  0  0  0  0  0  0  0
   59.7670   31.2000   47.2440 C   0  0  0  0  0  0  0  0  0  0  0  0
   60.1863   31.9139   46.5197 H   0  0  0  0  0  0  0  0  0  0  0  0
   58.0820   32.8170   43.7610 S   0  0  0  0  0  0  0  0  0  0  0  0
   58.7700   33.9930   44.7470 C   0  0  0  0  0  0  0  0  0  0  0  0
   59.5822   34.6790   44.4646 H   0  0  0  0  0  0  0  0  0  0  0  0
  1  2  1  0
  2  3  1  0
  3  4  1  0
  4  5  2  0
  5  6  1  0
  6  7  2  0
  6  8  1  0
  8  9  1  0
  9 10  1  0
  9 11  1  0
  9 12  1  0
 12 13  2  0
 13 14  1  0
 13 15  1  0
 15 16  1  0
 15 17  2  0
 17 18  1  0
 18 19  1  0
 18 20  1  0
 18 21  1  0
 21 22  1  0
 22 23  1  0
 22 24  1  0
 22 25  1  0
 25 26  1  0
 25 27  1  0
 25 28  1  0
 28 29  1  0
 29 30  1  0
 29 31  1  0
 29 32  1  0
 32 33  2  0
 33 34  1  0
 33 35  1  0
 35 36  1  0
 35 37  2  0
 37 38  1  0
 37 39  1  0
 39 40  1  0
 39 41  2  0
 41 42  1  0
 28 43  1  0
 43 44  1  0
 43 45  1  0
 43 46  1  0
 46 47  1  0
 46 48  1  0
 46 49  1  0
 49 50  1  0
 49 51  1  0
 17 52  1  0
 52 53  1  0
 52 54  2  0
 54 55  1  0
  4 56  1  0
 56 57  1  0
 57 58  1  0
 57  2  2  0
 54 12  1  0
 49 21  1  0
 41 32  1  0
M  CHG  3   3  -1   8  -1  38  -1
M  END
>  <UniqueID>  (23) 
21

>  <SMILES>  (23) 
O=C(/N=c1\[n-]ccs1)[N-]Cc1ccc(CN2CCCN(Cc3ccc([O-])cc3)CC2)cc1

>  <Energy>  (23) 
113.90647130110945

>  <Genealogy>  (23) 
O=C(N=c1[n-]ccs1)[N-]Cc1ccc(CN2CCCN(Cc3ccc([O-])cc3)CC2)cc1 (protonated)
O=C(/N=c1\[n-]ccs1)[N-]Cc1ccc(CN2CCCN(Cc3ccc([O-])cc3)CC2)cc1 (cis-trans isomerization)
O=C(/N=c1\[n-]ccs1)[N-]Cc1ccc(CN2CCCN(Cc3ccc([O-])cc3)CC2)cc1 (3D coordinates assigned)
O=C(/N=c1\[n-]ccs1)[N-]Cc1ccc(CN2CCCN(Cc3ccc([O-])cc3)CC2)cc1 (nonaromatic ring conformer: 113.90647130110945 kcal/mol)

>  <smiles>  (23) 
O=C(N=c1[nH]ccs1)NCc1ccc(CN2CCCN(Cc3ccc(O)cc3)CC2)cc1

>  <score_type>  (23) 
oracle

>  <origin>  (23) 
adg

>  <m_score__min__energy>  (23) 
-12.56

>  <m_primary>  (23) 
energy

$$$$
23:0
     RDKit          3D

 49 51  0  0  0  0  0  0  0  0999 V2000
   57.1430   24.3530   46.5690 C   0  0  0  0  0  0  0  0  0  0  0  0
   57.1310   25.4870   47.2700 C   0  0  0  0  0  0  0  0  0  0  0  0
   57.3410   26.8300   46.6690 C   0  0  0  0  0  0  0  0  0  0  0  0
   58.5390   27.5470   46.8610 C   0  0  0  0  0  0  0  0  0  0  0  0
   58.7200   28.8170   46.2850 C   0  0  0  0  0  0  0  0  0  0  0  0
   59.9820   29.5650   46.4900 C   0  0  0  0  0  0  0  0  0  0  0  0
   60.8750   29.5300   45.5990 O   0  0  0  0  0  0  0  0  0  0  0  0
   60.2140   30.3230   47.6940 N   0  0  0  0  0  0  0  0  0  0  0  0
   61.5630   30.4560   48.2320 C   0  0  0  0  0  0  0  0  0  0  0  0
   62.1740   31.7980   47.8050 C   0  0  0  0  0  0  0  0  0  0  0  0
   61.2190   33.0590   47.8020 C   0  0  0  0  0  0  0  0  0  0  0  0
   61.6740   33.8740   46.5780 C   0  0  0  0  0  0  0  0  0  0  0  0
   63.0460   33.8950   46.1690 N   0  0  0  0  0  0  0  0  0  0  0  0
   60.8660   34.6400   45.9860 O   0  0  0  0  0  0  0  0  0  0  0  0
   61.4630   33.8820   49.0400 N   0  0  0  0  0  0  0  0  0  0  0  0
   62.8630   34.2110   49.3550 C   0  0  0  0  0  0  0  0  0  0  0  0
   63.2370   33.4930   50.6330 C   0  0  0  0  0  0  0  0  0  0  0  0
   61.9320   33.3270   51.3690 C   0  0  0  0  0  0  0  0  0  0  0  0
   60.8590   33.3640   50.2900 C   0  0  0  0  0  0  0  0  0  0  0  0
   59.6820   32.7070   47.6350 C   0  0  0  0  0  0  0  0  0  0  0  0
   59.2520   31.3250   48.1340 C   0  0  0  0  0  0  0  0  0  0  0  0
   57.7030   29.3550   45.4820 C   0  0  0  0  0  0  0  0  0  0  0  0
   56.5210   28.6440   45.2700 C   0  0  0  0  0  0  0  0  0  0  0  0
   56.3350   27.3890   45.8560 C   0  0  0  0  0  0  0  0  0  0  0  0
   55.1420   26.7090   45.6310 O   0  0  0  0  0  0  0  0  0  0  0  0
   56.9805   23.3908   47.0767 H   0  0  0  0  0  0  0  0  0  0  0  0
   57.3154   24.3796   45.4829 H   0  0  0  0  0  0  0  0  0  0  0  0
   56.9558   25.4252   48.3542 H   0  0  0  0  0  0  0  0  0  0  0  0
   59.3431   27.1074   47.4695 H   0  0  0  0  0  0  0  0  0  0  0  0
   61.5226   30.4082   49.3302 H   0  0  0  0  0  0  0  0  0  0  0  0
   62.1868   29.6376   47.8432 H   0  0  0  0  0  0  0  0  0  0  0  0
   63.0068   32.0153   48.4900 H   0  0  0  0  0  0  0  0  0  0  0  0
   62.4605   31.6569   46.7524 H   0  0  0  0  0  0  0  0  0  0  0  0
   63.3320   34.4390   45.3260 H   0  0  0  0  0  0  0  0  0  0  0  0
   63.7950   33.4510   46.7460 H   0  0  0  0  0  0  0  0  0  0  0  0
   63.5176   33.8795   48.5355 H   0  0  0  0  0  0  0  0  0  0  0  0
   62.9811   35.2976   49.4791 H   0  0  0  0  0  0  0  0  0  0  0  0
   63.6857   32.5134   50.4115 H   0  0  0  0  0  0  0  0  0  0  0  0
   63.9815   34.0485   51.2221 H   0  0  0  0  0  0  0  0  0  0  0  0
   61.9096   32.3654   51.9028 H   0  0  0  0  0  0  0  0  0  0  0  0
   61.7829   34.1123   52.1247 H   0  0  0  0  0  0  0  0  0  0  0  0
   60.4689   32.3496   50.1204 H   0  0  0  0  0  0  0  0  0  0  0  0
   60.0312   34.0160   50.6056 H   0  0  0  0  0  0  0  0  0  0  0  0
   59.1022   33.4602   48.1887 H   0  0  0  0  0  0  0  0  0  0  0  0
   59.4949   32.7024   46.5510 H   0  0  0  0  0  0  0  0  0  0  0  0
   59.2068   31.3308   49.2331 H   0  0  0  0  0  0  0  0  0  0  0  0
   58.2602   31.0823   47.7249 H   0  0  0  0  0  0  0  0  0  0  0  0
   57.8381   30.3427   45.0170 H   0  0  0  0  0  0  0  0  0  0  0  0
   55.7305   29.0742   44.6375 H   0  0  0  0  0  0  0  0  0  0  0  0
  1  2  2  0
  2  3  1  0
  3  4  2  0
  4  5  1  0
  5  6  1  0
  6  7  2  0
  6  8  1  0
  8  9  1  0
  9 10  1  0
 10 11  1  0
 11 12  1  0
 12 13  1  0
 12 14  2  0
 11 15  1  0
 15 16  1  0
 16 17  1  0
 17 18  1  0
 18 19  1  0
 11 20  1  0
 20 21  1  0
  5 22  2  0
 22 23  1  0
 23 24  2  0
 24 25  1  0
 24  3  1  0
 21  8  1  0
 19 15  1  0
  1 26  1  0
  1 27  1  0
  2 28  1  0
  4 29  1  0
  9 30  1  0
  9 31  1  0
 10 32  1  0
 10 33  1  0
 13 34  1  0
 13 35  1  0
 16 36  1  0
 16 37  1  0
 17 38  1  0
 17 39  1  0
 18 40  1  0
 18 41  1  0
 19 42  1  0
 19 43  1  0
 20 44  1  0
 20 45  1  0
 21 46  1  0
 21 47  1  0
 22 48  1  0
 23 49  1  0
M  CHG  1  25  -1
M  END
>  <UniqueID>  (24) 
22

>  <SMILES>  (24) 
C=Cc1cc(C(=O)N2CCC(C(N)=O)(N3CCCC3)CC2)ccc1[O-]

>  <Energy>  (24) 
79.17221271267711

>  <Genealogy>  (24) 
C=Cc1cc(C(=O)N2CCC(C(N)=O)(N3CCCC3)CC2)ccc1[O-] (protonated)
C=Cc1cc(C(=O)N2CCC(C(N)=O)(N3CCCC3)CC2)ccc1[O-] (3D coordinates assigned)
C=Cc1cc(C(=O)N2CCC(C(N)=O)(N3CCCC3)CC2)ccc1[O-] (nonaromatic ring conformer: 79.17221271267711 kcal/mol)

>  <smiles>  (24) 
C=Cc1cc(C(=O)N2CCC(C(N)=O)(N3CCCC3)CC2)ccc1O

>  <score_type>  (24) 
oracle

>  <origin>  (24) 
adg

>  <m_score__min__energy>  (24) 
-10.17

>  <m_primary>  (24) 
energy

$$$$
24:0
     RDKit          3D

 50 52  0  0  0  0  0  0  0  0999 V2000
   57.9680   32.3581   42.3213 H   0  0  0  0  0  0  0  0  0  0  0  0
   57.3530   31.5830   42.8020 C   0  0  0  0  0  0  0  0  0  0  0  0
   56.8147   30.8475   42.1861 H   0  0  0  0  0  0  0  0  0  0  0  0
   57.2600   31.5350   44.1320 C   0  0  0  0  0  0  0  0  0  0  0  0
   56.4450   30.5050   44.7170 N   0  0  0  0  0  0  0  0  0  0  0  0
   56.8370   29.3670   45.2200 C   0  0  0  0  0  0  0  0  0  0  0  0
   55.9530   28.3340   45.2460 N   0  0  0  0  0  0  0  0  0  0  0  0
   56.2750   27.1150   45.7480 C   0  0  0  0  0  0  0  0  0  0  0  0
   55.5257   26.3097   45.7551 H   0  0  0  0  0  0  0  0  0  0  0  0
   57.5530   26.8800   46.2550 C   0  0  0  0  0  0  0  0  0  0  0  0
   57.8120   25.8960   46.6730 H   0  0  0  0  0  0  0  0  0  0  0  0
   58.5070   27.9120   46.2270 C   0  0  0  0  0  0  0  0  0  0  0  0
   59.8180   27.7500   46.7050 O   0  0  0  0  0  0  0  0  0  0  0  0
   60.4430   28.5580   47.7020 C   0  0  0  0  0  0  0  0  0  0  0  0
   59.7735   28.6429   48.5707 H   0  0  0  0  0  0  0  0  0  0  0  0
   61.3916   28.0862   47.9978 H   0  0  0  0  0  0  0  0  0  0  0  0
   60.7370   29.9580   47.1540 C   0  0  0  0  0  0  0  0  0  0  0  0
   61.8101   30.0394   46.9264 H   0  0  0  0  0  0  0  0  0  0  0  0
   60.1423   30.1145   46.2420 H   0  0  0  0  0  0  0  0  0  0  0  0
   60.3640   31.0100   48.1640 C   0  0  0  0  0  0  0  0  0  0  0  0
   59.2130   30.8560   48.9500 C   0  0  0  0  0  0  0  0  0  0  0  0
   58.5963   29.9511   48.8461 H   0  0  0  0  0  0  0  0  0  0  0  0
   58.8450   31.8480   49.8660 C   0  0  0  0  0  0  0  0  0  0  0  0
   57.9436   31.7172   50.4827 H   0  0  0  0  0  0  0  0  0  0  0  0
   59.6230   33.0110   50.0010 C   0  0  0  0  0  0  0  0  0  0  0  0
   59.2870   34.0560   50.9260 N   0  0  0  0  0  0  0  0  0  0  0  0
   58.5650   33.8350   52.4870 S   0  0  0  0  0  0  0  0  0  0  0  0
   57.1550   33.3340   52.3350 O   0  0  0  0  0  0  0  0  0  0  0  0
   58.5320   35.1600   53.1940 O   0  0  0  0  0  0  0  0  0  0  0  0
   59.5300   32.6950   53.4540 C   0  0  0  0  0  0  0  0  0  0  0  0
   59.3647   32.8903   54.5238 H   0  0  0  0  0  0  0  0  0  0  0  0
   59.2254   31.6647   53.2180 H   0  0  0  0  0  0  0  0  0  0  0  0
   60.5965   32.8253   53.2180 H   0  0  0  0  0  0  0  0  0  0  0  0
   60.7630   33.1680   49.2020 C   0  0  0  0  0  0  0  0  0  0  0  0
   61.3736   34.0781   49.2961 H   0  0  0  0  0  0  0  0  0  0  0  0
   61.1310   32.1790   48.2870 C   0  0  0  0  0  0  0  0  0  0  0  0
   62.0248   32.3167   47.6608 H   0  0  0  0  0  0  0  0  0  0  0  0
   58.1460   29.1580   45.7040 C   0  0  0  0  0  0  0  0  0  0  0  0
   58.8821   29.9747   45.6700 H   0  0  0  0  0  0  0  0  0  0  0  0
   57.8370   32.6220   44.9720 C   0  0  0  0  0  0  0  0  0  0  0  0
   57.5260   32.7250   46.3420 C   0  0  0  0  0  0  0  0  0  0  0  0
   56.8595   31.9846   46.8085 H   0  0  0  0  0  0  0  0  0  0  0  0
   58.0590   33.7620   47.1120 C   0  0  0  0  0  0  0  0  0  0  0  0
   57.8118   33.8343   48.1814 H   0  0  0  0  0  0  0  0  0  0  0  0
   58.9050   34.7070   46.5270 C   0  0  0  0  0  0  0  0  0  0  0  0
   59.3252   35.5213   47.1356 H   0  0  0  0  0  0  0  0  0  0  0  0
   59.2170   34.6170   45.1680 C   0  0  0  0  0  0  0  0  0  0  0  0
   59.8815   35.3624   44.7068 H   0  0  0  0  0  0  0  0  0  0  0  0
   58.6860   33.5810   44.3930 C   0  0  0  0  0  0  0  0  0  0  0  0
   58.9344   33.5162   43.3234 H   0  0  0  0  0  0  0  0  0  0  0  0
  1  2  1  0
  2  3  1  0
  2  4  2  0
  4  5  1  0
  5  6  2  0
  6  7  1  0
  7  8  1  0
  8  9  1  0
  8 10  2  0
 10 11  1  0
 10 12  1  0
 12 13  1  0
 13 14  1  0
 14 15  1  0
 14 16  1  0
 14 17  1  0
 17 18  1  0
 17 19  1  0
 17 20  1  0
 20 21  2  0
 21 22  1  0
 21 23  1  0
 23 24  1  0
 23 25  2  0
 25 26  1  0
 26 27  1  0
 27 28  2  0
 27 29  2  0
 27 30  1  0
 30 31  1  0
 30 32  1  0
 30 33  1  0
 25 34  1  0
 34 35  1  0
 34 36  2  0
 36 37  1  0
 12 38  2  0
 38 39  1  0
  4 40  1  0
 40 41  2  0
 41 42  1  0
 41 43  1  0
 43 44  1  0
 43 45  2  0
 45 46  1  0
 45 47  1  0
 47 48  1  0
 47 49  2  0
 49 50  1  0
 38  6  1  0
 49 40  1  0
 36 20  1  0
M  CHG  2   7  -1  26  -1
M  END
>  <UniqueID>  (25) 
23

>  <SMILES>  (25) 
C=C(/N=c1\cc(OCCc2ccc([N-]S(C)(=O)=O)cc2)cc[n-]1)c1ccccc1

>  <Energy>  (25) 
60.82700055780368

>  <Genealogy>  (25) 
C=C(N=c1cc(OCCc2ccc([N-]S(C)(=O)=O)cc2)cc[n-]1)c1ccccc1 (protonated)
C=C(/N=c1\cc(OCCc2ccc([N-]S(C)(=O)=O)cc2)cc[n-]1)c1ccccc1 (cis-trans isomerization)
C=C(/N=c1\cc(OCCc2ccc([N-]S(C)(=O)=O)cc2)cc[n-]1)c1ccccc1 (3D coordinates assigned)
C=C(/N=c1\cc(OCCc2ccc([N-]S(C)(=O)=O)cc2)cc[n-]1)c1ccccc1 (optimized conformer: 60.82700055780368 kcal/mol)

>  <smiles>  (25) 
C=C(N=c1cc(OCCc2ccc(NS(C)(=O)=O)cc2)cc[nH]1)c1ccccc1

>  <score_type>  (25) 
oracle

>  <origin>  (25) 
adg

>  <m_score__min__energy>  (25) 
-11.43

>  <m_primary>  (25) 
energy

$$$$
25:0
     RDKit          3D

 41 44  0  0  0  0  0  0  0  0999 V2000
   61.0937   29.0138   44.9192 H   0  0  0  0  0  0  0  0  0  0  0  0
   60.0470   28.7550   45.1370 C   0  0  0  0  0  0  0  0  0  0  0  0
   59.7560   27.6930   45.9960 C   0  0  0  0  0  0  0  0  0  0  0  0
   60.5760   27.1114   46.4425 H   0  0  0  0  0  0  0  0  0  0  0  0
   58.4230   27.3620   46.2940 C   0  0  0  0  0  0  0  0  0  0  0  0
   58.1050   26.2390   47.2070 C   0  0  0  0  0  0  0  0  0  0  0  0
   58.9100   25.9500   48.1320 O   0  0  0  0  0  0  0  0  0  0  0  0
   56.8790   25.5000   47.1070 N   0  0  0  0  0  0  0  0  0  0  0  0
   56.5390   24.5640   46.0750 C   0  0  0  0  0  0  0  0  0  0  0  0
   55.2470   24.5480   45.4820 C   0  0  0  0  0  0  0  0  0  0  0  0
   54.4798   25.2578   45.8249 H   0  0  0  0  0  0  0  0  0  0  0  0
   54.9430   23.6310   44.4600 C   0  0  0  0  0  0  0  0  0  0  0  0
   53.9426   23.6002   44.0036 H   0  0  0  0  0  0  0  0  0  0  0  0
   55.9490   22.7640   44.0450 C   0  0  0  0  0  0  0  0  0  0  0  0
   57.1900   22.7890   44.5930 C   0  0  0  0  0  0  0  0  0  0  0  0
   57.5310   23.6790   45.6060 C   0  0  0  0  0  0  0  0  0  0  0  0
   58.5462   23.6919   46.0293 H   0  0  0  0  0  0  0  0  0  0  0  0
   57.9790   21.8300   43.9880 O   0  0  0  0  0  0  0  0  0  0  0  0
   57.1830   21.1590   43.0010 C   0  0  0  0  0  0  0  0  0  0  0  0
   57.6219   21.2846   42.0002 H   0  0  0  0  0  0  0  0  0  0  0  0
   57.1231   20.0763   43.1860 H   0  0  0  0  0  0  0  0  0  0  0  0
   55.8960   21.7880   43.0690 O   0  0  0  0  0  0  0  0  0  0  0  0
   57.3860   28.0960   45.6910 C   0  0  0  0  0  0  0  0  0  0  0  0
   56.3385   27.8360   45.9033 H   0  0  0  0  0  0  0  0  0  0  0  0
   57.6770   29.1570   44.8210 C   0  0  0  0  0  0  0  0  0  0  0  0
   56.3750   30.0910   44.0940 S   0  0  0  0  0  0  0  0  0  0  0  0
   55.0710   29.3650   44.2800 O   0  0  0  0  0  0  0  0  0  0  0  0
   56.6410   30.2600   42.6230 O   0  0  0  0  0  0  0  0  0  0  0  0
   56.3020   31.6440   44.8640 N   0  0  0  0  0  0  0  0  0  0  0  0
   57.2760   32.5030   44.8710 C   0  0  0  0  0  0  0  0  0  0  0  0
   57.9970   32.7960   43.7730 N   0  0  0  0  0  0  0  0  0  0  0  0
   58.8770   33.6830   44.1390 O   0  0  0  0  0  0  0  0  0  0  0  0
   58.7570   33.9740   45.4150 C   0  0  0  0  0  0  0  0  0  0  0  0
   59.6090   34.9560   46.1450 C   0  0  0  0  0  0  0  0  0  0  0  0
   59.4858   34.8140   47.2288 H   0  0  0  0  0  0  0  0  0  0  0  0
   60.6633   34.8007   45.8724 H   0  0  0  0  0  0  0  0  0  0  0  0
   59.3065   35.9778   45.8724 H   0  0  0  0  0  0  0  0  0  0  0  0
   57.7250   33.2370   45.9540 C   0  0  0  0  0  0  0  0  0  0  0  0
   57.3511   33.2333   46.9885 H   0  0  0  0  0  0  0  0  0  0  0  0
   59.0120   29.4890   44.5540 C   0  0  0  0  0  0  0  0  0  0  0  0
   59.2451   30.3295   43.8838 H   0  0  0  0  0  0  0  0  0  0  0  0
  1  2  1  0
  2  3  2  0
  3  4  1  0
  3  5  1  0
  5  6  1  0
  6  7  2  0
  6  8  1  0
  8  9  1  0
  9 10  2  0
 10 11  1  0
 10 12  1  0
 12 13  1  0
 12 14  2  0
 14 15  1  0
 15 16  2  0
 16 17  1  0
 15 18  1  0
 18 19  1  0
 19 20  1  0
 19 21  1  0
 19 22  1  0
  5 23  2  0
 23 24  1  0
 23 25  1  0
 25 26  1  0
 26 27  2  0
 26 28  2  0
 26 29  1  0
 29 30  2  0
 30 31  1  0
 31 32  1  0
 32 33  1  0
 33 34  1  0
 34 35  1  0
 34 36  1  0
 34 37  1  0
 33 38  2  0
 38 39  1  0
 25 40  2  0
 40 41  1  0
 40  2  1  0
 16  9  1  0
 38 30  1  0
 22 14  1  0
M  CHG  2   8  -1  31  -1
M  END
>  <UniqueID>  (26) 
24

>  <SMILES>  (26) 
Cc1c/c(=N\S(=O)(=O)c2cccc(C(=O)[N-]c3ccc4c(c3)OCO4)c2)[n-]o1

>  <Energy>  (26) 
113.77058388487877

>  <Genealogy>  (26) 
Cc1cc(=NS(=O)(=O)c2cccc(C(=O)[N-]c3ccc4c(c3)OCO4)c2)[n-]o1 (protonated)
Cc1c/c(=N\S(=O)(=O)c2cccc(C(=O)[N-]c3ccc4c(c3)OCO4)c2)[n-]o1 (cis-trans isomerization)
Cc1c/c(=N\S(=O)(=O)c2cccc(C(=O)[N-]c3ccc4c(c3)OCO4)c2)[n-]o1 (3D coordinates assigned)
Cc1c/c(=N\S(=O)(=O)c2cccc(C(=O)[N-]c3ccc4c(c3)OCO4)c2)[n-]o1 (nonaromatic ring conformer: 113.77058388487877 kcal/mol)

>  <smiles>  (26) 
Cc1cc(=NS(=O)(=O)c2cccc(C(=O)Nc3ccc4c(c3)OCO4)c2)[nH]o1

>  <score_type>  (26) 
oracle

>  <origin>  (26) 
adg

>  <m_score__min__energy>  (26) 
-13.029999999999999

>  <m_primary>  (26) 
energy

$$$$
26:0
     RDKit          3D

 38 40  0  0  0  0  0  0  0  0999 V2000
   59.9650   34.6910   46.3000 C   0  0  0  0  0  0  0  0  0  0  0  0
   60.9000   33.5900   46.7290 C   0  0  0  0  0  0  0  0  0  0  0  0
   62.2840   33.8400   46.7360 C   0  0  0  0  0  0  0  0  0  0  0  0
   63.1850   32.8450   47.1190 C   0  0  0  0  0  0  0  0  0  0  0  0
   64.5160   33.1010   47.1280 F   0  0  0  0  0  0  0  0  0  0  0  0
   62.7160   31.5860   47.4950 C   0  0  0  0  0  0  0  0  0  0  0  0
   61.3470   31.3160   47.4820 C   0  0  0  0  0  0  0  0  0  0  0  0
   60.4270   32.3030   47.0910 C   0  0  0  0  0  0  0  0  0  0  0  0
   58.6990   31.9090   47.0960 S   0  0  0  0  0  0  0  0  0  0  0  0
   58.4970   30.6460   47.8840 O   0  0  0  0  0  0  0  0  0  0  0  0
   57.9180   33.0130   47.7530 O   0  0  0  0  0  0  0  0  0  0  0  0
   58.1300   31.7090   45.4650 N   0  0  0  0  0  0  0  0  0  0  0  0
   57.7740   32.8200   44.5950 C   0  0  0  0  0  0  0  0  0  0  0  0
   57.7700   32.2070   43.1870 C   0  0  0  0  0  0  0  0  0  0  0  0
   58.1410   30.8140   43.3890 N   0  0  0  0  0  0  0  0  0  0  0  0
   58.3210   30.5670   44.6410 C   0  0  0  0  0  0  0  0  0  0  0  0
   58.6220   29.2110   45.1460 C   0  0  0  0  0  0  0  0  0  0  0  0
   59.9500   28.8190   45.3870 C   0  0  0  0  0  0  0  0  0  0  0  0
   60.2290   27.5380   45.8740 C   0  0  0  0  0  0  0  0  0  0  0  0
   59.1870   26.6440   46.1330 C   0  0  0  0  0  0  0  0  0  0  0  0
   57.8620   27.0310   45.9090 C   0  0  0  0  0  0  0  0  0  0  0  0
   57.5790   28.3100   45.4220 C   0  0  0  0  0  0  0  0  0  0  0  0
   59.5464   35.1840   47.1898 H   0  0  0  0  0  0  0  0  0  0  0  0
   60.5176   35.4278   45.6985 H   0  0  0  0  0  0  0  0  0  0  0  0
   59.1484   34.2650   45.6985 H   0  0  0  0  0  0  0  0  0  0  0  0
   62.6602   34.8294   46.4367 H   0  0  0  0  0  0  0  0  0  0  0  0
   63.4267   30.8047   47.8023 H   0  0  0  0  0  0  0  0  0  0  0  0
   60.9849   30.3212   47.7807 H   0  0  0  0  0  0  0  0  0  0  0  0
   56.7797   33.2142   44.8521 H   0  0  0  0  0  0  0  0  0  0  0  0
   58.4706   33.6665   44.6849 H   0  0  0  0  0  0  0  0  0  0  0  0
   56.7699   32.2804   42.7349 H   0  0  0  0  0  0  0  0  0  0  0  0
   58.4594   32.7265   42.5051 H   0  0  0  0  0  0  0  0  0  0  0  0
   58.2040   30.1050   42.6250 H   0  0  0  0  0  0  0  0  0  0  0  0
   60.7730   29.5223   45.1919 H   0  0  0  0  0  0  0  0  0  0  0  0
   61.2707   27.2338   46.0535 H   0  0  0  0  0  0  0  0  0  0  0  0
   59.4088   25.6359   46.5131 H   0  0  0  0  0  0  0  0  0  0  0  0
   57.0417   26.3280   46.1163 H   0  0  0  0  0  0  0  0  0  0  0  0
   56.5350   28.6131   45.2539 H   0  0  0  0  0  0  0  0  0  0  0  0
  1  2  1  0
  2  3  2  0
  3  4  1  0
  4  5  1  0
  4  6  2  0
  6  7  1  0
  7  8  2  0
  8  9  1  0
  9 10  2  0
  9 11  2  0
  9 12  1  0
 12 13  1  0
 13 14  1  0
 14 15  1  0
 15 16  2  0
 16 17  1  0
 17 18  2  0
 18 19  1  0
 19 20  2  0
 20 21  1  0
 21 22  2  0
  8  2  1  0
 16 12  1  0
 22 17  1  0
  1 23  1  0
  1 24  1  0
  1 25  1  0
  3 26  1  0
  6 27  1  0
  7 28  1  0
 13 29  1  0
 13 30  1  0
 14 31  1  0
 14 32  1  0
 15 33  1  0
 18 34  1  0
 19 35  1  0
 20 36  1  0
 21 37  1  0
 22 38  1  0
M  CHG  1  15   1
M  END
>  <UniqueID>  (27) 
25

>  <SMILES>  (27) 
Cc1cc(F)ccc1S(=O)(=O)N1CC[NH+]=C1c1ccccc1

>  <Energy>  (27) 
58.17041590281979

>  <Genealogy>  (27) 
Cc1cc(F)ccc1S(=O)(=O)N1CC[NH+]=C1c1ccccc1 (protonated)
Cc1cc(F)ccc1S(=O)(=O)N1CC[NH+]=C1c1ccccc1 (3D coordinates assigned)
Cc1cc(F)ccc1S(=O)(=O)N1CC[NH+]=C1c1ccccc1 (nonaromatic ring conformer: 58.17041590281979 kcal/mol)

>  <smiles>  (27) 
Cc1cc(F)ccc1S(=O)(=O)N1CCN=C1c1ccccc1

>  <score_type>  (27) 
oracle

>  <origin>  (27) 
adg

>  <m_score__min__energy>  (27) 
-6.2199999999999998

>  <m_primary>  (27) 
energy

$$$$
27:0
     RDKit          3D

 45 48  0  0  0  0  0  0  0  0999 V2000
   56.7670   30.2670   45.1370 O   0  0  0  0  0  0  0  0  0  0  0  0
   57.7390   29.8760   45.8380 C   0  0  0  0  0  0  0  0  0  0  0  0
   58.7030   30.8720   46.3590 C   0  0  0  0  0  0  0  0  0  0  0  0
   58.4720   32.2470   46.0180 N   0  0  0  0  0  0  0  0  0  0  0  0
   58.4600   32.6750   44.6190 C   0  0  0  0  0  0  0  0  0  0  0  0
   59.1170   34.0530   44.5050 C   0  0  0  0  0  0  0  0  0  0  0  0
   58.5370   34.9640   45.4220 O   0  0  0  0  0  0  0  0  0  0  0  0
   58.8120   34.5530   46.7500 C   0  0  0  0  0  0  0  0  0  0  0  0
   58.1280   33.2180   47.0580 C   0  0  0  0  0  0  0  0  0  0  0  0
   59.7670   30.4940   47.1240 C   0  0  0  0  0  0  0  0  0  0  0  0
   60.7240   31.4850   47.6240 N   0  0  0  0  0  0  0  0  0  0  0  0
   62.0940   31.2140   47.1300 C   0  0  0  0  0  0  0  0  0  0  0  0
   62.9980   32.4580   47.2500 C   0  0  0  0  0  0  0  0  0  0  0  0
   62.5940   33.5380   48.6790 S   0  0  0  0  0  0  0  0  0  0  0  0
   61.9090   32.2190   49.7340 C   0  0  0  0  0  0  0  0  0  0  0  0
   60.6530   31.5880   49.1040 C   0  0  0  0  0  0  0  0  0  0  0  0
   59.9330   29.0410   47.4580 C   0  0  0  0  0  0  0  0  0  0  0  0
   60.8770   28.6640   48.2040 O   0  0  0  0  0  0  0  0  0  0  0  0
   58.9900   28.0290   46.9300 C   0  0  0  0  0  0  0  0  0  0  0  0
   59.1570   26.6610   47.2170 C   0  0  0  0  0  0  0  0  0  0  0  0
   58.2570   25.7190   46.7140 C   0  0  0  0  0  0  0  0  0  0  0  0
   57.1850   26.1300   45.9210 C   0  0  0  0  0  0  0  0  0  0  0  0
   57.0080   27.4850   45.6300 C   0  0  0  0  0  0  0  0  0  0  0  0
   57.9090   28.4400   46.1320 C   0  0  0  0  0  0  0  0  0  0  0  0
   59.0184   31.9502   44.0084 H   0  0  0  0  0  0  0  0  0  0  0  0
   57.4217   32.7314   44.2601 H   0  0  0  0  0  0  0  0  0  0  0  0
   60.1916   33.9592   44.7206 H   0  0  0  0  0  0  0  0  0  0  0  0
   58.9632   34.4337   43.4845 H   0  0  0  0  0  0  0  0  0  0  0  0
   59.8989   34.4386   46.8745 H   0  0  0  0  0  0  0  0  0  0  0  0
   58.4258   35.3154   47.4425 H   0  0  0  0  0  0  0  0  0  0  0  0
   58.4703   32.8466   48.0352 H   0  0  0  0  0  0  0  0  0  0  0  0
   57.0375   33.3599   47.0835 H   0  0  0  0  0  0  0  0  0  0  0  0
   60.4740   32.4290   47.2540 H   0  0  0  0  0  0  0  0  0  0  0  0
   62.5315   30.3965   47.7218 H   0  0  0  0  0  0  0  0  0  0  0  0
   62.0279   30.9383   46.0672 H   0  0  0  0  0  0  0  0  0  0  0  0
   64.0395   32.1201   47.3551 H   0  0  0  0  0  0  0  0  0  0  0  0
   62.8374   33.0576   46.3419 H   0  0  0  0  0  0  0  0  0  0  0  0
   62.6715   31.4380   49.8703 H   0  0  0  0  0  0  0  0  0  0  0  0
   61.6254   32.6619   50.7002 H   0  0  0  0  0  0  0  0  0  0  0  0
   60.5255   30.5770   49.5182 H   0  0  0  0  0  0  0  0  0  0  0  0
   59.8042   32.2454   49.3435 H   0  0  0  0  0  0  0  0  0  0  0  0
   60.0011   26.3322   47.8410 H   0  0  0  0  0  0  0  0  0  0  0  0
   58.3934   24.6518   46.9432 H   0  0  0  0  0  0  0  0  0  0  0  0
   56.4783   25.3862   45.5244 H   0  0  0  0  0  0  0  0  0  0  0  0
   56.1607   27.8055   45.0060 H   0  0  0  0  0  0  0  0  0  0  0  0
  1  2  2  0
  2  3  1  0
  3  4  1  0
  4  5  1  0
  5  6  1  0
  6  7  1  0
  7  8  1  0
  8  9  1  0
  3 10  2  0
 10 11  1  0
 11 12  1  0
 12 13  1  0
 13 14  1  0
 14 15  1  0
 15 16  1  0
 10 17  1  0
 17 18  2  0
 17 19  1  0
 19 20  2  0
 20 21  1  0
 21 22  2  0
 22 23  1  0
 23 24  2  0
 24  2  1  0
  9  4  1  0
 16 11  1  0
 24 19  1  0
  5 25  1  0
  5 26  1  0
  6 27  1  0
  6 28  1  0
  8 29  1  0
  8 30  1  0
  9 31  1  0
  9 32  1  0
 11 33  1  0
 12 34  1  0
 12 35  1  0
 13 36  1  0
 13 37  1  0
 15 38  1  0
 15 39  1  0
 16 40  1  0
 16 41  1  0
 20 42  1  0
 21 43  1  0
 22 44  1  0
 23 45  1  0
M  CHG  1  11   1
M  END
>  <UniqueID>  (28) 
26

>  <SMILES>  (28) 
O=C1C(N2CCOCC2)=C([NH+]2CCSCC2)C(=O)c2ccccc21

>  <Energy>  (28) 
68.31088363494294

>  <Genealogy>  (28) 
O=C1C(N2CCOCC2)=C([NH+]2CCSCC2)C(=O)c2ccccc21 (protonated)
O=C1C(N2CCOCC2)=C([NH+]2CCSCC2)C(=O)c2ccccc21 (3D coordinates assigned)
O=C1C(N2CCOCC2)=C([NH+]2CCSCC2)C(=O)c2ccccc21 (nonaromatic ring conformer: 68.31088363494294 kcal/mol)

>  <smiles>  (28) 
O=C1C(N2CCOCC2)=C(N2CCSCC2)C(=O)c2ccccc21

>  <score_type>  (28) 
oracle

>  <origin>  (28) 
adg

>  <m_score__min__energy>  (28) 
-6.1799999999999997

>  <m_primary>  (28) 
energy

$$$$
28:0
     RDKit          3D

 40 42  0  0  0  0  0  0  0  0999 V2000
   59.7910   28.3660   48.3790 C   0  0  0  0  0  0  0  0  0  0  0  0
   59.0470   28.7670   47.3410 C   0  0  0  0  0  0  0  0  0  0  0  0
   58.8440   30.0690   47.0590 N   0  0  0  0  0  0  0  0  0  0  0  0
   58.0690   30.1210   45.9600 C   0  0  0  0  0  0  0  0  0  0  0  0
   57.5920   31.3840   45.3580 C   0  0  0  0  0  0  0  0  0  0  0  0
   56.6490   31.3390   44.5230 O   0  0  0  0  0  0  0  0  0  0  0  0
   58.1900   32.6960   45.6940 C   0  0  0  0  0  0  0  0  0  0  0  0
   58.5390   33.6110   44.6870 C   0  0  0  0  0  0  0  0  0  0  0  0
   59.1240   34.8340   45.0180 C   0  0  0  0  0  0  0  0  0  0  0  0
   59.3730   35.1570   46.3530 C   0  0  0  0  0  0  0  0  0  0  0  0
   59.0390   34.2530   47.3780 C   0  0  0  0  0  0  0  0  0  0  0  0
   59.2820   34.5470   48.7670 N   0  0  0  0  0  0  0  0  0  0  0  0
   59.7500   33.3720   49.9570 S   0  0  0  0  0  0  0  0  0  0  0  0
   61.4780   33.5420   50.3490 C   0  0  0  0  0  0  0  0  0  0  0  0
   58.9530   33.6070   51.2090 O   0  0  0  0  0  0  0  0  0  0  0  0
   59.4580   31.9860   49.4540 O   0  0  0  0  0  0  0  0  0  0  0  0
   58.4600   33.0200   47.0350 C   0  0  0  0  0  0  0  0  0  0  0  0
   57.7510   28.8430   45.5360 C   0  0  0  0  0  0  0  0  0  0  0  0
   58.3800   27.9620   46.4110 C   0  0  0  0  0  0  0  0  0  0  0  0
   58.3560   26.6120   46.3840 C   0  0  0  0  0  0  0  0  0  0  0  0
   57.1420   25.7650   46.4220 C   0  0  0  0  0  0  0  0  0  0  0  0
   57.0850   24.4750   46.7990 N   0  0  0  0  0  0  0  0  0  0  0  0
   55.7790   24.1600   46.6590 C   0  0  0  0  0  0  0  0  0  0  0  0
   55.3260   23.0160   46.9190 O   0  0  0  0  0  0  0  0  0  0  0  0
   54.9980   25.1670   46.2160 N   0  0  0  0  0  0  0  0  0  0  0  0
   55.8750   26.1740   46.0710 C   0  0  0  0  0  0  0  0  0  0  0  0
   55.5250   27.4420   45.6230 O   0  0  0  0  0  0  0  0  0  0  0  0
   59.9309   27.2924   48.5732 H   0  0  0  0  0  0  0  0  0  0  0  0
   60.2625   29.1101   49.0378 H   0  0  0  0  0  0  0  0  0  0  0  0
   59.2190   30.8890   47.5900 H   0  0  0  0  0  0  0  0  0  0  0  0
   58.3503   33.3623   43.6322 H   0  0  0  0  0  0  0  0  0  0  0  0
   59.3901   35.5466   44.2234 H   0  0  0  0  0  0  0  0  0  0  0  0
   59.8330   36.1239   46.6051 H   0  0  0  0  0  0  0  0  0  0  0  0
   59.2410   35.5420   49.0860 H   0  0  0  0  0  0  0  0  0  0  0  0
   61.6067   33.5547   51.4414 H   0  0  0  0  0  0  0  0  0  0  0  0
   62.0355   32.6944   49.9239 H   0  0  0  0  0  0  0  0  0  0  0  0
   61.8597   34.4820   49.9239 H   0  0  0  0  0  0  0  0  0  0  0  0
   58.2143   32.2975   47.8272 H   0  0  0  0  0  0  0  0  0  0  0  0
   57.1225   28.5749   44.6739 H   0  0  0  0  0  0  0  0  0  0  0  0
   59.3254   26.0951   46.3288 H   0  0  0  0  0  0  0  0  0  0  0  0
  1  2  2  0
  2  3  1  0
  3  4  1  0
  4  5  1  0
  5  6  2  0
  5  7  1  0
  7  8  2  0
  8  9  1  0
  9 10  2  0
 10 11  1  0
 11 12  1  0
 12 13  1  0
 13 14  1  0
 13 15  2  0
 13 16  2  0
 11 17  2  0
  4 18  2  0
 18 19  1  0
 19 20  2  3
 20 21  1  0
 21 22  1  0
 22 23  1  0
 23 24  2  0
 23 25  1  0
 25 26  1  0
 26 27  1  0
 19  2  1  0
 26 21  2  0
 17  7  1  0
  1 28  1  0
  1 29  1  0
  3 30  1  0
  8 31  1  0
  9 32  1  0
 10 33  1  0
 12 34  1  0
 14 35  1  0
 14 36  1  0
 14 37  1  0
 17 38  1  0
 18 39  1  0
 20 40  1  0
M  CHG  3  22  -1  25  -1  27  -1
M  END
>  <UniqueID>  (29) 
27

>  <SMILES>  (29) 
C=c1[nH]c(C(=O)c2cccc(NS(C)(=O)=O)c2)cc1=Cc1[n-]c(=O)[n-]c1[O-]

>  <Energy>  (29) 
105.7828411982193

>  <Genealogy>  (29) 
C=c1[nH]c(C(=O)c2cccc(NS(C)(=O)=O)c2)cc1=Cc1[n-]c(=O)[n-]c1[O-] (protonated)
C=c1[nH]c(C(=O)c2cccc(NS(C)(=O)=O)c2)cc1=Cc1[n-]c(=O)[n-]c1[O-] (3D coordinates assigned)
C=c1[nH]c(C(=O)c2cccc(NS(C)(=O)=O)c2)cc1=Cc1[n-]c(=O)[n-]c1[O-] (optimized conformer: 105.7828411982193 kcal/mol)

>  <smiles>  (29) 
C=c1[nH]c(C(=O)c2cccc(NS(C)(=O)=O)c2)cc1=Cc1[nH]c(=O)[nH]c1O

>  <score_type>  (29) 
oracle

>  <origin>  (29) 
adg

>  <m_score__min__energy>  (29) 
-17.43

>  <m_primary>  (29) 
energy

$$$$
29:0
     RDKit          3D

 54 56  0  0  0  0  0  0  0  0999 V2000
   56.1030   26.1000   44.9600 H   0  0  0  0  0  0  0  0  0  0  0  0
   55.9990   26.7580   45.7200 O   0  0  0  0  0  0  0  0  0  0  0  0
   56.2810   28.1090   45.5400 C   0  0  0  0  0  0  0  0  0  0  0  0
   55.5160   28.9470   44.8190 N   0  0  0  0  0  0  0  0  0  0  0  0
   56.2210   30.1000   44.8680 C   0  0  0  0  0  0  0  0  0  0  0  0
   55.8360   31.1530   44.2990 O   0  0  0  0  0  0  0  0  0  0  0  0
   57.3740   30.0330   45.5710 N   0  0  0  0  0  0  0  0  0  0  0  0
   57.3930   28.7670   46.0210 C   0  0  0  0  0  0  0  0  0  0  0  0
   58.5290   28.1830   46.7470 C   0  0  0  0  0  0  0  0  0  0  0  0
   58.6614   27.0937   46.6710 H   0  0  0  0  0  0  0  0  0  0  0  0
   59.4250   28.8560   47.4980 C   0  0  0  0  0  0  0  0  0  0  0  0
   59.6980   28.5080   48.8140 C   0  0  0  0  0  0  0  0  0  0  0  0
   59.2799   27.6538   49.3667 H   0  0  0  0  0  0  0  0  0  0  0  0
   60.5940   29.4390   49.2950 C   0  0  0  0  0  0  0  0  0  0  0  0
   61.1180   29.4670   50.7010 C   0  0  0  0  0  0  0  0  0  0  0  0
   60.2758   29.4220   51.4071 H   0  0  0  0  0  0  0  0  0  0  0  0
   61.7791   28.6029   50.8632 H   0  0  0  0  0  0  0  0  0  0  0  0
   61.6832   30.3966   50.8632 H   0  0  0  0  0  0  0  0  0  0  0  0
   60.8910   30.3490   48.3420 N   0  0  0  0  0  0  0  0  0  0  0  0
   61.8670   31.3980   48.4740 C   0  0  0  0  0  0  0  0  0  0  0  0
   62.9770   31.1630   49.0200 O   0  0  0  0  0  0  0  0  0  0  0  0
   61.5520   32.7330   48.0480 N   0  0  0  0  0  0  0  0  0  0  0  0
   62.4380   33.4280   47.1120 C   0  0  0  0  0  0  0  0  0  0  0  0
   63.1815   34.0112   47.6752 H   0  0  0  0  0  0  0  0  0  0  0  0
   62.9534   32.6908   46.4788 H   0  0  0  0  0  0  0  0  0  0  0  0
   61.8447   34.1041   46.4788 H   0  0  0  0  0  0  0  0  0  0  0  0
   60.5140   33.4790   48.7690 C   0  0  0  0  0  0  0  0  0  0  0  0
   60.6554   33.3460   49.8517 H   0  0  0  0  0  0  0  0  0  0  0  0
   60.5907   34.5456   48.5110 H   0  0  0  0  0  0  0  0  0  0  0  0
   59.1220   32.9620   48.3700 C   0  0  0  0  0  0  0  0  0  0  0  0
   59.2348   32.0061   47.8375 H   0  0  0  0  0  0  0  0  0  0  0  0
   58.5264   32.8322   49.2857 H   0  0  0  0  0  0  0  0  0  0  0  0
   58.4180   33.9230   47.4900 N   0  0  0  0  0  0  0  0  0  0  0  0
   59.3650   34.6300   46.5850 C   0  0  0  0  0  0  0  0  0  0  0  0
   58.9952   35.6508   46.4081 H   0  0  0  0  0  0  0  0  0  0  0  0
   60.3534   34.6487   47.0674 H   0  0  0  0  0  0  0  0  0  0  0  0
   59.5020   33.9080   45.2350 C   0  0  0  0  0  0  0  0  0  0  0  0
   60.2511   34.4321   44.6233 H   0  0  0  0  0  0  0  0  0  0  0  0
   59.8119   32.8702   45.4273 H   0  0  0  0  0  0  0  0  0  0  0  0
   58.2130   33.8820   44.5020 N   0  0  0  0  0  0  0  0  0  0  0  0
   58.1710   32.7370   43.5730 C   0  0  0  0  0  0  0  0  0  0  0  0
   58.1366   31.7997   44.1476 H   0  0  0  0  0  0  0  0  0  0  0  0
   57.2750   32.8117   42.9393 H   0  0  0  0  0  0  0  0  0  0  0  0
   59.0701   32.7458   42.9393 H   0  0  0  0  0  0  0  0  0  0  0  0
   57.0270   33.8990   45.3930 C   0  0  0  0  0  0  0  0  0  0  0  0
   56.7216   34.9430   45.5566 H   0  0  0  0  0  0  0  0  0  0  0  0
   56.2290   33.3206   44.9044 H   0  0  0  0  0  0  0  0  0  0  0  0
   57.3160   33.2470   46.7580 C   0  0  0  0  0  0  0  0  0  0  0  0
   56.4042   33.2941   47.3715 H   0  0  0  0  0  0  0  0  0  0  0  0
   57.6260   32.2079   46.5729 H   0  0  0  0  0  0  0  0  0  0  0  0
   60.2070   29.9920   47.2210 C   0  0  0  0  0  0  0  0  0  0  0  0
   60.3980   30.5740   46.0270 C   0  0  0  0  0  0  0  0  0  0  0  0
   61.0382   31.4648   45.9455 H   0  0  0  0  0  0  0  0  0  0  0  0
   59.9143   30.1603   45.1298 H   0  0  0  0  0  0  0  0  0  0  0  0
  1  2  1  0
  2  3  1  0
  3  4  1  0
  4  5  1  0
  5  6  2  0
  5  7  1  0
  7  8  1  0
  8  9  1  0
  9 10  1  0
  9 11  2  0
 11 12  1  0
 12 13  1  0
 12 14  2  0
 14 15  1  0
 15 16  1  0
 15 17  1  0
 15 18  1  0
 14 19  1  0
 19 20  1  0
 20 21  2  0
 20 22  1  0
 22 23  1  0
 23 24  1  0
 23 25  1  0
 23 26  1  0
 22 27  1  0
 27 28  1  0
 27 29  1  0
 27 30  1  0
 30 31  1  0
 30 32  1  0
 30 33  1  0
 33 34  1  0
 34 35  1  0
 34 36  1  0
 34 37  1  0
 37 38  1  0
 37 39  1  0
 37 40  1  0
 40 41  1  0
 41 42  1  0
 41 43  1  0
 41 44  1  0
 40 45  1  0
 45 46  1  0
 45 47  1  0
 45 48  1  0
 48 49  1  0
 48 50  1  0
 19 51  1  0
 51 52  2  0
 52 53  1  0
 52 54  1  0
  8  3  2  0
 51 11  1  0
 48 33  1  0
M  CHG  2   4  -1   7  -1
M  END
>  <UniqueID>  (30) 
28

>  <SMILES>  (30) 
C=c1/c(=C\c2[n-]c(=O)[n-]c2O)cc(C)n1C(=O)N(C)CCN1CCN(C)CC1

>  <Energy>  (30) 
138.65108044327275

>  <Genealogy>  (30) 
C=c1c(=Cc2[n-]c(=O)[n-]c2O)cc(C)n1C(=O)N(C)CCN1CCN(C)CC1 (protonated)
C=c1/c(=C\c2[n-]c(=O)[n-]c2O)cc(C)n1C(=O)N(C)CCN1CCN(C)CC1 (cis-trans isomerization)
C=c1/c(=C\c2[n-]c(=O)[n-]c2O)cc(C)n1C(=O)N(C)CCN1CCN(C)CC1 (3D coordinates assigned)
C=c1/c(=C\c2[n-]c(=O)[n-]c2O)cc(C)n1C(=O)N(C)CCN1CCN(C)CC1 (nonaromatic ring conformer: 138.65108044327275 kcal/mol)

>  <smiles>  (30) 
C=c1c(=Cc2[nH]c(=O)[nH]c2O)cc(C)n1C(=O)N(C)CCN1CCN(C)CC1

>  <score_type>  (30) 
oracle

>  <origin>  (30) 
adg

>  <m_score__min__energy>  (30) 
-12.68

>  <m_primary>  (30) 
energy

$$$$
30:0
     RDKit          3D

 59 62  0  0  0  0  0  0  0  0999 V2000
   59.5260   33.5050   55.1690 C   0  0  0  0  0  0  0  0  0  0  0  0
   59.9590   32.5070   54.2500 O   0  0  0  0  0  0  0  0  0  0  0  0
   59.5560   32.4380   52.9080 C   0  0  0  0  0  0  0  0  0  0  0  0
   59.3340   33.5870   52.1280 C   0  0  0  0  0  0  0  0  0  0  0  0
   58.9360   33.4650   50.7940 C   0  0  0  0  0  0  0  0  0  0  0  0
   58.7340   32.1990   50.2210 C   0  0  0  0  0  0  0  0  0  0  0  0
   58.3970   32.0710   48.8310 N   0  0  0  0  0  0  0  0  0  0  0  0
   58.6020   33.1170   47.8650 C   0  0  0  0  0  0  0  0  0  0  0  0
   58.9950   34.2550   48.2400 O   0  0  0  0  0  0  0  0  0  0  0  0
   58.3200   32.8760   46.4340 C   0  0  0  0  0  0  0  0  0  0  0  0
   58.6120   33.8390   45.4610 C   0  0  0  0  0  0  0  0  0  0  0  0
   58.3400   33.5620   44.1260 C   0  0  0  0  0  0  0  0  0  0  0  0
   57.7750   32.3350   43.7810 C   0  0  0  0  0  0  0  0  0  0  0  0
   57.5370   32.0790   42.5700 O   0  0  0  0  0  0  0  0  0  0  0  0
   57.4880   31.4230   44.7630 N   0  0  0  0  0  0  0  0  0  0  0  0
   56.9250   30.1050   44.4480 C   0  0  0  0  0  0  0  0  0  0  0  0
   57.8640   29.0230   44.9030 C   0  0  0  0  0  0  0  0  0  0  0  0
   57.3550   27.8410   45.4680 C   0  0  0  0  0  0  0  0  0  0  0  0
   58.2250   26.8470   45.9250 C   0  0  0  0  0  0  0  0  0  0  0  0
   59.6080   27.0290   45.8300 C   0  0  0  0  0  0  0  0  0  0  0  0
   60.1220   28.2050   45.2800 C   0  0  0  0  0  0  0  0  0  0  0  0
   59.2550   29.2030   44.8210 C   0  0  0  0  0  0  0  0  0  0  0  0
   57.7670   31.6970   46.0410 N   0  0  0  0  0  0  0  0  0  0  0  0
   58.9510   31.0480   51.0040 C   0  0  0  0  0  0  0  0  0  0  0  0
   58.7350   29.7670   50.4930 O   0  0  0  0  0  0  0  0  0  0  0  0
   59.5150   29.2360   49.0690 S   0  0  0  0  0  0  0  0  0  0  0  0
   58.5260   29.2260   47.9370 O   0  0  0  0  0  0  0  0  0  0  0  0
   60.0430   27.8410   49.2510 O   0  0  0  0  0  0  0  0  0  0  0  0
   60.8380   30.3340   48.6900 C   0  0  0  0  0  0  0  0  0  0  0  0
   61.7640   30.6900   49.6790 C   0  0  0  0  0  0  0  0  0  0  0  0
   62.7820   31.6040   49.3930 C   0  0  0  0  0  0  0  0  0  0  0  0
   62.8900   32.1640   48.1100 C   0  0  0  0  0  0  0  0  0  0  0  0
   63.9540   33.1790   47.8170 C   0  0  0  0  0  0  0  0  0  0  0  0
   61.9470   31.8240   47.1290 C   0  0  0  0  0  0  0  0  0  0  0  0
   60.9280   30.9110   47.4160 C   0  0  0  0  0  0  0  0  0  0  0  0
   59.3730   31.1770   52.3330 C   0  0  0  0  0  0  0  0  0  0  0  0
   59.6809   33.1480   56.1979 H   0  0  0  0  0  0  0  0  0  0  0  0
   60.1053   34.4264   55.0095 H   0  0  0  0  0  0  0  0  0  0  0  0
   58.4574   33.7115   55.0095 H   0  0  0  0  0  0  0  0  0  0  0  0
   59.4741   34.5848   52.5693 H   0  0  0  0  0  0  0  0  0  0  0  0
   58.7795   34.3690   50.1872 H   0  0  0  0  0  0  0  0  0  0  0  0
   57.9010   31.2020   48.5320 H   0  0  0  0  0  0  0  0  0  0  0  0
   59.0521   34.8049   45.7496 H   0  0  0  0  0  0  0  0  0  0  0  0
   58.5688   34.3052   43.3480 H   0  0  0  0  0  0  0  0  0  0  0  0
   55.9593   29.9891   44.9618 H   0  0  0  0  0  0  0  0  0  0  0  0
   56.7809   30.0244   43.3605 H   0  0  0  0  0  0  0  0  0  0  0  0
   56.2675   27.6976   45.5509 H   0  0  0  0  0  0  0  0  0  0  0  0
   57.8212   25.9207   46.3598 H   0  0  0  0  0  0  0  0  0  0  0  0
   60.2915   26.2453   46.1887 H   0  0  0  0  0  0  0  0  0  0  0  0
   61.2103   28.3472   45.2074 H   0  0  0  0  0  0  0  0  0  0  0  0
   59.6637   30.1311   44.3948 H   0  0  0  0  0  0  0  0  0  0  0  0
   61.6897   30.2488   50.6839 H   0  0  0  0  0  0  0  0  0  0  0  0
   63.5013   31.8857   50.1761 H   0  0  0  0  0  0  0  0  0  0  0  0
   64.3608   33.5671   48.7624 H   0  0  0  0  0  0  0  0  0  0  0  0
   64.7608   32.7074   47.2368 H   0  0  0  0  0  0  0  0  0  0  0  0
   63.5209   34.0071   47.2368 H   0  0  0  0  0  0  0  0  0  0  0  0
   62.0095   32.2779   46.1290 H   0  0  0  0  0  0  0  0  0  0  0  0
   60.1951   30.6449   46.6401 H   0  0  0  0  0  0  0  0  0  0  0  0
   59.5630   30.2744   52.9323 H   0  0  0  0  0  0  0  0  0  0  0  0
  1  2  1  0
  2  3  1  0
  3  4  2  0
  4  5  1  0
  5  6  2  0
  6  7  1  0
  7  8  1  0
  8  9  2  0
  8 10  1  0
 10 11  1  0
 11 12  2  0
 12 13  1  0
 13 14  2  0
 13 15  1  0
 15 16  1  0
 16 17  1  0
 17 18  2  0
 18 19  1  0
 19 20  2  0
 20 21  1  0
 21 22  2  0
 15 23  1  0
  6 24  1  0
 24 25  1  0
 25 26  1  0
 26 27  2  0
 26 28  2  0
 26 29  1  0
 29 30  2  0
 30 31  1  0
 31 32  2  0
 32 33  1  0
 32 34  1  0
 34 35  2  0
 24 36  2  0
 36  3  1  0
 23 10  2  0
 35 29  1  0
 22 17  1  0
  1 37  1  0
  1 38  1  0
  1 39  1  0
  4 40  1  0
  5 41  1  0
  7 42  1  0
 11 43  1  0
 12 44  1  0
 16 45  1  0
 16 46  1  0
 18 47  1  0
 19 48  1  0
 20 49  1  0
 21 50  1  0
 22 51  1  0
 30 52  1  0
 31 53  1  0
 33 54  1  0
 33 55  1  0
 33 56  1  0
 34 57  1  0
 35 58  1  0
 36 59  1  0
M  END
>  <UniqueID>  (31) 
29

>  <SMILES>  (31) 
COc1ccc(NC(=O)c2ccc(=O)n(Cc3ccccc3)n2)c(OS(=O)(=O)c2ccc(C)cc2)c1

>  <Energy>  (31) 
70.8476060054985

>  <Genealogy>  (31) 
COc1ccc(NC(=O)c2ccc(=O)n(Cc3ccccc3)n2)c(OS(=O)(=O)c2ccc(C)cc2)c1 (3D coordinates assigned)
COc1ccc(NC(=O)c2ccc(=O)n(Cc3ccccc3)n2)c(OS(=O)(=O)c2ccc(C)cc2)c1 (optimized conformer: 70.8476060054985 kcal/mol)

>  <smiles>  (31) 
COc1ccc(NC(=O)c2ccc(=O)n(Cc3ccccc3)n2)c(OS(=O)(=O)c2ccc(C)cc2)c1

>  <score_type>  (31) 
oracle

>  <origin>  (31) 
adg

>  <m_score__min__energy>  (31) 
-9.3499999999999996

>  <m_primary>  (31) 
energy

$$$$
31:0
     RDKit          3D

 53 55  0  0  0  0  0  0  0  0999 V2000
   60.6220   26.4970   46.8490 H   0  0  0  0  0  0  0  0  0  0  0  0
   59.6650   26.3720   46.5380 O   0  0  0  0  0  0  0  0  0  0  0  0
   58.9840   27.3740   45.8460 C   0  0  0  0  0  0  0  0  0  0  0  0
   59.7090   28.3460   45.1450 C   0  0  0  0  0  0  0  0  0  0  0  0
   60.8067   28.2859   45.1063 H   0  0  0  0  0  0  0  0  0  0  0  0
   56.7920   23.3730   46.4920 C   0  0  0  0  0  0  0  0  0  0  0  0
   57.0454   23.7649   47.4881 H   0  0  0  0  0  0  0  0  0  0  0  0
   56.1700   24.2120   45.5500 C   0  0  0  0  0  0  0  0  0  0  0  0
   57.2910   32.6860   45.0670 C   0  0  0  0  0  0  0  0  0  0  0  0
   54.9075   26.0388   45.6692 H   0  0  0  0  0  0  0  0  0  0  0  0
   58.2580   33.4460   45.6220 C   0  0  0  0  0  0  0  0  0  0  0  0
   56.9890   30.6060   43.8600 C   0  0  0  0  0  0  0  0  0  0  0  0
   56.0540   30.3950   43.3203 H   0  0  0  0  0  0  0  0  0  0  0  0
   56.7650   26.4060   46.5700 C   0  0  0  0  0  0  0  0  0  0  0  0
   58.8700   33.0350   46.9090 C   0  0  0  0  0  0  0  0  0  0  0  0
   58.1200   32.8690   47.9090 O   0  0  0  0  0  0  0  0  0  0  0  0
   60.3310   32.8280   47.0650 C   0  0  0  0  0  0  0  0  0  0  0  0
   61.2290   33.9110   46.9990 C   0  0  0  0  0  0  0  0  0  0  0  0
   60.8470   34.9275   46.8235 H   0  0  0  0  0  0  0  0  0  0  0  0
   62.6020   33.7030   47.1550 C   0  0  0  0  0  0  0  0  0  0  0  0
   63.2964   34.5542   47.0974 H   0  0  0  0  0  0  0  0  0  0  0  0
   63.0940   32.4160   47.3840 C   0  0  0  0  0  0  0  0  0  0  0  0
   64.1759   32.2531   47.4983 H   0  0  0  0  0  0  0  0  0  0  0  0
   62.2120   31.3350   47.4680 C   0  0  0  0  0  0  0  0  0  0  0  0
   62.5998   30.3227   47.6547 H   0  0  0  0  0  0  0  0  0  0  0  0
   60.8380   31.5390   47.3150 C   0  0  0  0  0  0  0  0  0  0  0  0
   60.1476   30.6859   47.3905 H   0  0  0  0  0  0  0  0  0  0  0  0
   58.0220   32.4920   42.5930 C   0  0  0  0  0  0  0  0  0  0  0  0
   58.7356   33.2827   42.8678 H   0  0  0  0  0  0  0  0  0  0  0  0
   58.5377   31.7229   41.9993 H   0  0  0  0  0  0  0  0  0  0  0  0
   57.2042   32.9264   41.9993 H   0  0  0  0  0  0  0  0  0  0  0  0
   58.7090   34.7450   45.0050 C   0  0  0  0  0  0  0  0  0  0  0  0
   58.9580   35.4621   45.8011 H   0  0  0  0  0  0  0  0  0  0  0  0
   59.5976   34.5659   44.3818 H   0  0  0  0  0  0  0  0  0  0  0  0
   57.9006   35.1551   44.3818 H   0  0  0  0  0  0  0  0  0  0  0  0
   56.9150   28.4970   45.2260 C   0  0  0  0  0  0  0  0  0  0  0  0
   55.5230   28.5530   45.2240 O   0  0  0  0  0  0  0  0  0  0  0  0
   57.5730   27.4280   45.8660 C   0  0  0  0  0  0  0  0  0  0  0  0
   55.8900   25.6180   45.9290 C   0  0  0  0  0  0  0  0  0  0  0  0
   56.8870   26.2893   47.6570 H   0  0  0  0  0  0  0  0  0  0  0  0
   57.4570   31.8660   43.8460 C   0  0  0  0  0  0  0  0  0  0  0  0
   56.3068   32.6750   45.5582 H   0  0  0  0  0  0  0  0  0  0  0  0
   57.6560   29.4890   44.5570 C   0  0  0  0  0  0  0  0  0  0  0  0
   59.0500   29.3890   44.4960 C   0  0  0  0  0  0  0  0  0  0  0  0
   59.6286   30.1366   43.9335 H   0  0  0  0  0  0  0  0  0  0  0  0
   56.1850   22.3690   43.9530 C   0  0  0  0  0  0  0  0  0  0  0  0
   55.8980   21.8740   42.6870 O   0  0  0  0  0  0  0  0  0  0  0  0
   56.7860   21.5440   44.9060 C   0  0  0  0  0  0  0  0  0  0  0  0
   57.0194   20.4980   44.6581 H   0  0  0  0  0  0  0  0  0  0  0  0
   57.0910   22.0450   46.1730 C   0  0  0  0  0  0  0  0  0  0  0  0
   57.6940   21.2240   47.1180 O   0  0  0  0  0  0  0  0  0  0  0  0
   55.8770   23.6980   44.2700 C   0  0  0  0  0  0  0  0  0  0  0  0
   55.4039   24.3445   43.5162 H   0  0  0  0  0  0  0  0  0  0  0  0
  1  2  1  0
  2  3  1  0
  3  4  2  0
  4  5  1  0
  4  6  1  0
  6  7  1  0
  6  8  2  0
  8  9  1  0
  9 10  1  0
  9 11  2  0
 11 12  1  0
 12 13  1  0
 12 14  2  0
 14 15  1  0
 15 16  2  0
 15 17  1  0
 17 18  2  0
 18 19  1  0
 18 20  1  0
 20 21  1  0
 20 22  2  0
 22 23  1  0
 22 24  1  0
 24 25  1  0
 24 26  2  0
 26 27  1  0
 14 28  1  0
 28 29  1  0
 28 30  1  0
 28 31  1  0
 11 32  1  0
 32 33  1  0
 32 34  1  0
 32 35  1  0
  8 36  1  0
 36 37  1  0
 36 38  2  0
 38 39  1  0
 39 40  1  0
 39 41  2  0
 41 42  1  0
 41 43  1  0
 43 44  2  0
 44 45  1  0
 44 46  1  0
 46 47  1  0
 46 48  2  0
 48 49  1  0
 48 50  1  0
 50 51  1  0
 50 52  2  0
 52 53  1  0
 38  3  1  0
 52 43  1  0
 26 17  1  0
M  CHG  3  37  -1  47  -1  51  -1
M  END
>  <UniqueID>  (32) 
30

>  <SMILES>  (32) 
CC(=Cc1ccc(O)c(/C=C/c2cc([O-])cc([O-])c2)c1[O-])/C=C(\C)C(=O)c1ccccc1

>  <Energy>  (32) 
81.33912107749754

>  <Genealogy>  (32) 
CC(=Cc1ccc(O)c(C=Cc2cc([O-])cc([O-])c2)c1[O-])C=C(C)C(=O)c1ccccc1 (protonated)
CC(=Cc1ccc(O)c(/C=C/c2cc([O-])cc([O-])c2)c1[O-])/C=C(\C)C(=O)c1ccccc1 (cis-trans isomerization)
CC(=Cc1ccc(O)c(/C=C/c2cc([O-])cc([O-])c2)c1[O-])/C=C(\C)C(=O)c1ccccc1 (3D coordinates assigned)
CC(=Cc1ccc(O)c(/C=C/c2cc([O-])cc([O-])c2)c1[O-])/C=C(\C)C(=O)c1ccccc1 (optimized conformer: 81.33912107749754 kcal/mol)

>  <smiles>  (32) 
CC(=Cc1ccc(O)c(C=Cc2cc(O)cc(O)c2)c1O)C=C(C)C(=O)c1ccccc1

>  <score_type>  (32) 
oracle

>  <origin>  (32) 
adg

>  <m_score__min__energy>  (32) 
-17.18

>  <m_primary>  (32) 
energy

$$$$
32:0
     RDKit          3D

 51 53  0  0  0  0  0  0  0  0999 V2000
   61.8790   30.8890   47.1350 C   0  0  0  0  0  0  0  0  0  0  0  0
   61.6460   31.1200   48.3890 C   0  0  0  0  0  0  0  0  0  0  0  0
   61.4090   31.3360   49.6500 C   0  0  0  0  0  0  0  0  0  0  0  0
   60.0380   31.3040   50.2200 C   0  0  0  0  0  0  0  0  0  0  0  0
   59.4530   30.0410   50.4100 C   0  0  0  0  0  0  0  0  0  0  0  0
   58.1560   29.9160   50.9110 C   0  0  0  0  0  0  0  0  0  0  0  0
   57.4350   31.0370   51.2550 C   0  0  0  0  0  0  0  0  0  0  0  0
   58.0050   32.3010   51.1080 C   0  0  0  0  0  0  0  0  0  0  0  0
   59.3070   32.4620   50.5990 C   0  0  0  0  0  0  0  0  0  0  0  0
   59.8790   33.8600   50.5190 C   0  0  0  0  0  0  0  0  0  0  0  0
   59.7910   34.3820   49.1560 N   0  0  0  0  0  0  0  0  0  0  0  0
   60.9010   34.3720   48.2570 C   0  0  0  0  0  0  0  0  0  0  0  0
   62.0740   34.1950   48.7010 O   0  0  0  0  0  0  0  0  0  0  0  0
   60.7000   34.5830   46.7900 C   0  0  0  0  0  0  0  0  0  0  0  0
   59.5170   33.7860   46.3190 C   0  0  0  0  0  0  0  0  0  0  0  0
   58.7750   34.2020   45.2030 C   0  0  0  0  0  0  0  0  0  0  0  0
   57.6990   33.4380   44.7460 C   0  0  0  0  0  0  0  0  0  0  0  0
   57.3810   32.2230   45.3620 C   0  0  0  0  0  0  0  0  0  0  0  0
   56.2930   31.4460   44.8370 N   0  0  0  0  0  0  0  0  0  0  0  0
   56.4240   29.8210   44.2550 S   0  0  0  0  0  0  0  0  0  0  0  0
   55.1530   29.0770   44.5820 O   0  0  0  0  0  0  0  0  0  0  0  0
   56.6100   29.8530   42.7610 O   0  0  0  0  0  0  0  0  0  0  0  0
   57.8070   29.0250   44.9890 C   0  0  0  0  0  0  0  0  0  0  0  0
   59.1040   29.2670   44.5130 C   0  0  0  0  0  0  0  0  0  0  0  0
   60.2010   28.6380   45.1110 C   0  0  0  0  0  0  0  0  0  0  0  0
   60.0100   27.7660   46.1850 C   0  0  0  0  0  0  0  0  0  0  0  0
   58.7200   27.5070   46.6570 C   0  0  0  0  0  0  0  0  0  0  0  0
   57.6200   28.1400   46.0650 C   0  0  0  0  0  0  0  0  0  0  0  0
   58.1290   31.8020   46.4780 C   0  0  0  0  0  0  0  0  0  0  0  0
   59.1820   32.5830   46.9560 C   0  0  0  0  0  0  0  0  0  0  0  0
   62.1605   31.7159   46.4665 H   0  0  0  0  0  0  0  0  0  0  0  0
   61.7952   29.8660   46.7394 H   0  0  0  0  0  0  0  0  0  0  0  0
   62.2556   31.5503   50.3188 H   0  0  0  0  0  0  0  0  0  0  0  0
   60.0261   29.1360   50.1600 H   0  0  0  0  0  0  0  0  0  0  0  0
   57.7086   28.9183   51.0313 H   0  0  0  0  0  0  0  0  0  0  0  0
   56.4114   30.9359   51.6450 H   0  0  0  0  0  0  0  0  0  0  0  0
   57.4251   33.1904   51.3958 H   0  0  0  0  0  0  0  0  0  0  0  0
   59.3143   34.5195   51.1945 H   0  0  0  0  0  0  0  0  0  0  0  0
   60.9381   33.8241   50.8141 H   0  0  0  0  0  0  0  0  0  0  0  0
   58.8840   34.7790   48.8250 H   0  0  0  0  0  0  0  0  0  0  0  0
   60.5217   35.6509   46.5957 H   0  0  0  0  0  0  0  0  0  0  0  0
   61.5991   34.2530   46.2489 H   0  0  0  0  0  0  0  0  0  0  0  0
   59.0423   35.1350   44.6853 H   0  0  0  0  0  0  0  0  0  0  0  0
   57.0978   33.7939   43.8963 H   0  0  0  0  0  0  0  0  0  0  0  0
   59.2589   29.9532   43.6673 H   0  0  0  0  0  0  0  0  0  0  0  0
   61.2164   28.8306   44.7345 H   0  0  0  0  0  0  0  0  0  0  0  0
   60.8761   27.2822   46.6603 H   0  0  0  0  0  0  0  0  0  0  0  0
   58.5691   26.8071   47.4921 H   0  0  0  0  0  0  0  0  0  0  0  0
   56.6059   27.9439   46.4434 H   0  0  0  0  0  0  0  0  0  0  0  0
   57.8821   30.8526   46.9757 H   0  0  0  0  0  0  0  0  0  0  0  0
   59.7520   32.2530   47.8370 H   0  0  0  0  0  0  0  0  0  0  0  0
  1  2  2  0
  2  3  2  0
  3  4  1  0
  4  5  2  0
  5  6  1  0
  6  7  2  0
  7  8  1  0
  8  9  2  0
  9 10  1  0
 10 11  1  0
 11 12  1  0
 12 13  2  0
 12 14  1  0
 14 15  1  0
 15 16  2  0
 16 17  1  0
 17 18  2  0
 18 19  1  0
 19 20  1  0
 20 21  2  0
 20 22  2  0
 20 23  1  0
 23 24  2  0
 24 25  1  0
 25 26  2  0
 26 27  1  0
 27 28  2  0
 18 29  1  0
 29 30  2  0
  9  4  1  0
 30 15  1  0
 28 23  1  0
  1 31  1  0
  1 32  1  0
  3 33  1  0
  5 34  1  0
  6 35  1  0
  7 36  1  0
  8 37  1  0
 10 38  1  0
 10 39  1  0
 11 40  1  0
 14 41  1  0
 14 42  1  0
 16 43  1  0
 17 44  1  0
 24 45  1  0
 25 46  1  0
 26 47  1  0
 27 48  1  0
 28 49  1  0
 29 50  1  0
 30 51  1  0
M  CHG  1  19  -1
M  END
>  <UniqueID>  (33) 
31

>  <SMILES>  (33) 
C=C=Cc1ccccc1CNC(=O)Cc1ccc([N-]S(=O)(=O)c2ccccc2)cc1

>  <Energy>  (33) 
53.260645841151884

>  <Genealogy>  (33) 
C=C=Cc1ccccc1CNC(=O)Cc1ccc([N-]S(=O)(=O)c2ccccc2)cc1 (protonated)
C=C=Cc1ccccc1CNC(=O)Cc1ccc([N-]S(=O)(=O)c2ccccc2)cc1 (3D coordinates assigned)
C=C=Cc1ccccc1CNC(=O)Cc1ccc([N-]S(=O)(=O)c2ccccc2)cc1 (optimized conformer: 53.260645841151884 kcal/mol)

>  <smiles>  (33) 
C=C=Cc1ccccc1CNC(=O)Cc1ccc(NS(=O)(=O)c2ccccc2)cc1

>  <score_type>  (33) 
oracle

>  <origin>  (33) 
adg

>  <m_score__min__energy>  (33) 
-10.800000000000001

>  <m_primary>  (33) 
energy

$$$$
33:0
     RDKit          3D

 35 36  0  0  0  0  0  0  0  0999 V2000
   56.0291   31.0750   44.1700 H   0  0  0  0  0  0  0  0  0  0  0  0
   57.0050   30.9940   44.6710 C   0  0  0  0  0  0  0  0  0  0  0  0
   57.4920   29.7570   44.8910 C   0  0  0  0  0  0  0  0  0  0  0  0
   58.0040   29.3670   46.1850 C   0  0  0  0  0  0  0  0  0  0  0  0
   58.4160   29.0540   47.2220 N   0  0  0  0  0  0  0  0  0  0  0  0
   57.6190   28.8010   43.7700 C   0  0  0  0  0  0  0  0  0  0  0  0
   57.0040   29.0130   42.6880 O   0  0  0  0  0  0  0  0  0  0  0  0
   58.4060   27.6520   43.9160 O   0  0  0  0  0  0  0  0  0  0  0  0
   57.8960   26.3290   43.7650 C   0  0  0  0  0  0  0  0  0  0  0  0
   57.0625   26.3428   43.0473 H   0  0  0  0  0  0  0  0  0  0  0  0
   58.7034   25.6778   43.3988 H   0  0  0  0  0  0  0  0  0  0  0  0
   57.4040   25.7960   45.0840 C   0  0  0  0  0  0  0  0  0  0  0  0
   58.0390   26.0970   46.1290 O   0  0  0  0  0  0  0  0  0  0  0  0
   56.2140   24.9120   45.1850 C   0  0  0  0  0  0  0  0  0  0  0  0
   56.3450   23.5530   44.8440 C   0  0  0  0  0  0  0  0  0  0  0  0
   57.3287   23.1560   44.5530 H   0  0  0  0  0  0  0  0  0  0  0  0
   55.2360   22.7040   44.8720 C   0  0  0  0  0  0  0  0  0  0  0  0
   55.3498   21.6447   44.5983 H   0  0  0  0  0  0  0  0  0  0  0  0
   53.9840   23.1950   45.2460 C   0  0  0  0  0  0  0  0  0  0  0  0
   52.8820   22.3500   45.2650 O   0  0  0  0  0  0  0  0  0  0  0  0
   53.8430   24.5370   45.6070 C   0  0  0  0  0  0  0  0  0  0  0  0
   52.8572   24.9218   45.9072 H   0  0  0  0  0  0  0  0  0  0  0  0
   54.9490   25.3950   45.5890 C   0  0  0  0  0  0  0  0  0  0  0  0
   54.7780   26.7140   45.9950 O   0  0  0  0  0  0  0  0  0  0  0  0
   57.6850   32.2520   45.0530 C   0  0  0  0  0  0  0  0  0  0  0  0
   58.3260   33.0660   44.1010 C   0  0  0  0  0  0  0  0  0  0  0  0
   58.3078   32.7840   43.0379 H   0  0  0  0  0  0  0  0  0  0  0  0
   58.9860   34.2320   44.5010 C   0  0  0  0  0  0  0  0  0  0  0  0
   59.4722   34.8726   43.7506 H   0  0  0  0  0  0  0  0  0  0  0  0
   59.0290   34.5850   45.8530 C   0  0  0  0  0  0  0  0  0  0  0  0
   59.6850   35.7440   46.2480 O   0  0  0  0  0  0  0  0  0  0  0  0
   58.4160   33.7690   46.8080 C   0  0  0  0  0  0  0  0  0  0  0  0
   58.4531   34.0450   47.8722 H   0  0  0  0  0  0  0  0  0  0  0  0
   57.7550   32.6010   46.4110 C   0  0  0  0  0  0  0  0  0  0  0  0
   57.2878   31.9529   47.1671 H   0  0  0  0  0  0  0  0  0  0  0  0
  1  2  1  0
  2  3  2  0
  3  4  1  0
  4  5  3  0
  3  6  1  0
  6  7  2  0
  6  8  1  0
  8  9  1  0
  9 10  1  0
  9 11  1  0
  9 12  1  0
 12 13  2  0
 12 14  1  0
 14 15  2  0
 15 16  1  0
 15 17  1  0
 17 18  1  0
 17 19  2  0
 19 20  1  0
 19 21  1  0
 21 22  1  0
 21 23  2  0
 23 24  1  0
  2 25  1  0
 25 26  2  0
 26 27  1  0
 26 28  1  0
 28 29  1  0
 28 30  2  0
 30 31  1  0
 30 32  1  0
 32 33  1  0
 32 34  2  0
 34 35  1  0
 23 14  1  0
 34 25  1  0
M  CHG  3  20  -1  24  -1  31  -1
M  END
>  <UniqueID>  (34) 
32

>  <SMILES>  (34) 
N#C/C(=C\c1ccc([O-])cc1)C(=O)OCC(=O)c1ccc([O-])cc1[O-]

>  <Energy>  (34) 
43.09546414759364

>  <Genealogy>  (34) 
N#CC(=Cc1ccc([O-])cc1)C(=O)OCC(=O)c1ccc([O-])cc1[O-] (protonated)
N#C/C(=C\c1ccc([O-])cc1)C(=O)OCC(=O)c1ccc([O-])cc1[O-] (cis-trans isomerization)
N#C/C(=C\c1ccc([O-])cc1)C(=O)OCC(=O)c1ccc([O-])cc1[O-] (3D coordinates assigned)
N#C/C(=C\c1ccc([O-])cc1)C(=O)OCC(=O)c1ccc([O-])cc1[O-] (optimized conformer: 43.09546414759364 kcal/mol)

>  <smiles>  (34) 
N#CC(=Cc1ccc(O)cc1)C(=O)OCC(=O)c1ccc(O)cc1O

>  <score_type>  (34) 
oracle

>  <origin>  (34) 
adg

>  <m_score__min__energy>  (34) 
-14.9

>  <m_primary>  (34) 
energy

$$$$
34:0
     RDKit          3D

 35 37  0  0  0  0  0  0  0  0999 V2000
   59.6340   35.2370   46.1890 C   0  0  0  0  0  0  0  0  0  0  0  0
   59.4520   34.6060   44.9250 O   0  0  0  0  0  0  0  0  0  0  0  0
   58.6990   33.4400   44.7240 C   0  0  0  0  0  0  0  0  0  0  0  0
   58.3590   33.0850   43.4140 C   0  0  0  0  0  0  0  0  0  0  0  0
   57.6070   31.9330   43.1610 C   0  0  0  0  0  0  0  0  0  0  0  0
   57.1850   31.1220   44.2220 C   0  0  0  0  0  0  0  0  0  0  0  0
   56.2240   29.6790   43.9130 S   0  0  0  0  0  0  0  0  0  0  0  0
   54.7730   30.0310   43.7450 O   0  0  0  0  0  0  0  0  0  0  0  0
   56.7200   29.0280   42.6520 O   0  0  0  0  0  0  0  0  0  0  0  0
   56.3890   28.5630   45.2300 N   0  0  0  0  0  0  0  0  0  0  0  0
   57.5660   27.8010   45.5460 C   0  0  0  0  0  0  0  0  0  0  0  0
   58.8480   28.3580   45.3740 C   0  0  0  0  0  0  0  0  0  0  0  0
   59.9940   27.6200   45.6680 C   0  0  0  0  0  0  0  0  0  0  0  0
   59.8860   26.3170   46.1450 C   0  0  0  0  0  0  0  0  0  0  0  0
   58.6280   25.7390   46.3340 C   0  0  0  0  0  0  0  0  0  0  0  0
   58.5470   24.4670   46.8050 N   0  0  0  0  0  0  0  0  0  0  0  0
   57.3570   23.8490   47.0090 C   0  0  0  0  0  0  0  0  0  0  0  0
   57.3290   22.5480   47.4930 O   0  0  0  0  0  0  0  0  0  0  0  0
   56.1670   24.5190   46.7340 C   0  0  0  0  0  0  0  0  0  0  0  0
   56.2030   25.8290   46.2470 C   0  0  0  0  0  0  0  0  0  0  0  0
   55.1110   26.4110   46.0050 O   0  0  0  0  0  0  0  0  0  0  0  0
   57.4490   26.4720   46.0380 C   0  0  0  0  0  0  0  0  0  0  0  0
   57.5270   31.4670   45.5360 C   0  0  0  0  0  0  0  0  0  0  0  0
   58.2780   32.6190   45.7890 C   0  0  0  0  0  0  0  0  0  0  0  0
   59.4258   34.5152   46.9925 H   0  0  0  0  0  0  0  0  0  0  0  0
   60.6713   35.5926   46.2753 H   0  0  0  0  0  0  0  0  0  0  0  0
   58.9454   36.0905   46.2753 H   0  0  0  0  0  0  0  0  0  0  0  0
   58.6860   33.7175   42.5756 H   0  0  0  0  0  0  0  0  0  0  0  0
   57.3466   31.6635   42.1268 H   0  0  0  0  0  0  0  0  0  0  0  0
   58.9466   29.3888   45.0029 H   0  0  0  0  0  0  0  0  0  0  0  0
   60.9874   28.0695   45.5223 H   0  0  0  0  0  0  0  0  0  0  0  0
   60.7942   25.7402   46.3740 H   0  0  0  0  0  0  0  0  0  0  0  0
   55.2015   24.0186   46.8996 H   0  0  0  0  0  0  0  0  0  0  0  0
   57.2035   30.8292   46.3718 H   0  0  0  0  0  0  0  0  0  0  0  0
   58.5411   32.8854   46.8233 H   0  0  0  0  0  0  0  0  0  0  0  0
  1  2  1  0
  2  3  1  0
  3  4  2  0
  4  5  1  0
  5  6  2  0
  6  7  1  0
  7  8  2  0
  7  9  2  0
  7 10  1  0
 10 11  1  0
 11 12  2  0
 12 13  1  0
 13 14  2  0
 14 15  1  0
 15 16  1  0
 16 17  1  0
 17 18  1  0
 17 19  2  0
 19 20  1  0
 20 21  2  0
 20 22  1  0
  6 23  1  0
 23 24  2  0
 24  3  1  0
 22 11  1  0
 22 15  2  0
  1 25  1  0
  1 26  1  0
  1 27  1  0
  4 28  1  0
  5 29  1  0
 12 30  1  0
 13 31  1  0
 14 32  1  0
 19 33  1  0
 23 34  1  0
 24 35  1  0
M  CHG  3  10  -1  16  -1  18  -1
M  END
>  <UniqueID>  (35) 
33

>  <SMILES>  (35) 
COc1ccc(S(=O)(=O)[N-]c2cccc3[n-]c([O-])cc(=O)c23)cc1

>  <Energy>  (35) 
47.442215264455776

>  <Genealogy>  (35) 
COc1ccc(S(=O)(=O)[N-]c2cccc3[n-]c([O-])cc(=O)c23)cc1 (protonated)
COc1ccc(S(=O)(=O)[N-]c2cccc3[n-]c([O-])cc(=O)c23)cc1 (3D coordinates assigned)
COc1ccc(S(=O)(=O)[N-]c2cccc3[n-]c([O-])cc(=O)c23)cc1 (optimized conformer: 47.442215264455776 kcal/mol)

>  <smiles>  (35) 
COc1ccc(S(=O)(=O)Nc2cccc3[nH]c(O)cc(=O)c23)cc1

>  <score_type>  (35) 
oracle

>  <origin>  (35) 
adg

>  <m_score__min__energy>  (35) 
-13.91

>  <m_primary>  (35) 
energy

$$$$
35:0
     RDKit          3D

 38 39  0  0  0  0  0  0  0  0999 V2000
   57.6379   27.6627   43.1058 H   0  0  0  0  0  0  0  0  0  0  0  0
   57.7850   27.8900   44.1720 C   0  0  0  0  0  0  0  0  0  0  0  0
   56.6050   28.3470   44.9310 C   0  0  0  0  0  0  0  0  0  0  0  0
   55.9240   27.5410   45.6210 O   0  0  0  0  0  0  0  0  0  0  0  0
   56.2390   29.7300   44.8620 N   0  0  0  0  0  0  0  0  0  0  0  0
   56.8270   30.7310   44.0140 C   0  0  0  0  0  0  0  0  0  0  0  0
   56.7010   30.6670   42.6140 C   0  0  0  0  0  0  0  0  0  0  0  0
   56.1175   29.8556   42.1544 H   0  0  0  0  0  0  0  0  0  0  0  0
   57.3120   31.6270   41.8040 C   0  0  0  0  0  0  0  0  0  0  0  0
   57.2016   31.5732   40.7109 H   0  0  0  0  0  0  0  0  0  0  0  0
   58.0620   32.6540   42.3780 C   0  0  0  0  0  0  0  0  0  0  0  0
   58.5319   33.4156   41.7383 H   0  0  0  0  0  0  0  0  0  0  0  0
   58.2160   32.7150   43.7640 C   0  0  0  0  0  0  0  0  0  0  0  0
   58.8082   33.5261   44.2128 H   0  0  0  0  0  0  0  0  0  0  0  0
   57.6200   31.7480   44.5890 C   0  0  0  0  0  0  0  0  0  0  0  0
   57.7830   31.8400   46.0550 C   0  0  0  0  0  0  0  0  0  0  0  0
   57.8540   30.7800   46.7310 O   0  0  0  0  0  0  0  0  0  0  0  0
   57.8630   33.1000   46.7350 N   0  0  0  0  0  0  0  0  0  0  0  0
   59.0940   33.7660   47.1490 C   0  0  0  0  0  0  0  0  0  0  0  0
   59.8960   33.0184   47.2381 H   0  0  0  0  0  0  0  0  0  0  0  0
   58.9198   34.2583   48.1172 H   0  0  0  0  0  0  0  0  0  0  0  0
   59.5070   34.8230   46.1310 C   0  0  0  0  0  0  0  0  0  0  0  0
   59.8584   35.7223   46.6582 H   0  0  0  0  0  0  0  0  0  0  0  0
   60.3169   34.4278   45.5002 H   0  0  0  0  0  0  0  0  0  0  0  0
   58.6438   35.0816   45.5002 H   0  0  0  0  0  0  0  0  0  0  0  0
   59.0220   27.7270   44.6670 C   0  0  0  0  0  0  0  0  0  0  0  0
   59.6815   27.0116   44.1539 H   0  0  0  0  0  0  0  0  0  0  0  0
   59.5700   28.4310   45.8460 C   0  0  0  0  0  0  0  0  0  0  0  0
   59.2060   28.0590   47.1520 C   0  0  0  0  0  0  0  0  0  0  0  0
   58.5316   27.2046   47.3105 H   0  0  0  0  0  0  0  0  0  0  0  0
   59.6980   28.7710   48.2500 C   0  0  0  0  0  0  0  0  0  0  0  0
   59.4229   28.4659   49.2704 H   0  0  0  0  0  0  0  0  0  0  0  0
   60.5390   29.8700   48.0530 C   0  0  0  0  0  0  0  0  0  0  0  0
   61.0140   30.5600   49.1180 F   0  0  0  0  0  0  0  0  0  0  0  0
   60.8800   30.2640   46.7550 C   0  0  0  0  0  0  0  0  0  0  0  0
   61.5353   31.1338   46.5997 H   0  0  0  0  0  0  0  0  0  0  0  0
   60.3900   29.5550   45.6550 C   0  0  0  0  0  0  0  0  0  0  0  0
   60.6475   29.8785   44.6357 H   0  0  0  0  0  0  0  0  0  0  0  0
  1  2  1  0
  2  3  1  0
  3  4  2  0
  3  5  1  0
  5  6  1  0
  6  7  2  0
  7  8  1  0
  7  9  1  0
  9 10  1  0
  9 11  2  0
 11 12  1  0
 11 13  1  0
 13 14  1  0
 13 15  2  0
 15 16  1  0
 16 17  2  0
 16 18  1  0
 18 19  1  0
 19 20  1  0
 19 21  1  0
 19 22  1  0
 22 23  1  0
 22 24  1  0
 22 25  1  0
  2 26  2  0
 26 27  1  0
 26 28  1  0
 28 29  2  0
 29 30  1  0
 29 31  1  0
 31 32  1  0
 31 33  2  0
 33 34  1  0
 33 35  1  0
 35 36  1  0
 35 37  2  0
 37 38  1  0
 15  6  1  0
 37 28  1  0
M  CHG  2   5  -1  18  -1
M  END
>  <UniqueID>  (36) 
34

>  <SMILES>  (36) 
CC[N-]C(=O)c1ccccc1[N-]C(=O)/C=C\c1ccc(F)cc1

>  <Energy>  (36) 
51.703754339933575

>  <Genealogy>  (36) 
CC[N-]C(=O)c1ccccc1[N-]C(=O)C=Cc1ccc(F)cc1 (protonated)
CC[N-]C(=O)c1ccccc1[N-]C(=O)/C=C\c1ccc(F)cc1 (cis-trans isomerization)
CC[N-]C(=O)c1ccccc1[N-]C(=O)/C=C\c1ccc(F)cc1 (3D coordinates assigned)
CC[N-]C(=O)c1ccccc1[N-]C(=O)/C=C\c1ccc(F)cc1 (optimized conformer: 51.703754339933575 kcal/mol)

>  <smiles>  (36) 
CCNC(=O)c1ccccc1NC(=O)C=Cc1ccc(F)cc1

>  <score_type>  (36) 
oracle

>  <origin>  (36) 
adg

>  <m_score__min__energy>  (36) 
-11.92

>  <m_primary>  (36) 
energy

$$$$
36:0
     RDKit          3D

 63 66  0  0  1  0  0  0  0  0999 V2000
   60.4850   26.6190   47.6640 C   0  0  0  0  0  0  0  0  0  0  0  0
   60.3880   28.1290   47.6140 C   0  0  2  0  0  0  0  0  0  0  0  0
   60.0060   28.6750   48.9010 N   0  0  0  0  0  0  0  0  0  0  0  0
   60.4620   29.7890   49.3570 C   0  0  0  0  0  0  0  0  0  0  0  0
   59.7010   30.9350   49.2600 C   0  0  0  0  0  0  0  0  0  0  0  0
   60.1570   32.1510   49.7370 C   0  0  0  0  0  0  0  0  0  0  0  0
   59.3080   33.3660   49.6130 C   0  0  0  0  0  0  0  0  0  0  0  0
   59.9400   34.2110   48.5140 C   0  0  0  0  0  0  0  0  0  0  0  0
   59.1400   34.0890   47.2680 C   0  0  0  0  0  0  0  0  0  0  0  0
   57.9270   33.4440   47.2260 C   0  0  0  0  0  0  0  0  0  0  0  0
   57.2490   33.3780   46.0250 C   0  0  0  0  0  0  0  0  0  0  0  0
   57.7360   33.9320   44.8550 C   0  0  0  0  0  0  0  0  0  0  0  0
   58.9600   34.5840   44.8970 C   0  0  0  0  0  0  0  0  0  0  0  0
   59.6470   34.6540   46.1010 C   0  0  0  0  0  0  0  0  0  0  0  0
   61.3930   32.1940   50.3160 N   0  0  0  0  0  0  0  0  0  0  0  0
   62.1380   31.0780   50.4130 C   0  0  0  0  0  0  0  0  0  0  0  0
   63.4300   31.1650   51.0270 N   0  0  0  0  0  0  0  0  0  0  0  0
   63.6620   30.3180   52.1810 C   0  0  0  0  0  0  0  0  0  0  0  0
   64.4300   32.0680   50.4920 C   0  0  0  0  0  0  0  0  0  0  0  0
   63.9790   32.5450   49.1470 C   0  0  0  0  0  0  0  0  0  0  0  0
   63.7870   31.7860   48.0410 N   0  0  0  0  0  0  0  0  0  0  0  0
   63.3790   32.5420   47.0040 C   0  0  0  0  0  0  0  0  0  0  0  0
   63.3100   33.8470   47.4830 C   0  0  0  0  0  0  0  0  0  0  0  0
   63.6800   33.7890   48.7760 N   0  0  0  0  0  0  0  0  0  0  0  0
   61.6800   29.8840   49.9390 N   0  0  0  0  0  0  0  0  0  0  0  0
   59.2810   28.5330   46.6750 C   0  0  0  0  0  0  0  0  0  0  0  0
   58.1480   27.7890   46.5060 C   0  0  0  0  0  0  0  0  0  0  0  0
   57.1420   28.1790   45.6370 C   0  0  0  0  0  0  0  0  0  0  0  0
   57.3040   29.3540   44.9330 C   0  0  0  0  0  0  0  0  0  0  0  0
   56.2930   29.8350   44.0000 C   0  0  0  0  0  0  0  0  0  0  0  0
   56.4810   29.6110   42.6070 N   0  0  0  0  0  0  0  0  0  0  0  0
   55.2520   30.4440   44.3590 O   0  0  0  0  0  0  0  0  0  0  0  0
   58.4600   30.1000   45.1140 C   0  0  0  0  0  0  0  0  0  0  0  0
   58.6660   31.2690   44.4400 F   0  0  0  0  0  0  0  0  0  0  0  0
   59.4660   29.7090   45.9830 C   0  0  0  0  0  0  0  0  0  0  0  0
   60.5063   26.2875   48.7126 H   0  0  0  0  0  0  0  0  0  0  0  0
   59.6133   26.1786   47.1578 H   0  0  0  0  0  0  0  0  0  0  0  0
   61.4059   26.2938   47.1578 H   0  0  0  0  0  0  0  0  0  0  0  0
   61.3742   28.5012   47.2995 H   0  0  0  0  0  0  0  0  0  0  0  0
   58.7070   30.8810   48.7919 H   0  0  0  0  0  0  0  0  0  0  0  0
   58.2802   33.0873   49.3373 H   0  0  0  0  0  0  0  0  0  0  0  0
   59.2532   33.9173   50.5633 H   0  0  0  0  0  0  0  0  0  0  0  0
   59.9653   35.2640   48.8310 H   0  0  0  0  0  0  0  0  0  0  0  0
   60.9646   33.8579   48.3258 H   0  0  0  0  0  0  0  0  0  0  0  0
   57.5038   32.9883   48.1333 H   0  0  0  0  0  0  0  0  0  0  0  0
   56.2781   32.8617   45.9975 H   0  0  0  0  0  0  0  0  0  0  0  0
   57.1679   33.8576   43.9160 H   0  0  0  0  0  0  0  0  0  0  0  0
   59.3804   35.0394   43.9882 H   0  0  0  0  0  0  0  0  0  0  0  0
   60.6181   35.1697   46.1340 H   0  0  0  0  0  0  0  0  0  0  0  0
   61.6870   33.1290   50.6580 H   0  0  0  0  0  0  0  0  0  0  0  0
   63.5026   30.8998   53.1008 H   0  0  0  0  0  0  0  0  0  0  0  0
   62.9634   29.4686   52.1588 H   0  0  0  0  0  0  0  0  0  0  0  0
   64.6959   29.9431   52.1588 H   0  0  0  0  0  0  0  0  0  0  0  0
   64.5512   32.9276   51.1676 H   0  0  0  0  0  0  0  0  0  0  0  0
   65.3938   31.5459   50.3995 H   0  0  0  0  0  0  0  0  0  0  0  0
   63.1473   32.1980   45.9852 H   0  0  0  0  0  0  0  0  0  0  0  0
   63.0133   34.7438   46.9193 H   0  0  0  0  0  0  0  0  0  0  0  0
   63.7340   34.6080   49.4180 H   0  0  0  0  0  0  0  0  0  0  0  0
   58.0312   26.8550   47.0752 H   0  0  0  0  0  0  0  0  0  0  0  0
   56.2367   27.5669   45.5116 H   0  0  0  0  0  0  0  0  0  0  0  0
   55.6530   29.2200   42.0840 H   0  0  0  0  0  0  0  0  0  0  0  0
   57.3940   29.8260   42.1470 H   0  0  0  0  0  0  0  0  0  0  0  0
   60.3755   30.3135   46.1147 H   0  0  0  0  0  0  0  0  0  0  0  0
  1  2  1  0
  2  3  1  0
  3  4  2  0
  4  5  1  0
  5  6  2  0
  6  7  1  0
  7  8  1  0
  8  9  1  0
  9 10  2  0
 10 11  1  0
 11 12  2  0
 12 13  1  0
 13 14  2  0
  6 15  1  0
 15 16  1  0
 16 17  1  0
 17 18  1  0
 17 19  1  0
 19 20  1  0
 20 21  2  0
 21 22  1  0
 22 23  2  0
 23 24  1  0
 16 25  2  0
  2 26  1  0
 26 27  2  0
 27 28  1  0
 28 29  2  0
 29 30  1  0
 30 31  1  0
 30 32  2  0
 29 33  1  0
 33 34  1  0
 33 35  2  0
 25  4  1  0
 35 26  1  0
 14  9  1  0
 24 20  1  0
  1 36  1  0
  1 37  1  0
  1 38  1  0
  2 39  1  6
  5 40  1  0
  7 41  1  0
  7 42  1  0
  8 43  1  0
  8 44  1  0
 10 45  1  0
 11 46  1  0
 12 47  1  0
 13 48  1  0
 14 49  1  0
 15 50  1  0
 18 51  1  0
 18 52  1  0
 18 53  1  0
 19 54  1  0
 19 55  1  0
 22 56  1  0
 23 57  1  0
 24 58  1  0
 27 59  1  0
 28 60  1  0
 31 61  1  0
 31 62  1  0
 35 63  1  0
M  END
>  <smiles>  (37) 
CC(N=c1cc(CCc2ccccc2)[nH]c(N(C)Cc2ncc[nH]2)n1)c1ccc(C(N)=O)c(F)c1

>  <score_type>  (37) 
oracle

>  <origin>  (37) 
adg

>  <m_score__min__energy>  (37) 
-10.19

>  <m_primary>  (37) 
energy

$$$$
37:0
     RDKit          3D

 54 56  0  0  0  0  0  0  0  0999 V2000
   53.9500   29.0420   54.5130 C   0  0  0  0  0  0  0  0  0  0  0  0
   54.4410   29.6110   53.4010 C   0  0  0  0  0  0  0  0  0  0  0  0
   53.7110   30.2400   52.3780 C   0  0  0  0  0  0  0  0  0  0  0  0
   52.3860   30.3000   52.1410 C   0  0  0  0  0  0  0  0  0  0  0  0
   51.4970   31.4110   52.5090 C   0  0  0  0  0  0  0  0  0  0  0  0
   51.2530   31.7800   53.7790 N   0  0  0  0  0  0  0  0  0  0  0  0
   50.5070   32.8970   53.6420 C   0  0  0  0  0  0  0  0  0  0  0  0
   50.0620   33.5400   54.6280 O   0  0  0  0  0  0  0  0  0  0  0  0
   50.2850   33.2790   52.3660 N   0  0  0  0  0  0  0  0  0  0  0  0
   50.9310   32.3360   51.6600 C   0  0  0  0  0  0  0  0  0  0  0  0
   51.0250   32.3380   50.2750 O   0  0  0  0  0  0  0  0  0  0  0  0
   54.6450   30.8340   51.5480 C   0  0  0  0  0  0  0  0  0  0  0  0
   55.8910   30.5080   52.0410 C   0  0  0  0  0  0  0  0  0  0  0  0
   57.1620   30.8710   51.3840 C   0  0  0  0  0  0  0  0  0  0  0  0
   57.7500   30.0060   50.6790 O   0  0  0  0  0  0  0  0  0  0  0  0
   57.7250   32.1930   51.5190 N   0  0  0  0  0  0  0  0  0  0  0  0
   58.7090   32.6970   50.5540 C   0  0  0  0  0  0  0  0  0  0  0  0
   60.0270   33.0660   51.2640 C   0  0  0  0  0  0  0  0  0  0  0  0
   59.8530   33.4870   52.6800 N   0  0  0  0  0  0  0  0  0  0  0  0
   60.1920   32.4120   53.6400 C   0  0  0  0  0  0  0  0  0  0  0  0
   61.3230   31.5290   53.0990 C   0  0  0  0  0  0  0  0  0  0  0  0
   60.9010   29.7860   53.1290 S   0  0  0  0  0  0  0  0  0  0  0  0
   59.7770   29.5840   54.1070 O   0  0  0  0  0  0  0  0  0  0  0  0
   62.0920   28.9960   53.5950 O   0  0  0  0  0  0  0  0  0  0  0  0
   60.3910   29.1670   51.5310 C   0  0  0  0  0  0  0  0  0  0  0  0
   61.5240   28.4270   50.8310 C   0  0  0  0  0  0  0  0  0  0  0  0
   58.5140   34.0600   52.9370 C   0  0  0  0  0  0  0  0  0  0  0  0
   57.4050   33.0260   52.6850 C   0  0  0  0  0  0  0  0  0  0  0  0
   55.7710   29.7650   53.1670 N   0  0  0  0  0  0  0  0  0  0  0  0
   56.8650   29.3020   54.0300 C   0  0  0  0  0  0  0  0  0  0  0  0
   54.6323   28.5796   55.2415 H   0  0  0  0  0  0  0  0  0  0  0  0
   52.8653   29.0381   54.6959 H   0  0  0  0  0  0  0  0  0  0  0  0
   51.9293   29.4416   51.6266 H   0  0  0  0  0  0  0  0  0  0  0  0
   54.4336   31.4503   50.6617 H   0  0  0  0  0  0  0  0  0  0  0  0
   58.9090   31.9193   49.8022 H   0  0  0  0  0  0  0  0  0  0  0  0
   58.3024   33.5979   50.0713 H   0  0  0  0  0  0  0  0  0  0  0  0
   60.6891   32.1878   51.2429 H   0  0  0  0  0  0  0  0  0  0  0  0
   60.4490   33.9271   50.7251 H   0  0  0  0  0  0  0  0  0  0  0  0
   60.5125   32.8655   54.5895 H   0  0  0  0  0  0  0  0  0  0  0  0
   59.3010   31.7854   53.7937 H   0  0  0  0  0  0  0  0  0  0  0  0
   61.5356   31.8235   52.0607 H   0  0  0  0  0  0  0  0  0  0  0  0
   62.2009   31.6734   53.7459 H   0  0  0  0  0  0  0  0  0  0  0  0
   59.5449   28.4776   51.6682 H   0  0  0  0  0  0  0  0  0  0  0  0
   60.1005   30.0241   50.9057 H   0  0  0  0  0  0  0  0  0  0  0  0
   62.1956   27.9884   51.5837 H   0  0  0  0  0  0  0  0  0  0  0  0
   61.1061   27.6272   50.2020 H   0  0  0  0  0  0  0  0  0  0  0  0
   62.0883   29.1312   50.2020 H   0  0  0  0  0  0  0  0  0  0  0  0
   58.4619   34.3930   53.9841 H   0  0  0  0  0  0  0  0  0  0  0  0
   58.3615   34.9062   52.2509 H   0  0  0  0  0  0  0  0  0  0  0  0
   57.3037   32.3824   53.5713 H   0  0  0  0  0  0  0  0  0  0  0  0
   56.4629   33.5593   52.4898 H   0  0  0  0  0  0  0  0  0  0  0  0
   56.5768   29.4240   55.0846 H   0  0  0  0  0  0  0  0  0  0  0  0
   57.0688   28.2405   53.8260 H   0  0  0  0  0  0  0  0  0  0  0  0
   57.7689   29.8947   53.8260 H   0  0  0  0  0  0  0  0  0  0  0  0
  1  2  2  0
  2  3  1  0
  3  4  2  3
  4  5  1  0
  5  6  1  0
  6  7  1  0
  7  8  2  0
  7  9  1  0
  9 10  1  0
 10 11  1  0
  3 12  1  0
 12 13  2  0
 13 14  1  0
 14 15  2  0
 14 16  1  0
 16 17  1  0
 17 18  1  0
 18 19  1  0
 19 20  1  0
 20 21  1  0
 21 22  1  0
 22 23  2  0
 22 24  2  0
 22 25  1  0
 25 26  1  0
 19 27  1  0
 27 28  1  0
 13 29  1  0
 29 30  1  0
 29  2  1  0
 10  5  2  0
 28 16  1  0
  1 31  1  0
  1 32  1  0
  4 33  1  0
 12 34  1  0
 17 35  1  0
 17 36  1  0
 18 37  1  0
 18 38  1  0
 20 39  1  0
 20 40  1  0
 21 41  1  0
 21 42  1  0
 25 43  1  0
 25 44  1  0
 26 45  1  0
 26 46  1  0
 26 47  1  0
 27 48  1  0
 27 49  1  0
 28 50  1  0
 28 51  1  0
 30 52  1  0
 30 53  1  0
 30 54  1  0
M  CHG  3   6  -1   9  -1  11  -1
M  END
>  <UniqueID>  (38) 
35

>  <SMILES>  (38) 
C=c1c(=Cc2[n-]c(=O)[n-]c2[O-])cc(C(=O)N2CCN(CCS(=O)(=O)CC)CC2)n1C

>  <Energy>  (38) 
127.20759963564596

>  <Genealogy>  (38) 
C=c1c(=Cc2[n-]c(=O)[n-]c2[O-])cc(C(=O)N2CCN(CCS(=O)(=O)CC)CC2)n1C (protonated)
C=c1c(=Cc2[n-]c(=O)[n-]c2[O-])cc(C(=O)N2CCN(CCS(=O)(=O)CC)CC2)n1C (3D coordinates assigned)
C=c1c(=Cc2[n-]c(=O)[n-]c2[O-])cc(C(=O)N2CCN(CCS(=O)(=O)CC)CC2)n1C (nonaromatic ring conformer: 127.20759963564596 kcal/mol)

>  <smiles>  (38) 
C=c1c(=Cc2[nH]c(=O)[nH]c2O)cc(C(=O)N2CCN(CCS(=O)(=O)CC)CC2)n1C

>  <score_type>  (38) 
oracle

>  <origin>  (38) 
adg

>  <m_score__min__energy>  (38) 
-18.07

>  <m_primary>  (38) 
energy

$$$$
38:0
     RDKit          3D

 43 45  0  0  0  0  0  0  0  0999 V2000
   60.6250   27.9210   45.3200 C   0  0  0  0  0  0  0  0  0  0  0  0
   59.3640   27.5230   46.0220 C   0  0  0  0  0  0  0  0  0  0  0  0
   58.3590   26.7430   45.4860 C   0  0  0  0  0  0  0  0  0  0  0  0
   57.3810   26.7180   46.4670 C   0  0  0  0  0  0  0  0  0  0  0  0
   56.0860   26.0130   46.3630 C   0  0  0  0  0  0  0  0  0  0  0  0
   55.0730   26.6650   45.9950 O   0  0  0  0  0  0  0  0  0  0  0  0
   55.9180   24.6200   46.6700 N   0  0  0  0  0  0  0  0  0  0  0  0
   54.9020   23.7130   46.1450 C   0  0  0  0  0  0  0  0  0  0  0  0
   55.3110   23.1960   44.8350 C   0  0  0  0  0  0  0  0  0  0  0  0
   55.6340   22.7890   43.8010 N   0  0  0  0  0  0  0  0  0  0  0  0
   57.7850   27.4460   47.5260 N   0  0  0  0  0  0  0  0  0  0  0  0
   58.9890   27.9250   47.2570 N   0  0  0  0  0  0  0  0  0  0  0  0
   59.7030   28.8310   48.1540 C   0  0  0  0  0  0  0  0  0  0  0  0
   59.8230   30.1900   47.5230 C   0  0  0  0  0  0  0  0  0  0  0  0
   60.9690   30.9640   47.7450 C   0  0  0  0  0  0  0  0  0  0  0  0
   61.0780   32.2420   47.1950 C   0  0  0  0  0  0  0  0  0  0  0  0
   60.0350   32.7700   46.4220 C   0  0  0  0  0  0  0  0  0  0  0  0
   60.1450   34.0550   45.8740 C   0  0  0  0  0  0  0  0  0  0  0  0
   59.1070   34.5830   45.1090 C   0  0  0  0  0  0  0  0  0  0  0  0
   57.9480   33.8400   44.8860 C   0  0  0  0  0  0  0  0  0  0  0  0
   57.8070   32.5480   45.4260 C   0  0  0  0  0  0  0  0  0  0  0  0
   56.6120   31.7780   45.2090 N   0  0  0  0  0  0  0  0  0  0  0  0
   56.5120   30.3130   44.2890 S   0  0  0  0  0  0  0  0  0  0  0  0
   55.2020   29.3440   44.8650 N   0  0  0  0  0  0  0  0  0  0  0  0
   57.7940   29.5480   44.4470 O   0  0  0  0  0  0  0  0  0  0  0  0
   56.3080   30.6380   42.8360 O   0  0  0  0  0  0  0  0  0  0  0  0
   58.8610   32.0050   46.1970 C   0  0  0  0  0  0  0  0  0  0  0  0
   58.7720   30.7140   46.7560 C   0  0  0  0  0  0  0  0  0  0  0  0
   61.3976   28.1648   46.0641 H   0  0  0  0  0  0  0  0  0  0  0  0
   60.9723   27.0888   44.6901 H   0  0  0  0  0  0  0  0  0  0  0  0
   60.4316   28.8018   44.6901 H   0  0  0  0  0  0  0  0  0  0  0  0
   58.3392   26.2520   44.5019 H   0  0  0  0  0  0  0  0  0  0  0  0
   54.7705   22.8724   46.8422 H   0  0  0  0  0  0  0  0  0  0  0  0
   53.9549   24.2614   46.0340 H   0  0  0  0  0  0  0  0  0  0  0  0
   59.1501   28.9166   49.1011 H   0  0  0  0  0  0  0  0  0  0  0  0
   60.7099   28.4312   48.3447 H   0  0  0  0  0  0  0  0  0  0  0  0
   61.7893   30.5615   48.3575 H   0  0  0  0  0  0  0  0  0  0  0  0
   61.9864   32.8374   47.3689 H   0  0  0  0  0  0  0  0  0  0  0  0
   61.0542   34.6491   46.0484 H   0  0  0  0  0  0  0  0  0  0  0  0
   59.2021   35.5909   44.6788 H   0  0  0  0  0  0  0  0  0  0  0  0
   57.1351   34.2685   44.2814 H   0  0  0  0  0  0  0  0  0  0  0  0
   55.5250   28.3500   44.8450 H   0  0  0  0  0  0  0  0  0  0  0  0
   57.8677   30.1104   46.5888 H   0  0  0  0  0  0  0  0  0  0  0  0
  1  2  1  0
  2  3  2  0
  3  4  1  0
  4  5  1  0
  5  6  2  0
  5  7  1  0
  7  8  1  0
  8  9  1  0
  9 10  3  0
  4 11  2  0
 11 12  1  0
 12 13  1  0
 13 14  1  0
 14 15  2  0
 15 16  1  0
 16 17  2  0
 17 18  1  0
 18 19  2  0
 19 20  1  0
 20 21  2  0
 21 22  1  0
 22 23  1  0
 23 24  1  0
 23 25  2  0
 23 26  2  0
 21 27  1  0
 27 28  2  0
 12  2  1  0
 28 14  1  0
 27 17  1  0
  1 29  1  0
  1 30  1  0
  1 31  1  0
  3 32  1  0
  8 33  1  0
  8 34  1  0
 13 35  1  0
 13 36  1  0
 15 37  1  0
 16 38  1  0
 18 39  1  0
 19 40  1  0
 20 41  1  0
 24 42  1  0
 28 43  1  0
M  CHG  3   7  -1  22  -1  24  -1
M  END
>  <UniqueID>  (39) 
36

>  <SMILES>  (39) 
Cc1cc(C(=O)[N-]CC#N)nn1Cc1ccc2cccc([N-]S([NH-])(=O)=O)c2c1

>  <Energy>  (39) 
75.79841411189363

>  <Genealogy>  (39) 
Cc1cc(C(=O)[N-]CC#N)nn1Cc1ccc2cccc([N-]S([NH-])(=O)=O)c2c1 (protonated)
Cc1cc(C(=O)[N-]CC#N)nn1Cc1ccc2cccc([N-]S([NH-])(=O)=O)c2c1 (3D coordinates assigned)
Cc1cc(C(=O)[N-]CC#N)nn1Cc1ccc2cccc([N-]S([NH-])(=O)=O)c2c1 (optimized conformer: 75.79841411189363 kcal/mol)

>  <smiles>  (39) 
Cc1cc(C(=O)NCC#N)nn1Cc1ccc2cccc(NS(N)(=O)=O)c2c1

>  <score_type>  (39) 
oracle

>  <origin>  (39) 
adg

>  <m_score__min__energy>  (39) 
-15.630000000000001

>  <m_primary>  (39) 
energy

$$$$
39:0
     RDKit          3D

 78 84  0  0  1  0  0  0  0  0999 V2000
   57.5190   25.9840   45.5360 C   0  0  0  0  0  0  0  0  0  0  0  0
   57.5680   27.1540   46.4740 C   0  0  0  0  0  0  0  0  0  0  0  0
   58.3090   28.2200   45.8020 N   0  0  0  0  0  0  0  0  0  0  0  0
   59.7200   28.1530   45.7510 C   0  0  0  0  0  0  0  0  0  0  0  0
   60.3560   28.5150   44.7040 O   0  0  0  0  0  0  0  0  0  0  0  0
   60.5230   27.6720   46.8790 C   0  0  0  0  0  0  0  0  0  0  0  0
   60.4630   28.6650   47.9780 C   0  0  0  0  0  0  0  0  0  0  0  0
   60.0140   28.2880   49.2230 C   0  0  0  0  0  0  0  0  0  0  0  0
   59.9560   29.1970   50.2510 C   0  0  0  0  0  0  0  0  0  0  0  0
   60.3460   30.5370   50.0890 C   0  0  0  0  0  0  0  0  0  0  0  0
   60.2450   31.4160   51.1870 N   0  0  0  0  0  0  0  0  0  0  0  0
   59.8640   31.1050   52.5280 C   0  0  0  0  0  0  0  0  0  0  0  0
   58.4630   30.6300   52.5910 C   0  0  0  0  0  0  0  0  0  0  0  0
   58.2740   29.3820   53.1280 C   0  0  0  0  0  0  0  0  0  0  0  0
   57.0040   28.8310   53.2540 C   0  0  0  0  0  0  0  0  0  0  0  0
   55.9420   29.5980   52.8110 C   0  0  0  0  0  0  0  0  0  0  0  0
   54.3270   28.9040   52.9640 Cl  0  0  0  0  0  0  0  0  0  0  0  0
   56.0920   30.8540   52.2660 C   0  0  0  0  0  0  0  0  0  0  0  0
   57.3650   31.3700   52.1580 C   0  0  0  0  0  0  0  0  0  0  0  0
   57.4100   32.7400   51.5780 C   0  0  0  0  0  0  0  0  0  0  0  0
   57.8360   33.7170   52.6300 C   0  0  0  0  0  0  0  0  0  0  0  0
   59.0810   33.4180   53.3290 C   0  0  0  0  0  0  0  0  0  0  0  0
   59.3900   34.4910   54.1690 C   0  0  0  0  0  0  0  0  0  0  0  0
   60.5100   34.5050   54.9660 C   0  0  0  0  0  0  0  0  0  0  0  0
   60.8270   35.8840   55.9920 Cl  0  0  0  0  0  0  0  0  0  0  0  0
   61.3880   33.4370   54.9610 C   0  0  0  0  0  0  0  0  0  0  0  0
   61.1070   32.3660   54.1390 C   0  0  0  0  0  0  0  0  0  0  0  0
   59.9840   32.3750   53.3560 C   0  0  0  0  0  0  0  0  0  0  0  0
   60.7850   30.8700   48.8350 C   0  0  0  0  0  0  0  0  0  0  0  0
   60.8540   29.9700   47.7800 C   0  0  0  0  0  0  0  0  0  0  0  0
   61.3050   30.3440   46.5250 O   0  0  0  0  0  0  0  0  0  0  0  0
   57.5380   29.2680   45.2360 C   0  0  0  0  0  0  0  0  0  0  0  0
   57.8560   30.5850   45.5760 C   0  0  0  0  0  0  0  0  0  0  0  0
   57.0810   31.5880   45.0030 C   0  0  0  0  0  0  0  0  0  0  0  0
   57.3200   32.8270   45.2740 N   0  0  0  0  0  0  0  0  0  0  0  0
   58.4380   33.2280   46.0600 C   0  0  0  0  0  0  0  0  0  0  0  0
   59.6510   33.5950   45.5170 C   0  0  0  0  0  0  0  0  0  0  0  0
   60.6530   33.9600   46.3850 C   0  0  0  0  0  0  0  0  0  0  0  0
   60.5060   33.9780   47.7580 C   0  0  0  0  0  0  0  0  0  0  0  0
   61.3250   34.2950   48.8300 C   0  0  0  0  0  0  0  0  0  0  0  0
   60.6190   34.1210   49.9790 N   0  0  0  0  0  0  0  0  0  0  0  0
   59.4070   33.7120   49.6420 N   0  0  0  0  0  0  0  0  0  0  0  0
   59.2800   33.6080   48.3070 C   0  0  0  0  0  0  0  0  0  0  0  0
   58.2680   33.2380   47.4390 C   0  0  0  0  0  0  0  0  0  0  0  0
   56.0820   31.2590   44.1640 N   0  0  0  0  0  0  0  0  0  0  0  0
   55.7800   29.9840   43.8390 C   0  0  0  0  0  0  0  0  0  0  0  0
   56.5250   28.9830   44.3890 N   0  0  0  0  0  0  0  0  0  0  0  0
   57.4799   25.0503   46.1162 H   0  0  0  0  0  0  0  0  0  0  0  0
   56.6232   26.0595   44.9021 H   0  0  0  0  0  0  0  0  0  0  0  0
   58.4179   25.9844   44.9021 H   0  0  0  0  0  0  0  0  0  0  0  0
   56.5477   27.4934   46.7059 H   0  0  0  0  0  0  0  0  0  0  0  0
   58.0579   26.8752   47.4186 H   0  0  0  0  0  0  0  0  0  0  0  0
   60.1239   26.7092   47.2308 H   0  0  0  0  0  0  0  0  0  0  0  0
   61.5668   27.5373   46.5590 H   0  0  0  0  0  0  0  0  0  0  0  0
   59.6985   27.2486   49.3965 H   0  0  0  0  0  0  0  0  0  0  0  0
   59.5919   28.8647   51.2344 H   0  0  0  0  0  0  0  0  0  0  0  0
   60.4860   32.4290   50.9850 H   0  0  0  0  0  0  0  0  0  0  0  0
   60.5180   30.3078   52.9112 H   0  0  0  0  0  0  0  0  0  0  0  0
   59.1468   28.8044   53.4664 H   0  0  0  0  0  0  0  0  0  0  0  0
   56.8509   27.8311   53.6861 H   0  0  0  0  0  0  0  0  0  0  0  0
   55.2186   31.4299   51.9260 H   0  0  0  0  0  0  0  0  0  0  0  0
   58.1288   32.7617   50.7456 H   0  0  0  0  0  0  0  0  0  0  0  0
   56.4106   33.0134   51.2087 H   0  0  0  0  0  0  0  0  0  0  0  0
   57.9509   34.6989   52.1476 H   0  0  0  0  0  0  0  0  0  0  0  0
   57.0520   33.6760   53.4005 H   0  0  0  0  0  0  0  0  0  0  0  0
   58.7118   35.3567   54.1935 H   0  0  0  0  0  0  0  0  0  0  0  0
   62.2865   33.4415   55.5956 H   0  0  0  0  0  0  0  0  0  0  0  0
   61.7872   31.5019   54.1124 H   0  0  0  0  0  0  0  0  0  0  0  0
   61.1004   31.9081   48.6537 H   0  0  0  0  0  0  0  0  0  0  0  0
   60.9150   30.0740   45.6500 H   0  0  0  0  0  0  0  0  0  0  0  0
   58.6811   30.8182   46.2650 H   0  0  0  0  0  0  0  0  0  0  0  0
   59.8114   33.5958   44.4288 H   0  0  0  0  0  0  0  0  0  0  0  0
   61.6252   34.2538   45.9625 H   0  0  0  0  0  0  0  0  0  0  0  0
   62.3703   34.6309   48.7627 H   0  0  0  0  0  0  0  0  0  0  0  0
   60.9770   34.2840   50.9650 H   0  0  0  0  0  0  0  0  0  0  0  0
   57.2941   32.9412   47.8555 H   0  0  0  0  0  0  0  0  0  0  0  0
   54.9542   29.7584   43.1483 H   0  0  0  0  0  0  0  0  0  0  0  0
   56.3010   27.9780   44.1440 H   0  0  0  0  0  0  0  0  0  0  0  0
  1  2  1  0
  2  3  1  0
  3  4  1  0
  4  5  2  0
  4  6  1  0
  6  7  1  0
  7  8  2  0
  8  9  1  0
  9 10  2  0
 10 11  1  0
 11 12  1  0
 12 13  1  0
 13 14  2  0
 14 15  1  0
 15 16  2  0
 16 17  1  0
 16 18  1  0
 18 19  2  0
 19 20  1  0
 20 21  1  0
 21 22  1  0
 22 23  2  0
 23 24  1  0
 24 25  1  0
 24 26  2  0
 26 27  1  0
 27 28  2  0
 10 29  1  0
 29 30  2  0
 30 31  1  0
  3 32  1  0
 32 33  2  0
 33 34  1  0
 34 35  2  0
 35 36  1  0
 36 37  1  0
 37 38  2  0
 38 39  1  0
 39 40  2  0
 40 41  1  0
 41 42  1  0
 42 43  2  0
 43 44  1  0
 34 45  1  0
 45 46  2  0
 46 47  1  0
 30  7  1  0
 47 32  1  0
 28 12  1  0
 44 36  2  0
 19 13  1  0
 28 22  1  0
 43 39  1  0
  1 48  1  0
  1 49  1  0
  1 50  1  0
  2 51  1  0
  2 52  1  0
  6 53  1  0
  6 54  1  0
  8 55  1  0
  9 56  1  0
 11 57  1  0
 12 58  1  0
 14 59  1  0
 15 60  1  0
 18 61  1  0
 20 62  1  0
 20 63  1  0
 21 64  1  0
 21 65  1  0
 23 66  1  0
 26 67  1  0
 27 68  1  0
 29 69  1  0
 31 70  1  0
 33 71  1  0
 37 72  1  0
 38 73  1  0
 40 74  1  0
 41 75  1  0
 44 76  1  0
 46 77  1  0
 47 78  1  0
M  END
>  <smiles>  (40) 
CCN(C(=O)Cc1ccc(NC2c3ccc(Cl)cc3CCc3cc(Cl)ccc32)cc1O)c1cc(=Nc2ccc3c[nH]nc3c2)nc[nH]1

>  <score_type>  (40) 
oracle

>  <origin>  (40) 
adg

>  <m_score__min__energy>  (40) 
-9.2400000000000002

>  <m_primary>  (40) 
energy

$$$$
40:0
     RDKit          3D

 82 86  0  0  0  0  0  0  0  0999 V2000
   59.0830   30.7400   48.9670 C   0  0  0  0  0  0  0  0  0  0  0  0
   58.3960   31.0190   50.3040 C   0  0  0  0  0  0  0  0  0  0  0  0
   58.6890   29.9390   51.3590 C   0  0  0  0  0  0  0  0  0  0  0  0
   59.7790   30.3310   52.3670 C   0  0  0  0  0  0  0  0  0  0  0  0
   60.9100   31.0740   51.7130 C   0  0  0  0  0  0  0  0  0  0  0  0
   60.8200   32.3640   51.3360 N   0  0  0  0  0  0  0  0  0  0  0  0
   61.9930   32.7260   50.8350 N   0  0  0  0  0  0  0  0  0  0  0  0
   62.2050   34.0200   50.1890 C   0  0  0  0  0  0  0  0  0  0  0  0
   61.5350   34.0310   48.8450 C   0  0  0  0  0  0  0  0  0  0  0  0
   62.2930   33.8200   47.6840 C   0  0  0  0  0  0  0  0  0  0  0  0
   61.6920   33.8920   46.4250 C   0  0  0  0  0  0  0  0  0  0  0  0
   60.3190   34.1730   46.3120 C   0  0  0  0  0  0  0  0  0  0  0  0
   59.6830   34.2960   45.0320 N   0  0  0  0  0  0  0  0  0  0  0  0
   58.4040   33.7560   44.6750 C   0  0  0  0  0  0  0  0  0  0  0  0
   57.3870   34.1110   45.3330 O   0  0  0  0  0  0  0  0  0  0  0  0
   58.2510   32.7420   43.5710 C   0  0  0  0  0  0  0  0  0  0  0  0
   57.6160   31.4830   44.0950 C   0  0  0  0  0  0  0  0  0  0  0  0
   56.6230   30.8310   43.3470 C   0  0  0  0  0  0  0  0  0  0  0  0
   56.0520   29.6430   43.8170 C   0  0  0  0  0  0  0  0  0  0  0  0
   56.4860   29.0780   45.0310 C   0  0  0  0  0  0  0  0  0  0  0  0
   55.9110   27.8750   45.5660 N   0  0  0  0  0  0  0  0  0  0  0  0
   56.5940   26.6490   45.8690 C   0  0  0  0  0  0  0  0  0  0  0  0
   56.0000   25.7080   46.4610 O   0  0  0  0  0  0  0  0  0  0  0  0
   58.0250   26.4850   45.4640 C   0  0  0  0  0  0  0  0  0  0  0  0
   58.9410   26.8530   46.5910 C   0  0  0  0  0  0  0  0  0  0  0  0
   58.5820   27.5390   47.7460 C   0  0  0  0  0  0  0  0  0  0  0  0
   59.5870   27.6980   48.6490 N   0  0  0  0  0  0  0  0  0  0  0  0
   60.7440   27.1410   48.2290 C   0  0  0  0  0  0  0  0  0  0  0  0
   60.5640   26.4240   46.7180 S   0  0  0  0  0  0  0  0  0  0  0  0
   57.4650   29.7400   45.7810 C   0  0  0  0  0  0  0  0  0  0  0  0
   58.0360   30.9280   45.3130 C   0  0  0  0  0  0  0  0  0  0  0  0
   59.5710   34.4150   47.4680 C   0  0  0  0  0  0  0  0  0  0  0  0
   60.1710   34.3350   48.7280 C   0  0  0  0  0  0  0  0  0  0  0  0
   62.8530   31.6830   50.8900 C   0  0  0  0  0  0  0  0  0  0  0  0
   64.2290   31.6630   50.2920 C   0  0  0  0  0  0  0  0  0  0  0  0
   62.1880   30.6020   51.4430 C   0  0  0  0  0  0  0  0  0  0  0  0
   62.7110   29.2420   51.6460 C   0  0  0  0  0  0  0  0  0  0  0  0
   62.1580   28.2770   51.0550 O   0  0  0  0  0  0  0  0  0  0  0  0
   63.8550   28.9950   52.5460 C   0  0  0  0  0  0  0  0  0  0  0  0
   64.2690   29.9260   53.2910 O   0  0  0  0  0  0  0  0  0  0  0  0
   64.4960   27.6330   52.6010 C   0  0  0  0  0  0  0  0  0  0  0  0
   65.7860   27.5810   51.8220 C   0  0  0  0  0  0  0  0  0  0  0  0
   66.5360   28.7510   51.6140 C   0  0  0  0  0  0  0  0  0  0  0  0
   67.6980   28.7130   50.8390 C   0  0  0  0  0  0  0  0  0  0  0  0
   68.1140   27.5110   50.2590 C   0  0  0  0  0  0  0  0  0  0  0  0
   67.3690   26.3440   50.4560 C   0  0  0  0  0  0  0  0  0  0  0  0
   66.2060   26.3780   51.2300 C   0  0  0  0  0  0  0  0  0  0  0  0
   60.0881   30.3318   49.1493 H   0  0  0  0  0  0  0  0  0  0  0  0
   58.4897   30.0116   48.3948 H   0  0  0  0  0  0  0  0  0  0  0  0
   59.1656   31.6759   48.3948 H   0  0  0  0  0  0  0  0  0  0  0  0
   58.7491   31.9884   50.6855 H   0  0  0  0  0  0  0  0  0  0  0  0
   57.3106   31.0228   50.1252 H   0  0  0  0  0  0  0  0  0  0  0  0
   57.7611   29.7366   51.9140 H   0  0  0  0  0  0  0  0  0  0  0  0
   59.0590   29.0562   50.8169 H   0  0  0  0  0  0  0  0  0  0  0  0
   59.3328   30.9730   53.1408 H   0  0  0  0  0  0  0  0  0  0  0  0
   60.1867   29.4070   52.8029 H   0  0  0  0  0  0  0  0  0  0  0  0
   61.7784   34.8162   50.8167 H   0  0  0  0  0  0  0  0  0  0  0  0
   63.2841   34.1898   50.0593 H   0  0  0  0  0  0  0  0  0  0  0  0
   63.3670   33.5965   47.7653 H   0  0  0  0  0  0  0  0  0  0  0  0
   62.2947   33.7284   45.5194 H   0  0  0  0  0  0  0  0  0  0  0  0
   57.6167   33.1640   42.7775 H   0  0  0  0  0  0  0  0  0  0  0  0
   59.2466   32.4983   43.1719 H   0  0  0  0  0  0  0  0  0  0  0  0
   56.2924   31.2556   42.3876 H   0  0  0  0  0  0  0  0  0  0  0  0
   55.2603   29.1484   43.2351 H   0  0  0  0  0  0  0  0  0  0  0  0
   58.2025   25.4366   45.1824 H   0  0  0  0  0  0  0  0  0  0  0  0
   58.2292   27.1496   44.6116 H   0  0  0  0  0  0  0  0  0  0  0  0
   57.5653   27.9229   47.9162 H   0  0  0  0  0  0  0  0  0  0  0  0
   61.6831   27.1546   48.8016 H   0  0  0  0  0  0  0  0  0  0  0  0
   57.7879   29.3226   46.7462 H   0  0  0  0  0  0  0  0  0  0  0  0
   58.8178   31.4293   45.9026 H   0  0  0  0  0  0  0  0  0  0  0  0
   58.5041   34.6698   47.3856 H   0  0  0  0  0  0  0  0  0  0  0  0
   59.5702   34.5114   49.6324 H   0  0  0  0  0  0  0  0  0  0  0  0
   64.9785   31.6521   51.0970 H   0  0  0  0  0  0  0  0  0  0  0  0
   64.3456   30.7631   49.6703 H   0  0  0  0  0  0  0  0  0  0  0  0
   64.3717   32.5592   49.6703 H   0  0  0  0  0  0  0  0  0  0  0  0
   64.7056   27.3818   53.6512 H   0  0  0  0  0  0  0  0  0  0  0  0
   63.7985   26.9121   52.1496 H   0  0  0  0  0  0  0  0  0  0  0  0
   66.2072   29.6999   52.0628 H   0  0  0  0  0  0  0  0  0  0  0  0
   68.2860   29.6298   50.6851 H   0  0  0  0  0  0  0  0  0  0  0  0
   69.0278   27.4831   49.6473 H   0  0  0  0  0  0  0  0  0  0  0  0
   67.6988   25.3983   50.0012 H   0  0  0  0  0  0  0  0  0  0  0  0
   65.6176   25.4602   51.3762 H   0  0  0  0  0  0  0  0  0  0  0  0
  1  2  1  0
  2  3  1  0
  3  4  1  0
  4  5  1  0
  5  6  2  0
  6  7  1  0
  7  8  1  0
  8  9  1  0
  9 10  2  0
 10 11  1  0
 11 12  2  0
 12 13  1  0
 13 14  1  0
 14 15  2  0
 14 16  1  0
 16 17  1  0
 17 18  2  0
 18 19  1  0
 19 20  2  0
 20 21  1  0
 21 22  1  0
 22 23  2  0
 22 24  1  0
 24 25  1  0
 25 26  2  0
 26 27  1  0
 27 28  2  0
 28 29  1  0
 20 30  1  0
 30 31  2  0
 12 32  1  0
 32 33  2  0
  7 34  1  0
 34 35  1  0
 34 36  2  0
 36 37  1  0
 37 38  2  0
 37 39  1  0
 39 40  2  0
 39 41  1  0
 41 42  1  0
 42 43  2  0
 43 44  1  0
 44 45  2  0
 45 46  1  0
 46 47  2  0
 36  5  1  0
 47 42  1  0
 33  9  1  0
 31 17  1  0
 29 25  1  0
  1 48  1  0
  1 49  1  0
  1 50  1  0
  2 51  1  0
  2 52  1  0
  3 53  1  0
  3 54  1  0
  4 55  1  0
  4 56  1  0
  8 57  1  0
  8 58  1  0
 10 59  1  0
 11 60  1  0
 16 61  1  0
 16 62  1  0
 18 63  1  0
 19 64  1  0
 24 65  1  0
 24 66  1  0
 26 67  1  0
 28 68  1  0
 30 69  1  0
 31 70  1  0
 32 71  1  0
 33 72  1  0
 35 73  1  0
 35 74  1  0
 35 75  1  0
 41 76  1  0
 41 77  1  0
 43 78  1  0
 44 79  1  0
 45 80  1  0
 46 81  1  0
 47 82  1  0
M  CHG  2  13  -1  21  -1
M  END
>  <UniqueID>  (41) 
37

>  <SMILES>  (41) 
CCCCc1nn(Cc2ccc([N-]C(=O)Cc3ccc([N-]C(=O)Cc4cncs4)cc3)cc2)c(C)c1C(=O)C(=O)Cc1ccccc1

>  <Energy>  (41) 
148.86368395934127

>  <Genealogy>  (41) 
CCCCc1nn(Cc2ccc([N-]C(=O)Cc3ccc([N-]C(=O)Cc4cncs4)cc3)cc2)c(C)c1C(=O)C(=O)Cc1ccccc1 (protonated)
CCCCc1nn(Cc2ccc([N-]C(=O)Cc3ccc([N-]C(=O)Cc4cncs4)cc3)cc2)c(C)c1C(=O)C(=O)Cc1ccccc1 (3D coordinates assigned)
CCCCc1nn(Cc2ccc([N-]C(=O)Cc3ccc([N-]C(=O)Cc4cncs4)cc3)cc2)c(C)c1C(=O)C(=O)Cc1ccccc1 (optimized conformer: 148.86368395934127 kcal/mol)

>  <smiles>  (41) 
CCCCc1nn(Cc2ccc(NC(=O)Cc3ccc(NC(=O)Cc4cncs4)cc3)cc2)c(C)c1C(=O)C(=O)Cc1ccccc1

>  <score_type>  (41) 
oracle

>  <origin>  (41) 
adg

>  <m_score__min__energy>  (41) 
-14.32

>  <m_primary>  (41) 
energy

$$$$
41:0
     RDKit          3D

 35 37  0  0  0  0  0  0  0  0999 V2000
   53.6390   22.6030   46.9980 C   0  0  0  0  0  0  0  0  0  0  0  0
   54.9120   22.5230   47.3940 C   0  0  0  0  0  0  0  0  0  0  0  0
   55.2750   21.7880   48.4610 N   0  0  0  0  0  0  0  0  0  0  0  0
   56.6200   21.8380   48.4430 C   0  0  0  0  0  0  0  0  0  0  0  0
   57.3350   21.2520   49.2960 O   0  0  0  0  0  0  0  0  0  0  0  0
   57.1390   22.5620   47.4320 N   0  0  0  0  0  0  0  0  0  0  0  0
   56.0610   23.0250   46.7700 C   0  0  0  0  0  0  0  0  0  0  0  0
   56.1960   23.8350   45.7050 C   0  0  0  0  0  0  0  0  0  0  0  0
   56.9560   25.0930   45.6730 C   0  0  0  0  0  0  0  0  0  0  0  0
   58.3050   25.1470   45.6680 N   0  0  0  0  0  0  0  0  0  0  0  0
   58.5730   26.4650   45.7880 C   0  0  0  0  0  0  0  0  0  0  0  0
   59.7470   26.9220   45.8300 O   0  0  0  0  0  0  0  0  0  0  0  0
   57.4700   27.2390   45.8850 N   0  0  0  0  0  0  0  0  0  0  0  0
   57.4000   28.6750   46.1440 C   0  0  0  0  0  0  0  0  0  0  0  0
   56.7870   29.5340   44.7040 S   0  0  0  0  0  0  0  0  0  0  0  0
   57.1600   28.7660   43.4670 O   0  0  0  0  0  0  0  0  0  0  0  0
   55.2880   29.6300   44.7740 O   0  0  0  0  0  0  0  0  0  0  0  0
   57.4830   31.1490   44.6290 C   0  0  0  0  0  0  0  0  0  0  0  0
   57.7830   31.8410   45.8110 C   0  0  0  0  0  0  0  0  0  0  0  0
   58.3000   33.1390   45.7520 C   0  0  0  0  0  0  0  0  0  0  0  0
   58.5130   33.7530   44.5140 C   0  0  0  0  0  0  0  0  0  0  0  0
   58.2070   33.0700   43.3330 C   0  0  0  0  0  0  0  0  0  0  0  0
   57.6920   31.7710   43.3890 C   0  0  0  0  0  0  0  0  0  0  0  0
   56.4510   26.3660   45.8420 C   0  0  0  0  0  0  0  0  0  0  0  0
   55.1110   26.7090   45.9910 O   0  0  0  0  0  0  0  0  0  0  0  0
   53.3729   23.2122   46.1216 H   0  0  0  0  0  0  0  0  0  0  0  0
   52.8567   22.0597   47.5483 H   0  0  0  0  0  0  0  0  0  0  0  0
   55.6933   23.5292   44.7756 H   0  0  0  0  0  0  0  0  0  0  0  0
   56.7233   28.8585   46.9916 H   0  0  0  0  0  0  0  0  0  0  0  0
   58.4083   29.0460   46.3802 H   0  0  0  0  0  0  0  0  0  0  0  0
   57.6114   31.3621   46.7863 H   0  0  0  0  0  0  0  0  0  0  0  0
   58.5394   33.6777   46.6807 H   0  0  0  0  0  0  0  0  0  0  0  0
   58.9213   34.7734   44.4692 H   0  0  0  0  0  0  0  0  0  0  0  0
   58.3714   33.5547   42.3593 H   0  0  0  0  0  0  0  0  0  0  0  0
   57.4503   31.2358   42.4589 H   0  0  0  0  0  0  0  0  0  0  0  0
  1  2  2  0
  2  3  1  0
  3  4  1  0
  4  5  2  0
  4  6  1  0
  6  7  1  0
  7  8  2  3
  8  9  1  0
  9 10  1  0
 10 11  1  0
 11 12  2  0
 11 13  1  0
 13 14  1  0
 14 15  1  0
 15 16  2  0
 15 17  2  0
 15 18  1  0
 18 19  2  0
 19 20  1  0
 20 21  2  0
 21 22  1  0
 22 23  2  0
 13 24  1  0
 24 25  1  0
  7  2  1  0
 24  9  2  0
 23 18  1  0
  1 26  1  0
  1 27  1  0
  8 28  1  0
 14 29  1  0
 14 30  1  0
 19 31  1  0
 20 32  1  0
 21 33  1  0
 22 34  1  0
 23 35  1  0
M  CHG  4   3  -1   6  -1  10  -1  25  -1
M  END
>  <UniqueID>  (42) 
38

>  <SMILES>  (42) 
C=c1[n-]c(=O)[n-]c1=Cc1[n-]c(=O)n(CS(=O)(=O)c2ccccc2)c1[O-]

>  <Energy>  (42) 
105.90560607480897

>  <Genealogy>  (42) 
C=c1[n-]c(=O)[n-]c1=Cc1[n-]c(=O)n(CS(=O)(=O)c2ccccc2)c1[O-] (protonated)
C=c1[n-]c(=O)[n-]c1=Cc1[n-]c(=O)n(CS(=O)(=O)c2ccccc2)c1[O-] (3D coordinates assigned)
C=c1[n-]c(=O)[n-]c1=Cc1[n-]c(=O)n(CS(=O)(=O)c2ccccc2)c1[O-] (optimized conformer: 105.90560607480897 kcal/mol)

>  <smiles>  (42) 
C=c1[nH]c(=O)[nH]c1=Cc1[nH]c(=O)n(CS(=O)(=O)c2ccccc2)c1O

>  <score_type>  (42) 
oracle

>  <origin>  (42) 
adg

>  <m_score__min__energy>  (42) 
-16.140000000000001

>  <m_primary>  (42) 
energy

$$$$
42:0
     RDKit          3D

 47 51  0  0  0  0  0  0  0  0999 V2000
   59.8130   29.0410   45.1560 C   0  0  0  0  0  0  0  0  0  0  0  0
   58.4740   29.1140   45.1200 C   0  0  0  0  0  0  0  0  0  0  0  0
   57.5630   28.0860   44.8310 C   0  0  0  0  0  0  0  0  0  0  0  0
   57.7500   26.7560   44.7600 C   0  0  0  0  0  0  0  0  0  0  0  0
   57.2170   25.7610   45.7070 C   0  0  0  0  0  0  0  0  0  0  0  0
   57.9400   24.7780   46.2740 N   0  0  0  0  0  0  0  0  0  0  0  0
   57.0760   24.2240   47.1530 C   0  0  0  0  0  0  0  0  0  0  0  0
   57.3840   23.2440   47.8790 O   0  0  0  0  0  0  0  0  0  0  0  0
   55.8620   24.8110   47.2000 N   0  0  0  0  0  0  0  0  0  0  0  0
   55.9730   25.7920   46.2880 C   0  0  0  0  0  0  0  0  0  0  0  0
   54.9620   26.7000   45.9950 O   0  0  0  0  0  0  0  0  0  0  0  0
   56.3430   28.6280   44.6220 N   0  0  0  0  0  0  0  0  0  0  0  0
   56.5170   29.9450   44.8360 C   0  0  0  0  0  0  0  0  0  0  0  0
   55.5750   30.7780   44.7570 O   0  0  0  0  0  0  0  0  0  0  0  0
   57.7840   30.2790   45.1580 N   0  0  0  0  0  0  0  0  0  0  0  0
   58.2750   31.6050   45.4340 C   0  0  0  0  0  0  0  0  0  0  0  0
   57.6620   32.7230   44.8500 C   0  0  0  0  0  0  0  0  0  0  0  0
   58.1300   34.0090   45.1330 C   0  0  0  0  0  0  0  0  0  0  0  0
   59.2110   34.1890   45.9980 C   0  0  0  0  0  0  0  0  0  0  0  0
   59.8420   33.0790   46.5840 C   0  0  0  0  0  0  0  0  0  0  0  0
   60.9720   33.2580   47.5220 C   0  0  0  0  0  0  0  0  0  0  0  0
   62.2970   32.9620   47.2090 C   0  0  0  0  0  0  0  0  0  0  0  0
   63.0100   33.2290   48.3550 C   0  0  0  0  0  0  0  0  0  0  0  0
   64.3710   33.0960   48.6200 C   0  0  0  0  0  0  0  0  0  0  0  0
   64.8280   33.4380   49.9050 C   0  0  0  0  0  0  0  0  0  0  0  0
   63.9220   33.8970   50.8850 C   0  0  0  0  0  0  0  0  0  0  0  0
   62.5530   34.0210   50.5910 C   0  0  0  0  0  0  0  0  0  0  0  0
   62.1250   33.6780   49.3040 C   0  0  0  0  0  0  0  0  0  0  0  0
   60.8720   33.7180   48.8000 N   0  0  0  0  0  0  0  0  0  0  0  0
   59.6690   34.1730   49.4990 C   0  0  0  0  0  0  0  0  0  0  0  0
   59.3550   31.7900   46.3110 C   0  0  0  0  0  0  0  0  0  0  0  0
   60.4062   29.9348   45.3993 H   0  0  0  0  0  0  0  0  0  0  0  0
   60.3178   28.0873   44.9422 H   0  0  0  0  0  0  0  0  0  0  0  0
   58.3536   26.3780   43.9217 H   0  0  0  0  0  0  0  0  0  0  0  0
   55.1450   27.5030   45.4050 H   0  0  0  0  0  0  0  0  0  0  0  0
   56.8103   32.5873   44.1672 H   0  0  0  0  0  0  0  0  0  0  0  0
   57.6450   34.8824   44.6727 H   0  0  0  0  0  0  0  0  0  0  0  0
   59.5702   35.2044   46.2217 H   0  0  0  0  0  0  0  0  0  0  0  0
   62.6895   32.5933   46.2498 H   0  0  0  0  0  0  0  0  0  0  0  0
   65.0665   32.7347   47.8481 H   0  0  0  0  0  0  0  0  0  0  0  0
   65.8971   33.3474   50.1477 H   0  0  0  0  0  0  0  0  0  0  0  0
   64.2904   34.1600   51.8876 H   0  0  0  0  0  0  0  0  0  0  0  0
   61.8402   34.3768   51.3495 H   0  0  0  0  0  0  0  0  0  0  0  0
   59.8309   34.1118   50.5853 H   0  0  0  0  0  0  0  0  0  0  0  0
   59.4538   35.2146   49.2185 H   0  0  0  0  0  0  0  0  0  0  0  0
   58.8183   33.5345   49.2185 H   0  0  0  0  0  0  0  0  0  0  0  0
   59.8244   30.9176   46.7890 H   0  0  0  0  0  0  0  0  0  0  0  0
  1  2  2  0
  2  3  1  0
  3  4  2  3
  4  5  1  0
  5  6  1  0
  6  7  1  0
  7  8  2  0
  7  9  1  0
  9 10  1  0
 10 11  1  0
  3 12  1  0
 12 13  1  0
 13 14  2  0
 13 15  1  0
 15 16  1  0
 16 17  2  0
 17 18  1  0
 18 19  2  0
 19 20  1  0
 20 21  1  0
 21 22  2  0
 22 23  1  0
 23 24  2  0
 24 25  1  0
 25 26  2  0
 26 27  1  0
 27 28  2  0
 28 29  1  0
 29 30  1  0
 20 31  2  0
 15  2  1  0
 31 16  1  0
 10  5  2  0
 29 21  1  0
 28 23  1  0
  1 32  1  0
  1 33  1  0
  4 34  1  0
 11 35  1  0
 17 36  1  0
 18 37  1  0
 19 38  1  0
 22 39  1  0
 24 40  1  0
 25 41  1  0
 26 42  1  0
 27 43  1  0
 30 44  1  0
 30 45  1  0
 30 46  1  0
 31 47  1  0
M  CHG  3   6  -1   9  -1  12  -1
M  END
>  <UniqueID>  (43) 
39

>  <SMILES>  (43) 
C=c1c(=Cc2[n-]c(=O)[n-]c2O)[n-]c(=O)n1-c1cccc(-c2cc3ccccc3n2C)c1

>  <Energy>  (43) 
170.8412787143484

>  <Genealogy>  (43) 
C=c1c(=Cc2[n-]c(=O)[n-]c2O)[n-]c(=O)n1-c1cccc(-c2cc3ccccc3n2C)c1 (protonated)
C=c1c(=Cc2[n-]c(=O)[n-]c2O)[n-]c(=O)n1-c1cccc(-c2cc3ccccc3n2C)c1 (3D coordinates assigned)
C=c1c(=Cc2[n-]c(=O)[n-]c2O)[n-]c(=O)n1-c1cccc(-c2cc3ccccc3n2C)c1 (optimized conformer: 170.8412787143484 kcal/mol)

>  <smiles>  (43) 
C=c1c(=Cc2[nH]c(=O)[nH]c2O)[nH]c(=O)n1-c1cccc(-c2cc3ccccc3n2C)c1

>  <score_type>  (43) 
oracle

>  <origin>  (43) 
adg

>  <m_score__min__energy>  (43) 
-16.899999999999999

>  <m_primary>  (43) 
energy

$$$$
43:0
     RDKit          3D

 53 56  0  0  0  0  0  0  0  0999 V2000
   60.1717   25.9710   48.3466 H   0  0  0  0  0  0  0  0  0  0  0  0
   59.5430   26.4410   47.5760 C   0  0  0  0  0  0  0  0  0  0  0  0
   58.2910   25.9730   47.3430 N   0  0  0  0  0  0  0  0  0  0  0  0
   57.4750   26.5140   46.3950 C   0  0  0  0  0  0  0  0  0  0  0  0
   56.1270   25.9380   46.2170 C   0  0  0  0  0  0  0  0  0  0  0  0
   55.1580   26.7200   46.0370 O   0  0  0  0  0  0  0  0  0  0  0  0
   55.8710   24.5240   46.2670 N   0  0  0  0  0  0  0  0  0  0  0  0
   56.1350   23.6480   45.3420 C   0  0  0  0  0  0  0  0  0  0  0  0
   55.9770   22.3250   45.5460 N   0  0  0  0  0  0  0  0  0  0  0  0
   56.2890   21.6020   44.4370 C   0  0  0  0  0  0  0  0  0  0  0  0
   56.2237   20.5042   44.4115 H   0  0  0  0  0  0  0  0  0  0  0  0
   56.6960   22.3490   43.3390 C   0  0  0  0  0  0  0  0  0  0  0  0
   56.9896   21.9486   42.3574 H   0  0  0  0  0  0  0  0  0  0  0  0
   56.6610   23.9730   43.7740 S   0  0  0  0  0  0  0  0  0  0  0  0
   57.9520   27.5710   45.5880 C   0  0  0  0  0  0  0  0  0  0  0  0
   57.1140   28.1320   44.5660 N   0  0  0  0  0  0  0  0  0  0  0  0
   56.4400   29.3920   44.6250 C   0  0  0  0  0  0  0  0  0  0  0  0
   55.1860   29.4420   44.4940 O   0  0  0  0  0  0  0  0  0  0  0  0
   57.2140   30.6340   44.8370 C   0  0  0  0  0  0  0  0  0  0  0  0
   57.3210   31.5930   43.8180 C   0  0  0  0  0  0  0  0  0  0  0  0
   56.8959   31.3840   42.8252 H   0  0  0  0  0  0  0  0  0  0  0  0
   57.9620   32.8090   44.0540 C   0  0  0  0  0  0  0  0  0  0  0  0
   58.0426   33.5486   43.2437 H   0  0  0  0  0  0  0  0  0  0  0  0
   58.5050   33.0980   45.3150 C   0  0  0  0  0  0  0  0  0  0  0  0
   59.1610   34.4320   45.5420 C   0  0  0  0  0  0  0  0  0  0  0  0
   59.2519   34.6168   46.6226 H   0  0  0  0  0  0  0  0  0  0  0  0
   60.1615   34.4312   45.0847 H   0  0  0  0  0  0  0  0  0  0  0  0
   58.5495   35.2238   45.0847 H   0  0  0  0  0  0  0  0  0  0  0  0
   58.3760   32.1490   46.3530 C   0  0  0  0  0  0  0  0  0  0  0  0
   58.8400   32.4210   47.6760 N   0  0  0  0  0  0  0  0  0  0  0  0
   59.4630   31.1880   48.7260 S   0  0  0  0  0  0  0  0  0  0  0  0
   58.5210   30.0140   48.7530 O   0  0  0  0  0  0  0  0  0  0  0  0
   59.5540   31.7620   50.1080 O   0  0  0  0  0  0  0  0  0  0  0  0
   61.1140   30.6620   48.2540 C   0  0  0  0  0  0  0  0  0  0  0  0
   61.5374   30.0586   49.0704 H   0  0  0  0  0  0  0  0  0  0  0  0
   61.0236   30.0830   47.3231 H   0  0  0  0  0  0  0  0  0  0  0  0
   62.0380   31.8170   47.9810 C   0  0  0  0  0  0  0  0  0  0  0  0
   61.7510   32.7310   46.9530 C   0  0  0  0  0  0  0  0  0  0  0  0
   60.8373   32.6092   46.3528 H   0  0  0  0  0  0  0  0  0  0  0  0
   62.6200   33.7950   46.6880 C   0  0  0  0  0  0  0  0  0  0  0  0
   62.3972   34.4946   45.8689 H   0  0  0  0  0  0  0  0  0  0  0  0
   63.7710   33.9710   47.4620 C   0  0  0  0  0  0  0  0  0  0  0  0
   64.4594   34.8011   47.2450 H   0  0  0  0  0  0  0  0  0  0  0  0
   64.0450   33.0910   48.5110 C   0  0  0  0  0  0  0  0  0  0  0  0
   64.9445   33.2352   49.1275 H   0  0  0  0  0  0  0  0  0  0  0  0
   63.1770   32.0250   48.7800 C   0  0  0  0  0  0  0  0  0  0  0  0
   63.3871   31.3470   49.6204 H   0  0  0  0  0  0  0  0  0  0  0  0
   57.7730   30.9130   46.0960 C   0  0  0  0  0  0  0  0  0  0  0  0
   57.7360   30.1509   46.8883 H   0  0  0  0  0  0  0  0  0  0  0  0
   59.2320   28.0860   45.8470 C   0  0  0  0  0  0  0  0  0  0  0  0
   59.6057   28.9417   45.2655 H   0  0  0  0  0  0  0  0  0  0  0  0
   60.0320   27.5180   46.8380 C   0  0  0  0  0  0  0  0  0  0  0  0
   61.0385   27.9156   47.0354 H   0  0  0  0  0  0  0  0  0  0  0  0
  1  2  1  0
  2  3  2  0
  3  4  1  0
  4  5  1  0
  5  6  2  0
  5  7  1  0
  7  8  2  0
  8  9  1  0
  9 10  1  0
 10 11  1  0
 10 12  2  0
 12 13  1  0
 12 14  1  0
  4 15  2  0
 15 16  1  0
 16 17  1  0
 17 18  2  0
 17 19  1  0
 19 20  2  0
 20 21  1  0
 20 22  1  0
 22 23  1  0
 22 24  2  0
 24 25  1  0
 25 26  1  0
 25 27  1  0
 25 28  1  0
 24 29  1  0
 29 30  1  0
 30 31  1  0
 31 32  2  0
 31 33  2  0
 31 34  1  0
 34 35  1  0
 34 36  1  0
 34 37  1  0
 37 38  2  0
 38 39  1  0
 38 40  1  0
 40 41  1  0
 40 42  2  0
 42 43  1  0
 42 44  1  0
 44 45  1  0
 44 46  2  0
 46 47  1  0
 29 48  2  0
 48 49  1  0
 15 50  1  0
 50 51  1  0
 50 52  2  0
 52 53  1  0
 52  2  1  0
 14  8  1  0
 48 19  1  0
 46 37  1  0
M  CHG  3   9  -1  16  -1  30  -1
M  END
>  <UniqueID>  (44) 
40

>  <SMILES>  (44) 
Cc1ccc(C(=O)[N-]c2cccnc2C(=O)/N=c2/[n-]ccs2)cc1[N-]S(=O)(=O)Cc1ccccc1

>  <Energy>  (44) 
101.64033938538513

>  <Genealogy>  (44) 
Cc1ccc(C(=O)[N-]c2cccnc2C(=O)N=c2[n-]ccs2)cc1[N-]S(=O)(=O)Cc1ccccc1 (protonated)
Cc1ccc(C(=O)[N-]c2cccnc2C(=O)/N=c2/[n-]ccs2)cc1[N-]S(=O)(=O)Cc1ccccc1 (cis-trans isomerization)
Cc1ccc(C(=O)[N-]c2cccnc2C(=O)/N=c2/[n-]ccs2)cc1[N-]S(=O)(=O)Cc1ccccc1 (3D coordinates assigned)
Cc1ccc(C(=O)[N-]c2cccnc2C(=O)/N=c2/[n-]ccs2)cc1[N-]S(=O)(=O)Cc1ccccc1 (optimized conformer: 101.64033938538513 kcal/mol)

>  <smiles>  (44) 
Cc1ccc(C(=O)Nc2cccnc2C(=O)N=c2[nH]ccs2)cc1NS(=O)(=O)Cc1ccccc1

>  <score_type>  (44) 
oracle

>  <origin>  (44) 
adg

>  <m_score__min__energy>  (44) 
-15.18

>  <m_primary>  (44) 
energy

$$$$
44:0
     RDKit          3D

 42 44  0  0  0  0  0  0  0  0999 V2000
   55.1290   29.3160   44.7940 N   0  0  0  0  0  0  0  0  0  0  0  0
   56.6730   30.0580   44.5700 S   0  0  0  0  0  0  0  0  0  0  0  0
   57.1180   29.8620   43.1480 O   0  0  0  0  0  0  0  0  0  0  0  0
   56.5680   31.5320   44.8430 O   0  0  0  0  0  0  0  0  0  0  0  0
   57.8410   29.3300   45.6690 C   0  0  0  0  0  0  0  0  0  0  0  0
   58.5980   30.1350   46.5290 C   0  0  0  0  0  0  0  0  0  0  0  0
   59.5370   29.5550   47.3840 C   0  0  0  0  0  0  0  0  0  0  0  0
   59.7270   28.1700   47.3880 C   0  0  0  0  0  0  0  0  0  0  0  0
   58.9650   27.3480   46.5330 C   0  0  0  0  0  0  0  0  0  0  0  0
   59.1240   25.9190   46.4770 N   0  0  0  0  0  0  0  0  0  0  0  0
   58.2570   25.0270   46.8490 C   0  0  0  0  0  0  0  0  0  0  0  0
   57.5760   24.1450   45.8610 C   0  0  0  0  0  0  0  0  0  0  0  0
   56.2260   24.3270   45.4870 C   0  0  0  0  0  0  0  0  0  0  0  0
   55.4790   25.3610   46.0470 O   0  0  0  0  0  0  0  0  0  0  0  0
   55.6170   23.4680   44.5460 C   0  0  0  0  0  0  0  0  0  0  0  0
   54.1770   23.7190   44.1430 C   0  0  0  0  0  0  0  0  0  0  0  0
   53.2310   23.2820   45.2330 C   0  0  0  0  0  0  0  0  0  0  0  0
   53.7090   22.5860   46.3570 C   0  0  0  0  0  0  0  0  0  0  0  0
   52.8240   22.1620   47.3530 C   0  0  0  0  0  0  0  0  0  0  0  0
   51.4570   22.4260   47.2370 C   0  0  0  0  0  0  0  0  0  0  0  0
   50.9720   23.1160   46.1230 C   0  0  0  0  0  0  0  0  0  0  0  0
   51.8530   23.5410   45.1240 C   0  0  0  0  0  0  0  0  0  0  0  0
   56.3960   22.4290   43.9820 C   0  0  0  0  0  0  0  0  0  0  0  0
   55.8970   21.5280   43.0380 O   0  0  0  0  0  0  0  0  0  0  0  0
   57.6910   22.2810   44.3620 N   0  0  0  0  0  0  0  0  0  0  0  0
   58.2930   23.0900   45.2670 C   0  0  0  0  0  0  0  0  0  0  0  0
   59.5000   22.8810   45.5620 O   0  0  0  0  0  0  0  0  0  0  0  0
   58.0360   27.9420   45.6670 C   0  0  0  0  0  0  0  0  0  0  0  0
   55.2100   28.6880   45.6260 H   0  0  0  0  0  0  0  0  0  0  0  0
   58.4527   31.2254   46.5309 H   0  0  0  0  0  0  0  0  0  0  0  0
   60.1302   30.1908   48.0577 H   0  0  0  0  0  0  0  0  0  0  0  0
   60.4729   27.7205   48.0600 H   0  0  0  0  0  0  0  0  0  0  0  0
   58.0202   24.9204   47.9179 H   0  0  0  0  0  0  0  0  0  0  0  0
   54.0376   24.7937   43.9542 H   0  0  0  0  0  0  0  0  0  0  0  0
   53.9593   23.1387   43.2342 H   0  0  0  0  0  0  0  0  0  0  0  0
   54.7841   22.3740   46.4534 H   0  0  0  0  0  0  0  0  0  0  0  0
   53.2052   21.6190   48.2304 H   0  0  0  0  0  0  0  0  0  0  0  0
   50.7631   22.0909   48.0220 H   0  0  0  0  0  0  0  0  0  0  0  0
   49.8959   23.3251   46.0319 H   0  0  0  0  0  0  0  0  0  0  0  0
   51.4660   24.0812   44.2474 H   0  0  0  0  0  0  0  0  0  0  0  0
   55.5160   20.6200   43.2560 H   0  0  0  0  0  0  0  0  0  0  0  0
   57.4538   27.3119   44.9785 H   0  0  0  0  0  0  0  0  0  0  0  0
  1  2  1  0
  2  3  2  0
  2  4  2  0
  2  5  1  0
  5  6  2  0
  6  7  1  0
  7  8  2  0
  8  9  1  0
  9 10  1  0
 10 11  2  3
 11 12  1  0
 12 13  2  0
 13 14  1  0
 13 15  1  0
 15 16  1  0
 16 17  1  0
 17 18  2  0
 18 19  1  0
 19 20  2  0
 20 21  1  0
 21 22  2  0
 15 23  2  0
 23 24  1  0
 23 25  1  0
 25 26  1  0
 26 27  2  0
  9 28  2  0
 28  5  1  0
 26 12  1  0
 22 17  1  0
  1 29  1  0
  6 30  1  0
  7 31  1  0
  8 32  1  0
 11 33  1  0
 16 34  1  0
 16 35  1  0
 18 36  1  0
 19 37  1  0
 20 38  1  0
 21 39  1  0
 22 40  1  0
 24 41  1  0
 28 42  1  0
M  CHG  3   1  -1  14  -1  25  -1
M  END
>  <UniqueID>  (45) 
41

>  <SMILES>  (45) 
[NH-]S(=O)(=O)c1cccc(N=Cc2c([O-])c(Cc3ccccc3)c(O)[n-]c2=O)c1

>  <Energy>  (45) 
54.218828449407454

>  <Genealogy>  (45) 
[NH-]S(=O)(=O)c1cccc(N=Cc2c([O-])c(Cc3ccccc3)c(O)[n-]c2=O)c1 (protonated)
[NH-]S(=O)(=O)c1cccc(N=Cc2c([O-])c(Cc3ccccc3)c(O)[n-]c2=O)c1 (3D coordinates assigned)
[NH-]S(=O)(=O)c1cccc(N=Cc2c([O-])c(Cc3ccccc3)c(O)[n-]c2=O)c1 (optimized conformer: 54.218828449407454 kcal/mol)

>  <smiles>  (45) 
NS(=O)(=O)c1cccc(N=Cc2c(O)c(Cc3ccccc3)c(O)[nH]c2=O)c1

>  <score_type>  (45) 
oracle

>  <origin>  (45) 
adg

>  <m_score__min__energy>  (45) 
-14.460000000000001

>  <m_primary>  (45) 
energy

$$$$
45:0
     RDKit          3D

 29 30  0  0  0  0  0  0  0  0999 V2000
   53.7570   25.7480   45.5910 O   0  0  0  0  0  0  0  0  0  0  0  0
   54.0720   24.5260   45.5830 C   0  0  0  0  0  0  0  0  0  0  0  0
   55.4520   24.1340   45.5000 N   0  0  0  0  0  0  0  0  0  0  0  0
   56.5450   25.0560   45.6330 C   0  0  0  0  0  0  0  0  0  0  0  0
   58.0320   24.5960   45.1120 S   0  0  0  0  0  0  0  0  0  0  0  0
   56.3970   26.2460   46.4260 N   0  0  0  0  0  0  0  0  0  0  0  0
   57.2320   27.4080   46.2860 C   0  0  0  0  0  0  0  0  0  0  0  0
   58.4750   27.4320   46.9270 C   0  0  0  0  0  0  0  0  0  0  0  0
   59.3050   28.5460   46.8160 C   0  0  0  0  0  0  0  0  0  0  0  0
   58.8970   29.6550   46.0760 C   0  0  0  0  0  0  0  0  0  0  0  0
   57.6400   29.6730   45.4440 C   0  0  0  0  0  0  0  0  0  0  0  0
   57.2310   30.8770   44.6770 C   0  0  0  0  0  0  0  0  0  0  0  0
   56.6750   31.8540   45.2460 O   0  0  0  0  0  0  0  0  0  0  0  0
   57.4550   30.9440   43.3070 O   0  0  0  0  0  0  0  0  0  0  0  0
   56.7970   28.5410   45.5670 C   0  0  0  0  0  0  0  0  0  0  0  0
   55.5240   28.5460   45.0030 O   0  0  0  0  0  0  0  0  0  0  0  0
   53.0110   23.5060   45.6290 C   0  0  0  0  0  0  0  0  0  0  0  0
   51.6530   23.7690   45.7030 C   0  0  0  0  0  0  0  0  0  0  0  0
   51.0250   22.5440   45.7280 C   0  0  0  0  0  0  0  0  0  0  0  0
   52.0330   21.6080   45.6700 C   0  0  0  0  0  0  0  0  0  0  0  0
   51.8350   20.2350   45.6730 O   0  0  0  0  0  0  0  0  0  0  0  0
   53.2500   22.1790   45.6090 N   0  0  0  0  0  0  0  0  0  0  0  0
   55.6720   23.1400   45.2630 H   0  0  0  0  0  0  0  0  0  0  0  0
   55.7310   26.2150   47.2310 H   0  0  0  0  0  0  0  0  0  0  0  0
   58.7995   26.5660   47.5226 H   0  0  0  0  0  0  0  0  0  0  0  0
   60.2857   28.5504   47.3141 H   0  0  0  0  0  0  0  0  0  0  0  0
   59.5645   30.5246   45.9853 H   0  0  0  0  0  0  0  0  0  0  0  0
   51.1727   24.7581   45.7353 H   0  0  0  0  0  0  0  0  0  0  0  0
   49.9431   22.3529   45.7829 H   0  0  0  0  0  0  0  0  0  0  0  0
  1  2  2  0
  2  3  1  0
  3  4  1  0
  4  5  2  0
  4  6  1  0
  6  7  1  0
  7  8  2  0
  8  9  1  0
  9 10  2  0
 10 11  1  0
 11 12  1  0
 12 13  2  0
 12 14  1  0
 11 15  2  0
 15 16  1  0
  2 17  1  0
 17 18  2  0
 18 19  1  0
 19 20  2  0
 20 21  1  0
 20 22  1  0
 15  7  1  0
 22 17  1  0
  3 23  1  0
  6 24  1  0
  8 25  1  0
  9 26  1  0
 10 27  1  0
 18 28  1  0
 19 29  1  0
M  CHG  4  14  -1  16  -1  21  -1  22  -1
M  END
>  <UniqueID>  (46) 
42

>  <SMILES>  (46) 
O=C(NC(=S)Nc1cccc(C(=O)[O-])c1[O-])c1ccc([O-])[n-]1

>  <Energy>  (46) 
64.01816001549064

>  <Genealogy>  (46) 
O=C(NC(=S)Nc1cccc(C(=O)[O-])c1[O-])c1ccc([O-])[n-]1 (protonated)
O=C(NC(=S)Nc1cccc(C(=O)[O-])c1[O-])c1ccc([O-])[n-]1 (3D coordinates assigned)
O=C(NC(=S)Nc1cccc(C(=O)[O-])c1[O-])c1ccc([O-])[n-]1 (optimized conformer: 64.01816001549064 kcal/mol)

>  <smiles>  (46) 
O=C(NC(=S)Nc1cccc(C(=O)O)c1O)c1ccc(O)[nH]1

>  <score_type>  (46) 
oracle

>  <origin>  (46) 
adg

>  <m_score__min__energy>  (46) 
-14.800000000000001

>  <m_primary>  (46) 
energy

$$$$
46:0
     RDKit          3D

 51 54  0  0  0  0  0  0  0  0999 V2000
   58.2040   29.9420   44.3170 C   0  0  0  0  0  0  0  0  0  0  0  0
   58.3650   29.6850   45.6250 C   0  0  0  0  0  0  0  0  0  0  0  0
   58.2500   28.4340   46.2460 C   0  0  0  0  0  0  0  0  0  0  0  0
   58.0160   27.2500   45.6420 C   0  0  0  0  0  0  0  0  0  0  0  0
   57.3960   26.0650   46.2760 C   0  0  0  0  0  0  0  0  0  0  0  0
   58.0530   25.0350   46.8400 N   0  0  0  0  0  0  0  0  0  0  0  0
   57.0630   24.2450   47.3090 C   0  0  0  0  0  0  0  0  0  0  0  0
   57.2860   23.1610   47.9080 O   0  0  0  0  0  0  0  0  0  0  0  0
   55.8160   24.7110   47.0880 N   0  0  0  0  0  0  0  0  0  0  0  0
   56.0450   25.8630   46.4380 C   0  0  0  0  0  0  0  0  0  0  0  0
   55.0380   26.7160   46.0020 O   0  0  0  0  0  0  0  0  0  0  0  0
   58.4510   28.6600   47.6030 C   0  0  0  0  0  0  0  0  0  0  0  0
   58.6730   30.0130   47.7540 C   0  0  0  0  0  0  0  0  0  0  0  0
   58.9250   30.6790   49.0740 C   0  0  0  0  0  0  0  0  0  0  0  0
   58.6550   30.6340   46.5520 N   0  0  0  0  0  0  0  0  0  0  0  0
   58.8290   32.0470   46.3280 C   0  0  0  0  0  0  0  0  0  0  0  0
   57.7670   32.7890   45.7880 C   0  0  0  0  0  0  0  0  0  0  0  0
   57.8800   34.1710   45.6220 C   0  0  0  0  0  0  0  0  0  0  0  0
   59.0500   34.8280   46.0070 C   0  0  0  0  0  0  0  0  0  0  0  0
   60.1130   34.1040   46.5510 C   0  0  0  0  0  0  0  0  0  0  0  0
   60.0220   32.7120   46.7030 C   0  0  0  0  0  0  0  0  0  0  0  0
   61.1720   31.9820   47.2650 C   0  0  0  0  0  0  0  0  0  0  0  0
   61.4910   30.8640   46.7790 O   0  0  0  0  0  0  0  0  0  0  0  0
   61.9070   32.5080   48.3810 N   0  0  0  0  0  0  0  0  0  0  0  0
   61.5230   32.2080   49.7500 C   0  0  0  0  0  0  0  0  0  0  0  0
   62.2850   33.1970   50.6170 C   0  0  0  0  0  0  0  0  0  0  0  0
   62.6510   34.3480   49.6880 C   0  0  0  0  0  0  0  0  0  0  0  0
   62.6700   33.7480   48.2780 C   0  0  1  0  0  0  0  0  0  0  0  0
   64.1010   33.4680   47.7950 C   0  0  0  0  0  0  0  0  0  0  0  0
   64.1020   33.0760   46.4480 O   0  0  0  0  0  0  0  0  0  0  0  0
   58.3192   30.9689   43.9400 H   0  0  0  0  0  0  0  0  0  0  0  0
   57.9569   29.1256   43.6224 H   0  0  0  0  0  0  0  0  0  0  0  0
   58.3118   27.1576   44.5866 H   0  0  0  0  0  0  0  0  0  0  0  0
   58.4359   27.9048   48.4027 H   0  0  0  0  0  0  0  0  0  0  0  0
   58.6636   29.9881   49.8891 H   0  0  0  0  0  0  0  0  0  0  0  0
   59.9881   30.9508   49.1505 H   0  0  0  0  0  0  0  0  0  0  0  0
   58.3081   31.5865   49.1505 H   0  0  0  0  0  0  0  0  0  0  0  0
   56.8385   32.2780   45.4933 H   0  0  0  0  0  0  0  0  0  0  0  0
   57.0464   34.7423   45.1875 H   0  0  0  0  0  0  0  0  0  0  0  0
   59.1347   35.9175   45.8817 H   0  0  0  0  0  0  0  0  0  0  0  0
   61.0282   34.6287   46.8626 H   0  0  0  0  0  0  0  0  0  0  0  0
   60.4387   32.3386   49.8816 H   0  0  0  0  0  0  0  0  0  0  0  0
   61.7577   31.1675   50.0188 H   0  0  0  0  0  0  0  0  0  0  0  0
   61.6511   33.5544   51.4419 H   0  0  0  0  0  0  0  0  0  0  0  0
   63.1751   32.7403   51.0743 H   0  0  0  0  0  0  0  0  0  0  0  0
   61.9001   35.1491   49.7545 H   0  0  0  0  0  0  0  0  0  0  0  0
   63.6207   34.7939   49.9542 H   0  0  0  0  0  0  0  0  0  0  0  0
   62.2391   34.4439   47.5431 H   0  0  0  0  0  0  0  0  0  0  0  0
   64.7046   34.3809   47.9058 H   0  0  0  0  0  0  0  0  0  0  0  0
   64.5256   32.6538   48.4006 H   0  0  0  0  0  0  0  0  0  0  0  0
   64.5410   32.1860   46.4130 H   0  0  0  0  0  0  0  0  0  0  0  0
  1  2  2  0
  2  3  1  0
  3  4  2  3
  4  5  1  0
  5  6  1  0
  6  7  1  0
  7  8  2  0
  7  9  1  0
  9 10  1  0
 10 11  1  0
  3 12  1  0
 12 13  2  0
 13 14  1  0
 13 15  1  0
 15 16  1  0
 16 17  2  0
 17 18  1  0
 18 19  2  0
 19 20  1  0
 20 21  2  0
 21 22  1  0
 22 23  2  0
 22 24  1  0
 24 25  1  0
 25 26  1  0
 26 27  1  0
 27 28  1  0
 28 29  1  0
 29 30  1  0
 15  2  1  0
 21 16  1  0
 28 24  1  0
 10  5  2  0
  1 31  1  0
  1 32  1  0
  4 33  1  0
 12 34  1  0
 14 35  1  0
 14 36  1  0
 14 37  1  0
 17 38  1  0
 18 39  1  0
 19 40  1  0
 20 41  1  0
 25 42  1  0
 25 43  1  0
 26 44  1  0
 26 45  1  0
 27 46  1  0
 27 47  1  0
 28 48  1  6
 29 49  1  0
 29 50  1  0
 30 51  1  0
M  CHG  3   6  -1   9  -1  11  -1
M  END
>  <UniqueID>  (47) 
43

>  <SMILES>  (47) 
C=c1c(=Cc2[n-]c(=O)[n-]c2[O-])cc(C)n1-c1ccccc1C(=O)N1CCC[C@H]1CO

>  <Energy>  (47) 
127.91671785115388

>  <Genealogy>  (47) 
C=c1c(=Cc2[n-]c(=O)[n-]c2[O-])cc(C)n1-c1ccccc1C(=O)N1CCCC1CO (protonated)
C=c1c(=Cc2[n-]c(=O)[n-]c2[O-])cc(C)n1-c1ccccc1C(=O)N1CCC[C@H]1CO (chirality)
C=c1c(=Cc2[n-]c(=O)[n-]c2[O-])cc(C)n1-c1ccccc1C(=O)N1CCC[C@H]1CO (3D coordinates assigned)
C=c1c(=Cc2[n-]c(=O)[n-]c2[O-])cc(C)n1-c1ccccc1C(=O)N1CCC[C@H]1CO (nonaromatic ring conformer: 127.91671785115388 kcal/mol)

>  <smiles>  (47) 
C=c1c(=Cc2[nH]c(=O)[nH]c2O)cc(C)n1-c1ccccc1C(=O)N1CCCC1CO

>  <score_type>  (47) 
oracle

>  <origin>  (47) 
adg

>  <m_score__min__energy>  (47) 
-16.280000000000001

>  <m_primary>  (47) 
energy

$$$$
47:0
     RDKit          3D

 55 58  0  0  0  0  0  0  0  0999 V2000
   58.6821   21.0944   45.3159 H   0  0  0  0  0  0  0  0  0  0  0  0
   57.7620   21.6120   45.6250 C   0  0  0  0  0  0  0  0  0  0  0  0
   56.8092   21.0638   45.6640 H   0  0  0  0  0  0  0  0  0  0  0  0
   57.8020   22.9140   45.9550 C   0  0  0  0  0  0  0  0  0  0  0  0
   56.7260   23.7180   46.3680 C   0  0  0  0  0  0  0  0  0  0  0  0
   55.4730   23.3970   46.7400 C   0  0  0  0  0  0  0  0  0  0  0  0
   55.3483   22.9104   47.7186 H   0  0  0  0  0  0  0  0  0  0  0  0
   54.2550   23.6410   45.9500 C   0  0  0  0  0  0  0  0  0  0  0  0
   53.3970   22.6830   45.5480 N   0  0  0  0  0  0  0  0  0  0  0  0
   52.4020   23.3850   44.9630 C   0  0  0  0  0  0  0  0  0  0  0  0
   51.3980   22.8320   44.4450 O   0  0  0  0  0  0  0  0  0  0  0  0
   52.5610   24.7280   44.9880 N   0  0  0  0  0  0  0  0  0  0  0  0
   53.7310   24.8720   45.6300 C   0  0  0  0  0  0  0  0  0  0  0  0
   54.3060   26.1010   45.9230 O   0  0  0  0  0  0  0  0  0  0  0  0
   57.1940   25.0210   46.3590 C   0  0  0  0  0  0  0  0  0  0  0  0
   56.6142   25.9269   46.5894 H   0  0  0  0  0  0  0  0  0  0  0  0
   58.5260   24.9660   46.0060 C   0  0  0  0  0  0  0  0  0  0  0  0
   59.4180   26.1390   45.9400 C   0  0  0  0  0  0  0  0  0  0  0  0
   60.5620   26.0450   46.4630 O   0  0  0  0  0  0  0  0  0  0  0  0
   59.0140   27.3750   45.3080 N   0  0  0  0  0  0  0  0  0  0  0  0
   59.8710   28.5630   45.4710 C   0  0  0  0  0  0  0  0  0  0  0  0
   59.7646   28.9388   46.4993 H   0  0  0  0  0  0  0  0  0  0  0  0
   60.9085   28.2639   45.2610 H   0  0  0  0  0  0  0  0  0  0  0  0
   59.4950   29.6840   44.4930 C   0  0  0  0  0  0  0  0  0  0  0  0
   60.0115   30.6099   44.7861 H   0  0  0  0  0  0  0  0  0  0  0  0
   59.7976   29.3897   43.4772 H   0  0  0  0  0  0  0  0  0  0  0  0
   58.0450   29.9110   44.5130 N   0  0  0  0  0  0  0  0  0  0  0  0
   57.5200   31.2380   44.3420 C   0  0  0  0  0  0  0  0  0  0  0  0
   56.2890   31.4580   44.5210 O   0  0  0  0  0  0  0  0  0  0  0  0
   58.3730   32.2840   43.9740 O   0  0  0  0  0  0  0  0  0  0  0  0
   58.2580   33.6020   44.5030 C   0  0  0  0  0  0  0  0  0  0  0  0
   58.8539   34.2914   43.8869 H   0  0  0  0  0  0  0  0  0  0  0  0
   57.1983   33.8966   44.4900 H   0  0  0  0  0  0  0  0  0  0  0  0
   58.7560   33.6520   45.9220 C   0  0  0  0  0  0  0  0  0  0  0  0
   59.8260   34.5030   46.2580 C   0  0  0  0  0  0  0  0  0  0  0  0
   60.3160   35.1010   45.4755 H   0  0  0  0  0  0  0  0  0  0  0  0
   60.2690   34.5920   47.5810 C   0  0  0  0  0  0  0  0  0  0  0  0
   61.1100   35.2541   47.8349 H   0  0  0  0  0  0  0  0  0  0  0  0
   59.6460   33.8420   48.5810 C   0  0  0  0  0  0  0  0  0  0  0  0
   60.0042   33.9051   49.6191 H   0  0  0  0  0  0  0  0  0  0  0  0
   58.5660   33.0100   48.2630 C   0  0  0  0  0  0  0  0  0  0  0  0
   58.0728   32.4236   49.0522 H   0  0  0  0  0  0  0  0  0  0  0  0
   58.1140   32.9240   46.9430 C   0  0  0  0  0  0  0  0  0  0  0  0
   57.2525   32.2845   46.7003 H   0  0  0  0  0  0  0  0  0  0  0  0
   57.1190   28.7670   44.5640 C   0  0  0  0  0  0  0  0  0  0  0  0
   56.6021   28.7692   45.5350 H   0  0  0  0  0  0  0  0  0  0  0  0
   56.4013   28.8683   43.7366 H   0  0  0  0  0  0  0  0  0  0  0  0
   57.8580   27.4350   44.3970 C   0  0  0  0  0  0  0  0  0  0  0  0
   57.1710   26.6073   44.6272 H   0  0  0  0  0  0  0  0  0  0  0  0
   58.2146   27.3508   43.3598 H   0  0  0  0  0  0  0  0  0  0  0  0
   58.9060   23.6870   45.7820 N   0  0  0  0  0  0  0  0  0  0  0  0
   60.2180   23.2420   45.2930 C   0  0  0  0  0  0  0  0  0  0  0  0
   60.8723   23.0201   46.1489 H   0  0  0  0  0  0  0  0  0  0  0  0
   60.0935   22.3358   44.6820 H   0  0  0  0  0  0  0  0  0  0  0  0
   60.6705   24.0369   44.6820 H   0  0  0  0  0  0  0  0  0  0  0  0
  1  2  1  0
  2  3  1  0
  2  4  2  0
  4  5  1  0
  5  6  2  0
  6  7  1  0
  6  8  1  0
  8  9  1  0
  9 10  1  0
 10 11  2  0
 10 12  1  0
 12 13  1  0
 13 14  1  0
  5 15  1  0
 15 16  1  0
 15 17  2  0
 17 18  1  0
 18 19  2  0
 18 20  1  0
 20 21  1  0
 21 22  1  0
 21 23  1  0
 21 24  1  0
 24 25  1  0
 24 26  1  0
 24 27  1  0
 27 28  1  0
 28 29  2  0
 28 30  1  0
 30 31  1  0
 31 32  1  0
 31 33  1  0
 31 34  1  0
 34 35  2  0
 35 36  1  0
 35 37  1  0
 37 38  1  0
 37 39  2  0
 39 40  1  0
 39 41  1  0
 41 42  1  0
 41 43  2  0
 43 44  1  0
 27 45  1  0
 45 46  1  0
 45 47  1  0
 45 48  1  0
 48 49  1  0
 48 50  1  0
 17 51  1  0
 51 52  1  0
 52 53  1  0
 52 54  1  0
 52 55  1  0
 51  4  1  0
 13  8  2  0
 48 20  1  0
 43 34  1  0
M  CHG  3   9  -1  12  -1  14  -1
M  END
>  <UniqueID>  (48) 
44

>  <SMILES>  (48) 
C=c1/c(=C\c2[n-]c(=O)[n-]c2[O-])cc(C(=O)N2CCN(C(=O)OCc3ccccc3)CC2)n1C

>  <Energy>  (48) 
132.48900562392856

>  <Genealogy>  (48) 
C=c1c(=Cc2[n-]c(=O)[n-]c2[O-])cc(C(=O)N2CCN(C(=O)OCc3ccccc3)CC2)n1C (protonated)
C=c1/c(=C\c2[n-]c(=O)[n-]c2[O-])cc(C(=O)N2CCN(C(=O)OCc3ccccc3)CC2)n1C (cis-trans isomerization)
C=c1/c(=C\c2[n-]c(=O)[n-]c2[O-])cc(C(=O)N2CCN(C(=O)OCc3ccccc3)CC2)n1C (3D coordinates assigned)
C=c1/c(=C\c2[n-]c(=O)[n-]c2[O-])cc(C(=O)N2CCN(C(=O)OCc3ccccc3)CC2)n1C (nonaromatic ring conformer: 132.48900562392856 kcal/mol)

>  <smiles>  (48) 
C=c1c(=Cc2[nH]c(=O)[nH]c2O)cc(C(=O)N2CCN(C(=O)OCc3ccccc3)CC2)n1C

>  <score_type>  (48) 
oracle

>  <origin>  (48) 
adg

>  <m_score__min__energy>  (48) 
-17.620000000000001

>  <m_primary>  (48) 
energy

$$$$
48:0
     RDKit          3D

 46 48  0  0  0  0  0  0  0  0999 V2000
   60.8340   30.3440   48.2840 C   0  0  0  0  0  0  0  0  0  0  0  0
   60.7540   29.7380   47.0980 C   0  0  0  0  0  0  0  0  0  0  0  0
   59.6520   29.9250   46.1180 C   0  0  0  0  0  0  0  0  0  0  0  0
   59.4970   28.9640   45.1040 C   0  0  0  0  0  0  0  0  0  0  0  0
   58.4870   29.0940   44.1480 C   0  0  0  0  0  0  0  0  0  0  0  0
   57.6100   30.1780   44.1960 C   0  0  0  0  0  0  0  0  0  0  0  0
   57.7290   31.1380   45.2140 C   0  0  0  0  0  0  0  0  0  0  0  0
   56.8630   32.2800   45.2850 N   0  0  0  0  0  0  0  0  0  0  0  0
   57.2630   33.6560   45.3650 C   0  0  0  0  0  0  0  0  0  0  0  0
   56.5690   34.5490   44.8070 O   0  0  0  0  0  0  0  0  0  0  0  0
   58.4610   34.0430   46.1490 C   0  0  0  0  0  0  0  0  0  0  0  0
   58.5020   33.8710   47.4790 C   0  0  0  0  0  0  0  0  0  0  0  0
   59.7080   34.3110   48.2540 C   0  0  0  0  0  0  0  0  0  0  0  0
   60.9320   33.9890   47.5020 N   0  0  0  0  0  0  0  0  0  0  0  0
   62.1460   33.6270   48.1890 C   0  0  0  0  0  0  0  0  0  0  0  0
   62.4740   34.1920   49.4300 C   0  0  0  0  0  0  0  0  0  0  0  0
   63.6500   33.8060   50.0740 C   0  0  0  0  0  0  0  0  0  0  0  0
   64.4980   32.8480   49.4920 C   0  0  0  0  0  0  0  0  0  0  0  0
   65.7570   32.4160   50.1550 C   0  0  0  0  0  0  0  0  0  0  0  0
   65.8670   31.1000   50.8660 C   0  0  0  0  0  0  0  0  0  0  0  0
   66.7700   33.1670   50.1240 O   0  0  0  0  0  0  0  0  0  0  0  0
   64.1210   32.2940   48.2570 C   0  0  0  0  0  0  0  0  0  0  0  0
   62.9710   32.6880   47.6490 N   0  0  0  0  0  0  0  0  0  0  0  0
   60.9740   34.1730   46.0400 C   0  0  0  0  0  0  0  0  0  0  0  0
   59.6430   34.7020   45.4740 C   0  0  0  0  0  0  0  0  0  0  0  0
   58.7590   31.0180   46.1570 C   0  0  0  0  0  0  0  0  0  0  0  0
   61.6889   30.1448   48.9469 H   0  0  0  0  0  0  0  0  0  0  0  0
   60.0450   31.0428   48.5989 H   0  0  0  0  0  0  0  0  0  0  0  0
   61.5653   29.0474   46.8246 H   0  0  0  0  0  0  0  0  0  0  0  0
   60.1779   28.1010   45.0629 H   0  0  0  0  0  0  0  0  0  0  0  0
   58.3827   28.3392   43.3546 H   0  0  0  0  0  0  0  0  0  0  0  0
   56.8231   30.2810   43.4343 H   0  0  0  0  0  0  0  0  0  0  0  0
   57.6516   33.4076   48.0005 H   0  0  0  0  0  0  0  0  0  0  0  0
   59.6578   35.3971   48.4212 H   0  0  0  0  0  0  0  0  0  0  0  0
   59.7284   33.7864   49.2206 H   0  0  0  0  0  0  0  0  0  0  0  0
   61.8080   34.9351   49.8929 H   0  0  0  0  0  0  0  0  0  0  0  0
   63.9151   34.2541   51.0430 H   0  0  0  0  0  0  0  0  0  0  0  0
   65.8529   31.2682   51.9530 H   0  0  0  0  0  0  0  0  0  0  0  0
   65.0193   30.4585   50.5832 H   0  0  0  0  0  0  0  0  0  0  0  0
   66.8094   30.6081   50.5832 H   0  0  0  0  0  0  0  0  0  0  0  0
   64.7603   31.5369   47.7794 H   0  0  0  0  0  0  0  0  0  0  0  0
   61.7709   34.8915   45.7976 H   0  0  0  0  0  0  0  0  0  0  0  0
   61.1638   33.1899   45.5846 H   0  0  0  0  0  0  0  0  0  0  0  0
   59.5900   35.7884   45.6380 H   0  0  0  0  0  0  0  0  0  0  0  0
   59.6046   34.4695   44.3995 H   0  0  0  0  0  0  0  0  0  0  0  0
   58.8731   31.7850   46.9372 H   0  0  0  0  0  0  0  0  0  0  0  0
  1  2  2  0
  2  3  1  0
  3  4  2  0
  4  5  1  0
  5  6  2  0
  6  7  1  0
  7  8  1  0
  8  9  1  0
  9 10  2  0
  9 11  1  0
 11 12  2  0
 12 13  1  0
 13 14  1  0
 14 15  1  0
 15 16  2  0
 16 17  1  0
 17 18  2  0
 18 19  1  0
 19 20  1  0
 19 21  2  0
 18 22  1  0
 22 23  2  0
 14 24  1  0
 24 25  1  0
  7 26  2  0
 26  3  1  0
 25 11  1  0
 23 15  1  0
  1 27  1  0
  1 28  1  0
  2 29  1  0
  4 30  1  0
  5 31  1  0
  6 32  1  0
 12 33  1  0
 13 34  1  0
 13 35  1  0
 16 36  1  0
 17 37  1  0
 20 38  1  0
 20 39  1  0
 20 40  1  0
 22 41  1  0
 24 42  1  0
 24 43  1  0
 25 44  1  0
 25 45  1  0
 26 46  1  0
M  CHG  1   8  -1
M  END
>  <UniqueID>  (49) 
45

>  <SMILES>  (49) 
C=Cc1cccc([N-]C(=O)C2=CCN(c3ccc(C(C)=O)cn3)CC2)c1

>  <Energy>  (49) 
58.961108633933996

>  <Genealogy>  (49) 
C=Cc1cccc([N-]C(=O)C2=CCN(c3ccc(C(C)=O)cn3)CC2)c1 (protonated)
C=Cc1cccc([N-]C(=O)C2=CCN(c3ccc(C(C)=O)cn3)CC2)c1 (3D coordinates assigned)
C=Cc1cccc([N-]C(=O)C2=CCN(c3ccc(C(C)=O)cn3)CC2)c1 (nonaromatic ring conformer: 58.961108633933996 kcal/mol)

>  <smiles>  (49) 
C=Cc1cccc(NC(=O)C2=CCN(c3ccc(C(C)=O)cn3)CC2)c1

>  <score_type>  (49) 
oracle

>  <origin>  (49) 
adg

>  <m_score__min__energy>  (49) 
-9.9299999999999997

>  <m_primary>  (49) 
energy

$$$$
49:0
     RDKit          3D

 63 66  0  0  0  0  0  0  0  0999 V2000
   57.2990   33.8040   45.2760 N   0  0  0  0  0  0  0  0  0  0  0  0
   57.7720   32.7720   44.4130 C   0  0  0  0  0  0  0  0  0  0  0  0
   58.3770   33.0890   43.3530 O   0  0  0  0  0  0  0  0  0  0  0  0
   57.5530   31.3450   44.7530 C   0  0  0  0  0  0  0  0  0  0  0  0
   58.3790   30.7010   45.6910 C   0  0  0  0  0  0  0  0  0  0  0  0
   58.1810   29.3530   46.0040 C   0  0  0  0  0  0  0  0  0  0  0  0
   57.1510   28.6300   45.3870 C   0  0  0  0  0  0  0  0  0  0  0  0
   56.9100   26.9220   45.7410 S   0  0  0  0  0  0  0  0  0  0  0  0
   55.4510   26.6810   46.0070 O   0  0  0  0  0  0  0  0  0  0  0  0
   57.6960   26.5230   46.9590 O   0  0  0  0  0  0  0  0  0  0  0  0
   57.4100   25.9750   44.3690 N   0  0  0  0  0  0  0  0  0  0  0  0
   57.4750   24.5390   44.6950 C   0  0  0  0  0  0  0  0  0  0  0  0
   56.6940   24.2020   45.9950 C   0  0  0  0  0  0  0  0  0  0  0  0
   55.2730   23.7070   45.6870 C   0  0  0  0  0  0  0  0  0  0  0  0
   55.2600   22.4830   44.8430 N   0  0  0  0  0  0  0  0  0  0  0  0
   55.0840   21.2630   45.6600 C   0  0  0  0  0  0  0  0  0  0  0  0
   54.1120   21.5040   46.7870 C   0  0  0  0  0  0  0  0  0  0  0  0
   54.5870   21.6750   48.0960 C   0  0  0  0  0  0  0  0  0  0  0  0
   53.6930   21.9100   49.1450 C   0  0  0  0  0  0  0  0  0  0  0  0
   52.3090   21.9560   48.9010 C   0  0  0  0  0  0  0  0  0  0  0  0
   51.3810   22.1990   49.9260 O   0  0  0  0  0  0  0  0  0  0  0  0
   51.2880   23.3810   50.6770 C   0  0  0  0  0  0  0  0  0  0  0  0
   52.3030   23.6760   51.5950 C   0  0  0  0  0  0  0  0  0  0  0  0
   52.2470   24.8430   52.3620 C   0  0  0  0  0  0  0  0  0  0  0  0
   51.1820   25.7380   52.2070 C   0  0  0  0  0  0  0  0  0  0  0  0
   51.1110   27.1950   53.1920 S   0  0  0  0  0  0  0  0  0  0  0  0
   52.5960   28.0670   53.0400 N   0  0  0  0  0  0  0  0  0  0  0  0
   49.9820   28.0760   52.7340 O   0  0  0  0  0  0  0  0  0  0  0  0
   50.8940   26.8140   54.6310 O   0  0  0  0  0  0  0  0  0  0  0  0
   50.1740   25.4580   51.2730 C   0  0  0  0  0  0  0  0  0  0  0  0
   50.2300   24.2910   50.5050 C   0  0  0  0  0  0  0  0  0  0  0  0
   51.8400   21.8070   47.5920 C   0  0  0  0  0  0  0  0  0  0  0  0
   52.7320   21.5810   46.5400 C   0  0  0  0  0  0  0  0  0  0  0  0
   56.4310   22.3630   43.9350 C   0  0  0  0  0  0  0  0  0  0  0  0
   56.9510   23.7330   43.4890 C   0  0  0  0  0  0  0  0  0  0  0  0
   56.3250   29.2640   44.4530 C   0  0  0  0  0  0  0  0  0  0  0  0
   56.5210   30.6110   44.1380 C   0  0  0  0  0  0  0  0  0  0  0  0
   56.2760   33.9930   45.3790 H   0  0  0  0  0  0  0  0  0  0  0  0
   59.1874   31.2623   46.1824 H   0  0  0  0  0  0  0  0  0  0  0  0
   58.8355   28.8583   46.7367 H   0  0  0  0  0  0  0  0  0  0  0  0
   56.7380   26.1480   43.5860 H   0  0  0  0  0  0  0  0  0  0  0  0
   58.5213   24.2620   44.8913 H   0  0  0  0  0  0  0  0  0  0  0  0
   57.2349   23.4166   46.5433 H   0  0  0  0  0  0  0  0  0  0  0  0
   56.6165   25.1187   46.5980 H   0  0  0  0  0  0  0  0  0  0  0  0
   54.7647   23.4845   46.6368 H   0  0  0  0  0  0  0  0  0  0  0  0
   54.7595   24.5018   45.1260 H   0  0  0  0  0  0  0  0  0  0  0  0
   54.7005   20.4541   45.0208 H   0  0  0  0  0  0  0  0  0  0  0  0
   56.0577   20.9852   46.0899 H   0  0  0  0  0  0  0  0  0  0  0  0
   55.6671   21.6240   48.2978 H   0  0  0  0  0  0  0  0  0  0  0  0
   54.0741   22.0596   50.1660 H   0  0  0  0  0  0  0  0  0  0  0  0
   53.1503   22.9846   51.7134 H   0  0  0  0  0  0  0  0  0  0  0  0
   53.0428   25.0589   53.0901 H   0  0  0  0  0  0  0  0  0  0  0  0
   53.0790   27.7010   52.1910 H   0  0  0  0  0  0  0  0  0  0  0  0
   49.3362   26.1591   51.1442 H   0  0  0  0  0  0  0  0  0  0  0  0
   49.4439   24.0841   49.7639 H   0  0  0  0  0  0  0  0  0  0  0  0
   50.7607   21.8681   47.3887 H   0  0  0  0  0  0  0  0  0  0  0  0
   52.3514   21.4630   45.5147 H   0  0  0  0  0  0  0  0  0  0  0  0
   57.2368   21.8313   44.4623 H   0  0  0  0  0  0  0  0  0  0  0  0
   56.1120   21.8112   43.0385 H   0  0  0  0  0  0  0  0  0  0  0  0
   57.7690   23.5908   42.7674 H   0  0  0  0  0  0  0  0  0  0  0  0
   56.1238   24.2902   43.0251 H   0  0  0  0  0  0  0  0  0  0  0  0
   55.5173   28.6994   43.9642 H   0  0  0  0  0  0  0  0  0  0  0  0
   55.8644   31.1015   43.4043 H   0  0  0  0  0  0  0  0  0  0  0  0
  1  2  1  0
  2  3  2  0
  2  4  1  0
  4  5  2  0
  5  6  1  0
  6  7  2  0
  7  8  1  0
  8  9  2  0
  8 10  2  0
  8 11  1  0
 11 12  1  0
 12 13  1  0
 13 14  1  0
 14 15  1  0
 15 16  1  0
 16 17  1  0
 17 18  2  0
 18 19  1  0
 19 20  2  0
 20 21  1  0
 21 22  1  0
 22 23  2  0
 23 24  1  0
 24 25  2  0
 25 26  1  0
 26 27  1  0
 26 28  2  0
 26 29  2  0
 25 30  1  0
 30 31  2  0
 20 32  1  0
 32 33  2  0
 15 34  1  0
 34 35  1  0
  7 36  1  0
 36 37  2  0
 37  4  1  0
 35 12  1  0
 33 17  1  0
 31 22  1  0
  1 38  1  0
  5 39  1  0
  6 40  1  0
 11 41  1  0
 12 42  1  0
 13 43  1  0
 13 44  1  0
 14 45  1  0
 14 46  1  0
 16 47  1  0
 16 48  1  0
 18 49  1  0
 19 50  1  0
 23 51  1  0
 24 52  1  0
 27 53  1  0
 30 54  1  0
 31 55  1  0
 32 56  1  0
 33 57  1  0
 34 58  1  0
 34 59  1  0
 35 60  1  0
 35 61  1  0
 36 62  1  0
 37 63  1  0
M  CHG  2   1  -1  27  -1
M  END
>  <UniqueID>  (50) 
46

>  <SMILES>  (50) 
[NH-]C(=O)c1ccc(S(=O)(=O)NC2CCN(Cc3ccc(Oc4ccc(S([NH-])(=O)=O)cc4)cc3)CC2)cc1

>  <Energy>  (50) 
81.48185504004796

>  <Genealogy>  (50) 
[NH-]C(=O)c1ccc(S(=O)(=O)NC2CCN(Cc3ccc(Oc4ccc(S([NH-])(=O)=O)cc4)cc3)CC2)cc1 (protonated)
[NH-]C(=O)c1ccc(S(=O)(=O)NC2CCN(Cc3ccc(Oc4ccc(S([NH-])(=O)=O)cc4)cc3)CC2)cc1 (3D coordinates assigned)
[NH-]C(=O)c1ccc(S(=O)(=O)NC2CCN(Cc3ccc(Oc4ccc(S([NH-])(=O)=O)cc4)cc3)CC2)cc1 (nonaromatic ring conformer: 81.48185504004796 kcal/mol)

>  <smiles>  (50) 
NC(=O)c1ccc(S(=O)(=O)NC2CCN(Cc3ccc(Oc4ccc(S(N)(=O)=O)cc4)cc3)CC2)cc1

>  <score_type>  (50) 
oracle

>  <origin>  (50) 
adg

>  <m_score__min__energy>  (50) 
-16.510000000000002

>  <m_primary>  (50) 
energy

$$$$
50:0
     RDKit          3D

 41 43  0  0  0  0  0  0  0  0999 V2000
   60.5080   25.6360   46.1580 C   0  0  0  0  0  0  0  0  0  0  0  0
   59.8820   26.8270   46.1720 C   0  0  0  0  0  0  0  0  0  0  0  0
   60.6100   27.9430   45.7160 C   0  0  0  0  0  0  0  0  0  0  0  0
   59.9770   29.1550   45.4510 C   0  0  0  0  0  0  0  0  0  0  0  0
   58.5950   29.2820   45.6140 C   0  0  0  0  0  0  0  0  0  0  0  0
   57.9200   30.5620   45.2840 C   0  0  0  0  0  0  0  0  0  0  0  0
   56.7470   30.5420   44.8210 O   0  0  0  0  0  0  0  0  0  0  0  0
   58.5830   31.8280   45.4630 N   0  0  0  0  0  0  0  0  0  0  0  0
   58.4170   32.8510   44.4120 C   0  0  0  0  0  0  0  0  0  0  0  0
   57.9550   34.2130   44.9530 C   0  0  0  0  0  0  0  0  0  0  0  0
   58.7140   34.6740   46.2200 C   0  0  0  0  0  0  0  0  0  0  0  0
   58.1480   34.1660   47.4800 N   0  0  0  0  0  0  0  0  0  0  0  0
   58.5330   32.7810   47.7930 C   0  0  0  0  0  0  0  0  0  0  0  0
   59.3600   32.0820   46.6900 C   0  0  0  0  0  0  0  0  0  0  0  0
   57.8660   28.2050   46.1400 C   0  0  0  0  0  0  0  0  0  0  0  0
   58.4960   26.9920   46.5010 C   0  0  0  0  0  0  0  0  0  0  0  0
   57.7330   26.0810   47.1580 C   0  0  0  0  0  0  0  0  0  0  0  0
   56.4010   25.5980   46.7480 C   0  0  0  0  0  0  0  0  0  0  0  0
   55.9940   24.3270   46.9040 N   0  0  0  0  0  0  0  0  0  0  0  0
   54.7840   24.3080   46.3040 C   0  0  0  0  0  0  0  0  0  0  0  0
   54.0680   23.2740   46.2540 O   0  0  0  0  0  0  0  0  0  0  0  0
   54.4070   25.4810   45.7510 N   0  0  0  0  0  0  0  0  0  0  0  0
   55.4460   26.2840   46.0290 C   0  0  0  0  0  0  0  0  0  0  0  0
   55.5330   27.6040   45.6050 O   0  0  0  0  0  0  0  0  0  0  0  0
   59.9820   24.7341   46.5043 H   0  0  0  0  0  0  0  0  0  0  0  0
   61.5457   25.5643   45.8003 H   0  0  0  0  0  0  0  0  0  0  0  0
   61.6963   27.8560   45.5667 H   0  0  0  0  0  0  0  0  0  0  0  0
   60.5688   30.0178   45.1112 H   0  0  0  0  0  0  0  0  0  0  0  0
   59.3824   32.9875   43.9028 H   0  0  0  0  0  0  0  0  0  0  0  0
   57.6337   32.4905   43.7290 H   0  0  0  0  0  0  0  0  0  0  0  0
   58.1043   34.9670   44.1661 H   0  0  0  0  0  0  0  0  0  0  0  0
   56.8979   34.1023   45.2364 H   0  0  0  0  0  0  0  0  0  0  0  0
   59.7549   34.3263   46.1443 H   0  0  0  0  0  0  0  0  0  0  0  0
   58.6327   35.7704   46.2561 H   0  0  0  0  0  0  0  0  0  0  0  0
   57.1100   34.2860   47.5090 H   0  0  0  0  0  0  0  0  0  0  0  0
   59.1304   32.7906   48.7166 H   0  0  0  0  0  0  0  0  0  0  0  0
   57.5977   32.2106   47.8923 H   0  0  0  0  0  0  0  0  0  0  0  0
   60.2177   32.7221   46.4359 H   0  0  0  0  0  0  0  0  0  0  0  0
   59.6795   31.1066   47.0857 H   0  0  0  0  0  0  0  0  0  0  0  0
   56.7790   28.3067   46.2747 H   0  0  0  0  0  0  0  0  0  0  0  0
   58.1487   25.6624   48.0864 H   0  0  0  0  0  0  0  0  0  0  0  0
  1  2  2  0
  2  3  1  0
  3  4  2  0
  4  5  1  0
  5  6  1  0
  6  7  2  0
  6  8  1  0
  8  9  1  0
  9 10  1  0
 10 11  1  0
 11 12  1  0
 12 13  1  0
 13 14  1  0
  5 15  2  0
 15 16  1  0
 16 17  2  3
 17 18  1  0
 18 19  1  0
 19 20  1  0
 20 21  2  0
 20 22  1  0
 22 23  1  0
 23 24  1  0
 16  2  1  0
 23 18  2  0
 14  8  1  0
  1 25  1  0
  1 26  1  0
  3 27  1  0
  4 28  1  0
  9 29  1  0
  9 30  1  0
 10 31  1  0
 10 32  1  0
 11 33  1  0
 11 34  1  0
 12 35  1  0
 13 36  1  0
 13 37  1  0
 14 38  1  0
 14 39  1  0
 15 40  1  0
 17 41  1  0
M  CHG  3  19  -1  22  -1  24  -1
M  END
>  <UniqueID>  (51) 
47

>  <SMILES>  (51) 
C=c1ccc(C(=O)N2CCCNCC2)cc1=Cc1[n-]c(=O)[n-]c1[O-]

>  <Energy>  (51) 
106.99776894399167

>  <Genealogy>  (51) 
C=c1ccc(C(=O)N2CCCNCC2)cc1=Cc1[n-]c(=O)[n-]c1[O-] (protonated)
C=c1ccc(C(=O)N2CCCNCC2)cc1=Cc1[n-]c(=O)[n-]c1[O-] (3D coordinates assigned)
C=c1ccc(C(=O)N2CCCNCC2)cc1=Cc1[n-]c(=O)[n-]c1[O-] (nonaromatic ring conformer: 106.99776894399167 kcal/mol)

>  <smiles>  (51) 
C=c1ccc(C(=O)N2CCCNCC2)cc1=Cc1[nH]c(=O)[nH]c1O

>  <score_type>  (51) 
oracle

>  <origin>  (51) 
adg

>  <m_score__min__energy>  (51) 
-13.720000000000001

>  <m_primary>  (51) 
energy

$$$$
51:0
     RDKit          3D

 49 51  0  0  0  0  0  0  0  0999 V2000
   60.4410   28.9450   47.2570 C   0  0  0  0  0  0  0  0  0  0  0  0
   59.6370   29.6150   46.4100 C   0  0  0  0  0  0  0  0  0  0  0  0
   58.6880   29.0350   45.5640 C   0  0  0  0  0  0  0  0  0  0  0  0
   58.4460   27.7470   45.2410 C   0  0  0  0  0  0  0  0  0  0  0  0
   57.2400   26.9820   45.5890 C   0  0  0  0  0  0  0  0  0  0  0  0
   57.2680   25.7380   46.0970 N   0  0  0  0  0  0  0  0  0  0  0  0
   55.9710   25.4860   46.3790 C   0  0  0  0  0  0  0  0  0  0  0  0
   55.5830   24.3910   46.8650 O   0  0  0  0  0  0  0  0  0  0  0  0
   55.1240   26.5020   46.1100 N   0  0  0  0  0  0  0  0  0  0  0  0
   55.9450   27.4480   45.6250 C   0  0  0  0  0  0  0  0  0  0  0  0
   55.5220   28.7180   45.2510 O   0  0  0  0  0  0  0  0  0  0  0  0
   57.9920   30.0770   44.9990 C   0  0  0  0  0  0  0  0  0  0  0  0
   58.5470   31.2700   45.4490 C   0  0  0  0  0  0  0  0  0  0  0  0
   58.1510   32.6440   44.8460 C   0  0  0  0  0  0  0  0  0  0  0  0
   56.9160   33.2230   45.5870 C   0  0  0  0  0  0  0  0  0  0  0  0
   59.2660   33.7070   44.9590 C   0  0  0  0  0  0  0  0  0  0  0  0
   57.7630   32.4550   43.3680 C   0  0  0  0  0  0  0  0  0  0  0  0
   59.5700   30.9800   46.3180 N   0  0  0  0  0  0  0  0  0  0  0  0
   60.4480   31.9290   47.0370 C   0  0  0  0  0  0  0  0  0  0  0  0
   59.9270   32.2510   48.4160 C   0  0  0  0  0  0  0  0  0  0  0  0
   60.7460   32.9290   49.3330 C   0  0  0  0  0  0  0  0  0  0  0  0
   60.2680   33.2480   50.6070 C   0  0  0  0  0  0  0  0  0  0  0  0
   58.9560   32.9200   50.9720 C   0  0  0  0  0  0  0  0  0  0  0  0
   58.3580   33.2980   52.5830 S   0  0  0  0  0  0  0  0  0  0  0  0
   58.2040   35.0090   52.7540 N   0  0  0  0  0  0  0  0  0  0  0  0
   59.3150   32.7720   53.6160 O   0  0  0  0  0  0  0  0  0  0  0  0
   57.0170   32.6540   52.7970 O   0  0  0  0  0  0  0  0  0  0  0  0
   58.1260   32.2700   50.0510 C   0  0  0  0  0  0  0  0  0  0  0  0
   58.6020   31.9490   48.7770 C   0  0  0  0  0  0  0  0  0  0  0  0
   61.1586   29.4940   47.8844 H   0  0  0  0  0  0  0  0  0  0  0  0
   60.3802   27.8486   47.3216 H   0  0  0  0  0  0  0  0  0  0  0  0
   59.2220   27.2219   44.6648 H   0  0  0  0  0  0  0  0  0  0  0  0
   57.1409   29.9832   44.3085 H   0  0  0  0  0  0  0  0  0  0  0  0
   57.0725   33.1496   46.6733 H   0  0  0  0  0  0  0  0  0  0  0  0
   56.7814   34.2781   45.3064 H   0  0  0  0  0  0  0  0  0  0  0  0
   56.0189   32.6516   45.3064 H   0  0  0  0  0  0  0  0  0  0  0  0
   59.4758   33.9070   46.0201 H   0  0  0  0  0  0  0  0  0  0  0  0
   60.1779   33.3354   44.4687 H   0  0  0  0  0  0  0  0  0  0  0  0
   58.9384   34.6356   44.4687 H   0  0  0  0  0  0  0  0  0  0  0  0
   56.7756   31.9740   43.3067 H   0  0  0  0  0  0  0  0  0  0  0  0
   57.7248   33.4354   42.8707 H   0  0  0  0  0  0  0  0  0  0  0  0
   58.5114   31.8205   42.8707 H   0  0  0  0  0  0  0  0  0  0  0  0
   61.4495   31.4839   47.1312 H   0  0  0  0  0  0  0  0  0  0  0  0
   60.4798   32.8649   46.4598 H   0  0  0  0  0  0  0  0  0  0  0  0
   61.7701   33.2108   49.0470 H   0  0  0  0  0  0  0  0  0  0  0  0
   60.9250   33.7589   51.3263 H   0  0  0  0  0  0  0  0  0  0  0  0
   58.1670   35.4100   51.7900 H   0  0  0  0  0  0  0  0  0  0  0  0
   57.0944   32.0108   50.3314 H   0  0  0  0  0  0  0  0  0  0  0  0
   57.9363   31.4572   48.0524 H   0  0  0  0  0  0  0  0  0  0  0  0
  1  2  2  0
  2  3  1  0
  3  4  2  3
  4  5  1  0
  5  6  1  0
  6  7  1  0
  7  8  2  0
  7  9  1  0
  9 10  1  0
 10 11  1  0
  3 12  1  0
 12 13  2  0
 13 14  1  0
 14 15  1  0
 14 16  1  0
 14 17  1  0
 13 18  1  0
 18 19  1  0
 19 20  1  0
 20 21  2  0
 21 22  1  0
 22 23  2  0
 23 24  1  0
 24 25  1  0
 24 26  2  0
 24 27  2  0
 23 28  1  0
 28 29  2  0
 18  2  1  0
 29 20  1  0
 10  5  2  0
  1 30  1  0
  1 31  1  0
  4 32  1  0
 12 33  1  0
 15 34  1  0
 15 35  1  0
 15 36  1  0
 16 37  1  0
 16 38  1  0
 16 39  1  0
 17 40  1  0
 17 41  1  0
 17 42  1  0
 19 43  1  0
 19 44  1  0
 21 45  1  0
 22 46  1  0
 25 47  1  0
 28 48  1  0
 29 49  1  0
M  CHG  4   6  -1   9  -1  11  -1  25  -1
M  END
>  <UniqueID>  (52) 
48

>  <SMILES>  (52) 
C=c1c(=Cc2[n-]c(=O)[n-]c2[O-])cc(C(C)(C)C)n1Cc1ccc(S([NH-])(=O)=O)cc1

>  <Energy>  (52) 
128.36490974621717

>  <Genealogy>  (52) 
C=c1c(=Cc2[n-]c(=O)[n-]c2[O-])cc(C(C)(C)C)n1Cc1ccc(S([NH-])(=O)=O)cc1 (protonated)
C=c1c(=Cc2[n-]c(=O)[n-]c2[O-])cc(C(C)(C)C)n1Cc1ccc(S([NH-])(=O)=O)cc1 (3D coordinates assigned)
C=c1c(=Cc2[n-]c(=O)[n-]c2[O-])cc(C(C)(C)C)n1Cc1ccc(S([NH-])(=O)=O)cc1 (optimized conformer: 128.36490974621717 kcal/mol)

>  <smiles>  (52) 
C=c1c(=Cc2[nH]c(=O)[nH]c2O)cc(C(C)(C)C)n1Cc1ccc(S(N)(=O)=O)cc1

>  <score_type>  (52) 
oracle

>  <origin>  (52) 
adg

>  <m_score__min__energy>  (52) 
-16.530000000000001

>  <m_primary>  (52) 
energy

$$$$
52:0
     RDKit          3D

 55 58  0  0  0  0  0  0  0  0999 V2000
   57.2490   30.8230   43.3580 C   0  0  0  0  0  0  0  0  0  0  0  0
   57.9740   31.1220   44.4450 C   0  0  0  0  0  0  0  0  0  0  0  0
   58.6420   30.2160   45.2760 C   0  0  0  0  0  0  0  0  0  0  0  0
   58.6830   28.8730   45.1450 C   0  0  0  0  0  0  0  0  0  0  0  0
   57.6270   27.9490   45.6130 C   0  0  0  0  0  0  0  0  0  0  0  0
   57.8410   26.7170   46.1090 N   0  0  0  0  0  0  0  0  0  0  0  0
   56.5980   26.2300   46.2990 C   0  0  0  0  0  0  0  0  0  0  0  0
   56.3820   25.0850   46.7760 O   0  0  0  0  0  0  0  0  0  0  0  0
   55.6030   27.0630   45.9360 N   0  0  0  0  0  0  0  0  0  0  0  0
   56.2660   28.1490   45.5030 C   0  0  0  0  0  0  0  0  0  0  0  0
   55.6250   29.2960   45.0350 O   0  0  0  0  0  0  0  0  0  0  0  0
   59.2010   30.9680   46.2990 C   0  0  0  0  0  0  0  0  0  0  0  0
   58.8490   32.2810   46.0650 C   0  0  0  0  0  0  0  0  0  0  0  0
   59.1300   33.4070   46.9800 C   0  0  0  0  0  0  0  0  0  0  0  0
   58.1550   34.0050   47.5140 O   0  0  0  0  0  0  0  0  0  0  0  0
   60.4840   33.7780   47.3230 N   0  0  0  0  0  0  0  0  0  0  0  0
   61.5910   33.4770   46.4030 C   0  0  0  0  0  0  0  0  0  0  0  0
   62.9410   33.8250   47.0260 C   0  0  0  0  0  0  0  0  0  0  0  0
   63.0080   33.3680   48.4250 N   0  0  0  0  0  0  0  0  0  0  0  0
   63.2230   31.9080   48.5900 C   0  0  0  0  0  0  0  0  0  0  0  0
   62.6350   31.2940   49.8820 C   0  0  0  0  0  0  0  0  0  0  0  0
   61.2490   30.7510   49.6460 C   0  0  0  0  0  0  0  0  0  0  0  0
   61.0710   29.5140   49.0060 C   0  0  0  0  0  0  0  0  0  0  0  0
   59.7780   29.0310   48.7880 C   0  0  0  0  0  0  0  0  0  0  0  0
   58.7030   29.7560   49.2010 N   0  0  0  0  0  0  0  0  0  0  0  0
   58.8470   30.9590   49.8170 C   0  0  0  0  0  0  0  0  0  0  0  0
   60.1210   31.4850   50.0370 C   0  0  0  0  0  0  0  0  0  0  0  0
   62.0000   34.0020   49.3090 C   0  0  0  0  0  0  0  0  0  0  0  0
   60.7490   34.5280   48.5610 C   0  0  0  0  0  0  0  0  0  0  0  0
   58.1260   32.3810   44.9250 N   0  0  0  0  0  0  0  0  0  0  0  0
   57.4910   33.5970   44.4050 C   0  0  0  0  0  0  0  0  0  0  0  0
   56.7673   31.6256   42.7803 H   0  0  0  0  0  0  0  0  0  0  0  0
   57.1357   29.7750   43.0436 H   0  0  0  0  0  0  0  0  0  0  0  0
   59.5649   28.4344   44.6551 H   0  0  0  0  0  0  0  0  0  0  0  0
   55.4400   30.0880   45.6360 H   0  0  0  0  0  0  0  0  0  0  0  0
   59.8077   30.5902   47.1352 H   0  0  0  0  0  0  0  0  0  0  0  0
   61.5740   32.4041   46.1610 H   0  0  0  0  0  0  0  0  0  0  0  0
   61.4616   34.0832   45.4943 H   0  0  0  0  0  0  0  0  0  0  0  0
   63.7404   33.3370   46.4491 H   0  0  0  0  0  0  0  0  0  0  0  0
   63.0656   34.9178   47.0070 H   0  0  0  0  0  0  0  0  0  0  0  0
   62.7623   31.3977   47.7313 H   0  0  0  0  0  0  0  0  0  0  0  0
   64.3120   31.7669   48.6551 H   0  0  0  0  0  0  0  0  0  0  0  0
   63.2881   30.4759   50.2199 H   0  0  0  0  0  0  0  0  0  0  0  0
   62.5744   32.0829   50.6461 H   0  0  0  0  0  0  0  0  0  0  0  0
   61.9432   28.9292   48.6785 H   0  0  0  0  0  0  0  0  0  0  0  0
   59.6292   28.0653   48.2828 H   0  0  0  0  0  0  0  0  0  0  0  0
   57.9580   31.5190   50.1427 H   0  0  0  0  0  0  0  0  0  0  0  0
   60.2389   32.4691   50.5141 H   0  0  0  0  0  0  0  0  0  0  0  0
   61.6727   33.2579   50.0501 H   0  0  0  0  0  0  0  0  0  0  0  0
   62.4852   34.8743   49.7712 H   0  0  0  0  0  0  0  0  0  0  0  0
   59.8759   34.4370   49.2238 H   0  0  0  0  0  0  0  0  0  0  0  0
   60.9364   35.5766   48.2864 H   0  0  0  0  0  0  0  0  0  0  0  0
   57.1621   34.2268   45.2448 H   0  0  0  0  0  0  0  0  0  0  0  0
   58.2135   34.1537   43.7902 H   0  0  0  0  0  0  0  0  0  0  0  0
   56.6212   33.3223   43.7902 H   0  0  0  0  0  0  0  0  0  0  0  0
  1  2  2  0
  2  3  1  0
  3  4  2  3
  4  5  1  0
  5  6  1  0
  6  7  1  0
  7  8  2  0
  7  9  1  0
  9 10  1  0
 10 11  1  0
  3 12  1  0
 12 13  2  0
 13 14  1  0
 14 15  2  0
 14 16  1  0
 16 17  1  0
 17 18  1  0
 18 19  1  0
 19 20  1  0
 20 21  1  0
 21 22  1  0
 22 23  2  0
 23 24  1  0
 24 25  2  0
 25 26  1  0
 26 27  2  0
 19 28  1  0
 28 29  1  0
 13 30  1  0
 30 31  1  0
 30  2  1  0
 10  5  2  0
 29 16  1  0
 27 22  1  0
  1 32  1  0
  1 33  1  0
  4 34  1  0
 11 35  1  0
 12 36  1  0
 17 37  1  0
 17 38  1  0
 18 39  1  0
 18 40  1  0
 20 41  1  0
 20 42  1  0
 21 43  1  0
 21 44  1  0
 23 45  1  0
 24 46  1  0
 26 47  1  0
 27 48  1  0
 28 49  1  0
 28 50  1  0
 29 51  1  0
 29 52  1  0
 31 53  1  0
 31 54  1  0
 31 55  1  0
M  CHG  2   6  -1   9  -1
M  END
>  <UniqueID>  (53) 
49

>  <SMILES>  (53) 
C=c1c(=Cc2[n-]c(=O)[n-]c2O)cc(C(=O)N2CCN(CCc3ccncc3)CC2)n1C

>  <Energy>  (53) 
138.91466811657173

>  <Genealogy>  (53) 
C=c1c(=Cc2[n-]c(=O)[n-]c2O)cc(C(=O)N2CCN(CCc3ccncc3)CC2)n1C (protonated)
C=c1c(=Cc2[n-]c(=O)[n-]c2O)cc(C(=O)N2CCN(CCc3ccncc3)CC2)n1C (3D coordinates assigned)
C=c1c(=Cc2[n-]c(=O)[n-]c2O)cc(C(=O)N2CCN(CCc3ccncc3)CC2)n1C (nonaromatic ring conformer: 138.91466811657173 kcal/mol)

>  <smiles>  (53) 
C=c1c(=Cc2[nH]c(=O)[nH]c2O)cc(C(=O)N2CCN(CCc3ccncc3)CC2)n1C

>  <score_type>  (53) 
oracle

>  <origin>  (53) 
adg

>  <m_score__min__energy>  (53) 
-13.52

>  <m_primary>  (53) 
energy

$$$$
53:0
     RDKit          3D

 48 50  0  0  0  0  0  0  0  0999 V2000
   59.5340   35.3160   46.6130 O   0  0  0  0  0  0  0  0  0  0  0  0
   59.0160   34.1720   46.7280 C   0  0  0  0  0  0  0  0  0  0  0  0
   57.6730   33.8910   46.0970 C   0  0  0  0  0  0  0  0  0  0  0  0
   57.7440   33.5790   44.5830 C   0  0  0  0  0  0  0  0  0  0  0  0
   58.2370   32.1600   44.1950 C   0  0  0  0  0  0  0  0  0  0  0  0
   57.7900   31.7180   42.7970 C   0  0  0  0  0  0  0  0  0  0  0  0
   56.7210   30.6420   42.9840 C   0  0  0  0  0  0  0  0  0  0  0  0
   56.6200   30.3480   44.4770 C   0  0  0  0  0  0  0  0  0  0  0  0
   57.7870   31.0550   45.1490 C   0  0  0  0  0  0  0  0  0  0  0  0
   59.6830   33.2020   47.5470 N   0  0  0  0  0  0  0  0  0  0  0  0
   60.8860   32.4710   47.1610 C   0  0  0  0  0  0  0  0  0  0  0  0
   60.8720   31.1020   47.7830 C   0  0  0  0  0  0  0  0  0  0  0  0
   61.2860   30.9800   48.9680 O   0  0  0  0  0  0  0  0  0  0  0  0
   60.4030   29.9370   47.0640 N   0  0  0  0  0  0  0  0  0  0  0  0
   61.0040   29.6450   45.7460 C   0  0  0  0  0  0  0  0  0  0  0  0
   60.7880   28.1930   45.3110 C   0  0  0  0  0  0  0  0  0  0  0  0
   59.3460   27.8170   45.4550 C   0  0  0  0  0  0  0  0  0  0  0  0
   58.7160   26.9930   44.5100 C   0  0  0  0  0  0  0  0  0  0  0  0
   57.3830   26.6140   44.6890 C   0  0  0  0  0  0  0  0  0  0  0  0
   56.6780   27.0390   45.8180 C   0  0  0  0  0  0  0  0  0  0  0  0
   55.3560   26.6530   46.0000 O   0  0  0  0  0  0  0  0  0  0  0  0
   57.3070   27.8500   46.7700 C   0  0  0  0  0  0  0  0  0  0  0  0
   58.6390   28.2560   46.5860 C   0  0  0  0  0  0  0  0  0  0  0  0
   59.3330   29.0900   47.6320 C   0  0  0  0  0  0  0  0  0  0  0  0
   57.2244   33.0263   46.6080 H   0  0  0  0  0  0  0  0  0  0  0  0
   57.0714   34.8054   46.2065 H   0  0  0  0  0  0  0  0  0  0  0  0
   56.7341   33.7082   44.1667 H   0  0  0  0  0  0  0  0  0  0  0  0
   58.4956   34.2716   44.1762 H   0  0  0  0  0  0  0  0  0  0  0  0
   59.3298   32.2774   44.2403 H   0  0  0  0  0  0  0  0  0  0  0  0
   57.3714   32.5737   42.2470 H   0  0  0  0  0  0  0  0  0  0  0  0
   58.6411   31.3270   42.2201 H   0  0  0  0  0  0  0  0  0  0  0  0
   55.7535   31.0047   42.6067 H   0  0  0  0  0  0  0  0  0  0  0  0
   56.9877   29.7312   42.4278 H   0  0  0  0  0  0  0  0  0  0  0  0
   55.6678   30.7299   44.8737 H   0  0  0  0  0  0  0  0  0  0  0  0
   56.6547   29.2651   44.6672 H   0  0  0  0  0  0  0  0  0  0  0  0
   57.4666   31.4888   46.1077 H   0  0  0  0  0  0  0  0  0  0  0  0
   58.6080   30.3535   45.3583 H   0  0  0  0  0  0  0  0  0  0  0  0
   60.9188   32.3741   46.0658 H   0  0  0  0  0  0  0  0  0  0  0  0
   61.7725   33.0199   47.5113 H   0  0  0  0  0  0  0  0  0  0  0  0
   60.5493   30.3091   44.9962 H   0  0  0  0  0  0  0  0  0  0  0  0
   62.0882   29.8108   45.8293 H   0  0  0  0  0  0  0  0  0  0  0  0
   61.0891   28.0806   44.2590 H   0  0  0  0  0  0  0  0  0  0  0  0
   61.3953   27.5340   45.9489 H   0  0  0  0  0  0  0  0  0  0  0  0
   59.2722   26.6449   43.6271 H   0  0  0  0  0  0  0  0  0  0  0  0
   56.8875   25.9796   43.9393 H   0  0  0  0  0  0  0  0  0  0  0  0
   56.7556   28.1708   47.6662 H   0  0  0  0  0  0  0  0  0  0  0  0
   58.5887   29.7395   48.1159 H   0  0  0  0  0  0  0  0  0  0  0  0
   59.7992   28.4017   48.3523 H   0  0  0  0  0  0  0  0  0  0  0  0
  1  2  2  0
  2  3  1  0
  3  4  1  0
  4  5  1  0
  5  6  1  0
  6  7  1  0
  7  8  1  0
  8  9  1  0
  2 10  1  0
 10 11  1  0
 11 12  1  0
 12 13  2  0
 12 14  1  0
 14 15  1  0
 15 16  1  0
 16 17  1  0
 17 18  2  0
 18 19  1  0
 19 20  2  0
 20 21  1  0
 20 22  1  0
 22 23  2  0
 23 24  1  0
  9  5  1  0
 24 14  1  0
 23 17  1  0
  3 25  1  0
  3 26  1  0
  4 27  1  0
  4 28  1  0
  5 29  1  0
  6 30  1  0
  6 31  1  0
  7 32  1  0
  7 33  1  0
  8 34  1  0
  8 35  1  0
  9 36  1  0
  9 37  1  0
 11 38  1  0
 11 39  1  0
 15 40  1  0
 15 41  1  0
 16 42  1  0
 16 43  1  0
 18 44  1  0
 19 45  1  0
 22 46  1  0
 24 47  1  0
 24 48  1  0
M  CHG  2  10  -1  21  -1
M  END
>  <UniqueID>  (54) 
50

>  <SMILES>  (54) 
O=C(CCC1CCCC1)[N-]CC(=O)N1CCc2ccc([O-])cc2C1

>  <Energy>  (54) 
49.74360989058058

>  <Genealogy>  (54) 
O=C(CCC1CCCC1)[N-]CC(=O)N1CCc2ccc([O-])cc2C1 (protonated)
O=C(CCC1CCCC1)[N-]CC(=O)N1CCc2ccc([O-])cc2C1 (3D coordinates assigned)
O=C(CCC1CCCC1)[N-]CC(=O)N1CCc2ccc([O-])cc2C1 (nonaromatic ring conformer: 49.74360989058058 kcal/mol)

>  <smiles>  (54) 
O=C(CCC1CCCC1)NCC(=O)N1CCc2ccc(O)cc2C1

>  <score_type>  (54) 
oracle

>  <origin>  (54) 
adg

>  <m_score__min__energy>  (54) 
-12.32

>  <m_primary>  (54) 
energy

$$$$
54:0
     RDKit          3D

 47 49  0  0  0  0  0  0  0  0999 V2000
   57.5980   23.2820   47.4410 O   0  0  0  0  0  0  0  0  0  0  0  0
   57.5030   24.2710   46.7290 C   0  0  0  0  0  0  0  0  0  0  0  0
   57.9750   25.6030   47.2420 C   0  0  0  0  0  0  0  0  0  0  0  0
   58.6200   26.3960   46.1420 C   0  0  0  0  0  0  0  0  0  0  0  0
   59.8770   26.3970   46.0390 O   0  0  0  0  0  0  0  0  0  0  0  0
   57.8160   27.1870   45.1950 C   0  0  0  0  0  0  0  0  0  0  0  0
   57.7710   26.8550   43.9800 O   0  0  0  0  0  0  0  0  0  0  0  0
   57.0450   28.2940   45.6790 N   0  0  0  0  0  0  0  0  0  0  0  0
   57.3720   29.6870   45.5620 C   0  0  0  0  0  0  0  0  0  0  0  0
   58.1720   30.3510   46.5080 C   0  0  0  0  0  0  0  0  0  0  0  0
   58.4500   31.7150   46.3650 C   0  0  0  0  0  0  0  0  0  0  0  0
   57.9190   32.4430   45.2850 C   0  0  0  0  0  0  0  0  0  0  0  0
   58.2140   33.8880   45.1310 C   0  0  0  0  0  0  0  0  0  0  0  0
   57.2870   34.6890   44.8350 O   0  0  0  0  0  0  0  0  0  0  0  0
   59.5400   34.3790   45.3720 N   0  0  0  0  0  0  0  0  0  0  0  0
   60.3220   34.1880   46.5620 C   0  0  0  0  0  0  0  0  0  0  0  0
   59.7960   34.4200   47.8460 C   0  0  0  0  0  0  0  0  0  0  0  0
   60.6000   34.2430   48.9780 C   0  0  0  0  0  0  0  0  0  0  0  0
   61.9340   33.8500   48.8350 C   0  0  0  0  0  0  0  0  0  0  0  0
   62.4680   33.6420   47.5620 C   0  0  0  0  0  0  0  0  0  0  0  0
   61.6670   33.8180   46.4290 C   0  0  0  0  0  0  0  0  0  0  0  0
   57.0980   31.7790   44.3570 C   0  0  0  0  0  0  0  0  0  0  0  0
   56.8240   30.4150   44.5010 C   0  0  0  0  0  0  0  0  0  0  0  0
   56.9380   24.1320   45.3400 C   0  0  0  0  0  0  0  0  0  0  0  0
   55.4370   23.9690   45.3950 C   0  0  0  0  0  0  0  0  0  0  0  0
   54.5980   25.0740   45.6170 C   0  0  0  0  0  0  0  0  0  0  0  0
   55.1350   26.3440   45.8150 O   0  0  0  0  0  0  0  0  0  0  0  0
   53.2480   24.9080   45.6330 N   0  0  0  0  0  0  0  0  0  0  0  0
   52.6870   23.6890   45.4320 C   0  0  0  0  0  0  0  0  0  0  0  0
   51.4360   23.5620   45.4530 O   0  0  0  0  0  0  0  0  0  0  0  0
   53.4740   22.6080   45.2020 N   0  0  0  0  0  0  0  0  0  0  0  0
   54.8280   22.7180   45.1750 C   0  0  0  0  0  0  0  0  0  0  0  0
   55.5240   21.6930   44.9470 O   0  0  0  0  0  0  0  0  0  0  0  0
   57.1145   26.1642   47.6352 H   0  0  0  0  0  0  0  0  0  0  0  0
   58.7155   25.4338   48.0376 H   0  0  0  0  0  0  0  0  0  0  0  0
   58.5815   29.7958   47.3648 H   0  0  0  0  0  0  0  0  0  0  0  0
   59.0889   32.2219   47.1031 H   0  0  0  0  0  0  0  0  0  0  0  0
   58.7502   34.7413   47.9606 H   0  0  0  0  0  0  0  0  0  0  0  0
   60.1818   34.4133   49.9811 H   0  0  0  0  0  0  0  0  0  0  0  0
   62.5630   33.7046   49.7257 H   0  0  0  0  0  0  0  0  0  0  0  0
   63.5196   33.3394   47.4499 H   0  0  0  0  0  0  0  0  0  0  0  0
   62.0954   33.6651   45.4275 H   0  0  0  0  0  0  0  0  0  0  0  0
   56.6680   32.3361   43.5116 H   0  0  0  0  0  0  0  0  0  0  0  0
   56.1716   29.9103   43.7732 H   0  0  0  0  0  0  0  0  0  0  0  0
   57.1836   25.0320   44.7572 H   0  0  0  0  0  0  0  0  0  0  0  0
   57.3760   23.2421   44.8644 H   0  0  0  0  0  0  0  0  0  0  0  0
   55.8230   26.7250   45.1780 H   0  0  0  0  0  0  0  0  0  0  0  0
  1  2  2  0
  2  3  1  0
  3  4  1  0
  4  5  2  0
  4  6  1  0
  6  7  2  0
  6  8  1  0
  8  9  1  0
  9 10  2  0
 10 11  1  0
 11 12  2  0
 12 13  1  0
 13 14  2  0
 13 15  1  0
 15 16  1  0
 16 17  2  0
 17 18  1  0
 18 19  2  0
 19 20  1  0
 20 21  2  0
 12 22  1  0
 22 23  2  0
  2 24  1  0
 24 25  1  0
 25 26  2  0
 26 27  1  0
 26 28  1  0
 28 29  1  0
 29 30  2  0
 29 31  1  0
 31 32  1  0
 32 33  2  0
 23  9  1  0
 32 25  1  0
 21 16  1  0
  3 34  1  0
  3 35  1  0
 10 36  1  0
 11 37  1  0
 17 38  1  0
 18 39  1  0
 19 40  1  0
 20 41  1  0
 21 42  1  0
 22 43  1  0
 23 44  1  0
 24 45  1  0
 24 46  1  0
 27 47  1  0
M  CHG  4   8  -1  15  -1  28  -1  31  -1
M  END
>  <UniqueID>  (55) 
51

>  <SMILES>  (55) 
O=C(CC(=O)C(=O)[N-]c1ccc(C(=O)[N-]c2ccccc2)cc1)Cc1c(O)[n-]c(=O)[n-]c1=O

>  <Energy>  (55) 
54.93670966692527

>  <Genealogy>  (55) 
O=C(CC(=O)C(=O)[N-]c1ccc(C(=O)[N-]c2ccccc2)cc1)Cc1c(O)[n-]c(=O)[n-]c1=O (protonated)
O=C(CC(=O)C(=O)[N-]c1ccc(C(=O)[N-]c2ccccc2)cc1)Cc1c(O)[n-]c(=O)[n-]c1=O (3D coordinates assigned)
O=C(CC(=O)C(=O)[N-]c1ccc(C(=O)[N-]c2ccccc2)cc1)Cc1c(O)[n-]c(=O)[n-]c1=O (optimized conformer: 54.93670966692527 kcal/mol)

>  <smiles>  (55) 
O=C(CC(=O)C(=O)Nc1ccc(C(=O)Nc2ccccc2)cc1)Cc1c(O)[nH]c(=O)[nH]c1=O

>  <score_type>  (55) 
oracle

>  <origin>  (55) 
adg

>  <m_score__min__energy>  (55) 
-17.010000000000002

>  <m_primary>  (55) 
energy

$$$$
55:0
     RDKit          3D

 53 56  0  0  1  0  0  0  0  0999 V2000
   55.2080   24.1940   45.1520 C   0  0  0  0  0  0  0  0  0  0  0  0
   55.2770   25.3750   45.9490 O   0  0  0  0  0  0  0  0  0  0  0  0
   56.5360   25.9730   46.0100 C   0  0  0  0  0  0  0  0  0  0  0  0
   57.0480   26.7210   44.9720 C   0  0  0  0  0  0  0  0  0  0  0  0
   58.3090   27.2970   45.0810 C   0  0  0  0  0  0  0  0  0  0  0  0
   59.0730   27.1330   46.2230 C   0  0  0  0  0  0  0  0  0  0  0  0
   60.4030   27.7450   46.3320 C   0  0  0  0  0  0  0  0  0  0  0  0
   60.4760   28.4720   47.5850 N   0  0  0  0  0  0  0  0  0  0  0  0
   60.3970   29.7520   47.6420 C   0  0  0  0  0  0  0  0  0  0  0  0
   61.2720   30.4920   48.4500 C   0  0  0  0  0  0  0  0  0  0  0  0
   61.2200   31.8580   48.5360 C   0  0  0  0  0  0  0  0  0  0  0  0
   62.0150   32.7110   49.3750 C   0  0  0  0  0  0  0  0  0  0  0  0
   63.3760   32.8650   49.0740 C   0  0  0  0  0  0  0  0  0  0  0  0
   64.2040   33.6010   49.8290 N   0  0  0  0  0  0  0  0  0  0  0  0
   63.7650   34.2330   50.9180 C   0  0  0  0  0  0  0  0  0  0  0  0
   64.5950   34.9260   51.6070 N   0  0  0  0  0  0  0  0  0  0  0  0
   62.4740   34.1080   51.2340 N   0  0  0  0  0  0  0  0  0  0  0  0
   61.5910   33.3710   50.5030 C   0  0  0  0  0  0  0  0  0  0  0  0
   60.2230   33.2940   51.0320 C   0  0  0  0  0  0  0  0  0  0  0  0
   60.2500   32.4470   47.7740 N   0  0  0  0  0  0  0  0  0  0  0  0
   59.4150   31.7150   47.0000 C   0  0  0  0  0  0  0  0  0  0  0  0
   58.5090   32.3090   46.2910 N   0  0  0  0  0  0  0  0  0  0  0  0
   57.8800   31.6640   45.1890 C   0  0  0  0  0  0  0  0  0  0  0  0
   58.0690   32.2510   43.9400 C   0  0  0  0  0  0  0  0  0  0  0  0
   57.4790   31.6580   42.8510 C   0  0  0  0  0  0  0  0  0  0  0  0
   57.6730   32.3420   41.2420 Cl  0  0  0  0  0  0  0  0  0  0  0  0
   56.7250   30.5130   43.0340 C   0  0  0  0  0  0  0  0  0  0  0  0
   56.5450   29.9390   44.2840 C   0  0  0  0  0  0  0  0  0  0  0  0
   57.1410   30.5510   45.3290 N   0  0  0  0  0  0  0  0  0  0  0  0
   59.4620   30.3790   46.9120 N   0  0  0  0  0  0  0  0  0  0  0  0
   58.5530   26.3830   47.2590 C   0  0  0  0  0  0  0  0  0  0  0  0
   57.3020   25.8090   47.1550 C   0  0  0  0  0  0  0  0  0  0  0  0
   55.1565   23.3120   45.8072 H   0  0  0  0  0  0  0  0  0  0  0  0
   54.3105   24.2320   44.5171 H   0  0  0  0  0  0  0  0  0  0  0  0
   56.1038   24.1273   44.5171 H   0  0  0  0  0  0  0  0  0  0  0  0
   56.4576   26.8628   44.0548 H   0  0  0  0  0  0  0  0  0  0  0  0
   58.7056   27.8928   44.2457 H   0  0  0  0  0  0  0  0  0  0  0  0
   61.1745   26.9611   46.3128 H   0  0  0  0  0  0  0  0  0  0  0  0
   60.5715   28.4311   45.4888 H   0  0  0  0  0  0  0  0  0  0  0  0
   62.0302   29.9542   49.0381 H   0  0  0  0  0  0  0  0  0  0  0  0
   63.7802   32.3620   48.1831 H   0  0  0  0  0  0  0  0  0  0  0  0
   64.4780   35.9800   51.5790 H   0  0  0  0  0  0  0  0  0  0  0  0
   62.1590   34.6210   52.1040 H   0  0  0  0  0  0  0  0  0  0  0  0
   60.2544   33.2958   52.1316 H   0  0  0  0  0  0  0  0  0  0  0  0
   59.6445   34.1610   50.6803 H   0  0  0  0  0  0  0  0  0  0  0  0
   59.7455   32.3676   50.6803 H   0  0  0  0  0  0  0  0  0  0  0  0
   60.1050   33.4700   47.7330 H   0  0  0  0  0  0  0  0  0  0  0  0
   58.6735   33.1633   43.8292 H   0  0  0  0  0  0  0  0  0  0  0  0
   56.2525   30.0420   42.1595 H   0  0  0  0  0  0  0  0  0  0  0  0
   55.9443   29.0272   44.4174 H   0  0  0  0  0  0  0  0  0  0  0  0
   58.8030   29.8660   46.3060 H   0  0  0  0  0  0  0  0  0  0  0  0
   59.1420   26.2414   48.1772 H   0  0  0  0  0  0  0  0  0  0  0  0
   56.9071   25.2135   47.9913 H   0  0  0  0  0  0  0  0  0  0  0  0
  1  2  1  0
  2  3  1  0
  3  4  2  0
  4  5  1  0
  5  6  2  0
  6  7  1  0
  7  8  1  0
  8  9  2  0
  9 10  1  0
 10 11  2  0
 11 12  1  0
 12 13  1  0
 13 14  2  0
 14 15  1  0
 15 16  2  3
 15 17  1  0
 17 18  1  0
 18 19  1  0
 11 20  1  0
 20 21  1  0
 21 22  2  0
 22 23  1  0
 23 24  2  0
 24 25  1  0
 25 26  1  0
 25 27  2  0
 27 28  1  0
 28 29  2  0
 21 30  1  0
  6 31  1  0
 31 32  2  0
 32  3  1  0
 30  9  1  0
 18 12  2  0
 29 23  1  0
  1 33  1  0
  1 34  1  0
  1 35  1  0
  4 36  1  0
  5 37  1  0
  7 38  1  0
  7 39  1  0
 10 40  1  0
 13 41  1  0
 16 42  1  0
 17 43  1  0
 19 44  1  0
 19 45  1  0
 19 46  1  0
 20 47  1  0
 24 48  1  0
 27 49  1  0
 28 50  1  0
 30 51  1  0
 31 52  1  0
 32 53  1  0
M  END
>  <smiles>  (56) 
COc1ccc(CN=c2cc(-c3cnc(=N)[nH]c3C)[nH]c(=Nc3cc(Cl)ccn3)[nH]2)cc1

>  <score_type>  (56) 
oracle

>  <origin>  (56) 
adg

>  <m_score__min__energy>  (56) 
-9.4399999999999995

>  <m_primary>  (56) 
energy

$$$$
56:0
     RDKit          3D

 55 58  0  0  0  0  0  0  0  0999 V2000
   56.0510   21.1560   43.4430 O   0  0  0  0  0  0  0  0  0  0  0  0
   56.5160   22.0900   44.1460 C   0  0  0  0  0  0  0  0  0  0  0  0
   55.6400   23.0770   44.6880 N   0  0  0  0  0  0  0  0  0  0  0  0
   56.1380   24.1550   45.4830 C   0  0  0  0  0  0  0  0  0  0  0  0
   55.3100   24.9100   46.0570 O   0  0  0  0  0  0  0  0  0  0  0  0
   57.6080   24.3250   45.6710 C   0  0  0  0  0  0  0  0  0  0  0  0
   58.1680   25.3910   46.2870 C   0  0  0  0  0  0  0  0  0  0  0  0
   57.9470   26.8040   45.9220 C   0  0  0  0  0  0  0  0  0  0  0  0
   58.9800   27.7480   46.0420 C   0  0  0  0  0  0  0  0  0  0  0  0
   58.7430   29.0930   45.7450 C   0  0  0  0  0  0  0  0  0  0  0  0
   57.4620   29.5170   45.3430 C   0  0  0  0  0  0  0  0  0  0  0  0
   57.1790   30.8550   45.0330 O   0  0  0  0  0  0  0  0  0  0  0  0
   57.2770   31.4210   43.7280 C   0  0  0  0  0  0  0  0  0  0  0  0
   57.8090   32.8510   43.8250 C   0  0  0  0  0  0  0  0  0  0  0  0
   58.5330   33.0510   45.0990 N   0  0  0  0  0  0  0  0  0  0  0  0
   59.6430   34.0140   44.9510 C   0  0  0  0  0  0  0  0  0  0  0  0
   60.5490   33.9180   46.1830 C   0  0  0  0  0  0  0  0  0  0  0  0
   59.7500   33.7020   47.3990 N   0  0  0  0  0  0  0  0  0  0  0  0
   60.3090   32.9900   48.5210 C   0  0  0  0  0  0  0  0  0  0  0  0
   59.5850   32.1830   49.1660 O   0  0  0  0  0  0  0  0  0  0  0  0
   61.7210   33.1660   48.9240 C   0  0  0  0  0  0  0  0  0  0  0  0
   62.0510   33.8860   50.0860 C   0  0  0  0  0  0  0  0  0  0  0  0
   63.3880   34.0390   50.4640 C   0  0  0  0  0  0  0  0  0  0  0  0
   64.4050   33.4680   49.6940 C   0  0  0  0  0  0  0  0  0  0  0  0
   64.0850   32.7360   48.5480 C   0  0  0  0  0  0  0  0  0  0  0  0
   62.7500   32.5800   48.1660 C   0  0  0  0  0  0  0  0  0  0  0  0
   58.3330   34.0860   47.3910 C   0  0  0  0  0  0  0  0  0  0  0  0
   57.6050   33.4780   46.1730 C   0  0  0  0  0  0  0  0  0  0  0  0
   56.4270   28.5760   45.2540 C   0  0  0  0  0  0  0  0  0  0  0  0
   55.1520   28.9780   44.8710 O   0  0  0  0  0  0  0  0  0  0  0  0
   56.6660   27.2300   45.5520 C   0  0  0  0  0  0  0  0  0  0  0  0
   58.4770   23.2270   45.1690 C   0  0  0  0  0  0  0  0  0  0  0  0
   59.7190   23.2330   45.3870 O   0  0  0  0  0  0  0  0  0  0  0  0
   57.9150   22.1540   44.4110 N   0  0  0  0  0  0  0  0  0  0  0  0
   58.8445   25.1880   47.1303 H   0  0  0  0  0  0  0  0  0  0  0  0
   59.9795   27.4275   46.3710 H   0  0  0  0  0  0  0  0  0  0  0  0
   59.5612   29.8238   45.8257 H   0  0  0  0  0  0  0  0  0  0  0  0
   57.9637   30.8160   43.1177 H   0  0  0  0  0  0  0  0  0  0  0  0
   56.2812   31.4338   43.2608 H   0  0  0  0  0  0  0  0  0  0  0  0
   58.4948   33.0394   42.9859 H   0  0  0  0  0  0  0  0  0  0  0  0
   56.9598   33.5491   43.7860 H   0  0  0  0  0  0  0  0  0  0  0  0
   60.2220   33.7744   44.0469 H   0  0  0  0  0  0  0  0  0  0  0  0
   59.2424   35.0345   44.8609 H   0  0  0  0  0  0  0  0  0  0  0  0
   61.2458   33.0766   46.0544 H   0  0  0  0  0  0  0  0  0  0  0  0
   61.1055   34.8611   46.2877 H   0  0  0  0  0  0  0  0  0  0  0  0
   61.2538   34.3306   50.6999 H   0  0  0  0  0  0  0  0  0  0  0  0
   63.6403   34.6102   51.3696 H   0  0  0  0  0  0  0  0  0  0  0  0
   65.4568   33.5949   49.9901 H   0  0  0  0  0  0  0  0  0  0  0  0
   64.8853   32.2817   47.9454 H   0  0  0  0  0  0  0  0  0  0  0  0
   62.5028   31.9956   47.2675 H   0  0  0  0  0  0  0  0  0  0  0  0
   57.8563   33.7233   48.3136 H   0  0  0  0  0  0  0  0  0  0  0  0
   58.2660   35.1822   47.3296 H   0  0  0  0  0  0  0  0  0  0  0  0
   57.0306   32.6021   46.5090 H   0  0  0  0  0  0  0  0  0  0  0  0
   56.9537   34.2595   45.7544 H   0  0  0  0  0  0  0  0  0  0  0  0
   55.8428   26.5026   45.4952 H   0  0  0  0  0  0  0  0  0  0  0  0
  1  2  2  0
  2  3  1  0
  3  4  1  0
  4  5  2  0
  4  6  1  0
  6  7  2  3
  7  8  1  0
  8  9  2  0
  9 10  1  0
 10 11  2  0
 11 12  1  0
 12 13  1  0
 13 14  1  0
 14 15  1  0
 15 16  1  0
 16 17  1  0
 17 18  1  0
 18 19  1  0
 19 20  2  0
 19 21  1  0
 21 22  2  0
 22 23  1  0
 23 24  2  0
 24 25  1  0
 25 26  2  0
 18 27  1  0
 27 28  1  0
 11 29  1  0
 29 30  1  0
 29 31  2  0
  6 32  1  0
 32 33  2  0
 32 34  1  0
 34  2  1  0
 31  8  1  0
 28 15  1  0
 26 21  1  0
  7 35  1  0
  9 36  1  0
 10 37  1  0
 13 38  1  0
 13 39  1  0
 14 40  1  0
 14 41  1  0
 16 42  1  0
 16 43  1  0
 17 44  1  0
 17 45  1  0
 22 46  1  0
 23 47  1  0
 24 48  1  0
 25 49  1  0
 26 50  1  0
 27 51  1  0
 27 52  1  0
 28 53  1  0
 28 54  1  0
 31 55  1  0
M  CHG  3   3  -1  30  -1  34  -1
M  END
>  <UniqueID>  (57) 
52

>  <SMILES>  (57) 
O=C1[N-]C(=O)C(=Cc2ccc(OCCN3CCN(C(=O)c4ccccc4)CC3)c([O-])c2)C(=O)[N-]1

>  <Energy>  (57) 
76.6706103575863

>  <Genealogy>  (57) 
O=C1[N-]C(=O)C(=Cc2ccc(OCCN3CCN(C(=O)c4ccccc4)CC3)c([O-])c2)C(=O)[N-]1 (protonated)
O=C1[N-]C(=O)C(=Cc2ccc(OCCN3CCN(C(=O)c4ccccc4)CC3)c([O-])c2)C(=O)[N-]1 (3D coordinates assigned)
O=C1[N-]C(=O)C(=Cc2ccc(OCCN3CCN(C(=O)c4ccccc4)CC3)c([O-])c2)C(=O)[N-]1 (nonaromatic ring conformer: 76.6706103575863 kcal/mol)

>  <smiles>  (57) 
O=C1NC(=O)C(=Cc2ccc(OCCN3CCN(C(=O)c4ccccc4)CC3)c(O)c2)C(=O)N1

>  <score_type>  (57) 
oracle

>  <origin>  (57) 
adg

>  <m_score__min__energy>  (57) 
-16.870000000000001

>  <m_primary>  (57) 
energy

$$$$
57:0
     RDKit          3D

 30 31  0  0  0  0  0  0  0  0999 V2000
   54.3730   30.0010   44.1270 H   0  0  0  0  0  0  0  0  0  0  0  0
   55.1500   29.3290   44.3210 N   0  0  0  0  0  0  0  0  0  0  0  0
   56.2570   29.7150   44.8700 C   0  0  0  0  0  0  0  0  0  0  0  0
   56.6020   31.0290   44.8600 N   0  0  0  0  0  0  0  0  0  0  0  0
   57.7530   31.4830   45.4250 C   0  0  0  0  0  0  0  0  0  0  0  0
   58.0540   32.9530   45.3680 C   0  0  0  0  0  0  0  0  0  0  0  0
   58.1354   33.3505   46.3904 H   0  0  0  0  0  0  0  0  0  0  0  0
   59.0034   33.1125   44.8359 H   0  0  0  0  0  0  0  0  0  0  0  0
   57.2437   33.4728   44.8359 H   0  0  0  0  0  0  0  0  0  0  0  0
   58.6320   30.5710   46.0470 C   0  0  0  0  0  0  0  0  0  0  0  0
   59.8610   31.0370   46.6530 C   0  0  0  0  0  0  0  0  0  0  0  0
   60.8840   31.4240   47.1570 C   0  0  0  0  0  0  0  0  0  0  0  0
   62.1060   31.8860   47.7590 C   0  0  0  0  0  0  0  0  0  0  0  0
   62.5670   31.3190   48.9520 C   0  0  0  0  0  0  0  0  0  0  0  0
   61.9943   30.5136   49.4351 H   0  0  0  0  0  0  0  0  0  0  0  0
   63.7230   31.7630   49.5150 N   0  0  0  0  0  0  0  0  0  0  0  0
   64.4630   32.7550   48.9510 C   0  0  0  0  0  0  0  0  0  0  0  0
   65.5570   33.1400   49.5290 N   0  0  0  0  0  0  0  0  0  0  0  0
   66.4870   33.0960   49.0520 H   0  0  0  0  0  0  0  0  0  0  0  0
   64.0330   33.3470   47.7530 C   0  0  0  0  0  0  0  0  0  0  0  0
   64.6233   34.1500   47.2874 H   0  0  0  0  0  0  0  0  0  0  0  0
   62.8490   32.9070   47.1580 C   0  0  0  0  0  0  0  0  0  0  0  0
   62.5015   33.3623   46.2189 H   0  0  0  0  0  0  0  0  0  0  0  0
   58.2960   29.2000   46.0700 C   0  0  0  0  0  0  0  0  0  0  0  0
   59.2010   28.1870   46.7210 C   0  0  0  0  0  0  0  0  0  0  0  0
   59.1227   28.2747   47.8147 H   0  0  0  0  0  0  0  0  0  0  0  0
   58.9008   27.1749   46.4118 H   0  0  0  0  0  0  0  0  0  0  0  0
   60.2404   28.3717   46.4118 H   0  0  0  0  0  0  0  0  0  0  0  0
   57.0980   28.7790   45.4760 C   0  0  0  0  0  0  0  0  0  0  0  0
   56.8211   27.7145   45.4872 H   0  0  0  0  0  0  0  0  0  0  0  0
  1  2  1  0
  2  3  2  0
  3  4  1  0
  4  5  1  0
  5  6  1  0
  6  7  1  0
  6  8  1  0
  6  9  1  0
  5 10  2  0
 10 11  1  0
 11 12  3  0
 12 13  1  0
 13 14  2  0
 14 15  1  0
 14 16  1  0
 16 17  1  0
 17 18  2  0
 18 19  1  0
 17 20  1  0
 20 21  1  0
 20 22  2  0
 22 23  1  0
 10 24  1  0
 24 25  1  0
 25 26  1  0
 25 27  1  0
 25 28  1  0
 24 29  2  0
 29 30  1  0
 29  3  1  0
 22 13  1  0
M  CHG  2   4  -1  16  -1
M  END
>  <UniqueID>  (58) 
53

>  <SMILES>  (58) 
[H]/N=c1/cc(C)c(C#Cc2cc/c(=N\[H])[n-]c2)c(C)[n-]1

>  <Energy>  (58) 
28.308610575444092

>  <Genealogy>  (58) 
Cc1cc(=N)[n-]c(C)c1C#Cc1ccc(=N)[n-]c1 (protonated)
[H]/N=c1/cc(C)c(C#Cc2cc/c(=N\[H])[n-]c2)c(C)[n-]1 (cis-trans isomerization)
[H]/N=c1/cc(C)c(C#Cc2cc/c(=N\[H])[n-]c2)c(C)[n-]1 (3D coordinates assigned)
[H]/N=c1/cc(C)c(C#Cc2cc/c(=N\[H])[n-]c2)c(C)[n-]1 (optimized conformer: 28.308610575444092 kcal/mol)

>  <smiles>  (58) 
Cc1cc(=N)[nH]c(C)c1C#Cc1ccc(=N)[nH]c1

>  <score_type>  (58) 
oracle

>  <origin>  (58) 
adg

>  <m_score__min__energy>  (58) 
-8.8300000000000001

>  <m_primary>  (58) 
energy

$$$$
58:0
     RDKit          3D

 63 66  0  0  0  0  0  0  0  0999 V2000
   57.8840   31.8370   43.0410 C   0  0  0  0  0  0  0  0  0  0  0  0
   57.3450   31.3520   44.3920 C   0  0  1  0  0  0  0  0  0  0  0  0
   56.0870   30.4980   44.2220 C   0  0  0  0  0  0  0  0  0  0  0  0
   56.5650   29.0510   44.2540 C   0  0  0  0  0  0  0  0  0  0  0  0
   57.9050   29.0710   44.9990 C   0  0  1  0  0  0  0  0  0  0  0  0
   58.9510   28.2060   44.2840 C   0  0  0  0  0  0  0  0  0  0  0  0
   58.3170   30.4730   45.0370 N   0  0  0  0  0  0  0  0  0  0  0  0
   59.4520   30.9410   45.8020 C   0  0  0  0  0  0  0  0  0  0  0  0
   60.4540   30.1940   45.9670 O   0  0  0  0  0  0  0  0  0  0  0  0
   59.4930   32.3000   46.3620 C   0  0  0  0  0  0  0  0  0  0  0  0
   58.9010   33.3610   45.6650 C   0  0  0  0  0  0  0  0  0  0  0  0
   58.9030   34.6480   46.2110 C   0  0  0  0  0  0  0  0  0  0  0  0
   59.5010   34.8820   47.4540 C   0  0  0  0  0  0  0  0  0  0  0  0
   60.1250   33.8310   48.1470 C   0  0  0  0  0  0  0  0  0  0  0  0
   60.7640   34.0710   49.4890 C   0  0  0  0  0  0  0  0  0  0  0  0
   59.9300   33.4740   50.5920 C   0  0  0  0  0  0  0  0  0  0  0  0
   59.0070   34.1590   51.1060 O   0  0  0  0  0  0  0  0  0  0  0  0
   60.1230   32.1250   51.0370 N   0  0  0  0  0  0  0  0  0  0  0  0
   59.9490   30.9400   50.2440 C   0  0  0  0  0  0  0  0  0  0  0  0
   58.6680   30.4770   49.9070 C   0  0  0  0  0  0  0  0  0  0  0  0
   58.5140   29.3470   49.0990 C   0  0  0  0  0  0  0  0  0  0  0  0
   59.6380   28.6640   48.6020 C   0  0  0  0  0  0  0  0  0  0  0  0
   59.4690   27.4690   47.7340 C   0  0  0  0  0  0  0  0  0  0  0  0
   60.5820   26.8740   47.1080 C   0  0  0  0  0  0  0  0  0  0  0  0
   60.4150   25.7690   46.2700 C   0  0  0  0  0  0  0  0  0  0  0  0
   59.1400   25.2450   46.0420 C   0  0  0  0  0  0  0  0  0  0  0  0
   58.0220   25.8230   46.6550 C   0  0  0  0  0  0  0  0  0  0  0  0
   56.4200   25.1500   46.3600 S   0  0  0  0  0  0  0  0  0  0  0  0
   55.2550   26.4260   46.2860 N   0  0  0  0  0  0  0  0  0  0  0  0
   56.0650   24.2030   47.4730 O   0  0  0  0  0  0  0  0  0  0  0  0
   56.4070   24.3940   45.0590 O   0  0  0  0  0  0  0  0  0  0  0  0
   58.1890   26.9270   47.5030 C   0  0  0  0  0  0  0  0  0  0  0  0
   60.9200   29.1420   48.9270 C   0  0  0  0  0  0  0  0  0  0  0  0
   61.0750   30.2780   49.7330 C   0  0  0  0  0  0  0  0  0  0  0  0
   62.6970   30.8430   50.1090 Cl  0  0  0  0  0  0  0  0  0  0  0  0
   60.1310   32.5440   47.5880 C   0  0  0  0  0  0  0  0  0  0  0  0
   58.6922   32.5642   43.2084 H   0  0  0  0  0  0  0  0  0  0  0  0
   58.2740   30.9797   42.4727 H   0  0  0  0  0  0  0  0  0  0  0  0
   57.0725   32.3150   42.4727 H   0  0  0  0  0  0  0  0  0  0  0  0
   57.1362   32.2564   44.9823 H   0  0  0  0  0  0  0  0  0  0  0  0
   55.5994   30.7199   43.2613 H   0  0  0  0  0  0  0  0  0  0  0  0
   55.3488   30.6998   45.0121 H   0  0  0  0  0  0  0  0  0  0  0  0
   56.7009   28.6696   43.2312 H   0  0  0  0  0  0  0  0  0  0  0  0
   55.8353   28.3941   44.7501 H   0  0  0  0  0  0  0  0  0  0  0  0
   57.8068   28.6530   46.0117 H   0  0  0  0  0  0  0  0  0  0  0  0
   59.5735   27.6912   45.0307 H   0  0  0  0  0  0  0  0  0  0  0  0
   58.4424   27.4611   43.6543 H   0  0  0  0  0  0  0  0  0  0  0  0
   59.5871   28.8454   43.6543 H   0  0  0  0  0  0  0  0  0  0  0  0
   58.4334   33.1812   44.6857 H   0  0  0  0  0  0  0  0  0  0  0  0
   58.4337   35.4780   45.6625 H   0  0  0  0  0  0  0  0  0  0  0  0
   59.4826   35.8917   47.8900 H   0  0  0  0  0  0  0  0  0  0  0  0
   61.7622   33.6090   49.5011 H   0  0  0  0  0  0  0  0  0  0  0  0
   60.8425   35.1558   49.6536 H   0  0  0  0  0  0  0  0  0  0  0  0
   57.7794   31.0067   50.2811 H   0  0  0  0  0  0  0  0  0  0  0  0
   57.5043   28.9888   48.8497 H   0  0  0  0  0  0  0  0  0  0  0  0
   61.5889   27.2821   47.2802 H   0  0  0  0  0  0  0  0  0  0  0  0
   61.2905   25.3097   45.7878 H   0  0  0  0  0  0  0  0  0  0  0  0
   59.0144   24.3761   45.3792 H   0  0  0  0  0  0  0  0  0  0  0  0
   55.3900   27.0120   47.1420 H   0  0  0  0  0  0  0  0  0  0  0  0
   54.3120   25.9850   46.3690 H   0  0  0  0  0  0  0  0  0  0  0  0
   57.3118   27.3746   47.9930 H   0  0  0  0  0  0  0  0  0  0  0  0
   61.8094   28.6194   48.5450 H   0  0  0  0  0  0  0  0  0  0  0  0
   60.6386   31.7217   48.1136 H   0  0  0  0  0  0  0  0  0  0  0  0
  1  2  1  0
  2  3  1  0
  3  4  1  0
  4  5  1  0
  5  6  1  0
  5  7  1  0
  7  8  1  0
  8  9  2  0
  8 10  1  0
 10 11  2  0
 11 12  1  0
 12 13  2  0
 13 14  1  0
 14 15  1  0
 15 16  1  0
 16 17  2  0
 16 18  1  0
 18 19  1  0
 19 20  2  0
 20 21  1  0
 21 22  2  0
 22 23  1  0
 23 24  2  0
 24 25  1  0
 25 26  2  0
 26 27  1  0
 27 28  1  0
 28 29  1  0
 28 30  2  0
 28 31  2  0
 27 32  2  0
 22 33  1  0
 33 34  2  0
 34 35  1  0
 14 36  2  0
  7  2  1  0
 36 10  1  0
 34 19  1  0
 32 23  1  0
  1 37  1  0
  1 38  1  0
  1 39  1  0
  2 40  1  1
  3 41  1  0
  3 42  1  0
  4 43  1  0
  4 44  1  0
  5 45  1  1
  6 46  1  0
  6 47  1  0
  6 48  1  0
 11 49  1  0
 12 50  1  0
 13 51  1  0
 15 52  1  0
 15 53  1  0
 20 54  1  0
 21 55  1  0
 24 56  1  0
 25 57  1  0
 26 58  1  0
 29 59  1  0
 29 60  1  0
 32 61  1  0
 33 62  1  0
 36 63  1  0
M  CHG  1  18  -1
M  END
>  <UniqueID>  (59) 
54

>  <SMILES>  (59) 
C[C@@H]1CC[C@H](C)N1C(=O)c1cccc(CC(=O)[N-]c2ccc(-c3cccc(S(N)(=O)=O)c3)cc2Cl)c1

>  <Energy>  (59) 
77.35932604937202

>  <Genealogy>  (59) 
CC1CCC(C)N1C(=O)c1cccc(CC(=O)[N-]c2ccc(-c3cccc(S(N)(=O)=O)c3)cc2Cl)c1 (protonated)
C[C@@H]1CC[C@H](C)N1C(=O)c1cccc(CC(=O)[N-]c2ccc(-c3cccc(S(N)(=O)=O)c3)cc2Cl)c1 (chirality)
C[C@@H]1CC[C@H](C)N1C(=O)c1cccc(CC(=O)[N-]c2ccc(-c3cccc(S(N)(=O)=O)c3)cc2Cl)c1 (3D coordinates assigned)
C[C@@H]1CC[C@H](C)N1C(=O)c1cccc(CC(=O)[N-]c2ccc(-c3cccc(S(N)(=O)=O)c3)cc2Cl)c1 (nonaromatic ring conformer: 77.35932604937202 kcal/mol)

>  <smiles>  (59) 
CC1CCC(C)N1C(=O)c1cccc(CC(=O)Nc2ccc(-c3cccc(S(N)(=O)=O)c3)cc2Cl)c1

>  <score_type>  (59) 
oracle

>  <origin>  (59) 
adg

>  <m_score__min__energy>  (59) 
-11.94

>  <m_primary>  (59) 
energy

$$$$
59:0
     RDKit          3D

 58 62  0  0  0  0  0  0  0  0999 V2000
   63.0819   32.3990   47.7509 H   0  0  0  0  0  0  0  0  0  0  0  0
   62.3440   31.6660   47.3930 C   0  0  0  0  0  0  0  0  0  0  0  0
   62.2057   31.5070   46.3134 H   0  0  0  0  0  0  0  0  0  0  0  0
   61.6170   30.9700   48.2680 C   0  0  0  0  0  0  0  0  0  0  0  0
   61.7813   31.1543   49.3399 H   0  0  0  0  0  0  0  0  0  0  0  0
   60.6000   29.9620   47.8810 C   0  0  0  0  0  0  0  0  0  0  0  0
   59.5080   29.6310   48.7100 C   0  0  0  0  0  0  0  0  0  0  0  0
   59.3947   30.1242   49.6867 H   0  0  0  0  0  0  0  0  0  0  0  0
   58.5680   28.6800   48.2990 C   0  0  0  0  0  0  0  0  0  0  0  0
   57.7186   28.4324   48.9526 H   0  0  0  0  0  0  0  0  0  0  0  0
   58.7030   28.0400   47.0570 C   0  0  0  0  0  0  0  0  0  0  0  0
   57.6860   27.0280   46.5960 C   0  0  0  0  0  0  0  0  0  0  0  0
   58.1576   26.0355   46.5459 H   0  0  0  0  0  0  0  0  0  0  0  0
   56.8485   27.0097   47.3090 H   0  0  0  0  0  0  0  0  0  0  0  0
   57.1800   27.3890   45.2750 N   0  0  0  0  0  0  0  0  0  0  0  0
   56.8030   28.5870   44.9390 C   0  0  0  0  0  0  0  0  0  0  0  0
   55.5070   28.9640   44.8410 N   0  0  0  0  0  0  0  0  0  0  0  0
   55.5800   30.2610   44.4950 C   0  0  0  0  0  0  0  0  0  0  0  0
   54.7210   30.9257   44.3209 H   0  0  0  0  0  0  0  0  0  0  0  0
   56.9050   30.6220   44.3940 C   0  0  0  0  0  0  0  0  0  0  0  0
   57.4230   31.9970   44.1130 C   0  0  0  0  0  0  0  0  0  0  0  0
   58.1828   31.9459   43.3192 H   0  0  0  0  0  0  0  0  0  0  0  0
   56.5910   32.6394   43.7887 H   0  0  0  0  0  0  0  0  0  0  0  0
   58.0370   32.5710   45.3530 C   0  0  0  0  0  0  0  0  0  0  0  0
   57.8020   32.1140   46.6470 C   0  0  0  0  0  0  0  0  0  0  0  0
   57.1028   31.3260   46.9636 H   0  0  0  0  0  0  0  0  0  0  0  0
   58.6370   32.8650   47.4430 C   0  0  0  0  0  0  0  0  0  0  0  0
   58.8460   32.8300   48.8200 C   0  0  0  0  0  0  0  0  0  0  0  0
   58.2771   32.1424   49.4631 H   0  0  0  0  0  0  0  0  0  0  0  0
   59.8100   33.7040   49.3630 C   0  0  0  0  0  0  0  0  0  0  0  0
   60.1690   33.6720   51.0860 S   0  0  0  0  0  0  0  0  0  0  0  0
   61.5840   34.1330   51.2920 O   0  0  0  0  0  0  0  0  0  0  0  0
   59.2440   34.5820   51.8450 O   0  0  0  0  0  0  0  0  0  0  0  0
   59.9960   32.0540   51.6880 N   0  0  0  0  0  0  0  0  0  0  0  0
   60.8750   31.5010   51.8100 H   0  0  0  0  0  0  0  0  0  0  0  0
   58.7280   31.4120   51.9160 C   0  0  0  0  0  0  0  0  0  0  0  0
   58.6270   30.0290   52.1690 C   0  0  0  0  0  0  0  0  0  0  0  0
   59.5336   29.4061   52.1762 H   0  0  0  0  0  0  0  0  0  0  0  0
   57.3790   29.4450   52.4110 C   0  0  0  0  0  0  0  0  0  0  0  0
   57.3079   28.3657   52.6112 H   0  0  0  0  0  0  0  0  0  0  0  0
   56.2230   30.2290   52.3990 C   0  0  0  0  0  0  0  0  0  0  0  0
   55.2451   29.7686   52.6032 H   0  0  0  0  0  0  0  0  0  0  0  0
   56.3070   31.5970   52.1280 C   0  0  0  0  0  0  0  0  0  0  0  0
   55.3943   32.2106   52.1058 H   0  0  0  0  0  0  0  0  0  0  0  0
   57.5520   32.1860   51.8850 C   0  0  0  0  0  0  0  0  0  0  0  0
   57.6131   33.2626   51.6679 H   0  0  0  0  0  0  0  0  0  0  0  0
   60.5230   34.5860   48.5170 C   0  0  0  0  0  0  0  0  0  0  0  0
   61.2700   35.2690   48.9477 H   0  0  0  0  0  0  0  0  0  0  0  0
   60.2860   34.5980   47.1310 C   0  0  0  0  0  0  0  0  0  0  0  0
   60.8363   35.2803   46.4665 H   0  0  0  0  0  0  0  0  0  0  0  0
   59.3310   33.7170   46.6270 C   0  0  0  0  0  0  0  0  0  0  0  0
   58.9740   33.5470   45.3430 N   0  0  0  0  0  0  0  0  0  0  0  0
   59.3590   34.0460   44.5090 H   0  0  0  0  0  0  0  0  0  0  0  0
   57.6900   29.5680   44.6800 N   0  0  0  0  0  0  0  0  0  0  0  0
   59.7800   28.3780   46.2250 C   0  0  0  0  0  0  0  0  0  0  0  0
   59.8889   27.8885   45.2459 H   0  0  0  0  0  0  0  0  0  0  0  0
   60.7160   29.3330   46.6320 C   0  0  0  0  0  0  0  0  0  0  0  0
   61.5520   29.5941   45.9665 H   0  0  0  0  0  0  0  0  0  0  0  0
  1  2  1  0
  2  3  1  0
  2  4  2  0
  4  5  1  0
  4  6  1  0
  6  7  2  0
  7  8  1  0
  7  9  1  0
  9 10  1  0
  9 11  2  0
 11 12  1  0
 12 13  1  0
 12 14  1  0
 12 15  1  0
 15 16  2  0
 16 17  1  0
 17 18  1  0
 18 19  1  0
 18 20  2  0
 20 21  1  0
 21 22  1  0
 21 23  1  0
 21 24  1  0
 24 25  2  0
 25 26  1  0
 25 27  1  0
 27 28  2  0
 28 29  1  0
 28 30  1  0
 30 31  1  0
 31 32  2  0
 31 33  2  0
 31 34  1  0
 34 35  1  0
 34 36  1  0
 36 37  2  0
 37 38  1  0
 37 39  1  0
 39 40  1  0
 39 41  2  0
 41 42  1  0
 41 43  1  0
 43 44  1  0
 43 45  2  0
 45 46  1  0
 30 47  2  0
 47 48  1  0
 47 49  1  0
 49 50  1  0
 49 51  2  0
 51 52  1  0
 52 53  1  0
 20 54  1  0
 11 55  1  0
 55 56  1  0
 55 57  2  0
 57 58  1  0
 57  6  1  0
 54 16  1  0
 52 24  1  0
 51 27  1  0
 45 36  1  0
M  CHG  2  17  -1  54  -1
M  END
>  <UniqueID>  (60) 
55

>  <SMILES>  (60) 
C=Cc1ccc(C/N=c2\[n-]cc(Cc3cc4cc(S(=O)(=O)Nc5ccccc5)ccc4[nH]3)[n-]2)cc1

>  <Energy>  (60) 
124.6844526840295

>  <Genealogy>  (60) 
C=Cc1ccc(CN=c2[n-]cc(Cc3cc4cc(S(=O)(=O)Nc5ccccc5)ccc4[nH]3)[n-]2)cc1 (protonated)
C=Cc1ccc(C/N=c2\[n-]cc(Cc3cc4cc(S(=O)(=O)Nc5ccccc5)ccc4[nH]3)[n-]2)cc1 (cis-trans isomerization)
C=Cc1ccc(C/N=c2\[n-]cc(Cc3cc4cc(S(=O)(=O)Nc5ccccc5)ccc4[nH]3)[n-]2)cc1 (3D coordinates assigned)
C=Cc1ccc(C/N=c2\[n-]cc(Cc3cc4cc(S(=O)(=O)Nc5ccccc5)ccc4[nH]3)[n-]2)cc1 (optimized conformer: 124.6844526840295 kcal/mol)

>  <smiles>  (60) 
C=Cc1ccc(CN=c2[nH]cc(Cc3cc4cc(S(=O)(=O)Nc5ccccc5)ccc4[nH]3)[nH]2)cc1

>  <score_type>  (60) 
oracle

>  <origin>  (60) 
adg

>  <m_score__min__energy>  (60) 
-13.77

>  <m_primary>  (60) 
energy

$$$$
60:0
     RDKit          3D

 81 84  0  0  0  0  0  0  0  0999 V2000
   54.4510   30.8770   52.0150 C   0  0  0  0  0  0  0  0  0  0  0  0
   55.6740   30.0260   52.3560 C   0  0  0  0  0  0  0  0  0  0  0  0
   56.5890   30.6890   53.3980 C   0  0  0  0  0  0  0  0  0  0  0  0
   57.7550   31.3170   52.7590 N   0  0  0  0  0  0  0  0  0  0  0  0
   57.5910   32.5770   52.0130 C   0  0  0  0  0  0  0  0  0  0  0  0
   58.2720   33.7480   52.7320 C   0  0  0  0  0  0  0  0  0  0  0  0
   59.7420   33.8900   52.3420 C   0  0  0  0  0  0  0  0  0  0  0  0
   59.0680   30.7600   52.9720 C   0  0  0  0  0  0  0  0  0  0  0  0
   59.3860   30.3470   54.1210 O   0  0  0  0  0  0  0  0  0  0  0  0
   60.0490   30.6480   51.8690 C   0  0  0  0  0  0  0  0  0  0  0  0
   61.4260   30.6360   52.1370 C   0  0  0  0  0  0  0  0  0  0  0  0
   62.3640   30.5530   51.0920 C   0  0  0  0  0  0  0  0  0  0  0  0
   63.8130   30.5760   51.3930 C   0  0  0  0  0  0  0  0  0  0  0  0
   64.3600   29.5960   51.9680 O   0  0  0  0  0  0  0  0  0  0  0  0
   64.6000   31.7020   50.9990 N   0  0  0  0  0  0  0  0  0  0  0  0
   64.3410   32.4970   49.8090 C   0  0  0  0  0  0  0  0  0  0  0  0
   63.4990   33.7250   50.1680 C   0  0  0  0  0  0  0  0  0  0  0  0
   62.6470   34.1420   49.0290 N   0  0  0  0  0  0  0  0  0  0  0  0
   61.2210   33.9550   49.3510 C   0  0  0  0  0  0  0  0  0  0  0  0
   60.3500   34.5110   48.2020 C   0  0  0  0  0  0  0  0  0  0  0  0
   61.0490   34.6260   46.9740 O   0  0  0  0  0  0  0  0  0  0  0  0
   61.8420   33.4800   46.7540 C   0  0  0  0  0  0  0  0  0  0  0  0
   62.9910   33.4190   47.7800 C   0  0  0  0  0  0  0  0  0  0  0  0
   61.9050   30.5050   49.7630 C   0  0  0  0  0  0  0  0  0  0  0  0
   60.5330   30.5760   49.4800 C   0  0  0  0  0  0  0  0  0  0  0  0
   60.0550   30.6510   48.0810 C   0  0  0  0  0  0  0  0  0  0  0  0
   60.3230   29.7210   47.2770 O   0  0  0  0  0  0  0  0  0  0  0  0
   59.2660   31.7600   47.6280 N   0  0  0  0  0  0  0  0  0  0  0  0
   58.6680   31.8210   46.3240 C   0  0  0  0  0  0  0  0  0  0  0  0
   58.8080   32.9650   45.5230 C   0  0  0  0  0  0  0  0  0  0  0  0
   58.1590   33.0430   44.2910 C   0  0  0  0  0  0  0  0  0  0  0  0
   57.3510   31.9900   43.8570 C   0  0  0  0  0  0  0  0  0  0  0  0
   57.1990   30.8370   44.6480 C   0  0  0  0  0  0  0  0  0  0  0  0
   56.2680   29.7620   44.2310 C   0  0  0  0  0  0  0  0  0  0  0  0
   55.8340   29.7170   43.0470 O   0  0  0  0  0  0  0  0  0  0  0  0
   55.8360   28.7760   45.1770 N   0  0  0  0  0  0  0  0  0  0  0  0
   56.5000   27.7380   45.6070 C   0  0  0  0  0  0  0  0  0  0  0  0
   57.8610   27.8190   45.6240 N   0  0  0  0  0  0  0  0  0  0  0  0
   58.6500   26.7920   46.0320 C   0  0  0  0  0  0  0  0  0  0  0  0
   58.0760   25.5950   46.4520 C   0  0  0  0  0  0  0  0  0  0  0  0
   56.6890   25.4640   46.4410 C   0  0  0  0  0  0  0  0  0  0  0  0
   55.8840   26.5250   46.0150 C   0  0  0  0  0  0  0  0  0  0  0  0
   54.5070   26.3370   45.9830 O   0  0  0  0  0  0  0  0  0  0  0  0
   57.8850   30.7530   45.8740 C   0  0  0  0  0  0  0  0  0  0  0  0
   59.6120   30.6270   50.5390 C   0  0  0  0  0  0  0  0  0  0  0  0
   53.9677   31.2133   52.9441 H   0  0  0  0  0  0  0  0  0  0  0  0
   54.7656   31.7523   51.4277 H   0  0  0  0  0  0  0  0  0  0  0  0
   53.7396   30.2778   51.4277 H   0  0  0  0  0  0  0  0  0  0  0  0
   55.3301   29.0600   52.7542 H   0  0  0  0  0  0  0  0  0  0  0  0
   56.2590   29.9018   51.4328 H   0  0  0  0  0  0  0  0  0  0  0  0
   56.0184   31.4585   53.9387 H   0  0  0  0  0  0  0  0  0  0  0  0
   56.9472   29.9133   54.0908 H   0  0  0  0  0  0  0  0  0  0  0  0
   58.0378   32.4620   51.0144 H   0  0  0  0  0  0  0  0  0  0  0  0
   56.5157   32.7963   51.9377 H   0  0  0  0  0  0  0  0  0  0  0  0
   57.7452   34.6779   52.4715 H   0  0  0  0  0  0  0  0  0  0  0  0
   58.2276   33.5514   53.8134 H   0  0  0  0  0  0  0  0  0  0  0  0
   60.3584   33.9495   53.2511 H   0  0  0  0  0  0  0  0  0  0  0  0
   60.0494   33.0174   51.7470 H   0  0  0  0  0  0  0  0  0  0  0  0
   59.8767   34.8053   51.7470 H   0  0  0  0  0  0  0  0  0  0  0  0
   61.7768   30.6922   53.1780 H   0  0  0  0  0  0  0  0  0  0  0  0
   65.2973   32.8258   49.3761 H   0  0  0  0  0  0  0  0  0  0  0  0
   63.7905   31.8842   49.0800 H   0  0  0  0  0  0  0  0  0  0  0  0
   62.8561   33.4808   51.0265 H   0  0  0  0  0  0  0  0  0  0  0  0
   64.1790   34.5533   50.4161 H   0  0  0  0  0  0  0  0  0  0  0  0
   61.0132   32.8827   49.4813 H   0  0  0  0  0  0  0  0  0  0  0  0
   60.9840   34.4930   50.2807 H   0  0  0  0  0  0  0  0  0  0  0  0
   59.4940   33.8361   48.0547 H   0  0  0  0  0  0  0  0  0  0  0  0
   60.0339   35.5236   48.4932 H   0  0  0  0  0  0  0  0  0  0  0  0
   61.2165   32.5809   46.8559 H   0  0  0  0  0  0  0  0  0  0  0  0
   62.2689   33.5295   45.7414 H   0  0  0  0  0  0  0  0  0  0  0  0
   63.1976   32.3661   48.0224 H   0  0  0  0  0  0  0  0  0  0  0  0
   63.8746   33.9007   47.3359 H   0  0  0  0  0  0  0  0  0  0  0  0
   62.6279   30.4110   48.9392 H   0  0  0  0  0  0  0  0  0  0  0  0
   59.4317   33.8028   45.8681 H   0  0  0  0  0  0  0  0  0  0  0  0
   58.2838   33.9354   43.6601 H   0  0  0  0  0  0  0  0  0  0  0  0
   56.8303   32.0627   42.8908 H   0  0  0  0  0  0  0  0  0  0  0  0
   59.7441   26.9058   46.0307 H   0  0  0  0  0  0  0  0  0  0  0  0
   58.7106   24.7620   46.7888 H   0  0  0  0  0  0  0  0  0  0  0  0
   56.2252   24.5220   46.7688 H   0  0  0  0  0  0  0  0  0  0  0  0
   57.8047   29.8405   46.4830 H   0  0  0  0  0  0  0  0  0  0  0  0
   58.5341   30.6507   50.3209 H   0  0  0  0  0  0  0  0  0  0  0  0
  1  2  1  0
  2  3  1  0
  3  4  1  0
  4  5  1  0
  5  6  1  0
  6  7  1  0
  4  8  1  0
  8  9  2  0
  8 10  1  0
 10 11  2  0
 11 12  1  0
 12 13  1  0
 13 14  2  0
 13 15  1  0
 15 16  1  0
 16 17  1  0
 17 18  1  0
 18 19  1  0
 19 20  1  0
 20 21  1  0
 21 22  1  0
 22 23  1  0
 12 24  2  0
 24 25  1  0
 25 26  1  0
 26 27  2  0
 26 28  1  0
 28 29  1  0
 29 30  2  0
 30 31  1  0
 31 32  2  0
 32 33  1  0
 33 34  1  0
 34 35  2  0
 34 36  1  0
 36 37  2  3
 37 38  1  0
 38 39  1  0
 39 40  2  0
 40 41  1  0
 41 42  2  0
 42 43  1  0
 33 44  2  0
 25 45  2  0
 45 10  1  0
 23 18  1  0
 44 29  1  0
 42 37  1  0
  1 46  1  0
  1 47  1  0
  1 48  1  0
  2 49  1  0
  2 50  1  0
  3 51  1  0
  3 52  1  0
  5 53  1  0
  5 54  1  0
  6 55  1  0
  6 56  1  0
  7 57  1  0
  7 58  1  0
  7 59  1  0
 11 60  1  0
 16 61  1  0
 16 62  1  0
 17 63  1  0
 17 64  1  0
 19 65  1  0
 19 66  1  0
 20 67  1  0
 20 68  1  0
 22 69  1  0
 22 70  1  0
 23 71  1  0
 23 72  1  0
 24 73  1  0
 30 74  1  0
 31 75  1  0
 32 76  1  0
 39 77  1  0
 40 78  1  0
 41 79  1  0
 44 80  1  0
 45 81  1  0
M  CHG  4  15  -1  28  -1  38  -1  43  -1
M  END
>  <UniqueID>  (61) 
56

>  <SMILES>  (61) 
CCCN(CCC)C(=O)c1cc(C(=O)[N-]CCN2CCOCC2)cc(C(=O)[N-]c2cccc(C(=O)N=c3[n-]cccc3[O-])c2)c1

>  <Energy>  (61) 
105.0911356501616

>  <Genealogy>  (61) 
CCCN(CCC)C(=O)c1cc(C(=O)[N-]CCN2CCOCC2)cc(C(=O)[N-]c2cccc(C(=O)N=c3[n-]cccc3[O-])c2)c1 (protonated)
CCCN(CCC)C(=O)c1cc(C(=O)[N-]CCN2CCOCC2)cc(C(=O)[N-]c2cccc(C(=O)N=c3[n-]cccc3[O-])c2)c1 (3D coordinates assigned)
CCCN(CCC)C(=O)c1cc(C(=O)[N-]CCN2CCOCC2)cc(C(=O)[N-]c2cccc(C(=O)N=c3[n-]cccc3[O-])c2)c1 (nonaromatic ring conformer: 105.0911356501616 kcal/mol)

>  <smiles>  (61) 
CCCN(CCC)C(=O)c1cc(C(=O)NCCN2CCOCC2)cc(C(=O)Nc2cccc(C(=O)N=c3[nH]cccc3O)c2)c1

>  <score_type>  (61) 
oracle

>  <origin>  (61) 
adg

>  <m_score__min__energy>  (61) 
-19.829999999999998

>  <m_primary>  (61) 
energy

$$$$
61:0
     RDKit          3D

 59 63  0  0  0  0  0  0  0  0999 V2000
   60.8390   32.2910   49.0350 C   0  0  0  0  0  0  0  0  0  0  0  0
   59.4430   32.0160   48.4400 C   0  0  0  0  0  0  0  0  0  0  0  0
   58.9070   30.6500   48.9450 C   0  0  0  0  0  0  0  0  0  0  0  0
   58.5630   33.0230   48.8880 O   0  0  0  0  0  0  0  0  0  0  0  0
   59.4990   32.1540   46.8820 C   0  0  2  0  0  0  0  0  0  0  0  0
   58.1450   32.1530   46.2290 C   0  0  0  0  0  0  0  0  0  0  0  0
   57.0990   32.8450   46.3360 O   0  0  0  0  0  0  0  0  0  0  0  0
   58.5310   30.9480   45.4590 N   0  0  0  0  0  0  0  0  0  0  0  0
   57.9500   29.6850   45.2500 C   0  0  0  0  0  0  0  0  0  0  0  0
   56.6660   29.5200   44.5420 C   0  0  0  0  0  0  0  0  0  0  0  0
   56.6420   29.5410   43.2820 O   0  0  0  0  0  0  0  0  0  0  0  0
   55.4840   29.2930   45.2350 O   0  0  0  0  0  0  0  0  0  0  0  0
   58.7210   28.7240   45.7690 C   0  0  0  0  0  0  0  0  0  0  0  0
   58.3720   27.2930   45.8540 C   0  0  0  0  0  0  0  0  0  0  0  0
   59.3450   26.3630   46.2260 C   0  0  0  0  0  0  0  0  0  0  0  0
   59.0200   25.0130   46.3440 C   0  0  0  0  0  0  0  0  0  0  0  0
   57.7050   24.5630   46.1220 C   0  0  0  0  0  0  0  0  0  0  0  0
   57.4420   23.0740   46.1730 C   0  0  0  0  0  0  0  0  0  0  0  0
   56.7390   22.7040   47.4400 C   0  0  0  0  0  0  0  0  0  0  0  0
   57.3790   22.4750   48.6070 N   0  0  0  0  0  0  0  0  0  0  0  0
   56.5220   22.1570   49.6180 C   0  0  0  0  0  0  0  0  0  0  0  0
   57.0200   21.8710   50.9920 C   0  0  0  0  0  0  0  0  0  0  0  0
   56.3380   20.9980   51.8620 C   0  0  0  0  0  0  0  0  0  0  0  0
   56.8230   20.7540   53.1520 C   0  0  0  0  0  0  0  0  0  0  0  0
   57.9950   21.3800   53.5970 C   0  0  0  0  0  0  0  0  0  0  0  0
   58.4870   21.1330   54.9180 N   0  0  0  0  0  0  0  0  0  0  0  0
   58.6790   22.2500   52.7400 C   0  0  0  0  0  0  0  0  0  0  0  0
   58.1980   22.4950   51.4510 C   0  0  0  0  0  0  0  0  0  0  0  0
   55.1740   22.1310   49.2410 C   0  0  0  0  0  0  0  0  0  0  0  0
   55.0780   22.5240   47.6090 S   0  0  0  0  0  0  0  0  0  0  0  0
   56.7020   25.5120   45.7770 C   0  0  0  0  0  0  0  0  0  0  0  0
   55.2910   25.1410   45.5260 C   0  0  0  0  0  0  0  0  0  0  0  0
   54.2230   25.9630   45.9950 N   0  0  0  0  0  0  0  0  0  0  0  0
   55.0250   24.1170   44.8420 O   0  0  0  0  0  0  0  0  0  0  0  0
   57.0540   26.8660   45.6460 C   0  0  0  0  0  0  0  0  0  0  0  0
   60.2340   29.3520   46.5660 S   0  0  0  0  0  0  0  0  0  0  0  0
   59.8560   31.0560   45.9900 C   0  0  2  0  0  0  0  0  0  0  0  0
   60.7783   32.2790   50.1333 H   0  0  0  0  0  0  0  0  0  0  0  0
   61.5408   31.5138   48.6981 H   0  0  0  0  0  0  0  0  0  0  0  0
   61.1936   33.2763   48.6981 H   0  0  0  0  0  0  0  0  0  0  0  0
   58.9036   30.6414   50.0450 H   0  0  0  0  0  0  0  0  0  0  0  0
   57.8826   30.4982   48.5740 H   0  0  0  0  0  0  0  0  0  0  0  0
   59.5548   29.8421   48.5740 H   0  0  0  0  0  0  0  0  0  0  0  0
   57.6990   32.9280   48.4050 H   0  0  0  0  0  0  0  0  0  0  0  0
   60.1969   33.0028   46.9327 H   0  0  0  0  0  0  0  0  0  0  0  0
   60.3734   26.6978   46.4269 H   0  0  0  0  0  0  0  0  0  0  0  0
   59.8024   24.2887   46.6145 H   0  0  0  0  0  0  0  0  0  0  0  0
   56.8148   22.7886   45.3156 H   0  0  0  0  0  0  0  0  0  0  0  0
   58.4049   22.5435   46.1352 H   0  0  0  0  0  0  0  0  0  0  0  0
   55.4154   20.5033   51.5243 H   0  0  0  0  0  0  0  0  0  0  0  0
   56.2816   20.0676   53.8197 H   0  0  0  0  0  0  0  0  0  0  0  0
   57.9230   21.4010   55.7550 H   0  0  0  0  0  0  0  0  0  0  0  0
   59.4140   20.6760   55.0660 H   0  0  0  0  0  0  0  0  0  0  0  0
   59.6002   22.7436   53.0830 H   0  0  0  0  0  0  0  0  0  0  0  0
   58.7441   23.1818   50.7876 H   0  0  0  0  0  0  0  0  0  0  0  0
   54.3246   21.8944   49.8987 H   0  0  0  0  0  0  0  0  0  0  0  0
   53.4890   26.3130   45.3400 H   0  0  0  0  0  0  0  0  0  0  0  0
   56.2826   27.6022   45.3759 H   0  0  0  0  0  0  0  0  0  0  0  0
   60.7867   31.2972   45.4556 H   0  0  0  0  0  0  0  0  0  0  0  0
  1  2  1  0
  2  3  1  0
  2  4  1  0
  2  5  1  0
  5  6  1  0
  6  7  2  0
  6  8  1  0
  8  9  1  0
  9 10  1  0
 10 11  2  0
 10 12  1  0
  9 13  2  0
 13 14  1  0
 14 15  2  0
 15 16  1  0
 16 17  2  0
 17 18  1  0
 18 19  1  0
 19 20  2  0
 20 21  1  0
 21 22  1  0
 22 23  2  0
 23 24  1  0
 24 25  2  0
 25 26  1  0
 25 27  1  0
 27 28  2  0
 21 29  2  0
 29 30  1  0
 17 31  1  0
 31 32  1  0
 32 33  1  0
 32 34  2  0
 31 35  2  0
 13 36  1  0
 36 37  1  0
 37  5  1  0
 37  8  1  0
 35 14  1  0
 30 19  1  0
 28 22  1  0
  1 38  1  0
  1 39  1  0
  1 40  1  0
  3 41  1  0
  3 42  1  0
  3 43  1  0
  4 44  1  0
  5 45  1  1
 15 46  1  0
 16 47  1  0
 18 48  1  0
 18 49  1  0
 23 50  1  0
 24 51  1  0
 26 52  1  0
 26 53  1  0
 27 54  1  0
 28 55  1  0
 29 56  1  0
 33 57  1  0
 35 58  1  0
 37 59  1  6
M  CHG  2  12  -1  33  -1
M  END
>  <UniqueID>  (62) 
57

>  <SMILES>  (62) 
CC(C)(O)[C@@H]1C(=O)N2C(C(=O)[O-])=C(c3ccc(Cc4nc(-c5ccc(N)cc5)cs4)c(C([NH-])=O)c3)S[C@H]12

>  <Energy>  (62) 
178.29246498841732

>  <Genealogy>  (62) 
CC(C)(O)C1C(=O)N2C(C(=O)[O-])=C(c3ccc(Cc4nc(-c5ccc(N)cc5)cs4)c(C([NH-])=O)c3)SC12 (protonated)
CC(C)(O)[C@@H]1C(=O)N2C(C(=O)[O-])=C(c3ccc(Cc4nc(-c5ccc(N)cc5)cs4)c(C([NH-])=O)c3)S[C@H]12 (chirality)
CC(C)(O)[C@@H]1C(=O)N2C(C(=O)[O-])=C(c3ccc(Cc4nc(-c5ccc(N)cc5)cs4)c(C([NH-])=O)c3)S[C@H]12 (3D coordinates assigned)
CC(C)(O)[C@@H]1C(=O)N2C(C(=O)[O-])=C(c3ccc(Cc4nc(-c5ccc(N)cc5)cs4)c(C([NH-])=O)c3)S[C@H]12 (nonaromatic ring conformer: 178.29246498841732 kcal/mol)

>  <smiles>  (62) 
CC(C)(O)C1C(=O)N2C(C(=O)O)=C(c3ccc(Cc4nc(-c5ccc(N)cc5)cs4)c(C(N)=O)c3)SC12

>  <score_type>  (62) 
oracle

>  <origin>  (62) 
adg

>  <m_score__min__energy>  (62) 
-13.26

>  <m_primary>  (62) 
energy

$$$$
62:0
     RDKit          3D

 37 39  0  0  0  0  0  0  0  0999 V2000
   60.3380   29.3310   44.8720 C   0  0  0  0  0  0  0  0  0  0  0  0
   58.8130   29.3860   45.0860 C   0  0  2  0  0  0  0  0  0  0  0  0
   58.1950   28.0500   45.4930 C   0  0  0  0  0  0  0  0  0  0  0  0
   58.9540   26.9330   45.9030 C   0  0  0  0  0  0  0  0  0  0  0  0
   58.3180   25.7600   46.3160 C   0  0  0  0  0  0  0  0  0  0  0  0
   56.9260   25.6860   46.3440 C   0  0  0  0  0  0  0  0  0  0  0  0
   56.1560   26.7860   45.9570 C   0  0  0  0  0  0  0  0  0  0  0  0
   54.7700   26.6950   46.0090 O   0  0  0  0  0  0  0  0  0  0  0  0
   56.7870   27.9690   45.5240 C   0  0  0  0  0  0  0  0  0  0  0  0
   55.9950   29.1830   45.1170 C   0  0  0  0  0  0  0  0  0  0  0  0
   56.5590   29.7680   43.8160 C   0  0  0  0  0  0  0  0  0  0  0  0
   58.1080   29.9450   43.8110 C   0  0  1  0  0  0  0  0  0  0  0  0
   58.4450   31.3650   43.6190 N   0  0  0  0  0  0  0  0  0  0  0  0
   58.3740   32.3670   44.6530 C   0  0  0  0  0  0  0  0  0  0  0  0
   57.7980   32.1050   45.9140 C   0  0  0  0  0  0  0  0  0  0  0  0
   57.7500   33.1040   46.8910 C   0  0  0  0  0  0  0  0  0  0  0  0
   58.2710   34.3720   46.6250 C   0  0  0  0  0  0  0  0  0  0  0  0
   58.8440   34.6430   45.3810 C   0  0  0  0  0  0  0  0  0  0  0  0
   58.8960   33.6480   44.4010 C   0  0  0  0  0  0  0  0  0  0  0  0
   60.8448   29.3127   45.8481 H   0  0  0  0  0  0  0  0  0  0  0  0
   60.5965   28.4229   44.3076 H   0  0  0  0  0  0  0  0  0  0  0  0
   60.6613   30.2181   44.3076 H   0  0  0  0  0  0  0  0  0  0  0  0
   58.6489   30.0660   45.9349 H   0  0  0  0  0  0  0  0  0  0  0  0
   60.0527   26.9865   45.8973 H   0  0  0  0  0  0  0  0  0  0  0  0
   58.9184   24.8902   46.6207 H   0  0  0  0  0  0  0  0  0  0  0  0
   56.4325   24.7591   46.6717 H   0  0  0  0  0  0  0  0  0  0  0  0
   54.9443   28.8968   44.9619 H   0  0  0  0  0  0  0  0  0  0  0  0
   56.0630   29.9405   45.9117 H   0  0  0  0  0  0  0  0  0  0  0  0
   56.2864   29.0956   42.9892 H   0  0  0  0  0  0  0  0  0  0  0  0
   56.1265   30.7738   43.7092 H   0  0  0  0  0  0  0  0  0  0  0  0
   58.4888   29.3450   42.9713 H   0  0  0  0  0  0  0  0  0  0  0  0
   58.7520   31.6760   42.6690 H   0  0  0  0  0  0  0  0  0  0  0  0
   57.3842   31.1089   46.1298 H   0  0  0  0  0  0  0  0  0  0  0  0
   57.3005   32.8905   47.8720 H   0  0  0  0  0  0  0  0  0  0  0  0
   58.2300   35.1566   47.3949 H   0  0  0  0  0  0  0  0  0  0  0  0
   59.2553   35.6415   45.1719 H   0  0  0  0  0  0  0  0  0  0  0  0
   59.3495   33.8690   43.4235 H   0  0  0  0  0  0  0  0  0  0  0  0
  1  2  1  0
  2  3  1  0
  3  4  2  0
  4  5  1  0
  5  6  2  0
  6  7  1  0
  7  8  1  0
  7  9  2  0
  9 10  1  0
 10 11  1  0
 11 12  1  0
 12 13  1  0
 13 14  1  0
 14 15  2  0
 15 16  1  0
 16 17  2  0
 17 18  1  0
 18 19  2  0
 12  2  1  0
 19 14  1  0
  9  3  1  0
  1 20  1  0
  1 21  1  0
  1 22  1  0
  2 23  1  1
  4 24  1  0
  5 25  1  0
  6 26  1  0
 10 27  1  0
 10 28  1  0
 11 29  1  0
 11 30  1  0
 12 31  1  6
 13 32  1  0
 15 33  1  0
 16 34  1  0
 17 35  1  0
 18 36  1  0
 19 37  1  0
M  CHG  1   8  -1
M  END
>  <UniqueID>  (63) 
58

>  <SMILES>  (63) 
C[C@@H]1c2cccc([O-])c2CC[C@H]1Nc1ccccc1

>  <Energy>  (63) 
47.83787224700657

>  <Genealogy>  (63) 
CC1c2cccc([O-])c2CCC1Nc1ccccc1 (protonated)
C[C@@H]1c2cccc([O-])c2CC[C@H]1Nc1ccccc1 (chirality)
C[C@@H]1c2cccc([O-])c2CC[C@H]1Nc1ccccc1 (3D coordinates assigned)
C[C@@H]1c2cccc([O-])c2CC[C@H]1Nc1ccccc1 (nonaromatic ring conformer: 47.83787224700657 kcal/mol)

>  <smiles>  (63) 
CC1c2cccc(O)c2CCC1Nc1ccccc1

>  <score_type>  (63) 
oracle

>  <origin>  (63) 
adg

>  <m_score__min__energy>  (63) 
-11.220000000000001

>  <m_primary>  (63) 
energy

$$$$
63:0
     RDKit          3D

 62 65  0  0  0  0  0  0  0  0999 V2000
   56.2190   22.4800   41.5300 H   0  0  0  0  0  0  0  0  0  0  0  0
   55.9220   21.8520   42.3100 N   0  0  0  0  0  0  0  0  0  0  0  0
   56.5040   21.8610   43.4690 C   0  0  0  0  0  0  0  0  0  0  0  0
   55.7780   22.1740   44.5770 N   0  0  0  0  0  0  0  0  0  0  0  0
   56.3320   22.1980   45.8210 C   0  0  0  0  0  0  0  0  0  0  0  0
   55.4690   22.4990   47.0090 C   0  0  0  0  0  0  0  0  0  0  0  0
   54.4367   22.1834   46.7977 H   0  0  0  0  0  0  0  0  0  0  0  0
   55.8567   21.9537   47.8821 H   0  0  0  0  0  0  0  0  0  0  0  0
   55.4870   23.9290   47.2940 N   0  0  0  0  0  0  0  0  0  0  0  0
   56.6930   24.6950   47.3700 C   0  0  0  0  0  0  0  0  0  0  0  0
   57.7070   24.1990   47.9370 O   0  0  0  0  0  0  0  0  0  0  0  0
   56.7680   26.0580   46.7760 C   0  0  0  0  0  0  0  0  0  0  0  0
   57.9080   26.8520   46.9820 C   0  0  0  0  0  0  0  0  0  0  0  0
   58.7231   26.4813   47.6209 H   0  0  0  0  0  0  0  0  0  0  0  0
   58.0120   28.0750   46.3980 N   0  0  0  0  0  0  0  0  0  0  0  0
   57.0200   28.5680   45.6140 C   0  0  0  0  0  0  0  0  0  0  0  0
   57.1910   29.7070   45.0120 N   0  0  0  0  0  0  0  0  0  0  0  0
   57.9670   30.8080   45.5090 C   0  0  0  0  0  0  0  0  0  0  0  0
   59.2610   30.6210   46.0240 C   0  0  0  0  0  0  0  0  0  0  0  0
   59.6973   29.6117   46.0558 H   0  0  0  0  0  0  0  0  0  0  0  0
   59.9960   31.7120   46.4960 C   0  0  0  0  0  0  0  0  0  0  0  0
   61.0093   31.5571   46.8950 H   0  0  0  0  0  0  0  0  0  0  0  0
   59.4490   33.0040   46.4640 C   0  0  0  0  0  0  0  0  0  0  0  0
   60.2050   34.1730   47.0400 C   0  0  0  0  0  0  0  0  0  0  0  0
   60.5041   34.8498   46.2261 H   0  0  0  0  0  0  0  0  0  0  0  0
   59.5568   34.7067   47.7507 H   0  0  0  0  0  0  0  0  0  0  0  0
   61.4110   33.6970   47.7480 N   0  0  0  0  0  0  0  0  0  0  0  0
   61.5780   34.3860   49.0460 C   0  0  0  0  0  0  0  0  0  0  0  0
   61.3161   35.4465   48.9169 H   0  0  0  0  0  0  0  0  0  0  0  0
   60.9188   33.8876   49.7720 H   0  0  0  0  0  0  0  0  0  0  0  0
   63.0220   34.2970   49.5920 C   0  0  0  0  0  0  0  0  0  0  0  0
   63.5585   35.2163   49.3145 H   0  0  0  0  0  0  0  0  0  0  0  0
   62.9532   34.1737   50.6829 H   0  0  0  0  0  0  0  0  0  0  0  0
   63.7720   33.1360   49.0630 N   0  0  0  0  0  0  0  0  0  0  0  0
   64.7690   33.2780   49.3600 H   0  0  0  0  0  0  0  0  0  0  0  0
   63.3180   31.8860   49.6760 C   0  0  0  0  0  0  0  0  0  0  0  0
   62.3430   31.1710   49.0840 C   0  0  0  0  0  0  0  0  0  0  0  0
   61.9968   30.2311   49.5386 H   0  0  0  0  0  0  0  0  0  0  0  0
   61.8925   31.5267   48.1456 H   0  0  0  0  0  0  0  0  0  0  0  0
   63.9750   31.2760   50.8990 C   0  0  0  0  0  0  0  0  0  0  0  0
   63.5209   31.6976   51.8079 H   0  0  0  0  0  0  0  0  0  0  0  0
   63.8292   30.1858   50.8881 H   0  0  0  0  0  0  0  0  0  0  0  0
   65.0514   31.5021   50.8881 H   0  0  0  0  0  0  0  0  0  0  0  0
   63.8110   33.1120   47.5750 C   0  0  0  0  0  0  0  0  0  0  0  0
   64.7390   33.6008   47.2434 H   0  0  0  0  0  0  0  0  0  0  0  0
   63.7613   32.0569   47.2678 H   0  0  0  0  0  0  0  0  0  0  0  0
   62.6180   33.8320   46.9150 C   0  0  0  0  0  0  0  0  0  0  0  0
   62.8591   34.8987   46.7967 H   0  0  0  0  0  0  0  0  0  0  0  0
   62.4258   33.3762   45.9325 H   0  0  0  0  0  0  0  0  0  0  0  0
   58.1670   33.1910   45.9250 C   0  0  0  0  0  0  0  0  0  0  0  0
   57.7308   34.2002   45.8898 H   0  0  0  0  0  0  0  0  0  0  0  0
   57.4400   32.1020   45.4320 C   0  0  0  0  0  0  0  0  0  0  0  0
   56.4495   32.2638   44.9818 H   0  0  0  0  0  0  0  0  0  0  0  0
   55.8950   27.8300   45.4180 N   0  0  0  0  0  0  0  0  0  0  0  0
   55.7440   26.5980   45.9710 C   0  0  0  0  0  0  0  0  0  0  0  0
   54.6860   25.9550   45.7380 O   0  0  0  0  0  0  0  0  0  0  0  0
   57.6880   21.8720   45.9830 C   0  0  0  0  0  0  0  0  0  0  0  0
   58.1412   21.8657   46.9853 H   0  0  0  0  0  0  0  0  0  0  0  0
   58.4560   21.5560   44.8610 C   0  0  0  0  0  0  0  0  0  0  0  0
   59.5232   21.3146   44.9738 H   0  0  0  0  0  0  0  0  0  0  0  0
   57.8660   21.5470   43.5940 C   0  0  0  0  0  0  0  0  0  0  0  0
   58.4628   21.2965   42.7045 H   0  0  0  0  0  0  0  0  0  0  0  0
  1  2  1  0
  2  3  2  0
  3  4  1  0
  4  5  1  0
  5  6  1  0
  6  7  1  0
  6  8  1  0
  6  9  1  0
  9 10  1  0
 10 11  2  0
 10 12  1  0
 12 13  2  0
 13 14  1  0
 13 15  1  0
 15 16  1  0
 16 17  2  3
 17 18  1  0
 18 19  2  0
 19 20  1  0
 19 21  1  0
 21 22  1  0
 21 23  2  0
 23 24  1  0
 24 25  1  0
 24 26  1  0
 24 27  1  0
 27 28  1  0
 28 29  1  0
 28 30  1  0
 28 31  1  0
 31 32  1  0
 31 33  1  0
 31 34  1  0
 34 35  1  0
 34 36  1  0
 36 37  2  0
 37 38  1  0
 37 39  1  0
 36 40  1  0
 40 41  1  0
 40 42  1  0
 40 43  1  0
 34 44  1  0
 44 45  1  0
 44 46  1  0
 44 47  1  0
 47 48  1  0
 47 49  1  0
 23 50  1  0
 50 51  1  0
 50 52  2  0
 52 53  1  0
 16 54  1  0
 54 55  1  0
 55 56  2  0
  5 57  2  0
 57 58  1  0
 57 59  1  0
 59 60  1  0
 59 61  2  0
 61 62  1  0
 61  3  1  0
 55 12  1  0
 52 18  1  0
 47 27  1  0
M  CHG  5   4  -1   9  -1  15  -1  34   1  54  -1
M  END
>  <UniqueID>  (64) 
59

>  <SMILES>  (64) 
[H]/N=c1\cccc(C[N-]C(=O)c2c[n-]c(=Nc3ccc(CN4CC[NH+](C(=C)C)CC4)cc3)[n-]c2=O)[n-]1

>  <Energy>  (64) 
88.24435348108597

>  <Genealogy>  (64) 
C=C(C)[NH+]1CCN(Cc2ccc(N=c3[n-]cc(C(=O)[N-]Cc4cccc(=N)[n-]4)c(=O)[n-]3)cc2)CC1 (protonated)
[H]/N=c1\cccc(C[N-]C(=O)c2c[n-]c(=Nc3ccc(CN4CC[NH+](C(=C)C)CC4)cc3)[n-]c2=O)[n-]1 (cis-trans isomerization)
[H]/N=c1\cccc(C[N-]C(=O)c2c[n-]c(=Nc3ccc(CN4CC[NH+](C(=C)C)CC4)cc3)[n-]c2=O)[n-]1 (3D coordinates assigned)
[H]/N=c1\cccc(C[N-]C(=O)c2c[n-]c(=Nc3ccc(CN4CC[NH+](C(=C)C)CC4)cc3)[n-]c2=O)[n-]1 (nonaromatic ring conformer: 88.24435348108597 kcal/mol)

>  <smiles>  (64) 
C=C(C)N1CCN(Cc2ccc(N=c3[nH]cc(C(=O)NCc4cccc(=N)[nH]4)c(=O)[nH]3)cc2)CC1

>  <score_type>  (64) 
oracle

>  <origin>  (64) 
adg

>  <m_score__min__energy>  (64) 
-14.1

>  <m_primary>  (64) 
energy

$$$$
64:0
     RDKit          3D

 43 45  0  0  0  0  0  0  0  0999 V2000
   57.4730   29.3470   53.0020 H   0  0  0  0  0  0  0  0  0  0  0  0
   57.3920   29.3100   51.9930 O   0  0  0  0  0  0  0  0  0  0  0  0
   58.0040   30.2620   51.1790 C   0  0  0  0  0  0  0  0  0  0  0  0
   58.5150   29.8790   49.9350 C   0  0  0  0  0  0  0  0  0  0  0  0
   58.4171   28.8361   49.5990 H   0  0  0  0  0  0  0  0  0  0  0  0
   59.1510   30.8200   49.1160 C   0  0  0  0  0  0  0  0  0  0  0  0
   59.5717   30.5078   48.1487 H   0  0  0  0  0  0  0  0  0  0  0  0
   59.2550   32.1640   49.5240 C   0  0  0  0  0  0  0  0  0  0  0  0
   59.9980   33.1470   48.7070 C   0  0  0  0  0  0  0  0  0  0  0  0
   60.9050   33.5882   49.1461 H   0  0  0  0  0  0  0  0  0  0  0  0
   59.6540   33.5430   47.4740 C   0  0  0  0  0  0  0  0  0  0  0  0
   60.8300   34.4020   46.4180 S   0  0  0  0  0  0  0  0  0  0  0  0
   59.6660   34.1920   45.0700 C   0  0  0  0  0  0  0  0  0  0  0  0
   59.9890   34.4050   43.8720 O   0  0  0  0  0  0  0  0  0  0  0  0
   58.3720   33.7170   45.4360 N   0  0  0  0  0  0  0  0  0  0  0  0
   57.3010   33.4150   44.4890 C   0  0  0  0  0  0  0  0  0  0  0  0
   57.4254   34.0350   43.5889 H   0  0  0  0  0  0  0  0  0  0  0  0
   56.3311   33.6313   44.9608 H   0  0  0  0  0  0  0  0  0  0  0  0
   57.3480   31.9660   44.1040 C   0  0  0  0  0  0  0  0  0  0  0  0
   57.5200   31.6600   42.8920 O   0  0  0  0  0  0  0  0  0  0  0  0
   57.2100   30.9480   45.1060 N   0  0  0  0  0  0  0  0  0  0  0  0
   57.0250   31.2440   46.0910 H   0  0  0  0  0  0  0  0  0  0  0  0
   57.3050   29.5390   44.8440 C   0  0  0  0  0  0  0  0  0  0  0  0
   57.5470   29.1240   43.6790 O   0  0  0  0  0  0  0  0  0  0  0  0
   57.0880   28.6040   45.9080 N   0  0  0  0  0  0  0  0  0  0  0  0
   56.6170   28.9470   46.7780 H   0  0  0  0  0  0  0  0  0  0  0  0
   57.3150   27.1930   45.7730 C   0  0  0  0  0  0  0  0  0  0  0  0
   58.6170   26.7320   45.5220 C   0  0  0  0  0  0  0  0  0  0  0  0
   59.4458   27.4508   45.4422 H   0  0  0  0  0  0  0  0  0  0  0  0
   58.8660   25.3650   45.3730 C   0  0  0  0  0  0  0  0  0  0  0  0
   59.8920   25.0110   45.1943 H   0  0  0  0  0  0  0  0  0  0  0  0
   57.8190   24.4490   45.4500 C   0  0  0  0  0  0  0  0  0  0  0  0
   58.0191   23.3736   45.3341 H   0  0  0  0  0  0  0  0  0  0  0  0
   56.5120   24.8980   45.6750 C   0  0  0  0  0  0  0  0  0  0  0  0
   55.6848   24.1749   45.7285 H   0  0  0  0  0  0  0  0  0  0  0  0
   56.2560   26.2650   45.8320 C   0  0  0  0  0  0  0  0  0  0  0  0
   54.9450   26.6960   46.0100 O   0  0  0  0  0  0  0  0  0  0  0  0
   58.3600   33.3480   46.8080 C   0  0  0  0  0  0  0  0  0  0  0  0
   57.3170   32.9410   47.3850 O   0  0  0  0  0  0  0  0  0  0  0  0
   58.7570   32.5400   50.7830 C   0  0  0  0  0  0  0  0  0  0  0  0
   58.8830   33.8550   51.2250 O   0  0  0  0  0  0  0  0  0  0  0  0
   58.1260   31.5930   51.6010 C   0  0  0  0  0  0  0  0  0  0  0  0
   57.7244   31.8958   52.5793 H   0  0  0  0  0  0  0  0  0  0  0  0
  1  2  1  0
  2  3  1  0
  3  4  2  0
  4  5  1  0
  4  6  1  0
  6  7  1  0
  6  8  2  0
  8  9  1  0
  9 10  1  0
  9 11  2  0
 11 12  1  0
 12 13  1  0
 13 14  2  0
 13 15  1  0
 15 16  1  0
 16 17  1  0
 16 18  1  0
 16 19  1  0
 19 20  2  0
 19 21  1  0
 21 22  1  0
 21 23  1  0
 23 24  2  0
 23 25  1  0
 25 26  1  0
 25 27  1  0
 27 28  2  0
 28 29  1  0
 28 30  1  0
 30 31  1  0
 30 32  2  0
 32 33  1  0
 32 34  1  0
 34 35  1  0
 34 36  2  0
 36 37  1  0
 15 38  1  0
 38 39  2  0
  8 40  1  0
 40 41  1  0
 40 42  2  0
 42 43  1  0
 42  3  1  0
 38 11  1  0
 36 27  1  0
M  CHG  2  37  -1  41  -1
M  END
>  <UniqueID>  (65) 
60

>  <SMILES>  (65) 
O=C(CN1C(=O)S/C(=C/c2ccc(O)cc2[O-])C1=O)NC(=O)Nc1ccccc1[O-]

>  <Energy>  (65) 
75.53350611702326

>  <Genealogy>  (65) 
O=C(CN1C(=O)SC(=Cc2ccc(O)cc2[O-])C1=O)NC(=O)Nc1ccccc1[O-] (protonated)
O=C(CN1C(=O)S/C(=C/c2ccc(O)cc2[O-])C1=O)NC(=O)Nc1ccccc1[O-] (cis-trans isomerization)
O=C(CN1C(=O)S/C(=C/c2ccc(O)cc2[O-])C1=O)NC(=O)Nc1ccccc1[O-] (3D coordinates assigned)
O=C(CN1C(=O)S/C(=C/c2ccc(O)cc2[O-])C1=O)NC(=O)Nc1ccccc1[O-] (nonaromatic ring conformer: 75.53350611702326 kcal/mol)

>  <smiles>  (65) 
O=C(CN1C(=O)SC(=Cc2ccc(O)cc2O)C1=O)NC(=O)Nc1ccccc1O

>  <score_type>  (65) 
oracle

>  <origin>  (65) 
adg

>  <m_score__min__energy>  (65) 
-15.68

>  <m_primary>  (65) 
energy

$$$$
65:0
     RDKit          3D

 55 58  0  0  1  0  0  0  0  0999 V2000
   56.8140   30.4420   42.7260 O   0  0  0  0  0  0  0  0  0  0  0  0
   56.6440   30.5530   43.9390 N   0  0  0  0  0  0  0  0  0  0  0  0
   55.5770   29.7760   44.4330 O   0  0  0  0  0  0  0  0  0  0  0  0
   57.4010   31.2150   44.9100 C   0  0  0  0  0  0  0  0  0  0  0  0
   57.0290   32.5560   45.1430 C   0  0  0  0  0  0  0  0  0  0  0  0
   57.6380   33.3230   46.0510 N   0  0  0  0  0  0  0  0  0  0  0  0
   58.6350   32.8250   46.7740 C   0  0  0  0  0  0  0  0  0  0  0  0
   59.2040   33.5510   47.6380 N   0  0  0  0  0  0  0  0  0  0  0  0
   60.4260   34.3090   47.4350 C   0  0  0  0  0  0  0  0  0  0  0  0
   60.9980   34.5300   48.8180 C   0  0  0  0  0  0  0  0  0  0  0  0
   62.3720   33.9710   48.9660 C   0  0  0  0  0  0  0  0  0  0  0  0
   62.5450   32.6930   48.4130 N   0  0  0  0  0  0  0  0  0  0  0  0
   62.5180   31.5500   49.2340 C   0  0  0  0  0  0  0  0  0  0  0  0
   61.1970   30.9330   49.4600 C   0  0  0  0  0  0  0  0  0  0  0  0
   60.8090   29.7110   48.9640 C   0  0  0  0  0  0  0  0  0  0  0  0
   59.5400   29.2300   49.2320 C   0  0  0  0  0  0  0  0  0  0  0  0
   58.6340   29.9410   49.9910 C   0  0  0  0  0  0  0  0  0  0  0  0
   59.0310   31.1630   50.4840 C   0  0  0  0  0  0  0  0  0  0  0  0
   60.2910   31.6530   50.2250 C   0  0  0  0  0  0  0  0  0  0  0  0
   62.0620   32.4380   47.1120 C   0  0  0  0  0  0  0  0  0  0  0  0
   61.3620   33.6180   46.4830 C   0  0  0  0  0  0  0  0  0  0  0  0
   59.0350   31.5610   46.5950 N   0  0  0  0  0  0  0  0  0  0  0  0
   58.4230   30.7520   45.6640 C   0  0  0  0  0  0  0  0  0  0  0  0
   58.9510   29.6490   45.4560 N   0  0  0  0  0  0  0  0  0  0  0  0
   58.5560   28.3870   45.8740 C   0  0  0  0  0  0  0  0  0  0  0  0
   59.4820   27.5440   46.5130 C   0  0  0  0  0  0  0  0  0  0  0  0
   59.0290   26.3090   46.9900 C   0  0  0  0  0  0  0  0  0  0  0  0
   57.7060   25.9240   46.8390 C   0  0  0  0  0  0  0  0  0  0  0  0
   56.7970   26.7450   46.2160 C   0  0  0  0  0  0  0  0  0  0  0  0
   55.4670   26.4250   46.0320 O   0  0  0  0  0  0  0  0  0  0  0  0
   57.2180   27.9840   45.7290 C   0  0  0  0  0  0  0  0  0  0  0  0
   56.2056   32.9863   44.5540 H   0  0  0  0  0  0  0  0  0  0  0  0
   57.3400   34.3180   46.2050 H   0  0  0  0  0  0  0  0  0  0  0  0
   60.2414   35.2776   46.9473 H   0  0  0  0  0  0  0  0  0  0  0  0
   61.0345   35.6115   49.0155 H   0  0  0  0  0  0  0  0  0  0  0  0
   60.3470   34.0084   49.5351 H   0  0  0  0  0  0  0  0  0  0  0  0
   63.0765   34.6567   48.4725 H   0  0  0  0  0  0  0  0  0  0  0  0
   62.5532   33.8706   50.0463 H   0  0  0  0  0  0  0  0  0  0  0  0
   63.1666   30.7912   48.7719 H   0  0  0  0  0  0  0  0  0  0  0  0
   62.8516   31.8946   50.2239 H   0  0  0  0  0  0  0  0  0  0  0  0
   61.5063   29.1168   48.3552 H   0  0  0  0  0  0  0  0  0  0  0  0
   59.2445   28.2507   48.8275 H   0  0  0  0  0  0  0  0  0  0  0  0
   57.6284   29.5448   50.1953 H   0  0  0  0  0  0  0  0  0  0  0  0
   58.3325   31.7558   51.0928 H   0  0  0  0  0  0  0  0  0  0  0  0
   60.5845   32.6321   50.6315 H   0  0  0  0  0  0  0  0  0  0  0  0
   62.9134   32.1587   46.4740 H   0  0  0  0  0  0  0  0  0  0  0  0
   61.3191   31.6312   47.1971 H   0  0  0  0  0  0  0  0  0  0  0  0
   62.1209   34.3405   46.1483 H   0  0  0  0  0  0  0  0  0  0  0  0
   60.7627   33.2403   45.6415 H   0  0  0  0  0  0  0  0  0  0  0  0
   59.8110   31.1910   47.1590 H   0  0  0  0  0  0  0  0  0  0  0  0
   60.5326   27.8466   46.6345 H   0  0  0  0  0  0  0  0  0  0  0  0
   59.7349   25.6321   47.4934 H   0  0  0  0  0  0  0  0  0  0  0  0
   57.3788   24.9467   47.2236 H   0  0  0  0  0  0  0  0  0  0  0  0
   54.7690   27.1440   45.9770 H   0  0  0  0  0  0  0  0  0  0  0  0
   56.4979   28.6484   45.2289 H   0  0  0  0  0  0  0  0  0  0  0  0
  1  2  2  0
  2  3  1  0
  2  4  1  0
  4  5  2  0
  5  6  1  0
  6  7  1  0
  7  8  2  0
  8  9  1  0
  9 10  1  0
 10 11  1  0
 11 12  1  0
 12 13  1  0
 13 14  1  0
 14 15  2  0
 15 16  1  0
 16 17  2  0
 17 18  1  0
 18 19  2  0
 12 20  1  0
 20 21  1  0
  7 22  1  0
 22 23  1  0
 23 24  2  0
 24 25  1  0
 25 26  2  0
 26 27  1  0
 27 28  2  0
 28 29  1  0
 29 30  1  0
 29 31  2  0
 23  4  1  0
 31 25  1  0
 21  9  1  0
 19 14  1  0
  5 32  1  0
  6 33  1  0
  9 34  1  0
 10 35  1  0
 10 36  1  0
 11 37  1  0
 11 38  1  0
 13 39  1  0
 13 40  1  0
 15 41  1  0
 16 42  1  0
 17 43  1  0
 18 44  1  0
 19 45  1  0
 20 46  1  0
 20 47  1  0
 21 48  1  0
 21 49  1  0
 22 50  1  0
 26 51  1  0
 27 52  1  0
 28 53  1  0
 30 54  1  0
 31 55  1  0
M  CHG  2   2   1   3  -1
M  END
>  <smiles>  (66) 
O=[N+]([O-])c1c[nH]c(=NC2CCN(Cc3ccccc3)CC2)[nH]c1=Nc1cccc(O)c1

>  <score_type>  (66) 
oracle

>  <origin>  (66) 
adg

>  <m_score__min__energy>  (66) 
-9.7300000000000004

>  <m_primary>  (66) 
energy

$$$$
66:0
     RDKit          3D

 58 61  0  0  0  0  0  0  0  0999 V2000
   58.2490   31.4860   49.3530 O   0  0  0  0  0  0  0  0  0  0  0  0
   59.0350   31.9960   48.5100 C   0  0  0  0  0  0  0  0  0  0  0  0
   58.6850   33.3060   47.8560 C   0  0  0  0  0  0  0  0  0  0  0  0
   58.4420   33.1280   46.4080 N   0  0  0  0  0  0  0  0  0  0  0  0
   57.7000   32.0520   45.9910 C   0  0  0  0  0  0  0  0  0  0  0  0
   57.5320   31.7690   44.6260 C   0  0  0  0  0  0  0  0  0  0  0  0
   56.9140   30.4950   44.1940 C   0  0  0  0  0  0  0  0  0  0  0  0
   56.7060   30.2730   42.9700 O   0  0  0  0  0  0  0  0  0  0  0  0
   56.5660   29.5020   45.1680 N   0  0  0  0  0  0  0  0  0  0  0  0
   57.1520   28.1960   45.2670 C   0  0  0  0  0  0  0  0  0  0  0  0
   57.0330   27.4230   46.4330 C   0  0  0  0  0  0  0  0  0  0  0  0
   57.5580   26.1280   46.4750 C   0  0  0  0  0  0  0  0  0  0  0  0
   58.2020   25.5830   45.3520 C   0  0  0  0  0  0  0  0  0  0  0  0
   58.7660   24.1770   45.4090 C   0  0  0  0  0  0  0  0  0  0  0  0
   57.7480   23.1130   45.2620 N   0  0  0  0  0  0  0  0  0  0  0  0
   56.3890   23.6110   44.9630 C   0  0  0  0  0  0  0  0  0  0  0  0
   55.4840   22.4460   44.5300 C   0  0  0  0  0  0  0  0  0  0  0  0
   55.9360   21.7660   43.3610 O   0  0  0  0  0  0  0  0  0  0  0  0
   57.3350   21.8820   43.1310 C   0  0  0  0  0  0  0  0  0  0  0  0
   58.1650   21.9690   44.4230 C   0  0  0  0  0  0  0  0  0  0  0  0
   58.3220   26.3610   44.1900 C   0  0  0  0  0  0  0  0  0  0  0  0
   57.7850   27.6510   44.1460 C   0  0  0  0  0  0  0  0  0  0  0  0
   58.0440   32.6750   43.6890 C   0  0  0  0  0  0  0  0  0  0  0  0
   58.7260   33.8090   44.1200 C   0  0  0  0  0  0  0  0  0  0  0  0
   58.9260   34.0240   45.4880 C   0  0  0  0  0  0  0  0  0  0  0  0
   59.5570   35.0500   45.8560 O   0  0  0  0  0  0  0  0  0  0  0  0
   60.2730   31.3500   48.1880 N   0  0  0  0  0  0  0  0  0  0  0  0
   60.4000   30.0480   47.6010 C   0  0  0  0  0  0  0  0  0  0  0  0
   60.1780   28.8730   48.3440 C   0  0  0  0  0  0  0  0  0  0  0  0
   60.2600   27.6240   47.7260 C   0  0  0  0  0  0  0  0  0  0  0  0
   60.5470   27.5330   46.3640 C   0  0  0  0  0  0  0  0  0  0  0  0
   60.7450   28.6970   45.6100 C   0  0  0  0  0  0  0  0  0  0  0  0
   61.0200   28.6210   44.2480 O   0  0  0  0  0  0  0  0  0  0  0  0
   60.6650   29.9500   46.2300 C   0  0  0  0  0  0  0  0  0  0  0  0
   57.7767   33.7112   48.3259 H   0  0  0  0  0  0  0  0  0  0  0  0
   59.5290   33.9992   47.9868 H   0  0  0  0  0  0  0  0  0  0  0  0
   57.2280   31.3989   46.7398 H   0  0  0  0  0  0  0  0  0  0  0  0
   56.5251   27.8376   47.3162 H   0  0  0  0  0  0  0  0  0  0  0  0
   57.4660   25.5313   47.3945 H   0  0  0  0  0  0  0  0  0  0  0  0
   59.5014   24.0663   44.5985 H   0  0  0  0  0  0  0  0  0  0  0  0
   59.2129   24.0539   46.4066 H   0  0  0  0  0  0  0  0  0  0  0  0
   55.9684   24.0837   45.8628 H   0  0  0  0  0  0  0  0  0  0  0  0
   56.4459   24.3460   44.1466 H   0  0  0  0  0  0  0  0  0  0  0  0
   55.4349   21.7205   45.3554 H   0  0  0  0  0  0  0  0  0  0  0  0
   54.5018   22.8780   44.2880 H   0  0  0  0  0  0  0  0  0  0  0  0
   57.6683   21.0016   42.5619 H   0  0  0  0  0  0  0  0  0  0  0  0
   57.4952   22.8206   42.5802 H   0  0  0  0  0  0  0  0  0  0  0  0
   58.0324   21.0393   44.9957 H   0  0  0  0  0  0  0  0  0  0  0  0
   59.2197   22.1124   44.1453 H   0  0  0  0  0  0  0  0  0  0  0  0
   58.8410   25.9538   43.3098 H   0  0  0  0  0  0  0  0  0  0  0  0
   57.8612   28.2422   43.2215 H   0  0  0  0  0  0  0  0  0  0  0  0
   57.9073   32.4905   42.6132 H   0  0  0  0  0  0  0  0  0  0  0  0
   59.1071   34.5349   43.3866 H   0  0  0  0  0  0  0  0  0  0  0  0
   59.9390   28.9394   49.4157 H   0  0  0  0  0  0  0  0  0  0  0  0
   60.0978   26.7090   48.3147 H   0  0  0  0  0  0  0  0  0  0  0  0
   60.6179   26.5469   45.8818 H   0  0  0  0  0  0  0  0  0  0  0  0
   61.8960   28.2430   43.9050 H   0  0  0  0  0  0  0  0  0  0  0  0
   60.8114   30.8638   45.6354 H   0  0  0  0  0  0  0  0  0  0  0  0
  1  2  2  0
  2  3  1  0
  3  4  1  0
  4  5  1  0
  5  6  2  0
  6  7  1  0
  7  8  2  0
  7  9  1  0
  9 10  1  0
 10 11  2  0
 11 12  1  0
 12 13  2  0
 13 14  1  0
 14 15  1  0
 15 16  1  0
 16 17  1  0
 17 18  1  0
 18 19  1  0
 19 20  1  0
 13 21  1  0
 21 22  2  0
  6 23  1  0
 23 24  2  0
 24 25  1  0
 25 26  2  0
  2 27  1  0
 27 28  1  0
 28 29  2  0
 29 30  1  0
 30 31  2  0
 31 32  1  0
 32 33  1  0
 32 34  2  0
 25  4  1  0
 34 28  1  0
 22 10  1  0
 20 15  1  0
  3 35  1  0
  3 36  1  0
  5 37  1  0
 11 38  1  0
 12 39  1  0
 14 40  1  0
 14 41  1  0
 16 42  1  0
 16 43  1  0
 17 44  1  0
 17 45  1  0
 19 46  1  0
 19 47  1  0
 20 48  1  0
 20 49  1  0
 21 50  1  0
 22 51  1  0
 23 52  1  0
 24 53  1  0
 29 54  1  0
 30 55  1  0
 31 56  1  0
 33 57  1  0
 34 58  1  0
M  CHG  2   9  -1  27  -1
M  END
>  <UniqueID>  (67) 
61

>  <SMILES>  (67) 
O=C(Cn1cc(C(=O)[N-]c2ccc(CN3CCOCC3)cc2)ccc1=O)[N-]c1cccc(O)c1

>  <Energy>  (67) 
86.88431875876448

>  <Genealogy>  (67) 
O=C(Cn1cc(C(=O)[N-]c2ccc(CN3CCOCC3)cc2)ccc1=O)[N-]c1cccc(O)c1 (protonated)
O=C(Cn1cc(C(=O)[N-]c2ccc(CN3CCOCC3)cc2)ccc1=O)[N-]c1cccc(O)c1 (3D coordinates assigned)
O=C(Cn1cc(C(=O)[N-]c2ccc(CN3CCOCC3)cc2)ccc1=O)[N-]c1cccc(O)c1 (nonaromatic ring conformer: 86.88431875876448 kcal/mol)

>  <smiles>  (67) 
O=C(Cn1cc(C(=O)Nc2ccc(CN3CCOCC3)cc2)ccc1=O)Nc1cccc(O)c1

>  <score_type>  (67) 
oracle

>  <origin>  (67) 
adg

>  <m_score__min__energy>  (67) 
-13.6

>  <m_primary>  (67) 
energy

$$$$
67:0
     RDKit          3D

 59 62  0  0  0  0  0  0  0  0999 V2000
   50.1610   33.0020   52.7460 C   0  0  0  0  0  0  0  0  0  0  0  0
   51.0180   32.7230   51.6030 N   0  0  0  0  0  0  0  0  0  0  0  0
   51.6300   31.4480   51.3810 C   0  0  0  0  0  0  0  0  0  0  0  0
   51.4970   30.8770   50.2650 O   0  0  0  0  0  0  0  0  0  0  0  0
   52.4180   30.8020   52.4580 C   0  0  0  0  0  0  0  0  0  0  0  0
   51.9400   30.7800   53.7810 C   0  0  0  0  0  0  0  0  0  0  0  0
   52.6880   30.1770   54.7960 C   0  0  0  0  0  0  0  0  0  0  0  0
   53.9200   29.5890   54.5050 C   0  0  0  0  0  0  0  0  0  0  0  0
   54.4150   29.5980   53.1930 C   0  0  0  0  0  0  0  0  0  0  0  0
   55.7390   28.9520   52.8880 C   0  0  0  0  0  0  0  0  0  0  0  0
   56.8310   29.8770   53.1720 N   0  0  0  0  0  0  0  0  0  0  0  0
   58.1010   29.8370   52.5070 C   0  0  0  0  0  0  0  0  0  0  0  0
   59.0590   29.2000   53.0260 O   0  0  0  0  0  0  0  0  0  0  0  0
   58.2850   30.5310   51.2110 C   0  0  0  0  0  0  0  0  0  0  0  0
   58.0200   31.9050   51.0890 C   0  0  0  0  0  0  0  0  0  0  0  0
   58.1910   32.5580   49.8650 C   0  0  0  0  0  0  0  0  0  0  0  0
   58.6330   31.8510   48.7320 C   0  0  0  0  0  0  0  0  0  0  0  0
   58.8070   32.5220   47.4190 C   0  0  0  0  0  0  0  0  0  0  0  0
   59.6820   33.6120   47.2540 C   0  0  0  0  0  0  0  0  0  0  0  0
   59.8130   34.2060   45.9970 C   0  0  0  0  0  0  0  0  0  0  0  0
   59.0850   33.7150   44.9140 C   0  0  0  0  0  0  0  0  0  0  0  0
   58.2300   32.6210   45.1020 C   0  0  0  0  0  0  0  0  0  0  0  0
   57.4240   32.0800   43.9620 C   0  0  0  0  0  0  0  0  0  0  0  0
   56.2800   31.3450   44.4850 N   0  0  0  0  0  0  0  0  0  0  0  0
   56.1650   29.9230   44.3930 C   0  0  0  0  0  0  0  0  0  0  0  0
   55.1630   29.3290   44.8770 O   0  0  0  0  0  0  0  0  0  0  0  0
   57.2700   29.1320   43.7720 C   0  0  0  0  0  0  0  0  0  0  0  0
   58.2880   28.7750   44.8090 C   0  0  0  0  0  0  0  0  0  0  0  0
   59.5830   29.2750   44.8860 C   0  0  0  0  0  0  0  0  0  0  0  0
   60.2830   28.8150   46.0080 C   0  0  0  0  0  0  0  0  0  0  0  0
   59.5430   27.9610   46.8160 C   0  0  0  0  0  0  0  0  0  0  0  0
   58.0120   27.7850   46.1410 S   0  0  0  0  0  0  0  0  0  0  0  0
   58.1150   32.0620   46.3380 N   0  0  0  0  0  0  0  0  0  0  0  0
   58.8860   30.4740   48.8520 C   0  0  0  0  0  0  0  0  0  0  0  0
   58.7200   29.8220   50.0780 C   0  0  0  0  0  0  0  0  0  0  0  0
   53.6600   30.2020   52.1730 C   0  0  0  0  0  0  0  0  0  0  0  0
   50.7195   32.8202   53.6761 H   0  0  0  0  0  0  0  0  0  0  0  0
   49.8360   34.0524   52.7129 H   0  0  0  0  0  0  0  0  0  0  0  0
   49.2799   32.3443   52.7129 H   0  0  0  0  0  0  0  0  0  0  0  0
   50.9699   31.2410   54.0184 H   0  0  0  0  0  0  0  0  0  0  0  0
   52.3048   30.1658   55.8270 H   0  0  0  0  0  0  0  0  0  0  0  0
   54.5049   29.1167   55.3080 H   0  0  0  0  0  0  0  0  0  0  0  0
   55.8552   28.0517   53.5093 H   0  0  0  0  0  0  0  0  0  0  0  0
   55.7678   28.6807   51.8224 H   0  0  0  0  0  0  0  0  0  0  0  0
   57.6744   32.4728   51.9655 H   0  0  0  0  0  0  0  0  0  0  0  0
   57.9780   33.6344   49.7870 H   0  0  0  0  0  0  0  0  0  0  0  0
   60.2588   33.9934   48.1095 H   0  0  0  0  0  0  0  0  0  0  0  0
   60.4908   35.0616   45.8612 H   0  0  0  0  0  0  0  0  0  0  0  0
   59.1809   34.1816   43.9225 H   0  0  0  0  0  0  0  0  0  0  0  0
   57.0705   32.9118   43.3350 H   0  0  0  0  0  0  0  0  0  0  0  0
   58.0486   31.4063   43.3571 H   0  0  0  0  0  0  0  0  0  0  0  0
   56.8575   28.2111   43.3341 H   0  0  0  0  0  0  0  0  0  0  0  0
   57.7497   29.7354   42.9873 H   0  0  0  0  0  0  0  0  0  0  0  0
   60.0134   29.9614   44.1420 H   0  0  0  0  0  0  0  0  0  0  0  0
   61.3214   29.1028   46.2289 H   0  0  0  0  0  0  0  0  0  0  0  0
   59.8978   27.4813   47.7402 H   0  0  0  0  0  0  0  0  0  0  0  0
   59.2181   29.9030   47.9724 H   0  0  0  0  0  0  0  0  0  0  0  0
   58.9316   28.7454   50.1563 H   0  0  0  0  0  0  0  0  0  0  0  0
   54.0429   30.2062   51.1418 H   0  0  0  0  0  0  0  0  0  0  0  0
  1  2  1  0
  2  3  1  0
  3  4  2  0
  3  5  1  0
  5  6  2  0
  6  7  1  0
  7  8  2  0
  8  9  1  0
  9 10  1  0
 10 11  1  0
 11 12  1  0
 12 13  2  0
 12 14  1  0
 14 15  2  0
 15 16  1  0
 16 17  2  0
 17 18  1  0
 18 19  2  0
 19 20  1  0
 20 21  2  0
 21 22  1  0
 22 23  1  0
 23 24  1  0
 24 25  1  0
 25 26  2  0
 25 27  1  0
 27 28  1  0
 28 29  2  0
 29 30  1  0
 30 31  2  0
 31 32  1  0
 22 33  2  0
 17 34  1  0
 34 35  2  0
  9 36  2  0
 36  5  1  0
 35 14  1  0
 33 18  1  0
 32 28  1  0
  1 37  1  0
  1 38  1  0
  1 39  1  0
  6 40  1  0
  7 41  1  0
  8 42  1  0
 10 43  1  0
 10 44  1  0
 15 45  1  0
 16 46  1  0
 19 47  1  0
 20 48  1  0
 21 49  1  0
 23 50  1  0
 23 51  1  0
 27 52  1  0
 27 53  1  0
 29 54  1  0
 30 55  1  0
 31 56  1  0
 34 57  1  0
 35 58  1  0
 36 59  1  0
M  CHG  3   2  -1  11  -1  24  -1
M  END
>  <UniqueID>  (68) 
62

>  <SMILES>  (68) 
C[N-]C(=O)c1cccc(C[N-]C(=O)c2ccc(-c3cccc(C[N-]C(=O)Cc4cccs4)n3)cc2)c1

>  <Energy>  (68) 
84.6658375590072

>  <Genealogy>  (68) 
C[N-]C(=O)c1cccc(C[N-]C(=O)c2ccc(-c3cccc(C[N-]C(=O)Cc4cccs4)n3)cc2)c1 (protonated)
C[N-]C(=O)c1cccc(C[N-]C(=O)c2ccc(-c3cccc(C[N-]C(=O)Cc4cccs4)n3)cc2)c1 (3D coordinates assigned)
C[N-]C(=O)c1cccc(C[N-]C(=O)c2ccc(-c3cccc(C[N-]C(=O)Cc4cccs4)n3)cc2)c1 (optimized conformer: 84.6658375590072 kcal/mol)

>  <smiles>  (68) 
CNC(=O)c1cccc(CNC(=O)c2ccc(-c3cccc(CNC(=O)Cc4cccs4)n3)cc2)c1

>  <score_type>  (68) 
oracle

>  <origin>  (68) 
adg

>  <m_score__min__energy>  (68) 
-16.41

>  <m_primary>  (68) 
energy

$$$$
68:0
     RDKit          3D

 59 62  0  0  0  0  0  0  0  0999 V2000
   56.8010   32.6530   44.9780 O   0  0  0  0  0  0  0  0  0  0  0  0
   58.0370   32.4170   45.0300 C   0  0  0  0  0  0  0  0  0  0  0  0
   58.6020   31.4860   44.0950 N   0  0  0  0  0  0  0  0  0  0  0  0
   58.4620   30.0320   44.1310 C   0  0  0  0  0  0  0  0  0  0  0  0
   57.8220   29.5740   45.4140 C   0  0  0  0  0  0  0  0  0  0  0  0
   56.5870   29.7700   45.5790 O   0  0  0  0  0  0  0  0  0  0  0  0
   58.5810   28.9430   46.4620 N   0  0  0  0  0  0  0  0  0  0  0  0
   58.9520   29.6510   47.6750 C   0  0  0  0  0  0  0  0  0  0  0  0
   59.9870   28.7750   48.3710 C   0  0  0  0  0  0  0  0  0  0  0  0
   59.8600   27.3890   47.7430 C   0  0  0  0  0  0  0  0  0  0  0  0
   59.1480   27.5990   46.4000 C   0  0  1  0  0  0  0  0  0  0  0  0
   58.0770   26.5520   46.1760 C   0  0  0  0  0  0  0  0  0  0  0  0
   58.4210   25.2130   45.9130 C   0  0  0  0  0  0  0  0  0  0  0  0
   57.4240   24.2570   45.6920 C   0  0  0  0  0  0  0  0  0  0  0  0
   56.0780   24.6280   45.7210 C   0  0  0  0  0  0  0  0  0  0  0  0
   55.7270   25.9580   45.9690 C   0  0  0  0  0  0  0  0  0  0  0  0
   54.3890   26.3270   45.9920 O   0  0  0  0  0  0  0  0  0  0  0  0
   56.7200   26.9180   46.1920 C   0  0  0  0  0  0  0  0  0  0  0  0
   58.8650   33.1650   45.9950 C   0  0  0  0  0  0  0  0  0  0  0  0
   58.3100   34.2540   46.6800 C   0  0  0  0  0  0  0  0  0  0  0  0
   59.0800   34.9770   47.5920 C   0  0  0  0  0  0  0  0  0  0  0  0
   60.4040   34.6130   47.8360 C   0  0  0  0  0  0  0  0  0  0  0  0
   60.9780   33.5190   47.1640 C   0  0  0  0  0  0  0  0  0  0  0  0
   62.3710   33.1120   47.4610 C   0  0  0  0  0  0  0  0  0  0  0  0
   63.2130   33.0400   46.5280 O   0  0  0  0  0  0  0  0  0  0  0  0
   62.7850   32.7930   48.7980 N   0  0  0  0  0  0  0  0  0  0  0  0
   62.1620   31.6540   49.4890 C   0  0  0  0  0  0  0  0  0  0  0  0
   62.8980   31.3190   50.7920 C   0  0  0  0  0  0  0  0  0  0  0  0
   64.4120   31.1990   50.5550 C   0  0  0  0  0  0  0  0  0  0  0  0
   65.0130   32.3710   49.7420 C   0  0  0  0  0  0  0  0  0  0  0  0
   63.9770   33.4360   49.3630 C   0  0  0  0  0  0  0  0  0  0  0  0
   60.1930   32.7920   46.2480 C   0  0  0  0  0  0  0  0  0  0  0  0
   57.8367   29.7115   43.2847 H   0  0  0  0  0  0  0  0  0  0  0  0
   59.4653   29.5857   44.0657 H   0  0  0  0  0  0  0  0  0  0  0  0
   59.3848   30.6317   47.4283 H   0  0  0  0  0  0  0  0  0  0  0  0
   58.0790   29.8332   48.3189 H   0  0  0  0  0  0  0  0  0  0  0  0
   60.9982   29.1765   48.2086 H   0  0  0  0  0  0  0  0  0  0  0  0
   59.8190   28.7407   49.4576 H   0  0  0  0  0  0  0  0  0  0  0  0
   60.8553   26.9486   47.5836 H   0  0  0  0  0  0  0  0  0  0  0  0
   59.3002   26.7008   48.3934 H   0  0  0  0  0  0  0  0  0  0  0  0
   59.8427   27.4974   45.5532 H   0  0  0  0  0  0  0  0  0  0  0  0
   59.4798   24.9165   45.8810 H   0  0  0  0  0  0  0  0  0  0  0  0
   57.7008   23.2108   45.4950 H   0  0  0  0  0  0  0  0  0  0  0  0
   55.2952   23.8746   45.5489 H   0  0  0  0  0  0  0  0  0  0  0  0
   56.4374   27.9642   46.3808 H   0  0  0  0  0  0  0  0  0  0  0  0
   57.2635   34.5401   46.4982 H   0  0  0  0  0  0  0  0  0  0  0  0
   58.6414   35.8366   48.1200 H   0  0  0  0  0  0  0  0  0  0  0  0
   61.0035   35.1855   48.5591 H   0  0  0  0  0  0  0  0  0  0  0  0
   61.1169   31.9054   49.7228 H   0  0  0  0  0  0  0  0  0  0  0  0
   62.2140   30.7771   48.8269 H   0  0  0  0  0  0  0  0  0  0  0  0
   62.7110   32.1167   51.5259 H   0  0  0  0  0  0  0  0  0  0  0  0
   62.5247   30.3546   51.1671 H   0  0  0  0  0  0  0  0  0  0  0  0
   64.9141   31.1622   51.5330 H   0  0  0  0  0  0  0  0  0  0  0  0
   64.5719   30.2849   49.9644 H   0  0  0  0  0  0  0  0  0  0  0  0
   65.8000   32.8476   50.3449 H   0  0  0  0  0  0  0  0  0  0  0  0
   65.4081   31.9508   48.8053 H   0  0  0  0  0  0  0  0  0  0  0  0
   63.6937   34.0053   50.2606 H   0  0  0  0  0  0  0  0  0  0  0  0
   64.4119   34.1149   48.6147 H   0  0  0  0  0  0  0  0  0  0  0  0
   60.6250   31.9249   45.7270 H   0  0  0  0  0  0  0  0  0  0  0  0
  1  2  2  0
  2  3  1  0
  3  4  1  0
  4  5  1  0
  5  6  2  0
  5  7  1  0
  7  8  1  0
  8  9  1  0
  9 10  1  0
 10 11  1  0
 11 12  1  0
 12 13  2  0
 13 14  1  0
 14 15  2  0
 15 16  1  0
 16 17  1  0
 16 18  2  0
  2 19  1  0
 19 20  2  0
 20 21  1  0
 21 22  2  0
 22 23  1  0
 23 24  1  0
 24 25  2  0
 24 26  1  0
 26 27  1  0
 27 28  1  0
 28 29  1  0
 29 30  1  0
 30 31  1  0
 23 32  2  0
 11  7  1  0
 18 12  1  0
 32 19  1  0
 31 26  1  0
  4 33  1  0
  4 34  1  0
  8 35  1  0
  8 36  1  0
  9 37  1  0
  9 38  1  0
 10 39  1  0
 10 40  1  0
 11 41  1  6
 13 42  1  0
 14 43  1  0
 15 44  1  0
 18 45  1  0
 20 46  1  0
 21 47  1  0
 22 48  1  0
 27 49  1  0
 27 50  1  0
 28 51  1  0
 28 52  1  0
 29 53  1  0
 29 54  1  0
 30 55  1  0
 30 56  1  0
 31 57  1  0
 31 58  1  0
 32 59  1  0
M  CHG  2   3  -1  17  -1
M  END
>  <UniqueID>  (69) 
63

>  <SMILES>  (69) 
O=C([N-]CC(=O)N1CCC[C@H]1c1cccc([O-])c1)c1cccc(C(=O)N2CCCCC2)c1

>  <Energy>  (69) 
69.56845127795265

>  <Genealogy>  (69) 
O=C([N-]CC(=O)N1CCCC1c1cccc([O-])c1)c1cccc(C(=O)N2CCCCC2)c1 (protonated)
O=C([N-]CC(=O)N1CCC[C@H]1c1cccc([O-])c1)c1cccc(C(=O)N2CCCCC2)c1 (chirality)
O=C([N-]CC(=O)N1CCC[C@H]1c1cccc([O-])c1)c1cccc(C(=O)N2CCCCC2)c1 (3D coordinates assigned)
O=C([N-]CC(=O)N1CCC[C@H]1c1cccc([O-])c1)c1cccc(C(=O)N2CCCCC2)c1 (nonaromatic ring conformer: 69.56845127795265 kcal/mol)

>  <smiles>  (69) 
O=C(NCC(=O)N1CCCC1c1cccc(O)c1)c1cccc(C(=O)N2CCCCC2)c1

>  <score_type>  (69) 
oracle

>  <origin>  (69) 
adg

>  <m_score__min__energy>  (69) 
-15.48

>  <m_primary>  (69) 
energy

$$$$
69:0
     RDKit          3D

 38 40  0  0  0  0  0  0  0  0999 V2000
   56.7160   26.8150   45.8680 O   0  0  0  0  0  0  0  0  0  0  0  0
   57.7460   27.4860   45.5990 C   0  0  0  0  0  0  0  0  0  0  0  0
   57.6800   28.9440   45.3470 C   0  0  0  0  0  0  0  0  0  0  0  0
   56.4950   29.6090   44.9470 C   0  0  0  0  0  0  0  0  0  0  0  0
   55.2580   28.9670   44.8710 O   0  0  0  0  0  0  0  0  0  0  0  0
   56.5390   30.9340   44.6560 N   0  0  0  0  0  0  0  0  0  0  0  0
   57.6850   31.6500   44.7700 C   0  0  0  0  0  0  0  0  0  0  0  0
   57.6870   33.3960   44.3800 S   0  0  0  0  0  0  0  0  0  0  0  0
   57.8240   33.9580   46.1160 C   0  0  0  0  0  0  0  0  0  0  0  0
   59.1560   34.6020   46.3990 C   0  0  0  0  0  0  0  0  0  0  0  0
   59.5370   35.5230   45.6270 O   0  0  0  0  0  0  0  0  0  0  0  0
   60.0030   34.1960   47.5010 N   0  0  0  0  0  0  0  0  0  0  0  0
   61.3490   33.6760   47.2410 C   0  0  0  0  0  0  0  0  0  0  0  0
   61.2940   32.1450   47.2010 C   0  0  0  0  0  0  0  0  0  0  0  0
   60.4200   31.5650   48.2950 C   0  0  0  0  0  0  0  0  0  0  0  0
   60.4500   30.1810   48.5250 C   0  0  0  0  0  0  0  0  0  0  0  0
   59.6170   29.6050   49.4880 C   0  0  0  0  0  0  0  0  0  0  0  0
   58.7430   30.4030   50.2270 C   0  0  0  0  0  0  0  0  0  0  0  0
   58.6920   31.7810   50.0040 C   0  0  0  0  0  0  0  0  0  0  0  0
   59.5120   32.3710   49.0290 C   0  0  0  0  0  0  0  0  0  0  0  0
   59.4770   33.8650   48.8300 C   0  0  0  0  0  0  0  0  0  0  0  0
   58.8250   31.0440   45.1810 N   0  0  0  0  0  0  0  0  0  0  0  0
   58.8490   29.7190   45.4740 C   0  0  0  0  0  0  0  0  0  0  0  0
   59.9340   29.1940   45.8450 O   0  0  0  0  0  0  0  0  0  0  0  0
   58.7199   26.9769   45.5498 H   0  0  0  0  0  0  0  0  0  0  0  0
   55.1400   27.9650   44.9360 H   0  0  0  0  0  0  0  0  0  0  0  0
   57.0268   34.6890   46.3163 H   0  0  0  0  0  0  0  0  0  0  0  0
   57.7289   33.0760   46.7664 H   0  0  0  0  0  0  0  0  0  0  0  0
   61.7113   34.0573   46.2749 H   0  0  0  0  0  0  0  0  0  0  0  0
   62.0335   34.0023   48.0378 H   0  0  0  0  0  0  0  0  0  0  0  0
   60.8923   31.8321   46.2259 H   0  0  0  0  0  0  0  0  0  0  0  0
   62.3164   31.7704   47.3573 H   0  0  0  0  0  0  0  0  0  0  0  0
   61.1338   29.5452   47.9434 H   0  0  0  0  0  0  0  0  0  0  0  0
   59.6505   28.5197   49.6638 H   0  0  0  0  0  0  0  0  0  0  0  0
   58.0925   29.9458   50.9871 H   0  0  0  0  0  0  0  0  0  0  0  0
   58.0066   32.4065   50.5947 H   0  0  0  0  0  0  0  0  0  0  0  0
   58.4396   34.2213   48.9125 H   0  0  0  0  0  0  0  0  0  0  0  0
   60.0950   34.3510   49.5994 H   0  0  0  0  0  0  0  0  0  0  0  0
  1  2  2  0
  2  3  1  0
  3  4  2  0
  4  5  1  0
  4  6  1  0
  6  7  1  0
  7  8  1  0
  8  9  1  0
  9 10  1  0
 10 11  2  0
 10 12  1  0
 12 13  1  0
 13 14  1  0
 14 15  1  0
 15 16  2  0
 16 17  1  0
 17 18  2  0
 18 19  1  0
 19 20  2  0
 20 21  1  0
  7 22  2  0
 22 23  1  0
 23 24  2  0
 23  3  1  0
 21 12  1  0
 20 15  1  0
  2 25  1  0
  5 26  1  0
  9 27  1  0
  9 28  1  0
 13 29  1  0
 13 30  1  0
 14 31  1  0
 14 32  1  0
 16 33  1  0
 17 34  1  0
 18 35  1  0
 19 36  1  0
 21 37  1  0
 21 38  1  0
M  CHG  1   6  -1
M  END
>  <UniqueID>  (70) 
64

>  <SMILES>  (70) 
O=Cc1c(O)[n-]c(SCC(=O)N2CCc3ccccc3C2)nc1=O

>  <Energy>  (70) 
45.60931350671834

>  <Genealogy>  (70) 
O=Cc1c(O)[n-]c(SCC(=O)N2CCc3ccccc3C2)nc1=O (protonated)
O=Cc1c(O)[n-]c(SCC(=O)N2CCc3ccccc3C2)nc1=O (3D coordinates assigned)
O=Cc1c(O)[n-]c(SCC(=O)N2CCc3ccccc3C2)nc1=O (nonaromatic ring conformer: 45.60931350671834 kcal/mol)

>  <smiles>  (70) 
O=Cc1c(O)[nH]c(SCC(=O)N2CCc3ccccc3C2)nc1=O

>  <score_type>  (70) 
oracle

>  <origin>  (70) 
adg

>  <m_score__min__energy>  (70) 
-10.33

>  <m_primary>  (70) 
energy

$$$$
70:0
     RDKit          3D

 37 39  0  0  0  0  0  0  0  0999 V2000
   63.2960   32.4830   47.1240 C   0  0  0  0  0  0  0  0  0  0  0  0
   61.5770   32.2460   47.5350 S   0  0  0  0  0  0  0  0  0  0  0  0
   61.4760   31.8140   48.9720 O   0  0  0  0  0  0  0  0  0  0  0  0
   61.0160   31.1570   46.6650 O   0  0  0  0  0  0  0  0  0  0  0  0
   60.6420   33.7050   47.2990 N   0  0  0  0  0  0  0  0  0  0  0  0
   60.4020   33.9350   45.8610 C   0  0  0  0  0  0  0  0  0  0  0  0
   59.2760   34.9560   45.6490 C   0  0  0  0  0  0  0  0  0  0  0  0
   57.9860   34.5180   46.2490 N   0  0  0  0  0  0  0  0  0  0  0  0
   57.0170   34.0810   45.2260 C   0  0  0  0  0  0  0  0  0  0  0  0
   57.3970   32.7380   44.6900 C   0  0  0  0  0  0  0  0  0  0  0  0
   58.0090   32.5410   43.5060 N   0  0  0  0  0  0  0  0  0  0  0  0
   58.1910   31.2340   43.3960 N   0  0  0  0  0  0  0  0  0  0  0  0
   57.6840   30.6880   44.5180 C   0  0  0  0  0  0  0  0  0  0  0  0
   57.6840   29.2520   44.8040 C   0  0  0  0  0  0  0  0  0  0  0  0
   58.6970   28.3680   44.4930 C   0  0  0  0  0  0  0  0  0  0  0  0
   58.2670   27.1390   44.9450 C   0  0  0  0  0  0  0  0  0  0  0  0
   57.0200   27.3500   45.5010 C   0  0  0  0  0  0  0  0  0  0  0  0
   56.7000   28.6210   45.4020 O   0  0  0  0  0  0  0  0  0  0  0  0
   57.1950   31.6040   45.3180 O   0  0  0  0  0  0  0  0  0  0  0  0
   58.1430   33.4740   47.2880 C   0  0  0  0  0  0  0  0  0  0  0  0
   59.4100   33.7050   48.1230 C   0  0  0  0  0  0  0  0  0  0  0  0
   63.8862   32.5644   48.0487 H   0  0  0  0  0  0  0  0  0  0  0  0
   63.6537   31.6257   46.5349 H   0  0  0  0  0  0  0  0  0  0  0  0
   63.4084   33.4051   46.5349 H   0  0  0  0  0  0  0  0  0  0  0  0
   61.3247   34.3155   45.3984 H   0  0  0  0  0  0  0  0  0  0  0  0
   60.1039   32.9826   45.3982 H   0  0  0  0  0  0  0  0  0  0  0  0
   59.5734   35.9094   46.1102 H   0  0  0  0  0  0  0  0  0  0  0  0
   59.1208   35.0608   44.5650 H   0  0  0  0  0  0  0  0  0  0  0  0
   56.0155   34.0214   45.6771 H   0  0  0  0  0  0  0  0  0  0  0  0
   57.0164   34.8081   44.4006 H   0  0  0  0  0  0  0  0  0  0  0  0
   59.6482   28.5963   43.9899 H   0  0  0  0  0  0  0  0  0  0  0  0
   58.8074   26.1833   44.8768 H   0  0  0  0  0  0  0  0  0  0  0  0
   56.3903   26.5721   45.9574 H   0  0  0  0  0  0  0  0  0  0  0  0
   57.2668   33.4953   47.9527 H   0  0  0  0  0  0  0  0  0  0  0  0
   58.2290   32.4975   46.7890 H   0  0  0  0  0  0  0  0  0  0  0  0
   59.3253   34.6772   48.6305 H   0  0  0  0  0  0  0  0  0  0  0  0
   59.4903   32.8776   48.8434 H   0  0  0  0  0  0  0  0  0  0  0  0
  1  2  1  0
  2  3  2  0
  2  4  2  0
  2  5  1  0
  5  6  1  0
  6  7  1  0
  7  8  1  0
  8  9  1  0
  9 10  1  0
 10 11  2  0
 11 12  1  0
 12 13  2  0
 13 14  1  0
 14 15  2  0
 15 16  1  0
 16 17  2  0
 17 18  1  0
 13 19  1  0
  8 20  1  0
 20 21  1  0
 21  5  1  0
 19 10  1  0
 18 14  1  0
  1 22  1  0
  1 23  1  0
  1 24  1  0
  6 25  1  0
  6 26  1  0
  7 27  1  0
  7 28  1  0
  9 29  1  0
  9 30  1  0
 15 31  1  0
 16 32  1  0
 17 33  1  0
 20 34  1  0
 20 35  1  0
 21 36  1  0
 21 37  1  0
M  END
>  <UniqueID>  (71) 
65

>  <SMILES>  (71) 
CS(=O)(=O)N1CCN(Cc2nnc(-c3ccco3)o2)CC1

>  <Energy>  (71) 
102.97566938867811

>  <Genealogy>  (71) 
CS(=O)(=O)N1CCN(Cc2nnc(-c3ccco3)o2)CC1 (3D coordinates assigned)
CS(=O)(=O)N1CCN(Cc2nnc(-c3ccco3)o2)CC1 (nonaromatic ring conformer: 102.97566938867811 kcal/mol)

>  <smiles>  (71) 
CS(=O)(=O)N1CCN(Cc2nnc(-c3ccco3)o2)CC1

>  <score_type>  (71) 
oracle

>  <origin>  (71) 
adg

>  <m_score__min__energy>  (71) 
-7.9199999999999999

>  <m_primary>  (71) 
energy

$$$$
71:0
     RDKit          3D

 37 39  0  0  0  0  0  0  0  0999 V2000
   51.0860   32.3220   50.4730 N   0  0  0  0  0  0  0  0  0  0  0  0
   51.7340   31.0930   50.1530 C   0  0  0  0  0  0  0  0  0  0  0  0
   51.3940   30.4590   49.1190 O   0  0  0  0  0  0  0  0  0  0  0  0
   52.7930   30.5680   51.0270 C   0  0  0  0  0  0  0  0  0  0  0  0
   53.9930   31.1980   51.3030 C   0  0  0  0  0  0  0  0  0  0  0  0
   54.6730   30.3580   52.1700 C   0  0  0  0  0  0  0  0  0  0  0  0
   55.9820   30.5980   52.8090 C   0  0  0  0  0  0  0  0  0  0  0  0
   56.2270   30.0480   53.9170 O   0  0  0  0  0  0  0  0  0  0  0  0
   57.0140   31.4580   52.1940 C   0  0  0  0  0  0  0  0  0  0  0  0
   57.3080   32.7760   52.5090 C   0  0  0  0  0  0  0  0  0  0  0  0
   58.3080   33.1610   51.6370 C   0  0  0  0  0  0  0  0  0  0  0  0
   58.9110   34.4160   51.6130 O   0  0  0  0  0  0  0  0  0  0  0  0
   58.6290   32.1590   50.7960 N   0  0  0  0  0  0  0  0  0  0  0  0
   59.6810   32.1680   49.7790 C   0  0  0  0  0  0  0  0  0  0  0  0
   59.2700   33.0350   48.6210 C   0  0  0  0  0  0  0  0  0  0  0  0
   60.0170   34.1770   48.2900 C   0  0  0  0  0  0  0  0  0  0  0  0
   59.6570   34.9600   47.1880 C   0  0  0  0  0  0  0  0  0  0  0  0
   58.5560   34.6030   46.4050 C   0  0  0  0  0  0  0  0  0  0  0  0
   57.8150   33.4600   46.7200 C   0  0  0  0  0  0  0  0  0  0  0  0
   58.1720   32.6750   47.8210 C   0  0  0  0  0  0  0  0  0  0  0  0
   57.8420   31.1190   51.1360 C   0  0  0  0  0  0  0  0  0  0  0  0
   57.8770   29.8800   50.5060 O   0  0  0  0  0  0  0  0  0  0  0  0
   53.8520   29.2670   52.3950 C   0  0  0  0  0  0  0  0  0  0  0  0
   52.7150   29.3970   51.6900 N   0  0  0  0  0  0  0  0  0  0  0  0
   50.2580   32.3410   51.1090 H   0  0  0  0  0  0  0  0  0  0  0  0
   54.3371   32.1676   50.9138 H   0  0  0  0  0  0  0  0  0  0  0  0
   56.8405   33.3897   53.2931 H   0  0  0  0  0  0  0  0  0  0  0  0
   58.3540   35.2620   51.6480 H   0  0  0  0  0  0  0  0  0  0  0  0
   60.6089   32.5629   50.2183 H   0  0  0  0  0  0  0  0  0  0  0  0
   59.8453   31.1411   49.4206 H   0  0  0  0  0  0  0  0  0  0  0  0
   60.8887   34.4571   48.8996 H   0  0  0  0  0  0  0  0  0  0  0  0
   60.2413   35.8577   46.9376 H   0  0  0  0  0  0  0  0  0  0  0  0
   58.2723   35.2214   45.5406 H   0  0  0  0  0  0  0  0  0  0  0  0
   56.9504   33.1779   46.1013 H   0  0  0  0  0  0  0  0  0  0  0  0
   57.5912   31.7724   48.0617 H   0  0  0  0  0  0  0  0  0  0  0  0
   54.0939   28.4194   53.0530 H   0  0  0  0  0  0  0  0  0  0  0  0
   51.9200   28.7190   51.6750 H   0  0  0  0  0  0  0  0  0  0  0  0
  1  2  1  0
  2  3  2  0
  2  4  1  0
  4  5  2  0
  5  6  1  0
  6  7  1  0
  7  8  2  0
  7  9  1  0
  9 10  1  0
 10 11  2  0
 11 12  1  0
 11 13  1  0
 13 14  1  0
 14 15  1  0
 15 16  2  0
 16 17  1  0
 17 18  2  0
 18 19  1  0
 19 20  2  0
 13 21  1  0
 21 22  1  0
  6 23  2  0
 23 24  1  0
 24  4  1  0
 21  9  2  0
 20 15  1  0
  1 25  1  0
  5 26  1  0
 10 27  1  0
 12 28  1  0
 14 29  1  0
 14 30  1  0
 16 31  1  0
 17 32  1  0
 18 33  1  0
 19 34  1  0
 20 35  1  0
 23 36  1  0
 24 37  1  0
M  CHG  2   1  -1  22  -1
M  END
>  <UniqueID>  (72) 
66

>  <SMILES>  (72) 
[NH-]C(=O)c1cc(C(=O)c2cc(O)n(Cc3ccccc3)c2[O-])c[nH]1

>  <Energy>  (72) 
92.24897262436842

>  <Genealogy>  (72) 
[NH-]C(=O)c1cc(C(=O)c2cc(O)n(Cc3ccccc3)c2[O-])c[nH]1 (protonated)
[NH-]C(=O)c1cc(C(=O)c2cc(O)n(Cc3ccccc3)c2[O-])c[nH]1 (3D coordinates assigned)
[NH-]C(=O)c1cc(C(=O)c2cc(O)n(Cc3ccccc3)c2[O-])c[nH]1 (optimized conformer: 92.24897262436842 kcal/mol)

>  <smiles>  (72) 
NC(=O)c1cc(C(=O)c2cc(O)n(Cc3ccccc3)c2O)c[nH]1

>  <score_type>  (72) 
oracle

>  <origin>  (72) 
adg

>  <m_score__min__energy>  (72) 
-12.630000000000001

>  <m_primary>  (72) 
energy

$$$$
72:0
     RDKit          3D

 36 37  0  0  0  0  0  0  0  0999 V2000
   55.1550   30.2420   44.3470 O   0  0  0  0  0  0  0  0  0  0  0  0
   56.3840   30.2050   44.0730 C   0  0  0  0  0  0  0  0  0  0  0  0
   57.3650   29.6540   45.0340 C   0  0  0  0  0  0  0  0  0  0  0  0
   58.5740   30.3320   45.2860 C   0  0  0  0  0  0  0  0  0  0  0  0
   59.5150   29.8130   46.1970 C   0  0  0  0  0  0  0  0  0  0  0  0
   60.7950   30.4990   46.4980 C   0  0  0  0  0  0  0  0  0  0  0  0
   61.4000   30.4480   47.6940 C   0  0  0  0  0  0  0  0  0  0  0  0
   61.0400   31.3190   48.8340 C   0  0  0  0  0  0  0  0  0  0  0  0
   60.3730   30.8180   49.7770 O   0  0  0  0  0  0  0  0  0  0  0  0
   61.4160   32.7770   48.9130 C   0  0  0  0  0  0  0  0  0  0  0  0
   60.1990   33.6620   48.8270 C   0  0  0  0  0  0  0  0  0  0  0  0
   59.8720   34.3240   49.8490 O   0  0  0  0  0  0  0  0  0  0  0  0
   59.3860   33.7920   47.5860 C   0  0  0  0  0  0  0  0  0  0  0  0
   58.1330   33.1540   47.5010 C   0  0  0  0  0  0  0  0  0  0  0  0
   57.3540   33.2660   46.3450 C   0  0  0  0  0  0  0  0  0  0  0  0
   57.8140   34.0130   45.2590 C   0  0  0  0  0  0  0  0  0  0  0  0
   57.0580   34.1190   44.1400 F   0  0  0  0  0  0  0  0  0  0  0  0
   59.0570   34.6460   45.3260 C   0  0  0  0  0  0  0  0  0  0  0  0
   59.8410   34.5370   46.4790 C   0  0  0  0  0  0  0  0  0  0  0  0
   59.2180   28.6200   46.8740 C   0  0  0  0  0  0  0  0  0  0  0  0
   58.0220   27.9440   46.6290 C   0  0  0  0  0  0  0  0  0  0  0  0
   57.0940   28.4510   45.7110 C   0  0  0  0  0  0  0  0  0  0  0  0
   55.9050   27.7610   45.4760 O   0  0  0  0  0  0  0  0  0  0  0  0
   56.7337   30.5887   43.1032 H   0  0  0  0  0  0  0  0  0  0  0  0
   58.7857   31.2776   44.7654 H   0  0  0  0  0  0  0  0  0  0  0  0
   61.2741   31.0811   45.6970 H   0  0  0  0  0  0  0  0  0  0  0  0
   62.2098   29.7170   47.8351 H   0  0  0  0  0  0  0  0  0  0  0  0
   61.9280   32.9637   49.8685 H   0  0  0  0  0  0  0  0  0  0  0  0
   62.0764   33.0116   48.0652 H   0  0  0  0  0  0  0  0  0  0  0  0
   57.7639   32.5623   48.3517 H   0  0  0  0  0  0  0  0  0  0  0  0
   56.3765   32.7643   46.2913 H   0  0  0  0  0  0  0  0  0  0  0  0
   59.4206   35.2322   44.4692 H   0  0  0  0  0  0  0  0  0  0  0  0
   60.8201   35.0364   46.5225 H   0  0  0  0  0  0  0  0  0  0  0  0
   59.9340   28.2144   47.6039 H   0  0  0  0  0  0  0  0  0  0  0  0
   57.8066   27.0057   47.1611 H   0  0  0  0  0  0  0  0  0  0  0  0
   55.1390   28.1800   44.9630 H   0  0  0  0  0  0  0  0  0  0  0  0
  1  2  2  0
  2  3  1  0
  3  4  2  0
  4  5  1  0
  5  6  1  0
  6  7  2  3
  7  8  1  0
  8  9  2  0
  8 10  1  0
 10 11  1  0
 11 12  2  0
 11 13  1  0
 13 14  2  0
 14 15  1  0
 15 16  2  0
 16 17  1  0
 16 18  1  0
 18 19  2  0
  5 20  2  0
 20 21  1  0
 21 22  2  0
 22 23  1  0
 22  3  1  0
 19 13  1  0
  2 24  1  0
  4 25  1  0
  6 26  1  0
  7 27  1  0
 10 28  1  0
 10 29  1  0
 14 30  1  0
 15 31  1  0
 18 32  1  0
 19 33  1  0
 20 34  1  0
 21 35  1  0
 23 36  1  0
M  END
>  <UniqueID>  (73) 
67

>  <SMILES>  (73) 
O=Cc1cc(C=CC(=O)CC(=O)c2ccc(F)cc2)ccc1O

>  <Energy>  (73) 
40.27166464092974

>  <Genealogy>  (73) 
O=Cc1cc(C=CC(=O)CC(=O)c2ccc(F)cc2)ccc1O (3D coordinates assigned)
O=Cc1cc(C=CC(=O)CC(=O)c2ccc(F)cc2)ccc1O (optimized conformer: 40.27166464092974 kcal/mol)

>  <smiles>  (73) 
O=Cc1cc(C=CC(=O)CC(=O)c2ccc(F)cc2)ccc1O

>  <score_type>  (73) 
oracle

>  <origin>  (73) 
adg

>  <m_score__min__energy>  (73) 
-8.6899999999999995

>  <m_primary>  (73) 
energy

$$$$
73:0
     RDKit          3D

 45 48  0  0  0  0  0  0  0  0999 V2000
   60.4638   29.9403   45.3755 H   0  0  0  0  0  0  0  0  0  0  0  0
   59.8510   29.0320   45.2780 C   0  0  0  0  0  0  0  0  0  0  0  0
   60.3262   28.0408   45.3199 H   0  0  0  0  0  0  0  0  0  0  0  0
   58.5250   29.1330   45.1080 C   0  0  0  0  0  0  0  0  0  0  0  0
   57.6050   28.0930   44.9680 C   0  0  0  0  0  0  0  0  0  0  0  0
   57.8640   26.7730   44.9960 C   0  0  0  0  0  0  0  0  0  0  0  0
   58.5972   26.3744   44.2793 H   0  0  0  0  0  0  0  0  0  0  0  0
   57.2230   25.8280   45.9310 C   0  0  0  0  0  0  0  0  0  0  0  0
   57.8570   24.7480   46.4240 N   0  0  0  0  0  0  0  0  0  0  0  0
   56.9130   24.1400   47.1730 C   0  0  0  0  0  0  0  0  0  0  0  0
   57.1350   23.0810   47.8150 O   0  0  0  0  0  0  0  0  0  0  0  0
   55.7110   24.7520   47.1740 N   0  0  0  0  0  0  0  0  0  0  0  0
   55.9170   25.8130   46.3770 C   0  0  0  0  0  0  0  0  0  0  0  0
   54.9160   26.7110   46.0290 O   0  0  0  0  0  0  0  0  0  0  0  0
   56.3630   28.6110   44.8480 N   0  0  0  0  0  0  0  0  0  0  0  0
   56.5520   29.9430   44.9080 C   0  0  0  0  0  0  0  0  0  0  0  0
   55.6090   30.7720   44.8090 O   0  0  0  0  0  0  0  0  0  0  0  0
   57.8430   30.3000   45.0720 N   0  0  0  0  0  0  0  0  0  0  0  0
   58.3610   31.6420   45.1380 C   0  0  0  0  0  0  0  0  0  0  0  0
   58.1360   32.5120   44.0580 C   0  0  0  0  0  0  0  0  0  0  0  0
   57.6327   32.1401   43.1534 H   0  0  0  0  0  0  0  0  0  0  0  0
   58.5460   33.8440   44.1240 C   0  0  0  0  0  0  0  0  0  0  0  0
   58.3730   34.5149   43.2696 H   0  0  0  0  0  0  0  0  0  0  0  0
   59.1750   34.3260   45.2720 C   0  0  0  0  0  0  0  0  0  0  0  0
   59.4879   35.3792   45.3259 H   0  0  0  0  0  0  0  0  0  0  0  0
   59.4080   33.4730   46.3530 C   0  0  0  0  0  0  0  0  0  0  0  0
   59.8990   33.8613   47.2575 H   0  0  0  0  0  0  0  0  0  0  0  0
   59.0210   32.1230   46.2960 C   0  0  0  0  0  0  0  0  0  0  0  0
   59.3260   31.2420   47.4460 C   0  0  0  0  0  0  0  0  0  0  0  0
   58.5000   30.3490   47.7750 O   0  0  0  0  0  0  0  0  0  0  0  0
   60.5320   31.4190   48.2040 N   0  0  0  0  0  0  0  0  0  0  0  0
   61.1170   32.2690   48.0470 H   0  0  0  0  0  0  0  0  0  0  0  0
   60.9620   30.4650   49.2230 C   0  0  0  0  0  0  0  0  0  0  0  0
   60.2298   30.4550   50.0439 H   0  0  0  0  0  0  0  0  0  0  0  0
   61.0327   29.4643   48.7718 H   0  0  0  0  0  0  0  0  0  0  0  0
   62.3060   30.8560   49.7620 C   0  0  0  0  0  0  0  0  0  0  0  0
   62.9910   31.8760   49.1730 N   0  0  0  0  0  0  0  0  0  0  0  0
   64.2050   32.2850   49.6330 C   0  0  0  0  0  0  0  0  0  0  0  0
   64.7333   33.1095   49.1319 H   0  0  0  0  0  0  0  0  0  0  0  0
   64.7800   31.6590   50.7400 C   0  0  0  0  0  0  0  0  0  0  0  0
   65.7608   31.9855   51.1160 H   0  0  0  0  0  0  0  0  0  0  0  0
   64.0970   30.6140   51.3650 C   0  0  0  0  0  0  0  0  0  0  0  0
   64.5388   30.1113   52.2380 H   0  0  0  0  0  0  0  0  0  0  0  0
   62.8520   30.2080   50.8800 C   0  0  0  0  0  0  0  0  0  0  0  0
   62.3052   29.3886   51.3695 H   0  0  0  0  0  0  0  0  0  0  0  0
  1  2  1  0
  2  3  1  0
  2  4  2  0
  4  5  1  0
  5  6  2  0
  6  7  1  0
  6  8  1  0
  8  9  1  0
  9 10  1  0
 10 11  2  0
 10 12  1  0
 12 13  1  0
 13 14  1  0
  5 15  1  0
 15 16  1  0
 16 17  2  0
 16 18  1  0
 18 19  1  0
 19 20  2  0
 20 21  1  0
 20 22  1  0
 22 23  1  0
 22 24  2  0
 24 25  1  0
 24 26  1  0
 26 27  1  0
 26 28  2  0
 28 29  1  0
 29 30  2  0
 29 31  1  0
 31 32  1  0
 31 33  1  0
 33 34  1  0
 33 35  1  0
 33 36  1  0
 36 37  2  0
 37 38  1  0
 38 39  1  0
 38 40  2  0
 40 41  1  0
 40 42  1  0
 42 43  1  0
 42 44  2  0
 44 45  1  0
 18  4  1  0
 28 19  1  0
 44 36  1  0
 13  8  2  0
M  CHG  4   9  -1  12  -1  14  -1  15  -1
M  END
>  <UniqueID>  (74) 
68

>  <SMILES>  (74) 
C=c1/c(=C/c2[n-]c(=O)[n-]c2[O-])[n-]c(=O)n1-c1ccccc1C(=O)NCc1ccccn1

>  <Energy>  (74) 
126.25129694266366

>  <Genealogy>  (74) 
C=c1c(=Cc2[n-]c(=O)[n-]c2[O-])[n-]c(=O)n1-c1ccccc1C(=O)NCc1ccccn1 (protonated)
C=c1/c(=C/c2[n-]c(=O)[n-]c2[O-])[n-]c(=O)n1-c1ccccc1C(=O)NCc1ccccn1 (cis-trans isomerization)
C=c1/c(=C/c2[n-]c(=O)[n-]c2[O-])[n-]c(=O)n1-c1ccccc1C(=O)NCc1ccccn1 (3D coordinates assigned)
C=c1/c(=C/c2[n-]c(=O)[n-]c2[O-])[n-]c(=O)n1-c1ccccc1C(=O)NCc1ccccn1 (optimized conformer: 126.25129694266366 kcal/mol)

>  <smiles>  (74) 
C=c1c(=Cc2[nH]c(=O)[nH]c2O)[nH]c(=O)n1-c1ccccc1C(=O)NCc1ccccn1

>  <score_type>  (74) 
oracle

>  <origin>  (74) 
adg

>  <m_score__min__energy>  (74) 
-17.920000000000002

>  <m_primary>  (74) 
energy

$$$$
74:0
     RDKit          3D

 58 61  0  0  0  0  0  0  0  0999 V2000
   60.5550   33.4460   51.2960 C   0  0  0  0  0  0  0  0  0  0  0  0
   62.0860   33.2940   51.2990 C   0  0  0  0  0  0  0  0  0  0  0  0
   62.4440   31.8100   51.5050 C   0  0  0  0  0  0  0  0  0  0  0  0
   62.7250   33.8580   49.9970 C   0  0  2  0  0  0  0  0  0  0  0  0
   61.6380   34.2590   48.9450 C   0  0  0  0  0  0  0  0  0  0  0  0
   61.7890   33.5180   47.6820 N   0  0  0  0  0  0  0  0  0  0  0  0
   60.6550   33.2910   46.8220 C   0  0  0  0  0  0  0  0  0  0  0  0
   59.9930   34.3560   46.1950 C   0  0  0  0  0  0  0  0  0  0  0  0
   58.8900   34.0740   45.3880 C   0  0  0  0  0  0  0  0  0  0  0  0
   58.2780   35.0070   44.8040 O   0  0  0  0  0  0  0  0  0  0  0  0
   58.4710   32.7920   45.2370 N   0  0  0  0  0  0  0  0  0  0  0  0
   59.1050   31.7630   45.8630 C   0  0  0  0  0  0  0  0  0  0  0  0
   58.6180   30.3710   45.6940 C   0  0  0  0  0  0  0  0  0  0  0  0
   59.4930   29.2820   45.8580 C   0  0  0  0  0  0  0  0  0  0  0  0
   59.0370   27.9720   45.6920 C   0  0  0  0  0  0  0  0  0  0  0  0
   57.6980   27.7210   45.3600 C   0  0  0  0  0  0  0  0  0  0  0  0
   57.2400   26.3000   45.1540 C   0  0  0  0  0  0  0  0  0  0  0  0
   55.9470   26.0890   45.7970 N   0  0  0  0  0  0  0  0  0  0  0  0
   55.3460   24.8010   45.9610 C   0  0  0  0  0  0  0  0  0  0  0  0
   55.1850   24.3190   47.1170 O   0  0  0  0  0  0  0  0  0  0  0  0
   54.8780   24.0580   44.7440 C   0  0  0  0  0  0  0  0  0  0  0  0
   55.8730   23.0370   44.2800 C   0  0  0  0  0  0  0  0  0  0  0  0
   56.8020   22.3830   45.0820 C   0  0  0  0  0  0  0  0  0  0  0  0
   57.6460   21.5260   44.3640 C   0  0  0  0  0  0  0  0  0  0  0  0
   57.3870   21.5080   42.9990 C   0  0  0  0  0  0  0  0  0  0  0  0
   56.1140   22.5660   42.6840 S   0  0  0  0  0  0  0  0  0  0  0  0
   56.8170   28.8050   45.1960 C   0  0  0  0  0  0  0  0  0  0  0  0
   55.5160   28.5970   44.8700 F   0  0  0  0  0  0  0  0  0  0  0  0
   57.2730   30.1160   45.3630 C   0  0  0  0  0  0  0  0  0  0  0  0
   60.1850   32.0250   46.6490 N   0  0  0  0  0  0  0  0  0  0  0  0
   63.1300   33.2340   47.1570 C   0  0  0  0  0  0  0  0  0  0  0  0
   64.1790   33.3740   48.2560 C   0  0  0  0  0  0  0  0  0  0  0  0
   63.6390   32.9050   49.4710 O   0  0  0  0  0  0  0  0  0  0  0  0
   60.1881   33.4824   52.3324 H   0  0  0  0  0  0  0  0  0  0  0  0
   60.2799   34.3759   50.7767 H   0  0  0  0  0  0  0  0  0  0  0  0
   60.1024   32.5884   50.7767 H   0  0  0  0  0  0  0  0  0  0  0  0
   62.5005   33.8852   52.1289 H   0  0  0  0  0  0  0  0  0  0  0  0
   62.4967   31.5916   52.5818 H   0  0  0  0  0  0  0  0  0  0  0  0
   61.6724   31.1787   51.0401 H   0  0  0  0  0  0  0  0  0  0  0  0
   63.4186   31.6000   51.0401 H   0  0  0  0  0  0  0  0  0  0  0  0
   63.2735   34.7797   50.2410 H   0  0  0  0  0  0  0  0  0  0  0  0
   60.6434   34.0464   49.3641 H   0  0  0  0  0  0  0  0  0  0  0  0
   61.7583   35.3301   48.7255 H   0  0  0  0  0  0  0  0  0  0  0  0
   60.3357   35.3917   46.3362 H   0  0  0  0  0  0  0  0  0  0  0  0
   60.5460   29.4635   46.1194 H   0  0  0  0  0  0  0  0  0  0  0  0
   59.7338   27.1309   45.8228 H   0  0  0  0  0  0  0  0  0  0  0  0
   57.1466   26.1010   44.0762 H   0  0  0  0  0  0  0  0  0  0  0  0
   57.9781   25.6168   45.5995 H   0  0  0  0  0  0  0  0  0  0  0  0
   53.9335   23.5475   44.9833 H   0  0  0  0  0  0  0  0  0  0  0  0
   54.7463   24.7904   43.9339 H   0  0  0  0  0  0  0  0  0  0  0  0
   56.8675   22.5245   46.1709 H   0  0  0  0  0  0  0  0  0  0  0  0
   58.4376   20.9251   44.8354 H   0  0  0  0  0  0  0  0  0  0  0  0
   57.9224   20.9051   42.2507 H   0  0  0  0  0  0  0  0  0  0  0  0
   56.5748   30.9562   45.2347 H   0  0  0  0  0  0  0  0  0  0  0  0
   63.1539   32.2071   46.7634 H   0  0  0  0  0  0  0  0  0  0  0  0
   63.3569   33.9541   46.3570 H   0  0  0  0  0  0  0  0  0  0  0  0
   65.0679   32.7810   47.9946 H   0  0  0  0  0  0  0  0  0  0  0  0
   64.4668   34.4304   48.3614 H   0  0  0  0  0  0  0  0  0  0  0  0
  1  2  1  0
  2  3  1  0
  2  4  1  0
  4  5  1  0
  5  6  1  0
  6  7  1  0
  7  8  2  0
  8  9  1  0
  9 10  2  0
  9 11  1  0
 11 12  1  0
 12 13  1  0
 13 14  2  0
 14 15  1  0
 15 16  2  0
 16 17  1  0
 17 18  1  0
 18 19  1  0
 19 20  2  0
 19 21  1  0
 21 22  1  0
 22 23  2  0
 23 24  1  0
 24 25  2  0
 25 26  1  0
 16 27  1  0
 27 28  1  0
 27 29  2  0
 12 30  2  0
  6 31  1  0
 31 32  1  0
 32 33  1  0
 33  4  1  0
 30  7  1  0
 29 13  1  0
 26 22  1  0
  1 34  1  0
  1 35  1  0
  1 36  1  0
  2 37  1  0
  3 38  1  0
  3 39  1  0
  3 40  1  0
  4 41  1  1
  5 42  1  0
  5 43  1  0
  8 44  1  0
 14 45  1  0
 15 46  1  0
 17 47  1  0
 17 48  1  0
 21 49  1  0
 21 50  1  0
 23 51  1  0
 24 52  1  0
 25 53  1  0
 29 54  1  0
 31 55  1  0
 31 56  1  0
 32 57  1  0
 32 58  1  0
M  CHG  2  11  -1  18  -1
M  END
>  <UniqueID>  (75) 
69

>  <SMILES>  (75) 
CC(C)[C@@H]1CN(c2cc(=O)[n-]c(-c3ccc(C[N-]C(=O)Cc4cccs4)c(F)c3)n2)CCO1

>  <Energy>  (75) 
93.92787727038866

>  <Genealogy>  (75) 
CC(C)C1CN(c2cc(=O)[n-]c(-c3ccc(C[N-]C(=O)Cc4cccs4)c(F)c3)n2)CCO1 (protonated)
CC(C)[C@@H]1CN(c2cc(=O)[n-]c(-c3ccc(C[N-]C(=O)Cc4cccs4)c(F)c3)n2)CCO1 (chirality)
CC(C)[C@@H]1CN(c2cc(=O)[n-]c(-c3ccc(C[N-]C(=O)Cc4cccs4)c(F)c3)n2)CCO1 (3D coordinates assigned)
CC(C)[C@@H]1CN(c2cc(=O)[n-]c(-c3ccc(C[N-]C(=O)Cc4cccs4)c(F)c3)n2)CCO1 (nonaromatic ring conformer: 93.92787727038866 kcal/mol)

>  <smiles>  (75) 
CC(C)C1CN(c2cc(=O)[nH]c(-c3ccc(CNC(=O)Cc4cccs4)c(F)c3)n2)CCO1

>  <score_type>  (75) 
oracle

>  <origin>  (75) 
adg

>  <m_score__min__energy>  (75) 
-11.890000000000001

>  <m_primary>  (75) 
energy

$$$$
75:0
     RDKit          3D

 73 77  0  0  0  0  0  0  0  0999 V2000
   56.2240   30.9440   52.4850 C   0  0  0  0  0  0  0  0  0  0  0  0
   57.0300   32.2150   52.2030 C   0  0  0  0  0  0  0  0  0  0  0  0
   58.4130   32.1370   52.7340 N   0  0  1  0  0  0  0  0  0  0  0  0
   58.9860   30.7820   52.5560 C   0  0  0  0  0  0  0  0  0  0  0  0
   59.1940   30.4170   51.0700 C   0  0  0  0  0  0  0  0  0  0  0  0
   59.6010   31.5870   50.2750 N   0  0  0  0  0  0  0  0  0  0  0  0
   59.2110   31.6250   48.8850 C   0  0  0  0  0  0  0  0  0  0  0  0
   58.2630   32.3680   48.5140 O   0  0  0  0  0  0  0  0  0  0  0  0
   59.8430   30.6930   47.8910 C   0  0  0  0  0  0  0  0  0  0  0  0
   58.8170   30.1150   46.9560 C   0  0  0  0  0  0  0  0  0  0  0  0
   58.2570   28.5280   47.0620 S   0  0  0  0  0  0  0  0  0  0  0  0
   57.0850   28.7620   45.8900 C   0  0  0  0  0  0  0  0  0  0  0  0
   56.2710   27.8370   45.4910 N   0  0  0  0  0  0  0  0  0  0  0  0
   56.5240   26.1510   45.8040 S   0  0  0  0  0  0  0  0  0  0  0  0
   57.0090   25.9630   47.2140 O   0  0  0  0  0  0  0  0  0  0  0  0
   55.2350   25.4020   45.6060 O   0  0  0  0  0  0  0  0  0  0  0  0
   57.7520   25.5190   44.6760 C   0  0  0  0  0  0  0  0  0  0  0  0
   57.4550   24.0860   44.3330 C   0  0  0  0  0  0  0  0  0  0  0  0
   58.1460   23.0460   44.9760 C   0  0  0  0  0  0  0  0  0  0  0  0
   57.9000   21.7140   44.6250 C   0  0  0  0  0  0  0  0  0  0  0  0
   56.9730   21.4140   43.6220 C   0  0  0  0  0  0  0  0  0  0  0  0
   56.2900   22.4430   42.9690 C   0  0  0  0  0  0  0  0  0  0  0  0
   56.5310   23.7760   43.3200 C   0  0  0  0  0  0  0  0  0  0  0  0
   57.0800   30.0250   45.4140 N   0  0  0  0  0  0  0  0  0  0  0  0
   58.0440   30.7910   45.9970 C   0  0  0  0  0  0  0  0  0  0  0  0
   58.1810   32.2170   45.6440 C   0  0  0  0  0  0  0  0  0  0  0  0
   59.4360   32.8500   45.6400 C   0  0  0  0  0  0  0  0  0  0  0  0
   59.5470   34.1970   45.2770 C   0  0  0  0  0  0  0  0  0  0  0  0
   58.4110   34.9130   44.8950 C   0  0  0  0  0  0  0  0  0  0  0  0
   57.1640   34.2860   44.8690 C   0  0  0  0  0  0  0  0  0  0  0  0
   57.0490   32.9410   45.2320 C   0  0  0  0  0  0  0  0  0  0  0  0
   60.2100   32.7280   50.9930 C   0  0  1  0  0  0  0  0  0  0  0  0
   60.6200   33.9090   50.0730 C   0  0  0  0  0  0  0  0  0  0  0  0
   61.7080   33.5310   49.0940 C   0  0  0  0  0  0  0  0  0  0  0  0
   62.7930   32.7360   49.5050 C   0  0  0  0  0  0  0  0  0  0  0  0
   63.7980   32.3880   48.5970 C   0  0  0  0  0  0  0  0  0  0  0  0
   63.7340   32.8380   47.2750 C   0  0  0  0  0  0  0  0  0  0  0  0
   62.6640   33.6330   46.8580 C   0  0  0  0  0  0  0  0  0  0  0  0
   61.6560   33.9820   47.7630 C   0  0  0  0  0  0  0  0  0  0  0  0
   59.2700   33.1330   52.1130 C   0  0  0  0  0  0  0  0  0  0  0  0
   59.2810   34.2760   52.5470 O   0  0  0  0  0  0  0  0  0  0  0  0
   56.1333   30.8009   53.5719 H   0  0  0  0  0  0  0  0  0  0  0  0
   55.2214   31.0400   52.0429 H   0  0  0  0  0  0  0  0  0  0  0  0
   56.7383   30.0780   52.0429 H   0  0  0  0  0  0  0  0  0  0  0  0
   57.0775   32.3690   51.1149 H   0  0  0  0  0  0  0  0  0  0  0  0
   56.5240   33.0518   52.7068 H   0  0  0  0  0  0  0  0  0  0  0  0
   58.3920   32.3170   53.7660 H   0  0  0  0  0  0  0  0  0  0  0  0
   59.9583   30.7403   53.0687 H   0  0  0  0  0  0  0  0  0  0  0  0
   58.2730   30.0598   52.9803 H   0  0  0  0  0  0  0  0  0  0  0  0
   59.9764   29.6471   50.9979 H   0  0  0  0  0  0  0  0  0  0  0  0
   58.2386   30.0459   50.6706 H   0  0  0  0  0  0  0  0  0  0  0  0
   60.5903   31.2476   47.3045 H   0  0  0  0  0  0  0  0  0  0  0  0
   60.3160   29.8665   48.4416 H   0  0  0  0  0  0  0  0  0  0  0  0
   57.7443   26.1217   43.7559 H   0  0  0  0  0  0  0  0  0  0  0  0
   58.7409   25.5755   45.1544 H   0  0  0  0  0  0  0  0  0  0  0  0
   58.8832   23.2794   45.7583 H   0  0  0  0  0  0  0  0  0  0  0  0
   58.4362   20.9023   45.1384 H   0  0  0  0  0  0  0  0  0  0  0  0
   56.7813   20.3664   43.3468 H   0  0  0  0  0  0  0  0  0  0  0  0
   55.5626   22.2053   42.1788 H   0  0  0  0  0  0  0  0  0  0  0  0
   55.9952   24.5845   42.8011 H   0  0  0  0  0  0  0  0  0  0  0  0
   60.3354   32.2838   45.9236 H   0  0  0  0  0  0  0  0  0  0  0  0
   60.5294   34.6916   45.2927 H   0  0  0  0  0  0  0  0  0  0  0  0
   58.4987   35.9729   44.6141 H   0  0  0  0  0  0  0  0  0  0  0  0
   56.2712   34.8508   44.5626 H   0  0  0  0  0  0  0  0  0  0  0  0
   56.0671   32.4465   45.1950 H   0  0  0  0  0  0  0  0  0  0  0  0
   61.1718   32.4064   51.4192 H   0  0  0  0  0  0  0  0  0  0  0  0
   59.7360   34.2388   49.5076 H   0  0  0  0  0  0  0  0  0  0  0  0
   61.0127   34.7113   50.7149 H   0  0  0  0  0  0  0  0  0  0  0  0
   62.8514   32.3861   50.5462 H   0  0  0  0  0  0  0  0  0  0  0  0
   64.6397   31.7595   48.9233 H   0  0  0  0  0  0  0  0  0  0  0  0
   64.5268   32.5658   46.5627 H   0  0  0  0  0  0  0  0  0  0  0  0
   62.6139   33.9850   45.8170 H   0  0  0  0  0  0  0  0  0  0  0  0
   60.8179   34.6128   47.4317 H   0  0  0  0  0  0  0  0  0  0  0  0
  1  2  1  0
  2  3  1  0
  3  4  1  0
  4  5  1  0
  5  6  1  0
  6  7  1  0
  7  8  2  0
  7  9  1  0
  9 10  1  0
 10 11  1  0
 11 12  1  0
 12 13  2  3
 13 14  1  0
 14 15  2  0
 14 16  2  0
 14 17  1  0
 17 18  1  0
 18 19  2  0
 19 20  1  0
 20 21  2  0
 21 22  1  0
 22 23  2  0
 12 24  1  0
 24 25  1  0
 25 26  1  0
 26 27  2  0
 27 28  1  0
 28 29  2  0
 29 30  1  0
 30 31  2  0
  6 32  1  0
 32 33  1  0
 33 34  1  0
 34 35  2  0
 35 36  1  0
 36 37  2  0
 37 38  1  0
 38 39  2  0
 32 40  1  0
 40 41  2  0
 40  3  1  0
 25 10  2  0
 31 26  1  0
 39 34  1  0
 23 18  1  0
  1 42  1  0
  1 43  1  0
  1 44  1  0
  2 45  1  0
  2 46  1  0
  3 47  1  1
  4 48  1  0
  4 49  1  0
  5 50  1  0
  5 51  1  0
  9 52  1  0
  9 53  1  0
 17 54  1  0
 17 55  1  0
 19 56  1  0
 20 57  1  0
 21 58  1  0
 22 59  1  0
 23 60  1  0
 27 61  1  0
 28 62  1  0
 29 63  1  0
 30 64  1  0
 31 65  1  0
 32 66  1  1
 33 67  1  0
 33 68  1  0
 35 69  1  0
 36 70  1  0
 37 71  1  0
 38 72  1  0
 39 73  1  0
M  CHG  2   3   1  24  -1
M  END
>  <UniqueID>  (76) 
70

>  <SMILES>  (76) 
CC[N@H+]1CCN(C(=O)Cc2sc(=NS(=O)(=O)Cc3ccccc3)[n-]c2-c2ccccc2)[C@@H](Cc2ccccc2)C1=O

>  <Energy>  (76) 
118.41486420380016

>  <Genealogy>  (76) 
CC[NH+]1CCN(C(=O)Cc2sc(=NS(=O)(=O)Cc3ccccc3)[n-]c2-c2ccccc2)C(Cc2ccccc2)C1=O (protonated)
CC[N@H+]1CCN(C(=O)Cc2sc(=NS(=O)(=O)Cc3ccccc3)[n-]c2-c2ccccc2)[C@@H](Cc2ccccc2)C1=O (chirality)
CC[N@H+]1CCN(C(=O)Cc2sc(=NS(=O)(=O)Cc3ccccc3)[n-]c2-c2ccccc2)[C@@H](Cc2ccccc2)C1=O (3D coordinates assigned)
CC[N@H+]1CCN(C(=O)Cc2sc(=NS(=O)(=O)Cc3ccccc3)[n-]c2-c2ccccc2)[C@@H](Cc2ccccc2)C1=O (nonaromatic ring conformer: 118.41486420380016 kcal/mol)

>  <smiles>  (76) 
CCN1CCN(C(=O)Cc2sc(=NS(=O)(=O)Cc3ccccc3)[nH]c2-c2ccccc2)C(Cc2ccccc2)C1=O

>  <score_type>  (76) 
oracle

>  <origin>  (76) 
adg

>  <m_score__min__energy>  (76) 
-11.710000000000001

>  <m_primary>  (76) 
energy

$$$$
76:0
     RDKit          3D

 62 66  0  0  0  0  0  0  0  0999 V2000
   61.4720   28.5590   48.3170 O   0  0  0  0  0  0  0  0  0  0  0  0
   60.3460   28.4170   47.7710 C   0  0  0  0  0  0  0  0  0  0  0  0
   59.6770   27.2530   47.9620 N   0  0  0  0  0  0  0  0  0  0  0  0
   58.4810   27.0150   47.3760 C   0  0  0  0  0  0  0  0  0  0  0  0
   57.8110   25.8110   47.6170 C   0  0  0  0  0  0  0  0  0  0  0  0
   56.5610   25.5710   47.0370 C   0  0  0  0  0  0  0  0  0  0  0  0
   55.9100   24.3670   47.3000 O   0  0  0  0  0  0  0  0  0  0  0  0
   55.9820   26.5440   46.2040 C   0  0  0  0  0  0  0  0  0  0  0  0
   54.7400   26.3220   45.6210 O   0  0  0  0  0  0  0  0  0  0  0  0
   56.6540   27.7450   45.9560 C   0  0  0  0  0  0  0  0  0  0  0  0
   57.9080   27.9910   46.5450 C   0  0  0  0  0  0  0  0  0  0  0  0
   58.6130   29.1910   46.3430 C   0  0  0  0  0  0  0  0  0  0  0  0
   58.1400   30.0580   45.5570 O   0  0  0  0  0  0  0  0  0  0  0  0
   59.8130   29.4110   46.9810 N   0  0  0  0  0  0  0  0  0  0  0  0
   60.6100   30.6180   46.6610 C   0  0  0  0  0  0  0  0  0  0  0  0
   61.4090   31.1560   47.8370 C   0  0  0  0  0  0  0  0  0  0  0  0
   62.7080   31.6370   47.5750 C   0  0  0  0  0  0  0  0  0  0  0  0
   63.4500   32.2780   48.5640 C   0  0  0  0  0  0  0  0  0  0  0  0
   62.8970   32.4900   49.8220 C   0  0  0  0  0  0  0  0  0  0  0  0
   61.6110   32.0340   50.1060 C   0  0  0  0  0  0  0  0  0  0  0  0
   60.8620   31.3220   49.1450 C   0  0  0  0  0  0  0  0  0  0  0  0
   59.4970   30.7890   49.5520 C   0  0  0  0  0  0  0  0  0  0  0  0
   58.4590   31.8510   49.5250 N   0  0  0  0  0  0  0  0  0  0  0  0
   57.6710   31.8890   50.7880 C   0  0  0  0  0  0  0  0  0  0  0  0
   58.4650   32.5710   51.8700 C   0  0  0  0  0  0  0  0  0  0  0  0
   59.5350   31.9080   52.4960 C   0  0  0  0  0  0  0  0  0  0  0  0
   60.2990   32.5640   53.4670 C   0  0  0  0  0  0  0  0  0  0  0  0
   59.9960   33.8820   53.8240 C   0  0  0  0  0  0  0  0  0  0  0  0
   58.9240   34.5410   53.2180 C   0  0  0  0  0  0  0  0  0  0  0  0
   58.1550   33.8870   52.2510 C   0  0  0  0  0  0  0  0  0  0  0  0
   59.1000   33.1650   49.2660 C   0  0  0  0  0  0  0  0  0  0  0  0
   58.9340   33.6220   47.8340 C   0  0  0  0  0  0  0  0  0  0  0  0
   57.9660   33.0380   47.0050 C   0  0  0  0  0  0  0  0  0  0  0  0
   57.8340   33.4400   45.6720 C   0  0  0  0  0  0  0  0  0  0  0  0
   58.6750   34.4270   45.1560 C   0  0  0  0  0  0  0  0  0  0  0  0
   59.6460   35.0140   45.9710 C   0  0  0  0  0  0  0  0  0  0  0  0
   59.7820   34.6090   47.3030 C   0  0  0  0  0  0  0  0  0  0  0  0
   58.2691   25.0496   48.2654 H   0  0  0  0  0  0  0  0  0  0  0  0
   54.9340   24.2200   47.0690 H   0  0  0  0  0  0  0  0  0  0  0  0
   56.2004   28.5006   45.2977 H   0  0  0  0  0  0  0  0  0  0  0  0
   61.3112   30.3660   45.8518 H   0  0  0  0  0  0  0  0  0  0  0  0
   59.8976   31.4045   46.3715 H   0  0  0  0  0  0  0  0  0  0  0  0
   63.1425   31.5039   46.5733 H   0  0  0  0  0  0  0  0  0  0  0  0
   64.4744   32.6168   48.3498 H   0  0  0  0  0  0  0  0  0  0  0  0
   63.4754   33.0184   50.5942 H   0  0  0  0  0  0  0  0  0  0  0  0
   61.1727   32.2323   51.0952 H   0  0  0  0  0  0  0  0  0  0  0  0
   59.2055   29.9886   48.8561 H   0  0  0  0  0  0  0  0  0  0  0  0
   59.5714   30.4101   50.5820 H   0  0  0  0  0  0  0  0  0  0  0  0
   56.7363   32.4434   50.6176 H   0  0  0  0  0  0  0  0  0  0  0  0
   57.4424   30.8599   51.1021 H   0  0  0  0  0  0  0  0  0  0  0  0
   59.7723   30.8696   52.2213 H   0  0  0  0  0  0  0  0  0  0  0  0
   61.1387   32.0429   53.9501 H   0  0  0  0  0  0  0  0  0  0  0  0
   60.6021   34.3996   54.5821 H   0  0  0  0  0  0  0  0  0  0  0  0
   58.6844   35.5763   53.5021 H   0  0  0  0  0  0  0  0  0  0  0  0
   57.3033   34.4053   51.7863 H   0  0  0  0  0  0  0  0  0  0  0  0
   58.6458   33.9153   49.9299 H   0  0  0  0  0  0  0  0  0  0  0  0
   60.1775   33.0529   49.4567 H   0  0  0  0  0  0  0  0  0  0  0  0
   57.3043   32.2565   47.4066 H   0  0  0  0  0  0  0  0  0  0  0  0
   57.0682   32.9788   45.0310 H   0  0  0  0  0  0  0  0  0  0  0  0
   58.5733   34.7428   44.1072 H   0  0  0  0  0  0  0  0  0  0  0  0
   60.3046   35.7958   45.5647 H   0  0  0  0  0  0  0  0  0  0  0  0
   60.5561   35.0651   47.9377 H   0  0  0  0  0  0  0  0  0  0  0  0
  1  2  2  0
  2  3  1  0
  3  4  1  0
  4  5  2  0
  5  6  1  0
  6  7  1  0
  6  8  2  0
  8  9  1  0
  8 10  1  0
 10 11  2  0
 11 12  1  0
 12 13  2  0
 12 14  1  0
 14 15  1  0
 15 16  1  0
 16 17  2  0
 17 18  1  0
 18 19  2  0
 19 20  1  0
 20 21  2  0
 21 22  1  0
 22 23  1  0
 23 24  1  0
 24 25  1  0
 25 26  2  0
 26 27  1  0
 27 28  2  0
 28 29  1  0
 29 30  2  0
 23 31  1  0
 31 32  1  0
 32 33  2  0
 33 34  1  0
 34 35  2  0
 35 36  1  0
 36 37  2  0
 14  2  1  0
 21 16  1  0
 30 25  1  0
 37 32  1  0
 11  4  1  0
  5 38  1  0
  7 39  1  0
 10 40  1  0
 15 41  1  0
 15 42  1  0
 17 43  1  0
 18 44  1  0
 19 45  1  0
 20 46  1  0
 22 47  1  0
 22 48  1  0
 24 49  1  0
 24 50  1  0
 26 51  1  0
 27 52  1  0
 28 53  1  0
 29 54  1  0
 30 55  1  0
 31 56  1  0
 31 57  1  0
 33 58  1  0
 34 59  1  0
 35 60  1  0
 36 61  1  0
 37 62  1  0
M  CHG  2   3  -1   9  -1
M  END
>  <UniqueID>  (77) 
71

>  <SMILES>  (77) 
O=c1[n-]c2cc(O)c([O-])cc2c(=O)n1Cc1ccccc1CN(Cc1ccccc1)Cc1ccccc1

>  <Energy>  (77) 
79.33202646765768

>  <Genealogy>  (77) 
O=c1[n-]c2cc(O)c([O-])cc2c(=O)n1Cc1ccccc1CN(Cc1ccccc1)Cc1ccccc1 (protonated)
O=c1[n-]c2cc(O)c([O-])cc2c(=O)n1Cc1ccccc1CN(Cc1ccccc1)Cc1ccccc1 (3D coordinates assigned)
O=c1[n-]c2cc(O)c([O-])cc2c(=O)n1Cc1ccccc1CN(Cc1ccccc1)Cc1ccccc1 (optimized conformer: 79.33202646765768 kcal/mol)

>  <smiles>  (77) 
O=c1[nH]c2cc(O)c(O)cc2c(=O)n1Cc1ccccc1CN(Cc1ccccc1)Cc1ccccc1

>  <score_type>  (77) 
oracle

>  <origin>  (77) 
adg

>  <m_score__min__energy>  (77) 
-13.800000000000001

>  <m_primary>  (77) 
energy

$$$$
77:0
     RDKit          3D

 38 40  0  0  0  0  0  0  0  0999 V2000
   59.1986   31.3509   46.5038 H   0  0  0  0  0  0  0  0  0  0  0  0
   58.9520   30.2840   46.6080 C   0  0  0  0  0  0  0  0  0  0  0  0
   59.3418   29.7102   47.4617 H   0  0  0  0  0  0  0  0  0  0  0  0
   58.1750   29.6820   45.6930 C   0  0  0  0  0  0  0  0  0  0  0  0
   57.7760   28.3390   45.6890 C   0  0  0  0  0  0  0  0  0  0  0  0
   58.0710   27.4060   46.6210 C   0  0  0  0  0  0  0  0  0  0  0  0
   58.9136   27.6212   47.2946 H   0  0  0  0  0  0  0  0  0  0  0  0
   57.3630   26.1200   46.8180 C   0  0  0  0  0  0  0  0  0  0  0  0
   57.9010   24.9820   47.2920 N   0  0  0  0  0  0  0  0  0  0  0  0
   56.8730   24.1090   47.2610 C   0  0  0  0  0  0  0  0  0  0  0  0
   56.9880   22.9130   47.6370 O   0  0  0  0  0  0  0  0  0  0  0  0
   55.7130   24.6140   46.7940 N   0  0  0  0  0  0  0  0  0  0  0  0
   56.0410   25.8870   46.5160 C   0  0  0  0  0  0  0  0  0  0  0  0
   55.1480   26.8170   45.9970 O   0  0  0  0  0  0  0  0  0  0  0  0
   57.0220   28.1670   44.5310 C   0  0  0  0  0  0  0  0  0  0  0  0
   56.5386   27.2378   44.1950 H   0  0  0  0  0  0  0  0  0  0  0  0
   56.9980   29.3870   43.8860 C   0  0  0  0  0  0  0  0  0  0  0  0
   56.2270   29.6750   42.6330 C   0  0  0  0  0  0  0  0  0  0  0  0
   55.2264   30.0488   42.8959 H   0  0  0  0  0  0  0  0  0  0  0  0
   56.7587   30.4351   42.0418 H   0  0  0  0  0  0  0  0  0  0  0  0
   56.1301   28.7524   42.0418 H   0  0  0  0  0  0  0  0  0  0  0  0
   57.6820   30.3080   44.5960 N   0  0  0  0  0  0  0  0  0  0  0  0
   57.7880   31.7020   44.2650 C   0  0  0  0  0  0  0  0  0  0  0  0
   58.3950   32.0500   43.2160 O   0  0  0  0  0  0  0  0  0  0  0  0
   57.0850   32.7340   45.0960 C   0  0  0  0  0  0  0  0  0  0  0  0
   56.4536   33.3582   44.4466 H   0  0  0  0  0  0  0  0  0  0  0  0
   56.4586   32.2315   45.8477 H   0  0  0  0  0  0  0  0  0  0  0  0
   58.0980   33.6010   45.7910 C   0  0  0  0  0  0  0  0  0  0  0  0
   58.7560   34.6190   45.0790 C   0  0  0  0  0  0  0  0  0  0  0  0
   58.5599   34.7497   44.0045 H   0  0  0  0  0  0  0  0  0  0  0  0
   59.6580   35.4660   45.7290 C   0  0  0  0  0  0  0  0  0  0  0  0
   60.1749   36.2556   45.1639 H   0  0  0  0  0  0  0  0  0  0  0  0
   59.9040   35.3110   47.0960 C   0  0  0  0  0  0  0  0  0  0  0  0
   60.6166   35.9764   47.6053 H   0  0  0  0  0  0  0  0  0  0  0  0
   59.2450   34.3110   47.8160 C   0  0  0  0  0  0  0  0  0  0  0  0
   59.4363   34.1937   48.8929 H   0  0  0  0  0  0  0  0  0  0  0  0
   58.3430   33.4590   47.1710 C   0  0  0  0  0  0  0  0  0  0  0  0
   57.6990   32.5070   47.8940 F   0  0  0  0  0  0  0  0  0  0  0  0
  1  2  1  0
  2  3  1  0
  2  4  2  0
  4  5  1  0
  5  6  2  0
  6  7  1  0
  6  8  1  0
  8  9  1  0
  9 10  1  0
 10 11  2  0
 10 12  1  0
 12 13  1  0
 13 14  1  0
  5 15  1  0
 15 16  1  0
 15 17  2  0
 17 18  1  0
 18 19  1  0
 18 20  1  0
 18 21  1  0
 17 22  1  0
 22 23  1  0
 23 24  2  0
 23 25  1  0
 25 26  1  0
 25 27  1  0
 25 28  1  0
 28 29  2  0
 29 30  1  0
 29 31  1  0
 31 32  1  0
 31 33  2  0
 33 34  1  0
 33 35  1  0
 35 36  1  0
 35 37  2  0
 37 38  1  0
 22  4  1  0
 37 28  1  0
 13  8  2  0
M  CHG  3   9  -1  12  -1  14  -1
M  END
>  <UniqueID>  (78) 
72

>  <SMILES>  (78) 
C=c1/c(=C/c2[n-]c(=O)[n-]c2[O-])cc(C)n1C(=O)Cc1ccccc1F

>  <Energy>  (78) 
105.81879097058957

>  <Genealogy>  (78) 
C=c1c(=Cc2[n-]c(=O)[n-]c2[O-])cc(C)n1C(=O)Cc1ccccc1F (protonated)
C=c1/c(=C/c2[n-]c(=O)[n-]c2[O-])cc(C)n1C(=O)Cc1ccccc1F (cis-trans isomerization)
C=c1/c(=C/c2[n-]c(=O)[n-]c2[O-])cc(C)n1C(=O)Cc1ccccc1F (3D coordinates assigned)
C=c1/c(=C/c2[n-]c(=O)[n-]c2[O-])cc(C)n1C(=O)Cc1ccccc1F (optimized conformer: 105.81879097058957 kcal/mol)

>  <smiles>  (78) 
C=c1c(=Cc2[nH]c(=O)[nH]c2O)cc(C)n1C(=O)Cc1ccccc1F

>  <score_type>  (78) 
oracle

>  <origin>  (78) 
adg

>  <m_score__min__energy>  (78) 
-15.65

>  <m_primary>  (78) 
energy

$$$$
78:0
     RDKit          3D

 28 29  0  0  0  0  0  0  0  0999 V2000
   58.9640   28.0400   45.0400 O   0  0  0  0  0  0  0  0  0  0  0  0
   57.9820   28.7880   44.7840 C   0  0  0  0  0  0  0  0  0  0  0  0
   58.1190   29.9310   44.0700 C   0  0  0  0  0  0  0  0  0  0  0  0
   57.0180   30.7780   43.7770 C   0  0  0  0  0  0  0  0  0  0  0  0
   57.3390   31.9700   43.0220 C   0  0  0  0  0  0  0  0  0  0  0  0
   58.4000   32.8980   43.3870 C   0  0  0  0  0  0  0  0  0  0  0  0
   58.5730   33.3630   44.7460 C   0  0  0  0  0  0  0  0  0  0  0  0
   59.6130   34.0930   45.2700 C   0  0  0  0  0  0  0  0  0  0  0  0
   59.6820   34.5100   46.5780 C   0  0  0  0  0  0  0  0  0  0  0  0
   58.6670   34.1980   47.4560 C   0  0  0  0  0  0  0  0  0  0  0  0
   57.6110   33.4700   46.9750 C   0  0  0  0  0  0  0  0  0  0  0  0
   57.5520   33.0560   45.6590 C   0  0  0  0  0  0  0  0  0  0  0  0
   55.8540   30.3590   44.2560 N   0  0  0  0  0  0  0  0  0  0  0  0
   55.7140   29.2230   44.9670 N   0  0  0  0  0  0  0  0  0  0  0  0
   56.7420   28.4330   45.2410 C   0  0  0  0  0  0  0  0  0  0  0  0
   56.5550   27.3770   45.9120 O   0  0  0  0  0  0  0  0  0  0  0  0
   59.1176   30.2125   43.7047 H   0  0  0  0  0  0  0  0  0  0  0  0
   57.5799   31.6248   42.0057 H   0  0  0  0  0  0  0  0  0  0  0  0
   56.4464   32.5853   43.2083 H   0  0  0  0  0  0  0  0  0  0  0  0
   59.3456   32.4125   43.1041 H   0  0  0  0  0  0  0  0  0  0  0  0
   58.0961   33.8165   42.8636 H   0  0  0  0  0  0  0  0  0  0  0  0
   60.4432   34.3607   44.5998 H   0  0  0  0  0  0  0  0  0  0  0  0
   60.5481   35.0932   46.9240 H   0  0  0  0  0  0  0  0  0  0  0  0
   58.7034   34.5222   48.5065 H   0  0  0  0  0  0  0  0  0  0  0  0
   56.7875   33.2081   47.6557 H   0  0  0  0  0  0  0  0  0  0  0  0
   56.6845   32.4719   45.3181 H   0  0  0  0  0  0  0  0  0  0  0  0
   55.0130   30.8850   44.0860 H   0  0  0  0  0  0  0  0  0  0  0  0
   54.7700   28.9490   45.3170 H   0  0  0  0  0  0  0  0  0  0  0  0
  1  2  2  0
  2  3  1  0
  3  4  2  0
  4  5  1  0
  5  6  1  0
  6  7  1  0
  7  8  2  0
  8  9  1  0
  9 10  2  0
 10 11  1  0
 11 12  2  0
  4 13  1  0
 13 14  1  0
 14 15  1  0
 15 16  2  0
 15  2  1  0
 12  7  1  0
  3 17  1  0
  5 18  1  0
  5 19  1  0
  6 20  1  0
  6 21  1  0
  8 22  1  0
  9 23  1  0
 10 24  1  0
 11 25  1  0
 12 26  1  0
 13 27  1  0
 14 28  1  0
M  END
>  <smiles>  (79) 
O=c1cc(CCc2ccccc2)[nH][nH]c1=O

>  <score_type>  (79) 
oracle

>  <origin>  (79) 
adg

>  <m_score__min__energy>  (79) 
-6.8099999999999996

>  <m_primary>  (79) 
energy

$$$$
79:0
     RDKit          3D

 49 52  0  0  0  0  0  0  0  0999 V2000
   60.4746   29.7287   44.3078 H   0  0  0  0  0  0  0  0  0  0  0  0
   59.9170   29.6860   45.2550 C   0  0  0  0  0  0  0  0  0  0  0  0
   60.3310   30.3260   46.3820 N   0  0  0  0  0  0  0  0  0  0  0  0
   59.4810   30.1290   47.4140 C   0  0  0  0  0  0  0  0  0  0  0  0
   59.6940   30.6540   48.5860 N   0  0  0  0  0  0  0  0  0  0  0  0
   58.9150   30.4800   49.7820 C   0  0  0  0  0  0  0  0  0  0  0  0
   58.3380   29.3870   50.0340 O   0  0  0  0  0  0  0  0  0  0  0  0
   58.7850   31.5960   50.7290 C   0  0  0  0  0  0  0  0  0  0  0  0
   57.3820   32.0090   51.5610 S   0  0  0  0  0  0  0  0  0  0  0  0
   58.0340   33.3260   52.3800 C   0  0  0  0  0  0  0  0  0  0  0  0
   57.4980   33.9736   53.0895 H   0  0  0  0  0  0  0  0  0  0  0  0
   59.3660   33.4550   52.0060 C   0  0  0  0  0  0  0  0  0  0  0  0
   60.0273   34.2415   52.3987 H   0  0  0  0  0  0  0  0  0  0  0  0
   59.7880   32.4910   51.0830 C   0  0  0  0  0  0  0  0  0  0  0  0
   60.8100   32.4462   50.6787 H   0  0  0  0  0  0  0  0  0  0  0  0
   58.1730   29.1530   46.9720 S   0  0  0  0  0  0  0  0  0  0  0  0
   58.7340   28.9750   45.3980 C   0  0  0  0  0  0  0  0  0  0  0  0
   57.9270   28.0150   44.1190 S   0  0  0  0  0  0  0  0  0  0  0  0
   56.6700   29.2840   43.7460 C   0  0  0  0  0  0  0  0  0  0  0  0
   55.8010   29.1364   44.4041 H   0  0  0  0  0  0  0  0  0  0  0  0
   56.3701   29.1870   42.6921 H   0  0  0  0  0  0  0  0  0  0  0  0
   57.2250   30.6550   43.9650 C   0  0  0  0  0  0  0  0  0  0  0  0
   57.3760   31.2050   45.1470 O   0  0  0  0  0  0  0  0  0  0  0  0
   57.8610   32.4160   44.9820 C   0  0  0  0  0  0  0  0  0  0  0  0
   58.1550   33.3480   46.0850 C   0  0  0  0  0  0  0  0  0  0  0  0
   57.2930   34.2150   46.4010 O   0  0  0  0  0  0  0  0  0  0  0  0
   59.3970   33.2550   46.8250 N   0  0  0  0  0  0  0  0  0  0  0  0
   59.5620   32.2520   47.0870 H   0  0  0  0  0  0  0  0  0  0  0  0
   59.3060   34.0520   48.0700 C   0  0  0  0  0  0  0  0  0  0  0  0
   58.6739   33.5126   48.7907 H   0  0  0  0  0  0  0  0  0  0  0  0
   58.8746   35.0309   47.8139 H   0  0  0  0  0  0  0  0  0  0  0  0
   60.6910   34.2960   48.7080 C   0  0  0  0  0  0  0  0  0  0  0  0
   60.6116   34.1872   49.7997 H   0  0  0  0  0  0  0  0  0  0  0  0
   61.0277   35.3118   48.4534 H   0  0  0  0  0  0  0  0  0  0  0  0
   61.6710   33.3240   48.1930 N   0  0  0  0  0  0  0  0  0  0  0  0
   62.9500   33.4550   48.9080 C   0  0  0  0  0  0  0  0  0  0  0  0
   62.7674   33.4363   49.9926 H   0  0  0  0  0  0  0  0  0  0  0  0
   63.6110   32.6199   48.6330 H   0  0  0  0  0  0  0  0  0  0  0  0
   63.4280   34.4068   48.6330 H   0  0  0  0  0  0  0  0  0  0  0  0
   61.8730   33.5090   46.7390 C   0  0  0  0  0  0  0  0  0  0  0  0
   62.3856   32.6234   46.3353 H   0  0  0  0  0  0  0  0  0  0  0  0
   62.4759   34.4170   46.5906 H   0  0  0  0  0  0  0  0  0  0  0  0
   60.5330   33.6950   45.9920 C   0  0  0  0  0  0  0  0  0  0  0  0
   60.5517   33.1008   45.0665 H   0  0  0  0  0  0  0  0  0  0  0  0
   60.4056   34.7631   45.7620 H   0  0  0  0  0  0  0  0  0  0  0  0
   58.0390   32.6720   43.6340 C   0  0  0  0  0  0  0  0  0  0  0  0
   58.4278   33.5955   43.1801 H   0  0  0  0  0  0  0  0  0  0  0  0
   57.6290   31.5320   42.9770 C   0  0  0  0  0  0  0  0  0  0  0  0
   57.6244   31.3567   41.8911 H   0  0  0  0  0  0  0  0  0  0  0  0
  1  2  1  0
  2  3  1  0
  3  4  1  0
  4  5  2  0
  5  6  1  0
  6  7  2  0
  6  8  1  0
  8  9  1  0
  9 10  1  0
 10 11  1  0
 10 12  2  0
 12 13  1  0
 12 14  1  0
 14 15  1  0
  4 16  1  0
 16 17  1  0
 17 18  1  0
 18 19  1  0
 19 20  1  0
 19 21  1  0
 19 22  1  0
 22 23  1  0
 23 24  1  0
 24 25  1  0
 25 26  2  0
 25 27  1  0
 27 28  1  0
 27 29  1  0
 29 30  1  0
 29 31  1  0
 29 32  1  0
 32 33  1  0
 32 34  1  0
 32 35  1  0
 35 36  1  0
 36 37  1  0
 36 38  1  0
 36 39  1  0
 35 40  1  0
 40 41  1  0
 40 42  1  0
 40 43  1  0
 43 44  1  0
 43 45  1  0
 24 46  2  0
 46 47  1  0
 46 48  1  0
 48 49  1  0
 17  2  2  0
 48 22  2  0
 14  8  2  0
 43 27  1  0
M  CHG  2   3  -1  27   1
M  END
>  <UniqueID>  (80) 
73

>  <SMILES>  (80) 
CN1CC[NH+](C(=O)c2ccc(CSc3c[n-]/c(=N/C(=O)c4cccs4)s3)o2)CC1

>  <Energy>  (80) 
140.08177233710742

>  <Genealogy>  (80) 
CN1CC[NH+](C(=O)c2ccc(CSc3c[n-]c(=NC(=O)c4cccs4)s3)o2)CC1 (protonated)
CN1CC[NH+](C(=O)c2ccc(CSc3c[n-]/c(=N/C(=O)c4cccs4)s3)o2)CC1 (cis-trans isomerization)
CN1CC[NH+](C(=O)c2ccc(CSc3c[n-]/c(=N/C(=O)c4cccs4)s3)o2)CC1 (3D coordinates assigned)
CN1CC[NH+](C(=O)c2ccc(CSc3c[n-]/c(=N/C(=O)c4cccs4)s3)o2)CC1 (nonaromatic ring conformer: 140.08177233710742 kcal/mol)

>  <smiles>  (80) 
CN1CCN(C(=O)c2ccc(CSc3c[nH]c(=NC(=O)c4cccs4)s3)o2)CC1

>  <score_type>  (80) 
oracle

>  <origin>  (80) 
adg

>  <m_score__min__energy>  (80) 
-9.7699999999999996

>  <m_primary>  (80) 
energy

$$$$
80:0
     RDKit          3D

 48 50  0  0  0  0  0  0  0  0999 V2000
   61.4100   29.6640   50.0740 C   0  0  0  0  0  0  0  0  0  0  0  0
   60.7840   30.8160   49.4190 N   0  0  0  0  0  0  0  0  0  0  0  0
   59.3640   30.8000   49.2010 C   0  0  0  0  0  0  0  0  0  0  0  0
   58.7350   29.7080   49.2130 O   0  0  0  0  0  0  0  0  0  0  0  0
   58.6130   32.0810   48.9900 C   0  0  2  0  0  0  0  0  0  0  0  0
   58.8080   32.5860   47.6260 N   0  0  0  0  0  0  0  0  0  0  0  0
   57.8140   33.3680   46.9510 C   0  0  0  0  0  0  0  0  0  0  0  0
   56.6460   33.4490   47.4220 O   0  0  0  0  0  0  0  0  0  0  0  0
   58.1530   34.0600   45.6540 C   0  0  2  0  0  0  0  0  0  0  0  0
   56.9490   34.5920   45.0100 N   0  0  0  0  0  0  0  0  0  0  0  0
   58.8910   33.0930   44.7140 C   0  0  0  0  0  0  0  0  0  0  0  0
   58.2530   31.7250   44.7230 C   0  0  0  0  0  0  0  0  0  0  0  0
   57.0010   31.5360   44.1100 C   0  0  0  0  0  0  0  0  0  0  0  0
   56.3840   30.2820   44.1400 C   0  0  0  0  0  0  0  0  0  0  0  0
   57.0060   29.2090   44.7830 C   0  0  0  0  0  0  0  0  0  0  0  0
   58.2470   29.3890   45.4020 C   0  0  0  0  0  0  0  0  0  0  0  0
   58.8700   30.6420   45.3790 C   0  0  0  0  0  0  0  0  0  0  0  0
   60.0690   30.7950   45.9960 F   0  0  0  0  0  0  0  0  0  0  0  0
   59.0480   33.1090   50.0530 C   0  0  0  0  0  0  0  0  0  0  0  0
   60.3720   33.8390   49.7560 C   0  0  0  0  0  0  0  0  0  0  0  0
   61.3740   33.1780   48.8190 C   0  0  0  0  0  0  0  0  0  0  0  0
   62.1960   34.0470   48.0740 C   0  0  0  0  0  0  0  0  0  0  0  0
   63.1940   33.5530   47.2360 C   0  0  0  0  0  0  0  0  0  0  0  0
   63.4010   32.1820   47.1310 C   0  0  0  0  0  0  0  0  0  0  0  0
   62.6120   31.3010   47.8670 C   0  0  0  0  0  0  0  0  0  0  0  0
   61.5980   31.7750   48.7200 C   0  0  0  0  0  0  0  0  0  0  0  0
   61.3453   29.7830   51.1656 H   0  0  0  0  0  0  0  0  0  0  0  0
   60.8881   28.7433   49.7740 H   0  0  0  0  0  0  0  0  0  0  0  0
   62.4664   29.6010   49.7740 H   0  0  0  0  0  0  0  0  0  0  0  0
   57.5349   31.8963   49.1067 H   0  0  0  0  0  0  0  0  0  0  0  0
   59.7140   32.4020   47.1350 H   0  0  0  0  0  0  0  0  0  0  0  0
   58.8161   34.9086   45.8779 H   0  0  0  0  0  0  0  0  0  0  0  0
   56.5880   33.9040   44.3090 H   0  0  0  0  0  0  0  0  0  0  0  0
   56.2070   34.7210   45.7360 H   0  0  0  0  0  0  0  0  0  0  0  0
   58.8613   33.4955   43.6907 H   0  0  0  0  0  0  0  0  0  0  0  0
   59.9293   32.9940   45.0634 H   0  0  0  0  0  0  0  0  0  0  0  0
   56.5056   32.3784   43.6050 H   0  0  0  0  0  0  0  0  0  0  0  0
   55.4064   30.1398   43.6562 H   0  0  0  0  0  0  0  0  0  0  0  0
   56.5196   28.2226   44.8024 H   0  0  0  0  0  0  0  0  0  0  0  0
   58.7350   28.5432   45.9085 H   0  0  0  0  0  0  0  0  0  0  0  0
   58.2542   33.8656   50.1397 H   0  0  0  0  0  0  0  0  0  0  0  0
   59.2146   32.5390   50.9789 H   0  0  0  0  0  0  0  0  0  0  0  0
   60.1134   34.8145   49.3184 H   0  0  0  0  0  0  0  0  0  0  0  0
   60.8884   33.8639   50.7269 H   0  0  0  0  0  0  0  0  0  0  0  0
   62.0474   35.1339   48.1553 H   0  0  0  0  0  0  0  0  0  0  0  0
   63.8189   34.2487   46.6568 H   0  0  0  0  0  0  0  0  0  0  0  0
   64.1873   31.7934   46.4672 H   0  0  0  0  0  0  0  0  0  0  0  0
   62.7842   30.2180   47.7801 H   0  0  0  0  0  0  0  0  0  0  0  0
  1  2  1  0
  2  3  1  0
  3  4  2  0
  3  5  1  0
  5  6  1  0
  6  7  1  0
  7  8  2  0
  7  9  1  0
  9 10  1  0
  9 11  1  0
 11 12  1  0
 12 13  2  0
 13 14  1  0
 14 15  2  0
 15 16  1  0
 16 17  2  0
 17 18  1  0
  5 19  1  0
 19 20  1  0
 20 21  1  0
 21 22  2  0
 22 23  1  0
 23 24  2  0
 24 25  1  0
 25 26  2  0
 26  2  1  0
 17 12  1  0
 26 21  1  0
  1 27  1  0
  1 28  1  0
  1 29  1  0
  5 30  1  1
  6 31  1  0
  9 32  1  1
 10 33  1  0
 10 34  1  0
 11 35  1  0
 11 36  1  0
 13 37  1  0
 14 38  1  0
 15 39  1  0
 16 40  1  0
 19 41  1  0
 19 42  1  0
 20 43  1  0
 20 44  1  0
 22 45  1  0
 23 46  1  0
 24 47  1  0
 25 48  1  0
M  END
>  <UniqueID>  (81) 
74

>  <SMILES>  (81) 
CN1C(=O)[C@H](NC(=O)[C@H](N)Cc2ccccc2F)CCc2ccccc21

>  <Energy>  (81) 
60.505945333295166

>  <Genealogy>  (81) 
CN1C(=O)[C@H](NC(=O)[C@H](N)Cc2ccccc2F)CCc2ccccc21 (chirality)
CN1C(=O)[C@H](NC(=O)[C@H](N)Cc2ccccc2F)CCc2ccccc21 (3D coordinates assigned)
CN1C(=O)[C@H](NC(=O)[C@H](N)Cc2ccccc2F)CCc2ccccc21 (nonaromatic ring conformer: 60.505945333295166 kcal/mol)

>  <smiles>  (81) 
CN1C(=O)C(NC(=O)C(N)Cc2ccccc2F)CCc2ccccc21

>  <score_type>  (81) 
oracle

>  <origin>  (81) 
adg

>  <m_score__min__energy>  (81) 
-7.04

>  <m_primary>  (81) 
energy

$$$$
81:0
     RDKit          3D

 30 32  0  0  0  0  0  0  0  0999 V2000
   59.7264   29.7445   46.5047 H   0  0  0  0  0  0  0  0  0  0  0  0
   58.8540   30.0680   45.9180 C   0  0  0  0  0  0  0  0  0  0  0  0
   58.0820   29.1440   45.3190 C   0  0  0  0  0  0  0  0  0  0  0  0
   58.3950   27.7060   45.5480 C   0  0  0  0  0  0  0  0  0  0  0  0
   59.4260   27.3781   45.3493 H   0  0  0  0  0  0  0  0  0  0  0  0
   57.5210   26.7690   45.9790 C   0  0  0  0  0  0  0  0  0  0  0  0
   56.2190   26.8100   45.5850 N   0  0  0  0  0  0  0  0  0  0  0  0
   55.3180   25.8790   45.9850 C   0  0  0  0  0  0  0  0  0  0  0  0
   54.1230   25.9560   45.6000 O   0  0  0  0  0  0  0  0  0  0  0  0
   55.7050   24.8650   46.7970 N   0  0  0  0  0  0  0  0  0  0  0  0
   56.9880   24.7530   47.2280 C   0  0  0  0  0  0  0  0  0  0  0  0
   57.3110   23.7300   48.0260 C   0  0  0  0  0  0  0  0  0  0  0  0
   58.3440   23.6192   48.3873 H   0  0  0  0  0  0  0  0  0  0  0  0
   56.5437   22.9992   48.3212 H   0  0  0  0  0  0  0  0  0  0  0  0
   57.9400   25.7130   46.8230 C   0  0  0  0  0  0  0  0  0  0  0  0
   59.1410   25.6300   47.2090 O   0  0  0  0  0  0  0  0  0  0  0  0
   56.9450   29.5840   44.4100 C   0  0  0  0  0  0  0  0  0  0  0  0
   56.1010   28.8909   44.5411 H   0  0  0  0  0  0  0  0  0  0  0  0
   57.3221   29.5740   43.3767 H   0  0  0  0  0  0  0  0  0  0  0  0
   56.4950   30.9130   44.6940 O   0  0  0  0  0  0  0  0  0  0  0  0
   57.3490   31.8920   45.2040 C   0  0  0  0  0  0  0  0  0  0  0  0
   56.9960   33.2440   45.1440 C   0  0  0  0  0  0  0  0  0  0  0  0
   56.0427   33.5449   44.6850 H   0  0  0  0  0  0  0  0  0  0  0  0
   57.8580   34.2130   45.6690 C   0  0  0  0  0  0  0  0  0  0  0  0
   57.5858   35.2774   45.6152 H   0  0  0  0  0  0  0  0  0  0  0  0
   59.0650   33.8300   46.2620 C   0  0  0  0  0  0  0  0  0  0  0  0
   59.8960   34.7710   46.7750 F   0  0  0  0  0  0  0  0  0  0  0  0
   59.4130   32.4760   46.3360 C   0  0  0  0  0  0  0  0  0  0  0  0
   60.3583   32.1746   46.8109 H   0  0  0  0  0  0  0  0  0  0  0  0
   58.5530   31.5050   45.8030 C   0  0  0  0  0  0  0  0  0  0  0  0
  1  2  1  0
  2  3  2  0
  3  4  1  0
  4  5  1  0
  4  6  2  0
  6  7  1  0
  7  8  1  0
  8  9  2  0
  8 10  1  0
 10 11  1  0
 11 12  2  0
 12 13  1  0
 12 14  1  0
 11 15  1  0
 15 16  2  0
  3 17  1  0
 17 18  1  0
 17 19  1  0
 17 20  1  0
 20 21  1  0
 21 22  2  0
 22 23  1  0
 22 24  1  0
 24 25  1  0
 24 26  2  0
 26 27  1  0
 26 28  1  0
 28 29  1  0
 28 30  2  0
 30  2  1  0
 15  6  1  0
 30 21  1  0
M  CHG  2   7  -1  10  -1
M  END
>  <UniqueID>  (82) 
75

>  <SMILES>  (82) 
C=c1[n-]c(=O)[n-]/c(=C\C2=Cc3cc(F)ccc3OC2)c1=O

>  <Energy>  (82) 
44.50455710907513

>  <Genealogy>  (82) 
C=c1[n-]c(=O)[n-]c(=CC2=Cc3cc(F)ccc3OC2)c1=O (protonated)
C=c1[n-]c(=O)[n-]/c(=C\C2=Cc3cc(F)ccc3OC2)c1=O (cis-trans isomerization)
C=c1[n-]c(=O)[n-]/c(=C\C2=Cc3cc(F)ccc3OC2)c1=O (3D coordinates assigned)
C=c1[n-]c(=O)[n-]/c(=C\C2=Cc3cc(F)ccc3OC2)c1=O (nonaromatic ring conformer: 44.50455710907513 kcal/mol)

>  <smiles>  (82) 
C=c1[nH]c(=O)[nH]c(=CC2=Cc3cc(F)ccc3OC2)c1=O

>  <score_type>  (82) 
oracle

>  <origin>  (82) 
adg

>  <m_score__min__energy>  (82) 
-11.859999999999999

>  <m_primary>  (82) 
energy

$$$$
82:0
     RDKit          3D

 28 29  0  0  0  0  0  0  0  0999 V2000
   56.1350   29.4730   42.6080 N   0  0  0  0  0  0  0  0  0  0  0  0
   56.9290   30.4680   43.2530 C   0  0  0  0  0  0  0  0  0  0  0  0
   57.2660   31.5050   42.6210 O   0  0  0  0  0  0  0  0  0  0  0  0
   57.4030   30.2650   44.6610 C   0  0  0  0  0  0  0  0  0  0  0  0
   57.1510   28.8600   45.1300 C   0  0  0  0  0  0  0  0  0  0  0  0
   55.9300   28.3020   45.2410 N   0  0  0  0  0  0  0  0  0  0  0  0
   56.1850   27.0940   45.7810 C   0  0  0  0  0  0  0  0  0  0  0  0
   55.2780   26.2600   46.0340 O   0  0  0  0  0  0  0  0  0  0  0  0
   57.4860   26.8550   46.0380 N   0  0  0  0  0  0  0  0  0  0  0  0
   58.0960   27.9790   45.6240 C   0  0  0  0  0  0  0  0  0  0  0  0
   59.5670   28.2290   45.7850 C   0  0  0  0  0  0  0  0  0  0  0  0
   59.8920   28.4740   47.1910 N   0  0  0  0  0  0  0  0  0  0  0  0
   59.8410   29.6450   47.8700 C   0  0  0  0  0  0  0  0  0  0  0  0
   59.3780   31.1990   47.1950 Cl  0  0  0  0  0  0  0  0  0  0  0  0
   60.2360   29.4320   49.1790 C   0  0  0  0  0  0  0  0  0  0  0  0
   60.5340   28.1270   49.3050 N   0  0  0  0  0  0  0  0  0  0  0  0
   60.9830   27.4820   50.4660 N   0  0  0  0  0  0  0  0  0  0  0  0
   60.3230   27.5700   48.0980 C   0  0  0  0  0  0  0  0  0  0  0  0
   60.5100   26.3500   47.8440 O   0  0  0  0  0  0  0  0  0  0  0  0
   55.8160   29.6090   41.6230 H   0  0  0  0  0  0  0  0  0  0  0  0
   55.8690   28.5960   43.1090 H   0  0  0  0  0  0  0  0  0  0  0  0
   58.4829   30.4690   44.7074 H   0  0  0  0  0  0  0  0  0  0  0  0
   56.8460   30.9521   45.3150 H   0  0  0  0  0  0  0  0  0  0  0  0
   60.1250   27.3492   45.4320 H   0  0  0  0  0  0  0  0  0  0  0  0
   59.8451   29.1147   45.1949 H   0  0  0  0  0  0  0  0  0  0  0  0
   60.2954   30.1920   49.9720 H   0  0  0  0  0  0  0  0  0  0  0  0
   61.0690   28.0090   51.3630 H   0  0  0  0  0  0  0  0  0  0  0  0
   61.2350   26.4680   50.4470 H   0  0  0  0  0  0  0  0  0  0  0  0
  1  2  1  0
  2  3  2  0
  2  4  1  0
  4  5  1  0
  5  6  1  0
  6  7  1  0
  7  8  2  0
  7  9  1  0
  9 10  1  0
 10 11  1  0
 11 12  1  0
 12 13  1  0
 13 14  1  0
 13 15  2  0
 15 16  1  0
 16 17  1  0
 16 18  1  0
 18 19  2  0
 10  5  2  0
 18 12  1  0
  1 20  1  0
  1 21  1  0
  4 22  1  0
  4 23  1  0
 11 24  1  0
 11 25  1  0
 15 26  1  0
 17 27  1  0
 17 28  1  0
M  CHG  2   6  -1   9  -1
M  END
>  <UniqueID>  (83) 
76

>  <SMILES>  (83) 
NC(=O)Cc1[n-]c(=O)[n-]c1Cn1c(Cl)cn(N)c1=O

>  <Energy>  (83) 
85.40352955264174

>  <Genealogy>  (83) 
NC(=O)Cc1[n-]c(=O)[n-]c1Cn1c(Cl)cn(N)c1=O (protonated)
NC(=O)Cc1[n-]c(=O)[n-]c1Cn1c(Cl)cn(N)c1=O (3D coordinates assigned)
NC(=O)Cc1[n-]c(=O)[n-]c1Cn1c(Cl)cn(N)c1=O (optimized conformer: 85.40352955264174 kcal/mol)

>  <smiles>  (83) 
NC(=O)Cc1[nH]c(=O)[nH]c1Cn1c(Cl)cn(N)c1=O

>  <score_type>  (83) 
oracle

>  <origin>  (83) 
adg

>  <m_score__min__energy>  (83) 
-9.3599999999999994

>  <m_primary>  (83) 
energy

$$$$
83:0
     RDKit          3D

 56 59  0  0  0  0  0  0  0  0999 V2000
   56.6320   22.4030   48.6950 C   0  0  0  0  0  0  0  0  0  0  0  0
   57.2190   23.2560   47.6720 N   0  0  0  0  0  0  0  0  0  0  0  0
   56.5280   24.3140   46.9930 C   0  0  0  0  0  0  0  0  0  0  0  0
   55.2910   24.1930   46.7870 O   0  0  0  0  0  0  0  0  0  0  0  0
   57.2100   25.5500   46.5590 C   0  0  0  0  0  0  0  0  0  0  0  0
   58.6040   25.6720   46.6570 C   0  0  0  0  0  0  0  0  0  0  0  0
   59.2380   26.8470   46.2460 C   0  0  0  0  0  0  0  0  0  0  0  0
   58.4880   27.8970   45.7090 C   0  0  0  0  0  0  0  0  0  0  0  0
   57.1030   27.7720   45.5530 C   0  0  0  0  0  0  0  0  0  0  0  0
   56.3660   28.8840   45.0170 N   0  0  0  0  0  0  0  0  0  0  0  0
   56.8570   29.9820   44.5220 C   0  0  0  0  0  0  0  0  0  0  0  0
   57.3960   30.9040   45.3630 N   0  0  0  0  0  0  0  0  0  0  0  0
   57.9510   32.0590   44.9000 C   0  0  0  0  0  0  0  0  0  0  0  0
   58.4960   33.0170   45.8360 N   0  0  0  0  0  0  0  0  0  0  0  0
   57.6930   34.1840   46.2170 C   0  0  0  0  0  0  0  0  0  0  0  0
   59.8370   32.8850   46.3490 C   0  0  0  0  0  0  0  0  0  0  0  0
   60.2690   31.6740   46.9110 C   0  0  0  0  0  0  0  0  0  0  0  0
   61.5680   31.5510   47.4130 C   0  0  0  0  0  0  0  0  0  0  0  0
   62.4630   32.6280   47.3440 C   0  0  0  0  0  0  0  0  0  0  0  0
   63.7810   32.4840   47.8970 N   0  0  0  0  0  0  0  0  0  0  0  0
   64.2230   33.1140   49.1090 C   0  0  0  0  0  0  0  0  0  0  0  0
   63.5310   34.0260   49.6390 O   0  0  0  0  0  0  0  0  0  0  0  0
   65.5460   32.7020   49.7090 C   0  0  0  0  0  0  0  0  0  0  0  0
   65.9440   33.5630   50.9060 C   0  0  0  0  0  0  0  0  0  0  0  0
   65.9310   32.3320   51.8010 C   0  0  0  0  0  0  0  0  0  0  0  0
   65.5240   31.4670   50.6160 C   0  0  0  0  0  0  0  0  0  0  0  0
   62.0260   33.8460   46.7940 C   0  0  0  0  0  0  0  0  0  0  0  0
   60.7270   33.9690   46.2920 C   0  0  0  0  0  0  0  0  0  0  0  0
   57.9530   32.3030   43.5180 C   0  0  0  0  0  0  0  0  0  0  0  0
   57.4090   31.3430   42.6670 C   0  0  0  0  0  0  0  0  0  0  0  0
   56.8800   30.2040   43.1800 N   0  0  0  0  0  0  0  0  0  0  0  0
   56.4630   26.5990   46.0000 C   0  0  0  0  0  0  0  0  0  0  0  0
   56.8973   22.7886   49.6905 H   0  0  0  0  0  0  0  0  0  0  0  0
   55.5376   22.3971   48.5838 H   0  0  0  0  0  0  0  0  0  0  0  0
   57.0174   21.3787   48.5838 H   0  0  0  0  0  0  0  0  0  0  0  0
   59.2001   24.8394   47.0589 H   0  0  0  0  0  0  0  0  0  0  0  0
   60.3290   26.9460   46.3451 H   0  0  0  0  0  0  0  0  0  0  0  0
   58.9899   28.8281   45.4069 H   0  0  0  0  0  0  0  0  0  0  0  0
   57.6450   34.2538   47.3137 H   0  0  0  0  0  0  0  0  0  0  0  0
   58.1558   35.0958   45.8115 H   0  0  0  0  0  0  0  0  0  0  0  0
   56.6760   34.0775   45.8115 H   0  0  0  0  0  0  0  0  0  0  0  0
   59.5816   30.8165   46.9568 H   0  0  0  0  0  0  0  0  0  0  0  0
   61.8904   30.6017   47.8657 H   0  0  0  0  0  0  0  0  0  0  0  0
   64.4900   31.9510   47.3430 H   0  0  0  0  0  0  0  0  0  0  0  0
   66.1413   32.6730   48.7845 H   0  0  0  0  0  0  0  0  0  0  0  0
   66.9321   34.0366   50.8090 H   0  0  0  0  0  0  0  0  0  0  0  0
   65.3514   34.4503   51.1734 H   0  0  0  0  0  0  0  0  0  0  0  0
   66.9129   32.0766   52.2260 H   0  0  0  0  0  0  0  0  0  0  0  0
   65.3336   32.3241   52.7246 H   0  0  0  0  0  0  0  0  0  0  0  0
   66.2629   30.6981   50.3462 H   0  0  0  0  0  0  0  0  0  0  0  0
   64.6274   30.8322   50.6714 H   0  0  0  0  0  0  0  0  0  0  0  0
   62.7099   34.7068   46.7585 H   0  0  0  0  0  0  0  0  0  0  0  0
   60.4002   34.9215   45.8494 H   0  0  0  0  0  0  0  0  0  0  0  0
   58.3761   33.2346   43.1141 H   0  0  0  0  0  0  0  0  0  0  0  0
   57.4085   31.5087   41.5796 H   0  0  0  0  0  0  0  0  0  0  0  0
   55.3707   26.5046   45.9104 H   0  0  0  0  0  0  0  0  0  0  0  0
  1  2  1  0
  2  3  1  0
  3  4  2  0
  3  5  1  0
  5  6  2  0
  6  7  1  0
  7  8  2  0
  8  9  1  0
  9 10  1  0
 10 11  2  3
 11 12  1  0
 12 13  2  0
 13 14  1  0
 14 15  1  0
 14 16  1  0
 16 17  2  0
 17 18  1  0
 18 19  2  0
 19 20  1  0
 20 21  1  0
 21 22  2  0
 21 23  1  0
 23 24  1  0
 24 25  1  0
 25 26  1  0
 19 27  1  0
 27 28  2  0
 13 29  1  0
 29 30  2  0
 30 31  1  0
  9 32  2  0
 32  5  1  0
 31 11  1  0
 28 16  1  0
 26 23  1  0
  1 33  1  0
  1 34  1  0
  1 35  1  0
  6 36  1  0
  7 37  1  0
  8 38  1  0
 15 39  1  0
 15 40  1  0
 15 41  1  0
 17 42  1  0
 18 43  1  0
 20 44  1  0
 23 45  1  0
 24 46  1  0
 24 47  1  0
 25 48  1  0
 25 49  1  0
 26 50  1  0
 26 51  1  0
 27 52  1  0
 28 53  1  0
 29 54  1  0
 30 55  1  0
 32 56  1  0
M  CHG  2   2  -1  31  -1
M  END
>  <UniqueID>  (84) 
77

>  <SMILES>  (84) 
C[N-]C(=O)c1cccc(N=c2nc(N(C)c3ccc(NC(=O)C4CCC4)cc3)cc[n-]2)c1

>  <Energy>  (84) 
140.7648217640844

>  <Genealogy>  (84) 
C[N-]C(=O)c1cccc(N=c2nc(N(C)c3ccc(NC(=O)C4CCC4)cc3)cc[n-]2)c1 (protonated)
C[N-]C(=O)c1cccc(N=c2nc(N(C)c3ccc(NC(=O)C4CCC4)cc3)cc[n-]2)c1 (3D coordinates assigned)
C[N-]C(=O)c1cccc(N=c2nc(N(C)c3ccc(NC(=O)C4CCC4)cc3)cc[n-]2)c1 (nonaromatic ring conformer: 140.7648217640844 kcal/mol)

>  <smiles>  (84) 
CNC(=O)c1cccc(N=c2nc(N(C)c3ccc(NC(=O)C4CCC4)cc3)cc[nH]2)c1

>  <score_type>  (84) 
oracle

>  <origin>  (84) 
adg

>  <m_score__min__energy>  (84) 
-13.529999999999999

>  <m_primary>  (84) 
energy

$$$$
84:0
     RDKit          3D

 76 80  0  0  0  0  0  0  0  0999 V2000
   56.5620   29.1840   42.3130 C   0  0  0  0  0  0  0  0  0  0  0  0
   57.0760   29.0630   43.5490 C   0  0  0  0  0  0  0  0  0  0  0  0
   58.3920   28.4820   43.7490 N   0  0  0  0  0  0  0  0  0  0  0  0
   58.3500   27.2670   44.5370 C   0  0  0  0  0  0  0  0  0  0  0  0
   57.8490   26.0860   43.9570 C   0  0  0  0  0  0  0  0  0  0  0  0
   57.8130   24.8890   44.6840 C   0  0  0  0  0  0  0  0  0  0  0  0
   57.1830   23.4230   43.9370 S   0  0  0  0  0  0  0  0  0  0  0  0
   56.8760   23.7070   42.4930 O   0  0  0  0  0  0  0  0  0  0  0  0
   58.2190   22.3350   44.0020 O   0  0  0  0  0  0  0  0  0  0  0  0
   55.7260   22.9110   44.7540 N   0  0  0  0  0  0  0  0  0  0  0  0
   54.7810   24.0410   44.8560 C   0  0  0  0  0  0  0  0  0  0  0  0
   53.7730   23.8060   45.9920 C   0  0  0  0  0  0  0  0  0  0  0  0
   54.3700   23.6680   47.2770 O   0  0  0  0  0  0  0  0  0  0  0  0
   55.7280   23.2510   47.2370 C   0  0  0  0  0  0  0  0  0  0  0  0
   56.0370   22.2990   46.0660 C   0  0  0  0  0  0  0  0  0  0  0  0
   58.2610   24.8700   46.0090 C   0  0  0  0  0  0  0  0  0  0  0  0
   58.7430   26.0360   46.6040 C   0  0  0  0  0  0  0  0  0  0  0  0
   58.7940   27.2360   45.8830 C   0  0  0  0  0  0  0  0  0  0  0  0
   59.2790   28.4110   46.5480 N   0  0  0  0  0  0  0  0  0  0  0  0
   60.2870   29.2530   45.9040 C   0  0  0  0  0  0  0  0  0  0  0  0
   61.1470   29.9410   46.9680 C   0  0  0  0  0  0  0  0  0  0  0  0
   60.3350   30.5810   47.9350 O   0  0  0  0  0  0  0  0  0  0  0  0
   59.5990   29.6120   48.6570 C   0  0  0  0  0  0  0  0  0  0  0  0
   58.5950   28.9010   47.7460 C   0  0  0  0  0  0  0  0  0  0  0  0
   56.3660   29.6820   44.7000 C   0  0  0  0  0  0  0  0  0  0  0  0
   55.1360   29.4660   44.8580 O   0  0  0  0  0  0  0  0  0  0  0  0
   57.0930   30.4570   45.6650 N   0  0  0  0  0  0  0  0  0  0  0  0
   57.7370   31.7250   45.4650 C   0  0  0  0  0  0  0  0  0  0  0  0
   57.6600   32.4280   44.2490 C   0  0  0  0  0  0  0  0  0  0  0  0
   58.2900   33.6670   44.1140 C   0  0  0  0  0  0  0  0  0  0  0  0
   59.0090   34.2110   45.1810 C   0  0  0  0  0  0  0  0  0  0  0  0
   59.1170   33.5110   46.3920 C   0  0  0  0  0  0  0  0  0  0  0  0
   59.8960   34.0690   47.5200 C   0  0  0  0  0  0  0  0  0  0  0  0
   59.4090   35.0150   48.1960 O   0  0  0  0  0  0  0  0  0  0  0  0
   61.2030   33.5670   47.8500 N   0  0  0  0  0  0  0  0  0  0  0  0
   62.1730   33.2170   46.8090 C   0  0  0  0  0  0  0  0  0  0  0  0
   63.5260   33.8520   47.1510 C   0  0  0  0  0  0  0  0  0  0  0  0
   63.9260   33.5120   48.4670 O   0  0  0  0  0  0  0  0  0  0  0  0
   63.0160   34.0520   49.4080 C   0  0  0  0  0  0  0  0  0  0  0  0
   61.6290   33.4250   49.2430 C   0  0  0  0  0  0  0  0  0  0  0  0
   58.4930   32.2580   46.5170 C   0  0  0  0  0  0  0  0  0  0  0  0
   55.5643   29.6256   42.1730 H   0  0  0  0  0  0  0  0  0  0  0  0
   57.1391   28.8415   41.4414 H   0  0  0  0  0  0  0  0  0  0  0  0
   58.8200   28.3290   42.8100 H   0  0  0  0  0  0  0  0  0  0  0  0
   59.0150   29.1520   44.2540 H   0  0  0  0  0  0  0  0  0  0  0  0
   57.4814   26.1034   42.9204 H   0  0  0  0  0  0  0  0  0  0  0  0
   55.3432   24.9647   45.0576 H   0  0  0  0  0  0  0  0  0  0  0  0
   54.2306   24.1282   43.9076 H   0  0  0  0  0  0  0  0  0  0  0  0
   53.0807   24.6603   46.0223 H   0  0  0  0  0  0  0  0  0  0  0  0
   53.2640   22.8555   45.7740 H   0  0  0  0  0  0  0  0  0  0  0  0
   56.3647   24.1427   47.1398 H   0  0  0  0  0  0  0  0  0  0  0  0
   55.9278   22.6996   48.1676 H   0  0  0  0  0  0  0  0  0  0  0  0
   57.1057   22.0397   46.0921 H   0  0  0  0  0  0  0  0  0  0  0  0
   55.4066   21.4049   46.1808 H   0  0  0  0  0  0  0  0  0  0  0  0
   58.2331   23.9325   46.5837 H   0  0  0  0  0  0  0  0  0  0  0  0
   59.0862   26.0130   47.6488 H   0  0  0  0  0  0  0  0  0  0  0  0
   60.9283   28.6295   45.2637 H   0  0  0  0  0  0  0  0  0  0  0  0
   59.7844   30.0179   45.2938 H   0  0  0  0  0  0  0  0  0  0  0  0
   61.7751   29.1878   47.4662 H   0  0  0  0  0  0  0  0  0  0  0  0
   61.7746   30.6995   46.4773 H   0  0  0  0  0  0  0  0  0  0  0  0
   60.2943   28.8696   49.0759 H   0  0  0  0  0  0  0  0  0  0  0  0
   59.0468   30.1175   49.4630 H   0  0  0  0  0  0  0  0  0  0  0  0
   58.1486   28.0526   48.2853 H   0  0  0  0  0  0  0  0  0  0  0  0
   57.8050   29.6077   47.4519 H   0  0  0  0  0  0  0  0  0  0  0  0
   57.1023   32.0008   43.4025 H   0  0  0  0  0  0  0  0  0  0  0  0
   58.2198   34.2167   43.1638 H   0  0  0  0  0  0  0  0  0  0  0  0
   59.4927   35.1928   45.0712 H   0  0  0  0  0  0  0  0  0  0  0  0
   62.2813   32.1235   46.7589 H   0  0  0  0  0  0  0  0  0  0  0  0
   61.8233   33.5910   45.8354 H   0  0  0  0  0  0  0  0  0  0  0  0
   64.2834   33.4908   46.4398 H   0  0  0  0  0  0  0  0  0  0  0  0
   63.4276   34.9456   47.0851 H   0  0  0  0  0  0  0  0  0  0  0  0
   63.3851   33.8493   50.4242 H   0  0  0  0  0  0  0  0  0  0  0  0
   62.9357   35.1361   49.2395 H   0  0  0  0  0  0  0  0  0  0  0  0
   61.6729   32.3583   49.5081 H   0  0  0  0  0  0  0  0  0  0  0  0
   60.9113   33.9328   49.9041 H   0  0  0  0  0  0  0  0  0  0  0  0
   58.5995   31.6889   47.4523 H   0  0  0  0  0  0  0  0  0  0  0  0
  1  2  2  0
  2  3  1  0
  3  4  1  0
  4  5  2  0
  5  6  1  0
  6  7  1  0
  7  8  2  0
  7  9  2  0
  7 10  1  0
 10 11  1  0
 11 12  1  0
 12 13  1  0
 13 14  1  0
 14 15  1  0
  6 16  2  0
 16 17  1  0
 17 18  2  0
 18 19  1  0
 19 20  1  0
 20 21  1  0
 21 22  1  0
 22 23  1  0
 23 24  1  0
  2 25  1  0
 25 26  2  0
 25 27  1  0
 27 28  1  0
 28 29  2  0
 29 30  1  0
 30 31  2  0
 31 32  1  0
 32 33  1  0
 33 34  2  0
 33 35  1  0
 35 36  1  0
 36 37  1  0
 37 38  1  0
 38 39  1  0
 39 40  1  0
 32 41  2  0
 18  4  1  0
 24 19  1  0
 41 28  1  0
 15 10  1  0
 40 35  1  0
  1 42  1  0
  1 43  1  0
  3 44  1  0
  3 45  1  0
  5 46  1  0
 11 47  1  0
 11 48  1  0
 12 49  1  0
 12 50  1  0
 14 51  1  0
 14 52  1  0
 15 53  1  0
 15 54  1  0
 16 55  1  0
 17 56  1  0
 20 57  1  0
 20 58  1  0
 21 59  1  0
 21 60  1  0
 23 61  1  0
 23 62  1  0
 24 63  1  0
 24 64  1  0
 29 65  1  0
 30 66  1  0
 31 67  1  0
 36 68  1  0
 36 69  1  0
 37 70  1  0
 37 71  1  0
 39 72  1  0
 39 73  1  0
 40 74  1  0
 40 75  1  0
 41 76  1  0
M  CHG  2   3   1  27  -1
M  END
>  <UniqueID>  (85) 
78

>  <SMILES>  (85) 
C=C([NH2+]c1cc(S(=O)(=O)N2CCOCC2)ccc1N1CCOCC1)C(=O)[N-]c1cccc(C(=O)N2CCOCC2)c1

>  <Energy>  (85) 
113.72905933762055

>  <Genealogy>  (85) 
C=C([NH2+]c1cc(S(=O)(=O)N2CCOCC2)ccc1N1CCOCC1)C(=O)[N-]c1cccc(C(=O)N2CCOCC2)c1 (protonated)
C=C([NH2+]c1cc(S(=O)(=O)N2CCOCC2)ccc1N1CCOCC1)C(=O)[N-]c1cccc(C(=O)N2CCOCC2)c1 (3D coordinates assigned)
C=C([NH2+]c1cc(S(=O)(=O)N2CCOCC2)ccc1N1CCOCC1)C(=O)[N-]c1cccc(C(=O)N2CCOCC2)c1 (nonaromatic ring conformer: 113.72905933762055 kcal/mol)

>  <smiles>  (85) 
C=C(Nc1cc(S(=O)(=O)N2CCOCC2)ccc1N1CCOCC1)C(=O)Nc1cccc(C(=O)N2CCOCC2)c1

>  <score_type>  (85) 
oracle

>  <origin>  (85) 
adg

>  <m_score__min__energy>  (85) 
-11.039999999999999

>  <m_primary>  (85) 
energy

$$$$
