0:0
     RDKit          3D

 44 46  0  0  0  0  0  0  0  0999 V2000
   57.0420   31.4500   43.8350 C   0  0  0  0  0  0  0  0  0  0  0  0
   56.6410   29.7510   44.1810 S   0  0  0  0  0  0  0  0  0  0  0  0
   56.6500   28.9440   42.9110 O   0  0  0  0  0  0  0  0  0  0  0  0
   55.2660   29.6890   44.7810 O   0  0  0  0  0  0  0  0  0  0  0  0
   57.7770   29.0960   45.3140 N   0  0  0  0  0  0  0  0  0  0  0  0
   58.7880   29.8380   46.0110 C   0  0  0  0  0  0  0  0  0  0  0  0
   60.1540   29.5570   45.8770 C   0  0  0  0  0  0  0  0  0  0  0  0
   61.0990   30.2990   46.5880 C   0  0  0  0  0  0  0  0  0  0  0  0
   60.7070   31.3410   47.4460 C   0  0  0  0  0  0  0  0  0  0  0  0
   59.3280   31.6610   47.5370 C   0  0  0  0  0  0  0  0  0  0  0  0
   58.3880   30.8900   46.8410 C   0  0  0  0  0  0  0  0  0  0  0  0
   58.8370   32.7570   48.3200 N   0  0  0  0  0  0  0  0  0  0  0  0
   59.6590   33.7390   48.9530 C   0  0  0  0  0  0  0  0  0  0  0  0
   59.4300   34.0620   50.1500 O   0  0  0  0  0  0  0  0  0  0  0  0
   60.7890   34.3750   48.2150 C   0  0  0  0  0  0  0  0  0  0  0  0
   61.9290   33.4130   48.1970 C   0  0  0  0  0  0  0  0  0  0  0  0
   63.1070   33.8670   48.1740 O   0  0  0  0  0  0  0  0  0  0  0  0
   61.7010   31.9900   48.2780 N   0  0  0  0  0  0  0  0  0  0  0  0
   62.3790   31.2010   49.3240 C   0  0  0  0  0  0  0  0  0  0  0  0
   61.3970   30.4460   50.1890 C   0  0  0  0  0  0  0  0  0  0  0  0
   61.7970   29.2740   50.8470 C   0  0  0  0  0  0  0  0  0  0  0  0
   60.8970   28.5760   51.6540 C   0  0  0  0  0  0  0  0  0  0  0  0
   59.5890   29.0390   51.8100 C   0  0  0  0  0  0  0  0  0  0  0  0
   59.1570   30.1980   51.1450 C   0  0  0  0  0  0  0  0  0  0  0  0
   57.7680   30.7010   51.2930 C   0  0  0  0  0  0  0  0  0  0  0  0
   57.3590   31.9560   50.7360 N   0  0  0  0  0  0  0  0  0  0  0  0
   56.9300   30.0260   51.9470 O   0  0  0  0  0  0  0  0  0  0  0  0
   60.0730   30.8930   50.3350 C   0  0  0  0  0  0  0  0  0  0  0  0
   57.1709   31.9963   44.7810 H   0  0  0  0  0  0  0  0  0  0  0  0
   57.9756   31.4956   43.2551 H   0  0  0  0  0  0  0  0  0  0  0  0
   56.2273   31.9082   43.2551 H   0  0  0  0  0  0  0  0  0  0  0  0
   60.4835   28.7480   45.2085 H   0  0  0  0  0  0  0  0  0  0  0  0
   62.1677   30.0643   46.4749 H   0  0  0  0  0  0  0  0  0  0  0  0
   57.3169   31.1160   46.9492 H   0  0  0  0  0  0  0  0  0  0  0  0
   60.4791   34.6056   47.1850 H   0  0  0  0  0  0  0  0  0  0  0  0
   61.0879   35.3117   48.7083 H   0  0  0  0  0  0  0  0  0  0  0  0
   63.0556   30.4798   48.8423 H   0  0  0  0  0  0  0  0  0  0  0  0
   62.9343   31.8979   49.9690 H   0  0  0  0  0  0  0  0  0  0  0  0
   62.8254   28.9028   50.7266 H   0  0  0  0  0  0  0  0  0  0  0  0
   61.2191   27.6586   52.1685 H   0  0  0  0  0  0  0  0  0  0  0  0
   58.8907   28.4910   52.4596 H   0  0  0  0  0  0  0  0  0  0  0  0
   58.0360   32.6160   50.2870 H   0  0  0  0  0  0  0  0  0  0  0  0
   56.3780   32.2880   50.8830 H   0  0  0  0  0  0  0  0  0  0  0  0
   59.7475   31.8015   49.8071 H   0  0  0  0  0  0  0  0  0  0  0  0
  1  2  1  0
  2  3  2  0
  2  4  2  0
  2  5  1  0
  5  6  1  0
  6  7  2  0
  7  8  1  0
  8  9  2  0
  9 10  1  0
 10 11  2  0
 10 12  1  0
 12 13  1  0
 13 14  2  0
 13 15  1  0
 15 16  1  0
 16 17  2  0
 16 18  1  0
 18 19  1  0
 19 20  1  0
 20 21  2  0
 21 22  1  0
 22 23  2  0
 23 24  1  0
 24 25  1  0
 25 26  1  0
 25 27  2  0
 24 28  2  0
 11  6  1  0
 28 20  1  0
 18  9  1  0
  1 29  1  0
  1 30  1  0
  1 31  1  0
  7 32  1  0
  8 33  1  0
 11 34  1  0
 15 35  1  0
 15 36  1  0
 19 37  1  0
 19 38  1  0
 21 39  1  0
 22 40  1  0
 23 41  1  0
 26 42  1  0
 26 43  1  0
 28 44  1  0
M  CHG  2   5  -1  12  -1
M  END
>  <UniqueID>  (1) 
1

>  <SMILES>  (1) 
CS(=O)(=O)[N-]c1ccc2c(c1)[N-]C(=O)CC(=O)N2Cc1cccc(C(N)=O)c1

>  <Energy>  (1) 
59.110147364173145

>  <Genealogy>  (1) 
CS(=O)(=O)[N-]c1ccc2c(c1)[N-]C(=O)CC(=O)N2Cc1cccc(C(N)=O)c1 (protonated)
CS(=O)(=O)[N-]c1ccc2c(c1)[N-]C(=O)CC(=O)N2Cc1cccc(C(N)=O)c1 (3D coordinates assigned)
CS(=O)(=O)[N-]c1ccc2c(c1)[N-]C(=O)CC(=O)N2Cc1cccc(C(N)=O)c1 (nonaromatic ring conformer: 59.110147364173145 kcal/mol)

>  <smiles>  (1) 
CS(=O)(=O)Nc1ccc2c(c1)NC(=O)CC(=O)N2Cc1cccc(C(N)=O)c1

>  <score_type>  (1) 
oracle

>  <origin>  (1) 
adg

>  <m_score__min__energy>  (1) 
-10.82

>  <m_primary>  (1) 
energy

$$$$
1:0
     RDKit          3D

 28 29  0  0  0  0  0  0  0  0999 V2000
   53.4550   26.3000   53.5080 C   0  0  0  0  0  0  0  0  0  0  0  0
   54.0650   27.5320   53.8800 O   0  0  0  0  0  0  0  0  0  0  0  0
   55.4500   27.7640   53.9040 C   0  0  0  0  0  0  0  0  0  0  0  0
   56.3210   26.9450   54.6520 C   0  0  0  0  0  0  0  0  0  0  0  0
   57.6880   27.2280   54.7040 C   0  0  0  0  0  0  0  0  0  0  0  0
   58.2030   28.3260   54.0180 C   0  0  0  0  0  0  0  0  0  0  0  0
   59.5290   28.6020   54.0780 F   0  0  0  0  0  0  0  0  0  0  0  0
   57.3540   29.1410   53.2660 C   0  0  0  0  0  0  0  0  0  0  0  0
   55.9800   28.8580   53.1850 C   0  0  0  0  0  0  0  0  0  0  0  0
   55.1170   29.7360   52.3670 C   0  0  0  0  0  0  0  0  0  0  0  0
   55.6560   30.5750   51.5960 O   0  0  0  0  0  0  0  0  0  0  0  0
   53.6820   29.6340   52.4440 N   0  0  0  0  0  0  0  0  0  0  0  0
   52.7700   30.4250   51.6670 C   0  0  0  0  0  0  0  0  0  0  0  0
   52.3290   30.0130   50.3990 C   0  0  0  0  0  0  0  0  0  0  0  0
   51.4170   30.8190   49.7150 C   0  0  0  0  0  0  0  0  0  0  0  0
   51.0070   30.4820   48.5730 O   0  0  0  0  0  0  0  0  0  0  0  0
   50.9650   31.9660   50.2840 N   0  0  0  0  0  0  0  0  0  0  0  0
   51.3820   32.3410   51.5200 C   0  0  0  0  0  0  0  0  0  0  0  0
   50.9450   33.4020   52.0360 O   0  0  0  0  0  0  0  0  0  0  0  0
   52.2690   31.5710   52.2020 N   0  0  0  0  0  0  0  0  0  0  0  0
   53.1778   25.7401   54.4133 H   0  0  0  0  0  0  0  0  0  0  0  0
   52.5532   26.5027   52.9117 H   0  0  0  0  0  0  0  0  0  0  0  0
   54.1629   25.7057   52.9117 H   0  0  0  0  0  0  0  0  0  0  0  0
   55.9214   26.0777   55.1980 H   0  0  0  0  0  0  0  0  0  0  0  0
   58.3599   26.5821   55.2883 H   0  0  0  0  0  0  0  0  0  0  0  0
   57.7642   30.0114   52.7329 H   0  0  0  0  0  0  0  0  0  0  0  0
   53.2620   28.9910   53.1520 H   0  0  0  0  0  0  0  0  0  0  0  0
   52.6942   29.0755   49.9543 H   0  0  0  0  0  0  0  0  0  0  0  0
  1  2  1  0
  2  3  1  0
  3  4  2  0
  4  5  1  0
  5  6  2  0
  6  7  1  0
  6  8  1  0
  8  9  2  0
  9 10  1  0
 10 11  2  0
 10 12  1  0
 12 13  1  0
 13 14  2  0
 14 15  1  0
 15 16  2  0
 15 17  1  0
 17 18  1  0
 18 19  2  0
 18 20  1  0
  9  3  1  0
 20 13  1  0
  1 21  1  0
  1 22  1  0
  1 23  1  0
  4 24  1  0
  5 25  1  0
  8 26  1  0
 12 27  1  0
 14 28  1  0
M  CHG  2  17  -1  20  -1
M  END
>  <UniqueID>  (2) 
2

>  <SMILES>  (2) 
COc1ccc(F)cc1C(=O)Nc1cc(=O)[n-]c(=O)[n-]1

>  <Energy>  (2) 
38.224418398776066

>  <Genealogy>  (2) 
COc1ccc(F)cc1C(=O)Nc1cc(=O)[n-]c(=O)[n-]1 (protonated)
COc1ccc(F)cc1C(=O)Nc1cc(=O)[n-]c(=O)[n-]1 (3D coordinates assigned)
COc1ccc(F)cc1C(=O)Nc1cc(=O)[n-]c(=O)[n-]1 (optimized conformer: 38.224418398776066 kcal/mol)

>  <smiles>  (2) 
COc1ccc(F)cc1C(=O)Nc1cc(=O)[nH]c(=O)[nH]1

>  <score_type>  (2) 
oracle

>  <origin>  (2) 
adg

>  <m_score__min__energy>  (2) 
-10.51

>  <m_primary>  (2) 
energy

$$$$
2:0
     RDKit          3D

 56 58  0  0  0  0  0  0  0  0999 V2000
   57.7720   26.4110   42.6610 C   0  0  0  0  0  0  0  0  0  0  0  0
   57.6340   25.2390   43.6320 C   0  0  0  0  0  0  0  0  0  0  0  0
   56.8850   24.0470   43.0060 C   0  0  0  0  0  0  0  0  0  0  0  0
   56.0660   23.2240   44.0170 C   0  0  0  0  0  0  0  0  0  0  0  0
   54.6090   23.6980   44.1820 C   0  0  0  0  0  0  0  0  0  0  0  0
   54.3000   24.2090   45.5590 C   0  0  0  0  0  0  0  0  0  0  0  0
   53.6170   23.5050   46.3520 O   0  0  0  0  0  0  0  0  0  0  0  0
   54.6500   25.5240   45.8890 O   0  0  0  0  0  0  0  0  0  0  0  0
   55.9540   25.9620   46.1620 C   0  0  0  0  0  0  0  0  0  0  0  0
   56.8100   25.0960   46.8510 C   0  0  0  0  0  0  0  0  0  0  0  0
   58.1160   25.4810   47.1520 C   0  0  0  0  0  0  0  0  0  0  0  0
   58.5810   26.7390   46.7670 C   0  0  0  0  0  0  0  0  0  0  0  0
   57.7400   27.6290   46.0800 C   0  0  0  0  0  0  0  0  0  0  0  0
   58.2620   28.9590   45.6930 C   0  0  0  0  0  0  0  0  0  0  0  0
   59.4790   29.0700   45.3780 O   0  0  0  0  0  0  0  0  0  0  0  0
   57.3980   30.1090   45.6700 N   0  0  0  0  0  0  0  0  0  0  0  0
   57.8320   31.4330   45.3180 C   0  0  0  0  0  0  0  0  0  0  0  0
   57.4580   32.0290   44.1000 C   0  0  0  0  0  0  0  0  0  0  0  0
   57.8610   33.3330   43.8020 C   0  0  0  0  0  0  0  0  0  0  0  0
   58.6280   34.0580   44.7180 C   0  0  0  0  0  0  0  0  0  0  0  0
   58.9930   33.4820   45.9400 C   0  0  0  0  0  0  0  0  0  0  0  0
   59.9230   34.4170   47.1070 S   0  0  0  0  0  0  0  0  0  0  0  0
   61.3970   34.1990   46.9070 O   0  0  0  0  0  0  0  0  0  0  0  0
   59.6310   35.8780   46.9150 O   0  0  0  0  0  0  0  0  0  0  0  0
   59.4780   33.9540   48.7190 N   0  0  0  0  0  0  0  0  0  0  0  0
   59.4110   32.7240   49.1260 C   0  0  0  0  0  0  0  0  0  0  0  0
   58.3810   32.3410   49.9260 N   0  0  0  0  0  0  0  0  0  0  0  0
   58.2750   31.0600   50.3680 C   0  0  0  0  0  0  0  0  0  0  0  0
   59.2340   30.1170   50.0030 C   0  0  0  0  0  0  0  0  0  0  0  0
   60.2850   30.5220   49.1820 C   0  0  0  0  0  0  0  0  0  0  0  0
   60.3550   31.8120   48.7610 N   0  0  0  0  0  0  0  0  0  0  0  0
   58.5840   32.1740   46.2410 C   0  0  0  0  0  0  0  0  0  0  0  0
   56.4080   27.2510   45.8110 C   0  0  0  0  0  0  0  0  0  0  0  0
   55.5240   28.1690   45.2560 O   0  0  0  0  0  0  0  0  0  0  0  0
   57.8822   27.3466   43.2289 H   0  0  0  0  0  0  0  0  0  0  0  0
   58.6586   26.2600   42.0276 H   0  0  0  0  0  0  0  0  0  0  0  0
   56.8746   26.4700   42.0276 H   0  0  0  0  0  0  0  0  0  0  0  0
   58.6391   24.9075   43.9316 H   0  0  0  0  0  0  0  0  0  0  0  0
   57.0510   25.5859   44.4979 H   0  0  0  0  0  0  0  0  0  0  0  0
   56.1991   24.4338   42.2379 H   0  0  0  0  0  0  0  0  0  0  0  0
   57.6485   23.3732   42.5900 H   0  0  0  0  0  0  0  0  0  0  0  0
   56.0524   22.1771   43.6796 H   0  0  0  0  0  0  0  0  0  0  0  0
   56.5526   23.3492   44.9955 H   0  0  0  0  0  0  0  0  0  0  0  0
   54.4216   24.5065   43.4600 H   0  0  0  0  0  0  0  0  0  0  0  0
   53.9622   22.8256   44.0070 H   0  0  0  0  0  0  0  0  0  0  0  0
   56.4497   24.1030   47.1579 H   0  0  0  0  0  0  0  0  0  0  0  0
   58.7806   24.7920   47.6937 H   0  0  0  0  0  0  0  0  0  0  0  0
   59.6136   27.0355   47.0033 H   0  0  0  0  0  0  0  0  0  0  0  0
   56.4080   29.9990   45.9830 H   0  0  0  0  0  0  0  0  0  0  0  0
   56.8461   31.4663   43.3796 H   0  0  0  0  0  0  0  0  0  0  0  0
   57.5738   33.7904   42.8437 H   0  0  0  0  0  0  0  0  0  0  0  0
   58.9454   35.0835   44.4780 H   0  0  0  0  0  0  0  0  0  0  0  0
   57.4332   30.7680   51.0131 H   0  0  0  0  0  0  0  0  0  0  0  0
   59.1631   29.0771   50.3547 H   0  0  0  0  0  0  0  0  0  0  0  0
   61.0557   29.7993   48.8757 H   0  0  0  0  0  0  0  0  0  0  0  0
   58.8553   31.7264   47.2085 H   0  0  0  0  0  0  0  0  0  0  0  0
  1  2  1  0
  2  3  1  0
  3  4  1  0
  4  5  1  0
  5  6  1  0
  6  7  2  0
  6  8  1  0
  8  9  1  0
  9 10  2  0
 10 11  1  0
 11 12  2  0
 12 13  1  0
 13 14  1  0
 14 15  2  0
 14 16  1  0
 16 17  1  0
 17 18  2  0
 18 19  1  0
 19 20  2  0
 20 21  1  0
 21 22  1  0
 22 23  2  0
 22 24  2  0
 22 25  1  0
 25 26  2  3
 26 27  1  0
 27 28  2  0
 28 29  1  0
 29 30  2  0
 30 31  1  0
 21 32  2  0
 13 33  2  0
 33 34  1  0
 33  9  1  0
 32 17  1  0
 31 26  1  0
  1 35  1  0
  1 36  1  0
  1 37  1  0
  2 38  1  0
  2 39  1  0
  3 40  1  0
  3 41  1  0
  4 42  1  0
  4 43  1  0
  5 44  1  0
  5 45  1  0
 10 46  1  0
 11 47  1  0
 12 48  1  0
 16 49  1  0
 18 50  1  0
 19 51  1  0
 20 52  1  0
 28 53  1  0
 29 54  1  0
 30 55  1  0
 32 56  1  0
M  CHG  2  31  -1  34  -1
M  END
>  <UniqueID>  (3) 
3

>  <SMILES>  (3) 
CCCCCC(=O)Oc1cccc(C(=O)Nc2cccc(S(=O)(=O)N=c3nccc[n-]3)c2)c1[O-]

>  <Energy>  (3) 
72.1428836186753

>  <Genealogy>  (3) 
CCCCCC(=O)Oc1cccc(C(=O)Nc2cccc(S(=O)(=O)N=c3nccc[n-]3)c2)c1[O-] (protonated)
CCCCCC(=O)Oc1cccc(C(=O)Nc2cccc(S(=O)(=O)N=c3nccc[n-]3)c2)c1[O-] (3D coordinates assigned)
CCCCCC(=O)Oc1cccc(C(=O)Nc2cccc(S(=O)(=O)N=c3nccc[n-]3)c2)c1[O-] (optimized conformer: 72.1428836186753 kcal/mol)

>  <smiles>  (3) 
CCCCCC(=O)Oc1cccc(C(=O)Nc2cccc(S(=O)(=O)N=c3nccc[nH]3)c2)c1O

>  <score_type>  (3) 
oracle

>  <origin>  (3) 
adg

>  <m_score__min__energy>  (3) 
-14.720000000000001

>  <m_primary>  (3) 
energy

$$$$
3:0
     RDKit          3D

 42 44  0  0  0  0  0  0  0  0999 V2000
   55.0278   24.6253   46.3546 H   0  0  0  0  0  0  0  0  0  0  0  0
   55.7980   25.3770   46.1270 C   0  0  0  0  0  0  0  0  0  0  0  0
   55.5120   26.7000   46.0040 N   0  0  0  0  0  0  0  0  0  0  0  0
   56.6200   27.4210   45.7240 C   0  0  0  0  0  0  0  0  0  0  0  0
   56.6350   28.7100   45.5540 N   0  0  0  0  0  0  0  0  0  0  0  0
   56.0480   29.4250   44.4570 C   0  0  0  0  0  0  0  0  0  0  0  0
   54.8140   29.3450   44.2090 O   0  0  0  0  0  0  0  0  0  0  0  0
   56.9260   30.2420   43.5630 C   0  0  0  0  0  0  0  0  0  0  0  0
   57.8496   29.6827   43.3532 H   0  0  0  0  0  0  0  0  0  0  0  0
   56.3869   30.4484   42.6267 H   0  0  0  0  0  0  0  0  0  0  0  0
   57.2830   31.5710   44.2320 C   0  0  0  0  0  0  0  0  0  0  0  0
   57.2478   32.3744   43.4814 H   0  0  0  0  0  0  0  0  0  0  0  0
   56.5587   31.7689   45.0359 H   0  0  0  0  0  0  0  0  0  0  0  0
   58.5930   31.5140   44.7970 O   0  0  0  0  0  0  0  0  0  0  0  0
   58.9460   30.8520   45.9860 C   0  0  0  0  0  0  0  0  0  0  0  0
   59.6310   29.6210   45.9910 C   0  0  0  0  0  0  0  0  0  0  0  0
   59.9107   29.1470   45.0386 H   0  0  0  0  0  0  0  0  0  0  0  0
   59.9570   28.9990   47.1980 C   0  0  0  0  0  0  0  0  0  0  0  0
   60.4926   28.0382   47.1940 H   0  0  0  0  0  0  0  0  0  0  0  0
   59.6040   29.5950   48.4090 C   0  0  0  0  0  0  0  0  0  0  0  0
   59.8636   29.1042   49.3586 H   0  0  0  0  0  0  0  0  0  0  0  0
   58.9220   30.8130   48.4180 C   0  0  0  0  0  0  0  0  0  0  0  0
   58.6462   31.2788   49.3756 H   0  0  0  0  0  0  0  0  0  0  0  0
   58.5850   31.4490   47.2060 C   0  0  0  0  0  0  0  0  0  0  0  0
   57.8960   32.6730   47.1680 O   0  0  0  0  0  0  0  0  0  0  0  0
   58.4970   33.9570   46.9880 C   0  0  0  0  0  0  0  0  0  0  0  0
   58.4042   34.2539   45.9329 H   0  0  0  0  0  0  0  0  0  0  0  0
   57.9821   34.6812   47.6363 H   0  0  0  0  0  0  0  0  0  0  0  0
   59.9550   33.9230   47.3650 C   0  0  0  0  0  0  0  0  0  0  0  0
   60.3490   34.0680   48.7060 C   0  0  0  0  0  0  0  0  0  0  0  0
   59.5894   34.2158   49.4878 H   0  0  0  0  0  0  0  0  0  0  0  0
   61.7050   34.0250   49.0500 C   0  0  0  0  0  0  0  0  0  0  0  0
   62.0099   34.1463   50.0999 H   0  0  0  0  0  0  0  0  0  0  0  0
   62.6720   33.8280   48.0600 C   0  0  0  0  0  0  0  0  0  0  0  0
   63.9850   33.7870   48.3950 F   0  0  0  0  0  0  0  0  0  0  0  0
   62.2860   33.6700   46.7260 C   0  0  0  0  0  0  0  0  0  0  0  0
   63.0479   33.5117   45.9486 H   0  0  0  0  0  0  0  0  0  0  0  0
   60.9330   33.7130   46.3790 C   0  0  0  0  0  0  0  0  0  0  0  0
   60.6326   33.5818   45.3290 H   0  0  0  0  0  0  0  0  0  0  0  0
   57.9890   26.4560   45.6170 S   0  0  0  0  0  0  0  0  0  0  0  0
   57.1360   25.0430   45.9440 C   0  0  0  0  0  0  0  0  0  0  0  0
   57.5624   24.0307   46.0029 H   0  0  0  0  0  0  0  0  0  0  0  0
  1  2  1  0
  2  3  1  0
  3  4  1  0
  4  5  2  0
  5  6  1  0
  6  7  2  0
  6  8  1  0
  8  9  1  0
  8 10  1  0
  8 11  1  0
 11 12  1  0
 11 13  1  0
 11 14  1  0
 14 15  1  0
 15 16  2  0
 16 17  1  0
 16 18  1  0
 18 19  1  0
 18 20  2  0
 20 21  1  0
 20 22  1  0
 22 23  1  0
 22 24  2  0
 24 25  1  0
 25 26  1  0
 26 27  1  0
 26 28  1  0
 26 29  1  0
 29 30  2  0
 30 31  1  0
 30 32  1  0
 32 33  1  0
 32 34  2  0
 34 35  1  0
 34 36  1  0
 36 37  1  0
 36 38  2  0
 38 39  1  0
  4 40  1  0
 40 41  1  0
 41 42  1  0
 41  2  2  0
 24 15  1  0
 38 29  1  0
M  CHG  1   3  -1
M  END
>  <UniqueID>  (4) 
4

>  <SMILES>  (4) 
O=C(CCOc1ccccc1OCc1ccc(F)cc1)/N=c1\[n-]ccs1

>  <Energy>  (4) 
73.57113274111754

>  <Genealogy>  (4) 
O=C(CCOc1ccccc1OCc1ccc(F)cc1)N=c1[n-]ccs1 (protonated)
O=C(CCOc1ccccc1OCc1ccc(F)cc1)/N=c1\[n-]ccs1 (cis-trans isomerization)
O=C(CCOc1ccccc1OCc1ccc(F)cc1)/N=c1\[n-]ccs1 (3D coordinates assigned)
O=C(CCOc1ccccc1OCc1ccc(F)cc1)/N=c1\[n-]ccs1 (optimized conformer: 73.57113274111754 kcal/mol)

>  <smiles>  (4) 
O=C(CCOc1ccccc1OCc1ccc(F)cc1)N=c1[nH]ccs1

>  <score_type>  (4) 
oracle

>  <origin>  (4) 
adg

>  <m_score__min__energy>  (4) 
-9.9600000000000009

>  <m_primary>  (4) 
energy

$$$$
4:0
     RDKit          3D

 45 46  0  0  0  0  0  0  0  0999 V2000
   60.6920   29.0300   45.3380 C   0  0  0  0  0  0  0  0  0  0  0  0
   59.6770   27.9150   45.6300 C   0  0  0  0  0  0  0  0  0  0  0  0
   58.3440   28.1520   45.0270 N   0  0  0  0  0  0  0  0  0  0  0  0
   57.8540   26.9670   44.2840 C   0  0  0  0  0  0  0  0  0  0  0  0
   58.1780   27.0700   42.7960 C   0  0  0  0  0  0  0  0  0  0  0  0
   58.3020   29.4010   44.2280 C   0  0  0  0  0  0  0  0  0  0  0  0
   57.4150   30.4180   44.8880 C   0  0  0  0  0  0  0  0  0  0  0  0
   56.2030   30.4910   44.5490 O   0  0  0  0  0  0  0  0  0  0  0  0
   57.9200   31.3240   45.8800 N   0  0  0  0  0  0  0  0  0  0  0  0
   58.2190   30.9290   47.1080 N   0  0  0  0  0  0  0  0  0  0  0  0
   58.6750   31.9970   47.7890 C   0  0  0  0  0  0  0  0  0  0  0  0
   59.1560   31.9290   49.2020 C   0  0  0  0  0  0  0  0  0  0  0  0
   58.7090   33.0980   46.9530 C   0  0  0  0  0  0  0  0  0  0  0  0
   59.2870   34.7540   47.3480 S   0  0  0  0  0  0  0  0  0  0  0  0
   60.9760   34.2210   47.6300 C   0  0  0  0  0  0  0  0  0  0  0  0
   61.5090   34.2060   48.9270 C   0  0  0  0  0  0  0  0  0  0  0  0
   62.8280   33.7910   49.1400 C   0  0  0  0  0  0  0  0  0  0  0  0
   63.6150   33.3790   48.0600 C   0  0  0  0  0  0  0  0  0  0  0  0
   63.0810   33.3760   46.7680 C   0  0  0  0  0  0  0  0  0  0  0  0
   61.7630   33.7920   46.5530 C   0  0  0  0  0  0  0  0  0  0  0  0
   58.2130   32.6400   45.7440 C   0  0  0  0  0  0  0  0  0  0  0  0
   58.0630   33.4490   44.4890 C   0  0  0  0  0  0  0  0  0  0  0  0
   61.0671   29.4420   46.2865 H   0  0  0  0  0  0  0  0  0  0  0  0
   61.5321   28.6187   44.7592 H   0  0  0  0  0  0  0  0  0  0  0  0
   60.2038   29.8279   44.7592 H   0  0  0  0  0  0  0  0  0  0  0  0
   60.0752   26.9697   45.2326 H   0  0  0  0  0  0  0  0  0  0  0  0
   59.5365   27.8848   46.7206 H   0  0  0  0  0  0  0  0  0  0  0  0
   58.3326   26.0650   44.6930 H   0  0  0  0  0  0  0  0  0  0  0  0
   56.7612   26.9144   44.3977 H   0  0  0  0  0  0  0  0  0  0  0  0
   59.2194   27.4010   42.6696 H   0  0  0  0  0  0  0  0  0  0  0  0
   58.0462   26.0857   42.3230 H   0  0  0  0  0  0  0  0  0  0  0  0
   57.5020   27.7975   42.3230 H   0  0  0  0  0  0  0  0  0  0  0  0
   59.3195   29.8098   44.1415 H   0  0  0  0  0  0  0  0  0  0  0  0
   57.8994   29.1718   43.2303 H   0  0  0  0  0  0  0  0  0  0  0  0
   58.3029   32.0496   49.8859 H   0  0  0  0  0  0  0  0  0  0  0  0
   59.6339   30.9544   49.3802 H   0  0  0  0  0  0  0  0  0  0  0  0
   59.8853   32.7330   49.3802 H   0  0  0  0  0  0  0  0  0  0  0  0
   60.8886   34.5213   49.7789 H   0  0  0  0  0  0  0  0  0  0  0  0
   63.2462   33.7888   50.1574 H   0  0  0  0  0  0  0  0  0  0  0  0
   64.6536   33.0575   48.2269 H   0  0  0  0  0  0  0  0  0  0  0  0
   63.6982   33.0460   45.9194 H   0  0  0  0  0  0  0  0  0  0  0  0
   61.3434   33.7824   45.5362 H   0  0  0  0  0  0  0  0  0  0  0  0
   57.8682   34.4994   44.7510 H   0  0  0  0  0  0  0  0  0  0  0  0
   58.9885   33.3840   43.8980 H   0  0  0  0  0  0  0  0  0  0  0  0
   57.2223   33.0565   43.8980 H   0  0  0  0  0  0  0  0  0  0  0  0
  1  2  1  0
  2  3  1  0
  3  4  1  0
  4  5  1  0
  3  6  1  0
  6  7  1  0
  7  8  2  0
  7  9  1  0
  9 10  1  0
 10 11  2  0
 11 12  1  0
 11 13  1  0
 13 14  1  0
 14 15  1  0
 15 16  2  0
 16 17  1  0
 17 18  2  0
 18 19  1  0
 19 20  2  0
 13 21  2  0
 21 22  1  0
 21  9  1  0
 20 15  1  0
  1 23  1  0
  1 24  1  0
  1 25  1  0
  2 26  1  0
  2 27  1  0
  4 28  1  0
  4 29  1  0
  5 30  1  0
  5 31  1  0
  5 32  1  0
  6 33  1  0
  6 34  1  0
 12 35  1  0
 12 36  1  0
 12 37  1  0
 16 38  1  0
 17 39  1  0
 18 40  1  0
 19 41  1  0
 20 42  1  0
 22 43  1  0
 22 44  1  0
 22 45  1  0
M  END
>  <UniqueID>  (5) 
5

>  <SMILES>  (5) 
CCN(CC)CC(=O)n1nc(C)c(Sc2ccccc2)c1C

>  <Energy>  (5) 
73.12789978881763

>  <Genealogy>  (5) 
CCN(CC)CC(=O)n1nc(C)c(Sc2ccccc2)c1C (3D coordinates assigned)
CCN(CC)CC(=O)n1nc(C)c(Sc2ccccc2)c1C (optimized conformer: 73.12789978881763 kcal/mol)

>  <smiles>  (5) 
CCN(CC)CC(=O)n1nc(C)c(Sc2ccccc2)c1C

>  <score_type>  (5) 
oracle

>  <origin>  (5) 
adg

>  <m_score__min__energy>  (5) 
-7.4699999999999998

>  <m_primary>  (5) 
energy

$$$$
5:0
     RDKit          3D

 63 67  0  0  0  0  0  0  0  0999 V2000
   58.3650   21.5950   45.8370 N   0  0  0  0  0  0  0  0  0  0  0  0
   57.4360   22.1610   44.9040 C   0  0  0  0  0  0  0  0  0  0  0  0
   57.3400   21.6100   43.6160 C   0  0  0  0  0  0  0  0  0  0  0  0
   56.4580   22.1520   42.6760 C   0  0  0  0  0  0  0  0  0  0  0  0
   55.6650   23.2500   43.0130 C   0  0  0  0  0  0  0  0  0  0  0  0
   55.7470   23.8050   44.2930 C   0  0  0  0  0  0  0  0  0  0  0  0
   56.6210   23.2640   45.2460 C   0  0  0  0  0  0  0  0  0  0  0  0
   56.6720   24.0120   46.8820 S   0  0  0  0  0  0  0  0  0  0  0  0
   57.6680   25.3980   46.3320 C   0  0  0  0  0  0  0  0  0  0  0  0
   58.9830   25.5410   46.7890 C   0  0  0  0  0  0  0  0  0  0  0  0
   59.7620   26.6140   46.3510 C   0  0  0  0  0  0  0  0  0  0  0  0
   59.2270   27.5600   45.4720 C   0  0  0  0  0  0  0  0  0  0  0  0
   57.8940   27.4440   45.0360 C   0  0  0  0  0  0  0  0  0  0  0  0
   57.3020   28.3850   44.1270 N   0  0  0  0  0  0  0  0  0  0  0  0
   56.5740   29.5710   44.4690 C   0  0  0  0  0  0  0  0  0  0  0  0
   55.3850   29.4970   44.8820 O   0  0  0  0  0  0  0  0  0  0  0  0
   57.2200   30.8850   44.3080 C   0  0  0  0  0  0  0  0  0  0  0  0
   57.1460   31.4700   43.1950 O   0  0  0  0  0  0  0  0  0  0  0  0
   57.9840   31.5200   45.3980 C   0  0  0  0  0  0  0  0  0  0  0  0
   58.3790   30.8960   46.5760 C   0  0  0  0  0  0  0  0  0  0  0  0
   59.0650   31.7600   47.3610 N   0  0  0  0  0  0  0  0  0  0  0  0
   59.5690   31.4640   48.7020 C   0  0  0  0  0  0  0  0  0  0  0  0
   60.8010   30.6030   48.6120 C   0  0  0  0  0  0  0  0  0  0  0  0
   60.6780   29.3850   48.6160 O   0  0  0  0  0  0  0  0  0  0  0  0
   62.1200   31.2020   48.5350 N   0  0  0  0  0  0  0  0  0  0  0  0
   62.3330   32.1800   49.6330 C   0  0  0  0  0  0  0  0  0  0  0  0
   62.2000   33.6330   49.1370 C   0  0  0  0  0  0  0  0  0  0  0  0
   63.1250   33.9590   48.1070 O   0  0  0  0  0  0  0  0  0  0  0  0
   63.4200   32.8740   47.2340 C   0  0  0  0  0  0  0  0  0  0  0  0
   62.3310   31.7880   47.1900 C   0  0  0  0  0  0  0  0  0  0  0  0
   59.1160   32.9300   46.6850 C   0  0  0  0  0  0  0  0  0  0  0  0
   59.7280   34.1270   47.0730 C   0  0  0  0  0  0  0  0  0  0  0  0
   59.6820   35.2120   46.1810 C   0  0  0  0  0  0  0  0  0  0  0  0
   59.0490   35.0820   44.9280 C   0  0  0  0  0  0  0  0  0  0  0  0
   58.4440   33.8690   44.5580 C   0  0  0  0  0  0  0  0  0  0  0  0
   58.4740   32.8150   45.4740 C   0  0  0  0  0  0  0  0  0  0  0  0
   57.1290   26.3490   45.4560 C   0  0  0  0  0  0  0  0  0  0  0  0
   58.5310   22.0510   46.7620 H   0  0  0  0  0  0  0  0  0  0  0  0
   58.8770   20.7090   45.6410 H   0  0  0  0  0  0  0  0  0  0  0  0
   57.9634   20.7454   43.3444 H   0  0  0  0  0  0  0  0  0  0  0  0
   56.3891   21.7126   41.6699 H   0  0  0  0  0  0  0  0  0  0  0  0
   54.9753   23.6786   42.2710 H   0  0  0  0  0  0  0  0  0  0  0  0
   55.1219   24.6716   44.5542 H   0  0  0  0  0  0  0  0  0  0  0  0
   59.4031   24.8080   47.4934 H   0  0  0  0  0  0  0  0  0  0  0  0
   60.8006   26.7151   46.6990 H   0  0  0  0  0  0  0  0  0  0  0  0
   59.8489   28.3965   45.1205 H   0  0  0  0  0  0  0  0  0  0  0  0
   58.1645   29.8484   46.8338 H   0  0  0  0  0  0  0  0  0  0  0  0
   59.8193   32.4055   49.2129 H   0  0  0  0  0  0  0  0  0  0  0  0
   58.7940   30.9264   49.2680 H   0  0  0  0  0  0  0  0  0  0  0  0
   62.8340   30.4440   48.6570 H   0  0  0  0  0  0  0  0  0  0  0  0
   61.5844   32.0019   50.4190 H   0  0  0  0  0  0  0  0  0  0  0  0
   63.3530   32.0425   50.0211 H   0  0  0  0  0  0  0  0  0  0  0  0
   61.1805   33.7789   48.7506 H   0  0  0  0  0  0  0  0  0  0  0  0
   62.4156   34.2916   49.9912 H   0  0  0  0  0  0  0  0  0  0  0  0
   63.5499   33.2741   46.2176 H   0  0  0  0  0  0  0  0  0  0  0  0
   64.3306   32.3940   47.6217 H   0  0  0  0  0  0  0  0  0  0  0  0
   61.3892   32.2352   46.8393 H   0  0  0  0  0  0  0  0  0  0  0  0
   62.6541   30.9911   46.5041 H   0  0  0  0  0  0  0  0  0  0  0  0
   60.2303   34.2161   48.0475 H   0  0  0  0  0  0  0  0  0  0  0  0
   60.1434   36.1700   46.4626 H   0  0  0  0  0  0  0  0  0  0  0  0
   59.0286   35.9362   44.2352 H   0  0  0  0  0  0  0  0  0  0  0  0
   57.9612   33.7529   43.5764 H   0  0  0  0  0  0  0  0  0  0  0  0
   56.0962   26.2346   45.0951 H   0  0  0  0  0  0  0  0  0  0  0  0
  1  2  1  0
  2  3  2  0
  3  4  1  0
  4  5  2  0
  5  6  1  0
  6  7  2  0
  7  8  1  0
  8  9  1  0
  9 10  2  0
 10 11  1  0
 11 12  2  0
 12 13  1  0
 13 14  1  0
 14 15  1  0
 15 16  2  0
 15 17  1  0
 17 18  2  0
 17 19  1  0
 19 20  2  0
 20 21  1  0
 21 22  1  0
 22 23  1  0
 23 24  2  0
 23 25  1  0
 25 26  1  0
 26 27  1  0
 27 28  1  0
 28 29  1  0
 29 30  1  0
 21 31  1  0
 31 32  2  0
 32 33  1  0
 33 34  2  0
 34 35  1  0
 35 36  2  0
 13 37  2  0
  7  2  1  0
 37  9  1  0
 36 19  1  0
 30 25  1  0
 36 31  1  0
  1 38  1  0
  1 39  1  0
  3 40  1  0
  4 41  1  0
  5 42  1  0
  6 43  1  0
 10 44  1  0
 11 45  1  0
 12 46  1  0
 20 47  1  0
 22 48  1  0
 22 49  1  0
 25 50  1  0
 26 51  1  0
 26 52  1  0
 27 53  1  0
 27 54  1  0
 29 55  1  0
 29 56  1  0
 30 57  1  0
 30 58  1  0
 32 59  1  0
 33 60  1  0
 34 61  1  0
 35 62  1  0
 37 63  1  0
M  CHG  2  14  -1  25   1
M  END
>  <UniqueID>  (6) 
6

>  <SMILES>  (6) 
Nc1ccccc1Sc1cccc([N-]C(=O)C(=O)c2cn(CC(=O)[NH+]3CCOCC3)c3ccccc23)c1

>  <Energy>  (6) 
117.44579705243942

>  <Genealogy>  (6) 
Nc1ccccc1Sc1cccc([N-]C(=O)C(=O)c2cn(CC(=O)[NH+]3CCOCC3)c3ccccc23)c1 (protonated)
Nc1ccccc1Sc1cccc([N-]C(=O)C(=O)c2cn(CC(=O)[NH+]3CCOCC3)c3ccccc23)c1 (3D coordinates assigned)
Nc1ccccc1Sc1cccc([N-]C(=O)C(=O)c2cn(CC(=O)[NH+]3CCOCC3)c3ccccc23)c1 (nonaromatic ring conformer: 117.44579705243942 kcal/mol)

>  <smiles>  (6) 
Nc1ccccc1Sc1cccc(NC(=O)C(=O)c2cn(CC(=O)N3CCOCC3)c3ccccc23)c1

>  <score_type>  (6) 
oracle

>  <origin>  (6) 
adg

>  <m_score__min__energy>  (6) 
-11.130000000000001

>  <m_primary>  (6) 
energy

$$$$
6:0
     RDKit          3D

 47 49  0  0  0  0  0  0  0  0999 V2000
   57.4120   26.0740   44.0180 N   0  0  0  0  0  0  0  0  0  0  0  0
   57.1490   27.0940   45.3890 S   0  0  0  0  0  0  0  0  0  0  0  0
   58.1770   26.7880   46.4420 O   0  0  0  0  0  0  0  0  0  0  0  0
   55.7840   26.8290   45.9580 O   0  0  0  0  0  0  0  0  0  0  0  0
   57.2750   28.7820   44.9010 C   0  0  0  0  0  0  0  0  0  0  0  0
   58.5140   29.4350   44.9470 C   0  0  0  0  0  0  0  0  0  0  0  0
   58.6130   30.7800   44.5800 C   0  0  0  0  0  0  0  0  0  0  0  0
   57.4730   31.4920   44.1890 C   0  0  0  0  0  0  0  0  0  0  0  0
   57.6070   32.8650   43.8010 N   0  0  0  0  0  0  0  0  0  0  0  0
   57.6910   33.9870   44.6890 C   0  0  0  0  0  0  0  0  0  0  0  0
   56.6380   34.4100   45.2330 O   0  0  0  0  0  0  0  0  0  0  0  0
   58.9690   34.7630   44.8790 C   0  0  0  0  0  0  0  0  0  0  0  0
   59.5520   34.4970   46.2110 N   0  0  0  0  0  0  0  0  0  0  0  0
   60.7310   33.5930   46.1160 C   0  0  0  0  0  0  0  0  0  0  0  0
   60.9490   32.7640   47.3860 C   0  0  0  0  0  0  0  0  0  0  0  0
   59.7470   31.9710   47.6650 N   0  0  0  0  0  0  0  0  0  0  0  0
   59.8480   30.6570   48.2520 C   0  0  0  0  0  0  0  0  0  0  0  0
   60.3800   29.5890   47.5050 C   0  0  0  0  0  0  0  0  0  0  0  0
   60.4910   28.3160   48.0700 C   0  0  0  0  0  0  0  0  0  0  0  0
   60.0690   28.0920   49.3820 C   0  0  0  0  0  0  0  0  0  0  0  0
   59.5320   29.1420   50.1320 C   0  0  0  0  0  0  0  0  0  0  0  0
   59.4200   30.4200   49.5730 C   0  0  0  0  0  0  0  0  0  0  0  0
   58.8620   31.4110   50.3130 F   0  0  0  0  0  0  0  0  0  0  0  0
   58.4350   32.5160   47.2950 C   0  0  0  0  0  0  0  0  0  0  0  0
   58.5110   34.0450   47.1720 C   0  0  0  0  0  0  0  0  0  0  0  0
   56.2370   30.8300   44.1190 C   0  0  0  0  0  0  0  0  0  0  0  0
   56.1370   29.4850   44.4860 C   0  0  0  0  0  0  0  0  0  0  0  0
   56.5890   25.4330   43.9520 H   0  0  0  0  0  0  0  0  0  0  0  0
   57.3850   26.6870   43.1720 H   0  0  0  0  0  0  0  0  0  0  0  0
   59.4109   28.8877   45.2727 H   0  0  0  0  0  0  0  0  0  0  0  0
   59.5918   31.2816   44.5985 H   0  0  0  0  0  0  0  0  0  0  0  0
   59.6903   34.4652   44.1037 H   0  0  0  0  0  0  0  0  0  0  0  0
   58.7441   35.8369   44.8008 H   0  0  0  0  0  0  0  0  0  0  0  0
   60.5798   32.9064   45.2700 H   0  0  0  0  0  0  0  0  0  0  0  0
   61.6211   34.2240   45.9762 H   0  0  0  0  0  0  0  0  0  0  0  0
   61.8069   32.0909   47.2416 H   0  0  0  0  0  0  0  0  0  0  0  0
   61.1490   33.4368   48.2330 H   0  0  0  0  0  0  0  0  0  0  0  0
   60.7105   29.7578   46.4695 H   0  0  0  0  0  0  0  0  0  0  0  0
   60.9117   27.4885   47.4800 H   0  0  0  0  0  0  0  0  0  0  0  0
   60.1592   27.0893   49.8252 H   0  0  0  0  0  0  0  0  0  0  0  0
   59.1966   28.9634   51.1643 H   0  0  0  0  0  0  0  0  0  0  0  0
   58.1231   32.0890   46.3304 H   0  0  0  0  0  0  0  0  0  0  0  0
   57.7049   32.2547   48.0752 H   0  0  0  0  0  0  0  0  0  0  0  0
   57.5338   34.4189   46.8325 H   0  0  0  0  0  0  0  0  0  0  0  0
   58.7801   34.4429   48.1616 H   0  0  0  0  0  0  0  0  0  0  0  0
   55.3440   31.3718   43.7741 H   0  0  0  0  0  0  0  0  0  0  0  0
   55.1619   28.9773   44.4488 H   0  0  0  0  0  0  0  0  0  0  0  0
  1  2  1  0
  2  3  2  0
  2  4  2  0
  2  5  1  0
  5  6  2  0
  6  7  1  0
  7  8  2  0
  8  9  1  0
  9 10  1  0
 10 11  2  0
 10 12  1  0
 12 13  1  0
 13 14  1  0
 14 15  1  0
 15 16  1  0
 16 17  1  0
 17 18  2  0
 18 19  1  0
 19 20  2  0
 20 21  1  0
 21 22  2  0
 22 23  1  0
 16 24  1  0
 24 25  1  0
  8 26  1  0
 26 27  2  0
 27  5  1  0
 25 13  1  0
 22 17  1  0
  1 28  1  0
  1 29  1  0
  6 30  1  0
  7 31  1  0
 12 32  1  0
 12 33  1  0
 14 34  1  0
 14 35  1  0
 15 36  1  0
 15 37  1  0
 18 38  1  0
 19 39  1  0
 20 40  1  0
 21 41  1  0
 24 42  1  0
 24 43  1  0
 25 44  1  0
 25 45  1  0
 26 46  1  0
 27 47  1  0
M  CHG  1   9  -1
M  END
>  <UniqueID>  (7) 
7

>  <SMILES>  (7) 
NS(=O)(=O)c1ccc([N-]C(=O)CN2CCN(c3ccccc3F)CC2)cc1

>  <Energy>  (7) 
63.396149542534005

>  <Genealogy>  (7) 
NS(=O)(=O)c1ccc([N-]C(=O)CN2CCN(c3ccccc3F)CC2)cc1 (protonated)
NS(=O)(=O)c1ccc([N-]C(=O)CN2CCN(c3ccccc3F)CC2)cc1 (3D coordinates assigned)
NS(=O)(=O)c1ccc([N-]C(=O)CN2CCN(c3ccccc3F)CC2)cc1 (nonaromatic ring conformer: 63.396149542534005 kcal/mol)

>  <smiles>  (7) 
NS(=O)(=O)c1ccc(NC(=O)CN2CCN(c3ccccc3F)CC2)cc1

>  <score_type>  (7) 
oracle

>  <origin>  (7) 
adg

>  <m_score__min__energy>  (7) 
-10.26

>  <m_primary>  (7) 
energy

$$$$
7:0
     RDKit          3D

 35 36  0  0  1  0  0  0  0  0999 V2000
   56.6230   29.6960   42.6220 C   0  0  0  0  0  0  0  0  0  0  0  0
   55.7350   30.0930   43.7550 C   0  0  0  0  0  0  0  0  0  0  0  0
   56.3120   29.7470   44.9710 O   0  0  0  0  0  0  0  0  0  0  0  0
   57.4680   30.3230   45.4250 C   0  0  0  0  0  0  0  0  0  0  0  0
   57.7130   31.6720   45.5120 C   0  0  0  0  0  0  0  0  0  0  0  0
   58.9020   32.1940   45.9790 C   0  0  0  0  0  0  0  0  0  0  0  0
   59.1540   33.9430   46.0660 S   0  0  0  0  0  0  0  0  0  0  0  0
   57.9260   34.5990   45.5150 O   0  0  0  0  0  0  0  0  0  0  0  0
   60.3810   34.1980   45.2260 O   0  0  0  0  0  0  0  0  0  0  0  0
   59.4150   34.2890   47.7370 N   0  0  0  0  0  0  0  0  0  0  0  0
   60.4750   33.7940   48.2810 C   0  0  0  0  0  0  0  0  0  0  0  0
   60.2720   33.2670   49.5630 C   0  0  0  0  0  0  0  0  0  0  0  0
   61.0980   32.3170   50.1650 C   0  0  0  0  0  0  0  0  0  0  0  0
   62.1880   31.6230   49.6280 C   0  0  0  0  0  0  0  0  0  0  0  0
   62.4800   30.5220   50.1630 O   0  0  0  0  0  0  0  0  0  0  0  0
   62.9510   32.0440   48.5820 N   0  0  0  0  0  0  0  0  0  0  0  0
   62.6930   33.0040   47.6560 C   0  0  0  0  0  0  0  0  0  0  0  0
   63.6260   33.1730   46.6390 O   0  0  0  0  0  0  0  0  0  0  0  0
   61.6320   33.8280   47.5920 N   0  0  0  0  0  0  0  0  0  0  0  0
   59.8840   31.3070   46.3750 C   0  0  0  0  0  0  0  0  0  0  0  0
   59.6980   29.9530   46.3110 C   0  0  0  0  0  0  0  0  0  0  0  0
   58.4890   29.4780   45.8350 C   0  0  0  0  0  0  0  0  0  0  0  0
   58.2680   27.7350   45.7610 Cl  0  0  0  0  0  0  0  0  0  0  0  0
   57.5594   29.2774   43.0194 H   0  0  0  0  0  0  0  0  0  0  0  0
   56.1153   28.9392   42.0060 H   0  0  0  0  0  0  0  0  0  0  0  0
   56.8484   30.5790   42.0060 H   0  0  0  0  0  0  0  0  0  0  0  0
   55.5764   31.1811   43.7263 H   0  0  0  0  0  0  0  0  0  0  0  0
   54.7743   29.5666   43.6549 H   0  0  0  0  0  0  0  0  0  0  0  0
   56.9238   32.3693   45.1943 H   0  0  0  0  0  0  0  0  0  0  0  0
   59.4029   33.6263   50.1336 H   0  0  0  0  0  0  0  0  0  0  0  0
   60.8578   32.0796   51.2119 H   0  0  0  0  0  0  0  0  0  0  0  0
   64.5400   32.7120   46.7250 H   0  0  0  0  0  0  0  0  0  0  0  0
   61.6560   34.6360   46.9220 H   0  0  0  0  0  0  0  0  0  0  0  0
   60.8402   31.6993   46.7515 H   0  0  0  0  0  0  0  0  0  0  0  0
   60.4900   29.2595   46.6300 H   0  0  0  0  0  0  0  0  0  0  0  0
  1  2  1  0
  2  3  1  0
  3  4  1  0
  4  5  2  0
  5  6  1  0
  6  7  1  0
  7  8  2  0
  7  9  2  0
  7 10  1  0
 10 11  2  0
 11 12  1  0
 12 13  2  0
 13 14  1  0
 14 15  2  0
 14 16  1  0
 16 17  2  0
 17 18  1  0
 17 19  1  0
  6 20  2  0
 20 21  1  0
 21 22  2  0
 22 23  1  0
 22  4  1  0
 19 11  1  0
  1 24  1  0
  1 25  1  0
  1 26  1  0
  2 27  1  0
  2 28  1  0
  5 29  1  0
 12 30  1  0
 13 31  1  0
 18 32  1  0
 19 33  1  0
 20 34  1  0
 21 35  1  0
M  END
>  <smiles>  (8) 
CCOc1cc(S(=O)(=O)N=c2ccc(=O)nc(O)[nH]2)ccc1Cl

>  <score_type>  (8) 
oracle

>  <origin>  (8) 
adg

>  <m_score__min__energy>  (8) 
-9.3699999999999992

>  <m_primary>  (8) 
energy

$$$$
8:0
     RDKit          3D

 53 56  0  0  0  0  0  0  0  0999 V2000
   63.8280   33.9760   50.9380 C   0  0  0  0  0  0  0  0  0  0  0  0
   63.5450   34.2180   49.5110 N   0  0  0  0  0  0  0  0  0  0  0  0
   62.1080   34.4690   49.2730 C   0  0  0  0  0  0  0  0  0  0  0  0
   61.2690   33.1910   49.4410 C   0  0  0  0  0  0  0  0  0  0  0  0
   61.9330   32.0320   48.8260 N   0  0  0  0  0  0  0  0  0  0  0  0
   61.4590   30.6870   49.0660 C   0  0  0  0  0  0  0  0  0  0  0  0
   61.5990   30.0700   50.3220 C   0  0  0  0  0  0  0  0  0  0  0  0
   61.1280   28.7690   50.4880 C   0  0  0  0  0  0  0  0  0  0  0  0
   60.5500   28.1170   49.4470 N   0  0  0  0  0  0  0  0  0  0  0  0
   60.4160   28.7150   48.2340 C   0  0  0  0  0  0  0  0  0  0  0  0
   59.8100   28.0040   47.1460 N   0  0  0  0  0  0  0  0  0  0  0  0
   58.6540   27.1230   47.2520 C   0  0  0  0  0  0  0  0  0  0  0  0
   58.4380   26.5610   45.8160 C   0  0  1  0  0  0  0  0  0  0  0  0
   57.0340   26.8480   45.2640 C   0  0  0  0  0  0  0  0  0  0  0  0
   57.0260   28.0490   44.4310 N   0  0  0  0  0  0  0  0  0  0  0  0
   56.4340   29.3090   44.7750 C   0  0  0  0  0  0  0  0  0  0  0  0
   55.1790   29.3940   44.8250 O   0  0  0  0  0  0  0  0  0  0  0  0
   57.2420   30.5120   45.0510 C   0  0  0  0  0  0  0  0  0  0  0  0
   58.0940   30.5650   46.1660 C   0  0  0  0  0  0  0  0  0  0  0  0
   58.8490   31.7150   46.4210 C   0  0  0  0  0  0  0  0  0  0  0  0
   58.7490   32.8250   45.5740 C   0  0  0  0  0  0  0  0  0  0  0  0
   59.5240   34.0090   45.8380 C   0  0  0  0  0  0  0  0  0  0  0  0
   60.1480   34.9600   46.0500 N   0  0  0  0  0  0  0  0  0  0  0  0
   57.8830   32.7850   44.4740 C   0  0  0  0  0  0  0  0  0  0  0  0
   57.1280   31.6360   44.2180 C   0  0  0  0  0  0  0  0  0  0  0  0
   59.4160   27.2080   45.0060 O   0  0  0  0  0  0  0  0  0  0  0  0
   60.2030   28.0190   45.7890 C   0  0  0  0  0  0  0  0  0  0  0  0
   61.1560   28.7060   45.3350 O   0  0  0  0  0  0  0  0  0  0  0  0
   60.8710   29.9850   48.0580 N   0  0  0  0  0  0  0  0  0  0  0  0
   63.0740   32.2840   47.9360 C   0  0  0  0  0  0  0  0  0  0  0  0
   64.1230   33.1560   48.6450 C   0  0  0  0  0  0  0  0  0  0  0  0
   63.1357   34.5680   51.5546 H   0  0  0  0  0  0  0  0  0  0  0  0
   63.6960   32.9071   51.1619 H   0  0  0  0  0  0  0  0  0  0  0  0
   64.8634   34.2724   51.1619 H   0  0  0  0  0  0  0  0  0  0  0  0
   61.7548   35.2237   49.9911 H   0  0  0  0  0  0  0  0  0  0  0  0
   61.9896   34.8219   48.2379 H   0  0  0  0  0  0  0  0  0  0  0  0
   61.1260   32.9946   50.5138 H   0  0  0  0  0  0  0  0  0  0  0  0
   60.3010   33.3426   48.9410 H   0  0  0  0  0  0  0  0  0  0  0  0
   62.0720   30.6050   51.1587 H   0  0  0  0  0  0  0  0  0  0  0  0
   61.2247   28.2699   51.4635 H   0  0  0  0  0  0  0  0  0  0  0  0
   58.8552   26.3057   47.9602 H   0  0  0  0  0  0  0  0  0  0  0  0
   57.7651   27.6531   47.6247 H   0  0  0  0  0  0  0  0  0  0  0  0
   58.5357   25.4654   45.8221 H   0  0  0  0  0  0  0  0  0  0  0  0
   56.7046   25.9903   44.6592 H   0  0  0  0  0  0  0  0  0  0  0  0
   56.3536   27.0099   46.1130 H   0  0  0  0  0  0  0  0  0  0  0  0
   58.1680   29.6997   46.8411 H   0  0  0  0  0  0  0  0  0  0  0  0
   59.5231   31.7470   47.2896 H   0  0  0  0  0  0  0  0  0  0  0  0
   57.7966   33.6583   43.8107 H   0  0  0  0  0  0  0  0  0  0  0  0
   56.4411   31.6130   43.3592 H   0  0  0  0  0  0  0  0  0  0  0  0
   63.5316   31.3247   47.6525 H   0  0  0  0  0  0  0  0  0  0  0  0
   62.7177   32.8119   47.0391 H   0  0  0  0  0  0  0  0  0  0  0  0
   64.7492   32.5030   49.2706 H   0  0  0  0  0  0  0  0  0  0  0  0
   64.6961   33.6664   47.8569 H   0  0  0  0  0  0  0  0  0  0  0  0
  1  2  1  0
  2  3  1  0
  3  4  1  0
  4  5  1  0
  5  6  1  0
  6  7  2  0
  7  8  1  0
  8  9  2  0
  9 10  1  0
 10 11  1  0
 11 12  1  0
 12 13  1  0
 13 14  1  0
 14 15  1  0
 15 16  1  0
 16 17  2  0
 16 18  1  0
 18 19  2  0
 19 20  1  0
 20 21  2  0
 21 22  1  0
 22 23  3  0
 21 24  1  0
 24 25  2  0
 13 26  1  0
 26 27  1  0
 27 28  2  0
 10 29  2  0
  5 30  1  0
 30 31  1  0
 31  2  1  0
 29  6  1  0
 27 11  1  0
 25 18  1  0
  1 32  1  0
  1 33  1  0
  1 34  1  0
  3 35  1  0
  3 36  1  0
  4 37  1  0
  4 38  1  0
  7 39  1  0
  8 40  1  0
 12 41  1  0
 12 42  1  0
 13 43  1  1
 14 44  1  0
 14 45  1  0
 19 46  1  0
 20 47  1  0
 24 48  1  0
 25 49  1  0
 30 50  1  0
 30 51  1  0
 31 52  1  0
 31 53  1  0
M  CHG  1  15  -1
M  END
>  <UniqueID>  (9) 
8

>  <SMILES>  (9) 
CN1CCN(c2ccnc(N3C[C@@H](C[N-]C(=O)c4ccc(C#N)cc4)OC3=O)n2)CC1

>  <Energy>  (9) 
82.93459063704987

>  <Genealogy>  (9) 
CN1CCN(c2ccnc(N3CC(C[N-]C(=O)c4ccc(C#N)cc4)OC3=O)n2)CC1 (protonated)
CN1CCN(c2ccnc(N3C[C@@H](C[N-]C(=O)c4ccc(C#N)cc4)OC3=O)n2)CC1 (chirality)
CN1CCN(c2ccnc(N3C[C@@H](C[N-]C(=O)c4ccc(C#N)cc4)OC3=O)n2)CC1 (3D coordinates assigned)
CN1CCN(c2ccnc(N3C[C@@H](C[N-]C(=O)c4ccc(C#N)cc4)OC3=O)n2)CC1 (nonaromatic ring conformer: 82.93459063704987 kcal/mol)

>  <smiles>  (9) 
CN1CCN(c2ccnc(N3CC(CNC(=O)c4ccc(C#N)cc4)OC3=O)n2)CC1

>  <score_type>  (9) 
oracle

>  <origin>  (9) 
adg

>  <m_score__min__energy>  (9) 
-10.539999999999999

>  <m_primary>  (9) 
energy

$$$$
9:0
     RDKit          3D

 57 60  0  0  0  0  0  0  0  0999 V2000
   57.1330   34.1820   44.8810 C   0  0  0  0  0  0  0  0  0  0  0  0
   57.6420   33.0370   45.7040 C   0  0  0  0  0  0  0  0  0  0  0  0
   58.0170   33.2360   47.0430 C   0  0  0  0  0  0  0  0  0  0  0  0
   58.5330   32.1810   47.8040 C   0  0  0  0  0  0  0  0  0  0  0  0
   58.9160   32.4330   49.1650 N   0  0  0  0  0  0  0  0  0  0  0  0
   60.1290   33.5670   49.6670 S   0  0  0  0  0  0  0  0  0  0  0  0
   59.5690   34.9570   49.5520 O   0  0  0  0  0  0  0  0  0  0  0  0
   60.5020   33.3240   51.1030 O   0  0  0  0  0  0  0  0  0  0  0  0
   61.5280   33.4320   48.6030 C   0  0  0  0  0  0  0  0  0  0  0  0
   61.4450   33.9260   47.2950 C   0  0  0  0  0  0  0  0  0  0  0  0
   62.5290   33.7870   46.4200 C   0  0  0  0  0  0  0  0  0  0  0  0
   63.6990   33.1500   46.8450 C   0  0  0  0  0  0  0  0  0  0  0  0
   63.7830   32.6560   48.1500 C   0  0  0  0  0  0  0  0  0  0  0  0
   62.7070   32.8020   49.0310 C   0  0  0  0  0  0  0  0  0  0  0  0
   58.6500   30.9070   47.2240 C   0  0  0  0  0  0  0  0  0  0  0  0
   58.2850   30.6920   45.8840 C   0  0  0  0  0  0  0  0  0  0  0  0
   58.3670   29.3340   45.3010 C   0  0  0  0  0  0  0  0  0  0  0  0
   57.8460   29.0870   44.0200 C   0  0  0  0  0  0  0  0  0  0  0  0
   57.9260   27.8120   43.4610 C   0  0  0  0  0  0  0  0  0  0  0  0
   58.5090   26.7670   44.1790 C   0  0  0  0  0  0  0  0  0  0  0  0
   59.0200   26.9940   45.4620 C   0  0  0  0  0  0  0  0  0  0  0  0
   59.6670   25.6430   46.3880 S   0  0  0  0  0  0  0  0  0  0  0  0
   60.0780   26.0840   47.7600 O   0  0  0  0  0  0  0  0  0  0  0  0
   60.8600   25.0780   45.6720 O   0  0  0  0  0  0  0  0  0  0  0  0
   58.4500   24.4180   46.5260 N   0  0  0  0  0  0  0  0  0  0  0  0
   57.7880   23.7820   45.4190 C   0  0  0  0  0  0  0  0  0  0  0  0
   58.4310   22.7960   44.6490 C   0  0  0  0  0  0  0  0  0  0  0  0
   57.7600   22.1680   43.5950 C   0  0  0  0  0  0  0  0  0  0  0  0
   56.4400   22.5080   43.3070 C   0  0  0  0  0  0  0  0  0  0  0  0
   55.7920   23.4880   44.0600 C   0  0  0  0  0  0  0  0  0  0  0  0
   56.4600   24.1410   45.1080 C   0  0  0  0  0  0  0  0  0  0  0  0
   55.6400   25.4150   46.0250 S   0  0  0  0  0  0  0  0  0  0  0  0
   53.9360   25.3760   45.7500 N   0  0  0  0  0  0  0  0  0  0  0  0
   55.8990   25.2240   47.4900 O   0  0  0  0  0  0  0  0  0  0  0  0
   56.1680   26.7540   45.5910 O   0  0  0  0  0  0  0  0  0  0  0  0
   58.9620   28.2800   46.0160 C   0  0  0  0  0  0  0  0  0  0  0  0
   57.8050   31.7690   45.1210 C   0  0  0  0  0  0  0  0  0  0  0  0
   56.7772   34.9823   45.5465 H   0  0  0  0  0  0  0  0  0  0  0  0
   57.9448   34.5668   44.2463 H   0  0  0  0  0  0  0  0  0  0  0  0
   56.3034   33.8371   44.2463 H   0  0  0  0  0  0  0  0  0  0  0  0
   57.9039   34.2311   47.4980 H   0  0  0  0  0  0  0  0  0  0  0  0
   60.5256   34.4246   46.9543 H   0  0  0  0  0  0  0  0  0  0  0  0
   62.4601   34.1801   45.3950 H   0  0  0  0  0  0  0  0  0  0  0  0
   64.5491   33.0382   46.1559 H   0  0  0  0  0  0  0  0  0  0  0  0
   64.7002   32.1499   48.4855 H   0  0  0  0  0  0  0  0  0  0  0  0
   62.7846   32.4227   50.0606 H   0  0  0  0  0  0  0  0  0  0  0  0
   59.0315   30.0685   47.8252 H   0  0  0  0  0  0  0  0  0  0  0  0
   57.3725   29.9035   43.4550 H   0  0  0  0  0  0  0  0  0  0  0  0
   57.5286   27.6295   42.4517 H   0  0  0  0  0  0  0  0  0  0  0  0
   58.5671   25.7621   43.7353 H   0  0  0  0  0  0  0  0  0  0  0  0
   59.4701   22.5167   44.8778 H   0  0  0  0  0  0  0  0  0  0  0  0
   58.2748   21.4049   42.9928 H   0  0  0  0  0  0  0  0  0  0  0  0
   55.9087   22.0040   42.4862 H   0  0  0  0  0  0  0  0  0  0  0  0
   54.7489   23.7511   43.8305 H   0  0  0  0  0  0  0  0  0  0  0  0
   53.5690   26.3300   45.9690 H   0  0  0  0  0  0  0  0  0  0  0  0
   59.3840   28.4655   47.0148 H   0  0  0  0  0  0  0  0  0  0  0  0
   57.5551   31.6189   44.0603 H   0  0  0  0  0  0  0  0  0  0  0  0
  1  2  1  0
  2  3  2  0
  3  4  1  0
  4  5  1  0
  5  6  1  0
  6  7  2  0
  6  8  2  0
  6  9  1  0
  9 10  2  0
 10 11  1  0
 11 12  2  0
 12 13  1  0
 13 14  2  0
  4 15  2  0
 15 16  1  0
 16 17  1  0
 17 18  2  0
 18 19  1  0
 19 20  2  0
 20 21  1  0
 21 22  1  0
 22 23  2  0
 22 24  2  0
 22 25  1  0
 25 26  1  0
 26 27  2  0
 27 28  1  0
 28 29  2  0
 29 30  1  0
 30 31  2  0
 31 32  1  0
 32 33  1  0
 32 34  2  0
 32 35  2  0
 21 36  2  0
 16 37  2  0
 37  2  1  0
 14  9  1  0
 36 17  1  0
 31 26  1  0
  1 38  1  0
  1 39  1  0
  1 40  1  0
  3 41  1  0
 10 42  1  0
 11 43  1  0
 12 44  1  0
 13 45  1  0
 14 46  1  0
 15 47  1  0
 18 48  1  0
 19 49  1  0
 20 50  1  0
 27 51  1  0
 28 52  1  0
 29 53  1  0
 30 54  1  0
 33 55  1  0
 36 56  1  0
 37 57  1  0
M  CHG  3   5  -1  25  -1  33  -1
M  END
>  <UniqueID>  (10) 
9

>  <SMILES>  (10) 
Cc1cc([N-]S(=O)(=O)c2ccccc2)cc(-c2cccc(S(=O)(=O)[N-]c3ccccc3S([NH-])(=O)=O)c2)c1

>  <Energy>  (10) 
73.25371013425125

>  <Genealogy>  (10) 
Cc1cc([N-]S(=O)(=O)c2ccccc2)cc(-c2cccc(S(=O)(=O)[N-]c3ccccc3S([NH-])(=O)=O)c2)c1 (protonated)
Cc1cc([N-]S(=O)(=O)c2ccccc2)cc(-c2cccc(S(=O)(=O)[N-]c3ccccc3S([NH-])(=O)=O)c2)c1 (3D coordinates assigned)
Cc1cc([N-]S(=O)(=O)c2ccccc2)cc(-c2cccc(S(=O)(=O)[N-]c3ccccc3S([NH-])(=O)=O)c2)c1 (optimized conformer: 73.25371013425125 kcal/mol)

>  <smiles>  (10) 
Cc1cc(NS(=O)(=O)c2ccccc2)cc(-c2cccc(S(=O)(=O)Nc3ccccc3S(N)(=O)=O)c2)c1

>  <score_type>  (10) 
oracle

>  <origin>  (10) 
adg

>  <m_score__min__energy>  (10) 
-16.870000000000001

>  <m_primary>  (10) 
energy

$$$$
10:0
     RDKit          3D

 38 40  0  0  0  0  0  0  0  0999 V2000
   58.5641   33.4850   42.1707 H   0  0  0  0  0  0  0  0  0  0  0  0
   58.0330   32.6730   42.6890 C   0  0  0  0  0  0  0  0  0  0  0  0
   58.0110   32.6320   44.0850 C   0  0  0  0  0  0  0  0  0  0  0  0
   58.5337   33.4066   44.6653 H   0  0  0  0  0  0  0  0  0  0  0  0
   57.3250   31.6070   44.7470 C   0  0  0  0  0  0  0  0  0  0  0  0
   57.3217   31.5700   45.8464 H   0  0  0  0  0  0  0  0  0  0  0  0
   56.6390   30.6230   44.0090 C   0  0  0  0  0  0  0  0  0  0  0  0
   55.9540   29.5310   44.6460 N   0  0  0  0  0  0  0  0  0  0  0  0
   56.4710   28.6380   45.4390 C   0  0  0  0  0  0  0  0  0  0  0  0
   57.6360   28.9180   46.0790 N   0  0  0  0  0  0  0  0  0  0  0  0
   58.2360   28.0130   46.9000 C   0  0  0  0  0  0  0  0  0  0  0  0
   59.5000   28.3660   47.5820 C   0  0  0  0  0  0  0  0  0  0  0  0
   60.1910   27.4600   48.1270 O   0  0  0  0  0  0  0  0  0  0  0  0
   59.9490   29.7290   47.6290 N   0  0  0  0  0  0  0  0  0  0  0  0
   59.4080   30.4710   47.1310 H   0  0  0  0  0  0  0  0  0  0  0  0
   61.1560   30.1320   48.3500 C   0  0  0  0  0  0  0  0  0  0  0  0
   60.9156   30.2648   49.4152 H   0  0  0  0  0  0  0  0  0  0  0  0
   61.9219   29.3513   48.2323 H   0  0  0  0  0  0  0  0  0  0  0  0
   61.6850   31.4260   47.7950 C   0  0  0  0  0  0  0  0  0  0  0  0
   63.0620   31.7010   47.8470 C   0  0  0  0  0  0  0  0  0  0  0  0
   63.7488   30.9762   48.3085 H   0  0  0  0  0  0  0  0  0  0  0  0
   63.5620   32.8930   47.3140 C   0  0  0  0  0  0  0  0  0  0  0  0
   64.6405   33.1047   47.3591 H   0  0  0  0  0  0  0  0  0  0  0  0
   62.6940   33.8160   46.7240 C   0  0  0  0  0  0  0  0  0  0  0  0
   63.0893   34.7542   46.3075 H   0  0  0  0  0  0  0  0  0  0  0  0
   61.3230   33.5470   46.6630 C   0  0  0  0  0  0  0  0  0  0  0  0
   60.6406   34.2728   46.1966 H   0  0  0  0  0  0  0  0  0  0  0  0
   60.8190   32.3550   47.1950 C   0  0  0  0  0  0  0  0  0  0  0  0
   59.7405   32.1447   47.1432 H   0  0  0  0  0  0  0  0  0  0  0  0
   57.6380   26.7590   47.0850 C   0  0  0  0  0  0  0  0  0  0  0  0
   58.0986   26.0097   47.7456 H   0  0  0  0  0  0  0  0  0  0  0  0
   56.4460   26.4800   46.4140 C   0  0  0  0  0  0  0  0  0  0  0  0
   55.8870   25.3630   46.5540 O   0  0  0  0  0  0  0  0  0  0  0  0
   55.8900   27.4180   45.6050 N   0  0  0  0  0  0  0  0  0  0  0  0
   56.6950   30.6560   42.6080 C   0  0  0  0  0  0  0  0  0  0  0  0
   56.1966   29.8694   42.0225 H   0  0  0  0  0  0  0  0  0  0  0  0
   57.3800   31.6820   41.9510 C   0  0  0  0  0  0  0  0  0  0  0  0
   57.4052   31.7095   40.8516 H   0  0  0  0  0  0  0  0  0  0  0  0
  1  2  1  0
  2  3  2  0
  3  4  1  0
  3  5  1  0
  5  6  1  0
  5  7  2  0
  7  8  1  0
  8  9  2  0
  9 10  1  0
 10 11  1  0
 11 12  1  0
 12 13  2  0
 12 14  1  0
 14 15  1  0
 14 16  1  0
 16 17  1  0
 16 18  1  0
 16 19  1  0
 19 20  2  0
 20 21  1  0
 20 22  1  0
 22 23  1  0
 22 24  2  0
 24 25  1  0
 24 26  1  0
 26 27  1  0
 26 28  2  0
 28 29  1  0
 11 30  2  0
 30 31  1  0
 30 32  1  0
 32 33  2  0
 32 34  1  0
  7 35  1  0
 35 36  1  0
 35 37  2  0
 37 38  1  0
 37  2  1  0
 34  9  1  0
 28 19  1  0
M  CHG  2  10  -1  34  -1
M  END
>  <UniqueID>  (11) 
10

>  <SMILES>  (11) 
O=C(NCc1ccccc1)c1cc(=O)[n-]/c(=N\c2ccccc2)[n-]1

>  <Energy>  (11) 
45.886597187404476

>  <Genealogy>  (11) 
O=C(NCc1ccccc1)c1cc(=O)[n-]c(=Nc2ccccc2)[n-]1 (protonated)
O=C(NCc1ccccc1)c1cc(=O)[n-]/c(=N\c2ccccc2)[n-]1 (cis-trans isomerization)
O=C(NCc1ccccc1)c1cc(=O)[n-]/c(=N\c2ccccc2)[n-]1 (3D coordinates assigned)
O=C(NCc1ccccc1)c1cc(=O)[n-]/c(=N\c2ccccc2)[n-]1 (optimized conformer: 45.886597187404476 kcal/mol)

>  <smiles>  (11) 
O=C(NCc1ccccc1)c1cc(=O)[nH]c(=Nc2ccccc2)[nH]1

>  <score_type>  (11) 
oracle

>  <origin>  (11) 
adg

>  <m_score__min__energy>  (11) 
-11.52

>  <m_primary>  (11) 
energy

$$$$
11:0
     RDKit          3D

 40 42  0  0  0  0  0  0  0  0999 V2000
   55.3520   26.6780   46.1040 O   0  0  0  0  0  0  0  0  0  0  0  0
   56.6060   26.8090   46.1610 C   0  0  0  0  0  0  0  0  0  0  0  0
   57.4100   25.7230   46.6440 N   0  0  0  0  0  0  0  0  0  0  0  0
   57.4650   24.3910   46.1110 C   0  0  0  0  0  0  0  0  0  0  0  0
   58.6780   23.8220   45.6780 C   0  0  0  0  0  0  0  0  0  0  0  0
   58.7100   22.5150   45.1870 C   0  0  0  0  0  0  0  0  0  0  0  0
   57.5380   21.7570   45.1360 C   0  0  0  0  0  0  0  0  0  0  0  0
   56.3340   22.3020   45.5860 C   0  0  0  0  0  0  0  0  0  0  0  0
   56.2910   23.6110   46.0790 C   0  0  0  0  0  0  0  0  0  0  0  0
   55.0700   24.1190   46.5260 O   0  0  0  0  0  0  0  0  0  0  0  0
   57.2280   28.1060   45.7790 C   0  0  0  0  0  0  0  0  0  0  0  0
   58.5930   28.3240   46.0530 C   0  0  0  0  0  0  0  0  0  0  0  0
   59.2180   29.5290   45.7100 C   0  0  0  0  0  0  0  0  0  0  0  0
   60.6130   29.6860   46.0100 N   0  0  0  0  0  0  0  0  0  0  0  0
   61.2680   30.8110   47.1560 S   0  0  0  0  0  0  0  0  0  0  0  0
   62.7200   31.0400   46.8450 O   0  0  0  0  0  0  0  0  0  0  0  0
   61.1490   30.2300   48.5380 O   0  0  0  0  0  0  0  0  0  0  0  0
   60.4150   32.3470   47.0540 C   0  0  0  0  0  0  0  0  0  0  0  0
   61.0270   33.4520   46.4430 C   0  0  0  0  0  0  0  0  0  0  0  0
   60.3480   34.6710   46.3540 C   0  0  0  0  0  0  0  0  0  0  0  0
   59.0590   34.7940   46.8790 C   0  0  0  0  0  0  0  0  0  0  0  0
   58.4460   33.6980   47.4950 C   0  0  0  0  0  0  0  0  0  0  0  0
   59.1220   32.4770   47.5840 C   0  0  0  0  0  0  0  0  0  0  0  0
   58.4700   30.5390   45.0880 C   0  0  0  0  0  0  0  0  0  0  0  0
   57.1180   30.3400   44.8090 C   0  0  0  0  0  0  0  0  0  0  0  0
   56.4930   29.1370   45.1470 C   0  0  0  0  0  0  0  0  0  0  0  0
   55.1440   28.9860   44.8450 O   0  0  0  0  0  0  0  0  0  0  0  0
   59.6060   24.4105   45.7268 H   0  0  0  0  0  0  0  0  0  0  0  0
   59.6597   22.0819   44.8399 H   0  0  0  0  0  0  0  0  0  0  0  0
   57.5636   20.7306   44.7413 H   0  0  0  0  0  0  0  0  0  0  0  0
   55.4144   21.6993   45.5529 H   0  0  0  0  0  0  0  0  0  0  0  0
   54.9350   25.1000   46.7380 H   0  0  0  0  0  0  0  0  0  0  0  0
   59.1780   27.5332   46.5453 H   0  0  0  0  0  0  0  0  0  0  0  0
   62.0435   33.3590   46.0330 H   0  0  0  0  0  0  0  0  0  0  0  0
   60.8290   35.5339   45.8703 H   0  0  0  0  0  0  0  0  0  0  0  0
   58.5259   35.7535   46.8078 H   0  0  0  0  0  0  0  0  0  0  0  0
   57.4319   33.7965   47.9096 H   0  0  0  0  0  0  0  0  0  0  0  0
   58.6392   31.6166   48.0705 H   0  0  0  0  0  0  0  0  0  0  0  0
   58.9510   31.4911   44.8193 H   0  0  0  0  0  0  0  0  0  0  0  0
   56.5391   31.1366   44.3189 H   0  0  0  0  0  0  0  0  0  0  0  0
  1  2  2  0
  2  3  1  0
  3  4  1  0
  4  5  2  0
  5  6  1  0
  6  7  2  0
  7  8  1  0
  8  9  2  0
  9 10  1  0
  2 11  1  0
 11 12  2  0
 12 13  1  0
 13 14  1  0
 14 15  1  0
 15 16  2  0
 15 17  2  0
 15 18  1  0
 18 19  2  0
 19 20  1  0
 20 21  2  0
 21 22  1  0
 22 23  2  0
 13 24  2  0
 24 25  1  0
 25 26  2  0
 26 27  1  0
  9  4  1  0
 26 11  1  0
 23 18  1  0
  5 28  1  0
  6 29  1  0
  7 30  1  0
  8 31  1  0
 10 32  1  0
 12 33  1  0
 19 34  1  0
 20 35  1  0
 21 36  1  0
 22 37  1  0
 23 38  1  0
 24 39  1  0
 25 40  1  0
M  CHG  3   3  -1  14  -1  27  -1
M  END
>  <UniqueID>  (12) 
11

>  <SMILES>  (12) 
O=C([N-]c1ccccc1O)c1cc([N-]S(=O)(=O)c2ccccc2)ccc1[O-]

>  <Energy>  (12) 
52.95231678963453

>  <Genealogy>  (12) 
O=C([N-]c1ccccc1O)c1cc([N-]S(=O)(=O)c2ccccc2)ccc1[O-] (protonated)
O=C([N-]c1ccccc1O)c1cc([N-]S(=O)(=O)c2ccccc2)ccc1[O-] (3D coordinates assigned)
O=C([N-]c1ccccc1O)c1cc([N-]S(=O)(=O)c2ccccc2)ccc1[O-] (optimized conformer: 52.95231678963453 kcal/mol)

>  <smiles>  (12) 
O=C(Nc1ccccc1O)c1cc(NS(=O)(=O)c2ccccc2)ccc1O

>  <score_type>  (12) 
oracle

>  <origin>  (12) 
adg

>  <m_score__min__energy>  (12) 
-14.66

>  <m_primary>  (12) 
energy

$$$$
12:0
     RDKit          3D

 64 66  0  0  0  0  0  0  0  0999 V2000
   60.1820   28.5670   49.7090 O   0  0  0  0  0  0  0  0  0  0  0  0
   59.8670   29.7750   49.5320 C   0  0  0  0  0  0  0  0  0  0  0  0
   58.6600   30.3200   50.2450 C   0  0  0  0  0  0  0  0  0  0  0  0
   58.3280   32.0660   49.8010 S   0  0  0  0  0  0  0  0  0  0  0  0
   59.0480   32.7630   51.2890 C   0  0  0  0  0  0  0  0  0  0  0  0
   60.3320   32.3780   51.6980 C   0  0  0  0  0  0  0  0  0  0  0  0
   60.8850   32.9140   52.8650 C   0  0  0  0  0  0  0  0  0  0  0  0
   60.1530   33.8280   53.6330 C   0  0  0  0  0  0  0  0  0  0  0  0
   58.8680   34.2080   53.2310 C   0  0  0  0  0  0  0  0  0  0  0  0
   58.3150   33.6750   52.0620 C   0  0  0  0  0  0  0  0  0  0  0  0
   60.7070   30.5850   48.6960 N   0  0  0  0  0  0  0  0  0  0  0  0
   62.0680   30.9600   48.9320 C   0  0  0  0  0  0  0  0  0  0  0  0
   62.6050   30.7830   50.0570 O   0  0  0  0  0  0  0  0  0  0  0  0
   62.8570   31.5730   47.8220 C   0  0  0  0  0  0  0  0  0  0  0  0
   63.0280   33.0190   48.0980 N   0  0  0  0  0  0  0  0  0  0  0  0
   62.9200   33.8530   46.8830 C   0  0  0  0  0  0  0  0  0  0  0  0
   61.4730   33.9430   46.3440 C   0  0  0  0  0  0  0  0  0  0  0  0
   60.4010   33.6890   47.4310 C   0  0  0  0  0  0  0  0  0  0  0  0
   59.0380   34.3160   47.0260 C   0  0  0  0  0  0  0  0  0  0  0  0
   57.9620   33.2810   46.6490 C   0  0  0  0  0  0  0  0  0  0  0  0
   57.5680   33.3290   45.1640 C   0  0  0  0  0  0  0  0  0  0  0  0
   57.7140   31.9640   44.4900 C   0  0  0  0  0  0  0  0  0  0  0  0
   56.4440   31.2450   44.5270 N   0  0  0  0  0  0  0  0  0  0  0  0
   56.3140   29.8500   44.8220 C   0  0  0  0  0  0  0  0  0  0  0  0
   55.1650   29.3360   44.8450 O   0  0  0  0  0  0  0  0  0  0  0  0
   57.4810   29.0100   45.1360 C   0  0  0  0  0  0  0  0  0  0  0  0
   57.7960   27.9220   44.3070 C   0  0  0  0  0  0  0  0  0  0  0  0
   58.9110   27.1250   44.5830 C   0  0  0  0  0  0  0  0  0  0  0  0
   59.7250   27.4180   45.6800 C   0  0  0  0  0  0  0  0  0  0  0  0
   59.4300   28.5110   46.4990 C   0  0  0  0  0  0  0  0  0  0  0  0
   58.3120   29.3090   46.2290 C   0  0  0  0  0  0  0  0  0  0  0  0
   58.0670   30.3930   47.0090 F   0  0  0  0  0  0  0  0  0  0  0  0
   60.9060   34.2380   48.7760 C   0  0  0  0  0  0  0  0  0  0  0  0
   62.2070   33.5360   49.2230 C   0  0  0  0  0  0  0  0  0  0  0  0
   57.7838   29.7124   49.9746 H   0  0  0  0  0  0  0  0  0  0  0  0
   58.8570   30.2769   51.3264 H   0  0  0  0  0  0  0  0  0  0  0  0
   60.9051   31.6537   51.1005 H   0  0  0  0  0  0  0  0  0  0  0  0
   61.8963   32.6174   53.1802 H   0  0  0  0  0  0  0  0  0  0  0  0
   60.5883   34.2471   54.5522 H   0  0  0  0  0  0  0  0  0  0  0  0
   58.2927   34.9258   53.8341 H   0  0  0  0  0  0  0  0  0  0  0  0
   57.3033   33.9718   51.7484 H   0  0  0  0  0  0  0  0  0  0  0  0
   63.8431   31.0897   47.7589 H   0  0  0  0  0  0  0  0  0  0  0  0
   62.3278   31.4352   46.8676 H   0  0  0  0  0  0  0  0  0  0  0  0
   63.2699   34.8682   47.1214 H   0  0  0  0  0  0  0  0  0  0  0  0
   63.5353   33.3819   46.1023 H   0  0  0  0  0  0  0  0  0  0  0  0
   61.3170   34.9490   45.9274 H   0  0  0  0  0  0  0  0  0  0  0  0
   61.3584   33.1580   45.5820 H   0  0  0  0  0  0  0  0  0  0  0  0
   60.2326   32.6069   47.5345 H   0  0  0  0  0  0  0  0  0  0  0  0
   58.6650   34.9104   47.8731 H   0  0  0  0  0  0  0  0  0  0  0  0
   59.2214   34.9266   46.1296 H   0  0  0  0  0  0  0  0  0  0  0  0
   58.3488   32.2765   46.8756 H   0  0  0  0  0  0  0  0  0  0  0  0
   57.0611   33.5190   47.2336 H   0  0  0  0  0  0  0  0  0  0  0  0
   56.5202   33.6544   45.0846 H   0  0  0  0  0  0  0  0  0  0  0  0
   58.2422   34.0338   44.6554 H   0  0  0  0  0  0  0  0  0  0  0  0
   58.0205   32.1066   43.4432 H   0  0  0  0  0  0  0  0  0  0  0  0
   58.4741   31.3779   45.0273 H   0  0  0  0  0  0  0  0  0  0  0  0
   57.1629   27.6955   43.4365 H   0  0  0  0  0  0  0  0  0  0  0  0
   59.1474   26.2671   43.9364 H   0  0  0  0  0  0  0  0  0  0  0  0
   60.5993   26.7874   45.8993 H   0  0  0  0  0  0  0  0  0  0  0  0
   60.0772   28.7447   47.3572 H   0  0  0  0  0  0  0  0  0  0  0  0
   61.0994   35.3158   48.6719 H   0  0  0  0  0  0  0  0  0  0  0  0
   60.1341   34.0496   49.5367 H   0  0  0  0  0  0  0  0  0  0  0  0
   62.8126   34.2576   49.7909 H   0  0  0  0  0  0  0  0  0  0  0  0
   61.9097   32.6666   49.8277 H   0  0  0  0  0  0  0  0  0  0  0  0
  1  2  2  0
  2  3  1  0
  3  4  1  0
  4  5  1  0
  5  6  2  0
  6  7  1  0
  7  8  2  0
  8  9  1  0
  9 10  2  0
  2 11  1  0
 11 12  1  0
 12 13  2  0
 12 14  1  0
 14 15  1  0
 15 16  1  0
 16 17  1  0
 17 18  1  0
 18 19  1  0
 19 20  1  0
 20 21  1  0
 21 22  1  0
 22 23  1  0
 23 24  1  0
 24 25  2  0
 24 26  1  0
 26 27  2  0
 27 28  1  0
 28 29  2  0
 29 30  1  0
 30 31  2  0
 31 32  1  0
 18 33  1  0
 33 34  1  0
 10  5  1  0
 34 15  1  0
 31 26  1  0
  3 35  1  0
  3 36  1  0
  6 37  1  0
  7 38  1  0
  8 39  1  0
  9 40  1  0
 10 41  1  0
 14 42  1  0
 14 43  1  0
 16 44  1  0
 16 45  1  0
 17 46  1  0
 17 47  1  0
 18 48  1  0
 19 49  1  0
 19 50  1  0
 20 51  1  0
 20 52  1  0
 21 53  1  0
 21 54  1  0
 22 55  1  0
 22 56  1  0
 27 57  1  0
 28 58  1  0
 29 59  1  0
 30 60  1  0
 33 61  1  0
 33 62  1  0
 34 63  1  0
 34 64  1  0
M  CHG  2  11  -1  23  -1
M  END
>  <UniqueID>  (13) 
12

>  <SMILES>  (13) 
O=C(CSc1ccccc1)[N-]C(=O)CN1CCC(CCCC[N-]C(=O)c2ccccc2F)CC1

>  <Energy>  (13) 
72.85520863857823

>  <Genealogy>  (13) 
O=C(CSc1ccccc1)[N-]C(=O)CN1CCC(CCCC[N-]C(=O)c2ccccc2F)CC1 (protonated)
O=C(CSc1ccccc1)[N-]C(=O)CN1CCC(CCCC[N-]C(=O)c2ccccc2F)CC1 (3D coordinates assigned)
O=C(CSc1ccccc1)[N-]C(=O)CN1CCC(CCCC[N-]C(=O)c2ccccc2F)CC1 (nonaromatic ring conformer: 72.85520863857823 kcal/mol)

>  <smiles>  (13) 
O=C(CSc1ccccc1)NC(=O)CN1CCC(CCCCNC(=O)c2ccccc2F)CC1

>  <score_type>  (13) 
oracle

>  <origin>  (13) 
adg

>  <m_score__min__energy>  (13) 
-13.25

>  <m_primary>  (13) 
energy

$$$$
13:0
     RDKit          3D

 59 62  0  0  1  0  0  0  0  0999 V2000
   57.7230   26.0340   44.2790 O   0  0  0  0  0  0  0  0  0  0  0  0
   58.5460   25.8510   45.1960 C   0  0  0  0  0  0  0  0  0  0  0  0
   58.6120   24.5800   45.9780 C   0  0  0  0  0  0  0  0  0  0  0  0
   58.0180   23.4270   45.2600 C   0  0  0  0  0  0  0  0  0  0  0  0
   56.6600   23.2170   45.3200 C   0  0  0  0  0  0  0  0  0  0  0  0
   55.9720   22.2160   44.7020 C   0  0  0  0  0  0  0  0  0  0  0  0
   56.7230   21.3230   43.9380 C   0  0  0  0  0  0  0  0  0  0  0  0
   56.1090   20.2560   43.2610 O   0  0  0  0  0  0  0  0  0  0  0  0
   58.1130   21.4640   43.8230 C   0  0  0  0  0  0  0  0  0  0  0  0
   58.7350   22.5280   44.4960 C   0  0  0  0  0  0  0  0  0  0  0  0
   59.4610   26.8650   45.5340 N   0  0  0  0  0  0  0  0  0  0  0  0
   59.0760   28.0220   45.8940 C   0  0  0  0  0  0  0  0  0  0  0  0
   59.7650   28.5760   46.9840 C   0  0  0  0  0  0  0  0  0  0  0  0
   59.4060   29.8510   47.4440 C   0  0  0  0  0  0  0  0  0  0  0  0
   60.1770   30.3630   48.5980 C   0  0  0  0  0  0  0  0  0  0  0  0
   60.2370   31.8410   48.7340 C   0  0  0  0  0  0  0  0  0  0  0  0
   61.4710   32.4460   48.1840 C   0  0  0  0  0  0  0  0  0  0  0  0
   62.7190   32.3090   48.8070 C   0  0  0  0  0  0  0  0  0  0  0  0
   63.8110   32.9080   48.2620 C   0  0  0  0  0  0  0  0  0  0  0  0
   63.7700   33.6710   47.0900 C   0  0  0  0  0  0  0  0  0  0  0  0
   62.5520   33.8090   46.4760 C   0  0  0  0  0  0  0  0  0  0  0  0
   61.4670   33.1990   47.0400 C   0  0  0  0  0  0  0  0  0  0  0  0
   58.4170   30.4990   46.8250 N   0  0  0  0  0  0  0  0  0  0  0  0
   57.7840   29.9180   45.7790 C   0  0  0  0  0  0  0  0  0  0  0  0
   56.7950   30.5800   45.2100 N   0  0  0  0  0  0  0  0  0  0  0  0
   57.1920   31.5500   44.2060 C   0  0  0  0  0  0  0  0  0  0  0  0
   57.8140   32.7330   44.8740 C   0  0  0  0  0  0  0  0  0  0  0  0
   58.8220   33.4640   44.2170 C   0  0  0  0  0  0  0  0  0  0  0  0
   59.3820   34.5590   44.8550 C   0  0  0  0  0  0  0  0  0  0  0  0
   58.9900   34.9650   46.1190 C   0  0  0  0  0  0  0  0  0  0  0  0
   58.0120   34.2350   46.7320 C   0  0  0  0  0  0  0  0  0  0  0  0
   57.4120   33.1360   46.1550 C   0  0  0  0  0  0  0  0  0  0  0  0
   58.0690   28.7170   45.2920 N   0  0  0  0  0  0  0  0  0  0  0  0
   59.6672   24.3542   46.1916 H   0  0  0  0  0  0  0  0  0  0  0  0
   58.0297   24.7296   46.8991 H   0  0  0  0  0  0  0  0  0  0  0  0
   56.0733   23.9245   45.9244 H   0  0  0  0  0  0  0  0  0  0  0  0
   54.8809   22.1175   44.8006 H   0  0  0  0  0  0  0  0  0  0  0  0
   56.6350   19.3710   43.2720 H   0  0  0  0  0  0  0  0  0  0  0  0
   58.7025   20.7579   43.2198 H   0  0  0  0  0  0  0  0  0  0  0  0
   59.8251   22.6487   44.4120 H   0  0  0  0  0  0  0  0  0  0  0  0
   60.5770   28.0166   47.4716 H   0  0  0  0  0  0  0  0  0  0  0  0
   59.7214   29.9585   49.5139 H   0  0  0  0  0  0  0  0  0  0  0  0
   61.2143   30.0371   48.4310 H   0  0  0  0  0  0  0  0  0  0  0  0
   59.3745   32.2725   48.2049 H   0  0  0  0  0  0  0  0  0  0  0  0
   60.2265   32.0624   49.8114 H   0  0  0  0  0  0  0  0  0  0  0  0
   62.8144   31.7204   49.7313 H   0  0  0  0  0  0  0  0  0  0  0  0
   64.7791   32.7862   48.7699 H   0  0  0  0  0  0  0  0  0  0  0  0
   64.6761   34.1400   46.6789 H   0  0  0  0  0  0  0  0  0  0  0  0
   62.4506   34.3966   45.5516 H   0  0  0  0  0  0  0  0  0  0  0  0
   60.5015   33.3243   46.5280 H   0  0  0  0  0  0  0  0  0  0  0  0
   58.1740   31.4460   47.1890 H   0  0  0  0  0  0  0  0  0  0  0  0
   57.9200   31.0912   43.5207 H   0  0  0  0  0  0  0  0  0  0  0  0
   56.3068   31.8731   43.6385 H   0  0  0  0  0  0  0  0  0  0  0  0
   59.1599   33.1702   43.2123 H   0  0  0  0  0  0  0  0  0  0  0  0
   60.1684   35.1276   44.3371 H   0  0  0  0  0  0  0  0  0  0  0  0
   59.4465   35.8379   46.6085 H   0  0  0  0  0  0  0  0  0  0  0  0
   57.6863   34.5395   47.7376 H   0  0  0  0  0  0  0  0  0  0  0  0
   56.6281   32.5826   46.6928 H   0  0  0  0  0  0  0  0  0  0  0  0
   57.6110   28.2420   44.4990 H   0  0  0  0  0  0  0  0  0  0  0  0
  1  2  2  0
  2  3  1  0
  3  4  1  0
  4  5  2  0
  5  6  1  0
  6  7  2  0
  7  8  1  0
  7  9  1  0
  9 10  2  0
  2 11  1  0
 11 12  2  0
 12 13  1  0
 13 14  2  0
 14 15  1  0
 15 16  1  0
 16 17  1  0
 17 18  2  0
 18 19  1  0
 19 20  2  0
 20 21  1  0
 21 22  2  0
 14 23  1  0
 23 24  1  0
 24 25  2  0
 25 26  1  0
 26 27  1  0
 27 28  2  0
 28 29  1  0
 29 30  2  0
 30 31  1  0
 31 32  2  0
 24 33  1  0
 10  4  1  0
 33 12  1  0
 22 17  1  0
 32 27  1  0
  3 34  1  0
  3 35  1  0
  5 36  1  0
  6 37  1  0
  8 38  1  0
  9 39  1  0
 10 40  1  0
 13 41  1  0
 15 42  1  0
 15 43  1  0
 16 44  1  0
 16 45  1  0
 18 46  1  0
 19 47  1  0
 20 48  1  0
 21 49  1  0
 22 50  1  0
 23 51  1  0
 26 52  1  0
 26 53  1  0
 28 54  1  0
 29 55  1  0
 30 56  1  0
 31 57  1  0
 32 58  1  0
 33 59  1  0
M  END
>  <smiles>  (14) 
O=C(Cc1ccc(O)cc1)N=c1cc(CCc2ccccc2)[nH]c(=NCc2ccccc2)[nH]1

>  <score_type>  (14) 
oracle

>  <origin>  (14) 
adg

>  <m_score__min__energy>  (14) 
-10.49

>  <m_primary>  (14) 
energy

$$$$
14:0
     RDKit          3D

 30 31  0  0  0  0  0  0  0  0999 V2000
   56.8374   29.0110   42.9467 H   0  0  0  0  0  0  0  0  0  0  0  0
   57.0170   29.3550   43.9760 C   0  0  0  0  0  0  0  0  0  0  0  0
   56.2130   30.2170   44.5050 N   0  0  0  0  0  0  0  0  0  0  0  0
   56.6980   31.3350   45.1460 O   0  0  0  0  0  0  0  0  0  0  0  0
   57.3990   32.3350   44.4210 C   0  0  0  0  0  0  0  0  0  0  0  0
   58.1103   31.8538   43.7336 H   0  0  0  0  0  0  0  0  0  0  0  0
   56.6763   32.9385   43.8523 H   0  0  0  0  0  0  0  0  0  0  0  0
   58.1500   33.2310   45.3650 C   0  0  0  0  0  0  0  0  0  0  0  0
   58.9040   34.3080   44.8700 C   0  0  0  0  0  0  0  0  0  0  0  0
   58.9149   34.5191   43.7905 H   0  0  0  0  0  0  0  0  0  0  0  0
   59.6410   35.1130   45.7450 C   0  0  0  0  0  0  0  0  0  0  0  0
   60.2217   35.9615   45.3540 H   0  0  0  0  0  0  0  0  0  0  0  0
   59.6400   34.8400   47.1150 C   0  0  0  0  0  0  0  0  0  0  0  0
   60.2185   35.4751   47.8020 H   0  0  0  0  0  0  0  0  0  0  0  0
   58.9050   33.7610   47.6140 C   0  0  0  0  0  0  0  0  0  0  0  0
   58.9091   33.5453   48.6926 H   0  0  0  0  0  0  0  0  0  0  0  0
   58.1650   32.9560   46.7440 C   0  0  0  0  0  0  0  0  0  0  0  0
   57.5922   32.1042   47.1392 H   0  0  0  0  0  0  0  0  0  0  0  0
   58.1710   28.8230   44.7250 C   0  0  0  0  0  0  0  0  0  0  0  0
   59.4410   29.3630   44.6610 C   0  0  0  0  0  0  0  0  0  0  0  0
   59.7578   30.2291   44.0613 H   0  0  0  0  0  0  0  0  0  0  0  0
   60.2350   28.6030   45.4970 C   0  0  0  0  0  0  0  0  0  0  0  0
   61.3081   28.7456   45.6922 H   0  0  0  0  0  0  0  0  0  0  0  0
   59.4210   27.6300   46.0400 C   0  0  0  0  0  0  0  0  0  0  0  0
   59.7498   26.8584   46.7517 H   0  0  0  0  0  0  0  0  0  0  0  0
   58.1640   27.7630   45.5710 N   0  0  0  0  0  0  0  0  0  0  0  0
   57.0330   26.9180   45.9470 C   0  0  0  0  0  0  0  0  0  0  0  0
   56.9630   26.8657   47.0435 H   0  0  0  0  0  0  0  0  0  0  0  0
   56.1047   27.3456   45.5403 H   0  0  0  0  0  0  0  0  0  0  0  0
   57.1798   25.9066   45.5403 H   0  0  0  0  0  0  0  0  0  0  0  0
  1  2  1  0
  2  3  2  0
  3  4  1  0
  4  5  1  0
  5  6  1  0
  5  7  1  0
  5  8  1  0
  8  9  2  0
  9 10  1  0
  9 11  1  0
 11 12  1  0
 11 13  2  0
 13 14  1  0
 13 15  1  0
 15 16  1  0
 15 17  2  0
 17 18  1  0
  2 19  1  0
 19 20  2  0
 20 21  1  0
 20 22  1  0
 22 23  1  0
 22 24  2  0
 24 25  1  0
 24 26  1  0
 26 27  1  0
 27 28  1  0
 27 29  1  0
 27 30  1  0
 17  8  1  0
 26 19  1  0
M  END
>  <UniqueID>  (15) 
13

>  <SMILES>  (15) 
Cn1cccc1/C=N/OCc1ccccc1

>  <Energy>  (15) 
50.40158277903985

>  <Genealogy>  (15) 
Cn1cccc1/C=N/OCc1ccccc1 (cis-trans isomerization)
Cn1cccc1/C=N/OCc1ccccc1 (3D coordinates assigned)
Cn1cccc1/C=N/OCc1ccccc1 (optimized conformer: 50.40158277903985 kcal/mol)

>  <smiles>  (15) 
Cn1cccc1C=NOCc1ccccc1

>  <score_type>  (15) 
oracle

>  <origin>  (15) 
adg

>  <m_score__min__energy>  (15) 
-6.4100000000000001

>  <m_primary>  (15) 
energy

$$$$
15:0
     RDKit          3D

 40 42  0  0  0  0  0  0  0  0999 V2000
   54.7510   26.6900   47.1230 H   0  0  0  0  0  0  0  0  0  0  0  0
   55.0020   26.4480   46.1720 O   0  0  0  0  0  0  0  0  0  0  0  0
   56.1130   25.6580   45.8710 C   0  0  0  0  0  0  0  0  0  0  0  0
   55.9450   24.5330   45.0580 C   0  0  0  0  0  0  0  0  0  0  0  0
   54.9485   24.2850   44.6636 H   0  0  0  0  0  0  0  0  0  0  0  0
   57.0370   23.7250   44.7460 C   0  0  0  0  0  0  0  0  0  0  0  0
   56.9099   22.8417   44.1029 H   0  0  0  0  0  0  0  0  0  0  0  0
   58.2910   24.0490   45.2580 C   0  0  0  0  0  0  0  0  0  0  0  0
   59.1599   23.4159   45.0254 H   0  0  0  0  0  0  0  0  0  0  0  0
   58.4420   25.1470   46.0450 N   0  0  0  0  0  0  0  0  0  0  0  0
   57.3990   25.9630   46.3640 C   0  0  0  0  0  0  0  0  0  0  0  0
   57.5660   27.0230   47.1060 N   0  0  0  0  0  0  0  0  0  0  0  0
   58.7720   27.7410   47.4300 C   0  0  0  0  0  0  0  0  0  0  0  0
   58.9840   28.0310   48.6360 O   0  0  0  0  0  0  0  0  0  0  0  0
   59.8000   28.1460   46.4090 C   0  0  0  0  0  0  0  0  0  0  0  0
   60.7532   28.3535   46.9173 H   0  0  0  0  0  0  0  0  0  0  0  0
   59.9268   27.3262   45.6866 H   0  0  0  0  0  0  0  0  0  0  0  0
   59.3750   29.3170   45.7100 O   0  0  0  0  0  0  0  0  0  0  0  0
   58.2800   29.3870   44.8300 C   0  0  0  0  0  0  0  0  0  0  0  0
   58.0990   28.4730   43.7710 C   0  0  0  0  0  0  0  0  0  0  0  0
   58.8075   27.6421   43.6380 H   0  0  0  0  0  0  0  0  0  0  0  0
   57.0240   28.6180   42.8900 C   0  0  0  0  0  0  0  0  0  0  0  0
   56.8875   27.8992   42.0686 H   0  0  0  0  0  0  0  0  0  0  0  0
   56.1230   29.6720   43.0490 C   0  0  0  0  0  0  0  0  0  0  0  0
   55.2849   29.7902   42.3464 H   0  0  0  0  0  0  0  0  0  0  0  0
   56.2860   30.5760   44.1000 C   0  0  0  0  0  0  0  0  0  0  0  0
   55.5794   31.4106   44.2192 H   0  0  0  0  0  0  0  0  0  0  0  0
   57.3440   30.4250   45.0020 C   0  0  0  0  0  0  0  0  0  0  0  0
   57.4620   31.3270   46.0640 O   0  0  0  0  0  0  0  0  0  0  0  0
   58.1800   32.5320   45.9970 C   0  0  0  0  0  0  0  0  0  0  0  0
   58.4020   33.1100   44.7420 C   0  0  0  0  0  0  0  0  0  0  0  0
   58.0462   32.5995   43.8349 H   0  0  0  0  0  0  0  0  0  0  0  0
   59.0730   34.3320   44.6330 C   0  0  0  0  0  0  0  0  0  0  0  0
   59.2427   34.7794   43.6425 H   0  0  0  0  0  0  0  0  0  0  0  0
   59.5280   34.9850   45.7810 C   0  0  0  0  0  0  0  0  0  0  0  0
   60.0497   35.9495   45.6943 H   0  0  0  0  0  0  0  0  0  0  0  0
   59.3210   34.4140   47.0390 C   0  0  0  0  0  0  0  0  0  0  0  0
   59.6861   34.9259   47.9416 H   0  0  0  0  0  0  0  0  0  0  0  0
   58.6500   33.1920   47.1520 C   0  0  0  0  0  0  0  0  0  0  0  0
   58.4883   32.7445   48.1438 H   0  0  0  0  0  0  0  0  0  0  0  0
  1  2  1  0
  2  3  1  0
  3  4  2  0
  4  5  1  0
  4  6  1  0
  6  7  1  0
  6  8  2  0
  8  9  1  0
  8 10  1  0
 10 11  1  0
 11 12  2  0
 12 13  1  0
 13 14  2  0
 13 15  1  0
 15 16  1  0
 15 17  1  0
 15 18  1  0
 18 19  1  0
 19 20  2  0
 20 21  1  0
 20 22  1  0
 22 23  1  0
 22 24  2  0
 24 25  1  0
 24 26  1  0
 26 27  1  0
 26 28  2  0
 28 29  1  0
 29 30  1  0
 30 31  2  0
 31 32  1  0
 31 33  1  0
 33 34  1  0
 33 35  2  0
 35 36  1  0
 35 37  1  0
 37 38  1  0
 37 39  2  0
 39 40  1  0
 11  3  1  0
 28 19  1  0
 39 30  1  0
M  CHG  1  10  -1
M  END
>  <UniqueID>  (16) 
14

>  <SMILES>  (16) 
O=C(COc1ccccc1Oc1ccccc1)/N=c1\[n-]cccc1O

>  <Energy>  (16) 
52.182579468776346

>  <Genealogy>  (16) 
O=C(COc1ccccc1Oc1ccccc1)N=c1[n-]cccc1O (protonated)
O=C(COc1ccccc1Oc1ccccc1)/N=c1\[n-]cccc1O (cis-trans isomerization)
O=C(COc1ccccc1Oc1ccccc1)/N=c1\[n-]cccc1O (3D coordinates assigned)
O=C(COc1ccccc1Oc1ccccc1)/N=c1\[n-]cccc1O (optimized conformer: 52.182579468776346 kcal/mol)

>  <smiles>  (16) 
O=C(COc1ccccc1Oc1ccccc1)N=c1[nH]cccc1O

>  <score_type>  (16) 
oracle

>  <origin>  (16) 
adg

>  <m_score__min__energy>  (16) 
-10.210000000000001

>  <m_primary>  (16) 
energy

$$$$
16:0
     RDKit          3D

 44 46  0  0  0  0  0  0  0  0999 V2000
   59.7940   26.3130   46.4630 C   0  0  0  0  0  0  0  0  0  0  0  0
   58.4420   26.8770   46.1420 C   0  0  0  0  0  0  0  0  0  0  0  0
   57.3640   26.0630   46.2950 N   0  0  0  0  0  0  0  0  0  0  0  0
   56.1050   26.4920   46.0370 C   0  0  0  0  0  0  0  0  0  0  0  0
   55.1320   25.7100   46.1860 O   0  0  0  0  0  0  0  0  0  0  0  0
   55.8950   27.7630   45.6190 N   0  0  0  0  0  0  0  0  0  0  0  0
   56.9270   28.6280   45.4540 C   0  0  0  0  0  0  0  0  0  0  0  0
   56.6830   29.7980   45.0580 O   0  0  0  0  0  0  0  0  0  0  0  0
   58.2470   28.2160   45.7210 C   0  0  0  0  0  0  0  0  0  0  0  0
   59.5920   29.3510   45.4600 S   0  0  0  0  0  0  0  0  0  0  0  0
   60.7420   28.6330   44.8110 O   0  0  0  0  0  0  0  0  0  0  0  0
   59.1920   30.4660   44.5360 O   0  0  0  0  0  0  0  0  0  0  0  0
   60.1010   30.0110   46.9880 N   0  0  0  0  0  0  0  0  0  0  0  0
   60.2680   29.1280   48.1480 C   0  0  0  0  0  0  0  0  0  0  0  0
   59.8780   29.8350   49.4200 C   0  0  0  0  0  0  0  0  0  0  0  0
   58.5220   30.0650   49.7050 C   0  0  0  0  0  0  0  0  0  0  0  0
   58.1500   30.7680   50.8550 C   0  0  0  0  0  0  0  0  0  0  0  0
   59.1290   31.2510   51.7260 C   0  0  0  0  0  0  0  0  0  0  0  0
   60.4810   31.0330   51.4500 C   0  0  0  0  0  0  0  0  0  0  0  0
   60.8590   30.3290   50.3010 C   0  0  0  0  0  0  0  0  0  0  0  0
   62.1790   30.1430   50.0450 F   0  0  0  0  0  0  0  0  0  0  0  0
   60.6720   31.3270   47.0120 C   0  0  0  0  0  0  0  0  0  0  0  0
   62.0510   31.4590   47.2210 C   0  0  0  0  0  0  0  0  0  0  0  0
   62.6420   32.7210   47.2730 C   0  0  0  0  0  0  0  0  0  0  0  0
   61.8600   33.8650   47.1210 C   0  0  0  0  0  0  0  0  0  0  0  0
   60.4820   33.7560   46.9120 C   0  0  0  0  0  0  0  0  0  0  0  0
   59.5460   35.2400   46.7480 Cl  0  0  0  0  0  0  0  0  0  0  0  0
   59.8710   32.4840   46.8450 C   0  0  0  0  0  0  0  0  0  0  0  0
   58.3800   32.3870   46.6350 C   0  0  0  0  0  0  0  0  0  0  0  0
   59.9197   26.2606   47.5545 H   0  0  0  0  0  0  0  0  0  0  0  0
   59.8812   25.3035   46.0350 H   0  0  0  0  0  0  0  0  0  0  0  0
   60.5728   26.9613   46.0350 H   0  0  0  0  0  0  0  0  0  0  0  0
   59.6318   28.2399   48.0196 H   0  0  0  0  0  0  0  0  0  0  0  0
   61.3259   28.8347   48.2181 H   0  0  0  0  0  0  0  0  0  0  0  0
   57.7480   29.6898   49.0193 H   0  0  0  0  0  0  0  0  0  0  0  0
   57.0859   30.9407   51.0737 H   0  0  0  0  0  0  0  0  0  0  0  0
   58.8352   31.8038   52.6305 H   0  0  0  0  0  0  0  0  0  0  0  0
   61.2501   31.4155   52.1372 H   0  0  0  0  0  0  0  0  0  0  0  0
   62.6725   30.5599   47.3451 H   0  0  0  0  0  0  0  0  0  0  0  0
   63.7262   32.8139   47.4341 H   0  0  0  0  0  0  0  0  0  0  0  0
   62.3297   34.8587   47.1657 H   0  0  0  0  0  0  0  0  0  0  0  0
   57.8736   32.3541   47.6110 H   0  0  0  0  0  0  0  0  0  0  0  0
   58.0314   33.2644   46.0705 H   0  0  0  0  0  0  0  0  0  0  0  0
   58.1480   31.4719   46.0705 H   0  0  0  0  0  0  0  0  0  0  0  0
  1  2  1  0
  2  3  1  0
  3  4  1  0
  4  5  2  0
  4  6  1  0
  6  7  1  0
  7  8  2  0
  7  9  1  0
  9 10  1  0
 10 11  2  0
 10 12  2  0
 10 13  1  0
 13 14  1  0
 14 15  1  0
 15 16  2  0
 16 17  1  0
 17 18  2  0
 18 19  1  0
 19 20  2  0
 20 21  1  0
 13 22  1  0
 22 23  2  0
 23 24  1  0
 24 25  2  0
 25 26  1  0
 26 27  1  0
 26 28  2  0
 28 29  1  0
  9  2  2  0
 20 15  1  0
 28 22  1  0
  1 30  1  0
  1 31  1  0
  1 32  1  0
 14 33  1  0
 14 34  1  0
 16 35  1  0
 17 36  1  0
 18 37  1  0
 19 38  1  0
 23 39  1  0
 24 40  1  0
 25 41  1  0
 29 42  1  0
 29 43  1  0
 29 44  1  0
M  CHG  2   3  -1   6  -1
M  END
>  <UniqueID>  (17) 
15

>  <SMILES>  (17) 
Cc1[n-]c(=O)[n-]c(=O)c1S(=O)(=O)N(Cc1ccccc1F)c1cccc(Cl)c1C

>  <Energy>  (17) 
55.10691968388786

>  <Genealogy>  (17) 
Cc1[n-]c(=O)[n-]c(=O)c1S(=O)(=O)N(Cc1ccccc1F)c1cccc(Cl)c1C (protonated)
Cc1[n-]c(=O)[n-]c(=O)c1S(=O)(=O)N(Cc1ccccc1F)c1cccc(Cl)c1C (3D coordinates assigned)
Cc1[n-]c(=O)[n-]c(=O)c1S(=O)(=O)N(Cc1ccccc1F)c1cccc(Cl)c1C (optimized conformer: 55.10691968388786 kcal/mol)

>  <smiles>  (17) 
Cc1[nH]c(=O)[nH]c(=O)c1S(=O)(=O)N(Cc1ccccc1F)c1cccc(Cl)c1C

>  <score_type>  (17) 
oracle

>  <origin>  (17) 
adg

>  <m_score__min__energy>  (17) 
-12.42

>  <m_primary>  (17) 
energy

$$$$
17:0
     RDKit          3D

 33 35  0  0  0  0  0  0  0  0999 V2000
   57.2336   32.2758   52.2236 H   0  0  0  0  0  0  0  0  0  0  0  0
   56.1520   32.1110   52.3380 C   0  0  0  0  0  0  0  0  0  0  0  0
   55.4564   32.9607   52.2738 H   0  0  0  0  0  0  0  0  0  0  0  0
   55.6810   30.8730   52.5560 C   0  0  0  0  0  0  0  0  0  0  0  0
   54.3350   30.5040   52.7220 C   0  0  0  0  0  0  0  0  0  0  0  0
   53.1950   31.2000   52.5320 C   0  0  0  0  0  0  0  0  0  0  0  0
   52.8921   31.8934   53.3304 H   0  0  0  0  0  0  0  0  0  0  0  0
   52.3220   31.1140   51.3530 C   0  0  0  0  0  0  0  0  0  0  0  0
   52.4530   30.1770   50.3980 N   0  0  0  0  0  0  0  0  0  0  0  0
   51.5490   30.5520   49.4660 C   0  0  0  0  0  0  0  0  0  0  0  0
   51.3590   29.9010   48.4060 O   0  0  0  0  0  0  0  0  0  0  0  0
   50.8730   31.6840   49.7550 N   0  0  0  0  0  0  0  0  0  0  0  0
   51.3850   32.0370   50.9440 C   0  0  0  0  0  0  0  0  0  0  0  0
   51.0230   33.1910   51.6300 O   0  0  0  0  0  0  0  0  0  0  0  0
   54.3420   29.1880   53.1450 C   0  0  0  0  0  0  0  0  0  0  0  0
   53.4647   28.5826   53.4169 H   0  0  0  0  0  0  0  0  0  0  0  0
   55.6590   28.7790   53.1610 C   0  0  0  0  0  0  0  0  0  0  0  0
   56.1140   27.4080   53.5590 C   0  0  0  0  0  0  0  0  0  0  0  0
   56.1386   27.3340   54.6562 H   0  0  0  0  0  0  0  0  0  0  0  0
   55.4163   26.6589   53.1565 H   0  0  0  0  0  0  0  0  0  0  0  0
   57.1212   27.2247   53.1565 H   0  0  0  0  0  0  0  0  0  0  0  0
   56.4760   29.7930   52.7890 N   0  0  0  0  0  0  0  0  0  0  0  0
   57.9460   29.7310   52.7660 C   0  0  0  0  0  0  0  0  0  0  0  0
   58.3436   30.2379   53.6576 H   0  0  0  0  0  0  0  0  0  0  0  0
   58.2572   28.6760   52.7587 H   0  0  0  0  0  0  0  0  0  0  0  0
   58.4810   30.4020   51.5380 C   0  0  0  0  0  0  0  0  0  0  0  0
   58.5080   29.7370   49.9930 S   0  0  0  0  0  0  0  0  0  0  0  0
   59.2020   31.0670   49.2330 C   0  0  0  0  0  0  0  0  0  0  0  0
   59.4422   31.1445   48.1623 H   0  0  0  0  0  0  0  0  0  0  0  0
   59.4200   32.0510   50.1890 C   0  0  0  0  0  0  0  0  0  0  0  0
   59.8674   33.0284   49.9553 H   0  0  0  0  0  0  0  0  0  0  0  0
   59.0170   31.6820   51.4770 C   0  0  0  0  0  0  0  0  0  0  0  0
   59.1148   32.3396   52.3534 H   0  0  0  0  0  0  0  0  0  0  0  0
  1  2  1  0
  2  3  1  0
  2  4  2  0
  4  5  1  0
  5  6  2  0
  6  7  1  0
  6  8  1  0
  8  9  1  0
  9 10  1  0
 10 11  2  0
 10 12  1  0
 12 13  1  0
 13 14  1  0
  5 15  1  0
 15 16  1  0
 15 17  2  0
 17 18  1  0
 18 19  1  0
 18 20  1  0
 18 21  1  0
 17 22  1  0
 22 23  1  0
 23 24  1  0
 23 25  1  0
 23 26  1  0
 26 27  1  0
 27 28  1  0
 28 29  1  0
 28 30  2  0
 30 31  1  0
 30 32  1  0
 32 33  1  0
 22  4  1  0
 32 26  2  0
 13  8  2  0
M  CHG  3   9  -1  12  -1  14  -1
M  END
>  <UniqueID>  (18) 
16

>  <SMILES>  (18) 
C=c1/c(=C\c2[n-]c(=O)[n-]c2[O-])cc(C)n1Cc1cccs1

>  <Energy>  (18) 
129.03970355632717

>  <Genealogy>  (18) 
C=c1c(=Cc2[n-]c(=O)[n-]c2[O-])cc(C)n1Cc1cccs1 (protonated)
C=c1/c(=C\c2[n-]c(=O)[n-]c2[O-])cc(C)n1Cc1cccs1 (cis-trans isomerization)
C=c1/c(=C\c2[n-]c(=O)[n-]c2[O-])cc(C)n1Cc1cccs1 (3D coordinates assigned)
C=c1/c(=C\c2[n-]c(=O)[n-]c2[O-])cc(C)n1Cc1cccs1 (optimized conformer: 129.03970355632717 kcal/mol)

>  <smiles>  (18) 
C=c1c(=Cc2[nH]c(=O)[nH]c2O)cc(C)n1Cc1cccs1

>  <score_type>  (18) 
oracle

>  <origin>  (18) 
adg

>  <m_score__min__energy>  (18) 
-15.1

>  <m_primary>  (18) 
energy

$$$$
18:0
     RDKit          3D

 50 52  0  0  0  0  0  0  0  0999 V2000
   54.8031   30.8753   43.5708 H   0  0  0  0  0  0  0  0  0  0  0  0
   55.5640   30.2380   44.0450 C   0  0  0  0  0  0  0  0  0  0  0  0
   55.1950   29.0780   44.6510 N   0  0  0  0  0  0  0  0  0  0  0  0
   56.0980   28.2570   45.2500 C   0  0  0  0  0  0  0  0  0  0  0  0
   55.6280   27.0500   45.8660 N   0  0  0  0  0  0  0  0  0  0  0  0
   56.3690   25.8380   46.0500 C   0  0  0  0  0  0  0  0  0  0  0  0
   56.0790   24.8330   45.3500 O   0  0  0  0  0  0  0  0  0  0  0  0
   57.3930   25.7470   47.0470 N   0  0  0  0  0  0  0  0  0  0  0  0
   58.7880   26.0990   46.8120 C   0  0  0  0  0  0  0  0  0  0  0  0
   59.4101   25.1956   46.8949 H   0  0  0  0  0  0  0  0  0  0  0  0
   58.8858   26.5297   45.8046 H   0  0  0  0  0  0  0  0  0  0  0  0
   59.2430   27.1100   47.8250 C   0  0  0  0  0  0  0  0  0  0  0  0
   58.5110   28.2950   48.0140 C   0  0  0  0  0  0  0  0  0  0  0  0
   57.6148   28.4880   47.4061 H   0  0  0  0  0  0  0  0  0  0  0  0
   58.9170   29.2290   48.9710 C   0  0  0  0  0  0  0  0  0  0  0  0
   58.3437   30.1574   49.1103 H   0  0  0  0  0  0  0  0  0  0  0  0
   60.0500   28.9850   49.7510 C   0  0  0  0  0  0  0  0  0  0  0  0
   60.3679   29.7215   50.5037 H   0  0  0  0  0  0  0  0  0  0  0  0
   60.7800   27.8060   49.5760 C   0  0  0  0  0  0  0  0  0  0  0  0
   61.6711   27.6147   50.1919 H   0  0  0  0  0  0  0  0  0  0  0  0
   60.3780   26.8690   48.6180 C   0  0  0  0  0  0  0  0  0  0  0  0
   60.9523   25.9403   48.4850 H   0  0  0  0  0  0  0  0  0  0  0  0
   57.4620   28.5890   45.2090 C   0  0  0  0  0  0  0  0  0  0  0  0
   58.2074   27.9079   45.6455 H   0  0  0  0  0  0  0  0  0  0  0  0
   57.8730   29.7880   44.6120 C   0  0  0  0  0  0  0  0  0  0  0  0
   59.1400   30.0900   44.6350 N   0  0  0  0  0  0  0  0  0  0  0  0
   59.9350   30.4130   45.8180 C   0  0  0  0  0  0  0  0  0  0  0  0
   61.0014   30.4421   45.5497 H   0  0  0  0  0  0  0  0  0  0  0  0
   59.7798   29.6471   46.5921 H   0  0  0  0  0  0  0  0  0  0  0  0
   59.5090   31.7560   46.3380 C   0  0  0  0  0  0  0  0  0  0  0  0
   59.0500   32.7540   45.4650 C   0  0  0  0  0  0  0  0  0  0  0  0
   58.9820   32.5505   44.3861 H   0  0  0  0  0  0  0  0  0  0  0  0
   58.6790   34.0060   45.9630 C   0  0  0  0  0  0  0  0  0  0  0  0
   58.3028   34.7798   45.2776 H   0  0  0  0  0  0  0  0  0  0  0  0
   58.7850   34.2770   47.3300 C   0  0  0  0  0  0  0  0  0  0  0  0
   58.4799   35.2601   47.7179 H   0  0  0  0  0  0  0  0  0  0  0  0
   59.2770   33.3050   48.2080 C   0  0  0  0  0  0  0  0  0  0  0  0
   59.3730   33.6110   49.6060 N   0  0  0  0  0  0  0  0  0  0  0  0
   59.0100   32.7390   50.6830 C   0  0  0  0  0  0  0  0  0  0  0  0
   59.9120   32.3020   51.4440 O   0  0  0  0  0  0  0  0  0  0  0  0
   57.6510   32.3130   50.8620 N   0  0  0  0  0  0  0  0  0  0  0  0
   56.9410   32.5170   50.1240 H   0  0  0  0  0  0  0  0  0  0  0  0
   57.2330   31.5600   52.0380 C   0  0  0  0  0  0  0  0  0  0  0  0
   57.5339   32.1021   52.9466 H   0  0  0  0  0  0  0  0  0  0  0  0
   56.1395   31.4407   52.0274 H   0  0  0  0  0  0  0  0  0  0  0  0
   57.7101   30.5689   52.0274 H   0  0  0  0  0  0  0  0  0  0  0  0
   59.6100   32.0330   47.7110 C   0  0  0  0  0  0  0  0  0  0  0  0
   59.9522   31.2490   48.4025 H   0  0  0  0  0  0  0  0  0  0  0  0
   56.9050   30.6220   44.0230 C   0  0  0  0  0  0  0  0  0  0  0  0
   57.2031   31.5689   43.5491 H   0  0  0  0  0  0  0  0  0  0  0  0
  1  2  1  0
  2  3  1  0
  3  4  1  0
  4  5  1  0
  5  6  1  0
  6  7  2  0
  6  8  1  0
  8  9  1  0
  9 10  1  0
  9 11  1  0
  9 12  1  0
 12 13  2  0
 13 14  1  0
 13 15  1  0
 15 16  1  0
 15 17  2  0
 17 18  1  0
 17 19  1  0
 19 20  1  0
 19 21  2  0
 21 22  1  0
  4 23  2  0
 23 24  1  0
 23 25  1  0
 25 26  2  0
 26 27  1  0
 27 28  1  0
 27 29  1  0
 27 30  1  0
 30 31  2  0
 31 32  1  0
 31 33  1  0
 33 34  1  0
 33 35  2  0
 35 36  1  0
 35 37  1  0
 37 38  1  0
 38 39  1  0
 39 40  2  0
 39 41  1  0
 41 42  1  0
 41 43  1  0
 43 44  1  0
 43 45  1  0
 43 46  1  0
 37 47  2  0
 47 48  1  0
 25 49  1  0
 49 50  1  0
 49  2  2  0
 21 12  1  0
 47 30  1  0
M  CHG  4   3  -1   5  -1   8  -1  38  -1
M  END
>  <UniqueID>  (19) 
17

>  <SMILES>  (19) 
CNC(=O)[N-]c1cccc(C/N=c2\cc[n-]c([N-]C(=O)[N-]Cc3ccccc3)c2)c1

>  <Energy>  (19) 
54.974130947022495

>  <Genealogy>  (19) 
CNC(=O)[N-]c1cccc(CN=c2cc[n-]c([N-]C(=O)[N-]Cc3ccccc3)c2)c1 (protonated)
CNC(=O)[N-]c1cccc(C/N=c2\cc[n-]c([N-]C(=O)[N-]Cc3ccccc3)c2)c1 (cis-trans isomerization)
CNC(=O)[N-]c1cccc(C/N=c2\cc[n-]c([N-]C(=O)[N-]Cc3ccccc3)c2)c1 (3D coordinates assigned)
CNC(=O)[N-]c1cccc(C/N=c2\cc[n-]c([N-]C(=O)[N-]Cc3ccccc3)c2)c1 (optimized conformer: 54.974130947022495 kcal/mol)

>  <smiles>  (19) 
CNC(=O)Nc1cccc(CN=c2cc[nH]c(NC(=O)NCc3ccccc3)c2)c1

>  <score_type>  (19) 
oracle

>  <origin>  (19) 
adg

>  <m_score__min__energy>  (19) 
-15.859999999999999

>  <m_primary>  (19) 
energy

$$$$
19:0
     RDKit          3D

 53 55  0  0  0  0  0  0  0  0999 V2000
   59.7340   34.5950   48.1380 C   0  0  0  0  0  0  0  0  0  0  0  0
   58.8570   34.6000   46.9180 C   0  0  0  0  0  0  0  0  0  0  0  0
   59.6610   34.3390   45.6520 C   0  0  0  0  0  0  0  0  0  0  0  0
   58.8010   33.8530   44.5350 C   0  0  0  0  0  0  0  0  0  0  0  0
   57.6180   33.3000   45.0890 O   0  0  0  0  0  0  0  0  0  0  0  0
   57.4240   31.9440   45.1730 C   0  0  0  0  0  0  0  0  0  0  0  0
   56.3990   31.3010   44.5720 N   0  0  0  0  0  0  0  0  0  0  0  0
   58.3690   27.7510   46.4900 C   0  0  0  0  0  0  0  0  0  0  0  0
   55.2660   29.3940   44.1000 N   0  0  0  0  0  0  0  0  0  0  0  0
   57.1570   29.1950   45.4280 C   0  0  0  0  0  0  0  0  0  0  0  0
   57.2780   27.9030   45.7170 N   0  0  0  0  0  0  0  0  0  0  0  0
   56.2730   29.9640   44.7000 C   0  0  0  0  0  0  0  0  0  0  0  0
   58.7870   26.6400   46.9540 O   0  0  0  0  0  0  0  0  0  0  0  0
   58.9460   28.9490   46.6950 N   0  0  0  0  0  0  0  0  0  0  0  0
   60.1520   29.2520   47.4730 C   0  0  0  0  0  0  0  0  0  0  0  0
   61.0600   30.1950   46.7370 C   0  0  0  0  0  0  0  0  0  0  0  0
   61.6320   31.2490   47.6030 C   0  0  0  0  0  0  0  0  0  0  0  0
   62.7010   31.9990   47.1510 C   0  0  0  0  0  0  0  0  0  0  0  0
   63.2910   32.9980   47.8960 C   0  0  0  0  0  0  0  0  0  0  0  0
   62.8010   33.2810   49.1680 C   0  0  0  0  0  0  0  0  0  0  0  0
   63.3840   34.2890   49.9380 O   0  0  0  0  0  0  0  0  0  0  0  0
   64.1670   33.8550   51.0350 C   0  0  0  0  0  0  0  0  0  0  0  0
   61.7310   32.5300   49.6200 C   0  0  0  0  0  0  0  0  0  0  0  0
   61.2590   32.8300   50.8910 O   0  0  0  0  0  0  0  0  0  0  0  0
   59.8890   33.0000   51.1370 C   0  0  0  0  0  0  0  0  0  0  0  0
   61.1490   31.5360   48.8700 C   0  0  0  0  0  0  0  0  0  0  0  0
   58.2050   29.8810   46.0370 C   0  0  0  0  0  0  0  0  0  0  0  0
   58.2900   31.2020   45.8860 N   0  0  0  0  0  0  0  0  0  0  0  0
   59.1059   34.5986   49.0411 H   0  0  0  0  0  0  0  0  0  0  0  0
   60.3639   33.6933   48.1331 H   0  0  0  0  0  0  0  0  0  0  0  0
   60.3742   35.4895   48.1331 H   0  0  0  0  0  0  0  0  0  0  0  0
   58.0927   33.8161   47.0240 H   0  0  0  0  0  0  0  0  0  0  0  0
   58.3906   35.5925   46.8322 H   0  0  0  0  0  0  0  0  0  0  0  0
   60.1501   35.2744   45.3426 H   0  0  0  0  0  0  0  0  0  0  0  0
   60.4024   33.5576   45.8751 H   0  0  0  0  0  0  0  0  0  0  0  0
   58.5437   34.6922   43.8720 H   0  0  0  0  0  0  0  0  0  0  0  0
   59.3364   33.0910   43.9497 H   0  0  0  0  0  0  0  0  0  0  0  0
   54.7450   28.5740   44.5080 H   0  0  0  0  0  0  0  0  0  0  0  0
   56.6240   27.1610   45.3870 H   0  0  0  0  0  0  0  0  0  0  0  0
   59.8555   29.7128   48.4268 H   0  0  0  0  0  0  0  0  0  0  0  0
   60.6969   28.3120   47.6446 H   0  0  0  0  0  0  0  0  0  0  0  0
   61.8863   29.6150   46.3001 H   0  0  0  0  0  0  0  0  0  0  0  0
   60.4551   30.6971   45.9675 H   0  0  0  0  0  0  0  0  0  0  0  0
   63.1007   31.7888   46.1480 H   0  0  0  0  0  0  0  0  0  0  0  0
   64.1407   33.5659   47.4892 H   0  0  0  0  0  0  0  0  0  0  0  0
   63.6670   34.1321   51.9748 H   0  0  0  0  0  0  0  0  0  0  0  0
   64.2857   32.7623   50.9912 H   0  0  0  0  0  0  0  0  0  0  0  0
   65.1566   34.3334   50.9912 H   0  0  0  0  0  0  0  0  0  0  0  0
   59.7113   33.0220   52.2223 H   0  0  0  0  0  0  0  0  0  0  0  0
   59.5511   33.9470   50.6908 H   0  0  0  0  0  0  0  0  0  0  0  0
   59.3299   32.1643   50.6908 H   0  0  0  0  0  0  0  0  0  0  0  0
   60.2990   30.9677   49.2758 H   0  0  0  0  0  0  0  0  0  0  0  0
   59.0850   31.6870   46.3520 H   0  0  0  0  0  0  0  0  0  0  0  0
  1  2  1  0
  2  3  1  0
  3  4  1  0
  4  5  1  0
  5  6  1  0
  6  7  2  0
  7  8  1  0
  8  9  2  3
  8 10  1  0
 10 11  1  0
 11 12  1  0
 12 13  2  0
 12 14  1  0
 14 15  1  0
 15 16  1  0
 16 17  1  0
 17 18  2  0
 18 19  1  0
 19 20  2  0
 20 21  1  0
 21 22  1  0
 20 23  1  0
 23 24  1  0
 24 25  1  0
 23 26  2  0
 14 27  1  0
 27 28  1  0
 28  6  1  0
 27 10  2  0
 26 17  1  0
  1 29  1  0
  1 30  1  0
  1 31  1  0
  2 32  1  0
  2 33  1  0
  3 34  1  0
  3 35  1  0
  4 36  1  0
  4 37  1  0
  9 38  1  0
 11 39  1  0
 15 40  1  0
 15 41  1  0
 16 42  1  0
 16 43  1  0
 18 44  1  0
 19 45  1  0
 22 46  1  0
 22 47  1  0
 22 48  1  0
 25 49  1  0
 25 50  1  0
 25 51  1  0
 26 52  1  0
 28 53  1  0
M  END
>  <smiles>  (20) 
CCCCOc1nc(=N)c2[nH]c(=O)n(CCc3ccc(OC)c(OC)c3)c2[nH]1

>  <score_type>  (20) 
oracle

>  <origin>  (20) 
adg

>  <m_score__min__energy>  (20) 
-6.9199999999999999

>  <m_primary>  (20) 
energy

$$$$
20:0
     RDKit          3D

 35 37  0  0  0  0  0  0  0  0999 V2000
   60.8380   22.1000   44.9020 H   0  0  0  0  0  0  0  0  0  0  0  0
   60.1380   22.4050   45.5690 O   0  0  0  0  0  0  0  0  0  0  0  0
   58.8610   22.7800   45.1620 C   0  0  0  0  0  0  0  0  0  0  0  0
   58.2800   23.8810   45.7100 N   0  0  0  0  0  0  0  0  0  0  0  0
   57.0270   24.2880   45.3630 C   0  0  0  0  0  0  0  0  0  0  0  0
   56.4600   25.4960   45.9980 C   0  0  0  0  0  0  0  0  0  0  0  0
   55.2100   25.6450   46.0170 O   0  0  0  0  0  0  0  0  0  0  0  0
   57.2820   26.4940   46.6250 N   0  0  0  0  0  0  0  0  0  0  0  0
   57.7630   27.5480   46.0350 C   0  0  0  0  0  0  0  0  0  0  0  0
   57.1250   28.7350   45.9630 N   0  0  0  0  0  0  0  0  0  0  0  0
   57.8700   29.6760   45.3240 C   0  0  0  0  0  0  0  0  0  0  0  0
   57.3930   31.0610   45.0920 C   0  0  0  0  0  0  0  0  0  0  0  0
   56.3020   31.2250   44.4780 O   0  0  0  0  0  0  0  0  0  0  0  0
   58.1170   32.2250   45.5450 N   0  0  0  0  0  0  0  0  0  0  0  0
   57.5670   33.5670   45.4370 C   0  0  0  0  0  0  0  0  0  0  0  0
   57.4701   33.8573   44.3804 H   0  0  0  0  0  0  0  0  0  0  0  0
   56.5639   33.6303   45.8840 H   0  0  0  0  0  0  0  0  0  0  0  0
   58.5560   34.4800   46.1490 C   0  0  0  0  0  0  0  0  0  0  0  0
   58.7166   35.3993   45.5668 H   0  0  0  0  0  0  0  0  0  0  0  0
   58.1861   34.7847   47.1391 H   0  0  0  0  0  0  0  0  0  0  0  0
   59.8530   33.6840   46.2540 C   0  0  0  0  0  0  0  0  0  0  0  0
   60.5445   33.9702   45.4478 H   0  0  0  0  0  0  0  0  0  0  0  0
   60.3693   33.8748   47.2064 H   0  0  0  0  0  0  0  0  0  0  0  0
   59.4540   32.2220   46.1160 C   0  0  0  0  0  0  0  0  0  0  0  0
   60.1533   31.6960   45.4495 H   0  0  0  0  0  0  0  0  0  0  0  0
   59.4772   31.7042   47.0862 H   0  0  0  0  0  0  0  0  0  0  0  0
   59.1190   29.2250   44.8900 C   0  0  0  0  0  0  0  0  0  0  0  0
   59.8688   29.8249   44.3534 H   0  0  0  0  0  0  0  0  0  0  0  0
   59.2820   27.6060   45.3280 S   0  0  0  0  0  0  0  0  0  0  0  0
   56.3150   23.5740   44.3860 C   0  0  0  0  0  0  0  0  0  0  0  0
   55.3115   23.9037   44.0788 H   0  0  0  0  0  0  0  0  0  0  0  0
   56.8930   22.4400   43.8070 C   0  0  0  0  0  0  0  0  0  0  0  0
   56.2610   21.7840   42.9380 O   0  0  0  0  0  0  0  0  0  0  0  0
   58.1710   22.0350   44.1980 C   0  0  0  0  0  0  0  0  0  0  0  0
   58.6308   21.1401   43.7533 H   0  0  0  0  0  0  0  0  0  0  0  0
  1  2  1  0
  2  3  1  0
  3  4  1  0
  4  5  1  0
  5  6  1  0
  6  7  2  0
  6  8  1  0
  8  9  2  0
  9 10  1  0
 10 11  1  0
 11 12  1  0
 12 13  2  0
 12 14  1  0
 14 15  1  0
 15 16  1  0
 15 17  1  0
 15 18  1  0
 18 19  1  0
 18 20  1  0
 18 21  1  0
 21 22  1  0
 21 23  1  0
 21 24  1  0
 24 25  1  0
 24 26  1  0
 11 27  2  0
 27 28  1  0
 27 29  1  0
  5 30  2  0
 30 31  1  0
 30 32  1  0
 32 33  2  0
 32 34  1  0
 34 35  1  0
 34  3  2  0
 29  9  1  0
 24 14  1  0
M  CHG  2   4  -1  10  -1
M  END
>  <UniqueID>  (21) 
18

>  <SMILES>  (21) 
O=C(/N=c1\[n-]c(C(=O)N2CCCC2)cs1)c1cc(=O)cc(O)[n-]1

>  <Energy>  (21) 
71.51707862775366

>  <Genealogy>  (21) 
O=C(N=c1[n-]c(C(=O)N2CCCC2)cs1)c1cc(=O)cc(O)[n-]1 (protonated)
O=C(/N=c1\[n-]c(C(=O)N2CCCC2)cs1)c1cc(=O)cc(O)[n-]1 (cis-trans isomerization)
O=C(/N=c1\[n-]c(C(=O)N2CCCC2)cs1)c1cc(=O)cc(O)[n-]1 (3D coordinates assigned)
O=C(/N=c1\[n-]c(C(=O)N2CCCC2)cs1)c1cc(=O)cc(O)[n-]1 (nonaromatic ring conformer: 71.51707862775366 kcal/mol)

>  <smiles>  (21) 
O=C(N=c1[nH]c(C(=O)N2CCCC2)cs1)c1cc(=O)cc(O)[nH]1

>  <score_type>  (21) 
oracle

>  <origin>  (21) 
adg

>  <m_score__min__energy>  (21) 
-12.710000000000001

>  <m_primary>  (21) 
energy

$$$$
21:0
     RDKit          3D

 46 50  0  0  0  0  0  0  0  0999 V2000
   57.8272   27.7150   45.3493 H   0  0  0  0  0  0  0  0  0  0  0  0
   58.0380   27.2860   46.3400 C   0  0  0  0  0  0  0  0  0  0  0  0
   57.2970   26.0790   46.7380 C   0  0  0  0  0  0  0  0  0  0  0  0
   57.8850   24.9770   47.2340 N   0  0  0  0  0  0  0  0  0  0  0  0
   56.8610   24.1060   47.3620 C   0  0  0  0  0  0  0  0  0  0  0  0
   57.0120   22.9440   47.8170 O   0  0  0  0  0  0  0  0  0  0  0  0
   55.6630   24.5760   46.9530 N   0  0  0  0  0  0  0  0  0  0  0  0
   55.9570   25.8210   46.5470 C   0  0  0  0  0  0  0  0  0  0  0  0
   55.0310   26.6860   45.9790 O   0  0  0  0  0  0  0  0  0  0  0  0
   58.9540   27.8980   47.1060 C   0  0  0  0  0  0  0  0  0  0  0  0
   59.9830   27.2730   47.7970 C   0  0  0  0  0  0  0  0  0  0  0  0
   60.1976   26.1943   47.7800 H   0  0  0  0  0  0  0  0  0  0  0  0
   60.6800   28.1980   48.4940 N   0  0  0  0  0  0  0  0  0  0  0  0
   61.4760   27.9640   49.1160 H   0  0  0  0  0  0  0  0  0  0  0  0
   60.1330   29.3890   48.2820 N   0  0  0  0  0  0  0  0  0  0  0  0
   60.4350   30.6240   48.7990 C   0  0  0  0  0  0  0  0  0  0  0  0
   61.4540   30.8740   49.5730 N   0  0  0  0  0  0  0  0  0  0  0  0
   62.7440   31.4630   49.2410 C   0  0  0  0  0  0  0  0  0  0  0  0
   63.3388   30.9911   50.0370 H   0  0  0  0  0  0  0  0  0  0  0  0
   62.8890   31.6880   47.7460 C   0  0  0  0  0  0  0  0  0  0  0  0
   63.8666   31.5494   47.2611 H   0  0  0  0  0  0  0  0  0  0  0  0
   62.3883   31.2966   46.8482 H   0  0  0  0  0  0  0  0  0  0  0  0
   62.6620   32.8690   48.6740 C   0  0  0  0  0  0  0  0  0  0  0  0
   63.4752   33.5857   48.8610 H   0  0  0  0  0  0  0  0  0  0  0  0
   61.9287   33.6873   48.7264 H   0  0  0  0  0  0  0  0  0  0  0  0
   59.6200   31.6640   48.4700 N   0  0  0  0  0  0  0  0  0  0  0  0
   58.5370   31.4910   47.6540 C   0  0  0  0  0  0  0  0  0  0  0  0
   57.7590   32.4890   47.3590 N   0  0  0  0  0  0  0  0  0  0  0  0
   57.9950   33.4390   46.2720 C   0  0  0  0  0  0  0  0  0  0  0  0
   57.2784   34.2694   46.3547 H   0  0  0  0  0  0  0  0  0  0  0  0
   59.0246   33.8187   46.3477 H   0  0  0  0  0  0  0  0  0  0  0  0
   57.8210   32.7660   44.9400 C   0  0  0  0  0  0  0  0  0  0  0  0
   57.1030   31.6120   44.8630 N   0  0  0  0  0  0  0  0  0  0  0  0
   56.8880   30.9680   43.6830 C   0  0  0  0  0  0  0  0  0  0  0  0
   56.0850   29.7000   43.6510 C   0  0  0  0  0  0  0  0  0  0  0  0
   56.6700   28.7580   44.4770 F   0  0  0  0  0  0  0  0  0  0  0  0
   56.0430   29.2110   42.3590 F   0  0  0  0  0  0  0  0  0  0  0  0
   54.7920   29.9340   44.0850 F   0  0  0  0  0  0  0  0  0  0  0  0
   57.4110   31.5060   42.4970 C   0  0  0  0  0  0  0  0  0  0  0  0
   57.2422   30.9989   41.5355 H   0  0  0  0  0  0  0  0  0  0  0  0
   58.1470   32.6900   42.5490 C   0  0  0  0  0  0  0  0  0  0  0  0
   58.5625   33.1205   41.6259 H   0  0  0  0  0  0  0  0  0  0  0  0
   58.3560   33.3280   43.7720 C   0  0  0  0  0  0  0  0  0  0  0  0
   58.9346   34.2623   43.8195 H   0  0  0  0  0  0  0  0  0  0  0  0
   58.2630   30.2620   47.1440 N   0  0  0  0  0  0  0  0  0  0  0  0
   59.0840   29.2320   47.4550 C   0  0  0  0  0  0  0  0  0  0  0  0
  1  2  1  0
  2  3  1  0
  3  4  1  0
  4  5  1  0
  5  6  2  0
  5  7  1  0
  7  8  1  0
  8  9  1  0
  2 10  2  3
 10 11  1  0
 11 12  1  0
 11 13  2  0
 13 14  1  0
 13 15  1  0
 15 16  1  0
 16 17  2  0
 17 18  1  0
 18 19  1  0
 18 20  1  0
 20 21  1  0
 20 22  1  0
 20 23  1  0
 23 24  1  0
 23 25  1  0
 16 26  1  0
 26 27  1  0
 27 28  2  3
 28 29  1  0
 29 30  1  0
 29 31  1  0
 29 32  1  0
 32 33  2  0
 33 34  1  0
 34 35  1  0
 35 36  1  0
 35 37  1  0
 35 38  1  0
 34 39  2  0
 39 40  1  0
 39 41  1  0
 41 42  1  0
 41 43  2  0
 43 44  1  0
 27 45  1  0
 45 46  2  0
  8  3  2  0
 46 10  1  0
 46 15  1  0
 23 18  1  0
 43 32  1  0
M  CHG  5   4  -1   7  -1   9  -1  13   1  26  -1
M  END
>  <UniqueID>  (22) 
19

>  <SMILES>  (22) 
O=c1[n-]c([O-])c(C=c2c[nH+]n3/c(=N\C4CC4)[n-]c(=NCc4cccc(C(F)(F)F)n4)nc23)[n-]1

>  <Energy>  (22) 
397.33265141953524

>  <Genealogy>  (22) 
O=c1[n-]c([O-])c(C=c2c[nH+]n3c(=NC4CC4)[n-]c(=NCc4cccc(C(F)(F)F)n4)nc23)[n-]1 (protonated)
O=c1[n-]c([O-])c(C=c2c[nH+]n3/c(=N\C4CC4)[n-]c(=NCc4cccc(C(F)(F)F)n4)nc23)[n-]1 (cis-trans isomerization)
O=c1[n-]c([O-])c(C=c2c[nH+]n3/c(=N\C4CC4)[n-]c(=NCc4cccc(C(F)(F)F)n4)nc23)[n-]1 (3D coordinates assigned)
O=c1[n-]c([O-])c(C=c2c[nH+]n3/c(=N\C4CC4)[n-]c(=NCc4cccc(C(F)(F)F)n4)nc23)[n-]1 (nonaromatic ring conformer: 397.33265141953524 kcal/mol)

>  <smiles>  (22) 
O=c1[nH]c(O)c(C=c2cnn3c(=NC4CC4)[nH]c(=NCc4cccc(C(F)(F)F)n4)nc23)[nH]1

>  <score_type>  (22) 
oracle

>  <origin>  (22) 
adg

>  <m_score__min__energy>  (22) 
-16.809999999999999

>  <m_primary>  (22) 
energy

$$$$
22:0
     RDKit          3D

 46 49  0  0  0  0  0  0  0  0999 V2000
   53.9010   23.4630   45.3000 C   0  0  0  0  0  0  0  0  0  0  0  0
   54.7110   24.6900   45.5710 C   0  0  0  0  0  0  0  0  0  0  0  0
   54.1660   25.8810   45.8800 N   0  0  0  0  0  0  0  0  0  0  0  0
   55.1440   26.7290   45.9970 O   0  0  0  0  0  0  0  0  0  0  0  0
   56.3050   26.1580   45.7790 C   0  0  0  0  0  0  0  0  0  0  0  0
   57.4180   26.8320   45.8620 N   0  0  0  0  0  0  0  0  0  0  0  0
   58.7910   26.5870   46.8990 S   0  0  0  0  0  0  0  0  0  0  0  0
   59.9010   26.0200   46.0620 O   0  0  0  0  0  0  0  0  0  0  0  0
   58.4550   25.5980   47.9780 O   0  0  0  0  0  0  0  0  0  0  0  0
   59.3590   28.1050   47.5910 C   0  0  0  0  0  0  0  0  0  0  0  0
   60.0460   28.0980   48.8110 C   0  0  0  0  0  0  0  0  0  0  0  0
   60.4940   29.2950   49.3720 C   0  0  0  0  0  0  0  0  0  0  0  0
   60.2470   30.5090   48.7240 C   0  0  0  0  0  0  0  0  0  0  0  0
   59.5380   30.5360   47.5150 C   0  0  0  0  0  0  0  0  0  0  0  0
   59.2830   31.7950   46.8700 N   0  0  0  0  0  0  0  0  0  0  0  0
   58.7780   32.9510   47.5560 C   0  0  0  0  0  0  0  0  0  0  0  0
   58.8320   33.0220   48.8130 O   0  0  0  0  0  0  0  0  0  0  0  0
   58.2240   34.1060   46.7800 C   0  0  0  0  0  0  0  0  0  0  0  0
   59.0080   34.2510   45.1360 S   0  0  0  0  0  0  0  0  0  0  0  0
   58.0830   32.9050   44.3990 C   0  0  0  0  0  0  0  0  0  0  0  0
   58.0650   32.7540   43.0350 N   0  0  0  0  0  0  0  0  0  0  0  0
   57.3600   31.7430   42.4440 C   0  0  0  0  0  0  0  0  0  0  0  0
   57.3450   31.6150   41.1920 O   0  0  0  0  0  0  0  0  0  0  0  0
   56.6660   30.8710   43.2700 C   0  0  0  0  0  0  0  0  0  0  0  0
   55.8790   29.7660   43.0610 C   0  0  0  0  0  0  0  0  0  0  0  0
   55.4750   29.3090   44.2720 N   0  0  0  0  0  0  0  0  0  0  0  0
   55.9790   30.0850   45.2300 N   0  0  0  0  0  0  0  0  0  0  0  0
   56.7030   31.0330   44.6140 C   0  0  0  0  0  0  0  0  0  0  0  0
   57.3970   32.0360   45.2030 N   0  0  0  0  0  0  0  0  0  0  0  0
   59.1250   29.3240   46.9370 C   0  0  0  0  0  0  0  0  0  0  0  0
   56.0920   24.8090   45.4890 C   0  0  0  0  0  0  0  0  0  0  0  0
   57.0360   23.7430   45.0170 C   0  0  0  0  0  0  0  0  0  0  0  0
   53.5988   23.0052   46.2534 H   0  0  0  0  0  0  0  0  0  0  0  0
   53.0046   23.7353   44.7236 H   0  0  0  0  0  0  0  0  0  0  0  0
   54.5037   22.7457   44.7236 H   0  0  0  0  0  0  0  0  0  0  0  0
   60.2333   27.1459   49.3291 H   0  0  0  0  0  0  0  0  0  0  0  0
   61.0423   29.2832   50.3255 H   0  0  0  0  0  0  0  0  0  0  0  0
   60.6111   31.4484   49.1654 H   0  0  0  0  0  0  0  0  0  0  0  0
   59.5360   31.8940   45.8600 H   0  0  0  0  0  0  0  0  0  0  0  0
   57.1417   33.9606   46.6476 H   0  0  0  0  0  0  0  0  0  0  0  0
   58.4310   35.0286   47.3421 H   0  0  0  0  0  0  0  0  0  0  0  0
   55.6218   29.3290   42.0848 H   0  0  0  0  0  0  0  0  0  0  0  0
   58.6137   29.3308   45.9631 H   0  0  0  0  0  0  0  0  0  0  0  0
   57.4831   23.2381   45.8860 H   0  0  0  0  0  0  0  0  0  0  0  0
   56.4862   23.0091   44.4094 H   0  0  0  0  0  0  0  0  0  0  0  0
   57.8310   24.2000   44.4094 H   0  0  0  0  0  0  0  0  0  0  0  0
  1  2  1  0
  2  3  1  0
  3  4  1  0
  4  5  1  0
  5  6  2  3
  6  7  1  0
  7  8  2  0
  7  9  2  0
  7 10  1  0
 10 11  2  0
 11 12  1  0
 12 13  2  0
 13 14  1  0
 14 15  1  0
 15 16  1  0
 16 17  2  0
 16 18  1  0
 18 19  1  0
 19 20  1  0
 20 21  2  0
 21 22  1  0
 22 23  2  0
 22 24  1  0
 24 25  2  0
 25 26  1  0
 26 27  1  0
 27 28  2  0
 28 29  1  0
 14 30  2  0
  5 31  1  0
 31 32  1  0
 31  2  2  0
 30 10  1  0
 29 20  1  0
 28 24  1  0
  1 33  1  0
  1 34  1  0
  1 35  1  0
 11 36  1  0
 12 37  1  0
 13 38  1  0
 15 39  1  0
 18 40  1  0
 18 41  1  0
 25 42  1  0
 30 43  1  0
 32 44  1  0
 32 45  1  0
 32 46  1  0
M  CHG  3   3  -1  26  -1  29  -1
M  END
>  <UniqueID>  (23) 
20

>  <SMILES>  (23) 
Cc1[n-]oc(=NS(=O)(=O)c2cccc(NC(=O)CSc3nc(=O)c4c[n-]nc4[n-]3)c2)c1C

>  <Energy>  (23) 
125.50236364362483

>  <Genealogy>  (23) 
Cc1[n-]oc(=NS(=O)(=O)c2cccc(NC(=O)CSc3nc(=O)c4c[n-]nc4[n-]3)c2)c1C (protonated)
Cc1[n-]oc(=NS(=O)(=O)c2cccc(NC(=O)CSc3nc(=O)c4c[n-]nc4[n-]3)c2)c1C (3D coordinates assigned)
Cc1[n-]oc(=NS(=O)(=O)c2cccc(NC(=O)CSc3nc(=O)c4c[n-]nc4[n-]3)c2)c1C (optimized conformer: 125.50236364362483 kcal/mol)

>  <smiles>  (23) 
Cc1[nH]oc(=NS(=O)(=O)c2cccc(NC(=O)CSc3nc(=O)c4c[nH]nc4[nH]3)c2)c1C

>  <score_type>  (23) 
oracle

>  <origin>  (23) 
adg

>  <m_score__min__energy>  (23) 
-16.829999999999998

>  <m_primary>  (23) 
energy

$$$$
23:0
     RDKit          3D

 56 59  0  0  0  0  0  0  0  0999 V2000
   57.0520   31.2070   42.4790 C   0  0  0  0  0  0  0  0  0  0  0  0
   56.2760   29.8950   42.5900 C   0  0  0  0  0  0  0  0  0  0  0  0
   56.1890   29.3860   44.0360 C   0  0  0  0  0  0  0  0  0  0  0  0
   57.3320   29.8880   44.8780 C   0  0  0  0  0  0  0  0  0  0  0  0
   57.2950   31.0670   45.5400 N   0  0  0  0  0  0  0  0  0  0  0  0
   58.4550   31.1760   46.1680 N   0  0  0  0  0  0  0  0  0  0  0  0
   58.8540   32.3300   46.9220 C   0  0  0  0  0  0  0  0  0  0  0  0
   59.2620   32.1680   48.2560 C   0  0  0  0  0  0  0  0  0  0  0  0
   59.6480   33.2740   49.0170 C   0  0  0  0  0  0  0  0  0  0  0  0
   59.6410   34.5500   48.4500 C   0  0  0  0  0  0  0  0  0  0  0  0
   59.2600   34.7200   47.1170 C   0  0  0  0  0  0  0  0  0  0  0  0
   58.8710   33.6170   46.3450 C   0  0  0  0  0  0  0  0  0  0  0  0
   58.4950   33.8750   44.6460 Cl  0  0  0  0  0  0  0  0  0  0  0  0
   59.1890   30.0890   45.8680 C   0  0  0  0  0  0  0  0  0  0  0  0
   60.3780   29.9070   46.2460 O   0  0  0  0  0  0  0  0  0  0  0  0
   58.5090   29.2430   45.0740 N   0  0  0  0  0  0  0  0  0  0  0  0
   58.9770   27.9730   44.5110 C   0  0  0  0  0  0  0  0  0  0  0  0
   58.0100   26.8630   44.8230 C   0  0  0  0  0  0  0  0  0  0  0  0
   57.7930   25.8320   43.8940 C   0  0  0  0  0  0  0  0  0  0  0  0
   56.8790   24.8120   44.1730 C   0  0  0  0  0  0  0  0  0  0  0  0
   56.1890   24.7950   45.3930 C   0  0  0  0  0  0  0  0  0  0  0  0
   55.2000   23.7360   45.6760 C   0  0  0  0  0  0  0  0  0  0  0  0
   53.8360   24.0700   45.6160 C   0  0  0  0  0  0  0  0  0  0  0  0
   52.8580   23.1000   45.8350 C   0  0  0  0  0  0  0  0  0  0  0  0
   53.2300   21.7860   46.1160 C   0  0  0  0  0  0  0  0  0  0  0  0
   54.5810   21.4410   46.1920 C   0  0  0  0  0  0  0  0  0  0  0  0
   55.5810   22.4070   45.9900 C   0  0  0  0  0  0  0  0  0  0  0  0
   57.2840   21.9340   46.1550 S   0  0  0  0  0  0  0  0  0  0  0  0
   57.8450   21.1060   44.7410 N   0  0  0  0  0  0  0  0  0  0  0  0
   57.4460   21.0050   47.3270 O   0  0  0  0  0  0  0  0  0  0  0  0
   58.1250   23.1600   46.3710 O   0  0  0  0  0  0  0  0  0  0  0  0
   56.4130   25.8160   46.3280 C   0  0  0  0  0  0  0  0  0  0  0  0
   57.3230   26.8390   46.0480 C   0  0  0  0  0  0  0  0  0  0  0  0
   57.2765   31.5866   43.4867 H   0  0  0  0  0  0  0  0  0  0  0  0
   57.9920   31.0321   41.9352 H   0  0  0  0  0  0  0  0  0  0  0  0
   56.4459   31.9466   41.9352 H   0  0  0  0  0  0  0  0  0  0  0  0
   55.2562   30.0547   42.2099 H   0  0  0  0  0  0  0  0  0  0  0  0
   56.8125   29.1375   41.9999 H   0  0  0  0  0  0  0  0  0  0  0  0
   55.2430   29.7316   44.4783 H   0  0  0  0  0  0  0  0  0  0  0  0
   56.2387   28.2873   44.0141 H   0  0  0  0  0  0  0  0  0  0  0  0
   59.2777   31.1637   48.7045 H   0  0  0  0  0  0  0  0  0  0  0  0
   59.9578   33.1396   50.0639 H   0  0  0  0  0  0  0  0  0  0  0  0
   59.9356   35.4214   49.0532 H   0  0  0  0  0  0  0  0  0  0  0  0
   59.2653   35.7254   46.6707 H   0  0  0  0  0  0  0  0  0  0  0  0
   59.0699   28.0745   43.4196 H   0  0  0  0  0  0  0  0  0  0  0  0
   59.9523   27.7273   44.9565 H   0  0  0  0  0  0  0  0  0  0  0  0
   58.3449   25.8273   42.9425 H   0  0  0  0  0  0  0  0  0  0  0  0
   56.7004   24.0190   43.4318 H   0  0  0  0  0  0  0  0  0  0  0  0
   53.5373   25.1052   45.3944 H   0  0  0  0  0  0  0  0  0  0  0  0
   51.7932   23.3717   45.7860 H   0  0  0  0  0  0  0  0  0  0  0  0
   52.4578   21.0196   46.2781 H   0  0  0  0  0  0  0  0  0  0  0  0
   54.8654   20.4015   46.4124 H   0  0  0  0  0  0  0  0  0  0  0  0
   57.3910   20.1660   44.7250 H   0  0  0  0  0  0  0  0  0  0  0  0
   58.8730   20.9590   44.8500 H   0  0  0  0  0  0  0  0  0  0  0  0
   55.8706   25.8116   47.2850 H   0  0  0  0  0  0  0  0  0  0  0  0
   57.5023   27.6299   46.7911 H   0  0  0  0  0  0  0  0  0  0  0  0
  1  2  1  0
  2  3  1  0
  3  4  1  0
  4  5  2  0
  5  6  1  0
  6  7  1  0
  7  8  2  0
  8  9  1  0
  9 10  2  0
 10 11  1  0
 11 12  2  0
 12 13  1  0
  6 14  1  0
 14 15  2  0
 14 16  1  0
 16 17  1  0
 17 18  1  0
 18 19  2  0
 19 20  1  0
 20 21  2  0
 21 22  1  0
 22 23  2  0
 23 24  1  0
 24 25  2  0
 25 26  1  0
 26 27  2  0
 27 28  1  0
 28 29  1  0
 28 30  2  0
 28 31  2  0
 21 32  1  0
 32 33  2  0
 16  4  1  0
 33 18  1  0
 12  7  1  0
 27 22  1  0
  1 34  1  0
  1 35  1  0
  1 36  1  0
  2 37  1  0
  2 38  1  0
  3 39  1  0
  3 40  1  0
  8 41  1  0
  9 42  1  0
 10 43  1  0
 11 44  1  0
 17 45  1  0
 17 46  1  0
 19 47  1  0
 20 48  1  0
 23 49  1  0
 24 50  1  0
 25 51  1  0
 26 52  1  0
 29 53  1  0
 29 54  1  0
 32 55  1  0
 33 56  1  0
M  END
>  <UniqueID>  (24) 
21

>  <SMILES>  (24) 
CCCc1nn(-c2ccccc2Cl)c(=O)n1Cc1ccc(-c2ccccc2S(N)(=O)=O)cc1

>  <Energy>  (24) 
104.21945765380302

>  <Genealogy>  (24) 
CCCc1nn(-c2ccccc2Cl)c(=O)n1Cc1ccc(-c2ccccc2S(N)(=O)=O)cc1 (3D coordinates assigned)
CCCc1nn(-c2ccccc2Cl)c(=O)n1Cc1ccc(-c2ccccc2S(N)(=O)=O)cc1 (optimized conformer: 104.21945765380302 kcal/mol)

>  <smiles>  (24) 
CCCc1nn(-c2ccccc2Cl)c(=O)n1Cc1ccc(-c2ccccc2S(N)(=O)=O)cc1

>  <score_type>  (24) 
oracle

>  <origin>  (24) 
adg

>  <m_score__min__energy>  (24) 
-9.6600000000000001

>  <m_primary>  (24) 
energy

$$$$
24:0
     RDKit          3D

 53 55  0  0  0  0  0  0  0  0999 V2000
   55.0893   23.1786   45.8646 H   0  0  0  0  0  0  0  0  0  0  0  0
   55.7690   23.9770   45.5320 C   0  0  0  0  0  0  0  0  0  0  0  0
   56.3940   23.8790   44.3340 N   0  0  0  0  0  0  0  0  0  0  0  0
   57.2010   24.8640   43.8690 C   0  0  0  0  0  0  0  0  0  0  0  0
   57.6871   24.7497   42.8889 H   0  0  0  0  0  0  0  0  0  0  0  0
   57.4250   26.0290   44.6220 C   0  0  0  0  0  0  0  0  0  0  0  0
   58.1040   27.4140   43.7400 S   0  0  0  0  0  0  0  0  0  0  0  0
   59.4290   27.8120   44.3270 O   0  0  0  0  0  0  0  0  0  0  0  0
   58.2520   27.0730   42.2840 O   0  0  0  0  0  0  0  0  0  0  0  0
   57.0230   28.7620   43.8990 N   0  0  0  0  0  0  0  0  0  0  0  0
   57.4070   30.0900   44.2750 C   0  0  0  0  0  0  0  0  0  0  0  0
   57.4020   31.1550   43.3620 C   0  0  0  0  0  0  0  0  0  0  0  0
   57.1024   30.9801   42.3181 H   0  0  0  0  0  0  0  0  0  0  0  0
   57.7760   32.4370   43.7730 C   0  0  0  0  0  0  0  0  0  0  0  0
   57.7700   33.2648   43.0486 H   0  0  0  0  0  0  0  0  0  0  0  0
   58.1600   32.6790   45.1040 C   0  0  0  0  0  0  0  0  0  0  0  0
   58.5500   34.0390   45.5340 C   0  0  0  0  0  0  0  0  0  0  0  0
   59.2260   34.7810   44.7730 O   0  0  0  0  0  0  0  0  0  0  0  0
   58.1730   34.5140   46.7840 O   0  0  0  0  0  0  0  0  0  0  0  0
   58.1600   31.6080   46.0150 C   0  0  0  0  0  0  0  0  0  0  0  0
   58.4558   31.7798   47.0605 H   0  0  0  0  0  0  0  0  0  0  0  0
   57.7870   30.3280   45.6010 C   0  0  0  0  0  0  0  0  0  0  0  0
   57.7918   29.4987   46.3236 H   0  0  0  0  0  0  0  0  0  0  0  0
   56.8800   26.0930   45.9400 C   0  0  0  0  0  0  0  0  0  0  0  0
   57.1580   27.0090   46.8290 N   0  0  0  0  0  0  0  0  0  0  0  0
   58.3910   27.3140   47.4900 C   0  0  0  0  0  0  0  0  0  0  0  0
   59.2210   26.4020   47.7300 O   0  0  0  0  0  0  0  0  0  0  0  0
   58.6210   28.6210   48.0140 N   0  0  0  0  0  0  0  0  0  0  0  0
   60.1910   29.3560   48.0070 S   0  0  0  0  0  0  0  0  0  0  0  0
   60.7330   29.2880   46.6070 O   0  0  0  0  0  0  0  0  0  0  0  0
   61.0860   28.5740   48.9250 O   0  0  0  0  0  0  0  0  0  0  0  0
   60.1060   31.0410   48.5550 C   0  0  0  0  0  0  0  0  0  0  0  0
   59.0650   31.4040   49.4290 C   0  0  0  0  0  0  0  0  0  0  0  0
   58.3804   30.6312   49.8087 H   0  0  0  0  0  0  0  0  0  0  0  0
   58.8900   32.7310   49.8200 C   0  0  0  0  0  0  0  0  0  0  0  0
   58.0718   32.9986   50.5048 H   0  0  0  0  0  0  0  0  0  0  0  0
   59.7490   33.7170   49.3450 C   0  0  0  0  0  0  0  0  0  0  0  0
   59.5940   34.7669   49.6342 H   0  0  0  0  0  0  0  0  0  0  0  0
   60.8070   33.3750   48.5020 C   0  0  0  0  0  0  0  0  0  0  0  0
   61.4841   34.1606   48.1354 H   0  0  0  0  0  0  0  0  0  0  0  0
   61.0200   32.0380   48.1140 C   0  0  0  0  0  0  0  0  0  0  0  0
   62.2410   31.7370   47.2650 C   0  0  0  0  0  0  0  0  0  0  0  0
   61.9438   31.7380   46.2059 H   0  0  0  0  0  0  0  0  0  0  0  0
   62.6303   30.7556   47.5736 H   0  0  0  0  0  0  0  0  0  0  0  0
   63.3630   32.7700   47.4640 C   0  0  0  0  0  0  0  0  0  0  0  0
   64.3312   32.2484   47.4421 H   0  0  0  0  0  0  0  0  0  0  0  0
   63.1939   33.2663   48.4310 H   0  0  0  0  0  0  0  0  0  0  0  0
   63.3620   33.8480   46.3810 C   0  0  0  0  0  0  0  0  0  0  0  0
   63.3611   34.8417   46.8528 H   0  0  0  0  0  0  0  0  0  0  0  0
   64.2602   33.7400   45.7553 H   0  0  0  0  0  0  0  0  0  0  0  0
   62.4640   33.7383   45.7553 H   0  0  0  0  0  0  0  0  0  0  0  0
   55.9870   25.0890   46.3430 C   0  0  0  0  0  0  0  0  0  0  0  0
   55.4570   25.1798   47.3026 H   0  0  0  0  0  0  0  0  0  0  0  0
  1  2  1  0
  2  3  1  0
  3  4  1  0
  4  5  1  0
  4  6  2  0
  6  7  1  0
  7  8  2  0
  7  9  2  0
  7 10  1  0
 10 11  1  0
 11 12  2  0
 12 13  1  0
 12 14  1  0
 14 15  1  0
 14 16  2  0
 16 17  1  0
 17 18  2  0
 17 19  1  0
 16 20  1  0
 20 21  1  0
 20 22  2  0
 22 23  1  0
  6 24  1  0
 24 25  2  0
 25 26  1  0
 26 27  2  0
 26 28  1  0
 28 29  1  0
 29 30  2  0
 29 31  2  0
 29 32  1  0
 32 33  2  0
 33 34  1  0
 33 35  1  0
 35 36  1  0
 35 37  2  0
 37 38  1  0
 37 39  1  0
 39 40  1  0
 39 41  2  0
 41 42  1  0
 42 43  1  0
 42 44  1  0
 42 45  1  0
 45 46  1  0
 45 47  1  0
 45 48  1  0
 48 49  1  0
 48 50  1  0
 48 51  1  0
 24 52  1  0
 52 53  1  0
 52  2  2  0
 22 11  1  0
 41 32  1  0
M  CHG  4   3  -1  10  -1  19  -1  28  -1
M  END
>  <UniqueID>  (25) 
22

>  <SMILES>  (25) 
CCCc1ccccc1S(=O)(=O)[N-]C(=O)/N=c1/cc[n-]cc1S(=O)(=O)[N-]c1ccc(C(=O)[O-])cc1

>  <Energy>  (25) 
81.92323853382138

>  <Genealogy>  (25) 
CCCc1ccccc1S(=O)(=O)[N-]C(=O)N=c1cc[n-]cc1S(=O)(=O)[N-]c1ccc(C(=O)[O-])cc1 (protonated)
CCCc1ccccc1S(=O)(=O)[N-]C(=O)/N=c1/cc[n-]cc1S(=O)(=O)[N-]c1ccc(C(=O)[O-])cc1 (cis-trans isomerization)
CCCc1ccccc1S(=O)(=O)[N-]C(=O)/N=c1/cc[n-]cc1S(=O)(=O)[N-]c1ccc(C(=O)[O-])cc1 (3D coordinates assigned)
CCCc1ccccc1S(=O)(=O)[N-]C(=O)/N=c1/cc[n-]cc1S(=O)(=O)[N-]c1ccc(C(=O)[O-])cc1 (optimized conformer: 81.92323853382138 kcal/mol)

>  <smiles>  (25) 
CCCc1ccccc1S(=O)(=O)NC(=O)N=c1cc[nH]cc1S(=O)(=O)Nc1ccc(C(=O)O)cc1

>  <score_type>  (25) 
oracle

>  <origin>  (25) 
adg

>  <m_score__min__energy>  (25) 
-15.08

>  <m_primary>  (25) 
energy

$$$$
25:0
     RDKit          3D

 42 44  0  0  0  0  0  0  0  0999 V2000
   57.7820   25.8510   47.7390 O   0  0  0  0  0  0  0  0  0  0  0  0
   57.8020   26.0350   46.4910 C   0  0  0  0  0  0  0  0  0  0  0  0
   58.3780   27.2910   45.9470 C   0  0  0  0  0  0  0  0  0  0  0  0
   59.7690   27.4300   45.8040 C   0  0  0  0  0  0  0  0  0  0  0  0
   60.3130   28.6050   45.2790 C   0  0  0  0  0  0  0  0  0  0  0  0
   59.4750   29.6500   44.8840 C   0  0  0  0  0  0  0  0  0  0  0  0
   58.0850   29.5230   45.0040 C   0  0  0  0  0  0  0  0  0  0  0  0
   57.0240   30.8290   44.4710 S   0  0  0  0  0  0  0  0  0  0  0  0
   57.3740   31.2050   43.0570 O   0  0  0  0  0  0  0  0  0  0  0  0
   55.6000   30.3470   44.4850 O   0  0  0  0  0  0  0  0  0  0  0  0
   57.1710   32.2370   45.4980 N   0  0  0  0  0  0  0  0  0  0  0  0
   57.4120   33.4700   44.7060 C   0  0  0  0  0  0  0  0  0  0  0  0
   58.8740   33.9350   44.7500 C   0  0  0  0  0  0  0  0  0  0  0  0
   59.3300   34.2020   46.1950 C   0  0  0  0  0  0  0  0  0  0  0  0
   58.6230   33.2960   47.2200 C   0  0  0  0  0  0  0  0  0  0  0  0
   58.1610   31.9880   46.5700 C   0  0  0  0  0  0  0  0  0  0  0  0
   57.5420   28.3460   45.5390 C   0  0  0  0  0  0  0  0  0  0  0  0
   57.2670   25.0170   45.6210 N   0  0  0  0  0  0  0  0  0  0  0  0
   58.1200   24.1530   44.9950 C   0  0  0  0  0  0  0  0  0  0  0  0
   57.6300   23.1730   44.1380 C   0  0  0  0  0  0  0  0  0  0  0  0
   56.2560   23.0990   43.9260 C   0  0  0  0  0  0  0  0  0  0  0  0
   55.7840   22.2210   43.1550 O   0  0  0  0  0  0  0  0  0  0  0  0
   55.4270   23.9750   44.5520 N   0  0  0  0  0  0  0  0  0  0  0  0
   55.9180   24.9300   45.3920 C   0  0  0  0  0  0  0  0  0  0  0  0
   55.1170   25.7200   45.9630 O   0  0  0  0  0  0  0  0  0  0  0  0
   60.4341   26.6081   46.1075 H   0  0  0  0  0  0  0  0  0  0  0  0
   61.4034   28.7071   45.1766 H   0  0  0  0  0  0  0  0  0  0  0  0
   59.9078   30.5759   44.4773 H   0  0  0  0  0  0  0  0  0  0  0  0
   57.1382   33.2732   43.6590 H   0  0  0  0  0  0  0  0  0  0  0  0
   56.7990   34.2696   45.1475 H   0  0  0  0  0  0  0  0  0  0  0  0
   59.5122   33.1540   44.3109 H   0  0  0  0  0  0  0  0  0  0  0  0
   58.9588   34.8716   44.1794 H   0  0  0  0  0  0  0  0  0  0  0  0
   60.4140   34.0268   46.2597 H   0  0  0  0  0  0  0  0  0  0  0  0
   59.0701   35.2429   46.4377 H   0  0  0  0  0  0  0  0  0  0  0  0
   59.3216   33.0643   48.0375 H   0  0  0  0  0  0  0  0  0  0  0  0
   57.7401   33.8263   47.6063 H   0  0  0  0  0  0  0  0  0  0  0  0
   59.0334   31.4749   46.1391 H   0  0  0  0  0  0  0  0  0  0  0  0
   57.6849   31.3669   47.3430 H   0  0  0  0  0  0  0  0  0  0  0  0
   56.4512   28.2468   45.6406 H   0  0  0  0  0  0  0  0  0  0  0  0
   59.2030   24.2329   45.1700 H   0  0  0  0  0  0  0  0  0  0  0  0
   58.3138   22.4711   43.6382 H   0  0  0  0  0  0  0  0  0  0  0  0
   54.3950   23.9150   44.3880 H   0  0  0  0  0  0  0  0  0  0  0  0
  1  2  2  0
  2  3  1  0
  3  4  2  0
  4  5  1  0
  5  6  2  0
  6  7  1  0
  7  8  1  0
  8  9  2  0
  8 10  2  0
  8 11  1  0
 11 12  1  0
 12 13  1  0
 13 14  1  0
 14 15  1  0
 15 16  1  0
  7 17  2  0
  2 18  1  0
 18 19  1  0
 19 20  2  0
 20 21  1  0
 21 22  2  0
 21 23  1  0
 23 24  1  0
 24 25  2  0
 17  3  1  0
 24 18  1  0
 16 11  1  0
  4 26  1  0
  5 27  1  0
  6 28  1  0
 12 29  1  0
 12 30  1  0
 13 31  1  0
 13 32  1  0
 14 33  1  0
 14 34  1  0
 15 35  1  0
 15 36  1  0
 16 37  1  0
 16 38  1  0
 17 39  1  0
 19 40  1  0
 20 41  1  0
 23 42  1  0
M  END
>  <UniqueID>  (26) 
23

>  <SMILES>  (26) 
O=C(c1cccc(S(=O)(=O)N2CCCCC2)c1)n1ccc(=O)[nH]c1=O

>  <Energy>  (26) 
56.758806833351215

>  <Genealogy>  (26) 
O=C(c1cccc(S(=O)(=O)N2CCCCC2)c1)n1ccc(=O)[nH]c1=O (3D coordinates assigned)
O=C(c1cccc(S(=O)(=O)N2CCCCC2)c1)n1ccc(=O)[nH]c1=O (nonaromatic ring conformer: 56.758806833351215 kcal/mol)

>  <smiles>  (26) 
O=C(c1cccc(S(=O)(=O)N2CCCCC2)c1)n1ccc(=O)[nH]c1=O

>  <score_type>  (26) 
oracle

>  <origin>  (26) 
adg

>  <m_score__min__energy>  (26) 
-9.9900000000000002

>  <m_primary>  (26) 
energy

$$$$
26:0
     RDKit          3D

 52 55  0  0  0  0  0  0  0  0999 V2000
   61.1040   25.6940   53.2010 N   0  0  0  0  0  0  0  0  0  0  0  0
   61.0310   26.5090   52.3750 C   0  0  0  0  0  0  0  0  0  0  0  0
   60.9610   27.5280   51.3520 C   0  0  0  0  0  0  0  0  0  0  0  0
   61.0900   28.8770   51.6650 C   0  0  0  0  0  0  0  0  0  0  0  0
   61.0070   29.7640   50.6110 C   0  0  0  0  0  0  0  0  0  0  0  0
   61.1300   31.1580   50.8570 N   0  0  0  0  0  0  0  0  0  0  0  0
   60.2270   32.1290   50.2330 C   0  0  0  0  0  0  0  0  0  0  0  0
   60.6720   32.6030   48.9220 C   0  0  0  0  0  0  0  0  0  0  0  0
   62.0160   32.7940   48.5850 C   0  0  0  0  0  0  0  0  0  0  0  0
   62.4350   33.2340   47.3720 C   0  0  0  0  0  0  0  0  0  0  0  0
   61.5380   33.5240   46.3880 C   0  0  0  0  0  0  0  0  0  0  0  0
   60.2000   33.3550   46.6610 C   0  0  0  0  0  0  0  0  0  0  0  0
   59.2640   33.6240   45.7270 N   0  0  0  0  0  0  0  0  0  0  0  0
   57.9600   33.4840   45.9190 C   0  0  0  0  0  0  0  0  0  0  0  0
   57.0700   33.7440   45.0180 N   0  0  0  0  0  0  0  0  0  0  0  0
   57.5210   33.0510   47.1080 N   0  0  0  0  0  0  0  0  0  0  0  0
   58.4260   32.7670   48.0830 C   0  0  0  0  0  0  0  0  0  0  0  0
   57.9650   32.3580   49.1920 N   0  0  0  0  0  0  0  0  0  0  0  0
   59.7710   32.9020   47.9070 C   0  0  0  0  0  0  0  0  0  0  0  0
   60.8070   29.3610   49.3080 C   0  0  0  0  0  0  0  0  0  0  0  0
   60.6790   28.0210   49.0000 C   0  0  0  0  0  0  0  0  0  0  0  0
   60.4820   27.6780   47.6850 O   0  0  0  0  0  0  0  0  0  0  0  0
   59.7540   28.4010   46.7600 C   0  0  0  0  0  0  0  0  0  0  0  0
   60.2620   29.4650   46.0430 C   0  0  0  0  0  0  0  0  0  0  0  0
   59.4140   30.1010   45.1430 C   0  0  0  0  0  0  0  0  0  0  0  0
   58.1020   29.6920   44.9620 C   0  0  0  0  0  0  0  0  0  0  0  0
   57.0280   30.4820   43.8340 S   0  0  0  0  0  0  0  0  0  0  0  0
   56.5210   29.3710   42.6310 N   0  0  0  0  0  0  0  0  0  0  0  0
   55.7990   30.9920   44.5210 O   0  0  0  0  0  0  0  0  0  0  0  0
   57.7370   31.6510   43.2570 O   0  0  0  0  0  0  0  0  0  0  0  0
   57.5930   28.6280   45.6790 C   0  0  0  0  0  0  0  0  0  0  0  0
   56.3130   28.2200   45.5090 F   0  0  0  0  0  0  0  0  0  0  0  0
   58.4310   27.9980   46.5700 C   0  0  0  0  0  0  0  0  0  0  0  0
   60.7590   27.1130   50.0360 C   0  0  0  0  0  0  0  0  0  0  0  0
   61.2498   29.2189   52.6982 H   0  0  0  0  0  0  0  0  0  0  0  0
   61.8540   31.5560   51.4820 H   0  0  0  0  0  0  0  0  0  0  0  0
   59.2411   31.6561   50.1128 H   0  0  0  0  0  0  0  0  0  0  0  0
   60.1995   33.0071   50.8949 H   0  0  0  0  0  0  0  0  0  0  0  0
   62.7775   32.5747   49.3479 H   0  0  0  0  0  0  0  0  0  0  0  0
   63.5111   33.3581   47.1806 H   0  0  0  0  0  0  0  0  0  0  0  0
   61.8738   33.8828   45.4039 H   0  0  0  0  0  0  0  0  0  0  0  0
   59.6090   33.9580   44.8100 H   0  0  0  0  0  0  0  0  0  0  0  0
   56.6010   33.0240   44.4320 H   0  0  0  0  0  0  0  0  0  0  0  0
   56.4860   32.9270   47.3000 H   0  0  0  0  0  0  0  0  0  0  0  0
   57.0450   32.6470   49.5780 H   0  0  0  0  0  0  0  0  0  0  0  0
   60.7489   30.1129   48.5072 H   0  0  0  0  0  0  0  0  0  0  0  0
   61.3014   29.7984   46.1787 H   0  0  0  0  0  0  0  0  0  0  0  0
   59.7947   30.9518   44.5588 H   0  0  0  0  0  0  0  0  0  0  0  0
   55.6600   29.6520   42.1440 H   0  0  0  0  0  0  0  0  0  0  0  0
   57.2930   29.0690   42.0110 H   0  0  0  0  0  0  0  0  0  0  0  0
   58.0455   27.1481   47.1523 H   0  0  0  0  0  0  0  0  0  0  0  0
   60.6614   26.0390   49.8192 H   0  0  0  0  0  0  0  0  0  0  0  0
  1  2  3  0
  2  3  1  0
  3  4  2  0
  4  5  1  0
  5  6  1  0
  6  7  1  0
  7  8  1  0
  8  9  2  0
  9 10  1  0
 10 11  2  0
 11 12  1  0
 12 13  1  0
 13 14  1  0
 14 15  2  3
 14 16  1  0
 16 17  1  0
 17 18  2  3
 17 19  1  0
  5 20  2  0
 20 21  1  0
 21 22  1  0
 22 23  1  0
 23 24  2  0
 24 25  1  0
 25 26  2  0
 26 27  1  0
 27 28  1  0
 27 29  2  0
 27 30  2  0
 26 31  1  0
 31 32  1  0
 31 33  2  0
 21 34  2  0
 34  3  1  0
 19  8  1  0
 33 23  1  0
 19 12  2  0
  4 35  1  0
  6 36  1  0
  7 37  1  0
  7 38  1  0
  9 39  1  0
 10 40  1  0
 11 41  1  0
 13 42  1  0
 15 43  1  0
 16 44  1  0
 18 45  1  0
 20 46  1  0
 24 47  1  0
 25 48  1  0
 28 49  1  0
 28 50  1  0
 33 51  1  0
 34 52  1  0
M  END
>  <smiles>  (27) 
N#Cc1cc(NCc2cccc3[nH]c(=N)[nH]c(=N)c23)cc(Oc2ccc(S(N)(=O)=O)c(F)c2)c1

>  <score_type>  (27) 
oracle

>  <origin>  (27) 
adg

>  <m_score__min__energy>  (27) 
-9.9100000000000001

>  <m_primary>  (27) 
energy

$$$$
27:0
     RDKit          3D

 65 69  0  0  0  0  0  0  0  0999 V2000
   58.9990   28.0500   45.1300 O   0  0  0  0  0  0  0  0  0  0  0  0
   57.8080   27.8370   44.7720 C   0  0  0  0  0  0  0  0  0  0  0  0
   57.1610   28.7560   43.8770 N   0  0  0  0  0  0  0  0  0  0  0  0
   57.4710   30.1600   43.8080 C   0  0  0  0  0  0  0  0  0  0  0  0
   57.1460   30.8790   42.6490 C   0  0  0  0  0  0  0  0  0  0  0  0
   57.4110   32.2480   42.5680 C   0  0  0  0  0  0  0  0  0  0  0  0
   57.9910   32.9170   43.6470 C   0  0  0  0  0  0  0  0  0  0  0  0
   58.3090   32.2220   44.8270 C   0  0  0  0  0  0  0  0  0  0  0  0
   58.9360   32.9240   45.9760 C   0  0  0  0  0  0  0  0  0  0  0  0
   59.9930   33.8270   45.7710 C   0  0  0  0  0  0  0  0  0  0  0  0
   60.6530   34.4040   46.8600 C   0  0  0  0  0  0  0  0  0  0  0  0
   60.2720   34.0850   48.1720 C   0  0  0  0  0  0  0  0  0  0  0  0
   61.0940   34.5600   49.3420 C   0  0  0  0  0  0  0  0  0  0  0  0
   62.2350   33.6630   49.5850 N   0  0  0  0  0  0  0  0  0  0  0  0
   63.0480   33.8160   50.8060 C   0  0  0  0  0  0  0  0  0  0  0  0
   64.2880   32.9580   50.7560 C   0  0  0  0  0  0  0  0  0  0  0  0
   65.4740   33.4450   50.1760 C   0  0  0  0  0  0  0  0  0  0  0  0
   66.6280   32.6560   50.1610 C   0  0  0  0  0  0  0  0  0  0  0  0
   66.6050   31.3720   50.7080 C   0  0  0  0  0  0  0  0  0  0  0  0
   65.4250   30.8660   51.2580 C   0  0  0  0  0  0  0  0  0  0  0  0
   64.2680   31.6510   51.2750 C   0  0  0  0  0  0  0  0  0  0  0  0
   62.6050   32.6970   48.5800 C   0  0  0  0  0  0  0  0  0  0  0  0
   63.5820   32.9350   47.8210 O   0  0  0  0  0  0  0  0  0  0  0  0
   61.8550   31.4320   48.4050 C   0  0  0  0  0  0  0  0  0  0  0  0
   61.5370   30.9710   47.1150 C   0  0  0  0  0  0  0  0  0  0  0  0
   60.8170   29.7840   46.9470 C   0  0  0  0  0  0  0  0  0  0  0  0
   60.4000   29.0530   48.0630 C   0  0  0  0  0  0  0  0  0  0  0  0
   60.6990   29.5100   49.3490 C   0  0  0  0  0  0  0  0  0  0  0  0
   61.4180   30.6970   49.5220 C   0  0  0  0  0  0  0  0  0  0  0  0
   59.1760   33.2330   48.3780 C   0  0  0  0  0  0  0  0  0  0  0  0
   58.5150   32.6580   47.2910 C   0  0  0  0  0  0  0  0  0  0  0  0
   58.0400   30.8430   44.8990 C   0  0  0  0  0  0  0  0  0  0  0  0
   57.1120   26.6140   45.2420 C   0  0  0  0  0  0  0  0  0  0  0  0
   57.6270   25.3340   44.9740 C   0  0  0  0  0  0  0  0  0  0  0  0
   56.9510   24.1970   45.4200 C   0  0  0  0  0  0  0  0  0  0  0  0
   55.7570   24.3440   46.1290 C   0  0  0  0  0  0  0  0  0  0  0  0
   55.1350   23.3300   46.5410 O   0  0  0  0  0  0  0  0  0  0  0  0
   55.2610   25.5850   46.3720 N   0  0  0  0  0  0  0  0  0  0  0  0
   55.9000   26.7080   45.9490 C   0  0  0  0  0  0  0  0  0  0  0  0
   56.4820   28.3680   43.1850 H   0  0  0  0  0  0  0  0  0  0  0  0
   56.6793   30.3615   41.7979 H   0  0  0  0  0  0  0  0  0  0  0  0
   57.1617   32.8010   41.6504 H   0  0  0  0  0  0  0  0  0  0  0  0
   58.2005   33.9944   43.5737 H   0  0  0  0  0  0  0  0  0  0  0  0
   60.3032   34.0816   44.7468 H   0  0  0  0  0  0  0  0  0  0  0  0
   61.4763   35.1127   46.6871 H   0  0  0  0  0  0  0  0  0  0  0  0
   61.4707   35.5715   49.1297 H   0  0  0  0  0  0  0  0  0  0  0  0
   60.4564   34.5659   50.2383 H   0  0  0  0  0  0  0  0  0  0  0  0
   63.3465   34.8699   50.9069 H   0  0  0  0  0  0  0  0  0  0  0  0
   62.4418   33.4965   51.6665 H   0  0  0  0  0  0  0  0  0  0  0  0
   65.4932   34.4513   49.7323 H   0  0  0  0  0  0  0  0  0  0  0  0
   67.5554   33.0476   49.7175 H   0  0  0  0  0  0  0  0  0  0  0  0
   67.5175   30.7577   50.7059 H   0  0  0  0  0  0  0  0  0  0  0  0
   65.4059   29.8495   51.6780 H   0  0  0  0  0  0  0  0  0  0  0  0
   63.3371   31.2441   51.6966 H   0  0  0  0  0  0  0  0  0  0  0  0
   61.8562   31.5469   46.2338 H   0  0  0  0  0  0  0  0  0  0  0  0
   60.5784   29.4250   45.9350 H   0  0  0  0  0  0  0  0  0  0  0  0
   59.8364   28.1179   47.9288 H   0  0  0  0  0  0  0  0  0  0  0  0
   60.3684   28.9353   50.2267 H   0  0  0  0  0  0  0  0  0  0  0  0
   61.6429   31.0577   50.5366 H   0  0  0  0  0  0  0  0  0  0  0  0
   58.8359   33.0171   49.4016 H   0  0  0  0  0  0  0  0  0  0  0  0
   57.6576   31.9912   47.4647 H   0  0  0  0  0  0  0  0  0  0  0  0
   58.2776   30.2912   45.8204 H   0  0  0  0  0  0  0  0  0  0  0  0
   58.5659   25.2278   44.4109 H   0  0  0  0  0  0  0  0  0  0  0  0
   57.3551   23.1947   45.2149 H   0  0  0  0  0  0  0  0  0  0  0  0
   55.4662   27.6964   46.1611 H   0  0  0  0  0  0  0  0  0  0  0  0
  1  2  2  0
  2  3  1  0
  3  4  1  0
  4  5  2  0
  5  6  1  0
  6  7  2  0
  7  8  1  0
  8  9  1  0
  9 10  2  0
 10 11  1  0
 11 12  2  0
 12 13  1  0
 13 14  1  0
 14 15  1  0
 15 16  1  0
 16 17  2  0
 17 18  1  0
 18 19  2  0
 19 20  1  0
 20 21  2  0
 14 22  1  0
 22 23  2  0
 22 24  1  0
 24 25  2  0
 25 26  1  0
 26 27  2  0
 27 28  1  0
 28 29  2  0
 12 30  1  0
 30 31  2  0
  8 32  2  0
  2 33  1  0
 33 34  1  0
 34 35  2  0
 35 36  1  0
 36 37  2  0
 36 38  1  0
 38 39  1  0
 32  4  1  0
 39 33  2  0
 31  9  1  0
 21 16  1  0
 29 24  1  0
  3 40  1  0
  5 41  1  0
  6 42  1  0
  7 43  1  0
 10 44  1  0
 11 45  1  0
 13 46  1  0
 13 47  1  0
 15 48  1  0
 15 49  1  0
 17 50  1  0
 18 51  1  0
 19 52  1  0
 20 53  1  0
 21 54  1  0
 25 55  1  0
 26 56  1  0
 27 57  1  0
 28 58  1  0
 29 59  1  0
 30 60  1  0
 31 61  1  0
 32 62  1  0
 34 63  1  0
 35 64  1  0
 39 65  1  0
M  CHG  1  38  -1
M  END
>  <UniqueID>  (28) 
24

>  <SMILES>  (28) 
O=C(Nc1cccc(-c2ccc(CN(Cc3ccccc3)C(=O)c3ccccc3)cc2)c1)c1ccc(=O)[n-]c1

>  <Energy>  (28) 
83.74788579627729

>  <Genealogy>  (28) 
O=C(Nc1cccc(-c2ccc(CN(Cc3ccccc3)C(=O)c3ccccc3)cc2)c1)c1ccc(=O)[n-]c1 (protonated)
O=C(Nc1cccc(-c2ccc(CN(Cc3ccccc3)C(=O)c3ccccc3)cc2)c1)c1ccc(=O)[n-]c1 (3D coordinates assigned)
O=C(Nc1cccc(-c2ccc(CN(Cc3ccccc3)C(=O)c3ccccc3)cc2)c1)c1ccc(=O)[n-]c1 (optimized conformer: 83.74788579627729 kcal/mol)

>  <smiles>  (28) 
O=C(Nc1cccc(-c2ccc(CN(Cc3ccccc3)C(=O)c3ccccc3)cc2)c1)c1ccc(=O)[nH]c1

>  <score_type>  (28) 
oracle

>  <origin>  (28) 
adg

>  <m_score__min__energy>  (28) 
-12.23

>  <m_primary>  (28) 
energy

$$$$
28:0
     RDKit          3D

 93 97  0  0  0  0  0  0  0  0999 V2000
   58.6950   28.7740   48.1160 H   0  0  0  0  0  0  0  0  0  0  0  0
   58.5900   29.4030   48.9000 O   0  0  0  0  0  0  0  0  0  0  0  0
   59.5820   29.5170   49.8700 C   0  0  0  0  0  0  0  0  0  0  0  0
   60.8490   30.0180   49.5430 C   0  0  0  0  0  0  0  0  0  0  0  0
   61.0723   30.3119   48.5068 H   0  0  0  0  0  0  0  0  0  0  0  0
   61.8290   30.1450   50.5300 C   0  0  0  0  0  0  0  0  0  0  0  0
   62.8225   30.5388   50.2696 H   0  0  0  0  0  0  0  0  0  0  0  0
   61.5500   29.7730   51.8470 C   0  0  0  0  0  0  0  0  0  0  0  0
   62.3193   29.8895   52.6246 H   0  0  0  0  0  0  0  0  0  0  0  0
   60.2910   29.2510   52.1810 C   0  0  0  0  0  0  0  0  0  0  0  0
   59.9870   28.8150   53.5870 C   0  0  0  0  0  0  0  0  0  0  0  0
   59.5790   29.6653   54.1531 H   0  0  0  0  0  0  0  0  0  0  0  0
   60.9118   28.4611   54.0660 H   0  0  0  0  0  0  0  0  0  0  0  0
   59.0100   27.7330   53.5670 N   0  0  0  0  0  0  0  0  0  0  0  0
   57.7050   27.8580   54.1400 C   0  0  0  0  0  0  0  0  0  0  0  0
   56.7160   27.2900   53.6010 O   0  0  0  0  0  0  0  0  0  0  0  0
   57.5060   28.7280   55.3420 C   0  0  0  0  0  0  0  0  0  0  0  0
   57.0978   28.1161   56.1599 H   0  0  0  0  0  0  0  0  0  0  0  0
   58.4806   29.1581   55.6160 H   0  0  0  0  0  0  0  0  0  0  0  0
   56.5410   29.8830   55.0590 C   0  0  0  0  0  0  0  0  0  0  0  0
   55.5874   29.4792   54.6880 H   0  0  0  0  0  0  0  0  0  0  0  0
   56.3691   30.4476   55.9873 H   0  0  0  0  0  0  0  0  0  0  0  0
   57.1320   30.8010   54.0220 C   0  0  0  0  0  0  0  0  0  0  0  0
   58.2800   31.5520   54.3140 C   0  0  0  0  0  0  0  0  0  0  0  0
   58.6986   31.5380   55.3311 H   0  0  0  0  0  0  0  0  0  0  0  0
   58.8950   32.3180   53.3200 C   0  0  0  0  0  0  0  0  0  0  0  0
   59.7796   32.9242   53.5652 H   0  0  0  0  0  0  0  0  0  0  0  0
   58.3910   32.3180   52.0130 C   0  0  0  0  0  0  0  0  0  0  0  0
   59.0760   33.0630   50.9360 C   0  0  0  0  0  0  0  0  0  0  0  0
   58.6120   33.0120   49.7670 O   0  0  0  0  0  0  0  0  0  0  0  0
   60.2550   33.8510   51.1750 N   0  0  0  0  0  0  0  0  0  0  0  0
   61.6100   33.5250   50.7380 C   0  0  0  0  0  0  0  0  0  0  0  0
   62.3187   34.2217   51.2095 H   0  0  0  0  0  0  0  0  0  0  0  0
   61.8372   32.4902   51.0339 H   0  0  0  0  0  0  0  0  0  0  0  0
   61.7290   33.6370   49.2410 C   0  0  0  0  0  0  0  0  0  0  0  0
   62.8370   33.0910   48.5720 C   0  0  0  0  0  0  0  0  0  0  0  0
   63.6502   32.6255   49.1482 H   0  0  0  0  0  0  0  0  0  0  0  0
   62.9100   33.1370   47.1760 C   0  0  0  0  0  0  0  0  0  0  0  0
   63.7821   32.7103   46.6589 H   0  0  0  0  0  0  0  0  0  0  0  0
   61.8810   33.7220   46.4360 C   0  0  0  0  0  0  0  0  0  0  0  0
   61.9438   33.7537   45.3383 H   0  0  0  0  0  0  0  0  0  0  0  0
   60.7680   34.2690   47.0890 C   0  0  0  0  0  0  0  0  0  0  0  0
   59.7010   34.9040   46.2950 C   0  0  0  0  0  0  0  0  0  0  0  0
   59.9910   35.9340   45.6350 O   0  0  0  0  0  0  0  0  0  0  0  0
   58.3840   34.3430   46.1410 N   0  0  0  0  0  0  0  0  0  0  0  0
   58.0400   33.1220   45.8390 C   0  0  0  0  0  0  0  0  0  0  0  0
   58.3710   32.0690   46.6340 N   0  0  0  0  0  0  0  0  0  0  0  0
   57.9900   30.7960   46.3560 C   0  0  0  0  0  0  0  0  0  0  0  0
   58.2617   29.9790   47.0406 H   0  0  0  0  0  0  0  0  0  0  0  0
   57.2480   30.5210   45.1930 C   0  0  0  0  0  0  0  0  0  0  0  0
   56.7560   29.2030   44.8860 N   0  0  0  0  0  0  0  0  0  0  0  0
   56.8580   28.1350   45.6210 C   0  0  0  0  0  0  0  0  0  0  0  0
   55.8800   27.1890   45.6280 N   0  0  0  0  0  0  0  0  0  0  0  0
   56.0020   26.0770   46.3910 C   0  0  0  0  0  0  0  0  0  0  0  0
   55.0580   25.1850   46.3670 N   0  0  0  0  0  0  0  0  0  0  0  0
   54.9570   24.0850   45.4100 C   0  0  0  0  0  0  0  0  0  0  0  0
   54.3201   23.2958   45.8362 H   0  0  0  0  0  0  0  0  0  0  0  0
   54.5214   24.4731   44.4775 H   0  0  0  0  0  0  0  0  0  0  0  0
   56.3410   23.4960   45.0930 C   0  0  0  0  0  0  0  0  0  0  0  0
   57.0718   23.9207   45.7969 H   0  0  0  0  0  0  0  0  0  0  0  0
   56.2625   22.4031   45.1903 H   0  0  0  0  0  0  0  0  0  0  0  0
   56.8100   23.7960   43.6610 C   0  0  0  0  0  0  0  0  0  0  0  0
   57.5832   23.0630   43.3874 H   0  0  0  0  0  0  0  0  0  0  0  0
   55.9248   23.7319   43.0111 H   0  0  0  0  0  0  0  0  0  0  0  0
   57.3950   25.2070   43.4890 C   0  0  0  0  0  0  0  0  0  0  0  0
   57.9689   25.2467   42.5514 H   0  0  0  0  0  0  0  0  0  0  0  0
   56.5660   25.9296   43.4641 H   0  0  0  0  0  0  0  0  0  0  0  0
   58.2410   25.5340   44.5590 O   0  0  0  0  0  0  0  0  0  0  0  0
   57.7620   26.2070   45.1100 H   0  0  0  0  0  0  0  0  0  0  0  0
   57.1090   25.9090   47.1620 N   0  0  0  0  0  0  0  0  0  0  0  0
   58.0810   26.8570   47.1830 C   0  0  0  0  0  0  0  0  0  0  0  0
   59.1250   26.6800   47.9360 N   0  0  0  0  0  0  0  0  0  0  0  0
   60.5060   26.5880   47.4570 C   0  0  0  0  0  0  0  0  0  0  0  0
   61.1901   26.8222   48.2859 H   0  0  0  0  0  0  0  0  0  0  0  0
   60.6807   25.5664   47.0884 H   0  0  0  0  0  0  0  0  0  0  0  0
   60.7570   27.5670   46.3110 C   0  0  0  0  0  0  0  0  0  0  0  0
   61.8330   27.5978   46.0845 H   0  0  0  0  0  0  0  0  0  0  0  0
   60.2031   27.2369   45.4198 H   0  0  0  0  0  0  0  0  0  0  0  0
   60.3220   28.8450   46.6830 O   0  0  0  0  0  0  0  0  0  0  0  0
   59.4030   28.7310   47.0410 H   0  0  0  0  0  0  0  0  0  0  0  0
   57.9470   27.9750   46.4140 N   0  0  0  0  0  0  0  0  0  0  0  0
   56.8720   31.5930   44.3750 C   0  0  0  0  0  0  0  0  0  0  0  0
   56.2610   31.4106   43.4787 H   0  0  0  0  0  0  0  0  0  0  0  0
   57.2700   32.8930   44.6930 C   0  0  0  0  0  0  0  0  0  0  0  0
   56.9796   33.7336   44.0456 H   0  0  0  0  0  0  0  0  0  0  0  0
   60.7150   34.2580   48.4930 C   0  0  0  0  0  0  0  0  0  0  0  0
   59.8725   34.7397   49.0108 H   0  0  0  0  0  0  0  0  0  0  0  0
   57.2130   31.6090   51.7320 C   0  0  0  0  0  0  0  0  0  0  0  0
   56.7718   31.6573   50.7255 H   0  0  0  0  0  0  0  0  0  0  0  0
   56.5980   30.8420   52.7250 C   0  0  0  0  0  0  0  0  0  0  0  0
   55.6904   30.2672   52.4887 H   0  0  0  0  0  0  0  0  0  0  0  0
   59.3090   29.1290   51.1840 C   0  0  0  0  0  0  0  0  0  0  0  0
   58.3183   28.7252   51.4397 H   0  0  0  0  0  0  0  0  0  0  0  0
  1  2  1  0
  2  3  1  0
  3  4  2  0
  4  5  1  0
  4  6  1  0
  6  7  1  0
  6  8  2  0
  8  9  1  0
  8 10  1  0
 10 11  1  0
 11 12  1  0
 11 13  1  0
 11 14  1  0
 14 15  1  0
 15 16  2  0
 15 17  1  0
 17 18  1  0
 17 19  1  0
 17 20  1  0
 20 21  1  0
 20 22  1  0
 20 23  1  0
 23 24  2  0
 24 25  1  0
 24 26  1  0
 26 27  1  0
 26 28  2  0
 28 29  1  0
 29 30  2  0
 29 31  1  0
 31 32  1  0
 32 33  1  0
 32 34  1  0
 32 35  1  0
 35 36  2  0
 36 37  1  0
 36 38  1  0
 38 39  1  0
 38 40  2  0
 40 41  1  0
 40 42  1  0
 42 43  1  0
 43 44  2  0
 43 45  1  0
 45 46  2  3
 46 47  1  0
 47 48  1  0
 48 49  1  0
 48 50  2  0
 50 51  1  0
 51 52  2  3
 52 53  1  0
 53 54  1  0
 54 55  2  3
 55 56  1  0
 56 57  1  0
 56 58  1  0
 56 59  1  0
 59 60  1  0
 59 61  1  0
 59 62  1  0
 62 63  1  0
 62 64  1  0
 62 65  1  0
 65 66  1  0
 65 67  1  0
 65 68  1  0
 68 69  1  0
 54 70  1  0
 70 71  1  0
 71 72  2  0
 72 73  1  0
 73 74  1  0
 73 75  1  0
 73 76  1  0
 76 77  1  0
 76 78  1  0
 76 79  1  0
 79 80  1  0
 71 81  1  0
 50 82  1  0
 82 83  1  0
 82 84  2  0
 84 85  1  0
 42 86  2  0
 86 87  1  0
 28 88  1  0
 88 89  1  0
 88 90  2  0
 90 91  1  0
 10 92  2  0
 92 93  1  0
 92  3  1  0
 90 23  1  0
 86 35  1  0
 84 46  1  0
 81 52  1  0
M  CHG  6  14  -1  31  -1  47  -1  53  -1  70  -1  81  -1
M  END
>  <UniqueID>  (29) 
25

>  <SMILES>  (29) 
O=C(CCc1ccc(C(=O)[N-]Cc2cccc(C(=O)N=c3ccc(N=c4[n-]c(=NCCCCO)[n-]/c(=N/CCO)[n-]4)c[n-]3)c2)cc1)[N-]Cc1cccc(O)c1

>  <Energy>  (29) 
99.41320062868562

>  <Genealogy>  (29) 
O=C(CCc1ccc(C(=O)[N-]Cc2cccc(C(=O)N=c3ccc(N=c4[n-]c(=NCCO)[n-]c(=NCCCCO)[n-]4)c[n-]3)c2)cc1)[N-]Cc1cccc(O)c1 (protonated)
O=C(CCc1ccc(C(=O)[N-]Cc2cccc(C(=O)N=c3ccc(N=c4[n-]c(=NCCCCO)[n-]/c(=N/CCO)[n-]4)c[n-]3)c2)cc1)[N-]Cc1cccc(O)c1 (cis-trans isomerization)
O=C(CCc1ccc(C(=O)[N-]Cc2cccc(C(=O)N=c3ccc(N=c4[n-]c(=NCCCCO)[n-]/c(=N/CCO)[n-]4)c[n-]3)c2)cc1)[N-]Cc1cccc(O)c1 (3D coordinates assigned)
O=C(CCc1ccc(C(=O)[N-]Cc2cccc(C(=O)N=c3ccc(N=c4[n-]c(=NCCCCO)[n-]/c(=N/CCO)[n-]4)c[n-]3)c2)cc1)[N-]Cc1cccc(O)c1 (optimized conformer: 99.41320062868562 kcal/mol)

>  <smiles>  (29) 
O=C(CCc1ccc(C(=O)NCc2cccc(C(=O)N=c3ccc(N=c4[nH]c(=NCCO)[nH]c(=NCCCCO)[nH]4)c[nH]3)c2)cc1)NCc1cccc(O)c1

>  <score_type>  (29) 
oracle

>  <origin>  (29) 
adg

>  <m_score__min__energy>  (29) 
-16.300000000000001

>  <m_primary>  (29) 
energy

$$$$
29:0
     RDKit          3D

 35 38  0  0  0  0  0  0  0  0999 V2000
   64.5614   32.8562   46.7851 H   0  0  0  0  0  0  0  0  0  0  0  0
   63.8480   33.1900   47.5530 C   0  0  0  0  0  0  0  0  0  0  0  0
   64.1620   33.4800   48.8330 N   0  0  0  0  0  0  0  0  0  0  0  0
   62.9870   33.8400   49.3920 C   0  0  0  0  0  0  0  0  0  0  0  0
   62.8752   34.1364   50.4454 H   0  0  0  0  0  0  0  0  0  0  0  0
   61.9680   33.7950   48.5140 N   0  0  0  0  0  0  0  0  0  0  0  0
   60.5560   34.0410   48.7950 C   0  0  0  0  0  0  0  0  0  0  0  0
   60.3808   35.1248   48.8638 H   0  0  0  0  0  0  0  0  0  0  0  0
   60.2861   33.5608   49.7471 H   0  0  0  0  0  0  0  0  0  0  0  0
   59.7150   33.4710   47.6990 C   0  0  0  0  0  0  0  0  0  0  0  0
   59.4600   32.1810   47.5670 O   0  0  0  0  0  0  0  0  0  0  0  0
   58.7300   32.0370   46.4870 C   0  0  0  0  0  0  0  0  0  0  0  0
   58.2270   30.8560   45.9510 C   0  0  0  0  0  0  0  0  0  0  0  0
   58.4152   29.8872   46.4367 H   0  0  0  0  0  0  0  0  0  0  0  0
   57.4680   30.9400   44.7650 C   0  0  0  0  0  0  0  0  0  0  0  0
   56.8280   29.4820   44.0110 S   0  0  0  0  0  0  0  0  0  0  0  0
   55.9460   29.8290   42.8440 O   0  0  0  0  0  0  0  0  0  0  0  0
   57.9730   28.6450   43.5150 O   0  0  0  0  0  0  0  0  0  0  0  0
   55.9170   28.5760   45.1730 N   0  0  0  0  0  0  0  0  0  0  0  0
   56.3240   27.4500   45.6710 C   0  0  0  0  0  0  0  0  0  0  0  0
   55.5030   26.4280   45.9980 N   0  0  0  0  0  0  0  0  0  0  0  0
   56.2000   25.3760   46.5030 C   0  0  0  0  0  0  0  0  0  0  0  0
   55.7111   24.4462   46.8294 H   0  0  0  0  0  0  0  0  0  0  0  0
   57.5770   25.5610   46.5770 C   0  0  0  0  0  0  0  0  0  0  0  0
   58.3066   24.8297   46.9550 H   0  0  0  0  0  0  0  0  0  0  0  0
   57.9340   27.0980   45.9880 S   0  0  0  0  0  0  0  0  0  0  0  0
   57.2410   32.1970   44.1550 C   0  0  0  0  0  0  0  0  0  0  0  0
   56.6509   32.2550   43.2285 H   0  0  0  0  0  0  0  0  0  0  0  0
   57.7640   33.3730   44.7240 C   0  0  0  0  0  0  0  0  0  0  0  0
   57.5937   34.3549   44.2583 H   0  0  0  0  0  0  0  0  0  0  0  0
   58.5040   33.2510   45.8960 C   0  0  0  0  0  0  0  0  0  0  0  0
   59.1370   34.2010   46.6650 C   0  0  0  0  0  0  0  0  0  0  0  0
   59.1768   35.2878   46.5000 H   0  0  0  0  0  0  0  0  0  0  0  0
   62.4970   33.3760   47.3550 C   0  0  0  0  0  0  0  0  0  0  0  0
   61.9504   33.2105   46.4149 H   0  0  0  0  0  0  0  0  0  0  0  0
  1  2  1  0
  2  3  1  0
  3  4  2  0
  4  5  1  0
  4  6  1  0
  6  7  1  0
  7  8  1  0
  7  9  1  0
  7 10  1  0
 10 11  1  0
 11 12  1  0
 12 13  2  0
 13 14  1  0
 13 15  1  0
 15 16  1  0
 16 17  2  0
 16 18  2  0
 16 19  1  0
 19 20  2  0
 20 21  1  0
 21 22  1  0
 22 23  1  0
 22 24  2  0
 24 25  1  0
 24 26  1  0
 15 27  2  0
 27 28  1  0
 27 29  1  0
 29 30  1  0
 29 31  2  0
 31 32  1  0
 32 33  1  0
  6 34  1  0
 34 35  1  0
 34  2  2  0
 32 10  2  0
 31 12  1  0
 26 20  1  0
M  CHG  1  21  -1
M  END
>  <UniqueID>  (30) 
26

>  <SMILES>  (30) 
O=S(=O)(/N=c1\[n-]ccs1)c1ccc2cc(Cn3ccnc3)oc2c1

>  <Energy>  (30) 
132.36172291721343

>  <Genealogy>  (30) 
O=S(=O)(N=c1[n-]ccs1)c1ccc2cc(Cn3ccnc3)oc2c1 (protonated)
O=S(=O)(/N=c1\[n-]ccs1)c1ccc2cc(Cn3ccnc3)oc2c1 (cis-trans isomerization)
O=S(=O)(/N=c1\[n-]ccs1)c1ccc2cc(Cn3ccnc3)oc2c1 (3D coordinates assigned)
O=S(=O)(/N=c1\[n-]ccs1)c1ccc2cc(Cn3ccnc3)oc2c1 (optimized conformer: 132.36172291721343 kcal/mol)

>  <smiles>  (30) 
O=S(=O)(N=c1[nH]ccs1)c1ccc2cc(Cn3ccnc3)oc2c1

>  <score_type>  (30) 
oracle

>  <origin>  (30) 
adg

>  <m_score__min__energy>  (30) 
-10.1

>  <m_primary>  (30) 
energy

$$$$
30:0
     RDKit          3D

 59 62  0  0  0  0  0  0  0  0999 V2000
   59.3968   27.0354   47.8149 H   0  0  0  0  0  0  0  0  0  0  0  0
   58.5720   27.1100   47.0910 C   0  0  0  0  0  0  0  0  0  0  0  0
   58.3410   28.2290   46.3550 N   0  0  0  0  0  0  0  0  0  0  0  0
   57.2790   28.0710   45.5300 C   0  0  0  0  0  0  0  0  0  0  0  0
   56.8410   28.9830   44.7150 N   0  0  0  0  0  0  0  0  0  0  0  0
   57.0380   30.3990   44.8400 C   0  0  0  0  0  0  0  0  0  0  0  0
   56.1280   31.2090   44.5120 O   0  0  0  0  0  0  0  0  0  0  0  0
   58.2740   30.8810   45.3830 N   0  0  0  0  0  0  0  0  0  0  0  0
   58.9300   30.1790   45.7910 H   0  0  0  0  0  0  0  0  0  0  0  0
   58.5780   32.2770   45.5410 C   0  0  0  0  0  0  0  0  0  0  0  0
   57.8710   33.2420   44.8030 C   0  0  0  0  0  0  0  0  0  0  0  0
   57.0334   32.9328   44.1605 H   0  0  0  0  0  0  0  0  0  0  0  0
   58.2250   34.5910   44.8800 C   0  0  0  0  0  0  0  0  0  0  0  0
   57.6567   35.3417   44.3112 H   0  0  0  0  0  0  0  0  0  0  0  0
   59.2990   34.9870   45.6780 C   0  0  0  0  0  0  0  0  0  0  0  0
   59.5817   36.0487   45.7310 H   0  0  0  0  0  0  0  0  0  0  0  0
   60.0150   34.0380   46.4090 C   0  0  0  0  0  0  0  0  0  0  0  0
   60.8705   34.3541   47.0241 H   0  0  0  0  0  0  0  0  0  0  0  0
   59.6520   32.6860   46.3650 C   0  0  0  0  0  0  0  0  0  0  0  0
   60.3900   31.7730   47.1320 O   0  0  0  0  0  0  0  0  0  0  0  0
   59.8930   31.0680   48.2390 C   0  0  0  0  0  0  0  0  0  0  0  0
   60.2430   29.7270   48.4880 C   0  0  0  0  0  0  0  0  0  0  0  0
   60.9213   29.2007   47.8003 H   0  0  0  0  0  0  0  0  0  0  0  0
   59.7310   29.0620   49.6070 C   0  0  0  0  0  0  0  0  0  0  0  0
   60.0125   28.0166   49.8016 H   0  0  0  0  0  0  0  0  0  0  0  0
   58.8620   29.7250   50.4780 C   0  0  0  0  0  0  0  0  0  0  0  0
   58.4641   29.2028   51.3606 H   0  0  0  0  0  0  0  0  0  0  0  0
   58.4980   31.0520   50.2280 C   0  0  0  0  0  0  0  0  0  0  0  0
   57.8118   31.5721   50.9126 H   0  0  0  0  0  0  0  0  0  0  0  0
   59.0060   31.7180   49.1080 C   0  0  0  0  0  0  0  0  0  0  0  0
   58.7077   32.7577   48.9080 H   0  0  0  0  0  0  0  0  0  0  0  0
   56.5860   26.5470   45.6700 S   0  0  0  0  0  0  0  0  0  0  0  0
   57.6820   26.0660   46.8560 C   0  0  0  0  0  0  0  0  0  0  0  0
   57.7460   24.7050   47.4720 C   0  0  0  0  0  0  0  0  0  0  0  0
   57.6847   24.7977   48.5664 H   0  0  0  0  0  0  0  0  0  0  0  0
   58.6952   24.2262   47.1896 H   0  0  0  0  0  0  0  0  0  0  0  0
   56.6020   23.8600   46.9790 C   0  0  0  0  0  0  0  0  0  0  0  0
   55.4990   23.6210   47.8030 C   0  0  0  0  0  0  0  0  0  0  0  0
   55.4808   24.0329   48.8228 H   0  0  0  0  0  0  0  0  0  0  0  0
   54.4130   22.8590   47.3400 C   0  0  0  0  0  0  0  0  0  0  0  0
   53.2940   22.5960   48.1470 O   0  0  0  0  0  0  0  0  0  0  0  0
   53.3580   22.1800   49.5080 C   0  0  0  0  0  0  0  0  0  0  0  0
   53.2238   23.0522   50.1647 H   0  0  0  0  0  0  0  0  0  0  0  0
   52.5621   21.4467   49.7051 H   0  0  0  0  0  0  0  0  0  0  0  0
   54.3375   21.7199   49.7051 H   0  0  0  0  0  0  0  0  0  0  0  0
   54.4250   22.3370   46.0350 C   0  0  0  0  0  0  0  0  0  0  0  0
   53.3040   21.5760   45.6500 O   0  0  0  0  0  0  0  0  0  0  0  0
   51.9360   21.9100   45.8620 C   0  0  0  0  0  0  0  0  0  0  0  0
   51.7338   21.9594   46.9421 H   0  0  0  0  0  0  0  0  0  0  0  0
   51.7218   22.8868   45.4038 H   0  0  0  0  0  0  0  0  0  0  0  0
   51.2957   21.1418   45.4038 H   0  0  0  0  0  0  0  0  0  0  0  0
   55.5320   22.5940   45.1850 C   0  0  0  0  0  0  0  0  0  0  0  0
   55.5440   22.0910   43.8750 O   0  0  0  0  0  0  0  0  0  0  0  0
   56.6720   22.0980   43.0050 C   0  0  0  0  0  0  0  0  0  0  0  0
   57.5957   22.1037   43.6023 H   0  0  0  0  0  0  0  0  0  0  0  0
   56.6512   21.1997   42.3705 H   0  0  0  0  0  0  0  0  0  0  0  0
   56.6401   22.9960   42.3705 H   0  0  0  0  0  0  0  0  0  0  0  0
   56.6090   23.3610   45.6730 C   0  0  0  0  0  0  0  0  0  0  0  0
   57.4671   23.5699   45.0172 H   0  0  0  0  0  0  0  0  0  0  0  0
  1  2  1  0
  2  3  1  0
  3  4  1  0
  4  5  2  0
  5  6  1  0
  6  7  2  0
  6  8  1  0
  8  9  1  0
  8 10  1  0
 10 11  2  0
 11 12  1  0
 11 13  1  0
 13 14  1  0
 13 15  2  0
 15 16  1  0
 15 17  1  0
 17 18  1  0
 17 19  2  0
 19 20  1  0
 20 21  1  0
 21 22  2  0
 22 23  1  0
 22 24  1  0
 24 25  1  0
 24 26  2  0
 26 27  1  0
 26 28  1  0
 28 29  1  0
 28 30  2  0
 30 31  1  0
  4 32  1  0
 32 33  1  0
 33 34  1  0
 34 35  1  0
 34 36  1  0
 34 37  1  0
 37 38  2  0
 38 39  1  0
 38 40  1  0
 40 41  1  0
 41 42  1  0
 42 43  1  0
 42 44  1  0
 42 45  1  0
 40 46  2  0
 46 47  1  0
 47 48  1  0
 48 49  1  0
 48 50  1  0
 48 51  1  0
 46 52  1  0
 52 53  1  0
 53 54  1  0
 54 55  1  0
 54 56  1  0
 54 57  1  0
 52 58  2  0
 58 59  1  0
 33  2  2  0
 58 37  1  0
 19 10  1  0
 30 21  1  0
M  CHG  1   3  -1
M  END
>  <UniqueID>  (31) 
27

>  <SMILES>  (31) 
COc1cc(Cc2c[n-]/c(=N\C(=O)Nc3ccccc3Oc3ccccc3)s2)cc(OC)c1OC

>  <Energy>  (31) 
104.88172864645483

>  <Genealogy>  (31) 
COc1cc(Cc2c[n-]c(=NC(=O)Nc3ccccc3Oc3ccccc3)s2)cc(OC)c1OC (protonated)
COc1cc(Cc2c[n-]/c(=N\C(=O)Nc3ccccc3Oc3ccccc3)s2)cc(OC)c1OC (cis-trans isomerization)
COc1cc(Cc2c[n-]/c(=N\C(=O)Nc3ccccc3Oc3ccccc3)s2)cc(OC)c1OC (3D coordinates assigned)
COc1cc(Cc2c[n-]/c(=N\C(=O)Nc3ccccc3Oc3ccccc3)s2)cc(OC)c1OC (optimized conformer: 104.88172864645483 kcal/mol)

>  <smiles>  (31) 
COc1cc(Cc2c[nH]c(=NC(=O)Nc3ccccc3Oc3ccccc3)s2)cc(OC)c1OC

>  <score_type>  (31) 
oracle

>  <origin>  (31) 
adg

>  <m_score__min__energy>  (31) 
-9.75

>  <m_primary>  (31) 
energy

$$$$
31:0
     RDKit          3D

 41 43  0  0  0  0  0  0  0  0999 V2000
   56.5120   29.5950   43.2480 O   0  0  0  0  0  0  0  0  0  0  0  0
   56.5900   29.6040   44.5060 C   0  0  0  0  0  0  0  0  0  0  0  0
   55.9570   28.5500   45.2450 N   0  0  0  0  0  0  0  0  0  0  0  0
   56.5810   27.3240   45.6600 C   0  0  0  0  0  0  0  0  0  0  0  0
   57.9820   27.2050   45.7470 C   0  0  0  0  0  0  0  0  0  0  0  0
   58.5630   26.0000   46.1490 C   0  0  0  0  0  0  0  0  0  0  0  0
   57.7550   24.9130   46.4910 C   0  0  0  0  0  0  0  0  0  0  0  0
   56.3630   25.0330   46.4380 C   0  0  0  0  0  0  0  0  0  0  0  0
   55.7760   26.2350   46.0290 C   0  0  0  0  0  0  0  0  0  0  0  0
   54.3900   26.3410   45.9790 O   0  0  0  0  0  0  0  0  0  0  0  0
   57.3560   30.6750   45.1800 C   0  0  0  0  0  0  0  0  0  0  0  0
   57.2070   32.0150   44.7880 C   0  0  0  0  0  0  0  0  0  0  0  0
   57.9830   33.0130   45.3810 C   0  0  0  0  0  0  0  0  0  0  0  0
   58.9270   32.6910   46.3610 C   0  0  0  0  0  0  0  0  0  0  0  0
   59.7560   33.7410   46.8760 N   0  0  0  0  0  0  0  0  0  0  0  0
   60.9830   33.5920   48.0990 S   0  0  0  0  0  0  0  0  0  0  0  0
   61.1970   34.9500   48.7060 O   0  0  0  0  0  0  0  0  0  0  0  0
   60.5380   32.6660   49.1960 O   0  0  0  0  0  0  0  0  0  0  0  0
   62.5030   33.0490   47.4180 N   0  0  0  0  0  0  0  0  0  0  0  0
   62.8150   31.6870   47.8610 C   0  0  0  0  0  0  0  0  0  0  0  0
   63.7830   31.7780   49.0270 C   0  0  0  0  0  0  0  0  0  0  0  0
   64.4160   33.1490   48.9180 C   0  0  0  0  0  0  0  0  0  0  0  0
   63.6270   33.8910   47.8440 C   0  0  0  0  0  0  0  0  0  0  0  0
   59.0340   31.3600   46.7980 C   0  0  0  0  0  0  0  0  0  0  0  0
   58.2520   30.3610   46.2130 C   0  0  0  0  0  0  0  0  0  0  0  0
   58.6212   28.0647   45.4973 H   0  0  0  0  0  0  0  0  0  0  0  0
   59.6580   25.9069   46.1963 H   0  0  0  0  0  0  0  0  0  0  0  0
   58.2138   23.9628   46.8019 H   0  0  0  0  0  0  0  0  0  0  0  0
   55.7278   24.1799   46.7187 H   0  0  0  0  0  0  0  0  0  0  0  0
   56.4756   32.2798   44.0102 H   0  0  0  0  0  0  0  0  0  0  0  0
   57.8506   34.0612   45.0747 H   0  0  0  0  0  0  0  0  0  0  0  0
   61.8932   31.1791   48.1809 H   0  0  0  0  0  0  0  0  0  0  0  0
   63.2647   31.1130   47.0374 H   0  0  0  0  0  0  0  0  0  0  0  0
   63.2461   31.6768   49.9817 H   0  0  0  0  0  0  0  0  0  0  0  0
   64.5357   30.9764   48.9973 H   0  0  0  0  0  0  0  0  0  0  0  0
   64.3464   33.6798   49.8789 H   0  0  0  0  0  0  0  0  0  0  0  0
   65.4832   33.0812   48.6600 H   0  0  0  0  0  0  0  0  0  0  0  0
   63.2454   34.8381   48.2533 H   0  0  0  0  0  0  0  0  0  0  0  0
   64.2782   34.1089   46.9846 H   0  0  0  0  0  0  0  0  0  0  0  0
   59.7367   31.1033   47.6044 H   0  0  0  0  0  0  0  0  0  0  0  0
   58.3393   29.3223   46.5643 H   0  0  0  0  0  0  0  0  0  0  0  0
  1  2  2  0
  2  3  1  0
  3  4  1  0
  4  5  2  0
  5  6  1  0
  6  7  2  0
  7  8  1  0
  8  9  2  0
  9 10  1  0
  2 11  1  0
 11 12  2  0
 12 13  1  0
 13 14  2  0
 14 15  1  0
 15 16  1  0
 16 17  2  0
 16 18  2  0
 16 19  1  0
 19 20  1  0
 20 21  1  0
 21 22  1  0
 22 23  1  0
 14 24  1  0
 24 25  2  0
  9  4  1  0
 25 11  1  0
 23 19  1  0
  5 26  1  0
  6 27  1  0
  7 28  1  0
  8 29  1  0
 12 30  1  0
 13 31  1  0
 20 32  1  0
 20 33  1  0
 21 34  1  0
 21 35  1  0
 22 36  1  0
 22 37  1  0
 23 38  1  0
 23 39  1  0
 24 40  1  0
 25 41  1  0
M  CHG  3   3  -1  10  -1  15  -1
M  END
>  <UniqueID>  (32) 
28

>  <SMILES>  (32) 
O=C([N-]c1ccccc1[O-])c1ccc([N-]S(=O)(=O)N2CCCC2)cc1

>  <Energy>  (32) 
52.8527217354565

>  <Genealogy>  (32) 
O=C([N-]c1ccccc1[O-])c1ccc([N-]S(=O)(=O)N2CCCC2)cc1 (protonated)
O=C([N-]c1ccccc1[O-])c1ccc([N-]S(=O)(=O)N2CCCC2)cc1 (3D coordinates assigned)
O=C([N-]c1ccccc1[O-])c1ccc([N-]S(=O)(=O)N2CCCC2)cc1 (nonaromatic ring conformer: 52.8527217354565 kcal/mol)

>  <smiles>  (32) 
O=C(Nc1ccccc1O)c1ccc(NS(=O)(=O)N2CCCC2)cc1

>  <score_type>  (32) 
oracle

>  <origin>  (32) 
adg

>  <m_score__min__energy>  (32) 
-15.470000000000001

>  <m_primary>  (32) 
energy

$$$$
32:0
     RDKit          3D

 42 44  0  0  0  0  0  0  0  0999 V2000
   57.7930   32.9310   48.1210 O   0  0  0  0  0  0  0  0  0  0  0  0
   58.2090   33.4040   47.0310 C   0  0  0  0  0  0  0  0  0  0  0  0
   59.1090   34.5220   47.0700 N   0  0  0  0  0  0  0  0  0  0  0  0
   60.3580   34.6560   46.3220 C   0  0  0  0  0  0  0  0  0  0  0  0
   61.4490   33.8190   46.9420 C   0  0  0  0  0  0  0  0  0  0  0  0
   61.1710   32.9810   48.0350 C   0  0  0  0  0  0  0  0  0  0  0  0
   62.1890   32.2130   48.6110 C   0  0  0  0  0  0  0  0  0  0  0  0
   63.4850   32.2660   48.0930 C   0  0  0  0  0  0  0  0  0  0  0  0
   63.7650   33.0800   46.9910 C   0  0  0  0  0  0  0  0  0  0  0  0
   62.7520   33.8510   46.4140 C   0  0  0  0  0  0  0  0  0  0  0  0
   57.7740   32.7750   45.7710 C   0  0  0  0  0  0  0  0  0  0  0  0
   56.6770   33.0960   45.2440 O   0  0  0  0  0  0  0  0  0  0  0  0
   58.5820   31.7460   45.1850 N   0  0  0  0  0  0  0  0  0  0  0  0
   58.7610   30.4190   45.7000 C   0  0  0  0  0  0  0  0  0  0  0  0
   59.4300   30.1790   46.9140 C   0  0  0  0  0  0  0  0  0  0  0  0
   59.5460   28.8760   47.4060 C   0  0  0  0  0  0  0  0  0  0  0  0
   58.9910   27.8060   46.6990 C   0  0  0  0  0  0  0  0  0  0  0  0
   58.3130   28.0330   45.4910 C   0  0  0  0  0  0  0  0  0  0  0  0
   57.6710   26.8890   44.7550 C   0  0  0  0  0  0  0  0  0  0  0  0
   57.1490   25.8760   45.7280 C   0  0  0  0  0  0  0  0  0  0  0  0
   57.8240   24.7730   46.2030 C   0  0  0  0  0  0  0  0  0  0  0  0
   56.9140   24.1040   47.0010 C   0  0  0  0  0  0  0  0  0  0  0  0
   57.1800   22.9250   47.6900 O   0  0  0  0  0  0  0  0  0  0  0  0
   55.7160   24.7210   47.0370 N   0  0  0  0  0  0  0  0  0  0  0  0
   55.8720   25.8020   46.2490 C   0  0  0  0  0  0  0  0  0  0  0  0
   54.8540   26.7150   45.9980 O   0  0  0  0  0  0  0  0  0  0  0  0
   58.1880   29.3460   45.0070 C   0  0  0  0  0  0  0  0  0  0  0  0
   60.1946   34.3246   45.2859 H   0  0  0  0  0  0  0  0  0  0  0  0
   60.6691   35.7109   46.3434 H   0  0  0  0  0  0  0  0  0  0  0  0
   60.1494   32.9285   48.4394 H   0  0  0  0  0  0  0  0  0  0  0  0
   61.9682   31.5665   49.4731 H   0  0  0  0  0  0  0  0  0  0  0  0
   64.2856   31.6673   48.5520 H   0  0  0  0  0  0  0  0  0  0  0  0
   64.7838   33.1136   46.5777 H   0  0  0  0  0  0  0  0  0  0  0  0
   62.9749   34.4854   45.5434 H   0  0  0  0  0  0  0  0  0  0  0  0
   59.8628   31.0188   47.4774 H   0  0  0  0  0  0  0  0  0  0  0  0
   60.0757   28.6922   48.3524 H   0  0  0  0  0  0  0  0  0  0  0  0
   59.0857   26.7824   47.0904 H   0  0  0  0  0  0  0  0  0  0  0  0
   56.8384   27.2704   44.1457 H   0  0  0  0  0  0  0  0  0  0  0  0
   58.4218   26.4118   44.1080 H   0  0  0  0  0  0  0  0  0  0  0  0
   58.8647   24.4857   45.9925 H   0  0  0  0  0  0  0  0  0  0  0  0
   56.4270   22.3110   47.9790 H   0  0  0  0  0  0  0  0  0  0  0  0
   57.6347   29.5327   44.0748 H   0  0  0  0  0  0  0  0  0  0  0  0
  1  2  2  0
  2  3  1  0
  3  4  1  0
  4  5  1  0
  5  6  2  0
  6  7  1  0
  7  8  2  0
  8  9  1  0
  9 10  2  0
  2 11  1  0
 11 12  2  0
 11 13  1  0
 13 14  1  0
 14 15  2  0
 15 16  1  0
 16 17  2  0
 17 18  1  0
 18 19  1  0
 19 20  1  0
 20 21  1  0
 21 22  2  0
 22 23  1  0
 22 24  1  0
 24 25  1  0
 25 26  1  0
 18 27  2  0
 10  5  1  0
 27 14  1  0
 25 20  2  0
  4 28  1  0
  4 29  1  0
  6 30  1  0
  7 31  1  0
  8 32  1  0
  9 33  1  0
 10 34  1  0
 15 35  1  0
 16 36  1  0
 17 37  1  0
 19 38  1  0
 19 39  1  0
 21 40  1  0
 23 41  1  0
 27 42  1  0
M  CHG  4   3  -1  13  -1  24  -1  26  -1
M  END
>  <UniqueID>  (33) 
29

>  <SMILES>  (33) 
O=C([N-]Cc1ccccc1)C(=O)[N-]c1cccc(Cc2cc(O)[n-]c2[O-])c1

>  <Energy>  (33) 
70.75891312371353

>  <Genealogy>  (33) 
O=C([N-]Cc1ccccc1)C(=O)[N-]c1cccc(Cc2cc(O)[n-]c2[O-])c1 (protonated)
O=C([N-]Cc1ccccc1)C(=O)[N-]c1cccc(Cc2cc(O)[n-]c2[O-])c1 (3D coordinates assigned)
O=C([N-]Cc1ccccc1)C(=O)[N-]c1cccc(Cc2cc(O)[n-]c2[O-])c1 (optimized conformer: 70.75891312371353 kcal/mol)

>  <smiles>  (33) 
O=C(NCc1ccccc1)C(=O)Nc1cccc(Cc2cc(O)[nH]c2O)c1

>  <score_type>  (33) 
oracle

>  <origin>  (33) 
adg

>  <m_score__min__energy>  (33) 
-17.289999999999999

>  <m_primary>  (33) 
energy

$$$$
33:0
     RDKit          3D

 49 51  0  0  0  0  0  0  0  0999 V2000
   55.1460   29.3080   44.8630 N   0  0  0  0  0  0  0  0  0  0  0  0
   56.3540   29.9520   44.4660 C   0  0  0  0  0  0  0  0  0  0  0  0
   56.4680   30.3810   43.2860 O   0  0  0  0  0  0  0  0  0  0  0  0
   57.4970   30.0530   45.3980 C   0  0  0  0  0  0  0  0  0  0  0  0
   58.3250   31.1860   45.3180 C   0  0  0  0  0  0  0  0  0  0  0  0
   59.4600   31.2920   46.1200 C   0  0  0  0  0  0  0  0  0  0  0  0
   59.7700   30.2860   47.0330 C   0  0  0  0  0  0  0  0  0  0  0  0
   58.9300   29.1800   47.1760 C   0  0  0  0  0  0  0  0  0  0  0  0
   59.2540   28.1900   48.1610 N   0  0  0  0  0  0  0  0  0  0  0  0
   59.8340   26.9220   47.8470 C   0  0  0  0  0  0  0  0  0  0  0  0
   61.0370   26.7000   48.1460 O   0  0  0  0  0  0  0  0  0  0  0  0
   59.0380   25.8970   47.2400 N   0  0  0  0  0  0  0  0  0  0  0  0
   58.7330   25.8470   45.8160 C   0  0  0  0  0  0  0  0  0  0  0  0
   58.6240   24.4140   45.3630 C   0  0  0  0  0  0  0  0  0  0  0  0
   59.6910   23.5340   45.5910 C   0  0  0  0  0  0  0  0  0  0  0  0
   59.6050   22.2030   45.1880 C   0  0  0  0  0  0  0  0  0  0  0  0
   58.4720   21.7430   44.5210 C   0  0  0  0  0  0  0  0  0  0  0  0
   57.3990   22.6080   44.2480 C   0  0  0  0  0  0  0  0  0  0  0  0
   56.2770   22.0980   43.4270 C   0  0  0  0  0  0  0  0  0  0  0  0
   55.9320   20.7150   43.4420 N   0  0  0  0  0  0  0  0  0  0  0  0
   55.5870   22.8970   42.7380 O   0  0  0  0  0  0  0  0  0  0  0  0
   57.4580   23.9490   44.7130 C   0  0  0  0  0  0  0  0  0  0  0  0
   56.3510   24.8530   44.5560 N   0  0  0  0  0  0  0  0  0  0  0  0
   55.3200   25.0990   45.5240 C   0  0  0  0  0  0  0  0  0  0  0  0
   55.1250   26.2840   45.9060 O   0  0  0  0  0  0  0  0  0  0  0  0
   54.4890   24.0110   46.0870 C   0  0  0  0  0  0  0  0  0  0  0  0
   54.9620   23.2630   47.1790 C   0  0  0  0  0  0  0  0  0  0  0  0
   54.1810   22.2410   47.7270 C   0  0  0  0  0  0  0  0  0  0  0  0
   52.9280   21.9490   47.1810 C   0  0  0  0  0  0  0  0  0  0  0  0
   52.4580   22.6720   46.0830 C   0  0  0  0  0  0  0  0  0  0  0  0
   53.2350   23.6960   45.5330 C   0  0  0  0  0  0  0  0  0  0  0  0
   57.7990   29.0410   46.3450 C   0  0  0  0  0  0  0  0  0  0  0  0
   57.0030   27.9010   46.4860 O   0  0  0  0  0  0  0  0  0  0  0  0
   55.1430   28.5950   45.6250 H   0  0  0  0  0  0  0  0  0  0  0  0
   58.0752   31.9957   44.6166 H   0  0  0  0  0  0  0  0  0  0  0  0
   60.1132   32.1727   46.0319 H   0  0  0  0  0  0  0  0  0  0  0  0
   60.6812   30.3636   47.6442 H   0  0  0  0  0  0  0  0  0  0  0  0
   57.7789   26.3617   45.6294 H   0  0  0  0  0  0  0  0  0  0  0  0
   59.5397   26.3426   45.2560 H   0  0  0  0  0  0  0  0  0  0  0  0
   60.6014   23.8963   46.0909 H   0  0  0  0  0  0  0  0  0  0  0  0
   60.4353   21.5126   45.3975 H   0  0  0  0  0  0  0  0  0  0  0  0
   58.4167   20.6910   44.2045 H   0  0  0  0  0  0  0  0  0  0  0  0
   56.6670   19.9770   43.3790 H   0  0  0  0  0  0  0  0  0  0  0  0
   55.9521   23.4829   47.6048 H   0  0  0  0  0  0  0  0  0  0  0  0
   54.5528   21.6665   48.5882 H   0  0  0  0  0  0  0  0  0  0  0  0
   52.3116   21.1489   47.6167 H   0  0  0  0  0  0  0  0  0  0  0  0
   51.4748   22.4356   45.6499 H   0  0  0  0  0  0  0  0  0  0  0  0
   52.8640   24.2578   44.6631 H   0  0  0  0  0  0  0  0  0  0  0  0
   56.1740   27.7270   45.9360 H   0  0  0  0  0  0  0  0  0  0  0  0
  1  2  1  0
  2  3  2  0
  2  4  1  0
  4  5  2  0
  5  6  1  0
  6  7  2  0
  7  8  1  0
  8  9  1  0
  9 10  1  0
 10 11  2  0
 10 12  1  0
 12 13  1  0
 13 14  1  0
 14 15  2  0
 15 16  1  0
 16 17  2  0
 17 18  1  0
 18 19  1  0
 19 20  1  0
 19 21  2  0
 18 22  2  0
 22 23  1  0
 23 24  1  0
 24 25  2  0
 24 26  1  0
 26 27  2  0
 27 28  1  0
 28 29  2  0
 29 30  1  0
 30 31  2  0
  8 32  2  0
 32 33  1  0
 32  4  1  0
 22 14  1  0
 31 26  1  0
  1 34  1  0
  5 35  1  0
  6 36  1  0
  7 37  1  0
 13 38  1  0
 13 39  1  0
 15 40  1  0
 16 41  1  0
 17 42  1  0
 20 43  1  0
 27 44  1  0
 28 45  1  0
 29 46  1  0
 30 47  1  0
 31 48  1  0
 33 49  1  0
M  CHG  5   1  -1   9  -1  12  -1  20  -1  23  -1
M  END
>  <UniqueID>  (34) 
30

>  <SMILES>  (34) 
[NH-]C(=O)c1cccc([N-]C(=O)[N-]Cc2cccc(C([NH-])=O)c2[N-]C(=O)c2ccccc2)c1O

>  <Energy>  (34) 
71.77161172056529

>  <Genealogy>  (34) 
[NH-]C(=O)c1cccc([N-]C(=O)[N-]Cc2cccc(C([NH-])=O)c2[N-]C(=O)c2ccccc2)c1O (protonated)
[NH-]C(=O)c1cccc([N-]C(=O)[N-]Cc2cccc(C([NH-])=O)c2[N-]C(=O)c2ccccc2)c1O (3D coordinates assigned)
[NH-]C(=O)c1cccc([N-]C(=O)[N-]Cc2cccc(C([NH-])=O)c2[N-]C(=O)c2ccccc2)c1O (optimized conformer: 71.77161172056529 kcal/mol)

>  <smiles>  (34) 
NC(=O)c1cccc(NC(=O)NCc2cccc(C(N)=O)c2NC(=O)c2ccccc2)c1O

>  <score_type>  (34) 
oracle

>  <origin>  (34) 
adg

>  <m_score__min__energy>  (34) 
-16.640000000000001

>  <m_primary>  (34) 
energy

$$$$
34:0
     RDKit          3D

 49 52  0  0  0  0  0  0  0  0999 V2000
   65.7250   32.1590   50.4090 C   0  0  0  0  0  0  0  0  0  0  0  0
   65.3540   33.2600   49.5860 O   0  0  0  0  0  0  0  0  0  0  0  0
   64.0590   33.4780   49.0940 C   0  0  0  0  0  0  0  0  0  0  0  0
   63.0290   34.0180   49.8880 C   0  0  0  0  0  0  0  0  0  0  0  0
   61.7530   34.2140   49.3500 C   0  0  0  0  0  0  0  0  0  0  0  0
   61.4800   33.8590   48.0250 C   0  0  0  0  0  0  0  0  0  0  0  0
   60.1700   34.1040   47.4960 N   0  0  0  0  0  0  0  0  0  0  0  0
   59.5220   33.3390   46.4730 C   0  0  0  0  0  0  0  0  0  0  0  0
   59.7620   33.6160   45.2680 O   0  0  0  0  0  0  0  0  0  0  0  0
   58.5900   32.2960   46.8120 N   0  0  0  0  0  0  0  0  0  0  0  0
   57.9390   31.4530   45.8470 C   0  0  0  0  0  0  0  0  0  0  0  0
   57.3480   31.9860   44.6880 C   0  0  0  0  0  0  0  0  0  0  0  0
   56.6990   31.1480   43.7800 C   0  0  0  0  0  0  0  0  0  0  0  0
   56.6200   29.7750   44.0230 C   0  0  0  0  0  0  0  0  0  0  0  0
   57.1830   29.2260   45.1870 C   0  0  0  0  0  0  0  0  0  0  0  0
   57.0910   27.7730   45.4520 C   0  0  0  0  0  0  0  0  0  0  0  0
   58.1840   26.9670   45.5490 N   0  0  0  0  0  0  0  0  0  0  0  0
   57.6380   25.7650   45.7890 C   0  0  0  0  0  0  0  0  0  0  0  0
   56.2950   25.8590   45.8300 C   0  0  0  0  0  0  0  0  0  0  0  0
   55.9050   27.1250   45.6200 N   0  0  0  0  0  0  0  0  0  0  0  0
   55.5180   24.7400   46.0690 C   0  0  0  0  0  0  0  0  0  0  0  0
   54.2590   24.8340   46.0860 O   0  0  0  0  0  0  0  0  0  0  0  0
   56.1540   23.5370   46.2850 N   0  0  0  0  0  0  0  0  0  0  0  0
   55.3620   22.3190   46.5200 C   0  0  0  0  0  0  0  0  0  0  0  0
   57.5350   23.4600   46.2140 C   0  0  0  0  0  0  0  0  0  0  0  0
   58.1110   22.3480   46.3860 O   0  0  0  0  0  0  0  0  0  0  0  0
   58.2910   24.5840   45.9560 N   0  0  0  0  0  0  0  0  0  0  0  0
   59.7590   24.5200   45.9230 C   0  0  0  0  0  0  0  0  0  0  0  0
   57.8340   30.0770   46.0980 C   0  0  0  0  0  0  0  0  0  0  0  0
   62.5140   33.3470   47.2230 C   0  0  0  0  0  0  0  0  0  0  0  0
   63.7890   33.1510   47.7600 C   0  0  0  0  0  0  0  0  0  0  0  0
   65.6291   32.4436   51.4672 H   0  0  0  0  0  0  0  0  0  0  0  0
   65.0651   31.3046   50.1978 H   0  0  0  0  0  0  0  0  0  0  0  0
   66.7674   31.8782   50.1978 H   0  0  0  0  0  0  0  0  0  0  0  0
   63.2288   34.2868   50.9358 H   0  0  0  0  0  0  0  0  0  0  0  0
   60.9586   34.6504   49.9733 H   0  0  0  0  0  0  0  0  0  0  0  0
   58.4260   32.0810   47.8210 H   0  0  0  0  0  0  0  0  0  0  0  0
   57.3973   33.0680   44.4960 H   0  0  0  0  0  0  0  0  0  0  0  0
   56.2482   31.5704   42.8699 H   0  0  0  0  0  0  0  0  0  0  0  0
   56.1140   29.1197   43.2987 H   0  0  0  0  0  0  0  0  0  0  0  0
   55.2550   22.1544   47.6023 H   0  0  0  0  0  0  0  0  0  0  0  0
   54.3666   22.4357   46.0667 H   0  0  0  0  0  0  0  0  0  0  0  0
   55.8725   21.4565   46.0667 H   0  0  0  0  0  0  0  0  0  0  0  0
   60.1485   24.5030   46.9516 H   0  0  0  0  0  0  0  0  0  0  0  0
   60.0745   23.6072   45.3964 H   0  0  0  0  0  0  0  0  0  0  0  0
   60.1527   25.4018   45.3964 H   0  0  0  0  0  0  0  0  0  0  0  0
   58.2662   29.6583   47.0188 H   0  0  0  0  0  0  0  0  0  0  0  0
   62.3191   33.0997   46.1690 H   0  0  0  0  0  0  0  0  0  0  0  0
   64.5882   32.7358   47.1284 H   0  0  0  0  0  0  0  0  0  0  0  0
  1  2  1  0
  2  3  1  0
  3  4  2  0
  4  5  1  0
  5  6  2  0
  6  7  1  0
  7  8  1  0
  8  9  2  0
  8 10  1  0
 10 11  1  0
 11 12  2  0
 12 13  1  0
 13 14  2  0
 14 15  1  0
 15 16  1  0
 16 17  2  0
 17 18  1  0
 18 19  2  0
 19 20  1  0
 19 21  1  0
 21 22  2  0
 21 23  1  0
 23 24  1  0
 23 25  1  0
 25 26  2  0
 25 27  1  0
 27 28  1  0
 15 29  2  0
  6 30  1  0
 30 31  2  0
 31  3  1  0
 29 11  1  0
 20 16  1  0
 27 18  1  0
  1 32  1  0
  1 33  1  0
  1 34  1  0
  4 35  1  0
  5 36  1  0
 10 37  1  0
 12 38  1  0
 13 39  1  0
 14 40  1  0
 24 41  1  0
 24 42  1  0
 24 43  1  0
 28 44  1  0
 28 45  1  0
 28 46  1  0
 29 47  1  0
 30 48  1  0
 31 49  1  0
M  CHG  2   7  -1  20  -1
M  END
>  <UniqueID>  (35) 
31

>  <SMILES>  (35) 
COc1ccc([N-]C(=O)Nc2cccc(-c3nc4c([n-]3)c(=O)n(C)c(=O)n4C)c2)cc1

>  <Energy>  (35) 
104.00001460840295

>  <Genealogy>  (35) 
COc1ccc([N-]C(=O)Nc2cccc(-c3nc4c([n-]3)c(=O)n(C)c(=O)n4C)c2)cc1 (protonated)
COc1ccc([N-]C(=O)Nc2cccc(-c3nc4c([n-]3)c(=O)n(C)c(=O)n4C)c2)cc1 (3D coordinates assigned)
COc1ccc([N-]C(=O)Nc2cccc(-c3nc4c([n-]3)c(=O)n(C)c(=O)n4C)c2)cc1 (optimized conformer: 104.00001460840295 kcal/mol)

>  <smiles>  (35) 
COc1ccc(NC(=O)Nc2cccc(-c3nc4c([nH]3)c(=O)n(C)c(=O)n4C)c2)cc1

>  <score_type>  (35) 
oracle

>  <origin>  (35) 
adg

>  <m_score__min__energy>  (35) 
-11.06

>  <m_primary>  (35) 
energy

$$$$
35:0
     RDKit          3D

 54 56  0  0  0  0  0  0  0  0999 V2000
   57.7780   33.1280   52.5040 C   0  0  0  0  0  0  0  0  0  0  0  0
   57.1990   32.0330   51.6100 C   0  0  0  0  0  0  0  0  0  0  0  0
   58.1650   31.6410   50.5790 N   0  0  0  0  0  0  0  0  0  0  0  0
   58.5750   30.2930   50.3830 C   0  0  0  0  0  0  0  0  0  0  0  0
   58.1620   29.3890   51.1600 O   0  0  0  0  0  0  0  0  0  0  0  0
   59.4960   29.9790   49.3270 N   0  0  0  0  0  0  0  0  0  0  0  0
   59.3730   28.8740   48.4240 C   0  0  0  0  0  0  0  0  0  0  0  0
   60.3500   27.8660   48.4320 C   0  0  0  0  0  0  0  0  0  0  0  0
   60.2420   26.7760   47.5610 C   0  0  0  0  0  0  0  0  0  0  0  0
   59.1730   26.6960   46.6640 C   0  0  0  0  0  0  0  0  0  0  0  0
   58.2220   27.7240   46.6120 C   0  0  0  0  0  0  0  0  0  0  0  0
   56.9220   27.7030   45.4120 S   0  0  0  0  0  0  0  0  0  0  0  0
   57.4540   27.2350   44.0850 O   0  0  0  0  0  0  0  0  0  0  0  0
   55.8310   26.7560   45.8420 O   0  0  0  0  0  0  0  0  0  0  0  0
   56.2980   29.3220   45.2270 N   0  0  0  0  0  0  0  0  0  0  0  0
   56.8820   30.2620   44.3260 C   0  0  0  0  0  0  0  0  0  0  0  0
   56.5710   30.2000   42.9600 C   0  0  0  0  0  0  0  0  0  0  0  0
   57.0360   31.1830   42.0880 C   0  0  0  0  0  0  0  0  0  0  0  0
   57.7940   32.2500   42.5740 C   0  0  0  0  0  0  0  0  0  0  0  0
   58.1200   32.3150   43.9290 C   0  0  0  0  0  0  0  0  0  0  0  0
   57.7060   31.3060   44.8100 C   0  0  0  0  0  0  0  0  0  0  0  0
   58.1020   31.4050   46.1880 N   0  0  0  0  0  0  0  0  0  0  0  0
   58.4220   32.8970   47.0220 S   0  0  0  0  0  0  0  0  0  0  0  0
   58.1380   34.0520   46.1000 O   0  0  0  0  0  0  0  0  0  0  0  0
   57.5070   33.0130   48.2130 O   0  0  0  0  0  0  0  0  0  0  0  0
   60.0970   32.9490   47.5580 C   0  0  0  0  0  0  0  0  0  0  0  0
   60.5270   33.9620   48.4270 C   0  0  0  0  0  0  0  0  0  0  0  0
   61.8600   34.0090   48.8510 C   0  0  0  0  0  0  0  0  0  0  0  0
   62.7780   33.0460   48.4050 C   0  0  0  0  0  0  0  0  0  0  0  0
   64.2060   33.1020   48.8640 C   0  0  0  0  0  0  0  0  0  0  0  0
   62.3390   32.0130   47.5590 C   0  0  0  0  0  0  0  0  0  0  0  0
   61.0060   31.9710   47.1300 C   0  0  0  0  0  0  0  0  0  0  0  0
   58.3190   28.8030   47.5000 C   0  0  0  0  0  0  0  0  0  0  0  0
   57.6333   32.8543   53.5595 H   0  0  0  0  0  0  0  0  0  0  0  0
   58.8528   33.2393   52.2981 H   0  0  0  0  0  0  0  0  0  0  0  0
   57.2649   34.0789   52.2981 H   0  0  0  0  0  0  0  0  0  0  0  0
   56.9531   31.1559   52.2266 H   0  0  0  0  0  0  0  0  0  0  0  0
   56.2942   32.4196   51.1182 H   0  0  0  0  0  0  0  0  0  0  0  0
   58.5870   32.3790   49.9780 H   0  0  0  0  0  0  0  0  0  0  0  0
   61.2022   27.9331   49.1243 H   0  0  0  0  0  0  0  0  0  0  0  0
   61.0007   25.9798   47.5823 H   0  0  0  0  0  0  0  0  0  0  0  0
   59.0781   25.8254   45.9984 H   0  0  0  0  0  0  0  0  0  0  0  0
   55.9575   29.3721   42.5750 H   0  0  0  0  0  0  0  0  0  0  0  0
   56.8052   31.1179   41.0145 H   0  0  0  0  0  0  0  0  0  0  0  0
   58.1344   33.0398   41.8882 H   0  0  0  0  0  0  0  0  0  0  0  0
   58.7064   33.1645   44.3091 H   0  0  0  0  0  0  0  0  0  0  0  0
   59.8138   34.7228   48.7769 H   0  0  0  0  0  0  0  0  0  0  0  0
   62.1893   34.8038   49.5364 H   0  0  0  0  0  0  0  0  0  0  0  0
   64.2379   33.1033   49.9635 H   0  0  0  0  0  0  0  0  0  0  0  0
   64.7485   32.2244   48.4824 H   0  0  0  0  0  0  0  0  0  0  0  0
   64.6781   34.0193   48.4824 H   0  0  0  0  0  0  0  0  0  0  0  0
   63.0446   31.2348   47.2326 H   0  0  0  0  0  0  0  0  0  0  0  0
   60.6717   31.1688   46.4557 H   0  0  0  0  0  0  0  0  0  0  0  0
   57.5627   29.6013   47.4729 H   0  0  0  0  0  0  0  0  0  0  0  0
  1  2  1  0
  2  3  1  0
  3  4  1  0
  4  5  2  0
  4  6  1  0
  6  7  1  0
  7  8  2  0
  8  9  1  0
  9 10  2  0
 10 11  1  0
 11 12  1  0
 12 13  2  0
 12 14  2  0
 12 15  1  0
 15 16  1  0
 16 17  2  0
 17 18  1  0
 18 19  2  0
 19 20  1  0
 20 21  2  0
 21 22  1  0
 22 23  1  0
 23 24  2  0
 23 25  2  0
 23 26  1  0
 26 27  2  0
 27 28  1  0
 28 29  2  0
 29 30  1  0
 29 31  1  0
 31 32  2  0
 11 33  2  0
 33  7  1  0
 21 16  1  0
 32 26  1  0
  1 34  1  0
  1 35  1  0
  1 36  1  0
  2 37  1  0
  2 38  1  0
  3 39  1  0
  8 40  1  0
  9 41  1  0
 10 42  1  0
 17 43  1  0
 18 44  1  0
 19 45  1  0
 20 46  1  0
 27 47  1  0
 28 48  1  0
 30 49  1  0
 30 50  1  0
 30 51  1  0
 31 52  1  0
 32 53  1  0
 33 54  1  0
M  CHG  3   6  -1  15  -1  22  -1
M  END
>  <UniqueID>  (36) 
32

>  <SMILES>  (36) 
CCNC(=O)[N-]c1cccc(S(=O)(=O)[N-]c2ccccc2[N-]S(=O)(=O)c2ccc(C)cc2)c1

>  <Energy>  (36) 
63.406957577894815

>  <Genealogy>  (36) 
CCNC(=O)[N-]c1cccc(S(=O)(=O)[N-]c2ccccc2[N-]S(=O)(=O)c2ccc(C)cc2)c1 (protonated)
CCNC(=O)[N-]c1cccc(S(=O)(=O)[N-]c2ccccc2[N-]S(=O)(=O)c2ccc(C)cc2)c1 (3D coordinates assigned)
CCNC(=O)[N-]c1cccc(S(=O)(=O)[N-]c2ccccc2[N-]S(=O)(=O)c2ccc(C)cc2)c1 (optimized conformer: 63.406957577894815 kcal/mol)

>  <smiles>  (36) 
CCNC(=O)Nc1cccc(S(=O)(=O)Nc2ccccc2NS(=O)(=O)c2ccc(C)cc2)c1

>  <score_type>  (36) 
oracle

>  <origin>  (36) 
adg

>  <m_score__min__energy>  (36) 
-13.6

>  <m_primary>  (36) 
energy

$$$$
36:0
     RDKit          3D

 61 64  0  0  1  0  0  0  0  0999 V2000
   58.6090   31.9870   43.6350 O   0  0  0  0  0  0  0  0  0  0  0  0
   57.4540   31.9520   44.1260 C   0  0  0  0  0  0  0  0  0  0  0  0
   57.0250   33.2200   44.8130 C   0  0  0  0  0  0  0  0  0  0  0  0
   58.0250   33.7340   45.7680 C   0  0  0  0  0  0  0  0  0  0  0  0
   59.2500   34.1400   45.2000 C   0  0  0  0  0  0  0  0  0  0  0  0
   60.2900   34.6340   45.9500 C   0  0  0  0  0  0  0  0  0  0  0  0
   60.1080   34.7290   47.3060 C   0  0  0  0  0  0  0  0  0  0  0  0
   58.9150   34.3370   47.8700 C   0  0  0  0  0  0  0  0  0  0  0  0
   57.8570   33.8350   47.1170 C   0  0  0  0  0  0  0  0  0  0  0  0
   56.5670   30.8500   44.0790 N   0  0  0  0  0  0  0  0  0  0  0  0
   56.8300   29.6410   44.3720 C   0  0  0  0  0  0  0  0  0  0  0  0
   57.5310   28.7860   43.5540 C   0  0  0  0  0  0  0  0  0  0  0  0
   57.7880   27.4710   43.9470 C   0  0  0  0  0  0  0  0  0  0  0  0
   57.3330   27.0350   45.1680 C   0  0  0  0  0  0  0  0  0  0  0  0
   57.5480   25.6670   45.7100 C   0  0  0  0  0  0  0  0  0  0  0  0
   58.9530   25.2170   45.7440 C   0  0  0  0  0  0  0  0  0  0  0  0
   59.7970   26.0010   46.7120 C   0  0  0  0  0  0  0  0  0  0  0  0
   60.6610   26.9810   46.0010 C   0  0  0  0  0  0  0  0  0  0  0  0
   60.1830   28.3290   46.2930 C   0  0  0  0  0  0  0  0  0  0  0  0
   59.9280   29.4290   45.6940 N   0  0  0  0  0  0  0  0  0  0  0  0
   59.4480   30.4770   46.2260 N   0  0  0  0  0  0  0  0  0  0  0  0
   59.1680   30.4850   47.5250 C   0  0  0  0  0  0  0  0  0  0  0  0
   58.7010   31.3570   48.3250 N   0  0  0  0  0  0  0  0  0  0  0  0
   59.2650   31.6840   49.5900 C   0  0  0  0  0  0  0  0  0  0  0  0
   58.5990   32.3090   50.4850 O   0  0  0  0  0  0  0  0  0  0  0  0
   60.6670   31.2540   49.8160 C   0  0  0  0  0  0  0  0  0  0  0  0
   61.6750   32.1160   49.1510 C   0  0  0  0  0  0  0  0  0  0  0  0
   62.1950   31.6120   47.9510 C   0  0  0  0  0  0  0  0  0  0  0  0
   63.1200   32.3020   47.2030 C   0  0  0  0  0  0  0  0  0  0  0  0
   63.5200   33.5270   47.6870 C   0  0  0  0  0  0  0  0  0  0  0  0
   63.0170   34.0260   48.8630 C   0  0  0  0  0  0  0  0  0  0  0  0
   62.0800   33.3430   49.6340 C   0  0  0  0  0  0  0  0  0  0  0  0
   59.6500   28.7730   48.0600 S   0  0  0  0  0  0  0  0  0  0  0  0
   56.6540   27.8980   45.9440 N   0  0  0  0  0  0  0  0  0  0  0  0
   56.4070   29.1680   45.5550 N   0  0  0  0  0  0  0  0  0  0  0  0
   56.8466   33.9889   44.0469 H   0  0  0  0  0  0  0  0  0  0  0  0
   56.1159   32.9877   45.3871 H   0  0  0  0  0  0  0  0  0  0  0  0
   59.3785   34.0578   44.1106 H   0  0  0  0  0  0  0  0  0  0  0  0
   61.2352   34.9424   45.4794 H   0  0  0  0  0  0  0  0  0  0  0  0
   60.9156   35.1186   47.9432 H   0  0  0  0  0  0  0  0  0  0  0  0
   58.7927   34.4239   48.9597 H   0  0  0  0  0  0  0  0  0  0  0  0
   56.9149   33.5294   47.5957 H   0  0  0  0  0  0  0  0  0  0  0  0
   57.8935   29.1424   42.5785 H   0  0  0  0  0  0  0  0  0  0  0  0
   58.3480   26.7922   43.2870 H   0  0  0  0  0  0  0  0  0  0  0  0
   57.1584   25.6436   46.7384 H   0  0  0  0  0  0  0  0  0  0  0  0
   57.0253   24.9825   45.0257 H   0  0  0  0  0  0  0  0  0  0  0  0
   58.9749   24.1573   46.0381 H   0  0  0  0  0  0  0  0  0  0  0  0
   59.3732   25.3725   44.7394 H   0  0  0  0  0  0  0  0  0  0  0  0
   59.1375   26.5418   47.4067 H   0  0  0  0  0  0  0  0  0  0  0  0
   60.4436   25.2987   47.2585 H   0  0  0  0  0  0  0  0  0  0  0  0
   61.7005   26.8749   46.3447 H   0  0  0  0  0  0  0  0  0  0  0  0
   60.6209   26.7970   44.9172 H   0  0  0  0  0  0  0  0  0  0  0  0
   59.2560   31.3750   45.6460 H   0  0  0  0  0  0  0  0  0  0  0  0
   60.8623   31.2647   50.8985 H   0  0  0  0  0  0  0  0  0  0  0  0
   60.7673   30.2497   49.3785 H   0  0  0  0  0  0  0  0  0  0  0  0
   61.8510   30.6297   47.5949 H   0  0  0  0  0  0  0  0  0  0  0  0
   63.5209   31.8946   46.2632 H   0  0  0  0  0  0  0  0  0  0  0  0
   64.2561   34.1169   47.1212 H   0  0  0  0  0  0  0  0  0  0  0  0
   63.3695   35.0081   49.2113 H   0  0  0  0  0  0  0  0  0  0  0  0
   61.6857   33.7577   50.5735 H   0  0  0  0  0  0  0  0  0  0  0  0
   55.8550   29.7140   46.2520 H   0  0  0  0  0  0  0  0  0  0  0  0
  1  2  2  0
  2  3  1  0
  3  4  1  0
  4  5  2  0
  5  6  1  0
  6  7  2  0
  7  8  1  0
  8  9  2  0
  2 10  1  0
 10 11  2  0
 11 12  1  0
 12 13  2  0
 13 14  1  0
 14 15  1  0
 15 16  1  0
 16 17  1  0
 17 18  1  0
 18 19  1  0
 19 20  2  0
 20 21  1  0
 21 22  1  0
 22 23  2  0
 23 24  1  0
 24 25  2  0
 24 26  1  0
 26 27  1  0
 27 28  2  0
 28 29  1  0
 29 30  2  0
 30 31  1  0
 31 32  2  0
 22 33  1  0
 14 34  2  0
 34 35  1  0
  9  4  1  0
 35 11  1  0
 33 19  1  0
 32 27  1  0
  3 36  1  0
  3 37  1  0
  5 38  1  0
  6 39  1  0
  7 40  1  0
  8 41  1  0
  9 42  1  0
 12 43  1  0
 13 44  1  0
 15 45  1  0
 15 46  1  0
 16 47  1  0
 16 48  1  0
 17 49  1  0
 17 50  1  0
 18 51  1  0
 18 52  1  0
 21 53  1  0
 26 54  1  0
 26 55  1  0
 28 56  1  0
 29 57  1  0
 30 58  1  0
 31 59  1  0
 32 60  1  0
 35 61  1  0
M  END
>  <smiles>  (37) 
O=C(Cc1ccccc1)N=c1ccc(CCCCc2n[nH]c(=NC(=O)Cc3ccccc3)s2)n[nH]1

>  <score_type>  (37) 
oracle

>  <origin>  (37) 
adg

>  <m_score__min__energy>  (37) 
-10.630000000000001

>  <m_primary>  (37) 
energy

$$$$
37:0
     RDKit          3D

 32 34  0  0  0  0  0  0  0  0999 V2000
   55.6510   30.0380   44.8510 N   0  0  0  0  0  0  0  0  0  0  0  0
   56.2940   29.1110   45.1100 C   0  0  0  0  0  0  0  0  0  0  0  0
   57.0970   27.9540   45.4320 C   0  0  0  0  0  0  0  0  0  0  0  0
   58.5030   27.9850   45.3180 C   0  0  0  0  0  0  0  0  0  0  0  0
   59.2300   29.2160   44.8330 C   0  0  0  0  0  0  0  0  0  0  0  0
   59.1210   30.2910   45.8220 N   0  0  0  0  0  0  0  0  0  0  0  0
   59.3480   30.1000   47.2570 C   0  0  0  0  0  0  0  0  0  0  0  0
   58.9310   31.4240   47.9400 C   0  0  0  0  0  0  0  0  0  0  0  0
   58.4330   32.2520   46.8090 C   0  0  0  0  0  0  0  0  0  0  0  0
   57.9080   33.5440   46.8620 C   0  0  0  0  0  0  0  0  0  0  0  0
   57.4970   34.1490   45.6650 C   0  0  0  0  0  0  0  0  0  0  0  0
   57.6170   33.4590   44.4450 C   0  0  0  0  0  0  0  0  0  0  0  0
   58.1490   32.1600   44.4150 C   0  0  0  0  0  0  0  0  0  0  0  0
   58.5510   31.5770   45.6240 C   0  0  0  0  0  0  0  0  0  0  0  0
   59.2350   26.8260   45.6160 C   0  0  0  0  0  0  0  0  0  0  0  0
   58.5690   25.6720   46.0380 C   0  0  0  0  0  0  0  0  0  0  0  0
   59.2270   24.6330   46.3090 O   0  0  0  0  0  0  0  0  0  0  0  0
   57.2140   25.6710   46.1540 N   0  0  0  0  0  0  0  0  0  0  0  0
   56.4700   26.7720   45.8600 C   0  0  0  0  0  0  0  0  0  0  0  0
   55.0860   26.7170   45.9880 O   0  0  0  0  0  0  0  0  0  0  0  0
   60.2913   28.9729   44.6762 H   0  0  0  0  0  0  0  0  0  0  0  0
   58.7775   29.5508   43.8879 H   0  0  0  0  0  0  0  0  0  0  0  0
   58.7348   29.2676   47.6326 H   0  0  0  0  0  0  0  0  0  0  0  0
   60.3994   29.8543   47.4673 H   0  0  0  0  0  0  0  0  0  0  0  0
   58.1369   31.2516   48.6814 H   0  0  0  0  0  0  0  0  0  0  0  0
   59.7543   31.9009   48.4920 H   0  0  0  0  0  0  0  0  0  0  0  0
   57.8185   34.0759   47.8207 H   0  0  0  0  0  0  0  0  0  0  0  0
   57.0794   35.1665   45.6804 H   0  0  0  0  0  0  0  0  0  0  0  0
   57.2925   33.9394   43.5102 H   0  0  0  0  0  0  0  0  0  0  0  0
   58.2478   31.6134   43.4656 H   0  0  0  0  0  0  0  0  0  0  0  0
   60.3306   26.8254   45.5178 H   0  0  0  0  0  0  0  0  0  0  0  0
   56.7270   24.8000   46.4700 H   0  0  0  0  0  0  0  0  0  0  0  0
  1  2  3  0
  2  3  1  0
  3  4  1  0
  4  5  1  0
  5  6  1  0
  6  7  1  0
  7  8  1  0
  8  9  1  0
  9 10  2  0
 10 11  1  0
 11 12  2  0
 12 13  1  0
 13 14  2  0
  4 15  2  0
 15 16  1  0
 16 17  2  0
 16 18  1  0
 18 19  1  0
 19 20  1  0
 19  3  2  0
 14  6  1  0
 14  9  1  0
  5 21  1  0
  5 22  1  0
  7 23  1  0
  7 24  1  0
  8 25  1  0
  8 26  1  0
 10 27  1  0
 11 28  1  0
 12 29  1  0
 13 30  1  0
 15 31  1  0
 18 32  1  0
M  CHG  1  20  -1
M  END
>  <UniqueID>  (38) 
33

>  <SMILES>  (38) 
N#Cc1c(CN2CCc3ccccc32)cc(=O)[nH]c1[O-]

>  <Energy>  (38) 
48.78227895237127

>  <Genealogy>  (38) 
N#Cc1c(CN2CCc3ccccc32)cc(=O)[nH]c1[O-] (protonated)
N#Cc1c(CN2CCc3ccccc32)cc(=O)[nH]c1[O-] (3D coordinates assigned)
N#Cc1c(CN2CCc3ccccc32)cc(=O)[nH]c1[O-] (nonaromatic ring conformer: 48.78227895237127 kcal/mol)

>  <smiles>  (38) 
N#Cc1c(CN2CCc3ccccc32)cc(=O)[nH]c1O

>  <score_type>  (38) 
oracle

>  <origin>  (38) 
adg

>  <m_score__min__energy>  (38) 
-10.92

>  <m_primary>  (38) 
energy

$$$$
38:0
     RDKit          3D

 57 60  0  0  0  0  0  0  0  0999 V2000
   59.5630   29.1790   50.7520 O   0  0  0  0  0  0  0  0  0  0  0  0
   59.4440   29.2830   49.5030 C   0  0  0  0  0  0  0  0  0  0  0  0
   58.8320   30.5280   48.9170 C   0  0  0  0  0  0  0  0  0  0  0  0
   59.8570   31.3210   48.1530 C   0  0  0  0  0  0  0  0  0  0  0  0
   61.2320   31.2160   48.2920 C   0  0  0  0  0  0  0  0  0  0  0  0
   61.9190   30.3520   49.1410 O   0  0  0  0  0  0  0  0  0  0  0  0
   61.8290   32.1050   47.4770 N   0  0  0  0  0  0  0  0  0  0  0  0
   63.2650   32.3620   47.3550 C   0  0  0  0  0  0  0  0  0  0  0  0
   63.6770   33.4480   48.2700 N   0  0  0  0  0  0  0  0  0  0  0  0
   62.5360   34.0080   49.0380 C   0  0  0  0  0  0  0  0  0  0  0  0
   62.5440   33.6170   50.5310 C   0  0  0  0  0  0  0  0  0  0  0  0
   63.0160   32.2410   50.7120 N   0  0  0  0  0  0  0  0  0  0  0  0
   64.3990   32.0610   50.2360 C   0  0  0  0  0  0  0  0  0  0  0  0
   64.8110   33.0680   49.1400 C   0  0  0  0  0  0  0  0  0  0  0  0
   60.8140   32.7440   46.8590 C   0  0  0  0  0  0  0  0  0  0  0  0
   60.9830   33.6660   46.0140 O   0  0  0  0  0  0  0  0  0  0  0  0
   59.5980   32.2990   47.2490 N   0  0  0  0  0  0  0  0  0  0  0  0
   58.2930   32.7950   46.7950 C   0  0  0  0  0  0  0  0  0  0  0  0
   57.9760   32.2880   45.4070 C   0  0  0  0  0  0  0  0  0  0  0  0
   58.0840   33.1360   44.2850 C   0  0  0  0  0  0  0  0  0  0  0  0
   58.4580   34.4340   44.4250 F   0  0  0  0  0  0  0  0  0  0  0  0
   57.8040   32.6500   43.0040 C   0  0  0  0  0  0  0  0  0  0  0  0
   57.4020   31.3250   42.8280 C   0  0  0  0  0  0  0  0  0  0  0  0
   57.2700   30.4820   43.9340 C   0  0  0  0  0  0  0  0  0  0  0  0
   57.5490   30.9580   45.2180 C   0  0  0  0  0  0  0  0  0  0  0  0
   57.3980   30.1210   46.2760 F   0  0  0  0  0  0  0  0  0  0  0  0
   59.9390   28.2230   48.6740 N   0  0  0  0  0  0  0  0  0  0  0  0
   59.5440   27.9440   47.3240 C   0  0  0  0  0  0  0  0  0  0  0  0
   58.3920   27.1800   47.0980 C   0  0  0  0  0  0  0  0  0  0  0  0
   57.9650   26.9120   45.7930 C   0  0  0  0  0  0  0  0  0  0  0  0
   58.6780   27.4240   44.7050 C   0  0  0  0  0  0  0  0  0  0  0  0
   58.1400   27.0920   43.0690 Cl  0  0  0  0  0  0  0  0  0  0  0  0
   59.8130   28.2130   44.9220 C   0  0  0  0  0  0  0  0  0  0  0  0
   60.2400   28.4800   46.2270 C   0  0  0  0  0  0  0  0  0  0  0  0
   58.0167   30.2425   48.2361 H   0  0  0  0  0  0  0  0  0  0  0  0
   58.4464   31.1503   49.7380 H   0  0  0  0  0  0  0  0  0  0  0  0
   61.4640   29.5490   49.5580 H   0  0  0  0  0  0  0  0  0  0  0  0
   63.8193   31.4461   47.6077 H   0  0  0  0  0  0  0  0  0  0  0  0
   63.4851   32.6657   46.3209 H   0  0  0  0  0  0  0  0  0  0  0  0
   62.5733   35.1050   48.9657 H   0  0  0  0  0  0  0  0  0  0  0  0
   61.6171   33.5906   48.6004 H   0  0  0  0  0  0  0  0  0  0  0  0
   63.2100   34.3005   51.0781 H   0  0  0  0  0  0  0  0  0  0  0  0
   61.5164   33.6883   50.9171 H   0  0  0  0  0  0  0  0  0  0  0  0
   62.3790   31.5990   50.1850 H   0  0  0  0  0  0  0  0  0  0  0  0
   65.0797   32.1804   51.0918 H   0  0  0  0  0  0  0  0  0  0  0  0
   64.4591   31.0569   49.7909 H   0  0  0  0  0  0  0  0  0  0  0  0
   65.2052   33.9743   49.6229 H   0  0  0  0  0  0  0  0  0  0  0  0
   65.5715   32.5850   48.5088 H   0  0  0  0  0  0  0  0  0  0  0  0
   57.5145   32.4495   47.4911 H   0  0  0  0  0  0  0  0  0  0  0  0
   58.3248   33.8942   46.7687 H   0  0  0  0  0  0  0  0  0  0  0  0
   57.9009   33.3140   42.1324 H   0  0  0  0  0  0  0  0  0  0  0  0
   57.1891   30.9445   41.8181 H   0  0  0  0  0  0  0  0  0  0  0  0
   56.9455   29.4403   43.7939 H   0  0  0  0  0  0  0  0  0  0  0  0
   57.8196   26.7884   47.9518 H   0  0  0  0  0  0  0  0  0  0  0  0
   57.0681   26.2983   45.6230 H   0  0  0  0  0  0  0  0  0  0  0  0
   60.3695   28.6233   44.0664 H   0  0  0  0  0  0  0  0  0  0  0  0
   61.1243   29.1122   46.3953 H   0  0  0  0  0  0  0  0  0  0  0  0
  1  2  2  0
  2  3  1  0
  3  4  1  0
  4  5  2  0
  5  6  1  0
  5  7  1  0
  7  8  1  0
  8  9  1  0
  9 10  1  0
 10 11  1  0
 11 12  1  0
 12 13  1  0
 13 14  1  0
  7 15  1  0
 15 16  2  0
 15 17  1  0
 17 18  1  0
 18 19  1  0
 19 20  2  0
 20 21  1  0
 20 22  1  0
 22 23  2  0
 23 24  1  0
 24 25  2  0
 25 26  1  0
  2 27  1  0
 27 28  1  0
 28 29  2  0
 29 30  1  0
 30 31  2  0
 31 32  1  0
 31 33  1  0
 33 34  2  0
 17  4  1  0
 25 19  1  0
 34 28  1  0
 14  9  1  0
  3 35  1  0
  3 36  1  0
  6 37  1  0
  8 38  1  0
  8 39  1  0
 10 40  1  0
 10 41  1  0
 11 42  1  0
 11 43  1  0
 12 44  1  0
 13 45  1  0
 13 46  1  0
 14 47  1  0
 14 48  1  0
 18 49  1  0
 18 50  1  0
 22 51  1  0
 23 52  1  0
 24 53  1  0
 29 54  1  0
 30 55  1  0
 33 56  1  0
 34 57  1  0
M  CHG  1  27  -1
M  END
>  <UniqueID>  (39) 
34

>  <SMILES>  (39) 
O=C(Cc1c(O)n(CN2CCNCC2)c(=O)n1Cc1c(F)cccc1F)[N-]c1ccc(Cl)cc1

>  <Energy>  (39) 
106.7398713765493

>  <Genealogy>  (39) 
O=C(Cc1c(O)n(CN2CCNCC2)c(=O)n1Cc1c(F)cccc1F)[N-]c1ccc(Cl)cc1 (protonated)
O=C(Cc1c(O)n(CN2CCNCC2)c(=O)n1Cc1c(F)cccc1F)[N-]c1ccc(Cl)cc1 (3D coordinates assigned)
O=C(Cc1c(O)n(CN2CCNCC2)c(=O)n1Cc1c(F)cccc1F)[N-]c1ccc(Cl)cc1 (nonaromatic ring conformer: 106.7398713765493 kcal/mol)

>  <smiles>  (39) 
O=C(Cc1c(O)n(CN2CCNCC2)c(=O)n1Cc1c(F)cccc1F)Nc1ccc(Cl)cc1

>  <score_type>  (39) 
oracle

>  <origin>  (39) 
adg

>  <m_score__min__energy>  (39) 
-10.98

>  <m_primary>  (39) 
energy

$$$$
39:0
     RDKit          3D

 49 51  0  0  0  0  0  0  0  0999 V2000
   61.5980   33.9010   46.7130 C   0  0  0  0  0  0  0  0  0  0  0  0
   62.4150   33.0530   47.5960 N   0  0  0  0  0  0  0  0  0  0  0  0
   63.7960   32.9980   47.0800 C   0  0  0  0  0  0  0  0  0  0  0  0
   62.3800   33.5820   48.9780 C   0  0  0  0  0  0  0  0  0  0  0  0
   61.0070   34.1980   49.3020 C   0  0  0  0  0  0  0  0  0  0  0  0
   60.2190   33.3530   50.3050 C   0  0  0  0  0  0  0  0  0  0  0  0
   59.0630   32.7540   49.6510 N   0  0  0  0  0  0  0  0  0  0  0  0
   59.1560   31.7490   48.6370 C   0  0  0  0  0  0  0  0  0  0  0  0
   59.5890   30.6010   48.9310 O   0  0  0  0  0  0  0  0  0  0  0  0
   58.7490   32.0700   47.2480 C   0  0  0  0  0  0  0  0  0  0  0  0
   58.6430   31.0370   46.2970 C   0  0  0  0  0  0  0  0  0  0  0  0
   58.2320   31.3050   44.9830 C   0  0  0  0  0  0  0  0  0  0  0  0
   58.0680   30.1750   44.0010 C   0  0  0  0  0  0  0  0  0  0  0  0
   57.5800   28.9460   44.7080 C   0  0  0  0  0  0  0  0  0  0  0  0
   56.2660   28.6420   45.0400 C   0  0  0  0  0  0  0  0  0  0  0  0
   55.1640   29.4070   44.6730 O   0  0  0  0  0  0  0  0  0  0  0  0
   56.1710   27.5120   45.7830 N   0  0  0  0  0  0  0  0  0  0  0  0
   57.4470   27.1080   45.9300 C   0  0  0  0  0  0  0  0  0  0  0  0
   57.8870   25.9950   46.6450 C   0  0  0  0  0  0  0  0  0  0  0  0
   59.2710   25.7550   46.7080 C   0  0  0  0  0  0  0  0  0  0  0  0
   60.1790   26.6220   46.0610 C   0  0  0  0  0  0  0  0  0  0  0  0
   61.5110   26.3800   46.1340 F   0  0  0  0  0  0  0  0  0  0  0  0
   59.7090   27.7370   45.3430 C   0  0  0  0  0  0  0  0  0  0  0  0
   58.3310   27.9510   45.3000 C   0  0  0  0  0  0  0  0  0  0  0  0
   57.9150   32.6210   44.6170 C   0  0  0  0  0  0  0  0  0  0  0  0
   58.0290   33.6560   45.5460 C   0  0  0  0  0  0  0  0  0  0  0  0
   58.4430   33.3900   46.8550 C   0  0  0  0  0  0  0  0  0  0  0  0
   58.5190   34.4190   47.7350 F   0  0  0  0  0  0  0  0  0  0  0  0
   60.9628   34.5603   47.3228 H   0  0  0  0  0  0  0  0  0  0  0  0
   62.2571   34.5114   46.0782 H   0  0  0  0  0  0  0  0  0  0  0  0
   60.9635   33.2651   46.0782 H   0  0  0  0  0  0  0  0  0  0  0  0
   64.5017   32.9699   47.9233 H   0  0  0  0  0  0  0  0  0  0  0  0
   63.9223   32.0941   46.4660 H   0  0  0  0  0  0  0  0  0  0  0  0
   63.9938   33.8890   46.4660 H   0  0  0  0  0  0  0  0  0  0  0  0
   62.5803   32.7609   49.6820 H   0  0  0  0  0  0  0  0  0  0  0  0
   63.1452   34.3667   49.0708 H   0  0  0  0  0  0  0  0  0  0  0  0
   61.1597   35.2014   49.7262 H   0  0  0  0  0  0  0  0  0  0  0  0
   60.4273   34.2433   48.3682 H   0  0  0  0  0  0  0  0  0  0  0  0
   60.8675   32.5570   50.6998 H   0  0  0  0  0  0  0  0  0  0  0  0
   59.8754   33.9963   51.1284 H   0  0  0  0  0  0  0  0  0  0  0  0
   58.8861   30.0047   46.5889 H   0  0  0  0  0  0  0  0  0  0  0  0
   57.3387   30.4654   43.2304 H   0  0  0  0  0  0  0  0  0  0  0  0
   59.0402   29.9598   43.5335 H   0  0  0  0  0  0  0  0  0  0  0  0
   54.2650   28.9700   44.5090 H   0  0  0  0  0  0  0  0  0  0  0  0
   57.1726   25.3245   47.1450 H   0  0  0  0  0  0  0  0  0  0  0  0
   59.6494   24.8854   47.2654 H   0  0  0  0  0  0  0  0  0  0  0  0
   60.4055   28.4180   44.8321 H   0  0  0  0  0  0  0  0  0  0  0  0
   57.5752   32.8383   43.5936 H   0  0  0  0  0  0  0  0  0  0  0  0
   57.7917   34.6876   45.2468 H   0  0  0  0  0  0  0  0  0  0  0  0
  1  2  1  0
  2  3  1  0
  2  4  1  0
  4  5  1  0
  5  6  1  0
  6  7  1  0
  7  8  1  0
  8  9  2  0
  8 10  1  0
 10 11  2  0
 11 12  1  0
 12 13  1  0
 13 14  1  0
 14 15  2  0
 15 16  1  0
 15 17  1  0
 17 18  1  0
 18 19  2  0
 19 20  1  0
 20 21  2  0
 21 22  1  0
 21 23  1  0
 23 24  2  0
 12 25  2  0
 25 26  1  0
 26 27  2  0
 27 28  1  0
 27 10  1  0
 24 14  1  0
 24 18  1  0
  1 29  1  0
  1 30  1  0
  1 31  1  0
  3 32  1  0
  3 33  1  0
  3 34  1  0
  4 35  1  0
  4 36  1  0
  5 37  1  0
  5 38  1  0
  6 39  1  0
  6 40  1  0
 11 41  1  0
 13 42  1  0
 13 43  1  0
 16 44  1  0
 19 45  1  0
 20 46  1  0
 23 47  1  0
 25 48  1  0
 26 49  1  0
M  CHG  2   7  -1  17  -1
M  END
>  <UniqueID>  (40) 
35

>  <SMILES>  (40) 
CN(C)CCC[N-]C(=O)c1cc(Cc2c(O)[n-]c3ccc(F)cc23)ccc1F

>  <Energy>  (40) 
76.04039131914769

>  <Genealogy>  (40) 
CN(C)CCC[N-]C(=O)c1cc(Cc2c(O)[n-]c3ccc(F)cc23)ccc1F (protonated)
CN(C)CCC[N-]C(=O)c1cc(Cc2c(O)[n-]c3ccc(F)cc23)ccc1F (3D coordinates assigned)
CN(C)CCC[N-]C(=O)c1cc(Cc2c(O)[n-]c3ccc(F)cc23)ccc1F (optimized conformer: 76.04039131914769 kcal/mol)

>  <smiles>  (40) 
CN(C)CCCNC(=O)c1cc(Cc2c(O)[nH]c3ccc(F)cc23)ccc1F

>  <score_type>  (40) 
oracle

>  <origin>  (40) 
adg

>  <m_score__min__energy>  (40) 
-11.539999999999999

>  <m_primary>  (40) 
energy

$$$$
40:0
     RDKit          3D

 71 74  0  0  0  0  0  0  0  0999 V2000
   61.8490   33.8400   51.8780 C   0  0  0  0  0  0  0  0  0  0  0  0
   61.1690   33.7120   50.5890 N   0  0  0  0  0  0  0  0  0  0  0  0
   59.7020   33.7840   50.5340 C   0  0  0  0  0  0  0  0  0  0  0  0
   59.0810   32.4730   50.9410 C   0  0  0  0  0  0  0  0  0  0  0  0
   57.8010   32.4430   51.5160 C   0  0  0  0  0  0  0  0  0  0  0  0
   57.2540   31.2340   51.9510 C   0  0  0  0  0  0  0  0  0  0  0  0
   57.9760   30.0460   51.8130 C   0  0  0  0  0  0  0  0  0  0  0  0
   59.2450   30.0560   51.2170 C   0  0  0  0  0  0  0  0  0  0  0  0
   60.0160   28.7710   51.0770 C   0  0  0  0  0  0  0  0  0  0  0  0
   60.7290   28.7530   49.8390 O   0  0  0  0  0  0  0  0  0  0  0  0
   60.1850   29.0550   48.5780 C   0  0  0  0  0  0  0  0  0  0  0  0
   59.1360   28.2580   48.1020 C   0  0  0  0  0  0  0  0  0  0  0  0
   58.5550   28.5160   46.8560 C   0  0  0  0  0  0  0  0  0  0  0  0
   58.9960   29.5920   46.0780 C   0  0  0  0  0  0  0  0  0  0  0  0
   58.4010   29.7990   44.7890 N   0  0  0  0  0  0  0  0  0  0  0  0
   57.2770   30.6330   44.4740 C   0  0  0  0  0  0  0  0  0  0  0  0
   56.1200   30.2190   44.7540 O   0  0  0  0  0  0  0  0  0  0  0  0
   57.4400   32.0060   43.8770 C   0  0  0  0  0  0  0  0  0  0  0  0
   57.9570   32.9760   44.9050 C   0  0  0  0  0  0  0  0  0  0  0  0
   57.6410   32.8120   46.2650 C   0  0  0  0  0  0  0  0  0  0  0  0
   58.1470   33.7010   47.2200 C   0  0  0  0  0  0  0  0  0  0  0  0
   58.9770   34.7540   46.8240 C   0  0  0  0  0  0  0  0  0  0  0  0
   59.3030   34.9180   45.4750 C   0  0  0  0  0  0  0  0  0  0  0  0
   58.8030   34.0290   44.5190 C   0  0  0  0  0  0  0  0  0  0  0  0
   60.0580   30.3850   46.5440 C   0  0  0  0  0  0  0  0  0  0  0  0
   60.6430   30.1250   47.7860 C   0  0  0  0  0  0  0  0  0  0  0  0
   59.7920   31.2730   50.7800 C   0  0  0  0  0  0  0  0  0  0  0  0
   61.9170   33.2670   49.4420 C   0  0  0  0  0  0  0  0  0  0  0  0
   61.5860   33.7740   48.1740 C   0  0  0  0  0  0  0  0  0  0  0  0
   62.3470   33.4330   47.0540 C   0  0  0  0  0  0  0  0  0  0  0  0
   63.4410   32.5780   47.1860 C   0  0  0  0  0  0  0  0  0  0  0  0
   63.7690   32.0510   48.4370 C   0  0  0  0  0  0  0  0  0  0  0  0
   63.0170   32.3860   49.5750 C   0  0  0  0  0  0  0  0  0  0  0  0
   63.3860   31.7810   50.8730 C   0  0  0  0  0  0  0  0  0  0  0  0
   64.3640   32.2660   51.5110 O   0  0  0  0  0  0  0  0  0  0  0  0
   62.7550   30.5600   51.3280 N   0  0  0  0  0  0  0  0  0  0  0  0
   62.2190   30.7140   52.6930 C   0  0  0  0  0  0  0  0  0  0  0  0
   63.7260   29.4580   51.2770 C   0  0  0  0  0  0  0  0  0  0  0  0
   61.1214   33.7030   52.6916 H   0  0  0  0  0  0  0  0  0  0  0  0
   62.6346   33.0740   51.9558 H   0  0  0  0  0  0  0  0  0  0  0  0
   62.3023   34.8392   51.9558 H   0  0  0  0  0  0  0  0  0  0  0  0
   59.3548   34.5737   51.2166 H   0  0  0  0  0  0  0  0  0  0  0  0
   59.4008   34.0082   49.5001 H   0  0  0  0  0  0  0  0  0  0  0  0
   57.2268   33.3749   51.6244 H   0  0  0  0  0  0  0  0  0  0  0  0
   56.2516   31.2170   52.4037 H   0  0  0  0  0  0  0  0  0  0  0  0
   57.5473   29.0992   52.1733 H   0  0  0  0  0  0  0  0  0  0  0  0
   60.7307   28.6842   51.9087 H   0  0  0  0  0  0  0  0  0  0  0  0
   59.3111   27.9268   51.0963 H   0  0  0  0  0  0  0  0  0  0  0  0
   58.7659   27.4219   48.7135 H   0  0  0  0  0  0  0  0  0  0  0  0
   57.7463   27.8689   46.4855 H   0  0  0  0  0  0  0  0  0  0  0  0
   58.1519   31.9535   43.0401 H   0  0  0  0  0  0  0  0  0  0  0  0
   56.4591   32.3560   43.5228 H   0  0  0  0  0  0  0  0  0  0  0  0
   56.9929   31.9809   46.5800 H   0  0  0  0  0  0  0  0  0  0  0  0
   57.8917   33.5713   48.2821 H   0  0  0  0  0  0  0  0  0  0  0  0
   59.3736   35.4536   47.5745 H   0  0  0  0  0  0  0  0  0  0  0  0
   59.9544   35.7483   45.1648 H   0  0  0  0  0  0  0  0  0  0  0  0
   59.0731   34.1545   43.4601 H   0  0  0  0  0  0  0  0  0  0  0  0
   60.4313   31.2158   45.9272 H   0  0  0  0  0  0  0  0  0  0  0  0
   61.4658   30.7597   48.1468 H   0  0  0  0  0  0  0  0  0  0  0  0
   60.7854   31.2865   50.3078 H   0  0  0  0  0  0  0  0  0  0  0  0
   60.7210   34.4444   48.0628 H   0  0  0  0  0  0  0  0  0  0  0  0
   62.0833   33.8392   46.0663 H   0  0  0  0  0  0  0  0  0  0  0  0
   64.0457   32.3187   46.3044 H   0  0  0  0  0  0  0  0  0  0  0  0
   64.6249   31.3666   48.5321 H   0  0  0  0  0  0  0  0  0  0  0  0
   61.9600   30.3160   50.6930 H   0  0  0  0  0  0  0  0  0  0  0  0
   63.0084   30.4872   53.4247 H   0  0  0  0  0  0  0  0  0  0  0  0
   61.8724   31.7481   52.8363 H   0  0  0  0  0  0  0  0  0  0  0  0
   61.3763   30.0216   52.8363 H   0  0  0  0  0  0  0  0  0  0  0  0
   63.9921   29.1561   52.3007 H   0  0  0  0  0  0  0  0  0  0  0  0
   63.2825   28.6028   50.7460 H   0  0  0  0  0  0  0  0  0  0  0  0
   64.6302   29.7903   50.7460 H   0  0  0  0  0  0  0  0  0  0  0  0
  1  2  1  0
  2  3  1  0
  3  4  1  0
  4  5  2  0
  5  6  1  0
  6  7  2  0
  7  8  1  0
  8  9  1  0
  9 10  1  0
 10 11  1  0
 11 12  2  0
 12 13  1  0
 13 14  2  0
 14 15  1  0
 15 16  1  0
 16 17  2  0
 16 18  1  0
 18 19  1  0
 19 20  2  0
 20 21  1  0
 21 22  2  0
 22 23  1  0
 23 24  2  0
 14 25  1  0
 25 26  2  0
  8 27  2  0
  2 28  1  0
 28 29  2  0
 29 30  1  0
 30 31  2  0
 31 32  1  0
 32 33  2  0
 33 34  1  0
 34 35  2  0
 34 36  1  0
 36 37  1  0
 36 38  1  0
 27  4  1  0
 33 28  1  0
 26 11  1  0
 24 19  1  0
  1 39  1  0
  1 40  1  0
  1 41  1  0
  3 42  1  0
  3 43  1  0
  5 44  1  0
  6 45  1  0
  7 46  1  0
  9 47  1  0
  9 48  1  0
 12 49  1  0
 13 50  1  0
 18 51  1  0
 18 52  1  0
 20 53  1  0
 21 54  1  0
 22 55  1  0
 23 56  1  0
 24 57  1  0
 25 58  1  0
 26 59  1  0
 27 60  1  0
 29 61  1  0
 30 62  1  0
 31 63  1  0
 32 64  1  0
 36 65  1  0
 37 66  1  0
 37 67  1  0
 37 68  1  0
 38 69  1  0
 38 70  1  0
 38 71  1  0
M  CHG  2  15  -1  36   1
M  END
>  <UniqueID>  (41) 
36

>  <SMILES>  (41) 
CN(Cc1cccc(COc2ccc([N-]C(=O)Cc3ccccc3)cc2)c1)c1ccccc1C(=O)[NH+](C)C

>  <Energy>  (41) 
83.60131191545452

>  <Genealogy>  (41) 
CN(Cc1cccc(COc2ccc([N-]C(=O)Cc3ccccc3)cc2)c1)c1ccccc1C(=O)[NH+](C)C (protonated)
CN(Cc1cccc(COc2ccc([N-]C(=O)Cc3ccccc3)cc2)c1)c1ccccc1C(=O)[NH+](C)C (3D coordinates assigned)
CN(Cc1cccc(COc2ccc([N-]C(=O)Cc3ccccc3)cc2)c1)c1ccccc1C(=O)[NH+](C)C (optimized conformer: 83.60131191545452 kcal/mol)

>  <smiles>  (41) 
CN(C)C(=O)c1ccccc1N(C)Cc1cccc(COc2ccc(NC(=O)Cc3ccccc3)cc2)c1

>  <score_type>  (41) 
oracle

>  <origin>  (41) 
adg

>  <m_score__min__energy>  (41) 
-11.359999999999999

>  <m_primary>  (41) 
energy

$$$$
41:0
     RDKit          3D

 36 37  0  0  0  0  0  0  0  0999 V2000
   58.9850   29.8040   47.4280 C   0  0  0  0  0  0  0  0  0  0  0  0
   57.9710   30.5610   46.7750 O   0  0  0  0  0  0  0  0  0  0  0  0
   58.1460   31.8630   46.2810 C   0  0  0  0  0  0  0  0  0  0  0  0
   59.0220   32.7840   46.8900 C   0  0  0  0  0  0  0  0  0  0  0  0
   59.1760   34.0660   46.3600 C   0  0  0  0  0  0  0  0  0  0  0  0
   58.4590   34.4450   45.2260 C   0  0  0  0  0  0  0  0  0  0  0  0
   57.5870   33.5420   44.6150 C   0  0  0  0  0  0  0  0  0  0  0  0
   57.4310   32.2420   45.1320 C   0  0  0  0  0  0  0  0  0  0  0  0
   56.5720   31.2970   44.5460 O   0  0  0  0  0  0  0  0  0  0  0  0
   56.6390   30.8310   43.1960 C   0  0  0  0  0  0  0  0  0  0  0  0
   57.1910   29.4070   43.1460 C   0  0  0  0  0  0  0  0  0  0  0  0
   58.2520   29.2410   44.1360 N   0  0  0  0  0  0  0  0  0  0  0  0
   58.6190   27.9970   44.7410 C   0  0  0  0  0  0  0  0  0  0  0  0
   59.8400   27.7370   44.9060 O   0  0  0  0  0  0  0  0  0  0  0  0
   57.6050   27.0470   45.2410 C   0  0  0  0  0  0  0  0  0  0  0  0
   57.9190   25.6820   45.3090 C   0  0  0  0  0  0  0  0  0  0  0  0
   56.9620   24.7600   45.7300 C   0  0  0  0  0  0  0  0  0  0  0  0
   55.6860   25.2100   46.0720 C   0  0  0  0  0  0  0  0  0  0  0  0
   54.8070   24.3910   46.4490 O   0  0  0  0  0  0  0  0  0  0  0  0
   55.3900   26.5340   45.9990 N   0  0  0  0  0  0  0  0  0  0  0  0
   56.3020   27.4600   45.5990 C   0  0  0  0  0  0  0  0  0  0  0  0
   55.9210   28.8020   45.5740 O   0  0  0  0  0  0  0  0  0  0  0  0
   58.8650   29.8936   48.5178 H   0  0  0  0  0  0  0  0  0  0  0  0
   58.8994   28.7471   47.1353 H   0  0  0  0  0  0  0  0  0  0  0  0
   59.9740   30.1865   47.1353 H   0  0  0  0  0  0  0  0  0  0  0  0
   59.5870   32.4911   47.7872 H   0  0  0  0  0  0  0  0  0  0  0  0
   59.8643   34.7786   46.8379 H   0  0  0  0  0  0  0  0  0  0  0  0
   58.5805   35.4569   44.8121 H   0  0  0  0  0  0  0  0  0  0  0  0
   57.0185   33.8481   43.7244 H   0  0  0  0  0  0  0  0  0  0  0  0
   55.6297   30.8432   42.7587 H   0  0  0  0  0  0  0  0  0  0  0  0
   57.3086   31.4914   42.6254 H   0  0  0  0  0  0  0  0  0  0  0  0
   56.3800   28.6954   43.3601 H   0  0  0  0  0  0  0  0  0  0  0  0
   57.6030   29.2173   42.1439 H   0  0  0  0  0  0  0  0  0  0  0  0
   58.9253   25.3372   45.0288 H   0  0  0  0  0  0  0  0  0  0  0  0
   57.2097   23.6900   45.7919 H   0  0  0  0  0  0  0  0  0  0  0  0
   56.5820   29.5610   45.4660 H   0  0  0  0  0  0  0  0  0  0  0  0
  1  2  1  0
  2  3  1  0
  3  4  2  0
  4  5  1  0
  5  6  2  0
  6  7  1  0
  7  8  2  0
  8  9  1  0
  9 10  1  0
 10 11  1  0
 11 12  1  0
 12 13  1  0
 13 14  2  0
 13 15  1  0
 15 16  1  0
 16 17  2  0
 17 18  1  0
 18 19  2  0
 18 20  1  0
 20 21  1  0
 21 22  1  0
  8  3  1  0
 21 15  2  0
  1 23  1  0
  1 24  1  0
  1 25  1  0
  4 26  1  0
  5 27  1  0
  6 28  1  0
  7 29  1  0
 10 30  1  0
 10 31  1  0
 11 32  1  0
 11 33  1  0
 16 34  1  0
 17 35  1  0
 22 36  1  0
M  CHG  2  12  -1  20  -1
M  END
>  <UniqueID>  (42) 
37

>  <SMILES>  (42) 
COc1ccccc1OCC[N-]C(=O)c1ccc(=O)[n-]c1O

>  <Energy>  (42) 
42.30261689478636

>  <Genealogy>  (42) 
COc1ccccc1OCC[N-]C(=O)c1ccc(=O)[n-]c1O (protonated)
COc1ccccc1OCC[N-]C(=O)c1ccc(=O)[n-]c1O (3D coordinates assigned)
COc1ccccc1OCC[N-]C(=O)c1ccc(=O)[n-]c1O (optimized conformer: 42.30261689478636 kcal/mol)

>  <smiles>  (42) 
COc1ccccc1OCCNC(=O)c1ccc(=O)[nH]c1O

>  <score_type>  (42) 
oracle

>  <origin>  (42) 
adg

>  <m_score__min__energy>  (42) 
-12.17

>  <m_primary>  (42) 
energy

$$$$
42:0
     RDKit          3D

 45 47  0  0  0  0  0  0  0  0999 V2000
   54.7890   26.3230   45.9990 N   0  0  0  0  0  0  0  0  0  0  0  0
   56.4480   25.8430   46.0470 S   0  0  0  0  0  0  0  0  0  0  0  0
   56.6600   24.6800   45.1200 O   0  0  0  0  0  0  0  0  0  0  0  0
   56.8070   25.4180   47.4430 O   0  0  0  0  0  0  0  0  0  0  0  0
   57.4650   27.1930   45.5540 C   0  0  0  0  0  0  0  0  0  0  0  0
   58.8600   27.0750   45.5970 C   0  0  0  0  0  0  0  0  0  0  0  0
   59.6660   28.1520   45.2210 C   0  0  0  0  0  0  0  0  0  0  0  0
   59.0860   29.3510   44.7990 C   0  0  0  0  0  0  0  0  0  0  0  0
   57.6880   29.4810   44.7420 C   0  0  0  0  0  0  0  0  0  0  0  0
   57.0620   30.7520   44.3030 C   0  0  0  0  0  0  0  0  0  0  0  0
   56.6660   30.8670   43.1130 O   0  0  0  0  0  0  0  0  0  0  0  0
   56.8440   31.8440   45.2070 N   0  0  0  0  0  0  0  0  0  0  0  0
   57.8230   32.8100   45.6190 C   0  0  0  0  0  0  0  0  0  0  0  0
   58.0730   33.9730   44.8700 C   0  0  0  0  0  0  0  0  0  0  0  0
   59.0180   34.9020   45.3110 C   0  0  0  0  0  0  0  0  0  0  0  0
   59.7100   34.6860   46.5050 C   0  0  0  0  0  0  0  0  0  0  0  0
   59.4570   33.5400   47.2670 C   0  0  0  0  0  0  0  0  0  0  0  0
   60.3080   33.2950   48.7910 S   0  0  0  0  0  0  0  0  0  0  0  0
   60.7770   34.6180   49.3290 O   0  0  0  0  0  0  0  0  0  0  0  0
   59.3460   32.6970   49.7800 O   0  0  0  0  0  0  0  0  0  0  0  0
   61.6620   32.2030   48.5720 N   0  0  0  0  0  0  0  0  0  0  0  0
   62.1340   32.1820   47.1770 C   0  0  0  0  0  0  0  0  0  0  0  0
   62.9130   33.4660   46.8010 C   0  0  0  0  0  0  0  0  0  0  0  0
   63.3750   34.1980   47.9250 O   0  0  0  0  0  0  0  0  0  0  0  0
   63.8910   33.3210   48.9010 C   0  0  0  0  0  0  0  0  0  0  0  0
   62.7560   32.4890   49.5270 C   0  0  0  0  0  0  0  0  0  0  0  0
   58.5040   32.6090   46.8260 C   0  0  0  0  0  0  0  0  0  0  0  0
   56.8830   28.3990   45.1380 C   0  0  0  0  0  0  0  0  0  0  0  0
   54.6740   27.0930   46.6940 H   0  0  0  0  0  0  0  0  0  0  0  0
   59.3215   26.1327   45.9274 H   0  0  0  0  0  0  0  0  0  0  0  0
   60.7612   28.0559   45.2573 H   0  0  0  0  0  0  0  0  0  0  0  0
   59.7267   30.1972   44.5100 H   0  0  0  0  0  0  0  0  0  0  0  0
   57.5230   34.1518   43.9343 H   0  0  0  0  0  0  0  0  0  0  0  0
   59.2178   35.8058   44.7167 H   0  0  0  0  0  0  0  0  0  0  0  0
   60.4557   35.4187   46.8471 H   0  0  0  0  0  0  0  0  0  0  0  0
   62.7958   31.3140   47.0405 H   0  0  0  0  0  0  0  0  0  0  0  0
   61.2510   32.1206   46.5238 H   0  0  0  0  0  0  0  0  0  0  0  0
   63.7823   33.1796   46.1909 H   0  0  0  0  0  0  0  0  0  0  0  0
   62.2161   34.1185   46.2545 H   0  0  0  0  0  0  0  0  0  0  0  0
   64.6202   32.6444   48.4315 H   0  0  0  0  0  0  0  0  0  0  0  0
   64.3784   33.9118   49.6905 H   0  0  0  0  0  0  0  0  0  0  0  0
   63.1732   31.5344   49.8799 H   0  0  0  0  0  0  0  0  0  0  0  0
   62.3299   33.0776   50.3528 H   0  0  0  0  0  0  0  0  0  0  0  0
   58.2907   31.7161   47.4320 H   0  0  0  0  0  0  0  0  0  0  0  0
   55.7877   28.4991   45.1214 H   0  0  0  0  0  0  0  0  0  0  0  0
  1  2  1  0
  2  3  2  0
  2  4  2  0
  2  5  1  0
  5  6  2  0
  6  7  1  0
  7  8  2  0
  8  9  1  0
  9 10  1  0
 10 11  2  0
 10 12  1  0
 12 13  1  0
 13 14  2  0
 14 15  1  0
 15 16  2  0
 16 17  1  0
 17 18  1  0
 18 19  2  0
 18 20  2  0
 18 21  1  0
 21 22  1  0
 22 23  1  0
 23 24  1  0
 24 25  1  0
 25 26  1  0
 17 27  2  0
  9 28  2  0
 28  5  1  0
 27 13  1  0
 26 21  1  0
  1 29  1  0
  6 30  1  0
  7 31  1  0
  8 32  1  0
 14 33  1  0
 15 34  1  0
 16 35  1  0
 22 36  1  0
 22 37  1  0
 23 38  1  0
 23 39  1  0
 25 40  1  0
 25 41  1  0
 26 42  1  0
 26 43  1  0
 27 44  1  0
 28 45  1  0
M  CHG  2   1  -1  12  -1
M  END
>  <UniqueID>  (43) 
38

>  <SMILES>  (43) 
[NH-]S(=O)(=O)c1cccc(C(=O)[N-]c2cccc(S(=O)(=O)N3CCOCC3)c2)c1

>  <Energy>  (43) 
63.762709655683395

>  <Genealogy>  (43) 
[NH-]S(=O)(=O)c1cccc(C(=O)[N-]c2cccc(S(=O)(=O)N3CCOCC3)c2)c1 (protonated)
[NH-]S(=O)(=O)c1cccc(C(=O)[N-]c2cccc(S(=O)(=O)N3CCOCC3)c2)c1 (3D coordinates assigned)
[NH-]S(=O)(=O)c1cccc(C(=O)[N-]c2cccc(S(=O)(=O)N3CCOCC3)c2)c1 (nonaromatic ring conformer: 63.762709655683395 kcal/mol)

>  <smiles>  (43) 
NS(=O)(=O)c1cccc(C(=O)Nc2cccc(S(=O)(=O)N3CCOCC3)c2)c1

>  <score_type>  (43) 
oracle

>  <origin>  (43) 
adg

>  <m_score__min__energy>  (43) 
-14.27

>  <m_primary>  (43) 
energy

$$$$
43:0
     RDKit          3D

 42 44  0  0  0  0  0  0  0  0999 V2000
   55.5070   29.4450   45.0700 O   0  0  0  0  0  0  0  0  0  0  0  0
   56.7570   29.3380   44.9030 C   0  0  0  0  0  0  0  0  0  0  0  0
   57.4230   30.3830   44.0900 C   0  0  0  0  0  0  0  0  0  0  0  0
   58.4930   31.1000   44.8920 C   0  0  0  0  0  0  0  0  0  0  0  0
   59.3860   30.0900   45.3940 N   0  0  0  0  0  0  0  0  0  0  0  0
   60.1550   30.3500   46.5620 C   0  0  0  0  0  0  0  0  0  0  0  0
   61.4260   30.3690   46.5270 O   0  0  0  0  0  0  0  0  0  0  0  0
   59.5450   30.6070   47.8610 C   0  0  0  0  0  0  0  0  0  0  0  0
   59.4130   29.5140   48.7050 C   0  0  0  0  0  0  0  0  0  0  0  0
   58.8440   29.6770   49.9490 C   0  0  0  0  0  0  0  0  0  0  0  0
   58.4070   30.9180   50.3620 C   0  0  0  0  0  0  0  0  0  0  0  0
   58.5580   31.9790   49.4930 C   0  0  0  0  0  0  0  0  0  0  0  0
   59.1150   31.8750   48.2450 C   0  0  0  0  0  0  0  0  0  0  0  0
   59.3500   33.1960   47.1040 S   0  0  0  0  0  0  0  0  0  0  0  0
   60.6510   34.3480   47.5130 C   0  0  0  0  0  0  0  0  0  0  0  0
   61.9780   33.7410   47.7370 C   0  0  0  0  0  0  0  0  0  0  0  0
   62.9300   33.9260   48.7000 C   0  0  0  0  0  0  0  0  0  0  0  0
   64.0210   33.0900   48.4690 C   0  0  0  0  0  0  0  0  0  0  0  0
   65.0560   33.0270   49.1800 O   0  0  0  0  0  0  0  0  0  0  0  0
   63.6920   32.4140   47.3550 N   0  0  0  0  0  0  0  0  0  0  0  0
   62.5010   32.7820   46.9140 N   0  0  0  0  0  0  0  0  0  0  0  0
   59.6010   28.7790   44.8190 C   0  0  0  0  0  0  0  0  0  0  0  0
   58.6980   27.7390   45.4430 C   0  0  0  0  0  0  0  0  0  0  0  0
   57.3320   28.1980   45.5510 N   0  0  0  0  0  0  0  0  0  0  0  0
   57.8877   29.9124   43.2110 H   0  0  0  0  0  0  0  0  0  0  0  0
   56.6667   31.1192   43.7800 H   0  0  0  0  0  0  0  0  0  0  0  0
   59.0411   31.8032   44.2477 H   0  0  0  0  0  0  0  0  0  0  0  0
   58.0474   31.6765   45.7161 H   0  0  0  0  0  0  0  0  0  0  0  0
   59.7611   28.5216   48.3824 H   0  0  0  0  0  0  0  0  0  0  0  0
   58.7374   28.8104   50.6181 H   0  0  0  0  0  0  0  0  0  0  0  0
   57.9520   31.0577   51.3537 H   0  0  0  0  0  0  0  0  0  0  0  0
   58.2099   32.9693   49.8220 H   0  0  0  0  0  0  0  0  0  0  0  0
   60.7409   35.0680   46.6862 H   0  0  0  0  0  0  0  0  0  0  0  0
   60.3610   34.8109   48.4678 H   0  0  0  0  0  0  0  0  0  0  0  0
   62.8470   34.6338   49.5379 H   0  0  0  0  0  0  0  0  0  0  0  0
   64.3030   31.6820   46.8910 H   0  0  0  0  0  0  0  0  0  0  0  0
   62.0250   32.3900   46.0510 H   0  0  0  0  0  0  0  0  0  0  0  0
   59.3975   28.8258   43.7390 H   0  0  0  0  0  0  0  0  0  0  0  0
   60.6439   28.4872   45.0117 H   0  0  0  0  0  0  0  0  0  0  0  0
   58.7191   26.8320   44.8209 H   0  0  0  0  0  0  0  0  0  0  0  0
   59.0678   27.5356   46.4588 H   0  0  0  0  0  0  0  0  0  0  0  0
   56.6910   27.6330   46.1750 H   0  0  0  0  0  0  0  0  0  0  0  0
  1  2  2  0
  2  3  1  0
  3  4  1  0
  4  5  1  0
  5  6  1  0
  6  7  2  0
  6  8  1  0
  8  9  2  0
  9 10  1  0
 10 11  2  0
 11 12  1  0
 12 13  2  0
 13 14  1  0
 14 15  1  0
 15 16  1  0
 16 17  2  0
 17 18  1  0
 18 19  2  0
 18 20  1  0
 20 21  1  0
  5 22  1  0
 22 23  1  0
 23 24  1  0
 24  2  1  0
 13  8  1  0
 21 16  1  0
  3 25  1  0
  3 26  1  0
  4 27  1  0
  4 28  1  0
  9 29  1  0
 10 30  1  0
 11 31  1  0
 12 32  1  0
 15 33  1  0
 15 34  1  0
 17 35  1  0
 20 36  1  0
 21 37  1  0
 22 38  1  0
 22 39  1  0
 23 40  1  0
 23 41  1  0
 24 42  1  0
M  END
>  <smiles>  (44) 
O=C1CCN(C(=O)c2ccccc2SCc2cc(=O)[nH][nH]2)CCN1

>  <score_type>  (44) 
oracle

>  <origin>  (44) 
adg

>  <m_score__min__energy>  (44) 
-5.79

>  <m_primary>  (44) 
energy

$$$$
44:0
     RDKit          3D

 37 39  0  0  0  0  0  0  0  0999 V2000
   57.8310   33.5280   46.1160 C   0  0  0  0  0  0  0  0  0  0  0  0
   58.9360   32.7880   46.6230 O   0  0  0  0  0  0  0  0  0  0  0  0
   58.9590   32.1460   47.8720 C   0  0  0  0  0  0  0  0  0  0  0  0
   59.0610   32.8670   49.0790 C   0  0  0  0  0  0  0  0  0  0  0  0
   59.0850   32.1950   50.3030 C   0  0  0  0  0  0  0  0  0  0  0  0
   59.0000   30.8030   50.3400 C   0  0  0  0  0  0  0  0  0  0  0  0
   58.8970   30.0770   49.1520 C   0  0  0  0  0  0  0  0  0  0  0  0
   58.8890   30.7390   47.9110 C   0  0  0  0  0  0  0  0  0  0  0  0
   58.7590   29.9980   46.6860 N   0  0  0  0  0  0  0  0  0  0  0  0
   58.9050   28.5750   46.5950 C   0  0  0  0  0  0  0  0  0  0  0  0
   59.2270   27.8900   47.6010 O   0  0  0  0  0  0  0  0  0  0  0  0
   58.6800   27.7590   45.0170 S   0  0  0  0  0  0  0  0  0  0  0  0
   57.2460   26.8550   45.6010 C   0  0  0  0  0  0  0  0  0  0  0  0
   55.9350   27.3040   45.6410 C   0  0  0  0  0  0  0  0  0  0  0  0
   55.5170   28.5630   45.2300 O   0  0  0  0  0  0  0  0  0  0  0  0
   55.0870   26.3690   46.1320 N   0  0  0  0  0  0  0  0  0  0  0  0
   55.8880   25.3190   46.4030 C   0  0  0  0  0  0  0  0  0  0  0  0
   55.5020   24.0910   46.9290 C   0  0  0  0  0  0  0  0  0  0  0  0
   56.5190   23.1330   47.1250 C   0  0  0  0  0  0  0  0  0  0  0  0
   56.1900   21.7930   47.7020 C   0  0  0  0  0  0  0  0  0  0  0  0
   57.3690   21.1680   48.1230 O   0  0  0  0  0  0  0  0  0  0  0  0
   57.7940   23.4220   46.8180 O   0  0  0  0  0  0  0  0  0  0  0  0
   58.1700   24.6000   46.3130 C   0  0  0  0  0  0  0  0  0  0  0  0
   59.3800   24.8150   46.0410 O   0  0  0  0  0  0  0  0  0  0  0  0
   57.1960   25.5740   46.0980 C   0  0  0  0  0  0  0  0  0  0  0  0
   57.2394   33.9242   46.9544 H   0  0  0  0  0  0  0  0  0  0  0  0
   58.1996   34.3621   45.5009 H   0  0  0  0  0  0  0  0  0  0  0  0
   57.2000   32.8696   45.5009 H   0  0  0  0  0  0  0  0  0  0  0  0
   59.1220   33.9651   49.0566 H   0  0  0  0  0  0  0  0  0  0  0  0
   59.1711   32.7646   51.2401 H   0  0  0  0  0  0  0  0  0  0  0  0
   59.0141   30.2770   51.3060 H   0  0  0  0  0  0  0  0  0  0  0  0
   58.8216   28.9801   49.1867 H   0  0  0  0  0  0  0  0  0  0  0  0
   58.6650   30.5300   45.7910 H   0  0  0  0  0  0  0  0  0  0  0  0
   54.4528   23.8766   47.1805 H   0  0  0  0  0  0  0  0  0  0  0  0
   55.5141   21.9187   48.5607 H   0  0  0  0  0  0  0  0  0  0  0  0
   55.6977   21.1738   46.9377 H   0  0  0  0  0  0  0  0  0  0  0  0
   58.0750   21.4530   47.4860 H   0  0  0  0  0  0  0  0  0  0  0  0
  1  2  1  0
  2  3  1  0
  3  4  2  0
  4  5  1  0
  5  6  2  0
  6  7  1  0
  7  8  2  0
  8  9  1  0
  9 10  1  0
 10 11  2  0
 10 12  1  0
 12 13  1  0
 13 14  2  0
 14 15  1  0
 14 16  1  0
 16 17  1  0
 17 18  1  0
 18 19  2  0
 19 20  1  0
 20 21  1  0
 19 22  1  0
 22 23  1  0
 23 24  2  0
 23 25  1  0
  8  3  1  0
 25 13  1  0
 25 17  2  0
  1 26  1  0
  1 27  1  0
  1 28  1  0
  4 29  1  0
  5 30  1  0
  6 31  1  0
  7 32  1  0
  9 33  1  0
 18 34  1  0
 20 35  1  0
 20 36  1  0
 21 37  1  0
M  CHG  2  15  -1  16  -1
M  END
>  <UniqueID>  (45) 
39

>  <SMILES>  (45) 
COc1ccccc1NC(=O)Sc1c([O-])[n-]c2cc(CO)oc(=O)c12

>  <Energy>  (45) 
73.23691067151849

>  <Genealogy>  (45) 
COc1ccccc1NC(=O)Sc1c([O-])[n-]c2cc(CO)oc(=O)c12 (protonated)
COc1ccccc1NC(=O)Sc1c([O-])[n-]c2cc(CO)oc(=O)c12 (3D coordinates assigned)
COc1ccccc1NC(=O)Sc1c([O-])[n-]c2cc(CO)oc(=O)c12 (optimized conformer: 73.23691067151849 kcal/mol)

>  <smiles>  (45) 
COc1ccccc1NC(=O)Sc1c(O)[nH]c2cc(CO)oc(=O)c12

>  <score_type>  (45) 
oracle

>  <origin>  (45) 
adg

>  <m_score__min__energy>  (45) 
-13.09

>  <m_primary>  (45) 
energy

$$$$
45:0
     RDKit          3D

 40 42  0  0  0  0  0  0  0  0999 V2000
   59.0170   25.8630   45.9680 O   0  0  0  0  0  0  0  0  0  0  0  0
   57.9290   25.6910   45.3520 C   0  0  0  0  0  0  0  0  0  0  0  0
   57.0540   26.8130   45.1380 N   0  0  0  0  0  0  0  0  0  0  0  0
   57.5020   28.1730   45.2560 C   0  0  0  0  0  0  0  0  0  0  0  0
   58.8590   28.4590   45.4870 C   0  0  0  0  0  0  0  0  0  0  0  0
   59.2990   29.7890   45.6140 C   0  0  0  0  0  0  0  0  0  0  0  0
   60.6700   30.1120   45.8850 N   0  0  0  0  0  0  0  0  0  0  0  0
   61.2250   31.0330   47.2490 S   0  0  0  0  0  0  0  0  0  0  0  0
   62.7170   31.2010   47.1570 O   0  0  0  0  0  0  0  0  0  0  0  0
   60.8930   30.2890   48.5130 O   0  0  0  0  0  0  0  0  0  0  0  0
   60.4740   32.6260   47.2450 C   0  0  0  0  0  0  0  0  0  0  0  0
   60.3590   33.3350   46.0410 C   0  0  0  0  0  0  0  0  0  0  0  0
   59.7410   34.5900   46.0210 C   0  0  0  0  0  0  0  0  0  0  0  0
   59.2360   35.1410   47.2040 C   0  0  0  0  0  0  0  0  0  0  0  0
   59.3460   34.4350   48.4070 C   0  0  0  0  0  0  0  0  0  0  0  0
   59.9650   33.1820   48.4290 C   0  0  0  0  0  0  0  0  0  0  0  0
   58.3750   30.8300   45.4750 C   0  0  0  0  0  0  0  0  0  0  0  0
   57.0300   30.5540   45.2130 C   0  0  0  0  0  0  0  0  0  0  0  0
   56.5920   29.2310   45.1000 C   0  0  0  0  0  0  0  0  0  0  0  0
   55.2490   28.9740   44.8500 O   0  0  0  0  0  0  0  0  0  0  0  0
   57.5910   24.3300   44.8610 C   0  0  0  0  0  0  0  0  0  0  0  0
   58.2230   23.1770   45.3660 C   0  0  0  0  0  0  0  0  0  0  0  0
   57.8690   21.9080   44.8930 C   0  0  0  0  0  0  0  0  0  0  0  0
   56.8910   21.7740   43.9060 C   0  0  0  0  0  0  0  0  0  0  0  0
   56.2680   22.9090   43.3820 C   0  0  0  0  0  0  0  0  0  0  0  0
   55.3240   22.7790   42.4190 F   0  0  0  0  0  0  0  0  0  0  0  0
   56.6170   24.1790   43.8520 C   0  0  0  0  0  0  0  0  0  0  0  0
   56.0540   26.6600   44.8920 H   0  0  0  0  0  0  0  0  0  0  0  0
   59.5833   27.6352   45.5692 H   0  0  0  0  0  0  0  0  0  0  0  0
   60.7555   32.9036   45.1100 H   0  0  0  0  0  0  0  0  0  0  0  0
   59.6520   35.1439   45.0748 H   0  0  0  0  0  0  0  0  0  0  0  0
   58.7526   36.1290   47.1882 H   0  0  0  0  0  0  0  0  0  0  0  0
   58.9451   34.8664   49.3361 H   0  0  0  0  0  0  0  0  0  0  0  0
   60.0535   32.6303   49.3765 H   0  0  0  0  0  0  0  0  0  0  0  0
   58.7093   31.8734   45.5726 H   0  0  0  0  0  0  0  0  0  0  0  0
   56.3137   31.3805   45.0953 H   0  0  0  0  0  0  0  0  0  0  0  0
   59.0006   23.2745   46.1379 H   0  0  0  0  0  0  0  0  0  0  0  0
   58.3630   21.0136   45.3003 H   0  0  0  0  0  0  0  0  0  0  0  0
   56.6110   20.7748   43.5410 H   0  0  0  0  0  0  0  0  0  0  0  0
   56.1270   25.0691   43.4306 H   0  0  0  0  0  0  0  0  0  0  0  0
  1  2  2  0
  2  3  1  0
  3  4  1  0
  4  5  2  0
  5  6  1  0
  6  7  1  0
  7  8  1  0
  8  9  2  0
  8 10  2  0
  8 11  1  0
 11 12  2  0
 12 13  1  0
 13 14  2  0
 14 15  1  0
 15 16  2  0
  6 17  2  0
 17 18  1  0
 18 19  2  0
 19 20  1  0
  2 21  1  0
 21 22  2  0
 22 23  1  0
 23 24  2  0
 24 25  1  0
 25 26  1  0
 25 27  2  0
 19  4  1  0
 27 21  1  0
 16 11  1  0
  3 28  1  0
  5 29  1  0
 12 30  1  0
 13 31  1  0
 14 32  1  0
 15 33  1  0
 16 34  1  0
 17 35  1  0
 18 36  1  0
 22 37  1  0
 23 38  1  0
 24 39  1  0
 27 40  1  0
M  CHG  2   7  -1  20  -1
M  END
>  <UniqueID>  (46) 
40

>  <SMILES>  (46) 
O=C(Nc1cc([N-]S(=O)(=O)c2ccccc2)ccc1[O-])c1cccc(F)c1

>  <Energy>  (46) 
52.12928482820878

>  <Genealogy>  (46) 
O=C(Nc1cc([N-]S(=O)(=O)c2ccccc2)ccc1[O-])c1cccc(F)c1 (protonated)
O=C(Nc1cc([N-]S(=O)(=O)c2ccccc2)ccc1[O-])c1cccc(F)c1 (3D coordinates assigned)
O=C(Nc1cc([N-]S(=O)(=O)c2ccccc2)ccc1[O-])c1cccc(F)c1 (optimized conformer: 52.12928482820878 kcal/mol)

>  <smiles>  (46) 
O=C(Nc1cc(NS(=O)(=O)c2ccccc2)ccc1O)c1cccc(F)c1

>  <score_type>  (46) 
oracle

>  <origin>  (46) 
adg

>  <m_score__min__energy>  (46) 
-12.34

>  <m_primary>  (46) 
energy

$$$$
46:0
     RDKit          3D

 37 39  0  0  0  0  0  0  0  0999 V2000
   56.6880   32.7650   45.3970 O   0  0  0  0  0  0  0  0  0  0  0  0
   57.9010   32.7310   45.7440 C   0  0  0  0  0  0  0  0  0  0  0  0
   58.7380   33.9680   45.6230 C   0  0  0  0  0  0  0  0  0  0  0  0
   59.9130   33.8800   46.5560 C   0  0  0  0  0  0  0  0  0  0  0  0
   61.2230   33.8690   46.0500 C   0  0  0  0  0  0  0  0  0  0  0  0
   62.3140   33.8320   46.9220 C   0  0  0  0  0  0  0  0  0  0  0  0
   62.1080   33.8130   48.3050 C   0  0  0  0  0  0  0  0  0  0  0  0
   60.8060   33.8360   48.8180 C   0  0  0  0  0  0  0  0  0  0  0  0
   60.5470   33.8250   50.5520 Cl  0  0  0  0  0  0  0  0  0  0  0  0
   59.7120   33.8730   47.9470 C   0  0  0  0  0  0  0  0  0  0  0  0
   58.4920   31.5050   46.1930 N   0  0  0  0  0  0  0  0  0  0  0  0
   57.7640   30.2350   46.1470 C   0  0  2  0  0  0  0  0  0  0  0  0
   58.6880   29.0910   46.3630 C   0  0  0  0  0  0  0  0  0  0  0  0
   59.4010   28.8010   47.5310 C   0  0  0  0  0  0  0  0  0  0  0  0
   60.2400   27.6760   47.5490 C   0  0  0  0  0  0  0  0  0  0  0  0
   60.3560   26.8630   46.4080 C   0  0  0  0  0  0  0  0  0  0  0  0
   59.6310   27.1710   45.2460 C   0  0  0  0  0  0  0  0  0  0  0  0
   58.7980   28.2930   45.2500 C   0  0  0  0  0  0  0  0  0  0  0  0
   57.9660   28.7780   44.1260 C   0  0  0  0  0  0  0  0  0  0  0  0
   57.1910   29.9760   44.7250 C   0  0  1  0  0  0  0  0  0  0  0  0
   55.8110   29.7100   44.7790 O   0  0  0  0  0  0  0  0  0  0  0  0
   59.0994   34.0648   44.5886 H   0  0  0  0  0  0  0  0  0  0  0  0
   58.1296   34.8458   45.8864 H   0  0  0  0  0  0  0  0  0  0  0  0
   61.3907   33.8896   44.9631 H   0  0  0  0  0  0  0  0  0  0  0  0
   63.3377   33.8178   46.5196 H   0  0  0  0  0  0  0  0  0  0  0  0
   62.9687   33.7800   48.9892 H   0  0  0  0  0  0  0  0  0  0  0  0
   58.6898   33.8967   48.3526 H   0  0  0  0  0  0  0  0  0  0  0  0
   59.4890   31.5200   46.5110 H   0  0  0  0  0  0  0  0  0  0  0  0
   56.9814   30.3071   46.9167 H   0  0  0  0  0  0  0  0  0  0  0  0
   59.3059   29.4429   48.4192 H   0  0  0  0  0  0  0  0  0  0  0  0
   60.8082   27.4298   48.4581 H   0  0  0  0  0  0  0  0  0  0  0  0
   61.0164   25.9835   46.4258 H   0  0  0  0  0  0  0  0  0  0  0  0
   59.7171   26.5406   44.3487 H   0  0  0  0  0  0  0  0  0  0  0  0
   58.5959   29.1012   43.2841 H   0  0  0  0  0  0  0  0  0  0  0  0
   57.2997   27.9998   43.7254 H   0  0  0  0  0  0  0  0  0  0  0  0
   57.3161   30.8670   44.0922 H   0  0  0  0  0  0  0  0  0  0  0  0
   55.4630   30.0980   45.6250 H   0  0  0  0  0  0  0  0  0  0  0  0
  1  2  2  0
  2  3  1  0
  3  4  1  0
  4  5  2  0
  5  6  1  0
  6  7  2  0
  7  8  1  0
  8  9  1  0
  8 10  2  0
  2 11  1  0
 11 12  1  0
 12 13  1  0
 13 14  2  0
 14 15  1  0
 15 16  2  0
 16 17  1  0
 17 18  2  0
 18 19  1  0
 19 20  1  0
 20 21  1  0
 10  4  1  0
 20 12  1  0
 18 13  1  0
  3 22  1  0
  3 23  1  0
  5 24  1  0
  6 25  1  0
  7 26  1  0
 10 27  1  0
 11 28  1  0
 12 29  1  1
 14 30  1  0
 15 31  1  0
 16 32  1  0
 17 33  1  0
 19 34  1  0
 19 35  1  0
 20 36  1  6
 21 37  1  0
M  END
>  <UniqueID>  (47) 
41

>  <SMILES>  (47) 
O=C(Cc1cccc(Cl)c1)N[C@@H]1c2ccccc2C[C@H]1O

>  <Energy>  (47) 
44.011894965198

>  <Genealogy>  (47) 
O=C(Cc1cccc(Cl)c1)N[C@@H]1c2ccccc2C[C@H]1O (chirality)
O=C(Cc1cccc(Cl)c1)N[C@@H]1c2ccccc2C[C@H]1O (3D coordinates assigned)
O=C(Cc1cccc(Cl)c1)N[C@@H]1c2ccccc2C[C@H]1O (nonaromatic ring conformer: 44.011894965198 kcal/mol)

>  <smiles>  (47) 
O=C(Cc1cccc(Cl)c1)NC1c2ccccc2CC1O

>  <score_type>  (47) 
oracle

>  <origin>  (47) 
adg

>  <m_score__min__energy>  (47) 
-8.4800000000000004

>  <m_primary>  (47) 
energy

$$$$
47:0
     RDKit          3D

 29 30  0  0  0  0  0  0  0  0999 V2000
   59.8699   36.1247   45.5335 H   0  0  0  0  0  0  0  0  0  0  0  0
   59.5210   35.0950   45.7010 C   0  0  0  0  0  0  0  0  0  0  0  0
   58.4650   34.5830   44.9420 C   0  0  0  0  0  0  0  0  0  0  0  0
   57.9848   35.2097   44.1760 H   0  0  0  0  0  0  0  0  0  0  0  0
   58.0180   33.2750   45.1550 C   0  0  0  0  0  0  0  0  0  0  0  0
   57.1890   32.8743   44.5531 H   0  0  0  0  0  0  0  0  0  0  0  0
   58.6240   32.4710   46.1350 C   0  0  0  0  0  0  0  0  0  0  0  0
   58.1650   31.0560   46.3580 C   0  0  0  0  0  0  0  0  0  0  0  0
   57.5504   31.0133   47.2693 H   0  0  0  0  0  0  0  0  0  0  0  0
   59.0464   30.4070   46.4670 H   0  0  0  0  0  0  0  0  0  0  0  0
   57.3740   30.5950   45.2220 N   0  0  0  0  0  0  0  0  0  0  0  0
   56.6330   29.3700   45.2150 C   0  0  0  0  0  0  0  0  0  0  0  0
   55.3900   29.3900   45.0110 O   0  0  0  0  0  0  0  0  0  0  0  0
   57.2870   28.1030   45.3620 N   0  0  0  0  0  0  0  0  0  0  0  0
   56.7530   26.9560   45.6690 C   0  0  0  0  0  0  0  0  0  0  0  0
   57.3720   25.7390   45.4770 C   0  0  0  0  0  0  0  0  0  0  0  0
   58.3772   25.5393   45.0774 H   0  0  0  0  0  0  0  0  0  0  0  0
   56.4240   24.8310   45.9080 C   0  0  0  0  0  0  0  0  0  0  0  0
   56.5630   23.3460   45.9020 C   0  0  0  0  0  0  0  0  0  0  0  0
   56.5976   22.9768   46.9376 H   0  0  0  0  0  0  0  0  0  0  0  0
   55.7027   22.8993   45.3820 H   0  0  0  0  0  0  0  0  0  0  0  0
   57.4912   23.0667   45.3820 H   0  0  0  0  0  0  0  0  0  0  0  0
   55.3470   25.4770   46.2950 O   0  0  0  0  0  0  0  0  0  0  0  0
   55.5130   26.7600   46.1660 N   0  0  0  0  0  0  0  0  0  0  0  0
   54.7720   27.4610   46.3740 H   0  0  0  0  0  0  0  0  0  0  0  0
   59.6900   32.9910   46.8900 C   0  0  0  0  0  0  0  0  0  0  0  0
   60.1764   32.3667   47.6540 H   0  0  0  0  0  0  0  0  0  0  0  0
   60.1340   34.2990   46.6730 C   0  0  0  0  0  0  0  0  0  0  0  0
   60.9668   34.7022   47.2679 H   0  0  0  0  0  0  0  0  0  0  0  0
  1  2  1  0
  2  3  2  0
  3  4  1  0
  3  5  1  0
  5  6  1  0
  5  7  2  0
  7  8  1  0
  8  9  1  0
  8 10  1  0
  8 11  1  0
 11 12  1  0
 12 13  2  0
 12 14  1  0
 14 15  2  0
 15 16  1  0
 16 17  1  0
 16 18  2  0
 18 19  1  0
 19 20  1  0
 19 21  1  0
 19 22  1  0
 18 23  1  0
 23 24  1  0
 24 25  1  0
  7 26  1  0
 26 27  1  0
 26 28  2  0
 28 29  1  0
 28  2  1  0
 24 15  1  0
M  CHG  1  11  -1
M  END
>  <UniqueID>  (48) 
42

>  <SMILES>  (48) 
Cc1c/c(=N/C(=O)[N-]Cc2ccccc2)[nH]o1

>  <Energy>  (48) 
62.13715735187771

>  <Genealogy>  (48) 
Cc1cc(=NC(=O)[N-]Cc2ccccc2)[nH]o1 (protonated)
Cc1c/c(=N/C(=O)[N-]Cc2ccccc2)[nH]o1 (cis-trans isomerization)
Cc1c/c(=N/C(=O)[N-]Cc2ccccc2)[nH]o1 (3D coordinates assigned)
Cc1c/c(=N/C(=O)[N-]Cc2ccccc2)[nH]o1 (optimized conformer: 62.13715735187771 kcal/mol)

>  <smiles>  (48) 
Cc1cc(=NC(=O)NCc2ccccc2)[nH]o1

>  <score_type>  (48) 
oracle

>  <origin>  (48) 
adg

>  <m_score__min__energy>  (48) 
-9.1099999999999994

>  <m_primary>  (48) 
energy

$$$$
48:0
     RDKit          3D

 25 26  0  0  0  0  0  0  0  0999 V2000
   54.8756   28.1872   52.2571 H   0  0  0  0  0  0  0  0  0  0  0  0
   54.8810   29.1770   52.7370 C   0  0  0  0  0  0  0  0  0  0  0  0
   55.9400   29.4990   53.4980 C   0  0  0  0  0  0  0  0  0  0  0  0
   56.1740   28.8576   54.3605 H   0  0  0  0  0  0  0  0  0  0  0  0
   56.8120   30.6720   53.2400 C   0  0  0  0  0  0  0  0  0  0  0  0
   58.0230   30.8750   53.9310 C   0  0  0  0  0  0  0  0  0  0  0  0
   58.3590   30.1469   54.6839 H   0  0  0  0  0  0  0  0  0  0  0  0
   58.7930   32.0040   53.6550 C   0  0  0  0  0  0  0  0  0  0  0  0
   59.7432   32.1652   54.1852 H   0  0  0  0  0  0  0  0  0  0  0  0
   58.3580   32.9280   52.7070 C   0  0  0  0  0  0  0  0  0  0  0  0
   58.9630   33.8181   52.4797 H   0  0  0  0  0  0  0  0  0  0  0  0
   57.1480   32.7120   52.0500 C   0  0  0  0  0  0  0  0  0  0  0  0
   56.7931   33.4374   51.3032 H   0  0  0  0  0  0  0  0  0  0  0  0
   56.4030   31.6060   52.3290 N   0  0  0  0  0  0  0  0  0  0  0  0
   55.5020   31.4760   51.8170 H   0  0  0  0  0  0  0  0  0  0  0  0
   53.7200   30.0660   52.5010 C   0  0  0  0  0  0  0  0  0  0  0  0
   53.8660   31.0390   51.6020 O   0  0  0  0  0  0  0  0  0  0  0  0
   52.8990   31.9020   51.3020 C   0  0  0  0  0  0  0  0  0  0  0  0
   53.0763   32.6812   50.5461 H   0  0  0  0  0  0  0  0  0  0  0  0
   51.6610   31.8240   51.9410 C   0  0  0  0  0  0  0  0  0  0  0  0
   50.6500   32.7260   51.6250 O   0  0  0  0  0  0  0  0  0  0  0  0
   51.4620   30.8290   52.8980 C   0  0  0  0  0  0  0  0  0  0  0  0
   50.3580   30.7340   53.5000 O   0  0  0  0  0  0  0  0  0  0  0  0
   52.4970   29.9380   53.1880 C   0  0  0  0  0  0  0  0  0  0  0  0
   52.3595   29.1483   53.9413 H   0  0  0  0  0  0  0  0  0  0  0  0
  1  2  1  0
  2  3  2  0
  3  4  1  0
  3  5  1  0
  5  6  2  0
  6  7  1  0
  6  8  1  0
  8  9  1  0
  8 10  2  0
 10 11  1  0
 10 12  1  0
 12 13  1  0
 12 14  2  0
 14 15  1  0
  2 16  1  0
 16 17  1  0
 17 18  1  0
 18 19  1  0
 18 20  2  0
 20 21  1  0
 20 22  1  0
 22 23  2  0
 22 24  1  0
 24 25  1  0
 14  5  1  0
 24 16  2  0
M  CHG  2  14   1  21  -1
M  END
>  <UniqueID>  (49) 
43

>  <SMILES>  (49) 
O=c1cc(/C=C/c2cccc[nH+]2)occ1[O-]

>  <Energy>  (49) 
32.71101803916689

>  <Genealogy>  (49) 
O=c1cc(C=Cc2cccc[nH+]2)occ1[O-] (protonated)
O=c1cc(/C=C/c2cccc[nH+]2)occ1[O-] (cis-trans isomerization)
O=c1cc(/C=C/c2cccc[nH+]2)occ1[O-] (3D coordinates assigned)
O=c1cc(/C=C/c2cccc[nH+]2)occ1[O-] (optimized conformer: 32.71101803916689 kcal/mol)

>  <smiles>  (49) 
O=c1cc(C=Cc2ccccn2)occ1O

>  <score_type>  (49) 
oracle

>  <origin>  (49) 
adg

>  <m_score__min__energy>  (49) 
-7.8799999999999999

>  <m_primary>  (49) 
energy

$$$$
49:0
     RDKit          3D

 60 62  0  0  0  0  0  0  0  0999 V2000
   63.3660   33.4930   46.7190 C   0  0  0  0  0  0  0  0  0  0  0  0
   63.5960   33.0990   48.1880 C   0  0  0  0  0  0  0  0  0  0  0  0
   62.4280   32.4980   48.8870 N   0  0  0  0  0  0  0  0  0  0  0  0
   62.7450   31.8430   50.1810 C   0  0  0  0  0  0  0  0  0  0  0  0
   64.2370   31.7120   50.5030 C   0  0  0  0  0  0  0  0  0  0  0  0
   61.0100   33.5280   48.9610 S   0  0  0  0  0  0  0  0  0  0  0  0
   60.3020   33.3880   50.2800 O   0  0  0  0  0  0  0  0  0  0  0  0
   61.4270   34.9640   48.7960 O   0  0  0  0  0  0  0  0  0  0  0  0
   59.9010   33.1210   47.6560 C   0  0  0  0  0  0  0  0  0  0  0  0
   58.7910   32.3040   47.9080 C   0  0  0  0  0  0  0  0  0  0  0  0
   57.9070   31.9770   46.8760 C   0  0  0  0  0  0  0  0  0  0  0  0
   58.1290   32.4550   45.5740 C   0  0  0  0  0  0  0  0  0  0  0  0
   57.1830   32.1580   44.4800 C   0  0  0  0  0  0  0  0  0  0  0  0
   56.9100   30.9310   44.0090 C   0  0  0  0  0  0  0  0  0  0  0  0
   56.3170   29.8310   44.7910 C   0  0  0  0  0  0  0  0  0  0  0  0
   55.1470   29.4230   44.5520 O   0  0  0  0  0  0  0  0  0  0  0  0
   57.1000   29.2240   45.8240 N   0  0  0  0  0  0  0  0  0  0  0  0
   57.3190   27.8180   46.0140 C   0  0  0  0  0  0  0  0  0  0  0  0
   56.3330   26.8720   45.6790 C   0  0  0  0  0  0  0  0  0  0  0  0
   56.5620   25.5090   45.8750 C   0  0  0  0  0  0  0  0  0  0  0  0
   57.7740   25.0720   46.4100 C   0  0  0  0  0  0  0  0  0  0  0  0
   58.7540   26.0040   46.7650 C   0  0  0  0  0  0  0  0  0  0  0  0
   58.5300   27.3770   46.5840 C   0  0  0  0  0  0  0  0  0  0  0  0
   59.5650   28.3080   46.9420 N   0  0  0  0  0  0  0  0  0  0  0  0
   59.9970   28.3920   48.3390 C   0  0  0  0  0  0  0  0  0  0  0  0
   60.5600   29.7890   48.6320 C   0  0  0  0  0  0  0  0  0  0  0  0
   61.5120   30.1690   47.6580 O   0  0  0  0  0  0  0  0  0  0  0  0
   60.8840   30.2940   46.3990 C   0  0  0  0  0  0  0  0  0  0  0  0
   60.3940   28.9300   45.9080 C   0  0  0  0  0  0  0  0  0  0  0  0
   59.2150   33.3090   45.3320 C   0  0  0  0  0  0  0  0  0  0  0  0
   60.1030   33.6310   46.3640 C   0  0  0  0  0  0  0  0  0  0  0  0
   62.8119   34.4423   46.6764 H   0  0  0  0  0  0  0  0  0  0  0  0
   64.3365   33.6120   46.2150 H   0  0  0  0  0  0  0  0  0  0  0  0
   62.7852   32.7065   46.2150 H   0  0  0  0  0  0  0  0  0  0  0  0
   64.4189   32.3696   48.2171 H   0  0  0  0  0  0  0  0  0  0  0  0
   63.8118   34.0378   48.7192 H   0  0  0  0  0  0  0  0  0  0  0  0
   62.1210   31.7080   48.2700 H   0  0  0  0  0  0  0  0  0  0  0  0
   62.2751   32.4310   50.9831 H   0  0  0  0  0  0  0  0  0  0  0  0
   62.3604   30.8154   50.1028 H   0  0  0  0  0  0  0  0  0  0  0  0
   64.3769   31.6997   51.5940 H   0  0  0  0  0  0  0  0  0  0  0  0
   64.6241   30.7764   50.0731 H   0  0  0  0  0  0  0  0  0  0  0  0
   64.7812   32.5658   50.0731 H   0  0  0  0  0  0  0  0  0  0  0  0
   58.6145   31.9181   48.9229 H   0  0  0  0  0  0  0  0  0  0  0  0
   57.0332   31.3422   47.0844 H   0  0  0  0  0  0  0  0  0  0  0  0
   56.6617   33.0078   44.0150 H   0  0  0  0  0  0  0  0  0  0  0  0
   57.1481   30.7300   42.9540 H   0  0  0  0  0  0  0  0  0  0  0  0
   55.3738   27.2092   45.2592 H   0  0  0  0  0  0  0  0  0  0  0  0
   55.7850   24.7779   45.6070 H   0  0  0  0  0  0  0  0  0  0  0  0
   57.9582   23.9969   46.5522 H   0  0  0  0  0  0  0  0  0  0  0  0
   59.7080   25.6580   47.1895 H   0  0  0  0  0  0  0  0  0  0  0  0
   59.1375   28.2002   48.9981 H   0  0  0  0  0  0  0  0  0  0  0  0
   60.7810   27.6419   48.5199 H   0  0  0  0  0  0  0  0  0  0  0  0
   59.7348   30.5164   48.6307 H   0  0  0  0  0  0  0  0  0  0  0  0
   61.0548   29.7672   49.6142 H   0  0  0  0  0  0  0  0  0  0  0  0
   60.0259   30.9764   46.4884 H   0  0  0  0  0  0  0  0  0  0  0  0
   61.6111   30.6926   45.6762 H   0  0  0  0  0  0  0  0  0  0  0  0
   59.7997   29.0620   44.9918 H   0  0  0  0  0  0  0  0  0  0  0  0
   61.2590   28.2849   45.6943 H   0  0  0  0  0  0  0  0  0  0  0  0
   59.3692   33.7274   44.3264 H   0  0  0  0  0  0  0  0  0  0  0  0
   60.9630   34.2865   46.1621 H   0  0  0  0  0  0  0  0  0  0  0  0
  1  2  1  0
  2  3  1  0
  3  4  1  0
  4  5  1  0
  3  6  1  0
  6  7  2  0
  6  8  2  0
  6  9  1  0
  9 10  2  0
 10 11  1  0
 11 12  2  0
 12 13  1  0
 13 14  2  3
 14 15  1  0
 15 16  2  0
 15 17  1  0
 17 18  1  0
 18 19  2  0
 19 20  1  0
 20 21  2  0
 21 22  1  0
 22 23  2  0
 23 24  1  0
 24 25  1  0
 25 26  1  0
 26 27  1  0
 27 28  1  0
 28 29  1  0
 12 30  1  0
 30 31  2  0
 31  9  1  0
 23 18  1  0
 29 24  1  0
  1 32  1  0
  1 33  1  0
  1 34  1  0
  2 35  1  0
  2 36  1  0
  3 37  1  0
  4 38  1  0
  4 39  1  0
  5 40  1  0
  5 41  1  0
  5 42  1  0
 10 43  1  0
 11 44  1  0
 13 45  1  0
 14 46  1  0
 19 47  1  0
 20 48  1  0
 21 49  1  0
 22 50  1  0
 25 51  1  0
 25 52  1  0
 26 53  1  0
 26 54  1  0
 28 55  1  0
 28 56  1  0
 29 57  1  0
 29 58  1  0
 30 59  1  0
 31 60  1  0
M  CHG  2   3   1  17  -1
M  END
>  <UniqueID>  (50) 
44

>  <SMILES>  (50) 
CC[NH+](CC)S(=O)(=O)c1ccc(C=CC(=O)[N-]c2ccccc2N2CCOCC2)cc1

>  <Energy>  (50) 
84.93136123259141

>  <Genealogy>  (50) 
CC[NH+](CC)S(=O)(=O)c1ccc(C=CC(=O)[N-]c2ccccc2N2CCOCC2)cc1 (protonated)
CC[NH+](CC)S(=O)(=O)c1ccc(C=CC(=O)[N-]c2ccccc2N2CCOCC2)cc1 (3D coordinates assigned)
CC[NH+](CC)S(=O)(=O)c1ccc(C=CC(=O)[N-]c2ccccc2N2CCOCC2)cc1 (nonaromatic ring conformer: 84.93136123259141 kcal/mol)

>  <smiles>  (50) 
CCN(CC)S(=O)(=O)c1ccc(C=CC(=O)Nc2ccccc2N2CCOCC2)cc1

>  <score_type>  (50) 
oracle

>  <origin>  (50) 
adg

>  <m_score__min__energy>  (50) 
-9.8800000000000008

>  <m_primary>  (50) 
energy

$$$$
50:0
     RDKit          3D

 57 60  0  0  0  0  0  0  0  0999 V2000
   58.5650   29.6300   49.5140 C   0  0  0  0  0  0  0  0  0  0  0  0
   59.9120   30.2420   49.3220 C   0  0  0  0  0  0  0  0  0  0  0  0
   60.9450   30.2200   50.2390 C   0  0  0  0  0  0  0  0  0  0  0  0
   61.9970   30.8190   49.5760 C   0  0  0  0  0  0  0  0  0  0  0  0
   63.3730   31.0270   50.1270 C   0  0  0  0  0  0  0  0  0  0  0  0
   61.5890   31.1660   48.3340 N   0  0  0  0  0  0  0  0  0  0  0  0
   62.4040   31.7350   47.2610 C   0  0  0  0  0  0  0  0  0  0  0  0
   62.4240   33.2720   47.3460 C   0  0  2  0  0  0  0  0  0  0  0  0
   63.4530   33.7520   48.3740 C   0  0  0  0  0  0  0  0  0  0  0  0
   62.6360   34.1700   49.5740 C   0  0  0  0  0  0  0  0  0  0  0  0
   61.3070   34.5800   48.9810 C   0  0  0  0  0  0  0  0  0  0  0  0
   61.0980   33.7550   47.7810 N   0  0  0  0  0  0  0  0  0  0  0  0
   60.3890   34.4840   46.7110 C   0  0  0  0  0  0  0  0  0  0  0  0
   59.2750   33.6450   46.1720 C   0  0  0  0  0  0  0  0  0  0  0  0
   59.2700   32.3000   46.1900 N   0  0  0  0  0  0  0  0  0  0  0  0
   58.1270   31.9620   45.5670 C   0  0  0  0  0  0  0  0  0  0  0  0
   57.6520   30.5850   45.3530 C   0  0  0  0  0  0  0  0  0  0  0  0
   56.5040   30.4030   44.8620 O   0  0  0  0  0  0  0  0  0  0  0  0
   58.4690   29.4480   45.6860 N   0  0  0  0  0  0  0  0  0  0  0  0
   59.8880   29.4300   45.2840 C   0  0  0  0  0  0  0  0  0  0  0  0
   60.4390   28.0010   45.2440 C   0  0  0  0  0  0  0  0  0  0  0  0
   60.1810   27.2680   46.5690 C   0  0  0  0  0  0  0  0  0  0  0  0
   58.7520   27.4700   47.1210 C   0  0  0  0  0  0  0  0  0  0  0  0
   57.8260   28.2140   46.1530 C   0  0  0  0  0  0  0  0  0  0  0  0
   57.4660   33.1200   45.2080 C   0  0  0  0  0  0  0  0  0  0  0  0
   58.2060   34.1370   45.5860 O   0  0  0  0  0  0  0  0  0  0  0  0
   60.3260   30.8030   48.1690 N   0  0  0  0  0  0  0  0  0  0  0  0
   58.3555   29.5348   50.5897 H   0  0  0  0  0  0  0  0  0  0  0  0
   57.8017   30.2697   49.0470 H   0  0  0  0  0  0  0  0  0  0  0  0
   58.5447   28.6343   49.0470 H   0  0  0  0  0  0  0  0  0  0  0  0
   60.9321   29.8175   51.2626 H   0  0  0  0  0  0  0  0  0  0  0  0
   63.3326   31.0209   51.2262 H   0  0  0  0  0  0  0  0  0  0  0  0
   64.0331   30.2184   49.7799 H   0  0  0  0  0  0  0  0  0  0  0  0
   63.7646   31.9945   49.7799 H   0  0  0  0  0  0  0  0  0  0  0  0
   63.4327   31.3555   47.3495 H   0  0  0  0  0  0  0  0  0  0  0  0
   61.9692   31.4410   46.2943 H   0  0  0  0  0  0  0  0  0  0  0  0
   62.6851   33.6629   46.3515 H   0  0  0  0  0  0  0  0  0  0  0  0
   64.1433   32.9379   48.6401 H   0  0  0  0  0  0  0  0  0  0  0  0
   64.0726   34.5746   47.9874 H   0  0  0  0  0  0  0  0  0  0  0  0
   62.5105   33.3309   50.2741 H   0  0  0  0  0  0  0  0  0  0  0  0
   63.1109   34.9768   50.1516 H   0  0  0  0  0  0  0  0  0  0  0  0
   60.4991   34.4031   49.7063 H   0  0  0  0  0  0  0  0  0  0  0  0
   61.3043   35.6502   48.7267 H   0  0  0  0  0  0  0  0  0  0  0  0
   59.9766   35.4188   47.1186 H   0  0  0  0  0  0  0  0  0  0  0  0
   61.0957   34.7107   45.8991 H   0  0  0  0  0  0  0  0  0  0  0  0
   59.9800   31.6710   46.6270 H   0  0  0  0  0  0  0  0  0  0  0  0
   59.9825   29.8782   44.2839 H   0  0  0  0  0  0  0  0  0  0  0  0
   60.4651   30.0032   46.0245 H   0  0  0  0  0  0  0  0  0  0  0  0
   59.9484   27.4502   44.4280 H   0  0  0  0  0  0  0  0  0  0  0  0
   61.5255   28.0515   45.0801 H   0  0  0  0  0  0  0  0  0  0  0  0
   60.3425   26.1919   46.4080 H   0  0  0  0  0  0  0  0  0  0  0  0
   60.8753   27.6895   47.3108 H   0  0  0  0  0  0  0  0  0  0  0  0
   58.3162   26.4820   47.3307 H   0  0  0  0  0  0  0  0  0  0  0  0
   58.8379   28.0870   48.0276 H   0  0  0  0  0  0  0  0  0  0  0  0
   57.6082   27.5683   45.2895 H   0  0  0  0  0  0  0  0  0  0  0  0
   56.8920   28.4704   46.6745 H   0  0  0  0  0  0  0  0  0  0  0  0
   56.4938   33.1799   44.6969 H   0  0  0  0  0  0  0  0  0  0  0  0
  1  2  1  0
  2  3  1  0
  3  4  2  0
  4  5  1  0
  4  6  1  0
  6  7  1  0
  7  8  1  0
  8  9  1  0
  9 10  1  0
 10 11  1  0
 11 12  1  0
 12 13  1  0
 13 14  1  0
 14 15  2  0
 15 16  1  0
 16 17  1  0
 17 18  2  0
 17 19  1  0
 19 20  1  0
 20 21  1  0
 21 22  1  0
 22 23  1  0
 23 24  1  0
 16 25  2  0
 25 26  1  0
  6 27  1  0
 27  2  2  0
 12  8  1  0
 26 14  1  0
 24 19  1  0
  1 28  1  0
  1 29  1  0
  1 30  1  0
  3 31  1  0
  5 32  1  0
  5 33  1  0
  5 34  1  0
  7 35  1  0
  7 36  1  0
  8 37  1  6
  9 38  1  0
  9 39  1  0
 10 40  1  0
 10 41  1  0
 11 42  1  0
 11 43  1  0
 13 44  1  0
 13 45  1  0
 15 46  1  0
 20 47  1  0
 20 48  1  0
 21 49  1  0
 21 50  1  0
 22 51  1  0
 22 52  1  0
 23 53  1  0
 23 54  1  0
 24 55  1  0
 24 56  1  0
 25 57  1  0
M  CHG  1  15   1
M  END
>  <UniqueID>  (51) 
45

>  <SMILES>  (51) 
Cc1cc(C)n(C[C@@H]2CCCN2Cc2[nH+]c(C(=O)N3CCCCC3)co2)n1

>  <Energy>  (51) 
117.07240758417228

>  <Genealogy>  (51) 
Cc1cc(C)n(CC2CCCN2Cc2[nH+]c(C(=O)N3CCCCC3)co2)n1 (protonated)
Cc1cc(C)n(C[C@@H]2CCCN2Cc2[nH+]c(C(=O)N3CCCCC3)co2)n1 (chirality)
Cc1cc(C)n(C[C@@H]2CCCN2Cc2[nH+]c(C(=O)N3CCCCC3)co2)n1 (3D coordinates assigned)
Cc1cc(C)n(C[C@@H]2CCCN2Cc2[nH+]c(C(=O)N3CCCCC3)co2)n1 (nonaromatic ring conformer: 117.07240758417228 kcal/mol)

>  <smiles>  (51) 
Cc1cc(C)n(CC2CCCN2Cc2nc(C(=O)N3CCCCC3)co2)n1

>  <score_type>  (51) 
oracle

>  <origin>  (51) 
adg

>  <m_score__min__energy>  (51) 
-6.7400000000000002

>  <m_primary>  (51) 
energy

$$$$
51:0
     RDKit          3D

 43 46  0  0  0  0  0  0  0  0999 V2000
   52.2810   24.0490   44.8890 C   0  0  0  0  0  0  0  0  0  0  0  0
   53.4650   23.2690   45.0290 O   0  0  0  0  0  0  0  0  0  0  0  0
   54.6060   23.6560   45.7500 C   0  0  0  0  0  0  0  0  0  0  0  0
   55.1310   24.9570   45.6260 C   0  0  0  0  0  0  0  0  0  0  0  0
   56.2670   25.3510   46.3460 C   0  0  0  0  0  0  0  0  0  0  0  0
   56.8090   26.6790   46.2130 N   0  0  0  0  0  0  0  0  0  0  0  0
   56.4100   27.5410   45.2850 N   0  0  0  0  0  0  0  0  0  0  0  0
   57.1440   28.6650   45.4330 C   0  0  0  0  0  0  0  0  0  0  0  0
   58.0390   28.5160   46.4660 C   0  0  0  0  0  0  0  0  0  0  0  0
   57.8160   27.2380   46.9230 C   0  0  0  0  0  0  0  0  0  0  0  0
   58.4860   26.6510   47.8140 O   0  0  0  0  0  0  0  0  0  0  0  0
   59.1400   29.4750   46.7830 C   0  0  0  0  0  0  0  0  0  0  0  0
   58.5100   31.1820   46.5990 S   0  0  0  0  0  0  0  0  0  0  0  0
   57.8550   30.9880   44.9190 C   0  0  0  0  0  0  0  0  0  0  0  0
   58.0050   32.0390   44.0070 C   0  0  0  0  0  0  0  0  0  0  0  0
   57.4050   31.9680   42.7450 C   0  0  0  0  0  0  0  0  0  0  0  0
   56.6530   30.8440   42.3890 C   0  0  0  0  0  0  0  0  0  0  0  0
   56.5190   29.7770   43.2820 C   0  0  0  0  0  0  0  0  0  0  0  0
   57.1280   29.8370   44.5450 C   0  0  0  0  0  0  0  0  0  0  0  0
   56.9000   24.4230   47.1800 C   0  0  0  0  0  0  0  0  0  0  0  0
   56.3950   23.1190   47.3210 C   0  0  0  0  0  0  0  0  0  0  0  0
   57.0080   22.1750   48.1610 O   0  0  0  0  0  0  0  0  0  0  0  0
   56.4760   21.7310   49.4060 C   0  0  0  0  0  0  0  0  0  0  0  0
   55.2470   22.7300   46.6130 C   0  0  0  0  0  0  0  0  0  0  0  0
   54.8000   21.4090   46.8120 O   0  0  0  0  0  0  0  0  0  0  0  0
   53.5340   21.0070   47.3230 C   0  0  0  0  0  0  0  0  0  0  0  0
   51.8912   24.3058   45.8850 H   0  0  0  0  0  0  0  0  0  0  0  0
   52.5129   24.9717   44.3369 H   0  0  0  0  0  0  0  0  0  0  0  0
   51.5247   23.4717   44.3369 H   0  0  0  0  0  0  0  0  0  0  0  0
   54.6412   25.6759   44.9528 H   0  0  0  0  0  0  0  0  0  0  0  0
   59.4813   29.3168   47.8167 H   0  0  0  0  0  0  0  0  0  0  0  0
   59.9842   29.3133   46.0966 H   0  0  0  0  0  0  0  0  0  0  0  0
   58.5968   32.9241   44.2834 H   0  0  0  0  0  0  0  0  0  0  0  0
   57.5249   32.7971   42.0322 H   0  0  0  0  0  0  0  0  0  0  0  0
   56.1657   30.7994   41.4038 H   0  0  0  0  0  0  0  0  0  0  0  0
   55.9358   28.8897   42.9946 H   0  0  0  0  0  0  0  0  0  0  0  0
   57.8044   24.7177   47.7324 H   0  0  0  0  0  0  0  0  0  0  0  0
   57.0348   22.1974   50.2307 H   0  0  0  0  0  0  0  0  0  0  0  0
   55.4157   22.0160   49.4742 H   0  0  0  0  0  0  0  0  0  0  0  0
   56.5667   20.6369   49.4742 H   0  0  0  0  0  0  0  0  0  0  0  0
   53.5627   21.0161   48.4226 H   0  0  0  0  0  0  0  0  0  0  0  0
   52.7586   21.7031   46.9707 H   0  0  0  0  0  0  0  0  0  0  0  0
   53.3022   19.9911   46.9707 H   0  0  0  0  0  0  0  0  0  0  0  0
  1  2  1  0
  2  3  1  0
  3  4  2  0
  4  5  1  0
  5  6  1  0
  6  7  1  0
  7  8  1  0
  8  9  2  0
  9 10  1  0
 10 11  2  0
  9 12  1  0
 12 13  1  0
 13 14  1  0
 14 15  2  0
 15 16  1  0
 16 17  2  0
 17 18  1  0
 18 19  2  0
  5 20  2  0
 20 21  1  0
 21 22  1  0
 22 23  1  0
 21 24  2  0
 24 25  1  0
 25 26  1  0
 24  3  1  0
 10  6  1  0
 19 14  1  0
 19  8  1  0
  1 27  1  0
  1 28  1  0
  1 29  1  0
  4 30  1  0
 12 31  1  0
 12 32  1  0
 15 33  1  0
 16 34  1  0
 17 35  1  0
 18 36  1  0
 20 37  1  0
 23 38  1  0
 23 39  1  0
 23 40  1  0
 26 41  1  0
 26 42  1  0
 26 43  1  0
M  CHG  1   7  -1
M  END
>  <UniqueID>  (52) 
46

>  <SMILES>  (52) 
COc1cc(-n2[n-]c3c(c2=O)CSc2ccccc2-3)cc(OC)c1OC

>  <Energy>  (52) 
93.49138143466693

>  <Genealogy>  (52) 
COc1cc(-n2[n-]c3c(c2=O)CSc2ccccc2-3)cc(OC)c1OC (protonated)
COc1cc(-n2[n-]c3c(c2=O)CSc2ccccc2-3)cc(OC)c1OC (3D coordinates assigned)
COc1cc(-n2[n-]c3c(c2=O)CSc2ccccc2-3)cc(OC)c1OC (nonaromatic ring conformer: 93.49138143466693 kcal/mol)

>  <smiles>  (52) 
COc1cc(-n2[nH]c3c(c2=O)CSc2ccccc2-3)cc(OC)c1OC

>  <score_type>  (52) 
oracle

>  <origin>  (52) 
adg

>  <m_score__min__energy>  (52) 
-8.5099999999999998

>  <m_primary>  (52) 
energy

$$$$
52:0
     RDKit          3D

 54 56  0  0  0  0  0  0  0  0999 V2000
   54.4640   29.3520   45.6300 H   0  0  0  0  0  0  0  0  0  0  0  0
   55.1390   29.3170   44.8340 N   0  0  0  0  0  0  0  0  0  0  0  0
   56.4980   29.7160   45.0050 C   0  0  0  0  0  0  0  0  0  0  0  0
   56.8760   30.8270   44.5440 O   0  0  0  0  0  0  0  0  0  0  0  0
   57.4860   28.8160   45.6410 C   0  0  0  0  0  0  0  0  0  0  0  0
   57.2430   27.4790   45.5860 N   0  0  0  0  0  0  0  0  0  0  0  0
   58.0450   26.5720   46.1990 C   0  0  0  0  0  0  0  0  0  0  0  0
   57.7420   25.3080   46.1220 N   0  0  0  0  0  0  0  0  0  0  0  0
   56.4410   24.7200   45.9470 C   0  0  0  0  0  0  0  0  0  0  0  0
   55.2780   25.4860   45.7670 C   0  0  0  0  0  0  0  0  0  0  0  0
   55.3449   26.5831   45.7222 H   0  0  0  0  0  0  0  0  0  0  0  0
   54.0700   24.8750   45.6480 N   0  0  0  0  0  0  0  0  0  0  0  0
   53.9190   23.5210   45.7140 C   0  0  0  0  0  0  0  0  0  0  0  0
   52.5950   22.9420   45.5780 N   0  0  0  0  0  0  0  0  0  0  0  0
   51.6380   23.4150   44.5600 C   0  0  0  0  0  0  0  0  0  0  0  0
   51.5348   22.6483   43.7780 H   0  0  0  0  0  0  0  0  0  0  0  0
   52.0168   24.3531   44.1283 H   0  0  0  0  0  0  0  0  0  0  0  0
   50.2720   23.6800   45.1840 C   0  0  0  0  0  0  0  0  0  0  0  0
   50.3602   23.6629   46.2803 H   0  0  0  0  0  0  0  0  0  0  0  0
   49.9063   24.6658   44.8609 H   0  0  0  0  0  0  0  0  0  0  0  0
   49.5642   22.9024   44.8609 H   0  0  0  0  0  0  0  0  0  0  0  0
   52.2150   21.8070   46.4370 C   0  0  0  0  0  0  0  0  0  0  0  0
   51.1941   21.4865   46.1820 H   0  0  0  0  0  0  0  0  0  0  0  0
   52.9249   20.9832   46.2711 H   0  0  0  0  0  0  0  0  0  0  0  0
   52.2620   22.2090   47.9110 C   0  0  0  0  0  0  0  0  0  0  0  0
   52.1571   21.3121   48.5392 H   0  0  0  0  0  0  0  0  0  0  0  0
   53.2234   22.6978   48.1273 H   0  0  0  0  0  0  0  0  0  0  0  0
   51.4393   22.9064   48.1273 H   0  0  0  0  0  0  0  0  0  0  0  0
   55.0630   22.7260   45.9140 C   0  0  0  0  0  0  0  0  0  0  0  0
   54.9715   21.6314   45.9723 H   0  0  0  0  0  0  0  0  0  0  0  0
   56.3140   23.3320   46.0380 C   0  0  0  0  0  0  0  0  0  0  0  0
   57.2065   22.7121   46.2086 H   0  0  0  0  0  0  0  0  0  0  0  0
   59.1130   27.0060   46.9170 N   0  0  0  0  0  0  0  0  0  0  0  0
   59.4170   28.3260   47.0010 C   0  0  0  0  0  0  0  0  0  0  0  0
   60.2903   28.6500   47.5861 H   0  0  0  0  0  0  0  0  0  0  0  0
   58.6240   29.2790   46.3460 C   0  0  0  0  0  0  0  0  0  0  0  0
   59.0510   30.6950   46.3490 C   0  0  0  0  0  0  0  0  0  0  0  0
   60.2780   30.9770   46.2410 O   0  0  0  0  0  0  0  0  0  0  0  0
   58.0850   31.7470   46.5020 N   0  0  0  0  0  0  0  0  0  0  0  0
   57.0750   31.4940   46.6080 H   0  0  0  0  0  0  0  0  0  0  0  0
   58.4780   33.1550   46.4230 C   0  0  0  0  0  0  0  0  0  0  0  0
   58.7755   33.3881   45.3900 H   0  0  0  0  0  0  0  0  0  0  0  0
   57.6220   33.7757   46.7265 H   0  0  0  0  0  0  0  0  0  0  0  0
   59.6330   33.4450   47.3460 C   0  0  0  0  0  0  0  0  0  0  0  0
   60.9290   33.6070   46.8180 C   0  0  0  0  0  0  0  0  0  0  0  0
   61.0934   33.5264   45.7333 H   0  0  0  0  0  0  0  0  0  0  0  0
   62.0070   33.8700   47.6690 C   0  0  0  0  0  0  0  0  0  0  0  0
   63.0175   33.9961   47.2531 H   0  0  0  0  0  0  0  0  0  0  0  0
   61.8010   33.9730   49.0510 C   0  0  0  0  0  0  0  0  0  0  0  0
   62.6490   34.1870   49.7182 H   0  0  0  0  0  0  0  0  0  0  0  0
   60.5180   33.8040   49.5840 C   0  0  0  0  0  0  0  0  0  0  0  0
   60.3593   33.8764   50.6701 H   0  0  0  0  0  0  0  0  0  0  0  0
   59.4380   33.5430   48.7350 C   0  0  0  0  0  0  0  0  0  0  0  0
   58.4301   33.4136   49.1562 H   0  0  0  0  0  0  0  0  0  0  0  0
  1  2  1  0
  2  3  1  0
  3  4  2  0
  3  5  1  0
  5  6  2  0
  6  7  1  0
  7  8  2  0
  8  9  1  0
  9 10  2  0
 10 11  1  0
 10 12  1  0
 12 13  2  0
 13 14  1  0
 14 15  1  0
 15 16  1  0
 15 17  1  0
 15 18  1  0
 18 19  1  0
 18 20  1  0
 18 21  1  0
 14 22  1  0
 22 23  1  0
 22 24  1  0
 22 25  1  0
 25 26  1  0
 25 27  1  0
 25 28  1  0
 13 29  1  0
 29 30  1  0
 29 31  2  0
 31 32  1  0
  7 33  1  0
 33 34  1  0
 34 35  1  0
 34 36  2  0
 36 37  1  0
 37 38  2  0
 37 39  1  0
 39 40  1  0
 39 41  1  0
 41 42  1  0
 41 43  1  0
 41 44  1  0
 44 45  2  0
 45 46  1  0
 45 47  1  0
 47 48  1  0
 47 49  2  0
 49 50  1  0
 49 51  1  0
 51 52  1  0
 51 53  2  0
 53 54  1  0
 36  5  1  0
 53 44  1  0
 31  9  1  0
M  CHG  2   2  -1  33  -1
M  END
>  <UniqueID>  (53) 
47

>  <SMILES>  (53) 
CCN(CC)c1ccc(/N=c2/nc(C([NH-])=O)c(C(=O)NCc3ccccc3)c[n-]2)cn1

>  <Energy>  (53) 
66.29985591037085

>  <Genealogy>  (53) 
CCN(CC)c1ccc(N=c2nc(C([NH-])=O)c(C(=O)NCc3ccccc3)c[n-]2)cn1 (protonated)
CCN(CC)c1ccc(/N=c2/nc(C([NH-])=O)c(C(=O)NCc3ccccc3)c[n-]2)cn1 (cis-trans isomerization)
CCN(CC)c1ccc(/N=c2/nc(C([NH-])=O)c(C(=O)NCc3ccccc3)c[n-]2)cn1 (3D coordinates assigned)
CCN(CC)c1ccc(/N=c2/nc(C([NH-])=O)c(C(=O)NCc3ccccc3)c[n-]2)cn1 (optimized conformer: 66.29985591037085 kcal/mol)

>  <smiles>  (53) 
CCN(CC)c1ccc(N=c2nc(C(N)=O)c(C(=O)NCc3ccccc3)c[nH]2)cn1

>  <score_type>  (53) 
oracle

>  <origin>  (53) 
adg

>  <m_score__min__energy>  (53) 
-11.76

>  <m_primary>  (53) 
energy

$$$$
53:0
     RDKit          3D

 27 29  0  0  0  0  0  0  0  0999 V2000
   56.6240   29.7850   42.6610 C   0  0  0  0  0  0  0  0  0  0  0  0
   56.0810   30.3980   43.9640 C   0  0  1  0  0  0  0  0  0  0  0  0
   55.5490   29.3380   44.9350 C   0  0  0  0  0  0  0  0  0  0  0  0
   56.5720   28.4030   45.4080 N   0  0  0  0  0  0  0  0  0  0  0  0
   56.3020   27.1540   45.8690 C   0  0  0  0  0  0  0  0  0  0  0  0
   55.1980   26.5750   45.6840 O   0  0  0  0  0  0  0  0  0  0  0  0
   57.3000   26.5900   46.5860 N   0  0  0  0  0  0  0  0  0  0  0  0
   58.2360   27.5540   46.5860 C   0  0  0  0  0  0  0  0  0  0  0  0
   59.4640   27.5090   47.2340 C   0  0  0  0  0  0  0  0  0  0  0  0
   60.2960   28.6320   47.1380 C   0  0  0  0  0  0  0  0  0  0  0  0
   59.8960   29.7520   46.3850 C   0  0  0  0  0  0  0  0  0  0  0  0
   58.6400   29.7910   45.7310 C   0  0  0  0  0  0  0  0  0  0  0  0
   57.8150   28.6530   45.8760 C   0  0  0  0  0  0  0  0  0  0  0  0
   58.4020   30.9020   44.7350 C   0  0  0  0  0  0  0  0  0  0  0  0
   57.0060   31.3380   44.6250 N   0  0  0  0  0  0  0  0  0  0  0  0
   57.3356   28.9817   42.9024 H   0  0  0  0  0  0  0  0  0  0  0  0
   55.7899   29.3721   42.0746 H   0  0  0  0  0  0  0  0  0  0  0  0
   57.1346   30.5631   42.0746 H   0  0  0  0  0  0  0  0  0  0  0  0
   55.2245   31.0107   43.6461 H   0  0  0  0  0  0  0  0  0  0  0  0
   55.1187   29.8516   45.8074 H   0  0  0  0  0  0  0  0  0  0  0  0
   54.8031   28.7454   44.3850 H   0  0  0  0  0  0  0  0  0  0  0  0
   59.7730   26.6204   47.8040 H   0  0  0  0  0  0  0  0  0  0  0  0
   61.2674   28.6386   47.6540 H   0  0  0  0  0  0  0  0  0  0  0  0
   60.5729   30.6151   46.3027 H   0  0  0  0  0  0  0  0  0  0  0  0
   59.0088   31.7685   45.0368 H   0  0  0  0  0  0  0  0  0  0  0  0
   58.6806   30.5006   43.7495 H   0  0  0  0  0  0  0  0  0  0  0  0
   56.6460   31.6070   45.5710 H   0  0  0  0  0  0  0  0  0  0  0  0
  1  2  1  0
  2  3  1  0
  3  4  1  0
  4  5  1  0
  5  6  2  0
  5  7  1  0
  7  8  1  0
  8  9  2  0
  9 10  1  0
 10 11  2  0
 11 12  1  0
 12 13  2  0
 12 14  1  0
 14 15  1  0
 15  2  1  0
 13  4  1  0
 13  8  1  0
  1 16  1  0
  1 17  1  0
  1 18  1  0
  2 19  1  6
  3 20  1  0
  3 21  1  0
  9 22  1  0
 10 23  1  0
 11 24  1  0
 14 25  1  0
 14 26  1  0
 15 27  1  0
M  CHG  1   7  -1
M  END
>  <UniqueID>  (54) 
48

>  <SMILES>  (54) 
C[C@H]1Cn2c(=O)[n-]c3cccc(c32)CN1

>  <Energy>  (54) 
78.56200947010403

>  <Genealogy>  (54) 
CC1Cn2c(=O)[n-]c3cccc(c32)CN1 (protonated)
C[C@H]1Cn2c(=O)[n-]c3cccc(c32)CN1 (chirality)
C[C@H]1Cn2c(=O)[n-]c3cccc(c32)CN1 (3D coordinates assigned)
C[C@H]1Cn2c(=O)[n-]c3cccc(c32)CN1 (nonaromatic ring conformer: 78.56200947010403 kcal/mol)

>  <smiles>  (54) 
CC1Cn2c(=O)[nH]c3cccc(c32)CN1

>  <score_type>  (54) 
oracle

>  <origin>  (54) 
adg

>  <m_score__min__energy>  (54) 
-6.1299999999999999

>  <m_primary>  (54) 
energy

$$$$
54:0
     RDKit          3D

 35 37  0  0  0  0  0  0  0  0999 V2000
   58.1370   26.8500   42.6550 C   0  0  0  0  0  0  0  0  0  0  0  0
   58.5690   27.7750   43.7910 C   0  0  0  0  0  0  0  0  0  0  0  0
   57.4140   28.1080   44.7460 C   0  0  0  0  0  0  0  0  0  0  0  0
   57.2600   29.5880   44.9390 C   0  0  0  0  0  0  0  0  0  0  0  0
   56.1110   30.1030   44.8700 O   0  0  0  0  0  0  0  0  0  0  0  0
   58.4180   30.4140   45.1290 N   0  0  0  0  0  0  0  0  0  0  0  0
   58.3460   31.8200   45.4150 C   0  0  0  0  0  0  0  0  0  0  0  0
   57.4890   32.6280   44.6530 C   0  0  0  0  0  0  0  0  0  0  0  0
   57.4300   34.0060   44.8770 C   0  0  0  0  0  0  0  0  0  0  0  0
   58.2090   34.5870   45.8780 C   0  0  0  0  0  0  0  0  0  0  0  0
   59.0710   33.7940   46.6430 C   0  0  0  0  0  0  0  0  0  0  0  0
   59.1880   32.4180   46.3740 C   0  0  0  0  0  0  0  0  0  0  0  0
   60.2010   31.6600   46.9790 O   0  0  0  0  0  0  0  0  0  0  0  0
   61.3770   32.2350   47.4760 C   0  0  0  0  0  0  0  0  0  0  0  0
   62.5430   31.4630   47.5330 C   0  0  0  0  0  0  0  0  0  0  0  0
   63.7590   32.0550   47.8910 C   0  0  0  0  0  0  0  0  0  0  0  0
   63.8110   33.4170   48.2000 C   0  0  0  0  0  0  0  0  0  0  0  0
   62.6430   34.1840   48.1820 C   0  0  0  0  0  0  0  0  0  0  0  0
   61.4200   33.5910   47.8440 C   0  0  0  0  0  0  0  0  0  0  0  0
   59.8960   34.5060   48.0660 S   0  0  0  0  0  0  0  0  0  0  0  0
   57.7069   25.9290   43.0755 H   0  0  0  0  0  0  0  0  0  0  0  0
   57.3827   27.3574   42.0357 H   0  0  0  0  0  0  0  0  0  0  0  0
   59.0103   26.5973   42.0357 H   0  0  0  0  0  0  0  0  0  0  0  0
   59.3693   27.2824   44.3628 H   0  0  0  0  0  0  0  0  0  0  0  0
   58.9157   28.7177   43.3425 H   0  0  0  0  0  0  0  0  0  0  0  0
   56.4796   27.7041   44.3292 H   0  0  0  0  0  0  0  0  0  0  0  0
   57.6380   27.6570   45.7240 H   0  0  0  0  0  0  0  0  0  0  0  0
   59.3550   30.0050   44.9100 H   0  0  0  0  0  0  0  0  0  0  0  0
   56.8592   32.1737   43.8739 H   0  0  0  0  0  0  0  0  0  0  0  0
   56.7679   34.6340   44.2628 H   0  0  0  0  0  0  0  0  0  0  0  0
   58.1454   35.6690   46.0658 H   0  0  0  0  0  0  0  0  0  0  0  0
   62.5033   30.3896   47.2961 H   0  0  0  0  0  0  0  0  0  0  0  0
   64.6753   31.4477   47.9293 H   0  0  0  0  0  0  0  0  0  0  0  0
   64.7722   33.8857   48.4576 H   0  0  0  0  0  0  0  0  0  0  0  0
   62.6842   35.2541   48.4334 H   0  0  0  0  0  0  0  0  0  0  0  0
  1  2  1  0
  2  3  1  0
  3  4  1  0
  4  5  2  0
  4  6  1  0
  6  7  1  0
  7  8  2  0
  8  9  1  0
  9 10  2  0
 10 11  1  0
 11 12  2  0
 12 13  1  0
 13 14  1  0
 14 15  2  0
 15 16  1  0
 16 17  2  0
 17 18  1  0
 18 19  2  0
 19 20  1  0
 12  7  1  0
 19 14  1  0
 20 11  1  0
  1 21  1  0
  1 22  1  0
  1 23  1  0
  2 24  1  0
  2 25  1  0
  3 26  1  0
  3 27  1  0
  6 28  1  0
  8 29  1  0
  9 30  1  0
 10 31  1  0
 15 32  1  0
 16 33  1  0
 17 34  1  0
 18 35  1  0
M  END
>  <UniqueID>  (55) 
49

>  <SMILES>  (55) 
CCCC(=O)Nc1cccc2c1Oc1ccccc1S2

>  <Energy>  (55) 
51.82626624482889

>  <Genealogy>  (55) 
CCCC(=O)Nc1cccc2c1Oc1ccccc1S2 (3D coordinates assigned)
CCCC(=O)Nc1cccc2c1Oc1ccccc1S2 (nonaromatic ring conformer: 51.82626624482889 kcal/mol)

>  <smiles>  (55) 
CCCC(=O)Nc1cccc2c1Oc1ccccc1S2

>  <score_type>  (55) 
oracle

>  <origin>  (55) 
adg

>  <m_score__min__energy>  (55) 
-7.6299999999999999

>  <m_primary>  (55) 
energy

$$$$
55:0
     RDKit          3D

 42 46  0  0  0  0  0  0  0  0999 V2000
   58.1065   27.0355   43.6053 H   0  0  0  0  0  0  0  0  0  0  0  0
   57.7190   27.3670   44.5800 C   0  0  0  0  0  0  0  0  0  0  0  0
   57.5520   26.3550   45.6430 C   0  0  0  0  0  0  0  0  0  0  0  0
   56.2780   26.0710   46.1530 C   0  0  0  0  0  0  0  0  0  0  0  0
   55.1610   26.7590   45.6920 O   0  0  0  0  0  0  0  0  0  0  0  0
   56.1270   25.1230   47.1140 N   0  0  0  0  0  0  0  0  0  0  0  0
   57.1930   24.4270   47.5860 C   0  0  0  0  0  0  0  0  0  0  0  0
   57.0290   23.5570   48.4800 O   0  0  0  0  0  0  0  0  0  0  0  0
   58.4340   24.6650   47.0900 N   0  0  0  0  0  0  0  0  0  0  0  0
   58.6360   25.6020   46.1270 C   0  0  0  0  0  0  0  0  0  0  0  0
   59.7980   25.7770   45.6710 O   0  0  0  0  0  0  0  0  0  0  0  0
   57.4260   28.6650   44.7340 C   0  0  0  0  0  0  0  0  0  0  0  0
   56.3500   29.3390   44.1640 C   0  0  0  0  0  0  0  0  0  0  0  0
   55.6064   28.8867   43.4914 H   0  0  0  0  0  0  0  0  0  0  0  0
   56.3540   30.6340   44.5600 N   0  0  0  0  0  0  0  0  0  0  0  0
   57.3940   30.7940   45.3640 N   0  0  0  0  0  0  0  0  0  0  0  0
   57.8000   31.9130   46.0310 C   0  0  0  0  0  0  0  0  0  0  0  0
   57.1940   33.0620   45.9340 N   0  0  0  0  0  0  0  0  0  0  0  0
   57.7120   34.2650   45.2880 C   0  0  0  0  0  0  0  0  0  0  0  0
   56.7469   34.7449   45.0681 H   0  0  0  0  0  0  0  0  0  0  0  0
   58.9940   34.0420   44.5040 C   0  0  0  0  0  0  0  0  0  0  0  0
   59.3894   33.0238   44.3737 H   0  0  0  0  0  0  0  0  0  0  0  0
   59.3466   34.3073   43.4964 H   0  0  0  0  0  0  0  0  0  0  0  0
   59.0410   34.7080   45.8720 C   0  0  0  0  0  0  0  0  0  0  0  0
   59.4708   34.1713   46.7306 H   0  0  0  0  0  0  0  0  0  0  0  0
   59.4421   35.6547   46.2631 H   0  0  0  0  0  0  0  0  0  0  0  0
   58.8930   31.8110   46.8360 N   0  0  0  0  0  0  0  0  0  0  0  0
   59.5660   30.6250   46.9690 C   0  0  0  0  0  0  0  0  0  0  0  0
   60.5940   30.5190   47.7600 N   0  0  0  0  0  0  0  0  0  0  0  0
   61.6520   31.4780   47.9340 C   0  0  0  0  0  0  0  0  0  0  0  0
   62.5830   31.2690   48.9610 C   0  0  0  0  0  0  0  0  0  0  0  0
   62.4775   30.3998   49.6269 H   0  0  0  0  0  0  0  0  0  0  0  0
   63.6450   32.1600   49.1430 C   0  0  0  0  0  0  0  0  0  0  0  0
   64.3620   31.9999   49.9617 H   0  0  0  0  0  0  0  0  0  0  0  0
   63.7970   33.2530   48.2870 C   0  0  0  0  0  0  0  0  0  0  0  0
   64.6279   33.9580   48.4374 H   0  0  0  0  0  0  0  0  0  0  0  0
   62.8940   33.4510   47.2400 C   0  0  0  0  0  0  0  0  0  0  0  0
   63.0209   34.3058   46.5594 H   0  0  0  0  0  0  0  0  0  0  0  0
   61.8290   32.5640   47.0560 C   0  0  0  0  0  0  0  0  0  0  0  0
   61.1272   32.7152   46.2225 H   0  0  0  0  0  0  0  0  0  0  0  0
   59.1320   29.5210   46.3000 N   0  0  0  0  0  0  0  0  0  0  0  0
   58.0520   29.6370   45.4910 C   0  0  0  0  0  0  0  0  0  0  0  0
  1  2  1  0
  2  3  1  0
  3  4  2  0
  4  5  1  0
  4  6  1  0
  6  7  1  0
  7  8  2  0
  7  9  1  0
  9 10  1  0
 10 11  2  0
  2 12  2  0
 12 13  1  0
 13 14  1  0
 13 15  2  0
 15 16  1  0
 16 17  1  0
 17 18  2  3
 18 19  1  0
 19 20  1  0
 19 21  1  0
 21 22  1  0
 21 23  1  0
 21 24  1  0
 24 25  1  0
 24 26  1  0
 17 27  1  0
 27 28  1  0
 28 29  2  0
 29 30  1  0
 30 31  2  0
 31 32  1  0
 31 33  1  0
 33 34  1  0
 33 35  2  0
 35 36  1  0
 35 37  1  0
 37 38  1  0
 37 39  2  0
 39 40  1  0
 28 41  1  0
 41 42  2  0
 10  3  1  0
 42 12  1  0
 42 16  1  0
 24 19  1  0
 39 30  1  0
M  CHG  4   5  -1   6  -1   9  -1  27  -1
M  END
>  <UniqueID>  (56) 
50

>  <SMILES>  (56) 
O=c1[n-]c([O-])c(/C=c2/cnn3c(=NC4CC4)[n-]/c(=N\c4ccccc4)nc23)c(=O)[n-]1

>  <Energy>  (56) 
369.8443784577837

>  <Genealogy>  (56) 
O=c1[n-]c([O-])c(C=c2cnn3c(=NC4CC4)[n-]c(=Nc4ccccc4)nc23)c(=O)[n-]1 (protonated)
O=c1[n-]c([O-])c(/C=c2/cnn3c(=NC4CC4)[n-]/c(=N\c4ccccc4)nc23)c(=O)[n-]1 (cis-trans isomerization)
O=c1[n-]c([O-])c(/C=c2/cnn3c(=NC4CC4)[n-]/c(=N\c4ccccc4)nc23)c(=O)[n-]1 (3D coordinates assigned)
O=c1[n-]c([O-])c(/C=c2/cnn3c(=NC4CC4)[n-]/c(=N\c4ccccc4)nc23)c(=O)[n-]1 (nonaromatic ring conformer: 369.8443784577837 kcal/mol)

>  <smiles>  (56) 
O=c1[nH]c(O)c(C=c2cnn3c(=NC4CC4)[nH]c(=Nc4ccccc4)nc23)c(=O)[nH]1

>  <score_type>  (56) 
oracle

>  <origin>  (56) 
adg

>  <m_score__min__energy>  (56) 
-17.350000000000001

>  <m_primary>  (56) 
energy

$$$$
56:0
     RDKit          3D

 36 38  0  0  0  0  0  0  0  0999 V2000
   57.0350   19.8030   46.4670 C   0  0  0  0  0  0  0  0  0  0  0  0
   55.3990   20.1560   45.7540 S   0  0  0  0  0  0  0  0  0  0  0  0
   55.9480   21.6620   44.9610 C   0  0  0  0  0  0  0  0  0  0  0  0
   56.4060   22.7280   45.6510 N   0  0  0  0  0  0  0  0  0  0  0  0
   56.7070   23.6280   44.6970 C   0  0  0  0  0  0  0  0  0  0  0  0
   57.2580   24.9760   44.9780 C   0  0  0  0  0  0  0  0  0  0  0  0
   57.7470   25.7840   43.9360 C   0  0  0  0  0  0  0  0  0  0  0  0
   58.2540   27.0590   44.2020 C   0  0  0  0  0  0  0  0  0  0  0  0
   58.2690   27.5550   45.5110 C   0  0  0  0  0  0  0  0  0  0  0  0
   58.8090   28.9010   45.7880 C   0  0  0  0  0  0  0  0  0  0  0  0
   60.0360   29.0010   46.4640 C   0  0  0  0  0  0  0  0  0  0  0  0
   60.5740   30.2510   46.7750 C   0  0  0  0  0  0  0  0  0  0  0  0
   59.8950   31.4140   46.4130 C   0  0  0  0  0  0  0  0  0  0  0  0
   58.6810   31.3310   45.7290 C   0  0  0  0  0  0  0  0  0  0  0  0
   58.1290   30.0830   45.3980 C   0  0  0  0  0  0  0  0  0  0  0  0
   56.6150   30.0400   44.4790 S   0  0  0  0  0  0  0  0  0  0  0  0
   55.5390   28.8870   45.1840 N   0  0  0  0  0  0  0  0  0  0  0  0
   55.9660   31.3960   44.5020 O   0  0  0  0  0  0  0  0  0  0  0  0
   56.8880   29.6700   43.0470 O   0  0  0  0  0  0  0  0  0  0  0  0
   57.7910   26.7530   46.5560 C   0  0  0  0  0  0  0  0  0  0  0  0
   57.2820   25.4780   46.2950 C   0  0  0  0  0  0  0  0  0  0  0  0
   56.8370   24.7280   47.3350 F   0  0  0  0  0  0  0  0  0  0  0  0
   56.4260   23.0730   43.4640 C   0  0  0  0  0  0  0  0  0  0  0  0
   56.6460   23.6390   42.2520 F   0  0  0  0  0  0  0  0  0  0  0  0
   55.9490   21.8280   43.6230 N   0  0  0  0  0  0  0  0  0  0  0  0
   56.9674   19.8176   47.5648 H   0  0  0  0  0  0  0  0  0  0  0  0
   57.3740   18.8110   46.1336 H   0  0  0  0  0  0  0  0  0  0  0  0
   57.7528   20.5669   46.1336 H   0  0  0  0  0  0  0  0  0  0  0  0
   57.7303   25.4090   42.9020 H   0  0  0  0  0  0  0  0  0  0  0  0
   58.6432   27.6759   43.3786 H   0  0  0  0  0  0  0  0  0  0  0  0
   60.5772   28.0873   46.7506 H   0  0  0  0  0  0  0  0  0  0  0  0
   61.5348   30.3187   47.3063 H   0  0  0  0  0  0  0  0  0  0  0  0
   60.3165   32.3978   46.6667 H   0  0  0  0  0  0  0  0  0  0  0  0
   58.1513   32.2527   45.4464 H   0  0  0  0  0  0  0  0  0  0  0  0
   54.6010   29.3440   45.2490 H   0  0  0  0  0  0  0  0  0  0  0  0
   57.8166   27.1298   47.5891 H   0  0  0  0  0  0  0  0  0  0  0  0
  1  2  1  0
  2  3  1  0
  3  4  2  0
  4  5  1  0
  5  6  1  0
  6  7  2  0
  7  8  1  0
  8  9  2  0
  9 10  1  0
 10 11  2  0
 11 12  1  0
 12 13  2  0
 13 14  1  0
 14 15  2  0
 15 16  1  0
 16 17  1  0
 16 18  2  0
 16 19  2  0
  9 20  1  0
 20 21  2  0
 21 22  1  0
  5 23  2  0
 23 24  1  0
 23 25  1  0
 25  3  1  0
 21  6  1  0
 15 10  1  0
  1 26  1  0
  1 27  1  0
  1 28  1  0
  7 29  1  0
  8 30  1  0
 11 31  1  0
 12 32  1  0
 13 33  1  0
 14 34  1  0
 17 35  1  0
 20 36  1  0
M  CHG  2  17  -1  25  -1
M  END
>  <UniqueID>  (57) 
51

>  <SMILES>  (57) 
CSc1nc(-c2ccc(-c3ccccc3S([NH-])(=O)=O)cc2F)c(F)[n-]1

>  <Energy>  (57) 
74.950248181778

>  <Genealogy>  (57) 
CSc1nc(-c2ccc(-c3ccccc3S([NH-])(=O)=O)cc2F)c(F)[n-]1 (protonated)
CSc1nc(-c2ccc(-c3ccccc3S([NH-])(=O)=O)cc2F)c(F)[n-]1 (3D coordinates assigned)
CSc1nc(-c2ccc(-c3ccccc3S([NH-])(=O)=O)cc2F)c(F)[n-]1 (optimized conformer: 74.950248181778 kcal/mol)

>  <smiles>  (57) 
CSc1nc(-c2ccc(-c3ccccc3S(N)(=O)=O)cc2F)c(F)[nH]1

>  <score_type>  (57) 
oracle

>  <origin>  (57) 
adg

>  <m_score__min__energy>  (57) 
-11.68

>  <m_primary>  (57) 
energy

$$$$
57:0
     RDKit          3D

 55 58  0  0  0  0  0  0  0  0999 V2000
   60.5000   32.2990   49.6990 C   0  0  0  0  0  0  0  0  0  0  0  0
   60.4830   30.9840   48.9410 C   0  0  0  0  0  0  0  0  0  0  0  0
   60.5140   30.9450   47.5270 C   0  0  0  0  0  0  0  0  0  0  0  0
   60.7270   32.2530   46.7620 C   0  0  0  0  0  0  0  0  0  0  0  0
   59.4430   32.8810   46.2640 C   0  0  0  0  0  0  0  0  0  0  0  0
   58.1790   32.5290   46.7830 C   0  0  0  0  0  0  0  0  0  0  0  0
   57.0240   33.1800   46.3380 C   0  0  0  0  0  0  0  0  0  0  0  0
   57.1120   34.1920   45.3790 C   0  0  0  0  0  0  0  0  0  0  0  0
   58.3610   34.5590   44.8650 C   0  0  0  0  0  0  0  0  0  0  0  0
   59.5200   33.9120   45.3080 C   0  0  0  0  0  0  0  0  0  0  0  0
   60.4140   29.7270   46.8770 N   0  0  0  0  0  0  0  0  0  0  0  0
   60.2950   29.6470   45.4000 C   0  0  0  0  0  0  0  0  0  0  0  0
   58.8580   29.5620   44.9500 C   0  0  0  0  0  0  0  0  0  0  0  0
   58.3250   30.5460   44.1000 C   0  0  0  0  0  0  0  0  0  0  0  0
   56.9770   30.5140   43.7430 C   0  0  0  0  0  0  0  0  0  0  0  0
   56.1430   29.5130   44.2440 C   0  0  0  0  0  0  0  0  0  0  0  0
   56.6570   28.5360   45.1050 C   0  0  0  0  0  0  0  0  0  0  0  0
   55.8350   27.5280   45.6140 O   0  0  0  0  0  0  0  0  0  0  0  0
   56.2710   26.2290   45.9220 C   0  0  0  0  0  0  0  0  0  0  0  0
   55.6760   25.1410   45.2770 C   0  0  0  0  0  0  0  0  0  0  0  0
   56.1660   23.8450   45.4790 C   0  0  0  0  0  0  0  0  0  0  0  0
   57.2570   23.6300   46.3250 C   0  0  0  0  0  0  0  0  0  0  0  0
   57.8250   24.7040   47.0110 C   0  0  0  0  0  0  0  0  0  0  0  0
   57.3350   25.9960   46.8120 C   0  0  0  0  0  0  0  0  0  0  0  0
   58.0110   28.5590   45.4510 C   0  0  0  0  0  0  0  0  0  0  0  0
   60.3910   28.5590   47.6030 C   0  0  0  0  0  0  0  0  0  0  0  0
   60.3320   27.4450   47.0060 O   0  0  0  0  0  0  0  0  0  0  0  0
   60.4270   28.5790   48.9700 N   0  0  0  0  0  0  0  0  0  0  0  0
   60.4000   27.3060   49.7230 C   0  0  0  0  0  0  0  0  0  0  0  0
   60.4060   29.7680   49.6430 C   0  0  0  0  0  0  0  0  0  0  0  0
   60.3200   29.7720   50.9060 O   0  0  0  0  0  0  0  0  0  0  0  0
   60.4974   32.0988   50.7806 H   0  0  0  0  0  0  0  0  0  0  0  0
   61.4055   32.8640   49.4328 H   0  0  0  0  0  0  0  0  0  0  0  0
   59.6094   32.8872   49.4328 H   0  0  0  0  0  0  0  0  0  0  0  0
   61.2276   32.9690   47.4304 H   0  0  0  0  0  0  0  0  0  0  0  0
   61.3329   32.0129   45.8759 H   0  0  0  0  0  0  0  0  0  0  0  0
   58.1016   31.7373   47.5427 H   0  0  0  0  0  0  0  0  0  0  0  0
   56.0427   32.8941   46.7446 H   0  0  0  0  0  0  0  0  0  0  0  0
   56.2012   34.6995   45.0285 H   0  0  0  0  0  0  0  0  0  0  0  0
   58.4317   35.3573   44.1116 H   0  0  0  0  0  0  0  0  0  0  0  0
   60.4993   34.2112   44.9061 H   0  0  0  0  0  0  0  0  0  0  0  0
   60.7524   30.5445   44.9582 H   0  0  0  0  0  0  0  0  0  0  0  0
   60.8084   28.7326   45.0680 H   0  0  0  0  0  0  0  0  0  0  0  0
   58.9743   31.3457   43.7141 H   0  0  0  0  0  0  0  0  0  0  0  0
   56.5703   31.2791   43.0653 H   0  0  0  0  0  0  0  0  0  0  0  0
   55.0800   29.4918   43.9618 H   0  0  0  0  0  0  0  0  0  0  0  0
   54.8186   25.3037   44.6074 H   0  0  0  0  0  0  0  0  0  0  0  0
   55.6906   22.9935   44.9701 H   0  0  0  0  0  0  0  0  0  0  0  0
   57.6669   22.6169   46.4498 H   0  0  0  0  0  0  0  0  0  0  0  0
   58.6584   24.5328   47.7082 H   0  0  0  0  0  0  0  0  0  0  0  0
   57.7851   26.8394   47.3561 H   0  0  0  0  0  0  0  0  0  0  0  0
   58.4166   27.7862   46.1205 H   0  0  0  0  0  0  0  0  0  0  0  0
   60.4045   27.5183   50.8023 H   0  0  0  0  0  0  0  0  0  0  0  0
   59.4898   26.7456   49.4633 H   0  0  0  0  0  0  0  0  0  0  0  0
   61.2857   26.7075   49.4633 H   0  0  0  0  0  0  0  0  0  0  0  0
  1  2  1  0
  2  3  2  0
  3  4  1  0
  4  5  1  0
  5  6  2  0
  6  7  1  0
  7  8  2  0
  8  9  1  0
  9 10  2  0
  3 11  1  0
 11 12  1  0
 12 13  1  0
 13 14  2  0
 14 15  1  0
 15 16  2  0
 16 17  1  0
 17 18  1  0
 18 19  1  0
 19 20  2  0
 20 21  1  0
 21 22  2  0
 22 23  1  0
 23 24  2  0
 17 25  2  0
 11 26  1  0
 26 27  2  0
 26 28  1  0
 28 29  1  0
 28 30  1  0
 30 31  2  0
 30  2  1  0
 10  5  1  0
 25 13  1  0
 24 19  1  0
  1 32  1  0
  1 33  1  0
  1 34  1  0
  4 35  1  0
  4 36  1  0
  6 37  1  0
  7 38  1  0
  8 39  1  0
  9 40  1  0
 10 41  1  0
 12 42  1  0
 12 43  1  0
 14 44  1  0
 15 45  1  0
 16 46  1  0
 20 47  1  0
 21 48  1  0
 22 49  1  0
 23 50  1  0
 24 51  1  0
 25 52  1  0
 29 53  1  0
 29 54  1  0
 29 55  1  0
M  END
>  <UniqueID>  (58) 
52

>  <SMILES>  (58) 
Cc1c(Cc2ccccc2)n(Cc2cccc(Oc3ccccc3)c2)c(=O)n(C)c1=O

>  <Energy>  (58) 
80.99335779493846

>  <Genealogy>  (58) 
Cc1c(Cc2ccccc2)n(Cc2cccc(Oc3ccccc3)c2)c(=O)n(C)c1=O (3D coordinates assigned)
Cc1c(Cc2ccccc2)n(Cc2cccc(Oc3ccccc3)c2)c(=O)n(C)c1=O (optimized conformer: 80.99335779493846 kcal/mol)

>  <smiles>  (58) 
Cc1c(Cc2ccccc2)n(Cc2cccc(Oc3ccccc3)c2)c(=O)n(C)c1=O

>  <score_type>  (58) 
oracle

>  <origin>  (58) 
adg

>  <m_score__min__energy>  (58) 
-8.9499999999999993

>  <m_primary>  (58) 
energy

$$$$
58:0
     RDKit          3D

 31 33  0  0  0  0  0  0  0  0999 V2000
   55.2041   32.6351   51.7094 H   0  0  0  0  0  0  0  0  0  0  0  0
   55.4150   31.5900   51.9800 C   0  0  0  0  0  0  0  0  0  0  0  0
   56.6630   31.0540   51.9180 N   0  0  0  0  0  0  0  0  0  0  0  0
   56.6800   29.7630   52.3130 C   0  0  0  0  0  0  0  0  0  0  0  0
   57.7780   29.0620   52.3180 N   0  0  0  0  0  0  0  0  0  0  0  0
   59.0400   29.3930   51.7180 C   0  0  0  0  0  0  0  0  0  0  0  0
   59.8070   28.4530   51.3840 O   0  0  0  0  0  0  0  0  0  0  0  0
   59.3700   30.7520   51.3870 N   0  0  0  0  0  0  0  0  0  0  0  0
   59.3970   31.3210   50.2130 C   0  0  0  0  0  0  0  0  0  0  0  0
   60.5230   31.1170   49.4040 C   0  0  0  0  0  0  0  0  0  0  0  0
   61.3541   30.4922   49.7630 H   0  0  0  0  0  0  0  0  0  0  0  0
   60.5870   31.7080   48.1430 C   0  0  0  0  0  0  0  0  0  0  0  0
   61.4729   31.5588   47.5083 H   0  0  0  0  0  0  0  0  0  0  0  0
   59.5260   32.4880   47.6890 C   0  0  0  0  0  0  0  0  0  0  0  0
   59.5698   32.9651   46.6988 H   0  0  0  0  0  0  0  0  0  0  0  0
   58.4070   32.6570   48.5050 C   0  0  0  0  0  0  0  0  0  0  0  0
   57.5607   33.2647   48.1522 H   0  0  0  0  0  0  0  0  0  0  0  0
   58.3550   32.0750   49.7350 N   0  0  0  0  0  0  0  0  0  0  0  0
   57.4730   32.1960   50.2740 H   0  0  0  0  0  0  0  0  0  0  0  0
   55.1390   29.2270   52.7530 S   0  0  0  0  0  0  0  0  0  0  0  0
   54.4250   30.7120   52.4130 C   0  0  0  0  0  0  0  0  0  0  0  0
   52.9890   31.0540   52.6440 C   0  0  0  0  0  0  0  0  0  0  0  0
   52.5451   30.3185   53.3310 H   0  0  0  0  0  0  0  0  0  0  0  0
   52.9230   32.0606   53.0827 H   0  0  0  0  0  0  0  0  0  0  0  0
   52.2440   31.0330   51.3460 C   0  0  0  0  0  0  0  0  0  0  0  0
   52.4250   29.8680   50.1430 S   0  0  0  0  0  0  0  0  0  0  0  0
   51.3620   30.6560   49.1060 C   0  0  0  0  0  0  0  0  0  0  0  0
   51.0520   30.2420   47.9600 O   0  0  0  0  0  0  0  0  0  0  0  0
   50.8710   31.7980   49.6330 N   0  0  0  0  0  0  0  0  0  0  0  0
   51.3680   32.0120   50.8790 C   0  0  0  0  0  0  0  0  0  0  0  0
   51.0220   33.1350   51.6200 O   0  0  0  0  0  0  0  0  0  0  0  0
  1  2  1  0
  2  3  1  0
  3  4  1  0
  4  5  2  0
  5  6  1  0
  6  7  2  0
  6  8  1  0
  8  9  2  0
  9 10  1  0
 10 11  1  0
 10 12  2  0
 12 13  1  0
 12 14  1  0
 14 15  1  0
 14 16  2  0
 16 17  1  0
 16 18  1  0
 18 19  1  0
  4 20  1  0
 20 21  1  0
 21 22  1  0
 22 23  1  0
 22 24  1  0
 22 25  1  0
 25 26  1  0
 26 27  1  0
 27 28  2  0
 27 29  1  0
 29 30  1  0
 30 31  1  0
 21  2  2  0
 30 25  2  0
 18  9  1  0
M  CHG  3   3  -1  29  -1  31  -1
M  END
>  <UniqueID>  (59) 
53

>  <SMILES>  (59) 
O=C(/N=c1/cccc[nH]1)/N=c1/[n-]cc(Cc2sc(=O)[n-]c2[O-])s1

>  <Energy>  (59) 
103.13354753847354

>  <Genealogy>  (59) 
O=C(N=c1cccc[nH]1)N=c1[n-]cc(Cc2sc(=O)[n-]c2[O-])s1 (protonated)
O=C(/N=c1/cccc[nH]1)/N=c1/[n-]cc(Cc2sc(=O)[n-]c2[O-])s1 (cis-trans isomerization)
O=C(/N=c1/cccc[nH]1)/N=c1/[n-]cc(Cc2sc(=O)[n-]c2[O-])s1 (3D coordinates assigned)
O=C(/N=c1/cccc[nH]1)/N=c1/[n-]cc(Cc2sc(=O)[n-]c2[O-])s1 (optimized conformer: 103.13354753847354 kcal/mol)

>  <smiles>  (59) 
O=C(N=c1cccc[nH]1)N=c1[nH]cc(Cc2sc(=O)[nH]c2O)s1

>  <score_type>  (59) 
oracle

>  <origin>  (59) 
adg

>  <m_score__min__energy>  (59) 
-15.52

>  <m_primary>  (59) 
energy

$$$$
59:0
     RDKit          3D

 58 61  0  0  0  0  0  0  0  0999 V2000
   63.4250   34.2150   46.0620 C   0  0  0  0  0  0  0  0  0  0  0  0
   63.5840   34.2080   47.4780 O   0  0  0  0  0  0  0  0  0  0  0  0
   63.1990   33.1490   48.3130 C   0  0  0  0  0  0  0  0  0  0  0  0
   63.2150   33.2500   49.7170 C   0  0  0  0  0  0  0  0  0  0  0  0
   62.8290   32.1610   50.5050 C   0  0  0  0  0  0  0  0  0  0  0  0
   62.4420   30.9560   49.9090 C   0  0  0  0  0  0  0  0  0  0  0  0
   62.0360   29.8640   50.7470 N   0  0  0  0  0  0  0  0  0  0  0  0
   60.8970   29.0170   50.5490 C   0  0  0  0  0  0  0  0  0  0  0  0
   59.8850   29.1820   51.2790 O   0  0  0  0  0  0  0  0  0  0  0  0
   60.9000   27.9130   49.5740 C   0  0  0  0  0  0  0  0  0  0  0  0
   61.0230   26.7190   49.9620 O   0  0  0  0  0  0  0  0  0  0  0  0
   60.7510   28.2020   48.2130 O   0  0  0  0  0  0  0  0  0  0  0  0
   59.5890   27.9220   47.4830 C   0  0  0  0  0  0  0  0  0  0  0  0
   58.9520   26.6990   47.7140 C   0  0  0  0  0  0  0  0  0  0  0  0
   57.7730   26.3700   47.0350 C   0  0  0  0  0  0  0  0  0  0  0  0
   57.0950   25.1230   47.2430 N   0  0  0  0  0  0  0  0  0  0  0  0
   55.7080   24.5760   46.3590 S   0  0  0  0  0  0  0  0  0  0  0  0
   54.9410   25.7550   45.8290 O   0  0  0  0  0  0  0  0  0  0  0  0
   54.8340   23.7500   47.2590 O   0  0  0  0  0  0  0  0  0  0  0  0
   56.2410   23.5850   45.0150 C   0  0  0  0  0  0  0  0  0  0  0  0
   55.7360   23.6240   43.7250 C   0  0  0  0  0  0  0  0  0  0  0  0
   56.3640   22.7160   42.8650 C   0  0  0  0  0  0  0  0  0  0  0  0
   57.3580   21.9650   43.4790 C   0  0  0  0  0  0  0  0  0  0  0  0
   57.4560   22.4280   45.0940 S   0  0  0  0  0  0  0  0  0  0  0  0
   57.2200   27.2880   46.1400 C   0  0  0  0  0  0  0  0  0  0  0  0
   57.8420   28.5170   45.8850 C   0  0  0  0  0  0  0  0  0  0  0  0
   57.0150   29.6410   44.7920 S   0  0  0  0  0  0  0  0  0  0  0  0
   55.3120   29.3490   44.8580 N   0  0  0  0  0  0  0  0  0  0  0  0
   57.4930   29.4250   43.3850 O   0  0  0  0  0  0  0  0  0  0  0  0
   57.2560   31.0670   45.1960 O   0  0  0  0  0  0  0  0  0  0  0  0
   59.0760   28.8160   46.5150 C   0  0  0  0  0  0  0  0  0  0  0  0
   60.0400   30.2790   46.0630 S   0  0  0  0  0  0  0  0  0  0  0  0
   59.5070   31.2360   47.4860 C   0  0  0  0  0  0  0  0  0  0  0  0
   59.6350   32.6310   47.4840 C   0  0  0  0  0  0  0  0  0  0  0  0
   59.2220   33.3750   48.5930 C   0  0  0  0  0  0  0  0  0  0  0  0
   58.6650   32.7300   49.7020 C   0  0  0  0  0  0  0  0  0  0  0  0
   58.5120   31.3400   49.6970 C   0  0  0  0  0  0  0  0  0  0  0  0
   58.9250   30.5960   48.5880 C   0  0  0  0  0  0  0  0  0  0  0  0
   62.3960   30.8650   48.5080 C   0  0  0  0  0  0  0  0  0  0  0  0
   62.7820   31.9510   47.7190 C   0  0  0  0  0  0  0  0  0  0  0  0
   62.3545   34.2621   45.8135 H   0  0  0  0  0  0  0  0  0  0  0  0
   63.9384   35.0914   45.6397 H   0  0  0  0  0  0  0  0  0  0  0  0
   63.8594   33.2969   45.6397 H   0  0  0  0  0  0  0  0  0  0  0  0
   63.5320   34.1883   50.1957 H   0  0  0  0  0  0  0  0  0  0  0  0
   62.8297   32.2526   51.6012 H   0  0  0  0  0  0  0  0  0  0  0  0
   59.3813   25.9888   48.4360 H   0  0  0  0  0  0  0  0  0  0  0  0
   54.9260   24.2983   43.4099 H   0  0  0  0  0  0  0  0  0  0  0  0
   56.0959   22.6074   41.8037 H   0  0  0  0  0  0  0  0  0  0  0  0
   57.9768   21.1971   42.9918 H   0  0  0  0  0  0  0  0  0  0  0  0
   56.2792   27.0418   45.6260 H   0  0  0  0  0  0  0  0  0  0  0  0
   55.1500   28.6530   45.6200 H   0  0  0  0  0  0  0  0  0  0  0  0
   60.0613   33.1419   46.6081 H   0  0  0  0  0  0  0  0  0  0  0  0
   59.3352   34.4692   48.5935 H   0  0  0  0  0  0  0  0  0  0  0  0
   58.3476   33.3156   50.5774 H   0  0  0  0  0  0  0  0  0  0  0  0
   58.0668   30.8323   50.5654 H   0  0  0  0  0  0  0  0  0  0  0  0
   58.7925   29.5040   48.5805 H   0  0  0  0  0  0  0  0  0  0  0  0
   62.0546   29.9348   48.0304 H   0  0  0  0  0  0  0  0  0  0  0  0
   62.7583   31.8648   46.6226 H   0  0  0  0  0  0  0  0  0  0  0  0
  1  2  1  0
  2  3  1  0
  3  4  2  0
  4  5  1  0
  5  6  2  0
  6  7  1  0
  7  8  1  0
  8  9  2  0
  8 10  1  0
 10 11  2  0
 10 12  1  0
 12 13  1  0
 13 14  2  0
 14 15  1  0
 15 16  1  0
 16 17  1  0
 17 18  2  0
 17 19  2  0
 17 20  1  0
 20 21  2  0
 21 22  1  0
 22 23  2  0
 23 24  1  0
 15 25  2  0
 25 26  1  0
 26 27  1  0
 27 28  1  0
 27 29  2  0
 27 30  2  0
 26 31  2  0
 31 32  1  0
 32 33  1  0
 33 34  2  0
 34 35  1  0
 35 36  2  0
 36 37  1  0
 37 38  2  0
  6 39  1  0
 39 40  2  0
 40  3  1  0
 31 13  1  0
 38 33  1  0
 24 20  1  0
  1 41  1  0
  1 42  1  0
  1 43  1  0
  4 44  1  0
  5 45  1  0
 14 46  1  0
 21 47  1  0
 22 48  1  0
 23 49  1  0
 25 50  1  0
 28 51  1  0
 34 52  1  0
 35 53  1  0
 36 54  1  0
 37 55  1  0
 38 56  1  0
 39 57  1  0
 40 58  1  0
M  CHG  3   7  -1  16  -1  28  -1
M  END
>  <UniqueID>  (60) 
54

>  <SMILES>  (60) 
COc1ccc([N-]C(=O)C(=O)Oc2cc([N-]S(=O)(=O)c3cccs3)cc(S([NH-])(=O)=O)c2Sc2ccccc2)cc1

>  <Energy>  (60) 
102.43058023773774

>  <Genealogy>  (60) 
COc1ccc([N-]C(=O)C(=O)Oc2cc([N-]S(=O)(=O)c3cccs3)cc(S([NH-])(=O)=O)c2Sc2ccccc2)cc1 (protonated)
COc1ccc([N-]C(=O)C(=O)Oc2cc([N-]S(=O)(=O)c3cccs3)cc(S([NH-])(=O)=O)c2Sc2ccccc2)cc1 (3D coordinates assigned)
COc1ccc([N-]C(=O)C(=O)Oc2cc([N-]S(=O)(=O)c3cccs3)cc(S([NH-])(=O)=O)c2Sc2ccccc2)cc1 (optimized conformer: 102.43058023773774 kcal/mol)

>  <smiles>  (60) 
COc1ccc(NC(=O)C(=O)Oc2cc(NS(=O)(=O)c3cccs3)cc(S(N)(=O)=O)c2Sc2ccccc2)cc1

>  <score_type>  (60) 
oracle

>  <origin>  (60) 
adg

>  <m_score__min__energy>  (60) 
-14.699999999999999

>  <m_primary>  (60) 
energy

$$$$
60:0
     RDKit          3D

 41 43  0  0  0  0  0  0  0  0999 V2000
   55.1610   30.0940   45.6360 H   0  0  0  0  0  0  0  0  0  0  0  0
   55.8980   29.6940   45.0710 O   0  0  0  0  0  0  0  0  0  0  0  0
   56.5980   28.5400   45.4310 C   0  0  0  0  0  0  0  0  0  0  0  0
   55.8890   27.4150   45.6940 N   0  0  0  0  0  0  0  0  0  0  0  0
   56.4950   26.2570   46.0540 C   0  0  0  0  0  0  0  0  0  0  0  0
   55.7900   25.2400   46.2950 O   0  0  0  0  0  0  0  0  0  0  0  0
   57.8560   26.1890   46.1370 N   0  0  0  0  0  0  0  0  0  0  0  0
   58.4540   24.9710   46.5220 N   0  0  0  0  0  0  0  0  0  0  0  0
   58.8770   24.0530   45.6980 C   0  0  0  0  0  0  0  0  0  0  0  0
   59.9354   23.7589   45.7544 H   0  0  0  0  0  0  0  0  0  0  0  0
   58.0260   23.3830   44.6940 C   0  0  0  0  0  0  0  0  0  0  0  0
   57.1380   24.1340   43.9870 N   0  0  0  0  0  0  0  0  0  0  0  0
   56.3350   23.5930   43.0330 C   0  0  0  0  0  0  0  0  0  0  0  0
   55.6223   24.2305   42.4892 H   0  0  0  0  0  0  0  0  0  0  0  0
   56.4130   22.2300   42.7420 C   0  0  0  0  0  0  0  0  0  0  0  0
   55.7573   21.7851   41.9790 H   0  0  0  0  0  0  0  0  0  0  0  0
   57.3330   21.4390   43.4310 C   0  0  0  0  0  0  0  0  0  0  0  0
   57.4118   20.3648   43.2076 H   0  0  0  0  0  0  0  0  0  0  0  0
   58.1540   22.0130   44.4050 C   0  0  0  0  0  0  0  0  0  0  0  0
   58.8932   21.3991   44.9404 H   0  0  0  0  0  0  0  0  0  0  0  0
   58.6150   27.3080   45.9190 C   0  0  0  0  0  0  0  0  0  0  0  0
   59.8700   27.2470   46.0390 O   0  0  0  0  0  0  0  0  0  0  0  0
   58.0010   28.5230   45.5490 C   0  0  0  0  0  0  0  0  0  0  0  0
   58.7970   29.7340   45.2420 C   0  0  0  0  0  0  0  0  0  0  0  0
   59.1905   29.8670   44.2234 H   0  0  0  0  0  0  0  0  0  0  0  0
   59.0540   30.6730   46.1630 C   0  0  0  0  0  0  0  0  0  0  0  0
   59.3245   30.3514   47.1795 H   0  0  0  0  0  0  0  0  0  0  0  0
   58.9900   32.1290   45.8730 C   0  0  0  0  0  0  0  0  0  0  0  0
   57.9140   32.6620   45.1320 C   0  0  0  0  0  0  0  0  0  0  0  0
   57.1305   31.9910   44.7500 H   0  0  0  0  0  0  0  0  0  0  0  0
   57.8340   34.0320   44.8790 C   0  0  0  0  0  0  0  0  0  0  0  0
   56.9947   34.4337   44.2923 H   0  0  0  0  0  0  0  0  0  0  0  0
   58.8150   34.8920   45.3680 C   0  0  0  0  0  0  0  0  0  0  0  0
   58.7479   35.9715   45.1677 H   0  0  0  0  0  0  0  0  0  0  0  0
   59.8820   34.3870   46.1110 C   0  0  0  0  0  0  0  0  0  0  0  0
   60.6492   35.0734   46.4987 H   0  0  0  0  0  0  0  0  0  0  0  0
   59.9860   33.0090   46.3690 C   0  0  0  0  0  0  0  0  0  0  0  0
   61.1540   32.5020   47.1730 C   0  0  0  0  0  0  0  0  0  0  0  0
   60.9305   32.5990   48.2457 H   0  0  0  0  0  0  0  0  0  0  0  0
   61.3347   31.4444   46.9303 H   0  0  0  0  0  0  0  0  0  0  0  0
   62.0500   33.0922   46.9303 H   0  0  0  0  0  0  0  0  0  0  0  0
  1  2  1  0
  2  3  1  0
  3  4  1  0
  4  5  1  0
  5  6  2  0
  5  7  1  0
  7  8  1  0
  8  9  2  3
  9 10  1  0
  9 11  1  0
 11 12  2  0
 12 13  1  0
 13 14  1  0
 13 15  2  0
 15 16  1  0
 15 17  1  0
 17 18  1  0
 17 19  2  0
 19 20  1  0
  7 21  1  0
 21 22  2  0
 21 23  1  0
 23 24  1  0
 24 25  1  0
 24 26  2  0
 26 27  1  0
 26 28  1  0
 28 29  2  0
 29 30  1  0
 29 31  1  0
 31 32  1  0
 31 33  2  0
 33 34  1  0
 33 35  1  0
 35 36  1  0
 35 37  2  0
 37 38  1  0
 38 39  1  0
 38 40  1  0
 38 41  1  0
 23  3  2  0
 37 28  1  0
 19 11  1  0
M  CHG  1   4  -1
M  END
>  <UniqueID>  (61) 
55

>  <SMILES>  (61) 
Cc1ccccc1/C=C/c1c(O)[n-]c(=O)n(N=Cc2ccccn2)c1=O

>  <Energy>  (61) 
68.9968901853329

>  <Genealogy>  (61) 
Cc1ccccc1C=Cc1c(O)[n-]c(=O)n(N=Cc2ccccn2)c1=O (protonated)
Cc1ccccc1/C=C/c1c(O)[n-]c(=O)n(N=Cc2ccccn2)c1=O (cis-trans isomerization)
Cc1ccccc1/C=C/c1c(O)[n-]c(=O)n(N=Cc2ccccn2)c1=O (3D coordinates assigned)
Cc1ccccc1/C=C/c1c(O)[n-]c(=O)n(N=Cc2ccccn2)c1=O (optimized conformer: 68.9968901853329 kcal/mol)

>  <smiles>  (61) 
Cc1ccccc1C=Cc1c(O)[nH]c(=O)n(N=Cc2ccccn2)c1=O

>  <score_type>  (61) 
oracle

>  <origin>  (61) 
adg

>  <m_score__min__energy>  (61) 
-10.27

>  <m_primary>  (61) 
energy

$$$$
61:0
     RDKit          3D

 45 48  0  0  0  0  0  0  0  0999 V2000
   59.3400   24.8580   45.9140 O   0  0  0  0  0  0  0  0  0  0  0  0
   58.2960   24.7560   46.6150 C   0  0  0  0  0  0  0  0  0  0  0  0
   58.0900   25.6730   47.7770 C   0  0  0  0  0  0  0  0  0  0  0  0
   58.5810   27.0520   47.4340 C   0  0  0  0  0  0  0  0  0  0  0  0
   59.4270   27.7390   48.3130 C   0  0  0  0  0  0  0  0  0  0  0  0
   59.9070   29.0070   47.9810 C   0  0  0  0  0  0  0  0  0  0  0  0
   59.5480   29.6140   46.7660 C   0  0  0  0  0  0  0  0  0  0  0  0
   58.7330   28.9110   45.8630 C   0  0  0  0  0  0  0  0  0  0  0  0
   58.2450   27.6380   46.2060 C   0  0  0  0  0  0  0  0  0  0  0  0
   58.3340   29.5390   44.5620 C   0  0  0  0  0  0  0  0  0  0  0  0
   57.3940   30.7090   44.8410 C   0  0  0  0  0  0  0  0  0  0  0  0
   58.0960   32.0040   45.2020 C   0  0  0  0  0  0  0  0  0  0  0  0
   57.4340   33.1890   44.8250 C   0  0  0  0  0  0  0  0  0  0  0  0
   57.9760   34.4420   45.1030 C   0  0  0  0  0  0  0  0  0  0  0  0
   59.1860   34.5400   45.7770 C   0  0  0  0  0  0  0  0  0  0  0  0
   59.7290   35.7890   46.0510 O   0  0  0  0  0  0  0  0  0  0  0  0
   59.8540   33.3840   46.1830 C   0  0  0  0  0  0  0  0  0  0  0  0
   59.3280   32.0990   45.9240 C   0  0  0  0  0  0  0  0  0  0  0  0
   60.1230   30.9350   46.4320 C   0  0  0  0  0  0  0  0  0  0  0  0
   61.3550   31.0970   46.6530 O   0  0  0  0  0  0  0  0  0  0  0  0
   57.3610   23.7460   46.3650 O   0  0  0  0  0  0  0  0  0  0  0  0
   57.2050   23.1300   45.1180 C   0  0  0  0  0  0  0  0  0  0  0  0
   56.1980   23.5990   44.2650 C   0  0  0  0  0  0  0  0  0  0  0  0
   55.9820   22.9930   43.0250 C   0  0  0  0  0  0  0  0  0  0  0  0
   56.7780   21.9190   42.6240 C   0  0  0  0  0  0  0  0  0  0  0  0
   57.8050   21.4610   43.4550 C   0  0  0  0  0  0  0  0  0  0  0  0
   58.0390   22.0720   44.6930 C   0  0  0  0  0  0  0  0  0  0  0  0
   59.1190   21.6310   45.4590 O   0  0  0  0  0  0  0  0  0  0  0  0
   57.0183   25.7176   48.0209 H   0  0  0  0  0  0  0  0  0  0  0  0
   58.6528   25.2930   48.6424 H   0  0  0  0  0  0  0  0  0  0  0  0
   59.7146   27.2776   49.2692 H   0  0  0  0  0  0  0  0  0  0  0  0
   60.5733   29.5364   48.6780 H   0  0  0  0  0  0  0  0  0  0  0  0
   57.5934   27.0969   45.5041 H   0  0  0  0  0  0  0  0  0  0  0  0
   59.2302   29.9030   44.0383 H   0  0  0  0  0  0  0  0  0  0  0  0
   57.8240   28.7954   43.9320 H   0  0  0  0  0  0  0  0  0  0  0  0
   56.7878   30.8857   43.9403 H   0  0  0  0  0  0  0  0  0  0  0  0
   56.7899   30.4249   45.7153 H   0  0  0  0  0  0  0  0  0  0  0  0
   56.4694   33.1236   44.3004 H   0  0  0  0  0  0  0  0  0  0  0  0
   57.4457   35.3531   44.7887 H   0  0  0  0  0  0  0  0  0  0  0  0
   60.8115   33.4756   46.7166 H   0  0  0  0  0  0  0  0  0  0  0  0
   55.5731   24.4501   44.5735 H   0  0  0  0  0  0  0  0  0  0  0  0
   55.1840   23.3625   42.3642 H   0  0  0  0  0  0  0  0  0  0  0  0
   56.5974   21.4327   41.6540 H   0  0  0  0  0  0  0  0  0  0  0  0
   58.4324   20.6162   43.1345 H   0  0  0  0  0  0  0  0  0  0  0  0
   59.5510   20.7260   45.3240 H   0  0  0  0  0  0  0  0  0  0  0  0
  1  2  2  0
  2  3  1  0
  3  4  1  0
  4  5  2  0
  5  6  1  0
  6  7  2  0
  7  8  1  0
  8  9  2  0
  8 10  1  0
 10 11  1  0
 11 12  1  0
 12 13  2  0
 13 14  1  0
 14 15  2  0
 15 16  1  0
 15 17  1  0
 17 18  2  0
 18 19  1  0
 19 20  2  0
  2 21  1  0
 21 22  1  0
 22 23  2  0
 23 24  1  0
 24 25  2  0
 25 26  1  0
 26 27  2  0
 27 28  1  0
  9  4  1  0
 18 12  1  0
 27 22  1  0
 19  7  1  0
  3 29  1  0
  3 30  1  0
  5 31  1  0
  6 32  1  0
  9 33  1  0
 10 34  1  0
 10 35  1  0
 11 36  1  0
 11 37  1  0
 13 38  1  0
 14 39  1  0
 17 40  1  0
 23 41  1  0
 24 42  1  0
 25 43  1  0
 26 44  1  0
 28 45  1  0
M  CHG  1  16  -1
M  END
>  <UniqueID>  (62) 
56

>  <SMILES>  (62) 
O=C(Cc1ccc2c(c1)CCc1ccc([O-])cc1C2=O)Oc1ccccc1O

>  <Energy>  (62) 
71.23176144236076

>  <Genealogy>  (62) 
O=C(Cc1ccc2c(c1)CCc1ccc([O-])cc1C2=O)Oc1ccccc1O (protonated)
O=C(Cc1ccc2c(c1)CCc1ccc([O-])cc1C2=O)Oc1ccccc1O (3D coordinates assigned)
O=C(Cc1ccc2c(c1)CCc1ccc([O-])cc1C2=O)Oc1ccccc1O (nonaromatic ring conformer: 71.23176144236076 kcal/mol)

>  <smiles>  (62) 
O=C(Cc1ccc2c(c1)CCc1ccc(O)cc1C2=O)Oc1ccccc1O

>  <score_type>  (62) 
oracle

>  <origin>  (62) 
adg

>  <m_score__min__energy>  (62) 
-9.1300000000000008

>  <m_primary>  (62) 
energy

$$$$
62:0
     RDKit          3D

 36 38  0  0  0  0  0  0  0  0999 V2000
   56.5770   29.5220   42.4680 O   0  0  0  0  0  0  0  0  0  0  0  0
   56.8880   29.9630   43.8710 S   0  0  0  0  0  0  0  0  0  0  0  0
   55.5960   30.1860   44.6060 O   0  0  0  0  0  0  0  0  0  0  0  0
   57.7800   31.4500   43.8180 N   0  0  0  0  0  0  0  0  0  0  0  0
   57.6990   32.3590   44.7400 C   0  0  0  0  0  0  0  0  0  0  0  0
   57.9140   33.6740   44.5210 N   0  0  0  0  0  0  0  0  0  0  0  0
   57.7180   34.2150   45.7400 C   0  0  0  0  0  0  0  0  0  0  0  0
   57.3970   33.2190   46.6350 C   0  0  0  0  0  0  0  0  0  0  0  0
   57.3940   32.0820   45.9850 O   0  0  0  0  0  0  0  0  0  0  0  0
   57.8530   28.7190   44.6610 C   0  0  0  0  0  0  0  0  0  0  0  0
   57.7810   27.3840   44.2440 C   0  0  0  0  0  0  0  0  0  0  0  0
   58.5370   26.4060   44.8920 C   0  0  0  0  0  0  0  0  0  0  0  0
   59.3680   26.7530   45.9610 C   0  0  0  0  0  0  0  0  0  0  0  0
   59.4480   28.0930   46.3880 C   0  0  0  0  0  0  0  0  0  0  0  0
   60.2870   28.4960   47.4790 N   0  0  0  0  0  0  0  0  0  0  0  0
   60.0310   29.8970   48.4700 S   0  0  0  0  0  0  0  0  0  0  0  0
   58.5620   30.2070   48.5130 O   0  0  0  0  0  0  0  0  0  0  0  0
   60.5140   29.6060   49.8640 O   0  0  0  0  0  0  0  0  0  0  0  0
   60.8870   31.2800   47.7950 C   0  0  0  0  0  0  0  0  0  0  0  0
   62.2250   31.5100   48.1380 C   0  0  0  0  0  0  0  0  0  0  0  0
   62.8890   32.6140   47.6050 C   0  0  0  0  0  0  0  0  0  0  0  0
   62.2180   33.4740   46.7350 C   0  0  0  0  0  0  0  0  0  0  0  0
   60.8860   33.2140   46.4100 C   0  0  0  0  0  0  0  0  0  0  0  0
   60.2500   32.1320   46.9400 N   0  0  0  0  0  0  0  0  0  0  0  0
   58.6850   29.0670   45.7330 C   0  0  0  0  0  0  0  0  0  0  0  0
   57.8014   35.2848   45.9819 H   0  0  0  0  0  0  0  0  0  0  0  0
   57.1815   33.3542   47.7052 H   0  0  0  0  0  0  0  0  0  0  0  0
   57.1274   27.1057   43.4042 H   0  0  0  0  0  0  0  0  0  0  0  0
   58.4787   25.3588   44.5604 H   0  0  0  0  0  0  0  0  0  0  0  0
   59.9605   25.9783   46.4697 H   0  0  0  0  0  0  0  0  0  0  0  0
   62.7478   30.8254   48.8222 H   0  0  0  0  0  0  0  0  0  0  0  0
   63.9392   32.8065   47.8697 H   0  0  0  0  0  0  0  0  0  0  0  0
   62.7335   34.3477   46.3098 H   0  0  0  0  0  0  0  0  0  0  0  0
   60.3480   33.8846   45.7239 H   0  0  0  0  0  0  0  0  0  0  0  0
   59.2540   31.9600   46.6790 H   0  0  0  0  0  0  0  0  0  0  0  0
   58.7393   30.1149   46.0630 H   0  0  0  0  0  0  0  0  0  0  0  0
  1  2  2  0
  2  3  2  0
  2  4  1  0
  4  5  2  3
  5  6  1  0
  6  7  1  0
  7  8  2  0
  8  9  1  0
  2 10  1  0
 10 11  2  0
 11 12  1  0
 12 13  2  0
 13 14  1  0
 14 15  1  0
 15 16  1  0
 16 17  2  0
 16 18  2  0
 16 19  1  0
 19 20  2  0
 20 21  1  0
 21 22  2  0
 22 23  1  0
 23 24  2  0
 14 25  2  0
  9  5  1  0
 25 10  1  0
 24 19  1  0
  7 26  1  0
  8 27  1  0
 11 28  1  0
 12 29  1  0
 13 30  1  0
 20 31  1  0
 21 32  1  0
 22 33  1  0
 23 34  1  0
 24 35  1  0
 25 36  1  0
M  CHG  3   6  -1  15  -1  24   1
M  END
>  <UniqueID>  (63) 
57

>  <SMILES>  (63) 
O=S(=O)(N=c1[n-]cco1)c1cccc([N-]S(=O)(=O)c2cccc[nH+]2)c1

>  <Energy>  (63) 
74.14760240564681

>  <Genealogy>  (63) 
O=S(=O)(N=c1[n-]cco1)c1cccc([N-]S(=O)(=O)c2cccc[nH+]2)c1 (protonated)
O=S(=O)(N=c1[n-]cco1)c1cccc([N-]S(=O)(=O)c2cccc[nH+]2)c1 (3D coordinates assigned)
O=S(=O)(N=c1[n-]cco1)c1cccc([N-]S(=O)(=O)c2cccc[nH+]2)c1 (optimized conformer: 74.14760240564681 kcal/mol)

>  <smiles>  (63) 
O=S(=O)(N=c1[nH]cco1)c1cccc(NS(=O)(=O)c2ccccn2)c1

>  <score_type>  (63) 
oracle

>  <origin>  (63) 
adg

>  <m_score__min__energy>  (63) 
-10

>  <m_primary>  (63) 
energy

$$$$
63:0
     RDKit          3D

 50 52  0  0  0  0  0  0  0  0999 V2000
   57.3120   24.0780   47.5590 H   0  0  0  0  0  0  0  0  0  0  0  0
   57.3730   23.1780   47.9750 O   0  0  0  0  0  0  0  0  0  0  0  0
   56.0630   22.6850   48.0600 C   0  0  0  0  0  0  0  0  0  0  0  0
   55.6947   22.8078   49.0892 H   0  0  0  0  0  0  0  0  0  0  0  0
   56.0620   21.6199   47.7851 H   0  0  0  0  0  0  0  0  0  0  0  0
   55.1480   23.4480   47.1020 C   0  0  0  0  0  0  0  0  0  0  0  0
   54.4222   24.0347   47.6842 H   0  0  0  0  0  0  0  0  0  0  0  0
   54.6223   22.7260   46.4598 H   0  0  0  0  0  0  0  0  0  0  0  0
   55.9300   24.3490   46.2600 N   0  0  0  0  0  0  0  0  0  0  0  0
   55.8780   25.7820   46.2950 C   0  0  0  0  0  0  0  0  0  0  0  0
   54.7970   26.3570   46.0020 O   0  0  0  0  0  0  0  0  0  0  0  0
   57.0550   26.6140   46.7250 C   0  0  0  0  0  0  0  0  0  0  0  0
   57.1700   27.4625   46.0345 H   0  0  0  0  0  0  0  0  0  0  0  0
   56.8782   26.9784   47.7477 H   0  0  0  0  0  0  0  0  0  0  0  0
   58.2850   25.8110   46.7130 N   0  0  0  0  0  0  0  0  0  0  0  0
   58.0280   24.7960   46.6680 H   0  0  0  0  0  0  0  0  0  0  0  0
   59.1790   26.1470   45.5910 C   0  0  0  0  0  0  0  0  0  0  0  0
   60.2215   26.0592   45.9309 H   0  0  0  0  0  0  0  0  0  0  0  0
   58.9640   25.4485   44.7689 H   0  0  0  0  0  0  0  0  0  0  0  0
   58.9480   27.5760   45.0670 C   0  0  0  0  0  0  0  0  0  0  0  0
   58.4056   28.1554   45.8287 H   0  0  0  0  0  0  0  0  0  0  0  0
   59.9253   28.0354   44.8578 H   0  0  0  0  0  0  0  0  0  0  0  0
   58.1290   27.5590   43.7730 C   0  0  0  0  0  0  0  0  0  0  0  0
   58.8095   27.4560   42.9149 H   0  0  0  0  0  0  0  0  0  0  0  0
   57.4294   26.7108   43.8052 H   0  0  0  0  0  0  0  0  0  0  0  0
   57.3670   28.7950   43.6360 N   0  0  0  0  0  0  0  0  0  0  0  0
   56.5090   29.3230   44.6560 C   0  0  0  0  0  0  0  0  0  0  0  0
   55.2600   29.3150   44.4900 O   0  0  0  0  0  0  0  0  0  0  0  0
   57.0420   29.8660   45.8730 N   0  0  0  0  0  0  0  0  0  0  0  0
   57.7780   30.9320   46.0070 C   0  0  0  0  0  0  0  0  0  0  0  0
   58.8960   30.8670   46.7770 N   0  0  0  0  0  0  0  0  0  0  0  0
   59.7070   31.9460   46.9500 C   0  0  0  0  0  0  0  0  0  0  0  0
   59.3800   33.1630   46.3230 C   0  0  0  0  0  0  0  0  0  0  0  0
   58.2180   33.2130   45.5450 C   0  0  0  0  0  0  0  0  0  0  0  0
   57.9273   34.1514   45.0502 H   0  0  0  0  0  0  0  0  0  0  0  0
   57.4500   32.1040   45.4010 N   0  0  0  0  0  0  0  0  0  0  0  0
   60.2170   34.3960   46.5380 C   0  0  0  0  0  0  0  0  0  0  0  0
   59.9456   35.1591   45.7937 H   0  0  0  0  0  0  0  0  0  0  0  0
   60.0372   34.7930   47.5480 H   0  0  0  0  0  0  0  0  0  0  0  0
   61.9740   33.9660   46.3550 S   0  0  0  0  0  0  0  0  0  0  0  0
   61.9500   32.7840   47.7150 C   0  0  0  0  0  0  0  0  0  0  0  0
   63.0020   32.7750   48.6410 C   0  0  0  0  0  0  0  0  0  0  0  0
   64.0020   33.6880   48.5540 F   0  0  0  0  0  0  0  0  0  0  0  0
   63.0440   31.8020   49.6430 C   0  0  0  0  0  0  0  0  0  0  0  0
   63.8734   31.7936   50.3655 H   0  0  0  0  0  0  0  0  0  0  0  0
   62.0360   30.8410   49.7290 C   0  0  0  0  0  0  0  0  0  0  0  0
   62.0819   30.0667   50.5090 H   0  0  0  0  0  0  0  0  0  0  0  0
   60.9690   30.8590   48.8280 C   0  0  0  0  0  0  0  0  0  0  0  0
   60.1744   30.1023   48.9059 H   0  0  0  0  0  0  0  0  0  0  0  0
   60.9050   31.8400   47.8210 C   0  0  0  0  0  0  0  0  0  0  0  0
  1  2  1  0
  2  3  1  0
  3  4  1  0
  3  5  1  0
  3  6  1  0
  6  7  1  0
  6  8  1  0
  6  9  1  0
  9 10  1  0
 10 11  2  0
 10 12  1  0
 12 13  1  0
 12 14  1  0
 12 15  1  0
 15 16  1  0
 15 17  1  0
 17 18  1  0
 17 19  1  0
 17 20  1  0
 20 21  1  0
 20 22  1  0
 20 23  1  0
 23 24  1  0
 23 25  1  0
 23 26  1  0
 26 27  1  0
 27 28  2  0
 27 29  1  0
 29 30  2  0
 30 31  1  0
 31 32  2  0
 32 33  1  0
 33 34  2  0
 34 35  1  0
 34 36  1  0
 33 37  1  0
 37 38  1  0
 37 39  1  0
 37 40  1  0
 40 41  1  0
 41 42  2  0
 42 43  1  0
 42 44  1  0
 44 45  1  0
 44 46  2  0
 46 47  1  0
 46 48  1  0
 48 49  1  0
 48 50  2  0
 36 30  1  0
 50 41  1  0
 50 32  1  0
M  CHG  3   9  -1  26  -1  36  -1
M  END
>  <UniqueID>  (64) 
58

>  <SMILES>  (64) 
O=C(CNCCC[N-]C(=O)/N=c1/nc2c(c[n-]1)CSc1c(F)cccc1-2)[N-]CCO

>  <Energy>  (64) 
54.0583845405835

>  <Genealogy>  (64) 
O=C(CNCCC[N-]C(=O)N=c1nc2c(c[n-]1)CSc1c(F)cccc1-2)[N-]CCO (protonated)
O=C(CNCCC[N-]C(=O)/N=c1/nc2c(c[n-]1)CSc1c(F)cccc1-2)[N-]CCO (cis-trans isomerization)
O=C(CNCCC[N-]C(=O)/N=c1/nc2c(c[n-]1)CSc1c(F)cccc1-2)[N-]CCO (3D coordinates assigned)
O=C(CNCCC[N-]C(=O)/N=c1/nc2c(c[n-]1)CSc1c(F)cccc1-2)[N-]CCO (nonaromatic ring conformer: 54.0583845405835 kcal/mol)

>  <smiles>  (64) 
O=C(CNCCCNC(=O)N=c1nc2c(c[nH]1)CSc1c(F)cccc1-2)NCCO

>  <score_type>  (64) 
oracle

>  <origin>  (64) 
adg

>  <m_score__min__energy>  (64) 
-12.550000000000001

>  <m_primary>  (64) 
energy

$$$$
64:0
     RDKit          3D

 46 49  0  0  0  0  0  0  0  0999 V2000
   63.7110   31.2230   48.1940 O   0  0  0  0  0  0  0  0  0  0  0  0
   63.0420   32.1580   47.6760 C   0  0  0  0  0  0  0  0  0  0  0  0
   63.5740   33.5540   47.7210 C   0  0  0  0  0  0  0  0  0  0  0  0
   62.6700   34.5000   48.9880 S   0  0  0  0  0  0  0  0  0  0  0  0
   61.0640   34.1470   48.2720 C   0  0  0  0  0  0  0  0  0  0  0  0
   60.7530   34.6230   47.0390 N   0  0  0  0  0  0  0  0  0  0  0  0
   59.5430   34.3750   46.4620 C   0  0  0  0  0  0  0  0  0  0  0  0
   59.3040   34.8530   45.3200 O   0  0  0  0  0  0  0  0  0  0  0  0
   58.5990   33.6190   47.1200 N   0  0  0  0  0  0  0  0  0  0  0  0
   57.2760   33.3730   46.5190 C   0  0  0  0  0  0  0  0  0  0  0  0
   57.4010   32.4100   45.3800 C   0  0  0  0  0  0  0  0  0  0  0  0
   57.8360   32.7150   44.1060 C   0  0  0  0  0  0  0  0  0  0  0  0
   57.7940   31.5280   43.4070 C   0  0  0  0  0  0  0  0  0  0  0  0
   57.3360   30.5750   44.2950 C   0  0  0  0  0  0  0  0  0  0  0  0
   57.1100   31.1320   45.4630 O   0  0  0  0  0  0  0  0  0  0  0  0
   58.9000   33.1510   48.3730 C   0  0  0  0  0  0  0  0  0  0  0  0
   60.1110   33.4000   48.9570 C   0  0  0  0  0  0  0  0  0  0  0  0
   60.2230   32.8040   50.3110 C   0  0  0  0  0  0  0  0  0  0  0  0
   58.8470   32.1560   50.5450 C   0  0  0  0  0  0  0  0  0  0  0  0
   58.0200   32.3450   49.2600 C   0  0  0  0  0  0  0  0  0  0  0  0
   61.7830   31.8930   47.0360 N   0  0  0  0  0  0  0  0  0  0  0  0
   61.0820   30.6410   47.1290 C   0  0  0  0  0  0  0  0  0  0  0  0
   60.5120   30.0390   45.9910 C   0  0  0  0  0  0  0  0  0  0  0  0
   59.8570   28.8070   46.0980 C   0  0  0  0  0  0  0  0  0  0  0  0
   59.3090   28.2350   44.9980 F   0  0  0  0  0  0  0  0  0  0  0  0
   59.7770   28.1610   47.3330 C   0  0  0  0  0  0  0  0  0  0  0  0
   60.3590   28.7400   48.4630 C   0  0  0  0  0  0  0  0  0  0  0  0
   61.0160   29.9710   48.3630 C   0  0  0  0  0  0  0  0  0  0  0  0
   61.5740   30.5190   49.4710 F   0  0  0  0  0  0  0  0  0  0  0  0
   64.6445   33.5316   47.9729 H   0  0  0  0  0  0  0  0  0  0  0  0
   63.4412   34.0315   46.7390 H   0  0  0  0  0  0  0  0  0  0  0  0
   56.6031   32.9513   47.2801 H   0  0  0  0  0  0  0  0  0  0  0  0
   56.8677   34.3233   46.1446 H   0  0  0  0  0  0  0  0  0  0  0  0
   58.1502   33.6990   43.7280 H   0  0  0  0  0  0  0  0  0  0  0  0
   58.0698   31.3713   42.3537 H   0  0  0  0  0  0  0  0  0  0  0  0
   57.1836   29.5112   44.0601 H   0  0  0  0  0  0  0  0  0  0  0  0
   61.0217   32.0483   50.3411 H   0  0  0  0  0  0  0  0  0  0  0  0
   60.4789   33.5463   51.0814 H   0  0  0  0  0  0  0  0  0  0  0  0
   58.9686   31.0838   50.7587 H   0  0  0  0  0  0  0  0  0  0  0  0
   58.3407   32.6225   51.4029 H   0  0  0  0  0  0  0  0  0  0  0  0
   57.7873   31.3734   48.7997 H   0  0  0  0  0  0  0  0  0  0  0  0
   57.0532   32.8339   49.4501 H   0  0  0  0  0  0  0  0  0  0  0  0
   61.3890   32.6350   46.4140 H   0  0  0  0  0  0  0  0  0  0  0  0
   60.5818   30.5392   45.0138 H   0  0  0  0  0  0  0  0  0  0  0  0
   59.2556   27.1960   47.4162 H   0  0  0  0  0  0  0  0  0  0  0  0
   60.3006   28.2267   49.4341 H   0  0  0  0  0  0  0  0  0  0  0  0
  1  2  2  0
  2  3  1  0
  3  4  1  0
  4  5  1  0
  5  6  2  0
  6  7  1  0
  7  8  2  0
  7  9  1  0
  9 10  1  0
 10 11  1  0
 11 12  2  0
 12 13  1  0
 13 14  2  0
 14 15  1  0
  9 16  1  0
 16 17  2  0
 17 18  1  0
 18 19  1  0
 19 20  1  0
  2 21  1  0
 21 22  1  0
 22 23  2  0
 23 24  1  0
 24 25  1  0
 24 26  2  0
 26 27  1  0
 27 28  2  0
 28 29  1  0
 17  5  1  0
 28 22  1  0
 15 11  1  0
 20 16  1  0
  3 30  1  0
  3 31  1  0
 10 32  1  0
 10 33  1  0
 12 34  1  0
 13 35  1  0
 14 36  1  0
 18 37  1  0
 18 38  1  0
 19 39  1  0
 19 40  1  0
 20 41  1  0
 20 42  1  0
 21 43  1  0
 23 44  1  0
 26 45  1  0
 27 46  1  0
M  END
>  <UniqueID>  (65) 
59

>  <SMILES>  (65) 
O=C(CSc1nc(=O)n(Cc2ccco2)c2c1CCC2)Nc1cc(F)ccc1F

>  <Energy>  (65) 
83.32692562308675

>  <Genealogy>  (65) 
O=C(CSc1nc(=O)n(Cc2ccco2)c2c1CCC2)Nc1cc(F)ccc1F (3D coordinates assigned)
O=C(CSc1nc(=O)n(Cc2ccco2)c2c1CCC2)Nc1cc(F)ccc1F (nonaromatic ring conformer: 83.32692562308675 kcal/mol)

>  <smiles>  (65) 
O=C(CSc1nc(=O)n(Cc2ccco2)c2c1CCC2)Nc1cc(F)ccc1F

>  <score_type>  (65) 
oracle

>  <origin>  (65) 
adg

>  <m_score__min__energy>  (65) 
-8.5399999999999991

>  <m_primary>  (65) 
energy

$$$$
65:0
     RDKit          3D

 48 50  0  0  0  0  0  0  0  0999 V2000
   56.6060   30.6140   43.4850 C   0  0  0  0  0  0  0  0  0  0  0  0
   56.7000   31.0420   44.8400 O   0  0  0  0  0  0  0  0  0  0  0  0
   57.4730   32.1270   45.2760 C   0  0  0  0  0  0  0  0  0  0  0  0
   57.0190   33.4210   44.9970 C   0  0  0  0  0  0  0  0  0  0  0  0
   57.7590   34.5340   45.4020 C   0  0  0  0  0  0  0  0  0  0  0  0
   58.9510   34.3640   46.1090 C   0  0  0  0  0  0  0  0  0  0  0  0
   59.4160   33.0760   46.4120 C   0  0  0  0  0  0  0  0  0  0  0  0
   60.6980   32.9030   47.1290 C   0  0  0  0  0  0  0  0  0  0  0  0
   61.7190   33.8420   46.9020 C   0  0  0  0  0  0  0  0  0  0  0  0
   62.9510   33.7200   47.5470 C   0  0  0  0  0  0  0  0  0  0  0  0
   63.9290   34.6290   47.3140 F   0  0  0  0  0  0  0  0  0  0  0  0
   63.1770   32.6640   48.4290 C   0  0  0  0  0  0  0  0  0  0  0  0
   62.1710   31.7300   48.6750 C   0  0  0  0  0  0  0  0  0  0  0  0
   60.9210   31.8340   48.0370 C   0  0  0  0  0  0  0  0  0  0  0  0
   59.8370   30.8400   48.3930 C   0  0  0  0  0  0  0  0  0  0  0  0
   59.7310   29.8040   47.3680 N   0  0  0  0  0  0  0  0  0  0  0  0
   60.7570   29.5880   46.3880 C   0  0  0  0  0  0  0  0  0  0  0  0
   61.7990   30.2990   46.3880 O   0  0  0  0  0  0  0  0  0  0  0  0
   60.6020   28.5050   45.3640 C   0  0  0  0  0  0  0  0  0  0  0  0
   59.3080   27.7680   45.5700 C   0  0  0  0  0  0  0  0  0  0  0  0
   59.3110   26.4790   46.1230 C   0  0  0  0  0  0  0  0  0  0  0  0
   58.1090   25.7940   46.3270 C   0  0  0  0  0  0  0  0  0  0  0  0
   56.8830   26.3890   45.9810 C   0  0  0  0  0  0  0  0  0  0  0  0
   55.6070   25.6760   46.2080 C   0  0  0  0  0  0  0  0  0  0  0  0
   55.6030   24.4780   46.5970 O   0  0  0  0  0  0  0  0  0  0  0  0
   54.3930   26.3180   45.9950 O   0  0  0  0  0  0  0  0  0  0  0  0
   56.8840   27.6800   45.4260 C   0  0  0  0  0  0  0  0  0  0  0  0
   58.0850   28.3680   45.2310 C   0  0  0  0  0  0  0  0  0  0  0  0
   58.6830   31.9590   45.9770 C   0  0  0  0  0  0  0  0  0  0  0  0
   56.3701   29.5400   43.4552 H   0  0  0  0  0  0  0  0  0  0  0  0
   55.8104   31.1784   42.9766 H   0  0  0  0  0  0  0  0  0  0  0  0
   57.5649   30.7930   42.9766 H   0  0  0  0  0  0  0  0  0  0  0  0
   56.0724   33.5625   44.4548 H   0  0  0  0  0  0  0  0  0  0  0  0
   57.4020   35.5468   45.1635 H   0  0  0  0  0  0  0  0  0  0  0  0
   59.5278   35.2440   46.4297 H   0  0  0  0  0  0  0  0  0  0  0  0
   61.5458   34.6798   46.2105 H   0  0  0  0  0  0  0  0  0  0  0  0
   64.1506   32.5674   48.9317 H   0  0  0  0  0  0  0  0  0  0  0  0
   62.3567   30.9026   49.3757 H   0  0  0  0  0  0  0  0  0  0  0  0
   60.0800   30.3704   49.3576 H   0  0  0  0  0  0  0  0  0  0  0  0
   58.8765   31.3721   48.4595 H   0  0  0  0  0  0  0  0  0  0  0  0
   58.8680   29.2170   47.3370 H   0  0  0  0  0  0  0  0  0  0  0  0
   60.6076   28.9530   44.3594 H   0  0  0  0  0  0  0  0  0  0  0  0
   61.4362   27.7955   45.4670 H   0  0  0  0  0  0  0  0  0  0  0  0
   60.2644   26.0041   46.3978 H   0  0  0  0  0  0  0  0  0  0  0  0
   58.1228   24.7833   46.7609 H   0  0  0  0  0  0  0  0  0  0  0  0
   55.9321   28.1529   45.1428 H   0  0  0  0  0  0  0  0  0  0  0  0
   58.0718   29.3842   44.8100 H   0  0  0  0  0  0  0  0  0  0  0  0
   59.0570   30.9457   46.1855 H   0  0  0  0  0  0  0  0  0  0  0  0
  1  2  1  0
  2  3  1  0
  3  4  2  0
  4  5  1  0
  5  6  2  0
  6  7  1  0
  7  8  1  0
  8  9  2  0
  9 10  1  0
 10 11  1  0
 10 12  2  0
 12 13  1  0
 13 14  2  0
 14 15  1  0
 15 16  1  0
 16 17  1  0
 17 18  2  0
 17 19  1  0
 19 20  1  0
 20 21  2  0
 21 22  1  0
 22 23  2  0
 23 24  1  0
 24 25  2  0
 24 26  1  0
 23 27  1  0
 27 28  2  0
  7 29  2  0
 29  3  1  0
 14  8  1  0
 28 20  1  0
  1 30  1  0
  1 31  1  0
  1 32  1  0
  4 33  1  0
  5 34  1  0
  6 35  1  0
  9 36  1  0
 12 37  1  0
 13 38  1  0
 15 39  1  0
 15 40  1  0
 16 41  1  0
 19 42  1  0
 19 43  1  0
 21 44  1  0
 22 45  1  0
 27 46  1  0
 28 47  1  0
 29 48  1  0
M  CHG  1  26  -1
M  END
>  <UniqueID>  (66) 
60

>  <SMILES>  (66) 
COc1cccc(-c2cc(F)ccc2CNC(=O)Cc2ccc(C(=O)[O-])cc2)c1

>  <Energy>  (66) 
49.56040029460124

>  <Genealogy>  (66) 
COc1cccc(-c2cc(F)ccc2CNC(=O)Cc2ccc(C(=O)[O-])cc2)c1 (protonated)
COc1cccc(-c2cc(F)ccc2CNC(=O)Cc2ccc(C(=O)[O-])cc2)c1 (3D coordinates assigned)
COc1cccc(-c2cc(F)ccc2CNC(=O)Cc2ccc(C(=O)[O-])cc2)c1 (optimized conformer: 49.56040029460124 kcal/mol)

>  <smiles>  (66) 
COc1cccc(-c2cc(F)ccc2CNC(=O)Cc2ccc(C(=O)O)cc2)c1

>  <score_type>  (66) 
oracle

>  <origin>  (66) 
adg

>  <m_score__min__energy>  (66) 
-11.65

>  <m_primary>  (66) 
energy

$$$$
66:0
     RDKit          3D

 28 29  0  0  0  0  0  0  0  0999 V2000
   55.1470   28.3440   44.5450 H   0  0  0  0  0  0  0  0  0  0  0  0
   55.2050   29.3430   44.8450 N   0  0  0  0  0  0  0  0  0  0  0  0
   56.8660   29.8070   44.7340 S   0  0  0  0  0  0  0  0  0  0  0  0
   57.3000   29.7800   43.2960 O   0  0  0  0  0  0  0  0  0  0  0  0
   57.0340   31.2030   45.2640 O   0  0  0  0  0  0  0  0  0  0  0  0
   57.8480   28.6890   45.6760 C   0  0  0  0  0  0  0  0  0  0  0  0
   59.1090   29.0810   46.1420 C   0  0  0  0  0  0  0  0  0  0  0  0
   59.4790   30.0964   45.9371 H   0  0  0  0  0  0  0  0  0  0  0  0
   59.8980   28.1840   46.8670 C   0  0  0  0  0  0  0  0  0  0  0  0
   60.8907   28.4932   47.2262 H   0  0  0  0  0  0  0  0  0  0  0  0
   59.4300   26.8960   47.1370 C   0  0  0  0  0  0  0  0  0  0  0  0
   60.0606   26.1897   47.6968 H   0  0  0  0  0  0  0  0  0  0  0  0
   58.1540   26.4990   46.6950 C   0  0  0  0  0  0  0  0  0  0  0  0
   57.6500   25.1700   46.9150 N   0  0  0  0  0  0  0  0  0  0  0  0
   56.8060   24.5200   46.1680 C   0  0  0  0  0  0  0  0  0  0  0  0
   57.2250   23.5790   45.2790 N   0  0  0  0  0  0  0  0  0  0  0  0
   56.3250   22.8970   44.5290 C   0  0  0  0  0  0  0  0  0  0  0  0
   56.8740   21.6950   43.3820 Cl  0  0  0  0  0  0  0  0  0  0  0  0
   54.9990   23.1450   44.6710 N   0  0  0  0  0  0  0  0  0  0  0  0
   54.5710   24.0750   45.5650 C   0  0  0  0  0  0  0  0  0  0  0  0
   53.2090   24.3420   45.7270 O   0  0  0  0  0  0  0  0  0  0  0  0
   52.2190   23.3190   45.7240 C   0  0  0  0  0  0  0  0  0  0  0  0
   51.9625   23.0539   46.7603 H   0  0  0  0  0  0  0  0  0  0  0  0
   51.3194   23.6809   45.2047 H   0  0  0  0  0  0  0  0  0  0  0  0
   52.6102   22.4317   45.2047 H   0  0  0  0  0  0  0  0  0  0  0  0
   55.4770   24.7560   46.3120 N   0  0  0  0  0  0  0  0  0  0  0  0
   57.3820   27.3930   45.9400 C   0  0  0  0  0  0  0  0  0  0  0  0
   56.4031   27.0754   45.5516 H   0  0  0  0  0  0  0  0  0  0  0  0
  1  2  1  0
  2  3  1  0
  3  4  2  0
  3  5  2  0
  3  6  1  0
  6  7  2  0
  7  8  1  0
  7  9  1  0
  9 10  1  0
  9 11  2  0
 11 12  1  0
 11 13  1  0
 13 14  1  0
 14 15  2  0
 15 16  1  0
 16 17  2  0
 17 18  1  0
 17 19  1  0
 19 20  1  0
 20 21  1  0
 21 22  1  0
 22 23  1  0
 22 24  1  0
 22 25  1  0
 20 26  2  0
 13 27  2  0
 27 28  1  0
 27  6  1  0
 26 15  1  0
M  CHG  2   2  -1  19  -1
M  END
>  <UniqueID>  (67) 
61

>  <SMILES>  (67) 
COc1n/c(=N/c2cccc(S([NH-])(=O)=O)c2)nc(Cl)[n-]1

>  <Energy>  (67) 
33.26196581980267

>  <Genealogy>  (67) 
COc1nc(=Nc2cccc(S([NH-])(=O)=O)c2)nc(Cl)[n-]1 (protonated)
COc1n/c(=N/c2cccc(S([NH-])(=O)=O)c2)nc(Cl)[n-]1 (cis-trans isomerization)
COc1n/c(=N/c2cccc(S([NH-])(=O)=O)c2)nc(Cl)[n-]1 (3D coordinates assigned)
COc1n/c(=N/c2cccc(S([NH-])(=O)=O)c2)nc(Cl)[n-]1 (optimized conformer: 33.26196581980267 kcal/mol)

>  <smiles>  (67) 
COc1nc(=Nc2cccc(S(N)(=O)=O)c2)nc(Cl)[nH]1

>  <score_type>  (67) 
oracle

>  <origin>  (67) 
adg

>  <m_score__min__energy>  (67) 
-11.57

>  <m_primary>  (67) 
energy

$$$$
67:0
     RDKit          3D

 41 44  0  0  0  0  0  0  0  0999 V2000
   61.6760   34.1850   49.5290 C   0  0  0  0  0  0  0  0  0  0  0  0
   60.2730   34.3340   49.3360 O   0  0  0  0  0  0  0  0  0  0  0  0
   59.6190   34.1480   48.1090 C   0  0  0  0  0  0  0  0  0  0  0  0
   58.5940   33.1960   47.9350 C   0  0  0  0  0  0  0  0  0  0  0  0
   57.9750   33.0480   46.6900 C   0  0  0  0  0  0  0  0  0  0  0  0
   58.3820   33.8310   45.5970 C   0  0  0  0  0  0  0  0  0  0  0  0
   57.7500   33.7180   44.3150 N   0  0  0  0  0  0  0  0  0  0  0  0
   57.7430   32.5540   43.4770 C   0  0  0  0  0  0  0  0  0  0  0  0
   57.8220   32.7030   42.2300 O   0  0  0  0  0  0  0  0  0  0  0  0
   57.7190   31.1930   44.0440 C   0  0  0  0  0  0  0  0  0  0  0  0
   58.8450   30.4400   44.3800 C   0  0  0  0  0  0  0  0  0  0  0  0
   58.3310   29.2620   44.8680 C   0  0  0  0  0  0  0  0  0  0  0  0
   58.9460   28.1160   45.3570 C   0  0  0  0  0  0  0  0  0  0  0  0
   58.1100   27.0660   45.7870 C   0  0  0  0  0  0  0  0  0  0  0  0
   58.6470   25.8760   46.2910 C   0  0  0  0  0  0  0  0  0  0  0  0
   57.8010   24.8460   46.7130 C   0  0  0  0  0  0  0  0  0  0  0  0
   56.4000   24.9900   46.6340 C   0  0  0  0  0  0  0  0  0  0  0  0
   55.5180   23.9810   47.0450 O   0  0  0  0  0  0  0  0  0  0  0  0
   55.8310   22.9820   48.0110 C   0  0  0  0  0  0  0  0  0  0  0  0
   55.8580   26.1790   46.1290 C   0  0  0  0  0  0  0  0  0  0  0  0
   56.6920   27.2180   45.7040 C   0  0  0  0  0  0  0  0  0  0  0  0
   56.1470   28.3730   45.2140 N   0  0  0  0  0  0  0  0  0  0  0  0
   56.9730   29.3680   44.8070 C   0  0  0  0  0  0  0  0  0  0  0  0
   56.6110   30.5260   44.3160 O   0  0  0  0  0  0  0  0  0  0  0  0
   59.3800   34.7950   45.7790 C   0  0  0  0  0  0  0  0  0  0  0  0
   60.0000   34.9450   47.0230 C   0  0  0  0  0  0  0  0  0  0  0  0
   61.8975   34.1615   50.6062 H   0  0  0  0  0  0  0  0  0  0  0  0
   62.0123   33.2461   49.0649 H   0  0  0  0  0  0  0  0  0  0  0  0
   62.2020   35.0323   49.0649 H   0  0  0  0  0  0  0  0  0  0  0  0
   58.2801   32.5675   48.7814 H   0  0  0  0  0  0  0  0  0  0  0  0
   57.1648   32.3144   46.5657 H   0  0  0  0  0  0  0  0  0  0  0  0
   59.9027   30.7243   44.2777 H   0  0  0  0  0  0  0  0  0  0  0  0
   60.0416   28.0316   45.4065 H   0  0  0  0  0  0  0  0  0  0  0  0
   59.7379   25.7506   46.3553 H   0  0  0  0  0  0  0  0  0  0  0  0
   58.2317   23.9150   47.1102 H   0  0  0  0  0  0  0  0  0  0  0  0
   55.7013   23.3960   49.0218 H   0  0  0  0  0  0  0  0  0  0  0  0
   55.1596   22.1208   47.8786 H   0  0  0  0  0  0  0  0  0  0  0  0
   56.8738   22.6578   47.8786 H   0  0  0  0  0  0  0  0  0  0  0  0
   54.7661   26.2965   46.0662 H   0  0  0  0  0  0  0  0  0  0  0  0
   59.6784   35.4385   44.9383 H   0  0  0  0  0  0  0  0  0  0  0  0
   60.7940   35.6957   47.1496 H   0  0  0  0  0  0  0  0  0  0  0  0
  1  2  1  0
  2  3  1  0
  3  4  2  0
  4  5  1  0
  5  6  2  0
  6  7  1  0
  7  8  1  0
  8  9  2  0
  8 10  1  0
 10 11  2  0
 11 12  1  0
 12 13  2  0
 13 14  1  0
 14 15  2  0
 15 16  1  0
 16 17  2  0
 17 18  1  0
 18 19  1  0
 17 20  1  0
 20 21  2  0
 21 22  1  0
 22 23  2  0
 23 24  1  0
  6 25  1  0
 25 26  2  0
 26  3  1  0
 24 10  1  0
 23 12  1  0
 21 14  1  0
  1 27  1  0
  1 28  1  0
  1 29  1  0
  4 30  1  0
  5 31  1  0
 11 32  1  0
 13 33  1  0
 15 34  1  0
 16 35  1  0
 19 36  1  0
 19 37  1  0
 19 38  1  0
 20 39  1  0
 25 40  1  0
 26 41  1  0
M  CHG  1   7  -1
M  END
>  <UniqueID>  (68) 
62

>  <SMILES>  (68) 
COc1ccc([N-]C(=O)c2cc3cc4ccc(OC)cc4nc3o2)cc1

>  <Energy>  (68) 
86.42108139217143

>  <Genealogy>  (68) 
COc1ccc([N-]C(=O)c2cc3cc4ccc(OC)cc4nc3o2)cc1 (protonated)
COc1ccc([N-]C(=O)c2cc3cc4ccc(OC)cc4nc3o2)cc1 (3D coordinates assigned)
COc1ccc([N-]C(=O)c2cc3cc4ccc(OC)cc4nc3o2)cc1 (optimized conformer: 86.42108139217143 kcal/mol)

>  <smiles>  (68) 
COc1ccc(NC(=O)c2cc3cc4ccc(OC)cc4nc3o2)cc1

>  <score_type>  (68) 
oracle

>  <origin>  (68) 
adg

>  <m_score__min__energy>  (68) 
-8.7100000000000009

>  <m_primary>  (68) 
energy

$$$$
68:0
     RDKit          3D

 39 40  0  0  0  0  0  0  0  0999 V2000
   58.0020   33.0550   43.7090 C   0  0  0  0  0  0  0  0  0  0  0  0
   58.1320   31.9200   44.4020 C   0  0  0  0  0  0  0  0  0  0  0  0
   58.1980   30.7120   43.8110 N   0  0  0  0  0  0  0  0  0  0  0  0
   58.2550   29.7820   44.7860 C   0  0  0  0  0  0  0  0  0  0  0  0
   58.2870   28.4660   44.5010 C   0  0  0  0  0  0  0  0  0  0  0  0
   57.6200   27.4090   45.2850 C   0  0  0  0  0  0  0  0  0  0  0  0
   56.2650   27.5260   45.6210 C   0  0  0  0  0  0  0  0  0  0  0  0
   55.5220   28.6170   45.1800 O   0  0  0  0  0  0  0  0  0  0  0  0
   55.6650   26.5630   46.3720 N   0  0  0  0  0  0  0  0  0  0  0  0
   56.3690   25.4890   46.8220 C   0  0  0  0  0  0  0  0  0  0  0  0
   55.7990   24.6040   47.5130 O   0  0  0  0  0  0  0  0  0  0  0  0
   57.6900   25.3710   46.5320 N   0  0  0  0  0  0  0  0  0  0  0  0
   58.3310   26.3070   45.7860 C   0  0  0  0  0  0  0  0  0  0  0  0
   59.5640   26.1760   45.5570 O   0  0  0  0  0  0  0  0  0  0  0  0
   58.2720   30.4140   46.0380 C   0  0  0  0  0  0  0  0  0  0  0  0
   58.4750   29.7890   47.3920 C   0  0  0  0  0  0  0  0  0  0  0  0
   58.1710   31.7820   45.7860 C   0  0  0  0  0  0  0  0  0  0  0  0
   58.1220   32.8610   46.7970 C   0  0  0  0  0  0  0  0  0  0  0  0
   57.7490   32.6020   47.9740 O   0  0  0  0  0  0  0  0  0  0  0  0
   58.4940   34.1630   46.4500 O   0  0  0  0  0  0  0  0  0  0  0  0
   59.5150   34.8810   47.1340 C   0  0  0  0  0  0  0  0  0  0  0  0
   60.6010   33.9110   47.5870 C   0  0  0  0  0  0  0  0  0  0  0  0
   61.3540   33.4640   46.4740 O   0  0  0  0  0  0  0  0  0  0  0  0
   62.7340   33.5210   46.7580 C   0  0  0  0  0  0  0  0  0  0  0  0
   57.9524   34.0189   44.2366 H   0  0  0  0  0  0  0  0  0  0  0  0
   57.9446   33.0254   42.6109 H   0  0  0  0  0  0  0  0  0  0  0  0
   58.1690   30.5280   42.7820 H   0  0  0  0  0  0  0  0  0  0  0  0
   58.8559   28.1543   43.6126 H   0  0  0  0  0  0  0  0  0  0  0  0
   54.6500   26.6540   46.6070 H   0  0  0  0  0  0  0  0  0  0  0  0
   58.2362   30.5241   48.1747 H   0  0  0  0  0  0  0  0  0  0  0  0
   57.8143   28.9156   47.4955 H   0  0  0  0  0  0  0  0  0  0  0  0
   59.5228   29.4705   47.4955 H   0  0  0  0  0  0  0  0  0  0  0  0
   59.9517   35.6310   46.4582 H   0  0  0  0  0  0  0  0  0  0  0  0
   59.0841   35.3854   48.0114 H   0  0  0  0  0  0  0  0  0  0  0  0
   61.2695   34.4200   48.2969 H   0  0  0  0  0  0  0  0  0  0  0  0
   60.1280   33.0440   48.0714 H   0  0  0  0  0  0  0  0  0  0  0  0
   62.8841   33.5272   47.8477 H   0  0  0  0  0  0  0  0  0  0  0  0
   63.2343   32.6428   46.3239 H   0  0  0  0  0  0  0  0  0  0  0  0
   63.1601   34.4375   46.3239 H   0  0  0  0  0  0  0  0  0  0  0  0
  1  2  2  0
  2  3  1  0
  3  4  1  0
  4  5  2  3
  5  6  1  0
  6  7  2  0
  7  8  1  0
  7  9  1  0
  9 10  1  0
 10 11  2  0
 10 12  1  0
 12 13  1  0
 13 14  2  0
  4 15  1  0
 15 16  1  0
 15 17  2  0
 17 18  1  0
 18 19  2  0
 18 20  1  0
 20 21  1  0
 21 22  1  0
 22 23  1  0
 23 24  1  0
 17  2  1  0
 13  6  1  0
  1 25  1  0
  1 26  1  0
  3 27  1  0
  5 28  1  0
  9 29  1  0
 16 30  1  0
 16 31  1  0
 16 32  1  0
 21 33  1  0
 21 34  1  0
 22 35  1  0
 22 36  1  0
 24 37  1  0
 24 38  1  0
 24 39  1  0
M  CHG  2   8  -1  12  -1
M  END
>  <UniqueID>  (69) 
63

>  <SMILES>  (69) 
C=c1[nH]c(=Cc2c([O-])[nH]c(=O)[n-]c2=O)c(C)c1C(=O)OCCOC

>  <Energy>  (69) 
79.19836270566749

>  <Genealogy>  (69) 
C=c1[nH]c(=Cc2c([O-])[nH]c(=O)[n-]c2=O)c(C)c1C(=O)OCCOC (protonated)
C=c1[nH]c(=Cc2c([O-])[nH]c(=O)[n-]c2=O)c(C)c1C(=O)OCCOC (3D coordinates assigned)
C=c1[nH]c(=Cc2c([O-])[nH]c(=O)[n-]c2=O)c(C)c1C(=O)OCCOC (optimized conformer: 79.19836270566749 kcal/mol)

>  <smiles>  (69) 
C=c1[nH]c(=Cc2c(O)[nH]c(=O)[nH]c2=O)c(C)c1C(=O)OCCOC

>  <score_type>  (69) 
oracle

>  <origin>  (69) 
adg

>  <m_score__min__energy>  (69) 
-12.15

>  <m_primary>  (69) 
energy

$$$$
69:0
     RDKit          3D

 69 73  0  0  0  0  0  0  0  0999 V2000
   52.0730   23.1410   44.6480 N   0  0  0  0  0  0  0  0  0  0  0  0
   53.4090   23.6640   45.6120 S   0  0  0  0  0  0  0  0  0  0  0  0
   53.2250   23.1840   47.0260 O   0  0  0  0  0  0  0  0  0  0  0  0
   53.4640   25.1660   45.6170 O   0  0  0  0  0  0  0  0  0  0  0  0
   54.9080   23.0170   44.9520 C   0  0  0  0  0  0  0  0  0  0  0  0
   55.5760   21.9720   45.6070 C   0  0  0  0  0  0  0  0  0  0  0  0
   56.7720   21.4650   45.0870 C   0  0  0  0  0  0  0  0  0  0  0  0
   57.3090   21.9930   43.9000 C   0  0  0  0  0  0  0  0  0  0  0  0
   58.6060   21.4620   43.3520 C   0  0  0  0  0  0  0  0  0  0  0  0
   59.7800   21.8500   44.2560 C   0  0  0  0  0  0  0  0  0  0  0  0
   59.3900   22.9110   45.1840 N   0  0  0  0  0  0  0  0  0  0  0  0
   60.3320   23.8970   45.6350 C   0  0  0  0  0  0  0  0  0  0  0  0
   61.5360   23.8360   45.2630 O   0  0  0  0  0  0  0  0  0  0  0  0
   59.9100   25.0060   46.4370 N   0  0  0  0  0  0  0  0  0  0  0  0
   58.7960   25.8580   46.1480 C   0  0  0  0  0  0  0  0  0  0  0  0
   57.6400   25.3660   45.5220 C   0  0  0  0  0  0  0  0  0  0  0  0
   56.5730   26.2240   45.2460 C   0  0  0  0  0  0  0  0  0  0  0  0
   56.6450   27.5760   45.6000 C   0  0  0  0  0  0  0  0  0  0  0  0
   55.6030   28.4260   45.2490 O   0  0  0  0  0  0  0  0  0  0  0  0
   57.7830   28.0670   46.2750 C   0  0  0  0  0  0  0  0  0  0  0  0
   57.9360   29.4570   46.5960 N   0  0  0  0  0  0  0  0  0  0  0  0
   58.6960   29.9560   47.5250 C   0  0  0  0  0  0  0  0  0  0  0  0
   58.4570   29.6270   48.8180 N   0  0  0  0  0  0  0  0  0  0  0  0
   59.2030   30.1620   49.8170 C   0  0  0  0  0  0  0  0  0  0  0  0
   58.9310   29.7960   51.1420 O   0  0  0  0  0  0  0  0  0  0  0  0
   57.7070   29.9700   51.8080 C   0  0  0  0  0  0  0  0  0  0  0  0
   56.9630   31.1260   51.5350 C   0  0  0  0  0  0  0  0  0  0  0  0
   55.7420   31.3510   52.1790 C   0  0  0  0  0  0  0  0  0  0  0  0
   55.2600   30.4310   53.1120 C   0  0  0  0  0  0  0  0  0  0  0  0
   56.0060   29.2870   53.4110 C   0  0  0  0  0  0  0  0  0  0  0  0
   57.2280   29.0580   52.7690 C   0  0  0  0  0  0  0  0  0  0  0  0
   60.2090   31.0230   49.5130 N   0  0  0  0  0  0  0  0  0  0  0  0
   60.4520   31.3710   48.2220 C   0  0  0  0  0  0  0  0  0  0  0  0
   61.4980   32.3030   47.9150 N   0  0  0  0  0  0  0  0  0  0  0  0
   61.5240   33.1100   46.7070 C   0  0  0  0  0  0  0  0  0  0  0  0
   62.8560   33.8560   46.7320 C   0  0  0  0  0  0  0  0  0  0  0  0
   63.4100   33.6930   48.1550 C   0  0  2  0  0  0  0  0  0  0  0  0
   64.7960   33.4560   48.1560 O   0  0  0  0  0  0  0  0  0  0  0  0
   62.6290   32.5450   48.7960 C   0  0  0  0  0  0  0  0  0  0  0  0
   59.6890   30.8400   47.2290 N   0  0  0  0  0  0  0  0  0  0  0  0
   58.8520   27.2000   46.5350 C   0  0  0  0  0  0  0  0  0  0  0  0
   56.6480   23.0520   43.2550 C   0  0  0  0  0  0  0  0  0  0  0  0
   55.4540   23.5610   43.7790 C   0  0  0  0  0  0  0  0  0  0  0  0
   51.8250   22.1780   44.9670 H   0  0  0  0  0  0  0  0  0  0  0  0
   55.1582   21.5495   46.5327 H   0  0  0  0  0  0  0  0  0  0  0  0
   57.2942   20.6498   45.6093 H   0  0  0  0  0  0  0  0  0  0  0  0
   58.5479   20.3654   43.2877 H   0  0  0  0  0  0  0  0  0  0  0  0
   58.7710   21.8968   42.3551 H   0  0  0  0  0  0  0  0  0  0  0  0
   60.1004   20.9681   44.8301 H   0  0  0  0  0  0  0  0  0  0  0  0
   60.6045   22.2163   43.6267 H   0  0  0  0  0  0  0  0  0  0  0  0
   58.3880   23.0010   45.4660 H   0  0  0  0  0  0  0  0  0  0  0  0
   57.5743   24.3026   45.2483 H   0  0  0  0  0  0  0  0  0  0  0  0
   55.6723   25.8354   44.7483 H   0  0  0  0  0  0  0  0  0  0  0  0
   57.3418   31.8610   50.8096 H   0  0  0  0  0  0  0  0  0  0  0  0
   55.1597   32.2556   51.9497 H   0  0  0  0  0  0  0  0  0  0  0  0
   54.2953   30.6059   53.6108 H   0  0  0  0  0  0  0  0  0  0  0  0
   55.6316   28.5657   54.1523 H   0  0  0  0  0  0  0  0  0  0  0  0
   57.8170   28.1623   53.0156 H   0  0  0  0  0  0  0  0  0  0  0  0
   61.4616   32.4677   45.8162 H   0  0  0  0  0  0  0  0  0  0  0  0
   60.6722   33.8048   46.6665 H   0  0  0  0  0  0  0  0  0  0  0  0
   63.5513   33.4200   45.9996 H   0  0  0  0  0  0  0  0  0  0  0  0
   62.7271   34.9166   46.4705 H   0  0  0  0  0  0  0  0  0  0  0  0
   63.2797   34.6200   48.7327 H   0  0  0  0  0  0  0  0  0  0  0  0
   65.0050   32.8640   47.3870 H   0  0  0  0  0  0  0  0  0  0  0  0
   63.2584   31.6458   48.8690 H   0  0  0  0  0  0  0  0  0  0  0  0
   62.3042   32.7934   49.8172 H   0  0  0  0  0  0  0  0  0  0  0  0
   59.7466   27.5799   47.0501 H   0  0  0  0  0  0  0  0  0  0  0  0
   57.0703   23.4825   42.3351 H   0  0  0  0  0  0  0  0  0  0  0  0
   54.9417   24.3905   43.2696 H   0  0  0  0  0  0  0  0  0  0  0  0
  1  2  1  0
  2  3  2  0
  2  4  2  0
  2  5  1  0
  5  6  2  0
  6  7  1  0
  7  8  2  0
  8  9  1  0
  9 10  1  0
 10 11  1  0
 11 12  1  0
 12 13  2  0
 12 14  1  0
 14 15  1  0
 15 16  2  0
 16 17  1  0
 17 18  2  0
 18 19  1  0
 18 20  1  0
 20 21  1  0
 21 22  2  3
 22 23  1  0
 23 24  2  0
 24 25  1  0
 25 26  1  0
 26 27  2  0
 27 28  1  0
 28 29  2  0
 29 30  1  0
 30 31  2  0
 24 32  1  0
 32 33  1  0
 33 34  1  0
 34 35  1  0
 35 36  1  0
 36 37  1  0
 37 38  1  0
 37 39  1  0
 33 40  2  0
 20 41  2  0
  8 42  1  0
 42 43  2  0
 43  5  1  0
 41 15  1  0
 40 22  1  0
 31 26  1  0
 39 34  1  0
  1 44  1  0
  6 45  1  0
  7 46  1  0
  9 47  1  0
  9 48  1  0
 10 49  1  0
 10 50  1  0
 11 51  1  0
 16 52  1  0
 17 53  1  0
 27 54  1  0
 28 55  1  0
 29 56  1  0
 30 57  1  0
 31 58  1  0
 35 59  1  0
 35 60  1  0
 36 61  1  0
 36 62  1  0
 37 63  1  1
 38 64  1  0
 39 65  1  0
 39 66  1  0
 41 67  1  0
 42 68  1  0
 43 69  1  0
M  CHG  4   1  -1  14  -1  19  -1  32  -1
M  END
>  <UniqueID>  (70) 
64

>  <SMILES>  (70) 
[NH-]S(=O)(=O)c1ccc(CCNC(=O)[N-]c2ccc([O-])c(N=c3nc(Oc4ccccc4)[n-]c(N4CC[C@H](O)C4)n3)c2)cc1

>  <Energy>  (70) 
87.58478174232432

>  <Genealogy>  (70) 
[NH-]S(=O)(=O)c1ccc(CCNC(=O)[N-]c2ccc([O-])c(N=c3nc(Oc4ccccc4)[n-]c(N4CCC(O)C4)n3)c2)cc1 (protonated)
[NH-]S(=O)(=O)c1ccc(CCNC(=O)[N-]c2ccc([O-])c(N=c3nc(Oc4ccccc4)[n-]c(N4CC[C@H](O)C4)n3)c2)cc1 (chirality)
[NH-]S(=O)(=O)c1ccc(CCNC(=O)[N-]c2ccc([O-])c(N=c3nc(Oc4ccccc4)[n-]c(N4CC[C@H](O)C4)n3)c2)cc1 (3D coordinates assigned)
[NH-]S(=O)(=O)c1ccc(CCNC(=O)[N-]c2ccc([O-])c(N=c3nc(Oc4ccccc4)[n-]c(N4CC[C@H](O)C4)n3)c2)cc1 (nonaromatic ring conformer: 87.58478174232432 kcal/mol)

>  <smiles>  (70) 
NS(=O)(=O)c1ccc(CCNC(=O)Nc2ccc(O)c(N=c3nc(Oc4ccccc4)[nH]c(N4CCC(O)C4)n3)c2)cc1

>  <score_type>  (70) 
oracle

>  <origin>  (70) 
adg

>  <m_score__min__energy>  (70) 
-15.390000000000001

>  <m_primary>  (70) 
energy

$$$$
70:0
     RDKit          3D

 55 58  0  0  0  0  0  0  0  0999 V2000
   53.9140   23.5230   43.0390 O   0  0  0  0  0  0  0  0  0  0  0  0
   54.2590   23.3880   44.2430 C   0  0  0  0  0  0  0  0  0  0  0  0
   53.4730   22.6030   45.0790 O   0  0  0  0  0  0  0  0  0  0  0  0
   55.4930   24.0320   44.7640 C   0  0  0  0  0  0  0  0  0  0  0  0
   56.7300   23.3850   44.5900 C   0  0  0  0  0  0  0  0  0  0  0  0
   57.9070   23.9560   45.0750 C   0  0  0  0  0  0  0  0  0  0  0  0
   57.8730   25.1910   45.7200 C   0  0  0  0  0  0  0  0  0  0  0  0
   56.6620   25.8730   45.8860 C   0  0  0  0  0  0  0  0  0  0  0  0
   56.6750   27.1590   46.5380 N   0  0  0  0  0  0  0  0  0  0  0  0
   57.4880   28.2670   46.1120 C   0  0  0  0  0  0  0  0  0  0  0  0
   56.9120   29.4000   45.5150 C   0  0  0  0  0  0  0  0  0  0  0  0
   55.5490   29.4230   45.2330 O   0  0  0  0  0  0  0  0  0  0  0  0
   57.7120   30.5060   45.2010 C   0  0  0  0  0  0  0  0  0  0  0  0
   57.0930   31.7880   44.7020 C   0  0  0  0  0  0  0  0  0  0  0  0
   57.8670   32.9720   45.2240 C   0  0  0  0  0  0  0  0  0  0  0  0
   58.2020   34.0260   44.3600 C   0  0  0  0  0  0  0  0  0  0  0  0
   58.9900   35.0850   44.8140 C   0  0  0  0  0  0  0  0  0  0  0  0
   59.4460   35.1060   46.1340 C   0  0  0  0  0  0  0  0  0  0  0  0
   59.0980   34.0730   47.0230 C   0  0  0  0  0  0  0  0  0  0  0  0
   59.6110   34.0590   48.4410 C   0  0  0  0  0  0  0  0  0  0  0  0
   59.0420   32.9980   49.1230 F   0  0  0  0  0  0  0  0  0  0  0  0
   59.2720   35.2400   49.0800 F   0  0  0  0  0  0  0  0  0  0  0  0
   60.9870   33.9270   48.4750 F   0  0  0  0  0  0  0  0  0  0  0  0
   58.3220   32.9980   46.5530 C   0  0  0  0  0  0  0  0  0  0  0  0
   59.0900   30.4350   45.4380 C   0  0  0  0  0  0  0  0  0  0  0  0
   59.6580   29.3070   45.9630 N   0  0  0  0  0  0  0  0  0  0  0  0
   61.1200   29.2670   46.1360 C   0  0  0  0  0  0  0  0  0  0  0  0
   61.5310   30.1480   47.2880 C   0  0  0  0  0  0  0  0  0  0  0  0
   60.9670   29.9630   48.5620 C   0  0  0  0  0  0  0  0  0  0  0  0
   61.3770   30.7590   49.6350 C   0  0  0  0  0  0  0  0  0  0  0  0
   62.3560   31.7380   49.4460 C   0  0  0  0  0  0  0  0  0  0  0  0
   62.9290   31.9220   48.1850 C   0  0  0  0  0  0  0  0  0  0  0  0
   62.5210   31.1280   47.1090 C   0  0  0  0  0  0  0  0  0  0  0  0
   58.8790   28.2270   46.2970 C   0  0  0  0  0  0  0  0  0  0  0  0
   59.4050   27.1920   46.7930 O   0  0  0  0  0  0  0  0  0  0  0  0
   55.4600   25.2730   45.4420 C   0  0  0  0  0  0  0  0  0  0  0  0
   54.2430   25.8990   45.6940 O   0  0  0  0  0  0  0  0  0  0  0  0
   56.7697   22.4186   44.0660 H   0  0  0  0  0  0  0  0  0  0  0  0
   58.8646   23.4299   44.9479 H   0  0  0  0  0  0  0  0  0  0  0  0
   58.8051   25.6332   46.1016 H   0  0  0  0  0  0  0  0  0  0  0  0
   56.0590   27.2930   47.3710 H   0  0  0  0  0  0  0  0  0  0  0  0
   57.1111   31.7972   43.6022 H   0  0  0  0  0  0  0  0  0  0  0  0
   56.0543   31.8501   45.0587 H   0  0  0  0  0  0  0  0  0  0  0  0
   57.8421   34.0176   43.3206 H   0  0  0  0  0  0  0  0  0  0  0  0
   59.2526   35.9055   44.1301 H   0  0  0  0  0  0  0  0  0  0  0  0
   60.0808   35.9349   46.4803 H   0  0  0  0  0  0  0  0  0  0  0  0
   58.0692   32.1704   47.2320 H   0  0  0  0  0  0  0  0  0  0  0  0
   59.7258   31.3000   45.1982 H   0  0  0  0  0  0  0  0  0  0  0  0
   61.4339   28.2325   46.3394 H   0  0  0  0  0  0  0  0  0  0  0  0
   61.6009   29.6307   45.2160 H   0  0  0  0  0  0  0  0  0  0  0  0
   60.2004   29.1891   48.7150 H   0  0  0  0  0  0  0  0  0  0  0  0
   60.9287   30.6148   50.6291 H   0  0  0  0  0  0  0  0  0  0  0  0
   62.6761   32.3648   50.2913 H   0  0  0  0  0  0  0  0  0  0  0  0
   63.7012   32.6916   48.0388 H   0  0  0  0  0  0  0  0  0  0  0  0
   62.9772   31.2714   46.1184 H   0  0  0  0  0  0  0  0  0  0  0  0
  1  2  2  0
  2  3  1  0
  2  4  1  0
  4  5  2  0
  5  6  1  0
  6  7  2  0
  7  8  1  0
  8  9  1  0
  9 10  1  0
 10 11  2  0
 11 12  1  0
 11 13  1  0
 13 14  1  0
 14 15  1  0
 15 16  2  0
 16 17  1  0
 17 18  2  0
 18 19  1  0
 19 20  1  0
 20 21  1  0
 20 22  1  0
 20 23  1  0
 19 24  2  0
 13 25  2  0
 25 26  1  0
 26 27  1  0
 27 28  1  0
 28 29  2  0
 29 30  1  0
 30 31  2  0
 31 32  1  0
 32 33  2  0
 26 34  1  0
 34 35  2  0
  8 36  2  0
 36 37  1  0
 36  4  1  0
 34 10  1  0
 24 15  1  0
 33 28  1  0
  5 38  1  0
  6 39  1  0
  7 40  1  0
  9 41  1  0
 14 42  1  0
 14 43  1  0
 16 44  1  0
 17 45  1  0
 18 46  1  0
 24 47  1  0
 25 48  1  0
 27 49  1  0
 27 50  1  0
 29 51  1  0
 30 52  1  0
 31 53  1  0
 32 54  1  0
 33 55  1  0
M  CHG  3   3  -1  12  -1  37  -1
M  END
>  <UniqueID>  (71) 
65

>  <SMILES>  (71) 
O=C([O-])c1cccc(Nc2c([O-])c(Cc3cccc(C(F)(F)F)c3)cn(Cc3ccccc3)c2=O)c1[O-]

>  <Energy>  (71) 
70.87212296211867

>  <Genealogy>  (71) 
O=C([O-])c1cccc(Nc2c([O-])c(Cc3cccc(C(F)(F)F)c3)cn(Cc3ccccc3)c2=O)c1[O-] (protonated)
O=C([O-])c1cccc(Nc2c([O-])c(Cc3cccc(C(F)(F)F)c3)cn(Cc3ccccc3)c2=O)c1[O-] (3D coordinates assigned)
O=C([O-])c1cccc(Nc2c([O-])c(Cc3cccc(C(F)(F)F)c3)cn(Cc3ccccc3)c2=O)c1[O-] (optimized conformer: 70.87212296211867 kcal/mol)

>  <smiles>  (71) 
O=C(O)c1cccc(Nc2c(O)c(Cc3cccc(C(F)(F)F)c3)cn(Cc3ccccc3)c2=O)c1O

>  <score_type>  (71) 
oracle

>  <origin>  (71) 
adg

>  <m_score__min__energy>  (71) 
-16.199999999999999

>  <m_primary>  (71) 
energy

$$$$
71:0
     RDKit          3D

 39 41  0  0  0  0  0  0  0  0999 V2000
   60.2870   32.8120   46.3410 N   0  0  0  0  0  0  0  0  0  0  0  0
   58.8450   33.5210   45.7060 S   0  0  0  0  0  0  0  0  0  0  0  0
   59.1930   34.7550   44.9200 O   0  0  0  0  0  0  0  0  0  0  0  0
   57.9350   33.9110   46.8370 O   0  0  0  0  0  0  0  0  0  0  0  0
   58.0310   32.3580   44.6650 C   0  0  0  0  0  0  0  0  0  0  0  0
   58.0510   32.5190   43.2730 C   0  0  0  0  0  0  0  0  0  0  0  0
   57.3970   31.5960   42.4510 C   0  0  0  0  0  0  0  0  0  0  0  0
   56.7370   30.5000   43.0140 C   0  0  0  0  0  0  0  0  0  0  0  0
   56.7460   30.3080   44.4010 C   0  0  0  0  0  0  0  0  0  0  0  0
   56.0560   29.1800   44.9520 N   0  0  0  0  0  0  0  0  0  0  0  0
   56.6650   28.0110   45.5160 C   0  0  0  0  0  0  0  0  0  0  0  0
   55.9230   27.1010   45.9720 O   0  0  0  0  0  0  0  0  0  0  0  0
   58.1560   27.7980   45.5070 C   0  0  0  0  0  0  0  0  0  0  0  0
   58.7630   27.2550   47.1420 S   0  0  0  0  0  0  0  0  0  0  0  0
   58.9570   28.9160   47.7820 C   0  0  0  0  0  0  0  0  0  0  0  0
   59.5460   29.9110   47.0990 N   0  0  0  0  0  0  0  0  0  0  0  0
   59.5070   30.9750   47.8810 N   0  0  0  0  0  0  0  0  0  0  0  0
   58.8930   30.5980   49.0200 C   0  0  0  0  0  0  0  0  0  0  0  0
   58.6500   31.5030   50.1640 C   0  0  0  0  0  0  0  0  0  0  0  0
   57.6950   31.1730   51.1440 C   0  0  0  0  0  0  0  0  0  0  0  0
   57.4670   32.0300   52.2250 C   0  0  0  0  0  0  0  0  0  0  0  0
   58.1850   33.2230   52.3380 C   0  0  0  0  0  0  0  0  0  0  0  0
   59.1360   33.5590   51.3710 C   0  0  0  0  0  0  0  0  0  0  0  0
   59.3690   32.7050   50.2890 C   0  0  0  0  0  0  0  0  0  0  0  0
   58.5260   29.3000   48.9980 N   0  0  0  0  0  0  0  0  0  0  0  0
   57.3730   31.2540   45.2260 C   0  0  0  0  0  0  0  0  0  0  0  0
   60.2620   32.9430   47.3770 H   0  0  0  0  0  0  0  0  0  0  0  0
   60.2260   31.7840   46.1650 H   0  0  0  0  0  0  0  0  0  0  0  0
   58.5819   33.3726   42.8264 H   0  0  0  0  0  0  0  0  0  0  0  0
   57.4019   31.7327   41.3595 H   0  0  0  0  0  0  0  0  0  0  0  0
   56.2087   29.7859   42.3652 H   0  0  0  0  0  0  0  0  0  0  0  0
   58.4029   27.0289   44.7603 H   0  0  0  0  0  0  0  0  0  0  0  0
   58.6402   28.7539   45.2585 H   0  0  0  0  0  0  0  0  0  0  0  0
   57.1251   30.2360   51.0590 H   0  0  0  0  0  0  0  0  0  0  0  0
   56.7206   31.7643   52.9881 H   0  0  0  0  0  0  0  0  0  0  0  0
   58.0018   33.8973   53.1876 H   0  0  0  0  0  0  0  0  0  0  0  0
   59.7026   34.4975   51.4613 H   0  0  0  0  0  0  0  0  0  0  0  0
   60.1191   32.9749   49.5310 H   0  0  0  0  0  0  0  0  0  0  0  0
   57.3483   31.1290   46.3186 H   0  0  0  0  0  0  0  0  0  0  0  0
  1  2  1  0
  2  3  2  0
  2  4  2  0
  2  5  1  0
  5  6  2  0
  6  7  1  0
  7  8  2  0
  8  9  1  0
  9 10  1  0
 10 11  1  0
 11 12  2  0
 11 13  1  0
 13 14  1  0
 14 15  1  0
 15 16  2  0
 16 17  1  0
 17 18  1  0
 18 19  1  0
 19 20  2  0
 20 21  1  0
 21 22  2  0
 22 23  1  0
 23 24  2  0
 18 25  2  0
  9 26  2  0
 26  5  1  0
 25 15  1  0
 24 19  1  0
  1 27  1  0
  1 28  1  0
  6 29  1  0
  7 30  1  0
  8 31  1  0
 13 32  1  0
 13 33  1  0
 20 34  1  0
 21 35  1  0
 22 36  1  0
 23 37  1  0
 24 38  1  0
 26 39  1  0
M  CHG  2  10  -1  17  -1
M  END
>  <UniqueID>  (72) 
66

>  <SMILES>  (72) 
NS(=O)(=O)c1cccc([N-]C(=O)CSc2n[n-]c(-c3ccccc3)n2)c1

>  <Energy>  (72) 
73.58920603307273

>  <Genealogy>  (72) 
NS(=O)(=O)c1cccc([N-]C(=O)CSc2n[n-]c(-c3ccccc3)n2)c1 (protonated)
NS(=O)(=O)c1cccc([N-]C(=O)CSc2n[n-]c(-c3ccccc3)n2)c1 (3D coordinates assigned)
NS(=O)(=O)c1cccc([N-]C(=O)CSc2n[n-]c(-c3ccccc3)n2)c1 (optimized conformer: 73.58920603307273 kcal/mol)

>  <smiles>  (72) 
NS(=O)(=O)c1cccc(NC(=O)CSc2n[nH]c(-c3ccccc3)n2)c1

>  <score_type>  (72) 
oracle

>  <origin>  (72) 
adg

>  <m_score__min__energy>  (72) 
-13.16

>  <m_primary>  (72) 
energy

$$$$
72:0
     RDKit          3D

 43 45  0  0  0  0  0  0  0  0999 V2000
   55.1690   29.3310   44.8700 O   0  0  0  0  0  0  0  0  0  0  0  0
   56.1130   30.0140   44.3950 C   0  0  0  0  0  0  0  0  0  0  0  0
   57.0630   29.3810   43.4160 C   0  0  0  0  0  0  0  0  0  0  0  0
   58.7340   29.2140   44.1420 S   0  0  0  0  0  0  0  0  0  0  0  0
   58.2830   27.9230   45.3020 C   0  0  0  0  0  0  0  0  0  0  0  0
   59.1510   27.5750   46.2890 N   0  0  0  0  0  0  0  0  0  0  0  0
   58.8360   26.6060   47.1870 C   0  0  0  0  0  0  0  0  0  0  0  0
   57.6060   25.9560   47.1050 C   0  0  0  0  0  0  0  0  0  0  0  0
   56.7220   26.3310   46.0940 C   0  0  0  0  0  0  0  0  0  0  0  0
   57.0710   27.3070   45.2140 N   0  0  0  0  0  0  0  0  0  0  0  0
   56.2750   31.3680   44.8380 N   0  0  0  0  0  0  0  0  0  0  0  0
   57.4460   31.9300   45.4470 C   0  0  0  0  0  0  0  0  0  0  0  0
   58.1570   31.2430   46.4450 C   0  0  0  0  0  0  0  0  0  0  0  0
   59.3120   31.8040   46.9990 C   0  0  0  0  0  0  0  0  0  0  0  0
   59.7870   33.0470   46.5490 C   0  0  0  0  0  0  0  0  0  0  0  0
   60.9690   33.6320   47.1300 N   0  0  0  0  0  0  0  0  0  0  0  0
   62.2390   33.6020   46.3870 C   0  0  0  0  0  0  0  0  0  0  0  0
   63.4320   33.9280   47.2970 C   0  0  0  0  0  0  0  0  0  0  0  0
   63.2930   33.2020   48.6400 C   0  0  0  0  0  0  0  0  0  0  0  0
   61.9850   33.5620   49.3800 C   0  0  0  0  0  0  0  0  0  0  0  0
   60.9350   34.2230   48.4750 C   0  0  0  0  0  0  0  0  0  0  0  0
   59.0830   33.7190   45.5360 C   0  0  0  0  0  0  0  0  0  0  0  0
   57.9280   33.1580   44.9830 C   0  0  0  0  0  0  0  0  0  0  0  0
   56.6875   28.3837   43.1434 H   0  0  0  0  0  0  0  0  0  0  0  0
   57.1295   30.0233   42.5255 H   0  0  0  0  0  0  0  0  0  0  0  0
   59.5507   26.3346   47.9779 H   0  0  0  0  0  0  0  0  0  0  0  0
   57.3387   25.1652   47.8214 H   0  0  0  0  0  0  0  0  0  0  0  0
   55.7427   25.8375   46.0084 H   0  0  0  0  0  0  0  0  0  0  0  0
   56.3960   27.5880   44.4680 H   0  0  0  0  0  0  0  0  0  0  0  0
   57.8041   30.2606   46.7918 H   0  0  0  0  0  0  0  0  0  0  0  0
   59.8525   31.2679   47.7930 H   0  0  0  0  0  0  0  0  0  0  0  0
   62.3794   32.5981   45.9597 H   0  0  0  0  0  0  0  0  0  0  0  0
   62.1924   34.3626   45.5937 H   0  0  0  0  0  0  0  0  0  0  0  0
   64.3617   33.6059   46.8053 H   0  0  0  0  0  0  0  0  0  0  0  0
   63.4568   35.0127   47.4783 H   0  0  0  0  0  0  0  0  0  0  0  0
   63.3066   32.1174   48.4568 H   0  0  0  0  0  0  0  0  0  0  0  0
   64.1326   33.5176   49.2767 H   0  0  0  0  0  0  0  0  0  0  0  0
   61.5549   32.6394   49.7970 H   0  0  0  0  0  0  0  0  0  0  0  0
   62.2442   34.2903   50.1626 H   0  0  0  0  0  0  0  0  0  0  0  0
   59.9361   34.0737   48.9108 H   0  0  0  0  0  0  0  0  0  0  0  0
   61.1583   35.2973   48.3971 H   0  0  0  0  0  0  0  0  0  0  0  0
   59.4431   34.6938   45.1752 H   0  0  0  0  0  0  0  0  0  0  0  0
   57.3952   33.6857   44.1782 H   0  0  0  0  0  0  0  0  0  0  0  0
  1  2  2  0
  2  3  1  0
  3  4  1  0
  4  5  1  0
  5  6  2  0
  6  7  1  0
  7  8  2  0
  8  9  1  0
  9 10  2  0
  2 11  1  0
 11 12  1  0
 12 13  2  0
 13 14  1  0
 14 15  2  0
 15 16  1  0
 16 17  1  0
 17 18  1  0
 18 19  1  0
 19 20  1  0
 20 21  1  0
 15 22  1  0
 22 23  2  0
 10  5  1  0
 23 12  1  0
 21 16  1  0
  3 24  1  0
  3 25  1  0
  7 26  1  0
  8 27  1  0
  9 28  1  0
 10 29  1  0
 13 30  1  0
 14 31  1  0
 17 32  1  0
 17 33  1  0
 18 34  1  0
 18 35  1  0
 19 36  1  0
 19 37  1  0
 20 38  1  0
 20 39  1  0
 21 40  1  0
 21 41  1  0
 22 42  1  0
 23 43  1  0
M  CHG  2  10   1  11  -1
M  END
>  <UniqueID>  (73) 
67

>  <SMILES>  (73) 
O=C(CSc1nccc[nH+]1)[N-]c1ccc(N2CCCCC2)cc1

>  <Energy>  (73) 
51.478646764116405

>  <Genealogy>  (73) 
O=C(CSc1nccc[nH+]1)[N-]c1ccc(N2CCCCC2)cc1 (protonated)
O=C(CSc1nccc[nH+]1)[N-]c1ccc(N2CCCCC2)cc1 (3D coordinates assigned)
O=C(CSc1nccc[nH+]1)[N-]c1ccc(N2CCCCC2)cc1 (nonaromatic ring conformer: 51.478646764116405 kcal/mol)

>  <smiles>  (73) 
O=C(CSc1ncccn1)Nc1ccc(N2CCCCC2)cc1

>  <score_type>  (73) 
oracle

>  <origin>  (73) 
adg

>  <m_score__min__energy>  (73) 
-8.25

>  <m_primary>  (73) 
energy

$$$$
73:0
     RDKit          3D

 56 58  0  0  0  0  0  0  0  0999 V2000
   58.8200   23.3350   45.2650 C   0  0  0  0  0  0  0  0  0  0  0  0
   58.7570   24.6300   46.0740 C   0  0  0  0  0  0  0  0  0  0  0  0
   57.5570   25.5130   45.6500 C   0  0  1  0  0  0  0  0  0  0  0  0
   56.3400   25.2270   46.5040 C   0  0  0  0  0  0  0  0  0  0  0  0
   56.4820   24.8280   47.6880 O   0  0  0  0  0  0  0  0  0  0  0  0
   55.0040   25.3600   45.9920 N   0  0  0  0  0  0  0  0  0  0  0  0
   54.2290   24.3320   45.3000 C   0  0  0  0  0  0  0  0  0  0  0  0
   55.1370   23.3230   44.6500 C   0  0  0  0  0  0  0  0  0  0  0  0
   55.6540   23.5640   43.3660 C   0  0  0  0  0  0  0  0  0  0  0  0
   56.4620   22.6090   42.7400 C   0  0  0  0  0  0  0  0  0  0  0  0
   56.7620   21.4090   43.3900 C   0  0  0  0  0  0  0  0  0  0  0  0
   56.2490   21.1590   44.6670 C   0  0  0  0  0  0  0  0  0  0  0  0
   55.4340   22.1090   45.2930 C   0  0  0  0  0  0  0  0  0  0  0  0
   57.8840   26.9610   45.6380 N   0  0  0  0  0  0  0  0  0  0  0  0
   57.4440   27.8050   46.7590 C   0  0  0  0  0  0  0  0  0  0  0  0
   58.5890   28.6310   47.2790 C   0  0  0  0  0  0  0  0  0  0  0  0
   58.6080   30.0200   47.0660 C   0  0  0  0  0  0  0  0  0  0  0  0
   59.6820   30.7890   47.5240 C   0  0  0  0  0  0  0  0  0  0  0  0
   60.7410   30.1790   48.2060 C   0  0  0  0  0  0  0  0  0  0  0  0
   60.7260   28.7990   48.4280 C   0  0  0  0  0  0  0  0  0  0  0  0
   59.6570   28.0250   47.9620 C   0  0  0  0  0  0  0  0  0  0  0  0
   58.4200   27.6280   44.4800 C   0  0  0  0  0  0  0  0  0  0  0  0
   59.6400   27.4800   44.1960 O   0  0  0  0  0  0  0  0  0  0  0  0
   57.5400   28.4000   43.5370 C   0  0  0  0  0  0  0  0  0  0  0  0
   57.3930   29.7980   43.9770 N   0  0  0  0  0  0  0  0  0  0  0  0
   58.4540   30.6550   43.8620 C   0  0  0  0  0  0  0  0  0  0  0  0
   58.3360   31.9880   44.2500 C   0  0  0  0  0  0  0  0  0  0  0  0
   57.1170   32.4270   44.7620 C   0  0  0  0  0  0  0  0  0  0  0  0
   56.9730   33.6240   45.1250 O   0  0  0  0  0  0  0  0  0  0  0  0
   56.0800   31.5580   44.8700 N   0  0  0  0  0  0  0  0  0  0  0  0
   56.2020   30.2600   44.4870 C   0  0  0  0  0  0  0  0  0  0  0  0
   55.2110   29.4900   44.6100 O   0  0  0  0  0  0  0  0  0  0  0  0
   58.8618   22.4759   45.9508 H   0  0  0  0  0  0  0  0  0  0  0  0
   57.9247   23.2548   44.6310 H   0  0  0  0  0  0  0  0  0  0  0  0
   59.7189   23.3421   44.6310 H   0  0  0  0  0  0  0  0  0  0  0  0
   58.6560   24.3795   47.1403 H   0  0  0  0  0  0  0  0  0  0  0  0
   59.6817   25.1959   45.8877 H   0  0  0  0  0  0  0  0  0  0  0  0
   57.3177   25.2420   44.6111 H   0  0  0  0  0  0  0  0  0  0  0  0
   53.5815   23.8189   46.0263 H   0  0  0  0  0  0  0  0  0  0  0  0
   53.6227   24.8144   44.5191 H   0  0  0  0  0  0  0  0  0  0  0  0
   55.4224   24.5078   42.8507 H   0  0  0  0  0  0  0  0  0  0  0  0
   56.8621   22.8031   41.7339 H   0  0  0  0  0  0  0  0  0  0  0  0
   57.4013   20.6614   42.8977 H   0  0  0  0  0  0  0  0  0  0  0  0
   56.4863   20.2151   45.1796 H   0  0  0  0  0  0  0  0  0  0  0  0
   55.0239   21.9046   46.2930 H   0  0  0  0  0  0  0  0  0  0  0  0
   56.6419   28.4745   46.4148 H   0  0  0  0  0  0  0  0  0  0  0  0
   57.0766   27.1573   47.5686 H   0  0  0  0  0  0  0  0  0  0  0  0
   57.7742   30.5043   46.5366 H   0  0  0  0  0  0  0  0  0  0  0  0
   59.6947   31.8748   47.3481 H   0  0  0  0  0  0  0  0  0  0  0  0
   61.5848   30.7853   48.5672 H   0  0  0  0  0  0  0  0  0  0  0  0
   61.5554   28.3207   48.9696 H   0  0  0  0  0  0  0  0  0  0  0  0
   59.6529   26.9381   48.1311 H   0  0  0  0  0  0  0  0  0  0  0  0
   57.9882   28.3843   42.5326 H   0  0  0  0  0  0  0  0  0  0  0  0
   56.5452   27.9307   43.5226 H   0  0  0  0  0  0  0  0  0  0  0  0
   59.4094   30.2877   43.4592 H   0  0  0  0  0  0  0  0  0  0  0  0
   59.1868   32.6787   44.1541 H   0  0  0  0  0  0  0  0  0  0  0  0
  1  2  1  0
  2  3  1  0
  3  4  1  0
  4  5  2  0
  4  6  1  0
  6  7  1  0
  7  8  1  0
  8  9  2  0
  9 10  1  0
 10 11  2  0
 11 12  1  0
 12 13  2  0
  3 14  1  0
 14 15  1  0
 15 16  1  0
 16 17  2  0
 17 18  1  0
 18 19  2  0
 19 20  1  0
 20 21  2  0
 14 22  1  0
 22 23  2  0
 22 24  1  0
 24 25  1  0
 25 26  1  0
 26 27  2  0
 27 28  1  0
 28 29  2  0
 28 30  1  0
 30 31  1  0
 31 32  2  0
 13  8  1  0
 21 16  1  0
 31 25  1  0
  1 33  1  0
  1 34  1  0
  1 35  1  0
  2 36  1  0
  2 37  1  0
  3 38  1  6
  7 39  1  0
  7 40  1  0
  9 41  1  0
 10 42  1  0
 11 43  1  0
 12 44  1  0
 13 45  1  0
 15 46  1  0
 15 47  1  0
 17 48  1  0
 18 49  1  0
 19 50  1  0
 20 51  1  0
 21 52  1  0
 24 53  1  0
 24 54  1  0
 26 55  1  0
 27 56  1  0
M  CHG  2   6  -1  30  -1
M  END
>  <UniqueID>  (74) 
68

>  <SMILES>  (74) 
CC[C@@H](C(=O)[N-]Cc1ccccc1)N(Cc1ccccc1)C(=O)Cn1ccc(=O)[n-]c1=O

>  <Energy>  (74) 
58.73561197946295

>  <Genealogy>  (74) 
CCC(C(=O)[N-]Cc1ccccc1)N(Cc1ccccc1)C(=O)Cn1ccc(=O)[n-]c1=O (protonated)
CC[C@@H](C(=O)[N-]Cc1ccccc1)N(Cc1ccccc1)C(=O)Cn1ccc(=O)[n-]c1=O (chirality)
CC[C@@H](C(=O)[N-]Cc1ccccc1)N(Cc1ccccc1)C(=O)Cn1ccc(=O)[n-]c1=O (3D coordinates assigned)
CC[C@@H](C(=O)[N-]Cc1ccccc1)N(Cc1ccccc1)C(=O)Cn1ccc(=O)[n-]c1=O (optimized conformer: 58.73561197946295 kcal/mol)

>  <smiles>  (74) 
CCC(C(=O)NCc1ccccc1)N(Cc1ccccc1)C(=O)Cn1ccc(=O)[nH]c1=O

>  <score_type>  (74) 
oracle

>  <origin>  (74) 
adg

>  <m_score__min__energy>  (74) 
-12.800000000000001

>  <m_primary>  (74) 
energy

$$$$
74:0
     RDKit          3D

 45 47  0  0  0  0  0  0  0  0999 V2000
   56.3300   32.7950   45.2330 O   0  0  0  0  0  0  0  0  0  0  0  0
   57.2410   32.1760   44.6210 C   0  0  0  0  0  0  0  0  0  0  0  0
   56.9140   31.1780   43.6510 N   0  0  0  0  0  0  0  0  0  0  0  0
   56.6800   29.4990   44.0140 S   0  0  0  0  0  0  0  0  0  0  0  0
   56.7150   28.7330   42.7230 O   0  0  0  0  0  0  0  0  0  0  0  0
   55.3430   29.2680   44.6620 O   0  0  0  0  0  0  0  0  0  0  0  0
   57.9560   28.9270   45.1080 C   0  0  0  0  0  0  0  0  0  0  0  0
   58.1080   29.5740   46.3470 C   0  0  0  0  0  0  0  0  0  0  0  0
   59.1250   29.2020   47.2270 C   0  0  0  0  0  0  0  0  0  0  0  0
   60.0110   28.1850   46.8820 C   0  0  0  0  0  0  0  0  0  0  0  0
   59.8780   27.5310   45.6580 C   0  0  0  0  0  0  0  0  0  0  0  0
   58.8520   27.8780   44.7590 C   0  0  0  0  0  0  0  0  0  0  0  0
   58.7350   27.0830   43.4730 C   0  0  0  0  0  0  0  0  0  0  0  0
   57.4110   26.4460   43.3370 N   0  0  0  0  0  0  0  0  0  0  0  0
   57.4180   25.0880   43.8260 C   0  0  0  0  0  0  0  0  0  0  0  0
   58.1240   24.7510   44.9920 C   0  0  0  0  0  0  0  0  0  0  0  0
   58.1350   23.4260   45.4340 C   0  0  0  0  0  0  0  0  0  0  0  0
   57.4670   22.4700   44.7380 N   0  0  0  0  0  0  0  0  0  0  0  0
   56.7730   22.7630   43.6060 C   0  0  0  0  0  0  0  0  0  0  0  0
   56.1680   21.8490   42.9880 O   0  0  0  0  0  0  0  0  0  0  0  0
   56.7370   24.0770   43.1270 C   0  0  0  0  0  0  0  0  0  0  0  0
   58.6200   32.4830   44.8690 N   0  0  0  0  0  0  0  0  0  0  0  0
   59.0940   33.1950   46.0240 C   0  0  0  0  0  0  0  0  0  0  0  0
   59.5490   32.5160   47.1720 C   0  0  0  0  0  0  0  0  0  0  0  0
   60.0320   33.2340   48.2700 C   0  0  0  0  0  0  0  0  0  0  0  0
   60.0780   34.6300   48.2300 C   0  0  0  0  0  0  0  0  0  0  0  0
   59.6500   35.3100   47.0880 C   0  0  0  0  0  0  0  0  0  0  0  0
   59.1660   34.5970   45.9870 C   0  0  0  0  0  0  0  0  0  0  0  0
   57.4170   30.3831   46.6260 H   0  0  0  0  0  0  0  0  0  0  0  0
   59.2269   29.7134   48.1955 H   0  0  0  0  0  0  0  0  0  0  0  0
   60.8156   27.8976   47.5749 H   0  0  0  0  0  0  0  0  0  0  0  0
   60.5853   26.7320   45.3908 H   0  0  0  0  0  0  0  0  0  0  0  0
   58.8927   27.7604   42.6208 H   0  0  0  0  0  0  0  0  0  0  0  0
   59.4947   26.2878   43.4941 H   0  0  0  0  0  0  0  0  0  0  0  0
   56.6850   27.0060   43.8410 H   0  0  0  0  0  0  0  0  0  0  0  0
   57.1440   26.4370   42.3250 H   0  0  0  0  0  0  0  0  0  0  0  0
   58.6654   25.5261   45.5542 H   0  0  0  0  0  0  0  0  0  0  0  0
   58.6856   23.1564   46.3473 H   0  0  0  0  0  0  0  0  0  0  0  0
   56.1795   24.3170   42.2096 H   0  0  0  0  0  0  0  0  0  0  0  0
   59.3150   32.1980   44.1420 H   0  0  0  0  0  0  0  0  0  0  0  0
   59.5240   31.4168   47.2043 H   0  0  0  0  0  0  0  0  0  0  0  0
   60.3765   32.6989   49.1672 H   0  0  0  0  0  0  0  0  0  0  0  0
   60.4513   35.1932   49.0980 H   0  0  0  0  0  0  0  0  0  0  0  0
   59.6937   36.4086   47.0545 H   0  0  0  0  0  0  0  0  0  0  0  0
   58.8396   35.1375   45.0863 H   0  0  0  0  0  0  0  0  0  0  0  0
  1  2  2  0
  2  3  1  0
  3  4  1  0
  4  5  2  0
  4  6  2  0
  4  7  1  0
  7  8  2  0
  8  9  1  0
  9 10  2  0
 10 11  1  0
 11 12  2  0
 12 13  1  0
 13 14  1  0
 14 15  1  0
 15 16  1  0
 16 17  2  0
 17 18  1  0
 18 19  1  0
 19 20  2  0
 19 21  1  0
  2 22  1  0
 22 23  1  0
 23 24  2  0
 24 25  1  0
 25 26  2  0
 26 27  1  0
 27 28  2  0
 12  7  1  0
 21 15  2  0
 28 23  1  0
  8 29  1  0
  9 30  1  0
 10 31  1  0
 11 32  1  0
 13 33  1  0
 13 34  1  0
 14 35  1  0
 14 36  1  0
 16 37  1  0
 17 38  1  0
 21 39  1  0
 22 40  1  0
 24 41  1  0
 25 42  1  0
 26 43  1  0
 27 44  1  0
 28 45  1  0
M  CHG  3   3  -1  14   1  18  -1
M  END
>  <UniqueID>  (75) 
69

>  <SMILES>  (75) 
O=C([N-]S(=O)(=O)c1ccccc1C[NH2+]c1cc[n-]c(=O)c1)Nc1ccccc1

>  <Energy>  (75) 
57.278083114982756

>  <Genealogy>  (75) 
O=C([N-]S(=O)(=O)c1ccccc1C[NH2+]c1cc[n-]c(=O)c1)Nc1ccccc1 (protonated)
O=C([N-]S(=O)(=O)c1ccccc1C[NH2+]c1cc[n-]c(=O)c1)Nc1ccccc1 (3D coordinates assigned)
O=C([N-]S(=O)(=O)c1ccccc1C[NH2+]c1cc[n-]c(=O)c1)Nc1ccccc1 (optimized conformer: 57.278083114982756 kcal/mol)

>  <smiles>  (75) 
O=C(Nc1ccccc1)NS(=O)(=O)c1ccccc1CNc1cc[nH]c(=O)c1

>  <score_type>  (75) 
oracle

>  <origin>  (75) 
adg

>  <m_score__min__energy>  (75) 
-9.7899999999999991

>  <m_primary>  (75) 
energy

$$$$
75:0
     RDKit          3D

 68 71  0  0  0  0  0  0  0  0999 V2000
   60.9490   27.9130   50.1280 C   0  0  0  0  0  0  0  0  0  0  0  0
   61.2760   28.6920   51.3220 N   0  0  0  0  0  0  0  0  0  0  0  0
   60.2350   29.0000   52.3130 C   0  0  0  0  0  0  0  0  0  0  0  0
   59.5650   30.3090   51.9800 C   0  0  0  0  0  0  0  0  0  0  0  0
   59.7490   31.4390   52.7960 C   0  0  0  0  0  0  0  0  0  0  0  0
   59.1200   32.6470   52.4780 C   0  0  0  0  0  0  0  0  0  0  0  0
   58.3100   32.7390   51.3400 C   0  0  0  0  0  0  0  0  0  0  0  0
   58.1290   31.6220   50.5200 C   0  0  0  0  0  0  0  0  0  0  0  0
   58.7540   30.4120   50.8380 C   0  0  0  0  0  0  0  0  0  0  0  0
   62.6250   29.1700   51.5000 C   0  0  0  0  0  0  0  0  0  0  0  0
   63.4930   28.3970   51.9990 O   0  0  0  0  0  0  0  0  0  0  0  0
   63.0300   30.5270   51.0600 C   0  0  0  0  0  0  0  0  0  0  0  0
   64.3410   30.9790   51.2630 C   0  0  0  0  0  0  0  0  0  0  0  0
   64.7260   32.2510   50.8340 C   0  0  0  0  0  0  0  0  0  0  0  0
   63.8020   33.0980   50.2260 C   0  0  0  0  0  0  0  0  0  0  0  0
   62.4640   32.6930   50.0750 C   0  0  0  0  0  0  0  0  0  0  0  0
   61.4690   33.5560   49.4880 N   0  0  0  0  0  0  0  0  0  0  0  0
   61.5510   34.1070   48.1580 C   0  0  0  0  0  0  0  0  0  0  0  0
   62.5790   33.9320   47.4530 O   0  0  0  0  0  0  0  0  0  0  0  0
   60.4350   34.9550   47.6210 C   0  0  0  0  0  0  0  0  0  0  0  0
   59.4090   34.1100   46.9110 C   0  0  0  0  0  0  0  0  0  0  0  0
   58.1560   33.8640   47.5000 C   0  0  0  0  0  0  0  0  0  0  0  0
   57.2050   33.0830   46.8350 C   0  0  0  0  0  0  0  0  0  0  0  0
   57.4930   32.5340   45.5690 C   0  0  0  0  0  0  0  0  0  0  0  0
   56.5330   31.7500   44.8410 N   0  0  0  0  0  0  0  0  0  0  0  0
   56.7640   30.4590   44.2560 C   0  0  0  0  0  0  0  0  0  0  0  0
   57.7250   30.2770   43.4660 O   0  0  0  0  0  0  0  0  0  0  0  0
   55.8320   29.3170   44.5380 C   0  0  0  0  0  0  0  0  0  0  0  0
   56.5650   28.1170   44.9370 N   0  0  0  0  0  0  0  0  0  0  0  0
   57.3160   27.9760   46.1490 C   0  0  0  0  0  0  0  0  0  0  0  0
   56.9120   27.1630   47.0220 O   0  0  0  0  0  0  0  0  0  0  0  0
   58.5490   28.7450   46.3960 C   0  0  0  0  0  0  0  0  0  0  0  0
   58.6660   29.5560   47.5370 C   0  0  0  0  0  0  0  0  0  0  0  0
   59.8310   30.2960   47.7570 C   0  0  0  0  0  0  0  0  0  0  0  0
   60.8840   30.2430   46.8370 C   0  0  0  0  0  0  0  0  0  0  0  0
   62.3490   31.1670   47.1210 Cl  0  0  0  0  0  0  0  0  0  0  0  0
   60.7670   29.4520   45.6880 C   0  0  0  0  0  0  0  0  0  0  0  0
   59.6020   28.7100   45.4660 C   0  0  0  0  0  0  0  0  0  0  0  0
   58.7210   32.8220   44.9630 C   0  0  0  0  0  0  0  0  0  0  0  0
   59.6760   33.5950   45.6290 C   0  0  0  0  0  0  0  0  0  0  0  0
   62.0930   31.3970   50.4720 C   0  0  0  0  0  0  0  0  0  0  0  0
   60.5394   26.9371   50.4277 H   0  0  0  0  0  0  0  0  0  0  0  0
   60.2027   28.4556   49.5292 H   0  0  0  0  0  0  0  0  0  0  0  0
   61.8590   27.7604   49.5292 H   0  0  0  0  0  0  0  0  0  0  0  0
   59.4833   28.1969   52.3109 H   0  0  0  0  0  0  0  0  0  0  0  0
   60.6999   29.0791   53.3068 H   0  0  0  0  0  0  0  0  0  0  0  0
   60.3899   31.3728   53.6876 H   0  0  0  0  0  0  0  0  0  0  0  0
   59.2620   33.5264   53.1233 H   0  0  0  0  0  0  0  0  0  0  0  0
   57.8163   33.6900   51.0914 H   0  0  0  0  0  0  0  0  0  0  0  0
   57.4948   31.6945   49.6242 H   0  0  0  0  0  0  0  0  0  0  0  0
   58.6095   29.5353   50.1895 H   0  0  0  0  0  0  0  0  0  0  0  0
   65.0719   30.3272   51.7638 H   0  0  0  0  0  0  0  0  0  0  0  0
   65.7640   32.5858   50.9769 H   0  0  0  0  0  0  0  0  0  0  0  0
   64.1201   34.0865   49.8630 H   0  0  0  0  0  0  0  0  0  0  0  0
   60.7230   33.9290   50.1150 H   0  0  0  0  0  0  0  0  0  0  0  0
   59.9509   35.4833   48.4556 H   0  0  0  0  0  0  0  0  0  0  0  0
   60.8554   35.6739   46.9023 H   0  0  0  0  0  0  0  0  0  0  0  0
   57.9227   34.2876   48.4880 H   0  0  0  0  0  0  0  0  0  0  0  0
   56.2270   32.8962   47.3025 H   0  0  0  0  0  0  0  0  0  0  0  0
   55.1481   29.6052   45.3499 H   0  0  0  0  0  0  0  0  0  0  0  0
   55.2725   29.0913   43.6182 H   0  0  0  0  0  0  0  0  0  0  0  0
   57.8382   29.6088   48.2595 H   0  0  0  0  0  0  0  0  0  0  0  0
   59.9205   30.9224   48.6568 H   0  0  0  0  0  0  0  0  0  0  0  0
   61.5907   29.4139   44.9600 H   0  0  0  0  0  0  0  0  0  0  0  0
   59.5097   28.0956   44.5583 H   0  0  0  0  0  0  0  0  0  0  0  0
   58.9362   32.4372   43.9552 H   0  0  0  0  0  0  0  0  0  0  0  0
   60.6431   33.8023   45.1477 H   0  0  0  0  0  0  0  0  0  0  0  0
   61.0573   31.0583   50.3213 H   0  0  0  0  0  0  0  0  0  0  0  0
  1  2  1  0
  2  3  1  0
  3  4  1  0
  4  5  2  0
  5  6  1  0
  6  7  2  0
  7  8  1  0
  8  9  2  0
  2 10  1  0
 10 11  2  0
 10 12  1  0
 12 13  2  0
 13 14  1  0
 14 15  2  0
 15 16  1  0
 16 17  1  0
 17 18  1  0
 18 19  2  0
 18 20  1  0
 20 21  1  0
 21 22  2  0
 22 23  1  0
 23 24  2  0
 24 25  1  0
 25 26  1  0
 26 27  2  0
 26 28  1  0
 28 29  1  0
 29 30  1  0
 30 31  2  0
 30 32  1  0
 32 33  2  0
 33 34  1  0
 34 35  2  0
 35 36  1  0
 35 37  1  0
 37 38  2  0
 24 39  1  0
 39 40  2  0
 16 41  2  0
  9  4  1  0
 41 12  1  0
 40 21  1  0
 38 32  1  0
  1 42  1  0
  1 43  1  0
  1 44  1  0
  3 45  1  0
  3 46  1  0
  5 47  1  0
  6 48  1  0
  7 49  1  0
  8 50  1  0
  9 51  1  0
 13 52  1  0
 14 53  1  0
 15 54  1  0
 17 55  1  0
 20 56  1  0
 20 57  1  0
 22 58  1  0
 23 59  1  0
 28 60  1  0
 28 61  1  0
 33 62  1  0
 34 63  1  0
 37 64  1  0
 38 65  1  0
 39 66  1  0
 40 67  1  0
 41 68  1  0
M  CHG  2  25  -1  29  -1
M  END
>  <UniqueID>  (76) 
70

>  <SMILES>  (76) 
CN(Cc1ccccc1)C(=O)c1cccc(NC(=O)Cc2ccc([N-]C(=O)C[N-]C(=O)c3ccc(Cl)cc3)cc2)c1

>  <Energy>  (76) 
85.93073089242746

>  <Genealogy>  (76) 
CN(Cc1ccccc1)C(=O)c1cccc(NC(=O)Cc2ccc([N-]C(=O)C[N-]C(=O)c3ccc(Cl)cc3)cc2)c1 (protonated)
CN(Cc1ccccc1)C(=O)c1cccc(NC(=O)Cc2ccc([N-]C(=O)C[N-]C(=O)c3ccc(Cl)cc3)cc2)c1 (3D coordinates assigned)
CN(Cc1ccccc1)C(=O)c1cccc(NC(=O)Cc2ccc([N-]C(=O)C[N-]C(=O)c3ccc(Cl)cc3)cc2)c1 (optimized conformer: 85.93073089242746 kcal/mol)

>  <smiles>  (76) 
CN(Cc1ccccc1)C(=O)c1cccc(NC(=O)Cc2ccc(NC(=O)CNC(=O)c3ccc(Cl)cc3)cc2)c1

>  <score_type>  (76) 
oracle

>  <origin>  (76) 
adg

>  <m_score__min__energy>  (76) 
-13.02

>  <m_primary>  (76) 
energy

$$$$
76:0
     RDKit          3D

 35 37  0  0  0  0  0  0  0  0999 V2000
   63.4526   34.7565   46.4825 H   0  0  0  0  0  0  0  0  0  0  0  0
   62.9360   33.8180   46.7320 C   0  0  0  0  0  0  0  0  0  0  0  0
   63.5930   32.7440   46.7830 O   0  0  0  0  0  0  0  0  0  0  0  0
   61.4870   33.8380   47.0010 C   0  0  0  0  0  0  0  0  0  0  0  0
   61.0280   34.1430   48.2910 C   0  0  0  0  0  0  0  0  0  0  0  0
   61.7501   34.3644   49.0907 H   0  0  0  0  0  0  0  0  0  0  0  0
   59.6590   34.1670   48.5650 C   0  0  0  0  0  0  0  0  0  0  0  0
   59.3072   34.4017   49.5805 H   0  0  0  0  0  0  0  0  0  0  0  0
   58.7350   33.8940   47.5540 C   0  0  0  0  0  0  0  0  0  0  0  0
   57.6582   33.9115   47.7780 H   0  0  0  0  0  0  0  0  0  0  0  0
   59.1730   33.5970   46.2520 C   0  0  0  0  0  0  0  0  0  0  0  0
   58.1970   33.3210   45.1690 C   0  0  0  0  0  0  0  0  0  0  0  0
   57.3600   34.2050   44.8470 O   0  0  0  0  0  0  0  0  0  0  0  0
   58.2220   32.0950   44.4210 N   0  0  0  0  0  0  0  0  0  0  0  0
   57.5550   31.0010   44.6740 C   0  0  0  0  0  0  0  0  0  0  0  0
   56.2800   30.8520   44.1160 C   0  0  0  0  0  0  0  0  0  0  0  0
   55.8571   31.6481   43.4857 H   0  0  0  0  0  0  0  0  0  0  0  0
   55.5470   29.6900   44.3620 C   0  0  0  0  0  0  0  0  0  0  0  0
   54.5511   29.5640   43.9122 H   0  0  0  0  0  0  0  0  0  0  0  0
   56.0600   28.7150   45.1550 N   0  0  0  0  0  0  0  0  0  0  0  0
   57.2800   28.8310   45.7440 C   0  0  0  0  0  0  0  0  0  0  0  0
   57.7480   27.7720   46.5360 O   0  0  0  0  0  0  0  0  0  0  0  0
   57.2710   26.4530   46.4940 C   0  0  0  0  0  0  0  0  0  0  0  0
   58.1720   25.3930   46.6170 C   0  0  0  0  0  0  0  0  0  0  0  0
   59.2442   25.5973   46.7539 H   0  0  0  0  0  0  0  0  0  0  0  0
   57.7280   24.1120   46.5680 N   0  0  0  0  0  0  0  0  0  0  0  0
   56.4100   23.8360   46.3870 C   0  0  0  0  0  0  0  0  0  0  0  0
   56.0662   22.7915   46.3587 H   0  0  0  0  0  0  0  0  0  0  0  0
   55.5170   24.8480   46.2410 N   0  0  0  0  0  0  0  0  0  0  0  0
   55.9190   26.1450   46.2860 C   0  0  0  0  0  0  0  0  0  0  0  0
   55.1839   26.9534   46.1593 H   0  0  0  0  0  0  0  0  0  0  0  0
   58.0550   29.9790   45.5060 C   0  0  0  0  0  0  0  0  0  0  0  0
   59.0484   30.0796   45.9675 H   0  0  0  0  0  0  0  0  0  0  0  0
   60.5540   33.5630   45.9860 C   0  0  0  0  0  0  0  0  0  0  0  0
   60.9074   33.3187   44.9734 H   0  0  0  0  0  0  0  0  0  0  0  0
  1  2  1  0
  2  3  2  0
  2  4  1  0
  4  5  2  0
  5  6  1  0
  5  7  1  0
  7  8  1  0
  7  9  2  0
  9 10  1  0
  9 11  1  0
 11 12  1  0
 12 13  2  0
 12 14  1  0
 14 15  2  0
 15 16  1  0
 16 17  1  0
 16 18  2  0
 18 19  1  0
 18 20  1  0
 20 21  1  0
 21 22  1  0
 22 23  1  0
 23 24  2  0
 24 25  1  0
 24 26  1  0
 26 27  2  0
 27 28  1  0
 27 29  1  0
 29 30  2  0
 30 31  1  0
 21 32  2  0
 32 33  1  0
 11 34  2  0
 34 35  1  0
 34  4  1  0
 32 15  1  0
 30 23  1  0
M  CHG  1  20  -1
M  END
>  <UniqueID>  (77) 
71

>  <SMILES>  (77) 
O=Cc1cccc(C(=O)/N=c2/cc[n-]c(Oc3cncnc3)c2)c1

>  <Energy>  (77) 
56.686947664994925

>  <Genealogy>  (77) 
O=Cc1cccc(C(=O)N=c2cc[n-]c(Oc3cncnc3)c2)c1 (protonated)
O=Cc1cccc(C(=O)/N=c2/cc[n-]c(Oc3cncnc3)c2)c1 (cis-trans isomerization)
O=Cc1cccc(C(=O)/N=c2/cc[n-]c(Oc3cncnc3)c2)c1 (3D coordinates assigned)
O=Cc1cccc(C(=O)/N=c2/cc[n-]c(Oc3cncnc3)c2)c1 (optimized conformer: 56.686947664994925 kcal/mol)

>  <smiles>  (77) 
O=Cc1cccc(C(=O)N=c2cc[nH]c(Oc3cncnc3)c2)c1

>  <score_type>  (77) 
oracle

>  <origin>  (77) 
adg

>  <m_score__min__energy>  (77) 
-9.0899999999999999

>  <m_primary>  (77) 
energy

$$$$
77:0
     RDKit          3D

 60 62  0  0  0  0  0  0  0  0999 V2000
   56.2220   24.7080   43.3360 H   0  0  0  0  0  0  0  0  0  0  0  0
   56.9190   24.0560   43.0670 O   0  0  0  0  0  0  0  0  0  0  0  0
   56.5130   22.8010   43.5440 C   0  0  1  0  0  0  0  0  0  0  0  0
   55.8579   22.3036   42.8136 H   0  0  0  0  0  0  0  0  0  0  0  0
   57.7420   21.9110   43.7570 C   0  0  0  0  0  0  0  0  0  0  0  0
   57.9193   21.7826   44.8350 H   0  0  0  0  0  0  0  0  0  0  0  0
   57.5677   20.9283   43.2945 H   0  0  0  0  0  0  0  0  0  0  0  0
   58.6213   22.3832   43.2945 H   0  0  0  0  0  0  0  0  0  0  0  0
   55.7330   22.9990   44.8510 C   0  0  0  0  0  0  0  0  0  0  0  0
   56.3714   22.6989   45.6951 H   0  0  0  0  0  0  0  0  0  0  0  0
   54.8239   22.3816   44.8023 H   0  0  0  0  0  0  0  0  0  0  0  0
   55.3360   24.3570   45.0330 O   0  0  0  0  0  0  0  0  0  0  0  0
   56.1450   25.3290   45.6320 C   0  0  0  0  0  0  0  0  0  0  0  0
   55.6360   26.2070   46.3800 O   0  0  0  0  0  0  0  0  0  0  0  0
   57.5630   25.2900   45.4050 N   0  0  0  0  0  0  0  0  0  0  0  0
   57.9390   24.4420   44.9210 H   0  0  0  0  0  0  0  0  0  0  0  0
   58.5030   26.2370   45.9430 C   0  0  0  0  0  0  0  0  0  0  0  0
   58.9550   27.3340   45.1920 C   0  0  0  0  0  0  0  0  0  0  0  0
   58.6156   27.4640   44.1538 H   0  0  0  0  0  0  0  0  0  0  0  0
   59.8330   28.2600   45.7570 C   0  0  0  0  0  0  0  0  0  0  0  0
   60.1735   29.1214   45.1637 H   0  0  0  0  0  0  0  0  0  0  0  0
   60.2850   28.1010   47.0760 C   0  0  0  0  0  0  0  0  0  0  0  0
   61.1260   29.0990   47.6770 N   0  0  0  0  0  0  0  0  0  0  0  0
   60.7020   30.0070   48.5060 C   0  0  0  0  0  0  0  0  0  0  0  0
   60.7820   29.7850   49.8410 N   0  0  0  0  0  0  0  0  0  0  0  0
   60.3100   30.6920   50.7380 C   0  0  0  0  0  0  0  0  0  0  0  0
   60.4520   30.3240   52.4500 Cl  0  0  0  0  0  0  0  0  0  0  0  0
   59.7150   31.8850   50.2870 C   0  0  0  0  0  0  0  0  0  0  0  0
   59.1720   32.8900   51.2660 C   0  0  0  0  0  0  0  0  0  0  0  0
   59.3605   32.5412   52.2921 H   0  0  0  0  0  0  0  0  0  0  0  0
   59.6694   33.8588   51.1109 H   0  0  0  0  0  0  0  0  0  0  0  0
   58.0891   33.0049   51.1109 H   0  0  0  0  0  0  0  0  0  0  0  0
   59.6420   32.0980   48.8990 C   0  0  0  0  0  0  0  0  0  0  0  0
   59.0340   33.2520   48.3840 O   0  0  0  0  0  0  0  0  0  0  0  0
   58.6400   33.4060   47.0470 C   0  0  0  0  0  0  0  0  0  0  0  0
   59.1070   34.4720   46.2580 C   0  0  0  0  0  0  0  0  0  0  0  0
   59.7948   35.2133   46.6910 H   0  0  0  0  0  0  0  0  0  0  0  0
   58.7020   34.5940   44.9280 C   0  0  0  0  0  0  0  0  0  0  0  0
   59.0852   35.4200   44.3108 H   0  0  0  0  0  0  0  0  0  0  0  0
   57.8100   33.6680   44.3790 C   0  0  0  0  0  0  0  0  0  0  0  0
   57.4966   33.7647   43.3290 H   0  0  0  0  0  0  0  0  0  0  0  0
   57.3120   32.6130   45.1650 C   0  0  0  0  0  0  0  0  0  0  0  0
   56.3870   31.6480   44.6470 N   0  0  0  0  0  0  0  0  0  0  0  0
   56.5220   29.9260   44.8320 S   0  0  0  0  0  0  0  0  0  0  0  0
   55.1440   29.3530   45.0070 O   0  0  0  0  0  0  0  0  0  0  0  0
   57.3450   29.5940   46.0470 O   0  0  0  0  0  0  0  0  0  0  0  0
   57.2560   29.2110   43.3740 C   0  0  0  0  0  0  0  0  0  0  0  0
   58.0148   28.4718   43.6703 H   0  0  0  0  0  0  0  0  0  0  0  0
   56.4764   28.7166   42.7758 H   0  0  0  0  0  0  0  0  0  0  0  0
   57.7298   30.0033   42.7758 H   0  0  0  0  0  0  0  0  0  0  0  0
   57.7330   32.4920   46.4960 C   0  0  0  0  0  0  0  0  0  0  0  0
   57.3465   31.6693   47.1155 H   0  0  0  0  0  0  0  0  0  0  0  0
   60.1320   31.1530   48.0520 N   0  0  0  0  0  0  0  0  0  0  0  0
   59.9150   26.9530   47.8020 C   0  0  0  0  0  0  0  0  0  0  0  0
   60.4110   26.7460   49.2070 C   0  0  0  0  0  0  0  0  0  0  0  0
   59.6380   27.0686   49.9200 H   0  0  0  0  0  0  0  0  0  0  0  0
   60.6329   25.6802   49.3642 H   0  0  0  0  0  0  0  0  0  0  0  0
   61.3248   27.3379   49.3642 H   0  0  0  0  0  0  0  0  0  0  0  0
   59.0150   26.0360   47.2340 C   0  0  0  0  0  0  0  0  0  0  0  0
   58.7078   25.1495   47.8083 H   0  0  0  0  0  0  0  0  0  0  0  0
  1  2  1  0
  2  3  1  0
  3  4  1  6
  3  5  1  0
  5  6  1  0
  5  7  1  0
  5  8  1  0
  3  9  1  0
  9 10  1  0
  9 11  1  0
  9 12  1  0
 12 13  1  0
 13 14  2  0
 13 15  1  0
 15 16  1  0
 15 17  1  0
 17 18  2  0
 18 19  1  0
 18 20  1  0
 20 21  1  0
 20 22  2  0
 22 23  1  0
 23 24  2  0
 24 25  1  0
 25 26  2  0
 26 27  1  0
 26 28  1  0
 28 29  1  0
 29 30  1  0
 29 31  1  0
 29 32  1  0
 28 33  2  0
 33 34  1  0
 34 35  1  0
 35 36  2  0
 36 37  1  0
 36 38  1  0
 38 39  1  0
 38 40  2  0
 40 41  1  0
 40 42  1  0
 42 43  1  0
 43 44  1  0
 44 45  2  0
 44 46  2  0
 44 47  1  0
 47 48  1  0
 47 49  1  0
 47 50  1  0
 42 51  2  0
 51 52  1  0
 33 53  1  0
 22 54  1  0
 54 55  1  0
 55 56  1  0
 55 57  1  0
 55 58  1  0
 54 59  2  0
 59 60  1  0
 59 17  1  0
 53 24  1  0
 51 35  1  0
M  CHG  2  43  -1  53  -1
M  END
>  <UniqueID>  (78) 
72

>  <SMILES>  (78) 
Cc1cc(NC(=O)OC[C@H](C)O)ccc1/N=c1/nc(Cl)c(C)c(Oc2cccc([N-]S(C)(=O)=O)c2)[n-]1

>  <Energy>  (78) 
69.37058885178158

>  <Genealogy>  (78) 
Cc1cc(NC(=O)OCC(C)O)ccc1N=c1nc(Cl)c(C)c(Oc2cccc([N-]S(C)(=O)=O)c2)[n-]1 (protonated)
Cc1cc(NC(=O)OC[C@H](C)O)ccc1N=c1nc(Cl)c(C)c(Oc2cccc([N-]S(C)(=O)=O)c2)[n-]1 (chirality)
Cc1cc(NC(=O)OC[C@H](C)O)ccc1/N=c1/nc(Cl)c(C)c(Oc2cccc([N-]S(C)(=O)=O)c2)[n-]1 (cis-trans isomerization)
Cc1cc(NC(=O)OC[C@H](C)O)ccc1/N=c1/nc(Cl)c(C)c(Oc2cccc([N-]S(C)(=O)=O)c2)[n-]1 (3D coordinates assigned)
Cc1cc(NC(=O)OC[C@H](C)O)ccc1/N=c1/nc(Cl)c(C)c(Oc2cccc([N-]S(C)(=O)=O)c2)[n-]1 (optimized conformer: 69.37058885178158 kcal/mol)

>  <smiles>  (78) 
Cc1cc(NC(=O)OCC(C)O)ccc1N=c1nc(Cl)c(C)c(Oc2cccc(NS(C)(=O)=O)c2)[nH]1

>  <score_type>  (78) 
oracle

>  <origin>  (78) 
adg

>  <m_score__min__energy>  (78) 
-12.359999999999999

>  <m_primary>  (78) 
energy

$$$$
78:0
     RDKit          3D

 44 46  0  0  0  0  0  0  0  0999 V2000
   59.3120   22.1830   44.6520 C   0  0  0  0  0  0  0  0  0  0  0  0
   58.0280   21.9450   44.0030 N   0  0  0  0  0  0  0  0  0  0  0  0
   57.7670   21.0950   42.9940 C   0  0  0  0  0  0  0  0  0  0  0  0
   56.4700   21.1540   42.6350 N   0  0  0  0  0  0  0  0  0  0  0  0
   55.8880   22.0540   43.4160 N   0  0  0  0  0  0  0  0  0  0  0  0
   56.8410   22.5410   44.2340 C   0  0  0  0  0  0  0  0  0  0  0  0
   56.5750   23.5510   45.3160 C   0  0  2  0  0  0  0  0  0  0  0  0
   57.1500   24.9160   44.9020 C   0  0  0  0  0  0  0  0  0  0  0  0
   57.0870   25.8590   46.0240 N   0  0  0  0  0  0  0  0  0  0  0  0
   57.0650   27.2830   45.7930 C   0  0  0  0  0  0  0  0  0  0  0  0
   55.9590   27.8590   45.6000 O   0  0  0  0  0  0  0  0  0  0  0  0
   58.2850   28.0500   45.7630 N   0  0  0  0  0  0  0  0  0  0  0  0
   58.3250   29.4860   45.6880 C   0  0  0  0  0  0  0  0  0  0  0  0
   57.3720   30.1610   44.9130 C   0  0  0  0  0  0  0  0  0  0  0  0
   57.4020   31.5540   44.8050 C   0  0  0  0  0  0  0  0  0  0  0  0
   58.4010   32.2900   45.4550 C   0  0  0  0  0  0  0  0  0  0  0  0
   58.4300   34.0470   45.3320 S   0  0  0  0  0  0  0  0  0  0  0  0
   57.0690   34.5520   44.9470 O   0  0  0  0  0  0  0  0  0  0  0  0
   59.4150   34.4650   44.2760 O   0  0  0  0  0  0  0  0  0  0  0  0
   58.9040   34.7470   46.8980 C   0  0  0  0  0  0  0  0  0  0  0  0
   58.5650   33.8770   47.9170 F   0  0  0  0  0  0  0  0  0  0  0  0
   60.2680   34.9660   46.9150 F   0  0  0  0  0  0  0  0  0  0  0  0
   59.3670   31.6200   46.2180 C   0  0  0  0  0  0  0  0  0  0  0  0
   59.3360   30.2260   46.3270 C   0  0  0  0  0  0  0  0  0  0  0  0
   57.4070   25.3630   47.3680 C   0  0  0  0  0  0  0  0  0  0  0  0
   56.8120   23.9700   47.5790 C   0  0  0  0  0  0  0  0  0  0  0  0
   57.1720   23.1060   46.5200 O   0  0  0  0  0  0  0  0  0  0  0  0
   59.1810   22.1587   45.7439 H   0  0  0  0  0  0  0  0  0  0  0  0
   60.0255   21.4018   44.3508 H   0  0  0  0  0  0  0  0  0  0  0  0
   59.6981   23.1680   44.3508 H   0  0  0  0  0  0  0  0  0  0  0  0
   58.5139   20.4384   42.5240 H   0  0  0  0  0  0  0  0  0  0  0  0
   55.4914   23.6606   45.4700 H   0  0  0  0  0  0  0  0  0  0  0  0
   58.1982   24.7892   44.5935 H   0  0  0  0  0  0  0  0  0  0  0  0
   56.5558   25.3150   44.0667 H   0  0  0  0  0  0  0  0  0  0  0  0
   59.2020   27.5530   45.7390 H   0  0  0  0  0  0  0  0  0  0  0  0
   56.5941   29.5896   44.3854 H   0  0  0  0  0  0  0  0  0  0  0  0
   56.6387   32.0742   44.2077 H   0  0  0  0  0  0  0  0  0  0  0  0
   58.3782   35.7024   47.0421 H   0  0  0  0  0  0  0  0  0  0  0  0
   60.1524   32.1926   46.7330 H   0  0  0  0  0  0  0  0  0  0  0  0
   60.1062   29.7058   46.9154 H   0  0  0  0  0  0  0  0  0  0  0  0
   58.4996   25.3117   47.4846 H   0  0  0  0  0  0  0  0  0  0  0  0
   56.9787   26.0500   48.1127 H   0  0  0  0  0  0  0  0  0  0  0  0
   57.1887   23.5564   48.5261 H   0  0  0  0  0  0  0  0  0  0  0  0
   55.7157   24.0550   47.6082 H   0  0  0  0  0  0  0  0  0  0  0  0
  1  2  1  0
  2  3  1  0
  3  4  2  0
  4  5  1  0
  5  6  2  0
  6  7  1  0
  7  8  1  0
  8  9  1  0
  9 10  1  0
 10 11  2  0
 10 12  1  0
 12 13  1  0
 13 14  2  0
 14 15  1  0
 15 16  2  0
 16 17  1  0
 17 18  2  0
 17 19  2  0
 17 20  1  0
 20 21  1  0
 20 22  1  0
 16 23  1  0
 23 24  2  0
  9 25  1  0
 25 26  1  0
 26 27  1  0
  6  2  1  0
 27  7  1  0
 24 13  1  0
  1 28  1  0
  1 29  1  0
  1 30  1  0
  3 31  1  0
  7 32  1  1
  8 33  1  0
  8 34  1  0
 12 35  1  0
 14 36  1  0
 15 37  1  0
 20 38  1  0
 23 39  1  0
 24 40  1  0
 25 41  1  0
 25 42  1  0
 26 43  1  0
 26 44  1  0
M  END
>  <UniqueID>  (79) 
73

>  <SMILES>  (79) 
Cn1cnnc1[C@@H]1CN(C(=O)Nc2ccc(S(=O)(=O)C(F)F)cc2)CCO1

>  <Energy>  (79) 
82.67226433689372

>  <Genealogy>  (79) 
Cn1cnnc1[C@@H]1CN(C(=O)Nc2ccc(S(=O)(=O)C(F)F)cc2)CCO1 (chirality)
Cn1cnnc1[C@@H]1CN(C(=O)Nc2ccc(S(=O)(=O)C(F)F)cc2)CCO1 (3D coordinates assigned)
Cn1cnnc1[C@@H]1CN(C(=O)Nc2ccc(S(=O)(=O)C(F)F)cc2)CCO1 (nonaromatic ring conformer: 82.67226433689372 kcal/mol)

>  <smiles>  (79) 
Cn1cnnc1C1CN(C(=O)Nc2ccc(S(=O)(=O)C(F)F)cc2)CCO1

>  <score_type>  (79) 
oracle

>  <origin>  (79) 
adg

>  <m_score__min__energy>  (79) 
-7.8200000000000003

>  <m_primary>  (79) 
energy

$$$$
79:0
     RDKit          3D

 24 24  0  0  0  0  0  0  0  0999 V2000
   55.9190   30.0750   43.6680 C   0  0  0  0  0  0  0  0  0  0  0  0
   57.2290   29.3020   43.7420 C   0  0  0  0  0  0  0  0  0  0  0  0
   57.9580   29.3970   45.4160 S   0  0  0  0  0  0  0  0  0  0  0  0
   57.3430   27.7880   45.9540 C   0  0  0  0  0  0  0  0  0  0  0  0
   56.0830   27.4280   45.5860 N   0  0  0  0  0  0  0  0  0  0  0  0
   55.5360   26.2550   45.9970 C   0  0  0  0  0  0  0  0  0  0  0  0
   54.3650   25.9460   45.6510 O   0  0  0  0  0  0  0  0  0  0  0  0
   56.2490   25.4110   46.7820 N   0  0  0  0  0  0  0  0  0  0  0  0
   57.5140   25.7100   47.1700 C   0  0  0  0  0  0  0  0  0  0  0  0
   58.1420   24.8850   47.8870 O   0  0  0  0  0  0  0  0  0  0  0  0
   58.1140   26.9160   46.7590 C   0  0  0  0  0  0  0  0  0  0  0  0
   59.5020   27.2470   47.1720 C   0  0  0  0  0  0  0  0  0  0  0  0
   60.4720   26.5920   46.6980 O   0  0  0  0  0  0  0  0  0  0  0  0
   59.7410   28.2960   48.0650 O   0  0  0  0  0  0  0  0  0  0  0  0
   60.4290   28.1150   49.2970 C   0  0  0  0  0  0  0  0  0  0  0  0
   55.5602   30.2867   44.6860 H   0  0  0  0  0  0  0  0  0  0  0  0
   56.0817   31.0218   43.1322 H   0  0  0  0  0  0  0  0  0  0  0  0
   55.1688   29.4748   43.1322 H   0  0  0  0  0  0  0  0  0  0  0  0
   57.0382   28.2477   43.4929 H   0  0  0  0  0  0  0  0  0  0  0  0
   57.9372   29.7469   43.0275 H   0  0  0  0  0  0  0  0  0  0  0  0
   55.5180   28.0710   44.9840 H   0  0  0  0  0  0  0  0  0  0  0  0
   59.7378   28.2969   50.1331 H   0  0  0  0  0  0  0  0  0  0  0  0
   60.8121   27.0855   49.3552 H   0  0  0  0  0  0  0  0  0  0  0  0
   61.2691   28.8227   49.3552 H   0  0  0  0  0  0  0  0  0  0  0  0
  1  2  1  0
  2  3  1  0
  3  4  1  0
  4  5  1  0
  5  6  1  0
  6  7  2  0
  6  8  1  0
  8  9  1  0
  9 10  2  0
  9 11  1  0
 11 12  1  0
 12 13  2  0
 12 14  1  0
 14 15  1  0
 11  4  2  0
  1 16  1  0
  1 17  1  0
  1 18  1  0
  2 19  1  0
  2 20  1  0
  5 21  1  0
 15 22  1  0
 15 23  1  0
 15 24  1  0
M  CHG  1   8  -1
M  END
>  <UniqueID>  (80) 
74

>  <SMILES>  (80) 
CCSc1[nH]c(=O)[n-]c(=O)c1C(=O)OC

>  <Energy>  (80) 
20.44181282949335

>  <Genealogy>  (80) 
CCSc1[nH]c(=O)[n-]c(=O)c1C(=O)OC (protonated)
CCSc1[nH]c(=O)[n-]c(=O)c1C(=O)OC (3D coordinates assigned)
CCSc1[nH]c(=O)[n-]c(=O)c1C(=O)OC (optimized conformer: 20.44181282949335 kcal/mol)

>  <smiles>  (80) 
CCSc1[nH]c(=O)[nH]c(=O)c1C(=O)OC

>  <score_type>  (80) 
oracle

>  <origin>  (80) 
adg

>  <m_score__min__energy>  (80) 
-6.9900000000000002

>  <m_primary>  (80) 
energy

$$$$
80:0
     RDKit          3D

 37 39  0  0  0  0  0  0  0  0999 V2000
   54.0260   26.3240   46.4750 H   0  0  0  0  0  0  0  0  0  0  0  0
   54.9800   26.5300   46.2030 O   0  0  0  0  0  0  0  0  0  0  0  0
   56.0270   25.6700   46.5220 C   0  0  0  0  0  0  0  0  0  0  0  0
   55.8450   24.4260   46.9940 N   0  0  0  0  0  0  0  0  0  0  0  0
   57.1090   23.9720   47.1340 C   0  0  0  0  0  0  0  0  0  0  0  0
   57.3700   22.8160   47.5570 O   0  0  0  0  0  0  0  0  0  0  0  0
   58.0700   24.8500   46.7760 N   0  0  0  0  0  0  0  0  0  0  0  0
   57.3720   25.9430   46.4100 C   0  0  0  0  0  0  0  0  0  0  0  0
   57.9690   27.1470   45.8100 C   0  0  0  0  0  0  0  0  0  0  0  0
   57.9600   27.2185   44.7124 H   0  0  0  0  0  0  0  0  0  0  0  0
   58.5260   28.1700   46.4890 C   0  0  0  0  0  0  0  0  0  0  0  0
   58.5120   28.2410   47.8700 C   0  0  0  0  0  0  0  0  0  0  0  0
   58.1243   27.4781   48.5611 H   0  0  0  0  0  0  0  0  0  0  0  0
   59.0760   29.4490   48.2150 C   0  0  0  0  0  0  0  0  0  0  0  0
   59.2720   29.9120   49.6280 C   0  0  0  0  0  0  0  0  0  0  0  0
   58.9390   29.1254   50.3211 H   0  0  0  0  0  0  0  0  0  0  0  0
   60.3375   30.1250   49.7996 H   0  0  0  0  0  0  0  0  0  0  0  0
   58.6833   30.8252   49.7996 H   0  0  0  0  0  0  0  0  0  0  0  0
   59.4840   30.1190   47.1100 N   0  0  0  0  0  0  0  0  0  0  0  0
   60.1870   31.4140   47.1180 C   0  0  0  0  0  0  0  0  0  0  0  0
   60.3590   31.7239   48.1593 H   0  0  0  0  0  0  0  0  0  0  0  0
   61.1442   31.2975   46.5886 H   0  0  0  0  0  0  0  0  0  0  0  0
   59.3740   32.4720   46.4160 C   0  0  0  0  0  0  0  0  0  0  0  0
   57.9980   32.2860   46.2020 C   0  0  0  0  0  0  0  0  0  0  0  0
   57.5086   31.3653   46.5525 H   0  0  0  0  0  0  0  0  0  0  0  0
   57.2480   33.2670   45.5450 C   0  0  0  0  0  0  0  0  0  0  0  0
   56.1716   33.1144   45.3776 H   0  0  0  0  0  0  0  0  0  0  0  0
   57.8630   34.4400   45.1010 C   0  0  0  0  0  0  0  0  0  0  0  0
   57.2713   35.2099   44.5841 H   0  0  0  0  0  0  0  0  0  0  0  0
   59.2310   34.6350   45.3140 C   0  0  0  0  0  0  0  0  0  0  0  0
   59.7151   35.5589   44.9646 H   0  0  0  0  0  0  0  0  0  0  0  0
   59.9840   33.6580   45.9700 C   0  0  0  0  0  0  0  0  0  0  0  0
   61.0593   33.8172   46.1385 H   0  0  0  0  0  0  0  0  0  0  0  0
   59.1840   29.3280   46.0420 C   0  0  0  0  0  0  0  0  0  0  0  0
   59.5990   29.5730   44.7870 C   0  0  0  0  0  0  0  0  0  0  0  0
   60.1064   30.5199   44.5505 H   0  0  0  0  0  0  0  0  0  0  0  0
   59.4312   28.8266   43.9966 H   0  0  0  0  0  0  0  0  0  0  0  0
  1  2  1  0
  2  3  1  0
  3  4  1  0
  4  5  1  0
  5  6  2  0
  5  7  1  0
  7  8  1  0
  8  9  1  0
  9 10  1  0
  9 11  2  0
 11 12  1  0
 12 13  1  0
 12 14  2  0
 14 15  1  0
 15 16  1  0
 15 17  1  0
 15 18  1  0
 14 19  1  0
 19 20  1  0
 20 21  1  0
 20 22  1  0
 20 23  1  0
 23 24  2  0
 24 25  1  0
 24 26  1  0
 26 27  1  0
 26 28  2  0
 28 29  1  0
 28 30  1  0
 30 31  1  0
 30 32  2  0
 32 33  1  0
 19 34  1  0
 34 35  2  0
 35 36  1  0
 35 37  1  0
  8  3  2  0
 34 11  1  0
 32 23  1  0
M  CHG  2   4  -1   7  -1
M  END
>  <UniqueID>  (81) 
75

>  <SMILES>  (81) 
C=c1/c(=C\c2[n-]c(=O)[n-]c2O)cc(C)n1Cc1ccccc1

>  <Energy>  (81) 
107.03407397527832

>  <Genealogy>  (81) 
C=c1c(=Cc2[n-]c(=O)[n-]c2O)cc(C)n1Cc1ccccc1 (protonated)
C=c1/c(=C\c2[n-]c(=O)[n-]c2O)cc(C)n1Cc1ccccc1 (cis-trans isomerization)
C=c1/c(=C\c2[n-]c(=O)[n-]c2O)cc(C)n1Cc1ccccc1 (3D coordinates assigned)
C=c1/c(=C\c2[n-]c(=O)[n-]c2O)cc(C)n1Cc1ccccc1 (optimized conformer: 107.03407397527832 kcal/mol)

>  <smiles>  (81) 
C=c1c(=Cc2[nH]c(=O)[nH]c2O)cc(C)n1Cc1ccccc1

>  <score_type>  (81) 
oracle

>  <origin>  (81) 
adg

>  <m_score__min__energy>  (81) 
-12.08

>  <m_primary>  (81) 
energy

$$$$
81:0
     RDKit          3D

 53 57  0  0  0  0  0  0  0  0999 V2000
   64.3390   32.7870   48.8300 C   0  0  0  0  0  0  0  0  0  0  0  0
   63.6070   33.9730   48.3680 N   0  0  2  0  0  0  0  0  0  0  0  0
   62.4500   34.2180   49.1940 C   0  0  0  0  0  0  0  0  0  0  0  0
   62.5220   34.5300   50.4140 O   0  0  0  0  0  0  0  0  0  0  0  0
   61.2040   34.1050   48.4520 C   0  0  0  0  0  0  0  0  0  0  0  0
   59.8810   34.2780   48.8500 C   0  0  0  0  0  0  0  0  0  0  0  0
   58.8740   34.1240   47.8820 C   0  0  0  0  0  0  0  0  0  0  0  0
   59.2040   33.7910   46.5480 C   0  0  0  0  0  0  0  0  0  0  0  0
   58.1510   33.6730   45.5820 N   0  0  0  0  0  0  0  0  0  0  0  0
   58.0580   32.6650   44.5670 C   0  0  0  0  0  0  0  0  0  0  0  0
   58.4700   32.9390   43.4120 O   0  0  0  0  0  0  0  0  0  0  0  0
   57.4560   31.3410   44.8530 C   0  0  0  0  0  0  0  0  0  0  0  0
   56.3610   30.8820   44.2180 N   0  0  0  0  0  0  0  0  0  0  0  0
   56.1060   29.7060   44.8200 C   0  0  0  0  0  0  0  0  0  0  0  0
   55.1370   28.9720   44.4960 O   0  0  0  0  0  0  0  0  0  0  0  0
   56.9710   29.3790   45.7980 N   0  0  0  0  0  0  0  0  0  0  0  0
   57.8380   30.4090   45.8120 C   0  0  0  0  0  0  0  0  0  0  0  0
   59.0030   30.4450   46.7140 C   0  0  0  0  0  0  0  0  0  0  0  0
   58.8410   30.6520   48.0930 C   0  0  0  0  0  0  0  0  0  0  0  0
   59.9560   30.7420   48.9290 C   0  0  0  0  0  0  0  0  0  0  0  0
   61.2500   30.6520   48.4020 C   0  0  0  0  0  0  0  0  0  0  0  0
   62.3370   30.7560   49.2820 O   0  0  0  0  0  0  0  0  0  0  0  0
   62.3280   30.2970   50.6310 C   0  0  0  0  0  0  0  0  0  0  0  0
   62.0970   31.4630   51.5480 C   0  0  0  0  0  0  0  0  0  0  0  0
   63.1590   32.0030   52.2940 C   0  0  0  0  0  0  0  0  0  0  0  0
   62.9320   33.0690   53.1700 C   0  0  0  0  0  0  0  0  0  0  0  0
   61.6450   33.5960   53.3150 C   0  0  0  0  0  0  0  0  0  0  0  0
   60.5810   33.0530   52.5900 C   0  0  0  0  0  0  0  0  0  0  0  0
   60.8040   31.9850   51.7130 C   0  0  0  0  0  0  0  0  0  0  0  0
   61.4160   30.4700   47.0140 C   0  0  0  0  0  0  0  0  0  0  0  0
   60.2990   30.3780   46.1790 C   0  0  0  0  0  0  0  0  0  0  0  0
   60.5600   33.6450   46.1760 C   0  0  0  0  0  0  0  0  0  0  0  0
   61.5310   33.8020   47.1610 C   0  0  0  0  0  0  0  0  0  0  0  0
   62.9820   33.7260   47.0920 C   0  0  0  0  0  0  0  0  0  0  0  0
   63.6300   33.5010   46.0330 O   0  0  0  0  0  0  0  0  0  0  0  0
   64.3504   32.7685   49.9298 H   0  0  0  0  0  0  0  0  0  0  0  0
   63.8432   31.8803   48.4532 H   0  0  0  0  0  0  0  0  0  0  0  0
   65.3718   32.8237   48.4532 H   0  0  0  0  0  0  0  0  0  0  0  0
   64.2190   34.8200   48.3240 H   0  0  0  0  0  0  0  0  0  0  0  0
   59.6313   34.5279   49.8917 H   0  0  0  0  0  0  0  0  0  0  0  0
   57.8201   34.2637   48.1645 H   0  0  0  0  0  0  0  0  0  0  0  0
   57.8303   30.7438   48.5173 H   0  0  0  0  0  0  0  0  0  0  0  0
   59.8164   30.8848   50.0107 H   0  0  0  0  0  0  0  0  0  0  0  0
   61.5224   29.5597   50.7633 H   0  0  0  0  0  0  0  0  0  0  0  0
   63.2938   29.8266   50.8676 H   0  0  0  0  0  0  0  0  0  0  0  0
   64.1713   31.5859   52.1884 H   0  0  0  0  0  0  0  0  0  0  0  0
   63.7673   33.4937   53.7460 H   0  0  0  0  0  0  0  0  0  0  0  0
   61.4700   34.4385   54.0002 H   0  0  0  0  0  0  0  0  0  0  0  0
   59.5679   33.4649   52.7085 H   0  0  0  0  0  0  0  0  0  0  0  0
   59.9630   31.5530   51.1509 H   0  0  0  0  0  0  0  0  0  0  0  0
   62.4273   30.4002   46.5870 H   0  0  0  0  0  0  0  0  0  0  0  0
   60.4365   30.2522   45.0949 H   0  0  0  0  0  0  0  0  0  0  0  0
   60.8399   33.4139   45.1376 H   0  0  0  0  0  0  0  0  0  0  0  0
  1  2  1  0
  2  3  1  0
  3  4  2  0
  3  5  1  0
  5  6  2  0
  6  7  1  0
  7  8  2  0
  8  9  1  0
  9 10  1  0
 10 11  2  0
 10 12  1  0
 12 13  1  0
 13 14  1  0
 14 15  2  0
 14 16  1  0
 16 17  1  0
 17 18  1  0
 18 19  2  0
 19 20  1  0
 20 21  2  0
 21 22  1  0
 22 23  1  0
 23 24  1  0
 24 25  2  0
 25 26  1  0
 26 27  2  0
 27 28  1  0
 28 29  2  0
 21 30  1  0
 30 31  2  0
  8 32  1  0
 32 33  2  0
 33 34  1  0
 34 35  2  0
 34  2  1  0
 33  5  1  0
 17 12  2  0
 31 18  1  0
 29 24  1  0
  1 36  1  0
  1 37  1  0
  1 38  1  0
  2 39  1  6
  6 40  1  0
  7 41  1  0
 19 42  1  0
 20 43  1  0
 23 44  1  0
 23 45  1  0
 25 46  1  0
 26 47  1  0
 27 48  1  0
 28 49  1  0
 29 50  1  0
 30 51  1  0
 31 52  1  0
 32 53  1  0
M  CHG  4   2   1   9  -1  13  -1  16  -1
M  END
>  <UniqueID>  (82) 
76

>  <SMILES>  (82) 
C[N@@H+]1C(=O)c2ccc([N-]C(=O)c3[n-]c(=O)[n-]c3-c3ccc(OCc4ccccc4)cc3)cc2C1=O

>  <Energy>  (82) 
123.90187825125034

>  <Genealogy>  (82) 
C[NH+]1C(=O)c2ccc([N-]C(=O)c3[n-]c(=O)[n-]c3-c3ccc(OCc4ccccc4)cc3)cc2C1=O (protonated)
C[N@@H+]1C(=O)c2ccc([N-]C(=O)c3[n-]c(=O)[n-]c3-c3ccc(OCc4ccccc4)cc3)cc2C1=O (chirality)
C[N@@H+]1C(=O)c2ccc([N-]C(=O)c3[n-]c(=O)[n-]c3-c3ccc(OCc4ccccc4)cc3)cc2C1=O (3D coordinates assigned)
C[N@@H+]1C(=O)c2ccc([N-]C(=O)c3[n-]c(=O)[n-]c3-c3ccc(OCc4ccccc4)cc3)cc2C1=O (nonaromatic ring conformer: 123.90187825125034 kcal/mol)

>  <smiles>  (82) 
CN1C(=O)c2ccc(NC(=O)c3[nH]c(=O)[nH]c3-c3ccc(OCc4ccccc4)cc3)cc2C1=O

>  <score_type>  (82) 
oracle

>  <origin>  (82) 
adg

>  <m_score__min__energy>  (82) 
-13.210000000000001

>  <m_primary>  (82) 
energy

$$$$
82:0
     RDKit          3D

 50 53  0  0  0  0  0  0  0  0999 V2000
   59.4573   35.1004   46.4995 H   0  0  0  0  0  0  0  0  0  0  0  0
   58.8850   34.2520   46.0960 C   0  0  0  0  0  0  0  0  0  0  0  0
   58.5590   34.2120   44.7380 C   0  0  0  0  0  0  0  0  0  0  0  0
   58.8675   35.0334   44.0746 H   0  0  0  0  0  0  0  0  0  0  0  0
   57.8410   33.1290   44.2210 C   0  0  0  0  0  0  0  0  0  0  0  0
   57.5750   33.1078   43.1539 H   0  0  0  0  0  0  0  0  0  0  0  0
   57.4590   32.0710   45.0560 C   0  0  0  0  0  0  0  0  0  0  0  0
   56.7110   30.9810   44.4980 N   0  0  0  0  0  0  0  0  0  0  0  0
   56.6140   29.6550   45.0370 C   0  0  0  0  0  0  0  0  0  0  0  0
   55.5160   29.0460   44.9390 O   0  0  0  0  0  0  0  0  0  0  0  0
   57.7960   28.9640   45.5990 C   0  0  0  0  0  0  0  0  0  0  0  0
   58.2090   29.3040   46.8510 N   0  0  0  0  0  0  0  0  0  0  0  0
   59.2850   28.7380   47.4590 C   0  0  0  0  0  0  0  0  0  0  0  0
   59.5840   29.1200   48.6690 N   0  0  0  0  0  0  0  0  0  0  0  0
   60.5930   30.0590   49.0680 C   0  0  0  0  0  0  0  0  0  0  0  0
   61.0180   31.0310   48.1560 C   0  0  0  0  0  0  0  0  0  0  0  0
   60.5498   31.0904   47.1624 H   0  0  0  0  0  0  0  0  0  0  0  0
   62.0340   31.9270   48.5000 C   0  0  0  0  0  0  0  0  0  0  0  0
   62.3419   32.7042   47.7851 H   0  0  0  0  0  0  0  0  0  0  0  0
   62.6650   31.8420   49.7530 C   0  0  0  0  0  0  0  0  0  0  0  0
   63.7050   32.7720   50.1130 N   0  0  0  0  0  0  0  0  0  0  0  0
   64.9820   32.7980   49.3920 C   0  0  0  0  0  0  0  0  0  0  0  0
   65.0348   31.9288   48.7199 H   0  0  0  0  0  0  0  0  0  0  0  0
   65.0424   33.7320   48.8142 H   0  0  0  0  0  0  0  0  0  0  0  0
   66.1670   32.7480   50.3780 C   0  0  0  0  0  0  0  0  0  0  0  0
   66.4866   31.7009   50.4854 H   0  0  0  0  0  0  0  0  0  0  0  0
   66.9608   33.3860   49.9623 H   0  0  0  0  0  0  0  0  0  0  0  0
   65.8410   33.2780   51.7200 N   0  0  0  0  0  0  0  0  0  0  0  0
   65.5090   32.4970   52.3330 H   0  0  0  0  0  0  0  0  0  0  0  0
   66.7100   33.6730   52.1500 H   0  0  0  0  0  0  0  0  0  0  0  0
   64.8140   34.3290   51.6790 C   0  0  0  0  0  0  0  0  0  0  0  0
   64.6798   34.7456   52.6882 H   0  0  0  0  0  0  0  0  0  0  0  0
   65.1372   35.1200   50.9863 H   0  0  0  0  0  0  0  0  0  0  0  0
   63.4810   33.7480   51.1890 C   0  0  0  0  0  0  0  0  0  0  0  0
   62.9735   33.2502   52.0284 H   0  0  0  0  0  0  0  0  0  0  0  0
   62.8592   34.5677   50.7998 H   0  0  0  0  0  0  0  0  0  0  0  0
   62.2560   30.8470   50.6560 C   0  0  0  0  0  0  0  0  0  0  0  0
   62.7403   30.7698   51.6406 H   0  0  0  0  0  0  0  0  0  0  0  0
   61.2370   29.9540   50.3110 C   0  0  0  0  0  0  0  0  0  0  0  0
   60.9384   29.1652   51.0171 H   0  0  0  0  0  0  0  0  0  0  0  0
   60.0020   27.7360   46.7790 C   0  0  0  0  0  0  0  0  0  0  0  0
   60.8652   27.2497   47.2570 H   0  0  0  0  0  0  0  0  0  0  0  0
   59.6080   27.3650   45.4930 C   0  0  0  0  0  0  0  0  0  0  0  0
   60.1688   26.5883   44.9524 H   0  0  0  0  0  0  0  0  0  0  0  0
   58.5070   27.9730   44.8880 C   0  0  0  0  0  0  0  0  0  0  0  0
   58.0200   27.4130   43.2900 Cl  0  0  0  0  0  0  0  0  0  0  0  0
   57.7660   32.1300   46.4280 C   0  0  0  0  0  0  0  0  0  0  0  0
   57.4401   31.3208   47.0981 H   0  0  0  0  0  0  0  0  0  0  0  0
   58.4840   33.2140   46.9420 C   0  0  0  0  0  0  0  0  0  0  0  0
   58.7335   33.2500   48.0127 H   0  0  0  0  0  0  0  0  0  0  0  0
  1  2  1  0
  2  3  2  0
  3  4  1  0
  3  5  1  0
  5  6  1  0
  5  7  2  0
  7  8  1  0
  8  9  1  0
  9 10  2  0
  9 11  1  0
 11 12  1  0
 12 13  1  0
 13 14  2  0
 14 15  1  0
 15 16  2  0
 16 17  1  0
 16 18  1  0
 18 19  1  0
 18 20  2  0
 20 21  1  0
 21 22  1  0
 22 23  1  0
 22 24  1  0
 22 25  1  0
 25 26  1  0
 25 27  1  0
 25 28  1  0
 28 29  1  0
 28 30  1  0
 28 31  1  0
 31 32  1  0
 31 33  1  0
 31 34  1  0
 34 35  1  0
 34 36  1  0
 20 37  1  0
 37 38  1  0
 37 39  2  0
 39 40  1  0
 13 41  1  0
 41 42  1  0
 41 43  2  0
 43 44  1  0
 43 45  1  0
 45 46  1  0
  7 47  1  0
 47 48  1  0
 47 49  2  0
 49 50  1  0
 49  2  1  0
 45 11  2  0
 39 15  1  0
 34 21  1  0
M  CHG  3   8  -1  12  -1  28   1
M  END
>  <UniqueID>  (83) 
77

>  <SMILES>  (83) 
O=C([N-]c1ccccc1)c1[n-]/c(=N/c2ccc(N3CC[NH2+]CC3)cc2)ccc1Cl

>  <Energy>  (83) 
79.87044385214627

>  <Genealogy>  (83) 
O=C([N-]c1ccccc1)c1[n-]c(=Nc2ccc(N3CC[NH2+]CC3)cc2)ccc1Cl (protonated)
O=C([N-]c1ccccc1)c1[n-]/c(=N/c2ccc(N3CC[NH2+]CC3)cc2)ccc1Cl (cis-trans isomerization)
O=C([N-]c1ccccc1)c1[n-]/c(=N/c2ccc(N3CC[NH2+]CC3)cc2)ccc1Cl (3D coordinates assigned)
O=C([N-]c1ccccc1)c1[n-]/c(=N/c2ccc(N3CC[NH2+]CC3)cc2)ccc1Cl (nonaromatic ring conformer: 79.87044385214627 kcal/mol)

>  <smiles>  (83) 
O=C(Nc1ccccc1)c1[nH]c(=Nc2ccc(N3CCNCC3)cc2)ccc1Cl

>  <score_type>  (83) 
oracle

>  <origin>  (83) 
adg

>  <m_score__min__energy>  (83) 
-10.470000000000001

>  <m_primary>  (83) 
energy

$$$$
83:0
     RDKit          3D

 39 41  0  0  0  0  0  0  0  0999 V2000
   60.3740   28.6160   46.1570 C   0  0  0  0  0  0  0  0  0  0  0  0
   59.3700   28.2100   45.2330 O   0  0  0  0  0  0  0  0  0  0  0  0
   58.4710   27.1500   45.4410 C   0  0  0  0  0  0  0  0  0  0  0  0
   58.9130   25.8190   45.5390 C   0  0  0  0  0  0  0  0  0  0  0  0
   58.0070   24.7850   45.7770 C   0  0  0  0  0  0  0  0  0  0  0  0
   58.4560   23.5350   45.8590 O   0  0  0  0  0  0  0  0  0  0  0  0
   57.6580   22.4980   46.0880 C   0  0  0  0  0  0  0  0  0  0  0  0
   56.2880   22.6860   46.2560 C   0  0  0  0  0  0  0  0  0  0  0  0
   55.7620   23.9760   46.1790 C   0  0  0  0  0  0  0  0  0  0  0  0
   54.5220   24.1420   46.3300 O   0  0  0  0  0  0  0  0  0  0  0  0
   56.6290   25.0640   45.9330 C   0  0  0  0  0  0  0  0  0  0  0  0
   56.1810   26.4010   45.8330 C   0  0  0  0  0  0  0  0  0  0  0  0
   54.8300   26.7110   45.9800 O   0  0  0  0  0  0  0  0  0  0  0  0
   57.0960   27.4340   45.5630 C   0  0  0  0  0  0  0  0  0  0  0  0
   56.6000   28.8230   45.4390 C   0  0  0  0  0  0  0  0  0  0  0  0
   56.6390   29.5470   44.3090 C   0  0  0  0  0  0  0  0  0  0  0  0
   57.3930   30.8050   44.1330 C   0  0  0  0  0  0  0  0  0  0  0  0
   57.1210   31.5400   43.1480 O   0  0  0  0  0  0  0  0  0  0  0  0
   58.4850   31.1440   45.0020 N   0  0  0  0  0  0  0  0  0  0  0  0
   58.8650   32.4900   45.3410 C   0  0  0  0  0  0  0  0  0  0  0  0
   59.5390   32.7290   46.5500 C   0  0  0  0  0  0  0  0  0  0  0  0
   59.8850   34.0300   46.9250 C   0  0  0  0  0  0  0  0  0  0  0  0
   59.5530   35.1080   46.1010 C   0  0  0  0  0  0  0  0  0  0  0  0
   58.8690   34.8860   44.9040 C   0  0  0  0  0  0  0  0  0  0  0  0
   58.5220   33.5860   44.5240 C   0  0  0  0  0  0  0  0  0  0  0  0
   60.0085   28.4682   47.1839 H   0  0  0  0  0  0  0  0  0  0  0  0
   61.2813   28.0141   46.0005 H   0  0  0  0  0  0  0  0  0  0  0  0
   60.6079   29.6794   46.0005 H   0  0  0  0  0  0  0  0  0  0  0  0
   59.9832   25.5907   45.4270 H   0  0  0  0  0  0  0  0  0  0  0  0
   58.0817   21.4845   46.1453 H   0  0  0  0  0  0  0  0  0  0  0  0
   55.6281   21.8269   46.4473 H   0  0  0  0  0  0  0  0  0  0  0  0
   56.1696   29.2948   46.3347 H   0  0  0  0  0  0  0  0  0  0  0  0
   56.0651   29.1746   43.4476 H   0  0  0  0  0  0  0  0  0  0  0  0
   59.0490   30.3590   45.3980 H   0  0  0  0  0  0  0  0  0  0  0  0
   59.7966   31.8852   47.2070 H   0  0  0  0  0  0  0  0  0  0  0  0
   60.4195   34.2054   47.8703 H   0  0  0  0  0  0  0  0  0  0  0  0
   59.8302   36.1311   46.3949 H   0  0  0  0  0  0  0  0  0  0  0  0
   58.6026   35.7359   44.2585 H   0  0  0  0  0  0  0  0  0  0  0  0
   57.9785   33.4178   43.5826 H   0  0  0  0  0  0  0  0  0  0  0  0
  1  2  1  0
  2  3  1  0
  3  4  2  0
  4  5  1  0
  5  6  1  0
  6  7  1  0
  7  8  2  0
  8  9  1  0
  9 10  2  0
  9 11  1  0
 11 12  1  0
 12 13  1  0
 12 14  2  0
 14 15  1  0
 15 16  2  3
 16 17  1  0
 17 18  2  0
 17 19  1  0
 19 20  1  0
 20 21  2  0
 21 22  1  0
 22 23  2  0
 23 24  1  0
 24 25  2  0
 14  3  1  0
 25 20  1  0
 11  5  2  0
  1 26  1  0
  1 27  1  0
  1 28  1  0
  4 29  1  0
  7 30  1  0
  8 31  1  0
 15 32  1  0
 16 33  1  0
 19 34  1  0
 21 35  1  0
 22 36  1  0
 23 37  1  0
 24 38  1  0
 25 39  1  0
M  CHG  1  13  -1
M  END
>  <UniqueID>  (84) 
78

>  <SMILES>  (84) 
COc1cc2occc(=O)c2c([O-])c1C=CC(=O)Nc1ccccc1

>  <Energy>  (84) 
58.908572259022414

>  <Genealogy>  (84) 
COc1cc2occc(=O)c2c([O-])c1C=CC(=O)Nc1ccccc1 (protonated)
COc1cc2occc(=O)c2c([O-])c1C=CC(=O)Nc1ccccc1 (3D coordinates assigned)
COc1cc2occc(=O)c2c([O-])c1C=CC(=O)Nc1ccccc1 (optimized conformer: 58.908572259022414 kcal/mol)

>  <smiles>  (84) 
COc1cc2occc(=O)c2c(O)c1C=CC(=O)Nc1ccccc1

>  <score_type>  (84) 
oracle

>  <origin>  (84) 
adg

>  <m_score__min__energy>  (84) 
-11.51

>  <m_primary>  (84) 
energy

$$$$
84:0
     RDKit          3D

 65 68  0  0  1  0  0  0  0  0999 V2000
   55.4390   30.4030   52.8100 C   0  0  0  0  0  0  0  0  0  0  0  0
   56.2740   29.3630   52.7630 C   0  0  0  0  0  0  0  0  0  0  0  0
   57.6690   29.6250   52.9120 C   0  0  0  0  0  0  0  0  0  0  0  0
   58.2700   30.7720   53.0010 C   0  0  0  0  0  0  0  0  0  0  0  0
   58.7010   31.5320   51.8170 C   0  0  0  0  0  0  0  0  0  0  0  0
   57.7440   31.6930   50.8560 C   0  0  0  0  0  0  0  0  0  0  0  0
   58.0610   32.3430   49.6430 C   0  0  0  0  0  0  0  0  0  0  0  0
   59.3430   32.7710   49.5240 C   0  0  0  0  0  0  0  0  0  0  0  0
   61.9200   33.7170   49.1790 C   0  0  0  0  0  0  0  0  0  0  0  0
   63.1040   34.1810   48.9600 N   0  0  0  0  0  0  0  0  0  0  0  0
   58.9100   33.1400   46.0870 C   0  0  0  0  0  0  0  0  0  0  0  0
   58.4830   31.7500   45.7900 C   0  0  0  0  0  0  0  0  0  0  0  0
   57.5300   31.4660   44.7950 C   0  0  0  0  0  0  0  0  0  0  0  0
   57.1310   30.1760   44.5210 C   0  0  0  0  0  0  0  0  0  0  0  0
   57.6360   29.0740   45.2020 C   0  0  0  0  0  0  0  0  0  0  0  0
   57.1660   27.7950   44.8520 N   0  0  0  0  0  0  0  0  0  0  0  0
   57.1640   26.6400   45.6520 C   0  0  0  0  0  0  0  0  0  0  0  0
   57.6070   26.6550   46.8100 O   0  0  0  0  0  0  0  0  0  0  0  0
   56.6430   25.3390   45.1830 C   0  0  0  0  0  0  0  0  0  0  0  0
   57.3780   24.6190   44.2820 C   0  0  0  0  0  0  0  0  0  0  0  0
   56.9430   23.3810   43.7970 C   0  0  0  0  0  0  0  0  0  0  0  0
   55.7410   22.8690   44.2380 C   0  0  0  0  0  0  0  0  0  0  0  0
   54.9940   23.5830   45.1430 C   0  0  0  0  0  0  0  0  0  0  0  0
   53.7000   23.0420   45.6230 C   0  0  0  0  0  0  0  0  0  0  0  0
   55.4500   24.8160   45.6110 C   0  0  0  0  0  0  0  0  0  0  0  0
   58.5650   29.3440   46.1740 C   0  0  0  0  0  0  0  0  0  0  0  0
   58.9640   30.6360   46.4450 C   0  0  0  0  0  0  0  0  0  0  0  0
   60.9640   33.8620   48.2440 N   0  0  0  0  0  0  0  0  0  0  0  0
   59.7180   33.4210   48.3730 C   0  0  0  0  0  0  0  0  0  0  0  0
   58.9100   33.5150   47.4290 N   0  0  0  0  0  0  0  0  0  0  0  0
   64.1490   33.4310   48.3200 C   0  0  0  0  0  0  0  0  0  0  0  0
   63.7560   32.8690   46.9660 C   0  0  0  0  0  0  0  0  0  0  0  0
   63.0350   33.8590   46.2720 O   0  0  0  0  0  0  0  0  0  0  0  0
   61.5670   33.0790   50.3090 N   0  0  0  0  0  0  0  0  0  0  0  0
   60.2990   32.6120   50.4800 C   0  0  0  0  0  0  0  0  0  0  0  0
   59.9710   31.9810   51.6450 C   0  0  0  0  0  0  0  0  0  0  0  0
   54.3561   30.2444   52.6994 H   0  0  0  0  0  0  0  0  0  0  0  0
   55.8336   31.4189   52.9593 H   0  0  0  0  0  0  0  0  0  0  0  0
   55.9000   28.3392   52.6146 H   0  0  0  0  0  0  0  0  0  0  0  0
   58.3198   28.7393   52.9573 H   0  0  0  0  0  0  0  0  0  0  0  0
   58.4644   31.1917   53.9990 H   0  0  0  0  0  0  0  0  0  0  0  0
   56.7249   31.3159   51.0271 H   0  0  0  0  0  0  0  0  0  0  0  0
   57.3171   32.4925   48.8466 H   0  0  0  0  0  0  0  0  0  0  0  0
   58.2329   33.8201   45.5495 H   0  0  0  0  0  0  0  0  0  0  0  0
   59.9611   33.1972   45.7677 H   0  0  0  0  0  0  0  0  0  0  0  0
   57.0919   32.2956   44.2207 H   0  0  0  0  0  0  0  0  0  0  0  0
   56.3828   30.0113   43.7317 H   0  0  0  0  0  0  0  0  0  0  0  0
   56.7650   27.6780   43.8760 H   0  0  0  0  0  0  0  0  0  0  0  0
   58.3376   25.0245   43.9289 H   0  0  0  0  0  0  0  0  0  0  0  0
   57.5530   22.8222   43.0720 H   0  0  0  0  0  0  0  0  0  0  0  0
   55.3833   21.8968   43.8681 H   0  0  0  0  0  0  0  0  0  0  0  0
   53.6898   23.0377   46.7229 H   0  0  0  0  0  0  0  0  0  0  0  0
   52.8786   23.6721   45.2511 H   0  0  0  0  0  0  0  0  0  0  0  0
   53.5715   22.0148   45.2511 H   0  0  0  0  0  0  0  0  0  0  0  0
   54.8421   25.3778   46.3355 H   0  0  0  0  0  0  0  0  0  0  0  0
   59.0006   28.5135   46.7489 H   0  0  0  0  0  0  0  0  0  0  0  0
   59.7145   30.7877   47.2348 H   0  0  0  0  0  0  0  0  0  0  0  0
   61.2460   34.3590   47.3680 H   0  0  0  0  0  0  0  0  0  0  0  0
   65.0170   34.0926   48.1826 H   0  0  0  0  0  0  0  0  0  0  0  0
   64.3736   32.5732   48.9709 H   0  0  0  0  0  0  0  0  0  0  0  0
   64.6588   32.5990   46.3985 H   0  0  0  0  0  0  0  0  0  0  0  0
   63.1384   31.9677   47.0932 H   0  0  0  0  0  0  0  0  0  0  0  0
   62.8780   34.6520   46.8650 H   0  0  0  0  0  0  0  0  0  0  0  0
   62.2930   32.9520   51.0510 H   0  0  0  0  0  0  0  0  0  0  0  0
   60.7247   31.8382   52.4334 H   0  0  0  0  0  0  0  0  0  0  0  0
  1  2  2  0
  2  3  1  0
  3  4  2  0
  4  5  1  0
  5  6  2  0
  6  7  1  0
  7  8  2  0
  8  9  1  0
  9 10  2  0
 10 11  1  0
 11 12  1  0
 12 13  2  0
 13 14  1  0
 14 15  2  0
 15 16  1  0
 16 17  1  0
 17 18  2  0
 17 19  1  0
 19 20  2  0
 20 21  1  0
 21 22  2  0
 22 23  1  0
 23 24  1  0
 23 25  2  0
 15 26  1  0
 26 27  2  0
  9 28  1  0
 28 29  1  0
 29 30  2  0
 30 31  1  0
 31 32  1  0
 32 33  1  0
 29 34  1  0
 34 35  1  0
 35 36  2  0
 36  5  1  0
 35  8  1  0
 27 12  1  0
 25 19  1  0
  1 37  1  0
  1 38  1  0
  2 39  1  0
  3 40  1  0
  4 41  1  0
  6 42  1  0
  7 43  1  0
 11 44  1  0
 11 45  1  0
 13 46  1  0
 14 47  1  0
 16 48  1  0
 20 49  1  0
 21 50  1  0
 22 51  1  0
 24 52  1  0
 24 53  1  0
 24 54  1  0
 25 55  1  0
 26 56  1  0
 27 57  1  0
 28 58  1  0
 31 59  1  0
 31 60  1  0
 32 61  1  0
 32 62  1  0
 33 63  1  0
 34 64  1  0
 36 65  1  0
M  END
>  <smiles>  (85) 
C=CC=Cc1ccc2c(=NCc3ccc(NC(=O)c4cccc(C)c4)cc3)[nH]c(=NCCO)[nH]c2c1

>  <score_type>  (85) 
oracle

>  <origin>  (85) 
adg

>  <m_score__min__energy>  (85) 
-9.5500000000000007

>  <m_primary>  (85) 
energy

$$$$
85:0
     RDKit          3D

 56 59  0  0  0  0  0  0  0  0999 V2000
   60.1426   32.2887   52.9032 H   0  0  0  0  0  0  0  0  0  0  0  0
   59.7490   32.2920   51.8760 C   0  0  0  0  0  0  0  0  0  0  0  0
   60.5890   32.6140   50.8070 C   0  0  0  0  0  0  0  0  0  0  0  0
   61.6424   32.8695   50.9941 H   0  0  0  0  0  0  0  0  0  0  0  0
   60.0930   32.6120   49.5000 C   0  0  0  0  0  0  0  0  0  0  0  0
   60.7548   32.8753   48.6617 H   0  0  0  0  0  0  0  0  0  0  0  0
   58.7490   32.2740   49.2540 C   0  0  0  0  0  0  0  0  0  0  0  0
   58.2050   32.2780   47.9610 O   0  0  0  0  0  0  0  0  0  0  0  0
   58.5320   33.1880   46.9440 C   0  0  0  0  0  0  0  0  0  0  0  0
   59.0440   34.4610   47.2570 C   0  0  0  0  0  0  0  0  0  0  0  0
   59.1657   34.7574   48.3093 H   0  0  0  0  0  0  0  0  0  0  0  0
   59.3980   35.3490   46.2420 C   0  0  0  0  0  0  0  0  0  0  0  0
   59.7954   36.3428   46.4957 H   0  0  0  0  0  0  0  0  0  0  0  0
   59.2490   34.9790   44.9050 C   0  0  0  0  0  0  0  0  0  0  0  0
   59.5234   35.6839   44.1063 H   0  0  0  0  0  0  0  0  0  0  0  0
   58.7520   33.7150   44.5790 C   0  0  0  0  0  0  0  0  0  0  0  0
   58.6309   33.4319   43.5230 H   0  0  0  0  0  0  0  0  0  0  0  0
   58.4050   32.8010   45.5910 C   0  0  0  0  0  0  0  0  0  0  0  0
   57.8830   31.4590   45.2270 C   0  0  0  0  0  0  0  0  0  0  0  0
   56.6700   31.3260   44.9190 O   0  0  0  0  0  0  0  0  0  0  0  0
   58.7310   30.3060   45.1660 N   0  0  0  0  0  0  0  0  0  0  0  0
   59.2710   29.5830   46.2840 C   0  0  0  0  0  0  0  0  0  0  0  0
   60.2170   30.1760   47.1370 C   0  0  0  0  0  0  0  0  0  0  0  0
   60.5708   31.1975   46.9336 H   0  0  0  0  0  0  0  0  0  0  0  0
   60.7110   29.4790   48.2400 C   0  0  0  0  0  0  0  0  0  0  0  0
   61.4489   29.9543   48.9030 H   0  0  0  0  0  0  0  0  0  0  0  0
   60.2710   28.1770   48.5060 C   0  0  0  0  0  0  0  0  0  0  0  0
   60.7720   27.4470   49.7170 C   0  0  0  0  0  0  0  0  0  0  0  0
   60.4207   27.9588   50.6251 H   0  0  0  0  0  0  0  0  0  0  0  0
   60.3908   26.4152   49.7069 H   0  0  0  0  0  0  0  0  0  0  0  0
   61.8718   27.4317   49.7069 H   0  0  0  0  0  0  0  0  0  0  0  0
   59.2970   27.5960   47.6810 C   0  0  0  0  0  0  0  0  0  0  0  0
   58.9259   26.5850   47.9051 H   0  0  0  0  0  0  0  0  0  0  0  0
   58.7920   28.2910   46.5740 C   0  0  0  0  0  0  0  0  0  0  0  0
   57.5560   27.5480   45.5530 S   0  0  0  0  0  0  0  0  0  0  0  0
   58.1690   27.2400   44.2160 O   0  0  0  0  0  0  0  0  0  0  0  0
   56.4240   28.5240   45.4070 O   0  0  0  0  0  0  0  0  0  0  0  0
   56.9870   26.0820   46.2880 N   0  0  0  0  0  0  0  0  0  0  0  0
   55.8660   25.4440   46.1030 C   0  0  0  0  0  0  0  0  0  0  0  0
   54.7650   26.0780   45.7720 O   0  0  0  0  0  0  0  0  0  0  0  0
   53.7800   25.2450   45.6240 N   0  0  0  0  0  0  0  0  0  0  0  0
   52.8070   25.5140   45.3580 H   0  0  0  0  0  0  0  0  0  0  0  0
   54.2380   24.0030   45.8630 C   0  0  0  0  0  0  0  0  0  0  0  0
   53.3980   22.7680   45.7710 C   0  0  0  0  0  0  0  0  0  0  0  0
   53.1563   22.4127   46.7836 H   0  0  0  0  0  0  0  0  0  0  0  0
   52.4675   22.9969   45.2309 H   0  0  0  0  0  0  0  0  0  0  0  0
   53.9527   21.9866   45.2309 H   0  0  0  0  0  0  0  0  0  0  0  0
   55.5860   24.0730   46.1940 C   0  0  0  0  0  0  0  0  0  0  0  0
   56.4780   22.8990   46.4770 C   0  0  0  0  0  0  0  0  0  0  0  0
   56.5776   22.7679   47.5646 H   0  0  0  0  0  0  0  0  0  0  0  0
   56.0398   21.9911   46.0369 H   0  0  0  0  0  0  0  0  0  0  0  0
   57.4701   23.0778   46.0369 H   0  0  0  0  0  0  0  0  0  0  0  0
   57.9110   31.9700   50.3340 C   0  0  0  0  0  0  0  0  0  0  0  0
   56.8537   31.7263   50.1529 H   0  0  0  0  0  0  0  0  0  0  0  0
   58.4080   31.9740   51.6400 C   0  0  0  0  0  0  0  0  0  0  0  0
   57.7446   31.7271   52.4820 H   0  0  0  0  0  0  0  0  0  0  0  0
  1  2  1  0
  2  3  2  0
  3  4  1  0
  3  5  1  0
  5  6  1  0
  5  7  2  0
  7  8  1  0
  8  9  1  0
  9 10  2  0
 10 11  1  0
 10 12  1  0
 12 13  1  0
 12 14  2  0
 14 15  1  0
 14 16  1  0
 16 17  1  0
 16 18  2  0
 18 19  1  0
 19 20  2  0
 19 21  1  0
 21 22  1  0
 22 23  2  0
 23 24  1  0
 23 25  1  0
 25 26  1  0
 25 27  2  0
 27 28  1  0
 28 29  1  0
 28 30  1  0
 28 31  1  0
 27 32  1  0
 32 33  1  0
 32 34  2  0
 34 35  1  0
 35 36  2  0
 35 37  2  0
 35 38  1  0
 38 39  2  0
 39 40  1  0
 40 41  1  0
 41 42  1  0
 41 43  1  0
 43 44  1  0
 44 45  1  0
 44 46  1  0
 44 47  1  0
 43 48  2  0
 48 49  1  0
 49 50  1  0
 49 51  1  0
 49 52  1  0
  7 53  1  0
 53 54  1  0
 53 55  2  0
 55 56  1  0
 55  2  1  0
 18  9  1  0
 34 22  1  0
 48 39  1  0
M  CHG  1  21  -1
M  END
>  <UniqueID>  (86) 
79

>  <SMILES>  (86) 
Cc1ccc([N-]C(=O)c2ccccc2Oc2ccccc2)c(S(=O)(=O)/N=c2/o[nH]c(C)c2C)c1

>  <Energy>  (86) 
115.35908971982973

>  <Genealogy>  (86) 
Cc1ccc([N-]C(=O)c2ccccc2Oc2ccccc2)c(S(=O)(=O)N=c2o[nH]c(C)c2C)c1 (protonated)
Cc1ccc([N-]C(=O)c2ccccc2Oc2ccccc2)c(S(=O)(=O)/N=c2/o[nH]c(C)c2C)c1 (cis-trans isomerization)
Cc1ccc([N-]C(=O)c2ccccc2Oc2ccccc2)c(S(=O)(=O)/N=c2/o[nH]c(C)c2C)c1 (3D coordinates assigned)
Cc1ccc([N-]C(=O)c2ccccc2Oc2ccccc2)c(S(=O)(=O)/N=c2/o[nH]c(C)c2C)c1 (optimized conformer: 115.35908971982973 kcal/mol)

>  <smiles>  (86) 
Cc1ccc(NC(=O)c2ccccc2Oc2ccccc2)c(S(=O)(=O)N=c2o[nH]c(C)c2C)c1

>  <score_type>  (86) 
oracle

>  <origin>  (86) 
adg

>  <m_score__min__energy>  (86) 
-11.859999999999999

>  <m_primary>  (86) 
energy

$$$$
86:0
     RDKit          3D

 50 51  0  0  0  0  0  0  0  0999 V2000
   56.2680   24.5320   44.5190 C   0  0  0  0  0  0  0  0  0  0  0  0
   55.5140   25.3340   45.9140 S   0  0  0  0  0  0  0  0  0  0  0  0
   54.0480   25.5330   45.6360 O   0  0  0  0  0  0  0  0  0  0  0  0
   55.6820   24.4630   47.1290 O   0  0  0  0  0  0  0  0  0  0  0  0
   56.2950   26.8690   46.1680 N   0  0  0  0  0  0  0  0  0  0  0  0
   57.5130   26.7270   46.9670 C   0  0  0  0  0  0  0  0  0  0  0  0
   58.5110   27.8280   46.6720 C   0  0  0  0  0  0  0  0  0  0  0  0
   59.1690   28.4450   47.7530 C   0  0  0  0  0  0  0  0  0  0  0  0
   60.0890   29.4690   47.5380 C   0  0  0  0  0  0  0  0  0  0  0  0
   60.3690   29.8960   46.2430 C   0  0  0  0  0  0  0  0  0  0  0  0
   59.7330   29.2970   45.1570 C   0  0  0  0  0  0  0  0  0  0  0  0
   58.8020   28.2590   45.3500 C   0  0  0  0  0  0  0  0  0  0  0  0
   58.1690   27.6210   44.1310 C   0  0  0  0  0  0  0  0  0  0  0  0
   57.3440   28.5850   43.4120 N   0  0  0  0  0  0  0  0  0  0  0  0
   56.9910   29.8750   43.9200 C   0  0  0  0  0  0  0  0  0  0  0  0
   56.1100   29.9880   44.8160 O   0  0  0  0  0  0  0  0  0  0  0  0
   57.6430   31.0370   43.4010 N   0  0  0  0  0  0  0  0  0  0  0  0
   57.3920   32.3640   43.9610 C   0  0  0  0  0  0  0  0  0  0  0  0
   58.4890   32.7600   44.9470 C   0  0  0  0  0  0  0  0  0  0  0  0
   57.7440   33.2540   46.5440 S   0  0  0  0  0  0  0  0  0  0  0  0
   58.8760   34.6470   46.9100 C   0  0  0  0  0  0  0  0  0  0  0  0
   60.2360   34.1540   47.3310 C   0  0  0  0  0  0  0  0  0  0  0  0
   61.2350   33.9250   46.3690 C   0  0  0  0  0  0  0  0  0  0  0  0
   62.5000   33.4780   46.7620 C   0  0  0  0  0  0  0  0  0  0  0  0
   62.7740   33.2470   48.1130 C   0  0  0  0  0  0  0  0  0  0  0  0
   61.7830   33.4630   49.0740 C   0  0  0  0  0  0  0  0  0  0  0  0
   60.5200   33.9200   48.6870 C   0  0  0  0  0  0  0  0  0  0  0  0
   56.9812   23.7734   44.8736 H   0  0  0  0  0  0  0  0  0  0  0  0
   55.4904   24.0479   43.9099 H   0  0  0  0  0  0  0  0  0  0  0  0
   56.7991   25.2783   43.9099 H   0  0  0  0  0  0  0  0  0  0  0  0
   57.2457   26.7650   48.0334 H   0  0  0  0  0  0  0  0  0  0  0  0
   57.9799   25.7646   46.7105 H   0  0  0  0  0  0  0  0  0  0  0  0
   58.9541   28.1145   48.7799 H   0  0  0  0  0  0  0  0  0  0  0  0
   60.5950   29.9409   48.3931 H   0  0  0  0  0  0  0  0  0  0  0  0
   61.0931   30.7072   46.0765 H   0  0  0  0  0  0  0  0  0  0  0  0
   59.9613   29.6395   44.1369 H   0  0  0  0  0  0  0  0  0  0  0  0
   58.9622   27.2554   43.4623 H   0  0  0  0  0  0  0  0  0  0  0  0
   57.5315   26.7872   44.4602 H   0  0  0  0  0  0  0  0  0  0  0  0
   58.2980   30.9200   42.5960 H   0  0  0  0  0  0  0  0  0  0  0  0
   57.3611   33.0992   43.1434 H   0  0  0  0  0  0  0  0  0  0  0  0
   56.4315   32.3417   44.4967 H   0  0  0  0  0  0  0  0  0  0  0  0
   59.1612   31.9042   45.1075 H   0  0  0  0  0  0  0  0  0  0  0  0
   59.0569   33.6073   44.5352 H   0  0  0  0  0  0  0  0  0  0  0  0
   58.9836   35.2673   46.0079 H   0  0  0  0  0  0  0  0  0  0  0  0
   58.4485   35.2323   47.7374 H   0  0  0  0  0  0  0  0  0  0  0  0
   61.0208   34.0980   45.3040 H   0  0  0  0  0  0  0  0  0  0  0  0
   63.2812   33.3078   46.0065 H   0  0  0  0  0  0  0  0  0  0  0  0
   63.7700   32.8951   48.4197 H   0  0  0  0  0  0  0  0  0  0  0  0
   61.9970   33.2732   50.1362 H   0  0  0  0  0  0  0  0  0  0  0  0
   59.7451   34.0972   49.4473 H   0  0  0  0  0  0  0  0  0  0  0  0
  1  2  1  0
  2  3  2  0
  2  4  2  0
  2  5  1  0
  5  6  1  0
  6  7  1  0
  7  8  2  0
  8  9  1  0
  9 10  2  0
 10 11  1  0
 11 12  2  0
 12 13  1  0
 13 14  1  0
 14 15  1  0
 15 16  2  0
 15 17  1  0
 17 18  1  0
 18 19  1  0
 19 20  1  0
 20 21  1  0
 21 22  1  0
 22 23  2  0
 23 24  1  0
 24 25  2  0
 25 26  1  0
 26 27  2  0
 12  7  1  0
 27 22  1  0
  1 28  1  0
  1 29  1  0
  1 30  1  0
  6 31  1  0
  6 32  1  0
  8 33  1  0
  9 34  1  0
 10 35  1  0
 11 36  1  0
 13 37  1  0
 13 38  1  0
 17 39  1  0
 18 40  1  0
 18 41  1  0
 19 42  1  0
 19 43  1  0
 21 44  1  0
 21 45  1  0
 23 46  1  0
 24 47  1  0
 25 48  1  0
 26 49  1  0
 27 50  1  0
M  CHG  2   5  -1  14  -1
M  END
>  <UniqueID>  (87) 
80

>  <SMILES>  (87) 
CS(=O)(=O)[N-]Cc1ccccc1C[N-]C(=O)NCCSCc1ccccc1

>  <Energy>  (87) 
32.0076221443941

>  <Genealogy>  (87) 
CS(=O)(=O)[N-]Cc1ccccc1C[N-]C(=O)NCCSCc1ccccc1 (protonated)
CS(=O)(=O)[N-]Cc1ccccc1C[N-]C(=O)NCCSCc1ccccc1 (3D coordinates assigned)
CS(=O)(=O)[N-]Cc1ccccc1C[N-]C(=O)NCCSCc1ccccc1 (optimized conformer: 32.0076221443941 kcal/mol)

>  <smiles>  (87) 
CS(=O)(=O)NCc1ccccc1CNC(=O)NCCSCc1ccccc1

>  <score_type>  (87) 
oracle

>  <origin>  (87) 
adg

>  <m_score__min__energy>  (87) 
-11.789999999999999

>  <m_primary>  (87) 
energy

$$$$
87:0
     RDKit          3D

 52 55  0  0  0  0  0  0  0  0999 V2000
   61.4170   33.8360   49.4390 C   0  0  0  0  0  0  0  0  0  0  0  0
   60.1950   33.1020   49.4460 O   0  0  0  0  0  0  0  0  0  0  0  0
   59.5180   32.6870   48.2880 C   0  0  0  0  0  0  0  0  0  0  0  0
   59.2460   31.3300   48.0190 C   0  0  0  0  0  0  0  0  0  0  0  0
   58.5660   30.9670   46.8530 C   0  0  0  0  0  0  0  0  0  0  0  0
   58.1500   31.9460   45.9420 C   0  0  0  0  0  0  0  0  0  0  0  0
   57.2920   31.4720   44.4800 S   0  0  0  0  0  0  0  0  0  0  0  0
   55.8510   31.2100   44.8170 O   0  0  0  0  0  0  0  0  0  0  0  0
   57.3530   32.5640   43.4470 O   0  0  0  0  0  0  0  0  0  0  0  0
   57.9990   30.0280   43.8230 N   0  0  0  0  0  0  0  0  0  0  0  0
   58.2100   28.8280   44.5920 C   0  0  0  0  0  0  0  0  0  0  0  0
   59.5070   28.3430   44.8350 C   0  0  0  0  0  0  0  0  0  0  0  0
   59.6970   27.1920   45.5990 C   0  0  0  0  0  0  0  0  0  0  0  0
   58.6030   26.5170   46.1370 C   0  0  0  0  0  0  0  0  0  0  0  0
   57.2980   26.9920   45.9290 C   0  0  0  0  0  0  0  0  0  0  0  0
   56.1270   26.2320   46.5130 C   0  0  0  0  0  0  0  0  0  0  0  0
   56.4520   24.7690   46.7020 C   0  0  0  0  0  0  0  0  0  0  0  0
   56.8400   24.3590   47.9400 N   0  0  0  0  0  0  0  0  0  0  0  0
   57.0960   23.0790   48.2140 N   0  0  0  0  0  0  0  0  0  0  0  0
   56.9770   22.1100   47.2720 C   0  0  0  0  0  0  0  0  0  0  0  0
   57.2050   20.9100   47.5840 O   0  0  0  0  0  0  0  0  0  0  0  0
   56.5970   22.4600   45.9670 C   0  0  0  0  0  0  0  0  0  0  0  0
   56.3300   23.8070   45.6690 C   0  0  0  0  0  0  0  0  0  0  0  0
   55.8310   24.1310   44.2780 C   0  0  0  0  0  0  0  0  0  0  0  0
   56.6250   23.3770   43.1900 C   0  0  0  0  0  0  0  0  0  0  0  0
   57.0280   21.9280   43.5640 C   0  0  0  0  0  0  0  0  0  0  0  0
   56.4140   21.4270   44.8800 C   0  0  0  0  0  0  0  0  0  0  0  0
   57.1060   28.1440   45.1370 C   0  0  0  0  0  0  0  0  0  0  0  0
   55.8180   28.6050   44.8730 O   0  0  0  0  0  0  0  0  0  0  0  0
   58.4180   33.2950   46.2080 C   0  0  0  0  0  0  0  0  0  0  0  0
   59.0990   33.6610   47.3740 C   0  0  0  0  0  0  0  0  0  0  0  0
   61.7357   34.0274   50.4743 H   0  0  0  0  0  0  0  0  0  0  0  0
   62.1916   33.2536   48.9187 H   0  0  0  0  0  0  0  0  0  0  0  0
   61.2667   34.7934   48.9187 H   0  0  0  0  0  0  0  0  0  0  0  0
   59.5699   30.5546   48.7289 H   0  0  0  0  0  0  0  0  0  0  0  0
   58.3564   29.9064   46.6498 H   0  0  0  0  0  0  0  0  0  0  0  0
   58.3680   30.0870   42.8470 H   0  0  0  0  0  0  0  0  0  0  0  0
   60.3764   28.8742   44.4203 H   0  0  0  0  0  0  0  0  0  0  0  0
   60.7149   26.8152   45.7778 H   0  0  0  0  0  0  0  0  0  0  0  0
   58.7631   25.6043   46.7297 H   0  0  0  0  0  0  0  0  0  0  0  0
   55.8686   26.6692   47.4888 H   0  0  0  0  0  0  0  0  0  0  0  0
   55.2828   26.3091   45.8120 H   0  0  0  0  0  0  0  0  0  0  0  0
   54.7709   23.8467   44.2056 H   0  0  0  0  0  0  0  0  0  0  0  0
   55.9652   25.2099   44.1110 H   0  0  0  0  0  0  0  0  0  0  0  0
   56.0060   23.3361   42.2816 H   0  0  0  0  0  0  0  0  0  0  0  0
   57.5640   23.9329   43.0517 H   0  0  0  0  0  0  0  0  0  0  0  0
   56.7025   21.2588   42.7539 H   0  0  0  0  0  0  0  0  0  0  0  0
   58.1193   21.9275   43.7023 H   0  0  0  0  0  0  0  0  0  0  0  0
   55.3399   21.2411   44.7324 H   0  0  0  0  0  0  0  0  0  0  0  0
   56.9181   20.4965   45.1802 H   0  0  0  0  0  0  0  0  0  0  0  0
   58.0919   34.0691   45.4977 H   0  0  0  0  0  0  0  0  0  0  0  0
   59.3068   34.7225   47.5741 H   0  0  0  0  0  0  0  0  0  0  0  0
  1  2  1  0
  2  3  1  0
  3  4  2  0
  4  5  1  0
  5  6  2  0
  6  7  1  0
  7  8  2  0
  7  9  2  0
  7 10  1  0
 10 11  1  0
 11 12  2  0
 12 13  1  0
 13 14  2  0
 14 15  1  0
 15 16  1  0
 16 17  1  0
 17 18  2  0
 18 19  1  0
 19 20  1  0
 20 21  2  0
 20 22  1  0
 22 23  2  0
 23 24  1  0
 24 25  1  0
 25 26  1  0
 26 27  1  0
 15 28  2  0
 28 29  1  0
  6 30  1  0
 30 31  2  0
 31  3  1  0
 28 11  1  0
 23 17  1  0
 27 22  1  0
  1 32  1  0
  1 33  1  0
  1 34  1  0
  4 35  1  0
  5 36  1  0
 10 37  1  0
 12 38  1  0
 13 39  1  0
 14 40  1  0
 16 41  1  0
 16 42  1  0
 24 43  1  0
 24 44  1  0
 25 45  1  0
 25 46  1  0
 26 47  1  0
 26 48  1  0
 27 49  1  0
 27 50  1  0
 30 51  1  0
 31 52  1  0
M  CHG  2  19  -1  29  -1
M  END
>  <UniqueID>  (88) 
81

>  <SMILES>  (88) 
COc1ccc(S(=O)(=O)Nc2cccc(Cc3n[n-]c(=O)c4c3CCCC4)c2[O-])cc1

>  <Energy>  (88) 
67.70108921075212

>  <Genealogy>  (88) 
COc1ccc(S(=O)(=O)Nc2cccc(Cc3n[n-]c(=O)c4c3CCCC4)c2[O-])cc1 (protonated)
COc1ccc(S(=O)(=O)Nc2cccc(Cc3n[n-]c(=O)c4c3CCCC4)c2[O-])cc1 (3D coordinates assigned)
COc1ccc(S(=O)(=O)Nc2cccc(Cc3n[n-]c(=O)c4c3CCCC4)c2[O-])cc1 (nonaromatic ring conformer: 67.70108921075212 kcal/mol)

>  <smiles>  (88) 
COc1ccc(S(=O)(=O)Nc2cccc(Cc3n[nH]c(=O)c4c3CCCC4)c2O)cc1

>  <score_type>  (88) 
oracle

>  <origin>  (88) 
adg

>  <m_score__min__energy>  (88) 
-14.66

>  <m_primary>  (88) 
energy

$$$$
88:0
     RDKit          3D

 52 55  0  0  0  0  0  0  0  0999 V2000
   57.3540   30.5380   45.4870 O   0  0  0  0  0  0  0  0  0  0  0  0
   58.3650   31.0060   46.0740 C   0  0  0  0  0  0  0  0  0  0  0  0
   59.1710   30.1450   46.8920 N   0  0  0  0  0  0  0  0  0  0  0  0
   59.1170   28.7130   46.8010 C   0  0  0  0  0  0  0  0  0  0  0  0
   59.7940   28.0560   45.7630 C   0  0  0  0  0  0  0  0  0  0  0  0
   59.7400   26.6610   45.6530 C   0  0  0  0  0  0  0  0  0  0  0  0
   59.0020   25.9060   46.5730 C   0  0  0  0  0  0  0  0  0  0  0  0
   58.9360   24.4850   46.4070 N   0  0  0  0  0  0  0  0  0  0  0  0
   57.7480   23.6870   46.4580 C   0  0  0  0  0  0  0  0  0  0  0  0
   57.3220   23.2490   47.5610 O   0  0  0  0  0  0  0  0  0  0  0  0
   57.0480   23.3320   45.2050 C   0  0  0  0  0  0  0  0  0  0  0  0
   57.5780   22.3030   44.4050 C   0  0  0  0  0  0  0  0  0  0  0  0
   57.0040   21.9940   43.1730 C   0  0  0  0  0  0  0  0  0  0  0  0
   55.8950   22.7050   42.7190 C   0  0  0  0  0  0  0  0  0  0  0  0
   55.3410   23.7140   43.5070 C   0  0  0  0  0  0  0  0  0  0  0  0
   55.8860   24.0220   44.7630 C   0  0  0  0  0  0  0  0  0  0  0  0
   55.1770   25.0170   45.6050 C   0  0  0  0  0  0  0  0  0  0  0  0
   55.8500   25.7770   46.3520 O   0  0  0  0  0  0  0  0  0  0  0  0
   53.7480   25.1450   45.6010 N   0  0  0  0  0  0  0  0  0  0  0  0
   52.7920   24.0770   45.5380 C   0  0  0  0  0  0  0  0  0  0  0  0
   52.9640   22.9650   46.3730 C   0  0  0  0  0  0  0  0  0  0  0  0
   52.0490   21.9080   46.3400 C   0  0  0  0  0  0  0  0  0  0  0  0
   50.9420   21.9680   45.4900 C   0  0  0  0  0  0  0  0  0  0  0  0
   50.7500   23.0820   44.6670 C   0  0  0  0  0  0  0  0  0  0  0  0
   51.6680   24.1370   44.6940 C   0  0  0  0  0  0  0  0  0  0  0  0
   58.2850   26.5660   47.5850 C   0  0  0  0  0  0  0  0  0  0  0  0
   58.3440   27.9570   47.6980 C   0  0  0  0  0  0  0  0  0  0  0  0
   58.7020   32.4360   45.8890 C   0  0  0  0  0  0  0  0  0  0  0  0
   57.8430   33.2580   45.1350 C   0  0  0  0  0  0  0  0  0  0  0  0
   58.1440   34.6080   44.9370 C   0  0  0  0  0  0  0  0  0  0  0  0
   59.2980   35.1560   45.4990 C   0  0  0  0  0  0  0  0  0  0  0  0
   60.1510   34.3570   46.2610 C   0  0  0  0  0  0  0  0  0  0  0  0
   59.8580   33.0030   46.4590 C   0  0  0  0  0  0  0  0  0  0  0  0
   59.8090   30.5550   47.6090 H   0  0  0  0  0  0  0  0  0  0  0  0
   60.3709   28.6401   45.0309 H   0  0  0  0  0  0  0  0  0  0  0  0
   60.2804   26.1553   44.8392 H   0  0  0  0  0  0  0  0  0  0  0  0
   58.4538   21.7370   44.7552 H   0  0  0  0  0  0  0  0  0  0  0  0
   57.4276   21.1867   42.5575 H   0  0  0  0  0  0  0  0  0  0  0  0
   55.4559   22.4704   41.7381 H   0  0  0  0  0  0  0  0  0  0  0  0
   54.4681   24.2739   43.1402 H   0  0  0  0  0  0  0  0  0  0  0  0
   53.8235   22.9232   47.0582 H   0  0  0  0  0  0  0  0  0  0  0  0
   52.2010   21.0290   46.9836 H   0  0  0  0  0  0  0  0  0  0  0  0
   50.2205   21.1379   45.4681 H   0  0  0  0  0  0  0  0  0  0  0  0
   49.8775   23.1287   43.9987 H   0  0  0  0  0  0  0  0  0  0  0  0
   51.5105   25.0169   44.0529 H   0  0  0  0  0  0  0  0  0  0  0  0
   57.6744   25.9847   48.2916 H   0  0  0  0  0  0  0  0  0  0  0  0
   57.7810   28.4643   48.4953 H   0  0  0  0  0  0  0  0  0  0  0  0
   56.9270   32.8338   44.6980 H   0  0  0  0  0  0  0  0  0  0  0  0
   57.4711   35.2392   44.3379 H   0  0  0  0  0  0  0  0  0  0  0  0
   59.5352   36.2185   45.3411 H   0  0  0  0  0  0  0  0  0  0  0  0
   61.0569   34.7928   46.7076 H   0  0  0  0  0  0  0  0  0  0  0  0
   60.5336   32.3790   47.0625 H   0  0  0  0  0  0  0  0  0  0  0  0
  1  2  2  0
  2  3  1  0
  3  4  1  0
  4  5  2  0
  5  6  1  0
  6  7  2  0
  7  8  1  0
  8  9  1  0
  9 10  2  0
  9 11  1  0
 11 12  2  0
 12 13  1  0
 13 14  2  0
 14 15  1  0
 15 16  2  0
 16 17  1  0
 17 18  2  0
 17 19  1  0
 19 20  1  0
 20 21  2  0
 21 22  1  0
 22 23  2  0
 23 24  1  0
 24 25  2  0
  7 26  1  0
 26 27  2  0
  2 28  1  0
 28 29  2  0
 29 30  1  0
 30 31  2  0
 31 32  1  0
 32 33  2  0
 27  4  1  0
 33 28  1  0
 16 11  1  0
 25 20  1  0
  3 34  1  0
  5 35  1  0
  6 36  1  0
 12 37  1  0
 13 38  1  0
 14 39  1  0
 15 40  1  0
 21 41  1  0
 22 42  1  0
 23 43  1  0
 24 44  1  0
 25 45  1  0
 26 46  1  0
 27 47  1  0
 29 48  1  0
 30 49  1  0
 31 50  1  0
 32 51  1  0
 33 52  1  0
M  CHG  2   8  -1  19  -1
M  END
>  <UniqueID>  (89) 
82

>  <SMILES>  (89) 
O=C(Nc1ccc([N-]C(=O)c2ccccc2C(=O)[N-]c2ccccc2)cc1)c1ccccc1

>  <Energy>  (89) 
79.48443077919188

>  <Genealogy>  (89) 
O=C(Nc1ccc([N-]C(=O)c2ccccc2C(=O)[N-]c2ccccc2)cc1)c1ccccc1 (protonated)
O=C(Nc1ccc([N-]C(=O)c2ccccc2C(=O)[N-]c2ccccc2)cc1)c1ccccc1 (3D coordinates assigned)
O=C(Nc1ccc([N-]C(=O)c2ccccc2C(=O)[N-]c2ccccc2)cc1)c1ccccc1 (optimized conformer: 79.48443077919188 kcal/mol)

>  <smiles>  (89) 
O=C(Nc1ccc(NC(=O)c2ccccc2C(=O)Nc2ccccc2)cc1)c1ccccc1

>  <score_type>  (89) 
oracle

>  <origin>  (89) 
adg

>  <m_score__min__energy>  (89) 
-12.34

>  <m_primary>  (89) 
energy

$$$$
89:0
     RDKit          3D

 34 36  0  0  0  0  0  0  0  0999 V2000
   54.7620   29.6830   43.3840 O   0  0  0  0  0  0  0  0  0  0  0  0
   55.7160   29.7650   44.2020 C   0  0  0  0  0  0  0  0  0  0  0  0
   55.8480   28.7550   45.2110 N   0  0  0  0  0  0  0  0  0  0  0  0
   57.0470   28.0340   45.5300 C   0  0  0  0  0  0  0  0  0  0  0  0
   58.2650   28.4600   44.9910 C   0  0  0  0  0  0  0  0  0  0  0  0
   59.4390   27.7620   45.2830 C   0  0  0  0  0  0  0  0  0  0  0  0
   59.3780   26.6300   46.0990 C   0  0  0  0  0  0  0  0  0  0  0  0
   58.1830   26.2120   46.5940 N   0  0  0  0  0  0  0  0  0  0  0  0
   57.0270   26.8770   46.3270 C   0  0  0  0  0  0  0  0  0  0  0  0
   56.6970   30.8590   44.0530 C   0  0  0  0  0  0  0  0  0  0  0  0
   57.0080   31.8110   45.0090 C   0  0  0  0  0  0  0  0  0  0  0  0
   57.9880   32.6100   44.4470 C   0  0  0  0  0  0  0  0  0  0  0  0
   58.6140   33.8040   45.0490 C   0  0  0  0  0  0  0  0  0  0  0  0
   58.4230   34.9310   44.5160 O   0  0  0  0  0  0  0  0  0  0  0  0
   59.4250   33.7240   46.2820 C   0  0  0  0  0  0  0  0  0  0  0  0
   60.8220   33.8440   46.2010 C   0  0  0  0  0  0  0  0  0  0  0  0
   61.6070   33.7730   47.3570 C   0  0  0  0  0  0  0  0  0  0  0  0
   62.9540   33.9030   47.2710 F   0  0  0  0  0  0  0  0  0  0  0  0
   61.0040   33.5700   48.6010 C   0  0  0  0  0  0  0  0  0  0  0  0
   59.6160   33.4280   48.6900 C   0  0  0  0  0  0  0  0  0  0  0  0
   58.8260   33.4970   47.5380 C   0  0  0  0  0  0  0  0  0  0  0  0
   57.4870   33.3060   47.6460 F   0  0  0  0  0  0  0  0  0  0  0  0
   58.2310   32.1150   43.1800 C   0  0  0  0  0  0  0  0  0  0  0  0
   57.4510   31.0430   42.9510 N   0  0  0  0  0  0  0  0  0  0  0  0
   58.2985   29.3442   44.3375 H   0  0  0  0  0  0  0  0  0  0  0  0
   60.4025   28.1005   44.8742 H   0  0  0  0  0  0  0  0  0  0  0  0
   60.2973   26.0766   46.3411 H   0  0  0  0  0  0  0  0  0  0  0  0
   56.0746   26.5084   46.7358 H   0  0  0  0  0  0  0  0  0  0  0  0
   56.5660   31.9117   46.0112 H   0  0  0  0  0  0  0  0  0  0  0  0
   61.3019   33.9947   45.2228 H   0  0  0  0  0  0  0  0  0  0  0  0
   61.6213   33.5219   49.5102 H   0  0  0  0  0  0  0  0  0  0  0  0
   59.1437   33.2614   49.6694 H   0  0  0  0  0  0  0  0  0  0  0  0
   58.9542   32.5348   42.4653 H   0  0  0  0  0  0  0  0  0  0  0  0
   57.4300   30.4730   42.0760 H   0  0  0  0  0  0  0  0  0  0  0  0
  1  2  2  0
  2  3  1  0
  3  4  1  0
  4  5  2  0
  5  6  1  0
  6  7  2  0
  7  8  1  0
  8  9  2  0
  2 10  1  0
 10 11  2  0
 11 12  1  0
 12 13  1  0
 13 14  2  0
 13 15  1  0
 15 16  2  0
 16 17  1  0
 17 18  1  0
 17 19  2  0
 19 20  1  0
 20 21  2  0
 21 22  1  0
 12 23  2  0
 23 24  1  0
  9  4  1  0
 24 10  1  0
 21 15  1  0
  5 25  1  0
  6 26  1  0
  7 27  1  0
  9 28  1  0
 11 29  1  0
 16 30  1  0
 19 31  1  0
 20 32  1  0
 23 33  1  0
 24 34  1  0
M  CHG  1   3  -1
M  END
>  <UniqueID>  (90) 
83

>  <SMILES>  (90) 
O=C([N-]c1cccnc1)c1cc(C(=O)c2cc(F)ccc2F)c[nH]1

>  <Energy>  (90) 
73.43981254013522

>  <Genealogy>  (90) 
O=C([N-]c1cccnc1)c1cc(C(=O)c2cc(F)ccc2F)c[nH]1 (protonated)
O=C([N-]c1cccnc1)c1cc(C(=O)c2cc(F)ccc2F)c[nH]1 (3D coordinates assigned)
O=C([N-]c1cccnc1)c1cc(C(=O)c2cc(F)ccc2F)c[nH]1 (optimized conformer: 73.43981254013522 kcal/mol)

>  <smiles>  (90) 
O=C(Nc1cccnc1)c1cc(C(=O)c2cc(F)ccc2F)c[nH]1

>  <score_type>  (90) 
oracle

>  <origin>  (90) 
adg

>  <m_score__min__energy>  (90) 
-9.6699999999999999

>  <m_primary>  (90) 
energy

$$$$
90:0
     RDKit          3D

 65 69  0  0  0  0  0  0  0  0999 V2000
   55.3070   28.9910   44.8200 O   0  0  0  0  0  0  0  0  0  0  0  0
   56.2870   29.7810   44.7980 C   0  0  0  0  0  0  0  0  0  0  0  0
   57.6270   29.2750   44.7490 N   0  0  0  0  0  0  0  0  0  0  0  0
   58.2190   28.3620   45.6850 C   0  0  0  0  0  0  0  0  0  0  0  0
   59.1900   28.8420   46.5690 C   0  0  0  0  0  0  0  0  0  0  0  0
   59.7900   27.9840   47.4920 C   0  0  0  0  0  0  0  0  0  0  0  0
   59.4170   26.6410   47.5490 C   0  0  0  0  0  0  0  0  0  0  0  0
   58.4380   26.1440   46.6760 C   0  0  0  0  0  0  0  0  0  0  0  0
   58.0220   24.6980   46.7560 C   0  0  0  0  0  0  0  0  0  0  0  0
   58.6330   23.8790   45.5950 C   0  0  0  0  0  0  0  0  0  0  0  0
   57.6280   23.1640   44.7750 N   0  0  0  0  0  0  0  0  0  0  0  0
   58.1070   21.8480   44.2920 C   0  0  0  0  0  0  0  0  0  0  0  0
   57.3490   21.3980   43.0340 C   0  0  0  0  0  0  0  0  0  0  0  0
   56.0040   21.8030   43.1380 O   0  0  0  0  0  0  0  0  0  0  0  0
   55.8960   23.2110   42.9990 C   0  0  0  0  0  0  0  0  0  0  0  0
   57.0240   23.9930   43.7140 C   0  0  0  0  0  0  0  0  0  0  0  0
   57.8270   27.0130   45.7570 C   0  0  0  0  0  0  0  0  0  0  0  0
   56.0480   31.1920   44.8100 N   0  0  0  0  0  0  0  0  0  0  0  0
   57.0540   32.2120   44.8740 C   0  0  0  0  0  0  0  0  0  0  0  0
   57.7750   32.5230   43.7150 C   0  0  0  0  0  0  0  0  0  0  0  0
   58.8030   33.4640   43.7520 C   0  0  0  0  0  0  0  0  0  0  0  0
   59.1410   34.0860   44.9560 C   0  0  0  0  0  0  0  0  0  0  0  0
   58.4510   33.7610   46.1380 C   0  0  0  0  0  0  0  0  0  0  0  0
   58.8730   34.3670   47.4520 C   0  0  0  0  0  0  0  0  0  0  0  0
   59.7510   33.4030   48.2100 C   0  0  0  0  0  0  0  0  0  0  0  0
   59.1740   32.6950   49.2190 N   0  0  0  0  0  0  0  0  0  0  0  0
   59.8550   31.8150   49.9500 N   0  0  0  0  0  0  0  0  0  0  0  0
   61.1690   31.5700   49.7260 C   0  0  0  0  0  0  0  0  0  0  0  0
   61.7770   30.7390   50.4530 O   0  0  0  0  0  0  0  0  0  0  0  0
   61.8330   32.2410   48.6890 C   0  0  0  0  0  0  0  0  0  0  0  0
   61.1200   33.1850   47.9180 C   0  0  0  0  0  0  0  0  0  0  0  0
   61.7980   33.8750   46.8490 N   0  0  0  0  0  0  0  0  0  0  0  0
   63.2510   33.8310   46.7290 C   0  0  0  0  0  0  0  0  0  0  0  0
   63.7570   32.4290   47.0520 C   0  0  0  0  0  0  0  0  0  0  0  0
   63.3130   32.0130   48.4600 C   0  0  0  0  0  0  0  0  0  0  0  0
   57.4010   32.8290   46.0880 C   0  0  0  0  0  0  0  0  0  0  0  0
   59.4827   29.9018   46.5369 H   0  0  0  0  0  0  0  0  0  0  0  0
   60.5600   28.3683   48.1772 H   0  0  0  0  0  0  0  0  0  0  0  0
   59.8917   25.9702   48.2802 H   0  0  0  0  0  0  0  0  0  0  0  0
   58.3658   24.2774   47.7125 H   0  0  0  0  0  0  0  0  0  0  0  0
   56.9257   24.6448   46.6827 H   0  0  0  0  0  0  0  0  0  0  0  0
   59.1892   24.5664   44.9406 H   0  0  0  0  0  0  0  0  0  0  0  0
   59.2802   23.1137   46.0483 H   0  0  0  0  0  0  0  0  0  0  0  0
   59.1787   21.9229   44.0555 H   0  0  0  0  0  0  0  0  0  0  0  0
   57.9308   21.1055   45.0842 H   0  0  0  0  0  0  0  0  0  0  0  0
   57.8047   21.8581   42.1448 H   0  0  0  0  0  0  0  0  0  0  0  0
   57.4007   20.3031   42.9414 H   0  0  0  0  0  0  0  0  0  0  0  0
   55.9270   23.4580   41.9275 H   0  0  0  0  0  0  0  0  0  0  0  0
   54.9480   23.5097   43.4702 H   0  0  0  0  0  0  0  0  0  0  0  0
   57.7979   24.2651   42.9812 H   0  0  0  0  0  0  0  0  0  0  0  0
   56.5988   24.9007   44.1672 H   0  0  0  0  0  0  0  0  0  0  0  0
   57.0376   26.6365   45.0899 H   0  0  0  0  0  0  0  0  0  0  0  0
   57.5285   32.0210   42.7678 H   0  0  0  0  0  0  0  0  0  0  0  0
   59.3490   33.7171   42.8312 H   0  0  0  0  0  0  0  0  0  0  0  0
   59.9490   34.8321   44.9800 H   0  0  0  0  0  0  0  0  0  0  0  0
   59.4317   35.2952   47.2617 H   0  0  0  0  0  0  0  0  0  0  0  0
   57.9771   34.5853   48.0517 H   0  0  0  0  0  0  0  0  0  0  0  0
   61.2770   34.4010   46.1150 H   0  0  0  0  0  0  0  0  0  0  0  0
   63.5401   34.0952   45.7011 H   0  0  0  0  0  0  0  0  0  0  0  0
   63.6943   34.5475   47.4361 H   0  0  0  0  0  0  0  0  0  0  0  0
   63.3491   31.7182   46.3183 H   0  0  0  0  0  0  0  0  0  0  0  0
   64.8561   32.4269   47.0086 H   0  0  0  0  0  0  0  0  0  0  0  0
   63.5313   30.9437   48.5979 H   0  0  0  0  0  0  0  0  0  0  0  0
   63.8639   32.6330   49.1826 H   0  0  0  0  0  0  0  0  0  0  0  0
   56.8468   32.5806   47.0051 H   0  0  0  0  0  0  0  0  0  0  0  0
  1  2  2  0
  2  3  1  0
  3  4  1  0
  4  5  2  0
  5  6  1  0
  6  7  2  0
  7  8  1  0
  8  9  1  0
  9 10  1  0
 10 11  1  0
 11 12  1  0
 12 13  1  0
 13 14  1  0
 14 15  1  0
 15 16  1  0
  8 17  2  0
  2 18  1  0
 18 19  1  0
 19 20  2  0
 20 21  1  0
 21 22  2  0
 22 23  1  0
 23 24  1  0
 24 25  1  0
 25 26  2  0
 26 27  1  0
 27 28  1  0
 28 29  2  0
 28 30  1  0
 30 31  2  0
 31 32  1  0
 32 33  1  0
 33 34  1  0
 34 35  1  0
 23 36  2  0
 17  4  1  0
 36 19  1  0
 16 11  1  0
 31 25  1  0
 35 30  1  0
  5 37  1  0
  6 38  1  0
  7 39  1  0
  9 40  1  0
  9 41  1  0
 10 42  1  0
 10 43  1  0
 12 44  1  0
 12 45  1  0
 13 46  1  0
 13 47  1  0
 15 48  1  0
 15 49  1  0
 16 50  1  0
 16 51  1  0
 17 52  1  0
 20 53  1  0
 21 54  1  0
 22 55  1  0
 24 56  1  0
 24 57  1  0
 32 58  1  0
 33 59  1  0
 33 60  1  0
 34 61  1  0
 34 62  1  0
 35 63  1  0
 35 64  1  0
 36 65  1  0
M  CHG  3   3  -1  18  -1  27  -1
M  END
>  <UniqueID>  (91) 
84

>  <SMILES>  (91) 
O=C([N-]c1cccc(CCN2CCOCC2)c1)[N-]c1cccc(Cc2n[n-]c(=O)c3c2NCCC3)c1

>  <Energy>  (91) 
91.28890254332953

>  <Genealogy>  (91) 
O=C([N-]c1cccc(CCN2CCOCC2)c1)[N-]c1cccc(Cc2n[n-]c(=O)c3c2NCCC3)c1 (protonated)
O=C([N-]c1cccc(CCN2CCOCC2)c1)[N-]c1cccc(Cc2n[n-]c(=O)c3c2NCCC3)c1 (3D coordinates assigned)
O=C([N-]c1cccc(CCN2CCOCC2)c1)[N-]c1cccc(Cc2n[n-]c(=O)c3c2NCCC3)c1 (nonaromatic ring conformer: 91.28890254332953 kcal/mol)

>  <smiles>  (91) 
O=C(Nc1cccc(CCN2CCOCC2)c1)Nc1cccc(Cc2n[nH]c(=O)c3c2NCCC3)c1

>  <score_type>  (91) 
oracle

>  <origin>  (91) 
adg

>  <m_score__min__energy>  (91) 
-15.73

>  <m_primary>  (91) 
energy

$$$$
91:0
     RDKit          3D

 45 47  0  0  0  0  0  0  0  0999 V2000
   54.7460   26.1270   45.9960 N   0  0  0  0  0  0  0  0  0  0  0  0
   56.3620   25.5730   46.2670 S   0  0  0  0  0  0  0  0  0  0  0  0
   56.7240   24.5420   45.2350 O   0  0  0  0  0  0  0  0  0  0  0  0
   56.4410   24.9550   47.6350 O   0  0  0  0  0  0  0  0  0  0  0  0
   57.4690   26.9360   46.1460 C   0  0  0  0  0  0  0  0  0  0  0  0
   58.7780   26.8450   46.6390 C   0  0  0  0  0  0  0  0  0  0  0  0
   59.6410   27.9420   46.5460 C   0  0  0  0  0  0  0  0  0  0  0  0
   59.1990   29.1340   45.9670 C   0  0  0  0  0  0  0  0  0  0  0  0
   57.8920   29.2340   45.4720 C   0  0  0  0  0  0  0  0  0  0  0  0
   57.3290   30.7430   44.7570 S   0  0  0  0  0  0  0  0  0  0  0  0
   58.2510   31.1780   43.6540 O   0  0  0  0  0  0  0  0  0  0  0  0
   55.9540   30.5310   44.1930 O   0  0  0  0  0  0  0  0  0  0  0  0
   57.2580   31.9890   45.9620 N   0  0  0  0  0  0  0  0  0  0  0  0
   58.1650   33.0990   46.0660 C   0  0  0  0  0  0  0  0  0  0  0  0
   58.3900   33.9660   44.9790 C   0  0  0  0  0  0  0  0  0  0  0  0
   59.2660   35.0450   45.1040 C   0  0  0  0  0  0  0  0  0  0  0  0
   59.9280   35.2750   46.3100 C   0  0  0  0  0  0  0  0  0  0  0  0
   59.7130   34.4260   47.3970 C   0  0  0  0  0  0  0  0  0  0  0  0
   58.8290   33.3400   47.2910 C   0  0  0  0  0  0  0  0  0  0  0  0
   58.6430   32.4390   48.4520 C   0  0  0  0  0  0  0  0  0  0  0  0
   57.7040   32.6730   49.2600 O   0  0  0  0  0  0  0  0  0  0  0  0
   59.5050   31.3040   48.6730 N   0  0  0  0  0  0  0  0  0  0  0  0
   60.8780   31.2800   48.1560 C   0  0  0  0  0  0  0  0  0  0  0  0
   61.7820   30.5120   49.1260 C   0  0  0  0  0  0  0  0  0  0  0  0
   61.2380   29.2400   49.4200 O   0  0  0  0  0  0  0  0  0  0  0  0
   60.0190   29.3920   50.1210 C   0  0  0  0  0  0  0  0  0  0  0  0
   58.9630   30.0640   49.2370 C   0  0  0  0  0  0  0  0  0  0  0  0
   57.0330   28.1290   45.5540 C   0  0  0  0  0  0  0  0  0  0  0  0
   54.7680   26.7230   45.1370 H   0  0  0  0  0  0  0  0  0  0  0  0
   59.1273   25.9092   47.0999 H   0  0  0  0  0  0  0  0  0  0  0  0
   60.6692   27.8659   46.9294 H   0  0  0  0  0  0  0  0  0  0  0  0
   59.8787   29.9962   45.8995 H   0  0  0  0  0  0  0  0  0  0  0  0
   57.8715   33.7913   44.0247 H   0  0  0  0  0  0  0  0  0  0  0  0
   59.4350   35.7161   44.2490 H   0  0  0  0  0  0  0  0  0  0  0  0
   60.6194   36.1253   46.4045 H   0  0  0  0  0  0  0  0  0  0  0  0
   60.2405   34.6092   48.3447 H   0  0  0  0  0  0  0  0  0  0  0  0
   60.8904   30.7840   47.1742 H   0  0  0  0  0  0  0  0  0  0  0  0
   61.2467   32.3113   48.0536 H   0  0  0  0  0  0  0  0  0  0  0  0
   62.7741   30.3829   48.6687 H   0  0  0  0  0  0  0  0  0  0  0  0
   61.8629   31.0854   50.0613 H   0  0  0  0  0  0  0  0  0  0  0  0
   59.6540   28.4010   50.4288 H   0  0  0  0  0  0  0  0  0  0  0  0
   60.1959   30.0257   51.0025 H   0  0  0  0  0  0  0  0  0  0  0  0
   58.6832   29.3827   48.4200 H   0  0  0  0  0  0  0  0  0  0  0  0
   58.0760   30.2979   49.8441 H   0  0  0  0  0  0  0  0  0  0  0  0
   56.0116   28.1988   45.1516 H   0  0  0  0  0  0  0  0  0  0  0  0
  1  2  1  0
  2  3  2  0
  2  4  2  0
  2  5  1  0
  5  6  2  0
  6  7  1  0
  7  8  2  0
  8  9  1  0
  9 10  1  0
 10 11  2  0
 10 12  2  0
 10 13  1  0
 13 14  1  0
 14 15  2  0
 15 16  1  0
 16 17  2  0
 17 18  1  0
 18 19  2  0
 19 20  1  0
 20 21  2  0
 20 22  1  0
 22 23  1  0
 23 24  1  0
 24 25  1  0
 25 26  1  0
 26 27  1  0
  9 28  2  0
 28  5  1  0
 19 14  1  0
 27 22  1  0
  1 29  1  0
  6 30  1  0
  7 31  1  0
  8 32  1  0
 15 33  1  0
 16 34  1  0
 17 35  1  0
 18 36  1  0
 23 37  1  0
 23 38  1  0
 24 39  1  0
 24 40  1  0
 26 41  1  0
 26 42  1  0
 27 43  1  0
 27 44  1  0
 28 45  1  0
M  CHG  2   1  -1  13  -1
M  END
>  <UniqueID>  (92) 
85

>  <SMILES>  (92) 
[NH-]S(=O)(=O)c1cccc(S(=O)(=O)[N-]c2ccccc2C(=O)N2CCOCC2)c1

>  <Energy>  (92) 
56.90517080549849

>  <Genealogy>  (92) 
[NH-]S(=O)(=O)c1cccc(S(=O)(=O)[N-]c2ccccc2C(=O)N2CCOCC2)c1 (protonated)
[NH-]S(=O)(=O)c1cccc(S(=O)(=O)[N-]c2ccccc2C(=O)N2CCOCC2)c1 (3D coordinates assigned)
[NH-]S(=O)(=O)c1cccc(S(=O)(=O)[N-]c2ccccc2C(=O)N2CCOCC2)c1 (nonaromatic ring conformer: 56.90517080549849 kcal/mol)

>  <smiles>  (92) 
NS(=O)(=O)c1cccc(S(=O)(=O)Nc2ccccc2C(=O)N2CCOCC2)c1

>  <score_type>  (92) 
oracle

>  <origin>  (92) 
adg

>  <m_score__min__energy>  (92) 
-13.470000000000001

>  <m_primary>  (92) 
energy

$$$$
