0:0
     RDKit          3D

 52 55  0  0  0  0  0  0  0  0999 V2000
   57.6900   25.7730   44.6770 C   0  0  0  0  0  0  0  0  0  0  0  0
   57.0470   26.6680   46.0740 S   0  0  0  0  0  0  0  0  0  0  0  0
   55.8710   27.4920   45.6270 O   0  0  0  0  0  0  0  0  0  0  0  0
   56.5760   25.7050   47.1270 O   0  0  0  0  0  0  0  0  0  0  0  0
   58.3030   27.7290   46.7300 C   0  0  0  0  0  0  0  0  0  0  0  0
   59.3330   27.1580   47.4940 C   0  0  0  0  0  0  0  0  0  0  0  0
   60.3570   27.9510   48.0140 C   0  0  0  0  0  0  0  0  0  0  0  0
   60.3700   29.3340   47.7820 C   0  0  0  0  0  0  0  0  0  0  0  0
   61.4150   30.1660   48.3330 N   0  0  0  0  0  0  0  0  0  0  0  0
   60.8280   31.2980   49.0220 C   0  0  0  0  0  0  0  0  0  0  0  0
   60.1680   31.0400   50.2410 C   0  0  0  0  0  0  0  0  0  0  0  0
   59.2220   31.9260   50.7470 C   0  0  0  0  0  0  0  0  0  0  0  0
   58.8870   33.0690   50.0310 C   0  0  0  0  0  0  0  0  0  0  0  0
   59.5790   33.3960   48.8570 C   0  0  0  0  0  0  0  0  0  0  0  0
   59.2060   34.5390   48.1400 C   0  0  0  0  0  0  0  0  0  0  0  0
   59.9090   34.9140   47.0010 C   0  0  0  0  0  0  0  0  0  0  0  0
   61.0530   34.2150   46.6300 C   0  0  0  0  0  0  0  0  0  0  0  0
   61.4840   33.0940   47.3560 C   0  0  0  0  0  0  0  0  0  0  0  0
   63.1910   32.6520   47.1380 S   0  0  0  0  0  0  0  0  0  0  0  0
   63.9430   32.9340   48.4100 O   0  0  0  0  0  0  0  0  0  0  0  0
   63.7950   33.4630   46.0250 O   0  0  0  0  0  0  0  0  0  0  0  0
   63.3480   31.0130   46.8020 O   0  0  0  0  0  0  0  0  0  0  0  0
   60.6560   32.5770   48.4010 C   0  0  0  0  0  0  0  0  0  0  0  0
   59.3350   29.9100   47.0300 C   0  0  0  0  0  0  0  0  0  0  0  0
   58.3000   29.1220   46.4950 C   0  0  0  0  0  0  0  0  0  0  0  0
   57.2250   29.7510   45.7740 N   0  0  0  0  0  0  0  0  0  0  0  0
   57.4240   30.7380   44.7480 C   0  0  0  0  0  0  0  0  0  0  0  0
   57.9280   32.0000   45.0960 C   0  0  0  0  0  0  0  0  0  0  0  0
   58.1320   32.9770   44.1150 C   0  0  0  0  0  0  0  0  0  0  0  0
   57.8200   32.7040   42.7810 C   0  0  0  0  0  0  0  0  0  0  0  0
   57.2950   31.4590   42.4270 C   0  0  0  0  0  0  0  0  0  0  0  0
   57.0890   30.4790   43.4020 C   0  0  0  0  0  0  0  0  0  0  0  0
   56.5310   29.2950   43.0390 F   0  0  0  0  0  0  0  0  0  0  0  0
   58.2976   24.9273   45.0314 H   0  0  0  0  0  0  0  0  0  0  0  0
   56.8555   25.3952   44.0680 H   0  0  0  0  0  0  0  0  0  0  0  0
   58.3144   26.4432   44.0680 H   0  0  0  0  0  0  0  0  0  0  0  0
   59.3330   26.0747   47.6847 H   0  0  0  0  0  0  0  0  0  0  0  0
   61.1583   27.4887   48.6091 H   0  0  0  0  0  0  0  0  0  0  0  0
   62.0120   29.6260   49.0010 H   0  0  0  0  0  0  0  0  0  0  0  0
   62.0120   30.4410   47.5320 H   0  0  0  0  0  0  0  0  0  0  0  0
   60.4049   30.1234   50.8011 H   0  0  0  0  0  0  0  0  0  0  0  0
   58.7391   31.7217   51.7140 H   0  0  0  0  0  0  0  0  0  0  0  0
   58.0751   33.7200   50.3873 H   0  0  0  0  0  0  0  0  0  0  0  0
   58.3521   35.1436   48.4797 H   0  0  0  0  0  0  0  0  0  0  0  0
   59.5611   35.7626   46.3937 H   0  0  0  0  0  0  0  0  0  0  0  0
   61.6291   34.5463   45.7534 H   0  0  0  0  0  0  0  0  0  0  0  0
   59.3329   30.9961   46.8559 H   0  0  0  0  0  0  0  0  0  0  0  0
   56.2480   29.5820   46.1020 H   0  0  0  0  0  0  0  0  0  0  0  0
   58.1644   32.2231   46.1469 H   0  0  0  0  0  0  0  0  0  0  0  0
   58.5382   33.9603   44.3945 H   0  0  0  0  0  0  0  0  0  0  0  0
   57.9878   33.4696   42.0092 H   0  0  0  0  0  0  0  0  0  0  0  0
   57.0428   31.2491   41.3771 H   0  0  0  0  0  0  0  0  0  0  0  0
  1  2  1  0
  2  3  2  0
  2  4  2  0
  2  5  1  0
  5  6  2  0
  6  7  1  0
  7  8  2  0
  8  9  1  0
  9 10  1  0
 10 11  2  0
 11 12  1  0
 12 13  2  0
 13 14  1  0
 14 15  2  0
 15 16  1  0
 16 17  2  0
 17 18  1  0
 18 19  1  0
 19 20  2  0
 19 21  2  0
 19 22  1  0
 18 23  2  0
  8 24  1  0
 24 25  2  0
 25 26  1  0
 26 27  1  0
 27 28  2  0
 28 29  1  0
 29 30  2  0
 30 31  1  0
 31 32  2  0
 32 33  1  0
 25  5  1  0
 32 27  1  0
 23 10  1  0
 23 14  1  0
  1 34  1  0
  1 35  1  0
  1 36  1  0
  6 37  1  0
  7 38  1  0
  9 39  1  0
  9 40  1  0
 11 41  1  0
 12 42  1  0
 13 43  1  0
 15 44  1  0
 16 45  1  0
 17 46  1  0
 24 47  1  0
 26 48  1  0
 28 49  1  0
 29 50  1  0
 30 51  1  0
 31 52  1  0
M  CHG  2   9   1  22  -1
M  END
>  <UniqueID>  (1) 
1

>  <SMILES>  (1) 
CS(=O)(=O)c1ccc([NH2+]c2cccc3cccc(S(=O)(=O)[O-])c23)cc1Nc1ccccc1F

>  <Energy>  (1) 
87.7572159850273

>  <Genealogy>  (1) 
CS(=O)(=O)c1ccc([NH2+]c2cccc3cccc(S(=O)(=O)[O-])c23)cc1Nc1ccccc1F (protonated)
CS(=O)(=O)c1ccc([NH2+]c2cccc3cccc(S(=O)(=O)[O-])c23)cc1Nc1ccccc1F (3D coordinates assigned)
CS(=O)(=O)c1ccc([NH2+]c2cccc3cccc(S(=O)(=O)[O-])c23)cc1Nc1ccccc1F (optimized conformer: 87.7572159850273 kcal/mol)

>  <smiles>  (1) 
CS(=O)(=O)c1ccc(Nc2cccc3cccc(S(=O)(=O)O)c23)cc1Nc1ccccc1F

>  <score_type>  (1) 
oracle

>  <origin>  (1) 
adg

>  <m_score__min__energy>  (1) 
-9.6199999999999992

>  <m_primary>  (1) 
energy

$$$$
1:0
     RDKit          3D

 43 45  0  0  0  0  0  0  0  0999 V2000
   55.2950   29.6750   44.8730 O   0  0  0  0  0  0  0  0  0  0  0  0
   56.5320   29.4400   44.9100 C   0  0  0  0  0  0  0  0  0  0  0  0
   56.9930   28.1270   44.5650 N   0  0  0  0  0  0  0  0  0  0  0  0
   57.9190   27.3260   45.3180 C   0  0  0  0  0  0  0  0  0  0  0  0
   59.2980   27.6130   45.2740 C   0  0  0  0  0  0  0  0  0  0  0  0
   60.2100   26.8300   45.9820 C   0  0  0  0  0  0  0  0  0  0  0  0
   59.7630   25.7420   46.7270 C   0  0  0  0  0  0  0  0  0  0  0  0
   58.4040   25.4270   46.7630 C   0  0  0  0  0  0  0  0  0  0  0  0
   57.4620   26.2060   46.0590 C   0  0  0  0  0  0  0  0  0  0  0  0
   56.0220   25.8370   46.1320 C   0  0  0  0  0  0  0  0  0  0  0  0
   55.1330   26.7190   45.9860 O   0  0  0  0  0  0  0  0  0  0  0  0
   55.6230   24.5250   46.3520 O   0  0  0  0  0  0  0  0  0  0  0  0
   57.4600   30.5060   45.3550 C   0  0  0  0  0  0  0  0  0  0  0  0
   58.1700   30.3650   46.5600 C   0  0  0  0  0  0  0  0  0  0  0  0
   59.0350   31.3740   46.9920 C   0  0  0  0  0  0  0  0  0  0  0  0
   59.2150   32.5290   46.2220 C   0  0  0  0  0  0  0  0  0  0  0  0
   60.2800   33.8080   46.8000 S   0  0  0  0  0  0  0  0  0  0  0  0
   60.0580   35.0330   45.9560 O   0  0  0  0  0  0  0  0  0  0  0  0
   59.9500   34.1440   48.2290 O   0  0  0  0  0  0  0  0  0  0  0  0
   61.9480   33.2940   46.6700 N   0  0  0  0  0  0  0  0  0  0  0  0
   62.8150   34.0900   47.5480 C   0  0  0  0  0  0  0  0  0  0  0  0
   62.9530   33.3390   48.8650 C   0  0  0  0  0  0  0  0  0  0  0  0
   62.4890   31.9200   48.5800 C   0  0  0  0  0  0  0  0  0  0  0  0
   62.1100   31.9010   47.1060 C   0  0  0  0  0  0  0  0  0  0  0  0
   58.5240   32.6660   45.0110 C   0  0  0  0  0  0  0  0  0  0  0  0
   57.6580   31.6600   44.5770 C   0  0  0  0  0  0  0  0  0  0  0  0
   59.6587   28.4626   44.6756 H   0  0  0  0  0  0  0  0  0  0  0  0
   61.2826   27.0722   45.9517 H   0  0  0  0  0  0  0  0  0  0  0  0
   60.4831   25.1290   47.2888 H   0  0  0  0  0  0  0  0  0  0  0  0
   58.0629   24.5601   47.3479 H   0  0  0  0  0  0  0  0  0  0  0  0
   58.0441   29.4557   47.1661 H   0  0  0  0  0  0  0  0  0  0  0  0
   59.5773   31.2600   47.9422 H   0  0  0  0  0  0  0  0  0  0  0  0
   62.2480   33.3990   45.6730 H   0  0  0  0  0  0  0  0  0  0  0  0
   63.8040   34.2167   47.0834 H   0  0  0  0  0  0  0  0  0  0  0  0
   62.3823   35.0872   47.7162 H   0  0  0  0  0  0  0  0  0  0  0  0
   64.0010   33.3400   49.1991 H   0  0  0  0  0  0  0  0  0  0  0  0
   62.3592   33.8076   49.6637 H   0  0  0  0  0  0  0  0  0  0  0  0
   63.3004   31.2039   48.7770 H   0  0  0  0  0  0  0  0  0  0  0  0
   61.6429   31.6321   49.2213 H   0  0  0  0  0  0  0  0  0  0  0  0
   62.9046   31.4150   46.5208 H   0  0  0  0  0  0  0  0  0  0  0  0
   61.1769   31.3384   46.9548 H   0  0  0  0  0  0  0  0  0  0  0  0
   58.6641   33.5696   44.3995 H   0  0  0  0  0  0  0  0  0  0  0  0
   57.1273   31.7714   43.6200 H   0  0  0  0  0  0  0  0  0  0  0  0
  1  2  2  0
  2  3  1  0
  3  4  1  0
  4  5  2  0
  5  6  1  0
  6  7  2  0
  7  8  1  0
  8  9  2  0
  9 10  1  0
 10 11  2  0
 10 12  1  0
  2 13  1  0
 13 14  2  0
 14 15  1  0
 15 16  2  0
 16 17  1  0
 17 18  2  0
 17 19  2  0
 17 20  1  0
 20 21  1  0
 21 22  1  0
 22 23  1  0
 23 24  1  0
 16 25  1  0
 25 26  2  0
  9  4  1  0
 26 13  1  0
 24 20  1  0
  5 27  1  0
  6 28  1  0
  7 29  1  0
  8 30  1  0
 14 31  1  0
 15 32  1  0
 20 33  1  0
 21 34  1  0
 21 35  1  0
 22 36  1  0
 22 37  1  0
 23 38  1  0
 23 39  1  0
 24 40  1  0
 24 41  1  0
 25 42  1  0
 26 43  1  0
M  CHG  3   3  -1  12  -1  20   1
M  END
>  <UniqueID>  (2) 
2

>  <SMILES>  (2) 
O=C([N-]c1ccccc1C(=O)[O-])c1ccc(S(=O)(=O)[NH+]2CCCC2)cc1

>  <Energy>  (2) 
55.454065750165036

>  <Genealogy>  (2) 
O=C([N-]c1ccccc1C(=O)[O-])c1ccc(S(=O)(=O)[NH+]2CCCC2)cc1 (protonated)
O=C([N-]c1ccccc1C(=O)[O-])c1ccc(S(=O)(=O)[NH+]2CCCC2)cc1 (3D coordinates assigned)
O=C([N-]c1ccccc1C(=O)[O-])c1ccc(S(=O)(=O)[NH+]2CCCC2)cc1 (nonaromatic ring conformer: 55.454065750165036 kcal/mol)

>  <smiles>  (2) 
O=C(Nc1ccccc1C(=O)O)c1ccc(S(=O)(=O)N2CCCC2)cc1

>  <score_type>  (2) 
oracle

>  <origin>  (2) 
adg

>  <m_score__min__energy>  (2) 
-12.029999999999999

>  <m_primary>  (2) 
energy

$$$$
2:0
     RDKit          3D

 31 33  0  0  0  0  0  0  0  0999 V2000
   57.3550   26.0890   47.1260 O   0  0  0  0  0  0  0  0  0  0  0  0
   57.2670   27.2180   46.5690 C   0  0  0  0  0  0  0  0  0  0  0  0
   58.3110   28.1570   46.6930 C   0  0  0  0  0  0  0  0  0  0  0  0
   59.4740   27.8790   47.4350 C   0  0  0  0  0  0  0  0  0  0  0  0
   60.4890   28.8340   47.5390 C   0  0  0  0  0  0  0  0  0  0  0  0
   60.3660   30.0750   46.8980 C   0  0  0  0  0  0  0  0  0  0  0  0
   61.4460   31.1140   47.0460 C   0  0  0  0  0  0  0  0  0  0  0  0
   60.8340   32.4660   47.2970 C   0  0  0  0  0  0  0  0  0  0  0  0
   60.4050   32.8210   48.5860 C   0  0  0  0  0  0  0  0  0  0  0  0
   59.8030   34.0640   48.8110 C   0  0  0  0  0  0  0  0  0  0  0  0
   59.6190   34.9540   47.7490 C   0  0  0  0  0  0  0  0  0  0  0  0
   60.0310   34.6030   46.4610 C   0  0  0  0  0  0  0  0  0  0  0  0
   60.6330   33.3610   46.2320 C   0  0  0  0  0  0  0  0  0  0  0  0
   59.2050   30.3640   46.1640 C   0  0  0  0  0  0  0  0  0  0  0  0
   58.1800   29.4110   46.0550 C   0  0  0  0  0  0  0  0  0  0  0  0
   57.0230   29.6930   45.3210 C   0  0  0  0  0  0  0  0  0  0  0  0
   56.0160   28.7340   45.2250 C   0  0  0  0  0  0  0  0  0  0  0  0
   54.8670   29.0180   44.4940 O   0  0  0  0  0  0  0  0  0  0  0  0
   56.1530   27.5260   45.8430 N   0  0  0  0  0  0  0  0  0  0  0  0
   55.1400   26.5980   45.7300 O   0  0  0  0  0  0  0  0  0  0  0  0
   59.5846   26.9057   47.9354 H   0  0  0  0  0  0  0  0  0  0  0  0
   61.3908   28.6105   48.1279 H   0  0  0  0  0  0  0  0  0  0  0  0
   62.0949   30.8458   47.8927 H   0  0  0  0  0  0  0  0  0  0  0  0
   62.0365   31.1533   46.1188 H   0  0  0  0  0  0  0  0  0  0  0  0
   60.5426   32.1194   49.4220 H   0  0  0  0  0  0  0  0  0  0  0  0
   59.4746   34.3407   49.8237 H   0  0  0  0  0  0  0  0  0  0  0  0
   59.1490   35.9324   47.9276 H   0  0  0  0  0  0  0  0  0  0  0  0
   59.8819   35.3037   45.6263 H   0  0  0  0  0  0  0  0  0  0  0  0
   60.9499   33.0842   45.2157 H   0  0  0  0  0  0  0  0  0  0  0  0
   59.0978   31.3419   45.6718 H   0  0  0  0  0  0  0  0  0  0  0  0
   56.9085   30.6666   44.8221 H   0  0  0  0  0  0  0  0  0  0  0  0
  1  2  2  0
  2  3  1  0
  3  4  2  0
  4  5  1  0
  5  6  2  0
  6  7  1  0
  7  8  1  0
  8  9  2  0
  9 10  1  0
 10 11  2  0
 11 12  1  0
 12 13  2  0
  6 14  1  0
 14 15  2  0
 15 16  1  0
 16 17  2  0
 17 18  1  0
 17 19  1  0
 19 20  1  0
 19  2  1  0
 15  3  1  0
 13  8  1  0
  4 21  1  0
  5 22  1  0
  7 23  1  0
  7 24  1  0
  9 25  1  0
 10 26  1  0
 11 27  1  0
 12 28  1  0
 13 29  1  0
 14 30  1  0
 16 31  1  0
M  CHG  2  18  -1  20  -1
M  END
>  <UniqueID>  (3) 
3

>  <SMILES>  (3) 
O=c1c2ccc(Cc3ccccc3)cc2cc([O-])n1[O-]

>  <Energy>  (3) 
37.87158868214734

>  <Genealogy>  (3) 
O=c1c2ccc(Cc3ccccc3)cc2cc([O-])n1[O-] (protonated)
O=c1c2ccc(Cc3ccccc3)cc2cc([O-])n1[O-] (3D coordinates assigned)
O=c1c2ccc(Cc3ccccc3)cc2cc([O-])n1[O-] (optimized conformer: 37.87158868214734 kcal/mol)

>  <smiles>  (3) 
O=c1c2ccc(Cc3ccccc3)cc2cc(O)n1O

>  <score_type>  (3) 
oracle

>  <origin>  (3) 
adg

>  <m_score__min__energy>  (3) 
-13.81

>  <m_primary>  (3) 
energy

$$$$
3:0
     RDKit          3D

 53 57  0  0  0  0  0  0  0  0999 V2000
   55.5860   24.3340   47.0200 O   0  0  0  0  0  0  0  0  0  0  0  0
   56.7110   24.4740   46.4690 C   0  0  0  0  0  0  0  0  0  0  0  0
   57.3860   23.2970   45.9950 N   0  0  0  0  0  0  0  0  0  0  0  0
   57.6640   22.9650   44.6010 C   0  0  0  0  0  0  0  0  0  0  0  0
   57.3030   21.5350   44.2790 C   0  0  0  0  0  0  0  0  0  0  0  0
   56.2380   21.9210   43.4390 O   0  0  0  0  0  0  0  0  0  0  0  0
   56.5050   23.2820   43.6840 C   0  0  0  0  0  0  0  0  0  0  0  0
   57.2690   25.8350   46.3230 C   0  0  0  0  0  0  0  0  0  0  0  0
   57.0370   26.6820   45.2490 C   0  0  0  0  0  0  0  0  0  0  0  0
   57.7840   27.8110   45.5510 C   0  0  0  0  0  0  0  0  0  0  0  0
   57.9670   28.8620   44.8030 N   0  0  0  0  0  0  0  0  0  0  0  0
   57.2000   30.0740   44.7570 C   0  0  0  0  0  0  0  0  0  0  0  0
   55.9570   30.0390   44.5400 O   0  0  0  0  0  0  0  0  0  0  0  0
   57.8500   31.3770   45.0490 C   0  0  0  0  0  0  0  0  0  0  0  0
   58.2830   31.6380   46.3630 C   0  0  0  0  0  0  0  0  0  0  0  0
   58.9060   32.8510   46.6970 C   0  0  0  0  0  0  0  0  0  0  0  0
   59.3470   33.0690   48.0940 C   0  0  0  0  0  0  0  0  0  0  0  0
   60.6070   33.6280   48.3620 C   0  0  0  0  0  0  0  0  0  0  0  0
   60.9980   33.8360   49.6850 C   0  0  0  0  0  0  0  0  0  0  0  0
   60.1340   33.4960   50.7270 C   0  0  0  0  0  0  0  0  0  0  0  0
   60.5000   33.7000   52.0160 F   0  0  0  0  0  0  0  0  0  0  0  0
   58.8840   32.9500   50.4280 C   0  0  0  0  0  0  0  0  0  0  0  0
   58.5150   32.7540   49.1300 N   0  0  0  0  0  0  0  0  0  0  0  0
   59.1140   33.8200   45.6950 C   0  0  0  0  0  0  0  0  0  0  0  0
   59.9620   35.3310   46.0160 Cl  0  0  0  0  0  0  0  0  0  0  0  0
   58.6820   33.5720   44.3910 C   0  0  0  0  0  0  0  0  0  0  0  0
   58.0480   32.3690   44.0580 C   0  0  0  0  0  0  0  0  0  0  0  0
   57.4780   32.1970   42.3990 Cl  0  0  0  0  0  0  0  0  0  0  0  0
   58.4000   27.6320   46.7410 N   0  0  0  0  0  0  0  0  0  0  0  0
   59.2810   28.5410   47.4300 C   0  0  0  0  0  0  0  0  0  0  0  0
   59.1630   28.7590   48.8160 C   0  0  0  0  0  0  0  0  0  0  0  0
   60.0370   29.6370   49.4710 C   0  0  0  0  0  0  0  0  0  0  0  0
   61.0410   30.2920   48.7520 C   0  0  0  0  0  0  0  0  0  0  0  0
   61.1770   30.0670   47.3800 C   0  0  0  0  0  0  0  0  0  0  0  0
   60.3040   29.1940   46.7220 C   0  0  0  0  0  0  0  0  0  0  0  0
   58.0940   26.4310   47.2080 N   0  0  0  0  0  0  0  0  0  0  0  0
   58.6705   23.3941   44.4874 H   0  0  0  0  0  0  0  0  0  0  0  0
   58.1004   20.9897   43.7529 H   0  0  0  0  0  0  0  0  0  0  0  0
   57.1023   20.8381   45.1060 H   0  0  0  0  0  0  0  0  0  0  0  0
   56.7993   23.8399   42.7828 H   0  0  0  0  0  0  0  0  0  0  0  0
   55.6933   23.9248   44.0555 H   0  0  0  0  0  0  0  0  0  0  0  0
   56.4080   26.5007   44.3650 H   0  0  0  0  0  0  0  0  0  0  0  0
   58.1303   30.8772   47.1426 H   0  0  0  0  0  0  0  0  0  0  0  0
   61.2802   33.8997   47.5356 H   0  0  0  0  0  0  0  0  0  0  0  0
   61.9854   34.2672   49.9064 H   0  0  0  0  0  0  0  0  0  0  0  0
   58.1955   32.6774   51.2414 H   0  0  0  0  0  0  0  0  0  0  0  0
   57.5750   32.3410   48.9360 H   0  0  0  0  0  0  0  0  0  0  0  0
   58.8421   34.3333   43.6133 H   0  0  0  0  0  0  0  0  0  0  0  0
   58.3810   28.2376   49.3874 H   0  0  0  0  0  0  0  0  0  0  0  0
   59.9329   29.8110   50.5522 H   0  0  0  0  0  0  0  0  0  0  0  0
   61.7237   30.9843   49.2664 H   0  0  0  0  0  0  0  0  0  0  0  0
   61.9718   30.5771   46.8161 H   0  0  0  0  0  0  0  0  0  0  0  0
   60.4193   29.0175   45.6424 H   0  0  0  0  0  0  0  0  0  0  0  0
  1  2  2  0
  2  3  1  0
  3  4  1  0
  4  5  1  0
  5  6  1  0
  6  7  1  0
  2  8  1  0
  8  9  2  0
  9 10  1  0
 10 11  2  3
 11 12  1  0
 12 13  2  0
 12 14  1  0
 14 15  2  0
 15 16  1  0
 16 17  1  0
 17 18  2  0
 18 19  1  0
 19 20  2  0
 20 21  1  0
 20 22  1  0
 22 23  2  0
 16 24  2  0
 24 25  1  0
 24 26  1  0
 26 27  2  0
 27 28  1  0
 10 29  1  0
 29 30  1  0
 30 31  2  0
 31 32  1  0
 32 33  2  0
 33 34  1  0
 34 35  2  0
 29 36  1  0
  7  4  1  0
 36  8  1  0
 27 14  1  0
 35 30  1  0
 23 17  1  0
  4 37  1  0
  5 38  1  0
  5 39  1  0
  7 40  1  0
  7 41  1  0
  9 42  1  0
 15 43  1  0
 18 44  1  0
 19 45  1  0
 22 46  1  0
 23 47  1  0
 26 48  1  0
 31 49  1  0
 32 50  1  0
 33 51  1  0
 34 52  1  0
 35 53  1  0
M  CHG  3   3  -1  23   1  36  -1
M  END
>  <UniqueID>  (4) 
4

>  <SMILES>  (4) 
O=C([N-]C1COC1)c1cc(=NC(=O)c2cc(-c3ccc(F)c[nH+]3)c(Cl)cc2Cl)n(-c2ccccc2)[n-]1

>  <Energy>  (4) 
172.81838196370455

>  <Genealogy>  (4) 
O=C([N-]C1COC1)c1cc(=NC(=O)c2cc(-c3ccc(F)c[nH+]3)c(Cl)cc2Cl)n(-c2ccccc2)[n-]1 (protonated)
O=C([N-]C1COC1)c1cc(=NC(=O)c2cc(-c3ccc(F)c[nH+]3)c(Cl)cc2Cl)n(-c2ccccc2)[n-]1 (3D coordinates assigned)
O=C([N-]C1COC1)c1cc(=NC(=O)c2cc(-c3ccc(F)c[nH+]3)c(Cl)cc2Cl)n(-c2ccccc2)[n-]1 (nonaromatic ring conformer: 172.81838196370455 kcal/mol)

>  <smiles>  (4) 
O=C(NC1COC1)c1cc(=NC(=O)c2cc(-c3ccc(F)cn3)c(Cl)cc2Cl)n(-c2ccccc2)[nH]1

>  <score_type>  (4) 
oracle

>  <origin>  (4) 
adg

>  <m_score__min__energy>  (4) 
-11.82

>  <m_primary>  (4) 
energy

$$$$
4:0
     RDKit          3D

 52 55  0  0  0  0  0  0  0  0999 V2000
   59.6000   28.6040   52.9710 C   0  0  0  0  0  0  0  0  0  0  0  0
   59.4810   29.7640   51.6220 S   0  0  0  0  0  0  0  0  0  0  0  0
   58.0740   29.7260   51.0990 O   0  0  0  0  0  0  0  0  0  0  0  0
   59.7880   31.1550   52.0970 O   0  0  0  0  0  0  0  0  0  0  0  0
   60.5640   29.3180   50.3380 N   0  0  0  0  0  0  0  0  0  0  0  0
   60.1740   29.1630   48.9590 C   0  0  0  0  0  0  0  0  0  0  0  0
   60.9660   29.7460   47.9640 C   0  0  0  0  0  0  0  0  0  0  0  0
   60.6250   29.6120   46.6180 C   0  0  0  0  0  0  0  0  0  0  0  0
   59.4810   28.8880   46.2300 C   0  0  0  0  0  0  0  0  0  0  0  0
   58.6630   28.2820   47.2230 C   0  0  0  0  0  0  0  0  0  0  0  0
   59.0400   28.4180   48.5770 C   0  0  0  0  0  0  0  0  0  0  0  0
   57.4480   27.3910   46.9380 C   0  0  0  0  0  0  0  0  0  0  0  0
   56.7270   27.6250   45.6830 N   0  0  0  0  0  0  0  0  0  0  0  0
   56.6240   28.8760   45.0090 C   0  0  0  0  0  0  0  0  0  0  0  0
   55.4870   29.3020   44.6560 O   0  0  0  0  0  0  0  0  0  0  0  0
   57.8110   29.5940   44.6570 N   0  0  0  0  0  0  0  0  0  0  0  0
   57.7990   31.0290   44.6090 C   0  0  0  0  0  0  0  0  0  0  0  0
   57.7420   31.6870   43.3730 C   0  0  0  0  0  0  0  0  0  0  0  0
   57.7850   33.0830   43.3200 C   0  0  0  0  0  0  0  0  0  0  0  0
   57.9080   33.8280   44.5000 C   0  0  0  0  0  0  0  0  0  0  0  0
   57.9810   33.1800   45.7480 C   0  0  0  0  0  0  0  0  0  0  0  0
   58.2010   33.9810   47.0080 C   0  0  0  0  0  0  0  0  0  0  0  0
   59.6120   33.7790   47.5140 C   0  0  0  0  0  0  0  0  0  0  0  0
   59.8460   33.6040   48.8880 C   0  0  0  0  0  0  0  0  0  0  0  0
   61.1550   33.4660   49.3700 C   0  0  0  0  0  0  0  0  0  0  0  0
   62.2400   33.5090   48.4880 C   0  0  0  0  0  0  0  0  0  0  0  0
   62.0170   33.6900   47.1210 C   0  0  0  0  0  0  0  0  0  0  0  0
   60.7100   33.8260   46.6320 C   0  0  0  0  0  0  0  0  0  0  0  0
   57.9210   31.7770   45.7960 C   0  0  0  0  0  0  0  0  0  0  0  0
   58.0090   31.1340   46.9900 F   0  0  0  0  0  0  0  0  0  0  0  0
   59.0870   28.8940   44.7800 C   0  0  0  0  0  0  0  0  0  0  0  0
   59.5444   29.1460   53.9266 H   0  0  0  0  0  0  0  0  0  0  0  0
   58.7710   27.8836   52.9093 H   0  0  0  0  0  0  0  0  0  0  0  0
   60.5580   28.0669   52.9093 H   0  0  0  0  0  0  0  0  0  0  0  0
   61.5760   29.2130   50.5960 H   0  0  0  0  0  0  0  0  0  0  0  0
   61.8647   30.3145   48.2452 H   0  0  0  0  0  0  0  0  0  0  0  0
   61.2584   30.0783   45.8490 H   0  0  0  0  0  0  0  0  0  0  0  0
   58.4330   27.9299   49.3538 H   0  0  0  0  0  0  0  0  0  0  0  0
   57.7969   26.3478   46.9300 H   0  0  0  0  0  0  0  0  0  0  0  0
   56.7251   27.6340   47.7307 H   0  0  0  0  0  0  0  0  0  0  0  0
   57.6633   31.1041   42.4435 H   0  0  0  0  0  0  0  0  0  0  0  0
   57.7221   33.5977   42.3499 H   0  0  0  0  0  0  0  0  0  0  0  0
   57.9478   34.9262   44.4513 H   0  0  0  0  0  0  0  0  0  0  0  0
   58.0410   35.0479   46.7932 H   0  0  0  0  0  0  0  0  0  0  0  0
   57.4913   33.6430   47.7774 H   0  0  0  0  0  0  0  0  0  0  0  0
   58.9985   33.5751   49.5886 H   0  0  0  0  0  0  0  0  0  0  0  0
   61.3299   33.3233   50.4466 H   0  0  0  0  0  0  0  0  0  0  0  0
   63.2659   33.4006   48.8699 H   0  0  0  0  0  0  0  0  0  0  0  0
   62.8691   33.7259   46.4263 H   0  0  0  0  0  0  0  0  0  0  0  0
   60.5409   33.9701   45.5547 H   0  0  0  0  0  0  0  0  0  0  0  0
   58.9812   27.8605   44.4186 H   0  0  0  0  0  0  0  0  0  0  0  0
   59.8573   29.3994   44.1789 H   0  0  0  0  0  0  0  0  0  0  0  0
  1  2  1  0
  2  3  2  0
  2  4  2  0
  2  5  1  0
  5  6  1  0
  6  7  2  0
  7  8  1  0
  8  9  2  0
  9 10  1  0
 10 11  2  0
 10 12  1  0
 12 13  1  0
 13 14  1  0
 14 15  2  0
 14 16  1  0
 16 17  1  0
 17 18  2  0
 18 19  1  0
 19 20  2  0
 20 21  1  0
 21 22  1  0
 22 23  1  0
 23 24  2  0
 24 25  1  0
 25 26  2  0
 26 27  1  0
 27 28  2  0
 21 29  2  0
 29 30  1  0
 16 31  1  0
 11  6  1  0
 29 17  1  0
 31  9  1  0
 28 23  1  0
  1 32  1  0
  1 33  1  0
  1 34  1  0
  5 35  1  0
  7 36  1  0
  8 37  1  0
 11 38  1  0
 12 39  1  0
 12 40  1  0
 18 41  1  0
 19 42  1  0
 20 43  1  0
 22 44  1  0
 22 45  1  0
 24 46  1  0
 25 47  1  0
 26 48  1  0
 27 49  1  0
 28 50  1  0
 31 51  1  0
 31 52  1  0
M  CHG  1  13  -1
M  END
>  <UniqueID>  (5) 
5

>  <SMILES>  (5) 
CS(=O)(=O)Nc1ccc2c(c1)C[N-]C(=O)N(c1cccc(Cc3ccccc3)c1F)C2

>  <Energy>  (5) 
71.66788749779792

>  <Genealogy>  (5) 
CS(=O)(=O)Nc1ccc2c(c1)C[N-]C(=O)N(c1cccc(Cc3ccccc3)c1F)C2 (protonated)
CS(=O)(=O)Nc1ccc2c(c1)C[N-]C(=O)N(c1cccc(Cc3ccccc3)c1F)C2 (3D coordinates assigned)
CS(=O)(=O)Nc1ccc2c(c1)C[N-]C(=O)N(c1cccc(Cc3ccccc3)c1F)C2 (nonaromatic ring conformer: 71.66788749779792 kcal/mol)

>  <smiles>  (5) 
CS(=O)(=O)Nc1ccc2c(c1)CNC(=O)N(c1cccc(Cc3ccccc3)c1F)C2

>  <score_type>  (5) 
oracle

>  <origin>  (5) 
adg

>  <m_score__min__energy>  (5) 
-10.630000000000001

>  <m_primary>  (5) 
energy

$$$$
5:0
     RDKit          3D

 69 72  0  0  0  0  0  0  0  0999 V2000
   54.2450   30.5230   51.9210 C   0  0  0  0  0  0  0  0  0  0  0  0
   55.3640   29.6600   52.4920 C   0  0  0  0  0  0  0  0  0  0  0  0
   56.6270   30.0770   51.9770 O   0  0  0  0  0  0  0  0  0  0  0  0
   57.4710   30.9730   52.6450 C   0  0  0  0  0  0  0  0  0  0  0  0
   57.7380   30.8040   53.8680 O   0  0  0  0  0  0  0  0  0  0  0  0
   58.0260   32.0970   51.9290 N   0  0  0  0  0  0  0  0  0  0  0  0
   57.7610   31.9790   50.4700 C   0  0  0  0  0  0  0  0  0  0  0  0
   58.9240   31.3360   49.7020 C   0  0  0  0  0  0  0  0  0  0  0  0
   60.1780   32.0560   49.9560 N   0  0  0  0  0  0  0  0  0  0  0  0
   61.2900   31.9810   49.0360 C   0  0  0  0  0  0  0  0  0  0  0  0
   62.2440   32.7990   49.1420 O   0  0  0  0  0  0  0  0  0  0  0  0
   61.3440   30.9740   47.9160 C   0  0  0  0  0  0  0  0  0  0  0  0
   60.9010   31.5290   46.6770 O   0  0  0  0  0  0  0  0  0  0  0  0
   59.6320   32.0780   46.4180 C   0  0  0  0  0  0  0  0  0  0  0  0
   59.2580   33.3250   46.9610 C   0  0  0  0  0  0  0  0  0  0  0  0
   58.0100   33.8800   46.6810 C   0  0  0  0  0  0  0  0  0  0  0  0
   57.1090   33.2030   45.8670 C   0  0  0  0  0  0  0  0  0  0  0  0
   57.4420   31.9590   45.3280 C   0  0  0  0  0  0  0  0  0  0  0  0
   56.5490   31.3340   44.5680 O   0  0  0  0  0  0  0  0  0  0  0  0
   56.7730   30.1460   44.0250 C   0  0  0  0  0  0  0  0  0  0  0  0
   55.8850   29.6100   43.3120 O   0  0  0  0  0  0  0  0  0  0  0  0
   57.9800   29.4890   44.2430 C   0  0  0  0  0  0  0  0  0  0  0  0
   58.9640   30.0930   45.0350 C   0  0  0  0  0  0  0  0  0  0  0  0
   60.2190   29.3420   45.2580 C   0  0  0  0  0  0  0  0  0  0  0  0
   60.2560   28.0430   45.5890 C   0  0  0  0  0  0  0  0  0  0  0  0
   59.0590   27.2160   45.8510 C   0  0  0  0  0  0  0  0  0  0  0  0
   58.1580   27.6080   46.8470 C   0  0  0  0  0  0  0  0  0  0  0  0
   57.0230   26.8390   47.1140 C   0  0  0  0  0  0  0  0  0  0  0  0
   56.7630   25.6690   46.3740 C   0  0  0  0  0  0  0  0  0  0  0  0
   55.6370   24.8670   46.6200 O   0  0  0  0  0  0  0  0  0  0  0  0
   55.6880   23.5410   47.1340 C   0  0  0  0  0  0  0  0  0  0  0  0
   57.6470   25.2840   45.3550 C   0  0  0  0  0  0  0  0  0  0  0  0
   57.3670   24.1150   44.6310 O   0  0  0  0  0  0  0  0  0  0  0  0
   56.6440   24.0800   43.4030 C   0  0  0  0  0  0  0  0  0  0  0  0
   58.7820   26.0700   45.0870 C   0  0  0  0  0  0  0  0  0  0  0  0
   58.7090   31.3750   45.5940 C   0  0  0  0  0  0  0  0  0  0  0  0
   60.2740   32.9010   51.1540 C   0  0  0  0  0  0  0  0  0  0  0  0
   59.4590   32.2750   52.2900 C   0  0  0  0  0  0  0  0  0  0  0  0
   53.6681   30.9679   52.7452 H   0  0  0  0  0  0  0  0  0  0  0  0
   54.6781   31.3232   51.3029 H   0  0  0  0  0  0  0  0  0  0  0  0
   53.5811   29.9008   51.3029 H   0  0  0  0  0  0  0  0  0  0  0  0
   55.3707   29.7541   53.5879 H   0  0  0  0  0  0  0  0  0  0  0  0
   55.1894   28.6131   52.2030 H   0  0  0  0  0  0  0  0  0  0  0  0
   57.5150   32.9520   52.2580 H   0  0  0  0  0  0  0  0  0  0  0  0
   56.8614   31.3627   50.3253 H   0  0  0  0  0  0  0  0  0  0  0  0
   57.6274   32.9970   50.0753 H   0  0  0  0  0  0  0  0  0  0  0  0
   59.0362   30.2909   50.0262 H   0  0  0  0  0  0  0  0  0  0  0  0
   58.7033   31.3813   48.6253 H   0  0  0  0  0  0  0  0  0  0  0  0
   62.3815   30.6275   47.7994 H   0  0  0  0  0  0  0  0  0  0  0  0
   60.6736   30.1411   48.1747 H   0  0  0  0  0  0  0  0  0  0  0  0
   59.9594   33.8661   47.6132 H   0  0  0  0  0  0  0  0  0  0  0  0
   57.7372   34.8573   47.1058 H   0  0  0  0  0  0  0  0  0  0  0  0
   56.1284   33.6499   45.6464 H   0  0  0  0  0  0  0  0  0  0  0  0
   58.1602   28.5004   43.7955 H   0  0  0  0  0  0  0  0  0  0  0  0
   61.1731   29.8780   45.1463 H   0  0  0  0  0  0  0  0  0  0  0  0
   61.2415   27.5613   45.6709 H   0  0  0  0  0  0  0  0  0  0  0  0
   58.3444   28.5265   47.4228 H   0  0  0  0  0  0  0  0  0  0  0  0
   56.3274   27.1492   47.9076 H   0  0  0  0  0  0  0  0  0  0  0  0
   55.6867   23.5737   48.2335 H   0  0  0  0  0  0  0  0  0  0  0  0
   54.8109   22.9777   46.7829 H   0  0  0  0  0  0  0  0  0  0  0  0
   56.6058   23.0467   46.7829 H   0  0  0  0  0  0  0  0  0  0  0  0
   55.5656   24.0278   43.6138 H   0  0  0  0  0  0  0  0  0  0  0  0
   56.8608   24.9897   42.8238 H   0  0  0  0  0  0  0  0  0  0  0  0
   56.9476   23.1955   42.8238 H   0  0  0  0  0  0  0  0  0  0  0  0
   59.4606   25.7842   44.2698 H   0  0  0  0  0  0  0  0  0  0  0  0
   61.3271   32.9830   51.4609 H   0  0  0  0  0  0  0  0  0  0  0  0
   59.8777   33.9020   50.9282 H   0  0  0  0  0  0  0  0  0  0  0  0
   59.8873   31.2910   52.5314 H   0  0  0  0  0  0  0  0  0  0  0  0
   59.5056   32.9573   53.1516 H   0  0  0  0  0  0  0  0  0  0  0  0
  1  2  1  0
  2  3  1  0
  3  4  1  0
  4  5  2  0
  4  6  1  0
  6  7  1  0
  7  8  1  0
  8  9  1  0
  9 10  1  0
 10 11  2  0
 10 12  1  0
 12 13  1  0
 13 14  1  0
 14 15  2  0
 15 16  1  0
 16 17  2  0
 17 18  1  0
 18 19  1  0
 19 20  1  0
 20 21  2  0
 20 22  1  0
 22 23  2  0
 23 24  1  0
 24 25  2  3
 25 26  1  0
 26 27  2  0
 27 28  1  0
 28 29  2  0
 29 30  1  0
 30 31  1  0
 29 32  1  0
 32 33  1  0
 33 34  1  0
 32 35  2  0
 23 36  1  0
  9 37  1  0
 37 38  1  0
 38  6  1  0
 36 14  1  0
 36 18  2  0
 35 26  1  0
  1 39  1  0
  1 40  1  0
  1 41  1  0
  2 42  1  0
  2 43  1  0
  6 44  1  0
  7 45  1  0
  7 46  1  0
  8 47  1  0
  8 48  1  0
 12 49  1  0
 12 50  1  0
 15 51  1  0
 16 52  1  0
 17 53  1  0
 22 54  1  0
 24 55  1  0
 25 56  1  0
 27 57  1  0
 28 58  1  0
 31 59  1  0
 31 60  1  0
 31 61  1  0
 34 62  1  0
 34 63  1  0
 34 64  1  0
 35 65  1  0
 37 66  1  0
 37 67  1  0
 38 68  1  0
 38 69  1  0
M  CHG  1   6   1
M  END
>  <UniqueID>  (6) 
6

>  <SMILES>  (6) 
CCOC(=O)[NH+]1CCN(C(=O)COc2cccc3oc(=O)cc(C=Cc4ccc(OC)c(OC)c4)c23)CC1

>  <Energy>  (6) 
91.61273623635941

>  <Genealogy>  (6) 
CCOC(=O)[NH+]1CCN(C(=O)COc2cccc3oc(=O)cc(C=Cc4ccc(OC)c(OC)c4)c23)CC1 (protonated)
CCOC(=O)[NH+]1CCN(C(=O)COc2cccc3oc(=O)cc(C=Cc4ccc(OC)c(OC)c4)c23)CC1 (3D coordinates assigned)
CCOC(=O)[NH+]1CCN(C(=O)COc2cccc3oc(=O)cc(C=Cc4ccc(OC)c(OC)c4)c23)CC1 (nonaromatic ring conformer: 91.61273623635941 kcal/mol)

>  <smiles>  (6) 
CCOC(=O)N1CCN(C(=O)COc2cccc3oc(=O)cc(C=Cc4ccc(OC)c(OC)c4)c23)CC1

>  <score_type>  (6) 
oracle

>  <origin>  (6) 
adg

>  <m_score__min__energy>  (6) 
-7.4699999999999998

>  <m_primary>  (6) 
energy

$$$$
6:0
     RDKit          3D

 44 46  0  0  0  0  0  0  0  0999 V2000
   59.7090   35.3180   46.0190 C   0  0  0  0  0  0  0  0  0  0  0  0
   58.7480   34.5230   45.3330 O   0  0  0  0  0  0  0  0  0  0  0  0
   58.5560   33.1490   45.5430 C   0  0  0  0  0  0  0  0  0  0  0  0
   59.4010   32.4940   46.4410 C   0  0  0  0  0  0  0  0  0  0  0  0
   59.2600   31.1170   46.6930 C   0  0  0  0  0  0  0  0  0  0  0  0
   60.1330   30.4310   47.5540 O   0  0  0  0  0  0  0  0  0  0  0  0
   61.4750   30.8200   47.8250 C   0  0  0  0  0  0  0  0  0  0  0  0
   58.2330   30.3980   46.0490 C   0  0  0  0  0  0  0  0  0  0  0  0
   58.0640   28.9900   46.2890 N   0  0  0  0  0  0  0  0  0  0  0  0
   59.1030   28.0290   46.0430 C   0  0  0  0  0  0  0  0  0  0  0  0
   60.2700   28.4200   45.7630 O   0  0  0  0  0  0  0  0  0  0  0  0
   58.8240   26.5820   46.1520 C   0  0  0  0  0  0  0  0  0  0  0  0
   59.7430   25.8010   46.5190 O   0  0  0  0  0  0  0  0  0  0  0  0
   57.4670   26.0470   45.9000 C   0  0  0  0  0  0  0  0  0  0  0  0
   56.4040   26.8230   46.2440 N   0  0  0  0  0  0  0  0  0  0  0  0
   55.1450   26.4080   46.1080 N   0  0  0  0  0  0  0  0  0  0  0  0
   54.8470   25.1810   45.6190 C   0  0  0  0  0  0  0  0  0  0  0  0
   53.6400   24.8340   45.5180 O   0  0  0  0  0  0  0  0  0  0  0  0
   55.8860   24.3190   45.2280 C   0  0  0  0  0  0  0  0  0  0  0  0
   55.6170   23.0430   44.7010 C   0  0  0  0  0  0  0  0  0  0  0  0
   56.6630   22.2170   44.2880 C   0  0  0  0  0  0  0  0  0  0  0  0
   57.9820   22.6560   44.3850 C   0  0  0  0  0  0  0  0  0  0  0  0
   58.2670   23.9180   44.9090 C   0  0  0  0  0  0  0  0  0  0  0  0
   57.2270   24.7610   45.3580 C   0  0  0  0  0  0  0  0  0  0  0  0
   57.3890   31.0430   45.1270 C   0  0  0  0  0  0  0  0  0  0  0  0
   56.3920   30.2890   44.4860 O   0  0  0  0  0  0  0  0  0  0  0  0
   56.6050   29.4730   43.3390 C   0  0  0  0  0  0  0  0  0  0  0  0
   57.5530   32.4190   44.8820 C   0  0  0  0  0  0  0  0  0  0  0  0
   59.5714   35.2042   47.1044 H   0  0  0  0  0  0  0  0  0  0  0  0
   60.7216   34.9901   45.7414 H   0  0  0  0  0  0  0  0  0  0  0  0
   59.5766   36.3741   45.7414 H   0  0  0  0  0  0  0  0  0  0  0  0
   60.1878   33.0624   46.9586 H   0  0  0  0  0  0  0  0  0  0  0  0
   61.6311   30.8652   48.9129 H   0  0  0  0  0  0  0  0  0  0  0  0
   62.1656   30.0851   47.3858 H   0  0  0  0  0  0  0  0  0  0  0  0
   61.6655   31.8103   47.3858 H   0  0  0  0  0  0  0  0  0  0  0  0
   57.1990   28.6770   46.7830 H   0  0  0  0  0  0  0  0  0  0  0  0
   54.5772   22.6946   44.6140 H   0  0  0  0  0  0  0  0  0  0  0  0
   56.4459   21.2168   43.8848 H   0  0  0  0  0  0  0  0  0  0  0  0
   58.8020   22.0053   44.0472 H   0  0  0  0  0  0  0  0  0  0  0  0
   59.3109   24.2588   44.9727 H   0  0  0  0  0  0  0  0  0  0  0  0
   56.8709   28.4544   43.6579 H   0  0  0  0  0  0  0  0  0  0  0  0
   55.6853   29.4402   42.7364 H   0  0  0  0  0  0  0  0  0  0  0  0
   57.4234   29.8939   42.7364 H   0  0  0  0  0  0  0  0  0  0  0  0
   56.8902   32.9280   44.1667 H   0  0  0  0  0  0  0  0  0  0  0  0
  1  2  1  0
  2  3  1  0
  3  4  2  0
  4  5  1  0
  5  6  1  0
  6  7  1  0
  5  8  2  0
  8  9  1  0
  9 10  1  0
 10 11  2  0
 10 12  1  0
 12 13  2  0
 12 14  1  0
 14 15  2  0
 15 16  1  0
 16 17  1  0
 17 18  2  0
 17 19  1  0
 19 20  2  0
 20 21  1  0
 21 22  2  0
 22 23  1  0
 23 24  2  0
  8 25  1  0
 25 26  1  0
 26 27  1  0
 25 28  2  0
 28  3  1  0
 24 14  1  0
 24 19  1  0
  1 29  1  0
  1 30  1  0
  1 31  1  0
  4 32  1  0
  7 33  1  0
  7 34  1  0
  7 35  1  0
  9 36  1  0
 20 37  1  0
 21 38  1  0
 22 39  1  0
 23 40  1  0
 27 41  1  0
 27 42  1  0
 27 43  1  0
 28 44  1  0
M  CHG  1  16  -1
M  END
>  <UniqueID>  (7) 
7

>  <SMILES>  (7) 
COc1cc(OC)c(NC(=O)C(=O)c2n[n-]c(=O)c3ccccc23)c(OC)c1

>  <Energy>  (7) 
62.48828420213706

>  <Genealogy>  (7) 
COc1cc(OC)c(NC(=O)C(=O)c2n[n-]c(=O)c3ccccc23)c(OC)c1 (protonated)
COc1cc(OC)c(NC(=O)C(=O)c2n[n-]c(=O)c3ccccc23)c(OC)c1 (3D coordinates assigned)
COc1cc(OC)c(NC(=O)C(=O)c2n[n-]c(=O)c3ccccc23)c(OC)c1 (optimized conformer: 62.48828420213706 kcal/mol)

>  <smiles>  (7) 
COc1cc(OC)c(NC(=O)C(=O)c2n[nH]c(=O)c3ccccc23)c(OC)c1

>  <score_type>  (7) 
oracle

>  <origin>  (7) 
adg

>  <m_score__min__energy>  (7) 
-10.08

>  <m_primary>  (7) 
energy

$$$$
7:0
     RDKit          3D

 41 43  0  0  0  0  0  0  0  0999 V2000
   57.7790   32.6300   48.5220 N   0  0  0  0  0  0  0  0  0  0  0  0
   58.1380   33.2890   47.3010 C   0  0  0  0  0  0  0  0  0  0  0  0
   57.3780   33.0480   46.1460 C   0  0  0  0  0  0  0  0  0  0  0  0
   57.6710   33.7140   44.9520 C   0  0  0  0  0  0  0  0  0  0  0  0
   58.7210   34.6300   44.9030 C   0  0  0  0  0  0  0  0  0  0  0  0
   59.4930   34.8720   46.0420 C   0  0  0  0  0  0  0  0  0  0  0  0
   59.2230   34.1930   47.2400 C   0  0  0  0  0  0  0  0  0  0  0  0
   60.2850   34.5020   48.6620 S   0  0  0  0  0  0  0  0  0  0  0  0
   61.5860   33.4060   48.0710 C   0  0  0  0  0  0  0  0  0  0  0  0
   62.6180   33.9430   47.2890 C   0  0  0  0  0  0  0  0  0  0  0  0
   63.6390   33.1210   46.8090 C   0  0  0  0  0  0  0  0  0  0  0  0
   63.6370   31.7590   47.1090 C   0  0  0  0  0  0  0  0  0  0  0  0
   62.6190   31.2150   47.8960 C   0  0  0  0  0  0  0  0  0  0  0  0
   61.5870   32.0360   48.3910 C   0  0  0  0  0  0  0  0  0  0  0  0
   60.5430   31.5100   49.2240 N   0  0  0  0  0  0  0  0  0  0  0  0
   59.7160   30.0070   48.9780 S   0  0  0  0  0  0  0  0  0  0  0  0
   60.5860   28.8840   49.4660 O   0  0  0  0  0  0  0  0  0  0  0  0
   58.4370   30.0160   49.7690 O   0  0  0  0  0  0  0  0  0  0  0  0
   59.3860   29.7710   47.2640 C   0  0  0  0  0  0  0  0  0  0  0  0
   60.4200   29.4230   46.3880 C   0  0  0  0  0  0  0  0  0  0  0  0
   60.1530   29.2230   45.0330 C   0  0  0  0  0  0  0  0  0  0  0  0
   58.8510   29.3680   44.5450 C   0  0  0  0  0  0  0  0  0  0  0  0
   57.8000   29.7220   45.4100 C   0  0  0  0  0  0  0  0  0  0  0  0
   56.4610   29.8720   44.9060 N   0  0  0  0  0  0  0  0  0  0  0  0
   55.6680   28.9070   44.9040 O   0  0  0  0  0  0  0  0  0  0  0  0
   56.0280   31.0860   44.4220 O   0  0  0  0  0  0  0  0  0  0  0  0
   58.0810   29.9250   46.7750 C   0  0  0  0  0  0  0  0  0  0  0  0
   58.4710   32.0830   49.0790 H   0  0  0  0  0  0  0  0  0  0  0  0
   56.8190   32.7380   48.9200 H   0  0  0  0  0  0  0  0  0  0  0  0
   56.5456   32.3298   46.1803 H   0  0  0  0  0  0  0  0  0  0  0  0
   57.0727   33.5151   44.0506 H   0  0  0  0  0  0  0  0  0  0  0  0
   58.9418   35.1628   43.9663 H   0  0  0  0  0  0  0  0  0  0  0  0
   60.3173   35.5991   45.9994 H   0  0  0  0  0  0  0  0  0  0  0  0
   62.6233   35.0173   47.0525 H   0  0  0  0  0  0  0  0  0  0  0  0
   64.4452   33.5475   46.1941 H   0  0  0  0  0  0  0  0  0  0  0  0
   64.4390   31.1115   46.7250 H   0  0  0  0  0  0  0  0  0  0  0  0
   62.6234   30.1402   48.1303 H   0  0  0  0  0  0  0  0  0  0  0  0
   61.4456   29.3068   46.7682 H   0  0  0  0  0  0  0  0  0  0  0  0
   60.9689   28.9506   44.3473 H   0  0  0  0  0  0  0  0  0  0  0  0
   58.6470   29.2040   43.4766 H   0  0  0  0  0  0  0  0  0  0  0  0
   57.2702   30.2066   47.4630 H   0  0  0  0  0  0  0  0  0  0  0  0
  1  2  1  0
  2  3  2  0
  3  4  1  0
  4  5  2  0
  5  6  1  0
  6  7  2  0
  7  8  1  0
  8  9  1  0
  9 10  2  0
 10 11  1  0
 11 12  2  0
 12 13  1  0
 13 14  2  0
 14 15  1  0
 15 16  1  0
 16 17  2  0
 16 18  2  0
 16 19  1  0
 19 20  2  0
 20 21  1  0
 21 22  2  0
 22 23  1  0
 23 24  1  0
 24 25  2  0
 24 26  1  0
 23 27  2  0
  7  2  1  0
 14  9  1  0
 27 19  1  0
  1 28  1  0
  1 29  1  0
  3 30  1  0
  4 31  1  0
  5 32  1  0
  6 33  1  0
 10 34  1  0
 11 35  1  0
 12 36  1  0
 13 37  1  0
 20 38  1  0
 21 39  1  0
 22 40  1  0
 27 41  1  0
M  CHG  3  15  -1  24   1  26  -1
M  END
>  <UniqueID>  (8) 
8

>  <SMILES>  (8) 
Nc1ccccc1Sc1ccccc1[N-]S(=O)(=O)c1cccc([N+](=O)[O-])c1

>  <Energy>  (8) 
44.39206689015129

>  <Genealogy>  (8) 
Nc1ccccc1Sc1ccccc1[N-]S(=O)(=O)c1cccc([N+](=O)[O-])c1 (protonated)
Nc1ccccc1Sc1ccccc1[N-]S(=O)(=O)c1cccc([N+](=O)[O-])c1 (3D coordinates assigned)
Nc1ccccc1Sc1ccccc1[N-]S(=O)(=O)c1cccc([N+](=O)[O-])c1 (optimized conformer: 44.39206689015129 kcal/mol)

>  <smiles>  (8) 
Nc1ccccc1Sc1ccccc1NS(=O)(=O)c1cccc([N+](=O)[O-])c1

>  <score_type>  (8) 
oracle

>  <origin>  (8) 
adg

>  <m_score__min__energy>  (8) 
-9.8499999999999996

>  <m_primary>  (8) 
energy

$$$$
8:0
     RDKit          3D

 53 55  0  0  0  0  0  0  0  0999 V2000
   56.0270   22.5300   48.4070 C   0  0  0  0  0  0  0  0  0  0  0  0
   57.0210   22.6280   47.3960 O   0  0  0  0  0  0  0  0  0  0  0  0
   56.7610   22.6540   46.0150 C   0  0  0  0  0  0  0  0  0  0  0  0
   57.1910   21.6250   45.1520 C   0  0  0  0  0  0  0  0  0  0  0  0
   56.9310   21.7110   43.7760 C   0  0  0  0  0  0  0  0  0  0  0  0
   56.2350   22.7980   43.2520 C   0  0  0  0  0  0  0  0  0  0  0  0
   55.8030   23.8190   44.1010 C   0  0  0  0  0  0  0  0  0  0  0  0
   56.0700   23.7580   45.4790 C   0  0  0  0  0  0  0  0  0  0  0  0
   55.6350   24.8060   46.3510 N   0  0  0  0  0  0  0  0  0  0  0  0
   56.1560   26.1370   46.3600 C   0  0  0  0  0  0  0  0  0  0  0  0
   55.5300   27.0380   45.7430 O   0  0  0  0  0  0  0  0  0  0  0  0
   57.4060   26.5050   47.1160 C   0  0  0  0  0  0  0  0  0  0  0  0
   58.6190   26.3060   46.3040 N   0  0  0  0  0  0  0  0  0  0  0  0
   58.8620   25.0130   45.6560 C   0  0  0  0  0  0  0  0  0  0  0  0
   59.5620   27.3780   46.0780 C   0  0  0  0  0  0  0  0  0  0  0  0
   60.7950   27.1310   46.0100 O   0  0  0  0  0  0  0  0  0  0  0  0
   59.1190   28.7690   45.9010 C   0  0  0  0  0  0  0  0  0  0  0  0
   58.4640   29.1530   44.7200 C   0  0  0  0  0  0  0  0  0  0  0  0
   58.0890   30.4850   44.5280 C   0  0  0  0  0  0  0  0  0  0  0  0
   58.3520   31.4420   45.5210 C   0  0  0  0  0  0  0  0  0  0  0  0
   57.9170   33.1310   45.2780 S   0  0  0  0  0  0  0  0  0  0  0  0
   57.6390   33.3500   43.8150 O   0  0  0  0  0  0  0  0  0  0  0  0
   56.6700   33.4870   46.0470 O   0  0  0  0  0  0  0  0  0  0  0  0
   59.2260   34.1690   45.7670 N   0  0  0  0  0  0  0  0  0  0  0  0
   59.9620   34.0690   46.9930 C   0  0  0  0  0  0  0  0  0  0  0  0
   59.3340   34.1750   48.2520 C   0  0  0  0  0  0  0  0  0  0  0  0
   60.0860   34.0780   49.4260 C   0  0  0  0  0  0  0  0  0  0  0  0
   61.4690   33.8840   49.3580 C   0  0  0  0  0  0  0  0  0  0  0  0
   62.0980   33.7970   48.1150 C   0  0  0  0  0  0  0  0  0  0  0  0
   61.3490   33.8720   46.9360 C   0  0  0  0  0  0  0  0  0  0  0  0
   61.9720   33.7530   45.7400 F   0  0  0  0  0  0  0  0  0  0  0  0
   58.9920   31.0530   46.7070 C   0  0  0  0  0  0  0  0  0  0  0  0
   59.3880   29.7260   46.8900 C   0  0  0  0  0  0  0  0  0  0  0  0
   56.5048   22.5771   49.3967 H   0  0  0  0  0  0  0  0  0  0  0  0
   55.3153   23.3623   48.3034 H   0  0  0  0  0  0  0  0  0  0  0  0
   55.4916   21.5747   48.3034 H   0  0  0  0  0  0  0  0  0  0  0  0
   57.7297   20.7558   45.5572 H   0  0  0  0  0  0  0  0  0  0  0  0
   57.2800   20.9126   43.1046 H   0  0  0  0  0  0  0  0  0  0  0  0
   56.0265   22.8519   42.1733 H   0  0  0  0  0  0  0  0  0  0  0  0
   55.2504   24.6760   43.6885 H   0  0  0  0  0  0  0  0  0  0  0  0
   57.3449   27.5632   47.4102 H   0  0  0  0  0  0  0  0  0  0  0  0
   57.4755   25.8510   47.9978 H   0  0  0  0  0  0  0  0  0  0  0  0
   59.0074   24.2394   46.4244 H   0  0  0  0  0  0  0  0  0  0  0  0
   57.9977   24.7490   45.0288 H   0  0  0  0  0  0  0  0  0  0  0  0
   59.7631   25.0808   45.0288 H   0  0  0  0  0  0  0  0  0  0  0  0
   58.2457   28.4039   43.9447 H   0  0  0  0  0  0  0  0  0  0  0  0
   57.5865   30.7847   43.5965 H   0  0  0  0  0  0  0  0  0  0  0  0
   58.2472   34.3348   48.3098 H   0  0  0  0  0  0  0  0  0  0  0  0
   59.5893   34.1544   50.4045 H   0  0  0  0  0  0  0  0  0  0  0  0
   62.0600   33.8001   50.2820 H   0  0  0  0  0  0  0  0  0  0  0  0
   63.1892   33.6687   48.0623 H   0  0  0  0  0  0  0  0  0  0  0  0
   59.1827   31.7956   47.4958 H   0  0  0  0  0  0  0  0  0  0  0  0
   59.9117   29.4313   47.8114 H   0  0  0  0  0  0  0  0  0  0  0  0
  1  2  1  0
  2  3  1  0
  3  4  2  0
  4  5  1  0
  5  6  2  0
  6  7  1  0
  7  8  2  0
  8  9  1  0
  9 10  1  0
 10 11  2  0
 10 12  1  0
 12 13  1  0
 13 14  1  0
 13 15  1  0
 15 16  2  0
 15 17  1  0
 17 18  2  0
 18 19  1  0
 19 20  2  0
 20 21  1  0
 21 22  2  0
 21 23  2  0
 21 24  1  0
 24 25  1  0
 25 26  2  0
 26 27  1  0
 27 28  2  0
 28 29  1  0
 29 30  2  0
 30 31  1  0
 20 32  1  0
 32 33  2  0
  8  3  1  0
 33 17  1  0
 30 25  1  0
  1 34  1  0
  1 35  1  0
  1 36  1  0
  4 37  1  0
  5 38  1  0
  6 39  1  0
  7 40  1  0
 12 41  1  0
 12 42  1  0
 14 43  1  0
 14 44  1  0
 14 45  1  0
 18 46  1  0
 19 47  1  0
 26 48  1  0
 27 49  1  0
 28 50  1  0
 29 51  1  0
 32 52  1  0
 33 53  1  0
M  CHG  2   9  -1  24  -1
M  END
>  <UniqueID>  (9) 
9

>  <SMILES>  (9) 
COc1ccccc1[N-]C(=O)CN(C)C(=O)c1ccc(S(=O)(=O)[N-]c2ccccc2F)cc1

>  <Energy>  (9) 
67.01515795905011

>  <Genealogy>  (9) 
COc1ccccc1[N-]C(=O)CN(C)C(=O)c1ccc(S(=O)(=O)[N-]c2ccccc2F)cc1 (protonated)
COc1ccccc1[N-]C(=O)CN(C)C(=O)c1ccc(S(=O)(=O)[N-]c2ccccc2F)cc1 (3D coordinates assigned)
COc1ccccc1[N-]C(=O)CN(C)C(=O)c1ccc(S(=O)(=O)[N-]c2ccccc2F)cc1 (optimized conformer: 67.01515795905011 kcal/mol)

>  <smiles>  (9) 
COc1ccccc1NC(=O)CN(C)C(=O)c1ccc(S(=O)(=O)Nc2ccccc2F)cc1

>  <score_type>  (9) 
oracle

>  <origin>  (9) 
adg

>  <m_score__min__energy>  (9) 
-12.359999999999999

>  <m_primary>  (9) 
energy

$$$$
9:0
     RDKit          3D

 58 60  0  0  0  0  0  0  0  0999 V2000
   56.5580   22.9890   42.9170 C   0  0  0  0  0  0  0  0  0  0  0  0
   55.7440   22.3940   43.9920 N   0  0  0  0  0  0  0  0  0  0  0  0
   56.4410   21.2590   44.6260 C   0  0  0  0  0  0  0  0  0  0  0  0
   55.2640   23.3970   44.9710 C   0  0  0  0  0  0  0  0  0  0  0  0
   56.0520   24.7270   44.9570 C   0  0  0  0  0  0  0  0  0  0  0  0
   55.5250   25.7270   45.9940 C   0  0  0  0  0  0  0  0  0  0  0  0
   55.9290   27.0960   45.6570 N   0  0  0  0  0  0  0  0  0  0  0  0
   57.3070   27.4920   45.5060 C   0  0  0  0  0  0  0  0  0  0  0  0
   58.3290   26.7340   46.1100 C   0  0  0  0  0  0  0  0  0  0  0  0
   59.6670   27.1160   45.9860 C   0  0  0  0  0  0  0  0  0  0  0  0
   60.0040   28.2610   45.2600 C   0  0  0  0  0  0  0  0  0  0  0  0
   59.0040   29.0290   44.6630 C   0  0  0  0  0  0  0  0  0  0  0  0
   57.6490   28.6620   44.7850 C   0  0  0  0  0  0  0  0  0  0  0  0
   56.4150   29.6630   44.0000 S   0  0  0  0  0  0  0  0  0  0  0  0
   55.1420   29.5550   44.7920 O   0  0  0  0  0  0  0  0  0  0  0  0
   56.1420   29.1640   42.6060 O   0  0  0  0  0  0  0  0  0  0  0  0
   56.8770   31.3350   43.9100 N   0  0  0  0  0  0  0  0  0  0  0  0
   57.4260   32.1030   44.9890 C   0  0  0  0  0  0  0  0  0  0  0  0
   57.4860   33.5070   44.9450 C   0  0  0  0  0  0  0  0  0  0  0  0
   58.0560   34.2190   46.0050 C   0  0  0  0  0  0  0  0  0  0  0  0
   58.5400   33.5500   47.1340 C   0  0  0  0  0  0  0  0  0  0  0  0
   59.1190   34.3210   48.1940 N   0  0  0  0  0  0  0  0  0  0  0  0
   60.2300   33.9270   49.0150 C   0  0  0  0  0  0  0  0  0  0  0  0
   60.1000   33.8690   50.2700 O   0  0  0  0  0  0  0  0  0  0  0  0
   61.5550   33.6690   48.4030 C   0  0  0  0  0  0  0  0  0  0  0  0
   61.7330   33.8430   47.0160 C   0  0  0  0  0  0  0  0  0  0  0  0
   62.9630   33.5530   46.4120 C   0  0  0  0  0  0  0  0  0  0  0  0
   64.0310   33.0940   47.1840 C   0  0  0  0  0  0  0  0  0  0  0  0
   63.8740   32.9340   48.5630 C   0  0  0  0  0  0  0  0  0  0  0  0
   62.6500   33.2220   49.1760 C   0  0  0  0  0  0  0  0  0  0  0  0
   62.5430   33.0670   50.5200 F   0  0  0  0  0  0  0  0  0  0  0  0
   58.5080   32.1410   47.1700 C   0  0  0  0  0  0  0  0  0  0  0  0
   57.9640   31.4250   46.0970 C   0  0  0  0  0  0  0  0  0  0  0  0
   57.3712   23.5834   43.3590 H   0  0  0  0  0  0  0  0  0  0  0  0
   56.9852   22.1887   42.2948 H   0  0  0  0  0  0  0  0  0  0  0  0
   55.9252   23.6389   42.2948 H   0  0  0  0  0  0  0  0  0  0  0  0
   56.3810   21.3567   45.7200 H   0  0  0  0  0  0  0  0  0  0  0  0
   55.9655   20.3170   44.3154 H   0  0  0  0  0  0  0  0  0  0  0  0
   57.4962   21.2570   44.3154 H   0  0  0  0  0  0  0  0  0  0  0  0
   54.2098   23.6187   44.7484 H   0  0  0  0  0  0  0  0  0  0  0  0
   55.4066   22.9567   45.9689 H   0  0  0  0  0  0  0  0  0  0  0  0
   57.1088   24.5143   45.1759 H   0  0  0  0  0  0  0  0  0  0  0  0
   55.9310   25.1793   43.9616 H   0  0  0  0  0  0  0  0  0  0  0  0
   54.4267   25.6723   46.0206 H   0  0  0  0  0  0  0  0  0  0  0  0
   55.9477   25.4687   46.9761 H   0  0  0  0  0  0  0  0  0  0  0  0
   55.1790   27.8040   45.4870 H   0  0  0  0  0  0  0  0  0  0  0  0
   58.0711   25.8324   46.6850 H   0  0  0  0  0  0  0  0  0  0  0  0
   60.4562   26.5145   46.4606 H   0  0  0  0  0  0  0  0  0  0  0  0
   61.0585   28.5572   45.1590 H   0  0  0  0  0  0  0  0  0  0  0  0
   59.2757   29.9291   44.0920 H   0  0  0  0  0  0  0  0  0  0  0  0
   57.0837   34.0465   44.0749 H   0  0  0  0  0  0  0  0  0  0  0  0
   58.1244   35.3155   45.9504 H   0  0  0  0  0  0  0  0  0  0  0  0
   60.8977   34.2102   46.4016 H   0  0  0  0  0  0  0  0  0  0  0  0
   63.0873   33.6873   45.3273 H   0  0  0  0  0  0  0  0  0  0  0  0
   64.9943   32.8587   46.7079 H   0  0  0  0  0  0  0  0  0  0  0  0
   64.7190   32.5790   49.1712 H   0  0  0  0  0  0  0  0  0  0  0  0
   58.9106   31.6040   48.0415 H   0  0  0  0  0  0  0  0  0  0  0  0
   57.9574   30.3253   46.1209 H   0  0  0  0  0  0  0  0  0  0  0  0
  1  2  1  0
  2  3  1  0
  2  4  1  0
  4  5  1  0
  5  6  1  0
  6  7  1  0
  7  8  1  0
  8  9  2  0
  9 10  1  0
 10 11  2  0
 11 12  1  0
 12 13  2  0
 13 14  1  0
 14 15  2  0
 14 16  2  0
 14 17  1  0
 17 18  1  0
 18 19  2  0
 19 20  1  0
 20 21  2  0
 21 22  1  0
 22 23  1  0
 23 24  2  0
 23 25  1  0
 25 26  2  0
 26 27  1  0
 27 28  2  0
 28 29  1  0
 29 30  2  0
 30 31  1  0
 21 32  1  0
 32 33  2  0
 13  8  1  0
 33 18  1  0
 30 25  1  0
  1 34  1  0
  1 35  1  0
  1 36  1  0
  3 37  1  0
  3 38  1  0
  3 39  1  0
  4 40  1  0
  4 41  1  0
  5 42  1  0
  5 43  1  0
  6 44  1  0
  6 45  1  0
  7 46  1  0
  9 47  1  0
 10 48  1  0
 11 49  1  0
 12 50  1  0
 19 51  1  0
 20 52  1  0
 26 53  1  0
 27 54  1  0
 28 55  1  0
 29 56  1  0
 32 57  1  0
 33 58  1  0
M  CHG  2  17  -1  22  -1
M  END
>  <UniqueID>  (10) 
10

>  <SMILES>  (10) 
CN(C)CCCNc1ccccc1S(=O)(=O)[N-]c1ccc([N-]C(=O)c2ccccc2F)cc1

>  <Energy>  (10) 
75.81898061195953

>  <Genealogy>  (10) 
CN(C)CCCNc1ccccc1S(=O)(=O)[N-]c1ccc([N-]C(=O)c2ccccc2F)cc1 (protonated)
CN(C)CCCNc1ccccc1S(=O)(=O)[N-]c1ccc([N-]C(=O)c2ccccc2F)cc1 (3D coordinates assigned)
CN(C)CCCNc1ccccc1S(=O)(=O)[N-]c1ccc([N-]C(=O)c2ccccc2F)cc1 (optimized conformer: 75.81898061195953 kcal/mol)

>  <smiles>  (10) 
CN(C)CCCNc1ccccc1S(=O)(=O)Nc1ccc(NC(=O)c2ccccc2F)cc1

>  <score_type>  (10) 
oracle

>  <origin>  (10) 
adg

>  <m_score__min__energy>  (10) 
-12.01

>  <m_primary>  (10) 
energy

$$$$
10:0
     RDKit          3D

 55 58  0  0  0  0  0  0  0  0999 V2000
   60.7300   28.7250   48.2040 O   0  0  0  0  0  0  0  0  0  0  0  0
   59.8090   29.5360   47.9080 C   0  0  0  0  0  0  0  0  0  0  0  0
   58.9040   30.0890   48.9760 C   0  0  0  0  0  0  0  0  0  0  0  0
   59.6480   30.3920   50.2560 C   0  0  0  0  0  0  0  0  0  0  0  0
   60.1690   29.3100   50.9900 C   0  0  0  0  0  0  0  0  0  0  0  0
   60.8870   29.5270   52.1670 C   0  0  0  0  0  0  0  0  0  0  0  0
   61.0930   30.8260   52.6270 C   0  0  0  0  0  0  0  0  0  0  0  0
   60.5900   31.9100   51.9090 C   0  0  0  0  0  0  0  0  0  0  0  0
   59.8890   31.7130   50.7100 C   0  0  0  0  0  0  0  0  0  0  0  0
   59.2640   33.1830   49.8610 S   0  0  0  0  0  0  0  0  0  0  0  0
   60.5700   33.2490   48.6170 C   0  0  0  0  0  0  0  0  0  0  0  0
   61.8850   32.9830   49.0260 C   0  0  0  0  0  0  0  0  0  0  0  0
   62.9420   33.0670   48.1190 C   0  0  0  0  0  0  0  0  0  0  0  0
   62.6940   33.3980   46.7870 C   0  0  0  0  0  0  0  0  0  0  0  0
   61.3860   33.6280   46.3560 C   0  0  0  0  0  0  0  0  0  0  0  0
   60.3130   33.5420   47.2590 C   0  0  0  0  0  0  0  0  0  0  0  0
   58.9410   33.7510   46.7530 C   0  0  0  0  0  0  0  0  0  0  0  0
   58.5360   34.9280   46.5650 O   0  0  0  0  0  0  0  0  0  0  0  0
   58.0290   32.6600   46.5380 N   0  0  0  0  0  0  0  0  0  0  0  0
   57.7100   32.1410   45.3880 C   0  0  0  0  0  0  0  0  0  0  0  0
   57.0780   30.9550   45.2350 N   0  0  0  0  0  0  0  0  0  0  0  0
   56.9180   30.6430   43.9210 C   0  0  0  0  0  0  0  0  0  0  0  0
   57.4300   31.5770   43.0270 C   0  0  0  0  0  0  0  0  0  0  0  0
   58.1100   32.8350   43.9160 S   0  0  0  0  0  0  0  0  0  0  0  0
   59.6370   29.9620   46.5500 N   0  0  0  0  0  0  0  0  0  0  0  0
   60.4510   29.4420   45.4520 C   0  0  0  0  0  0  0  0  0  0  0  0
   59.6190   28.5660   44.5070 C   0  0  0  0  0  0  0  0  0  0  0  0
   58.7980   27.5560   45.2670 C   0  0  0  0  0  0  0  0  0  0  0  0
   59.4280   26.5510   46.0210 C   0  0  0  0  0  0  0  0  0  0  0  0
   58.6650   25.6330   46.7480 C   0  0  0  0  0  0  0  0  0  0  0  0
   57.2690   25.7140   46.7320 C   0  0  0  0  0  0  0  0  0  0  0  0
   56.6350   26.7180   45.9960 C   0  0  0  0  0  0  0  0  0  0  0  0
   57.3950   27.6390   45.2690 C   0  0  0  0  0  0  0  0  0  0  0  0
   58.4449   31.0173   48.6052 H   0  0  0  0  0  0  0  0  0  0  0  0
   58.1430   29.3272   49.2007 H   0  0  0  0  0  0  0  0  0  0  0  0
   60.0086   28.2823   50.6322 H   0  0  0  0  0  0  0  0  0  0  0  0
   61.2900   28.6730   52.7312 H   0  0  0  0  0  0  0  0  0  0  0  0
   61.6534   30.9965   53.5581 H   0  0  0  0  0  0  0  0  0  0  0  0
   60.7446   32.9314   52.2870 H   0  0  0  0  0  0  0  0  0  0  0  0
   62.0849   32.7056   50.0715 H   0  0  0  0  0  0  0  0  0  0  0  0
   63.9713   32.8721   48.4546 H   0  0  0  0  0  0  0  0  0  0  0  0
   63.5293   33.4779   46.0757 H   0  0  0  0  0  0  0  0  0  0  0  0
   61.1942   33.8783   45.3022 H   0  0  0  0  0  0  0  0  0  0  0  0
   56.4202   29.7197   43.5897 H   0  0  0  0  0  0  0  0  0  0  0  0
   57.3966   31.5063   41.9298 H   0  0  0  0  0  0  0  0  0  0  0  0
   58.9270   30.7000   46.3390 H   0  0  0  0  0  0  0  0  0  0  0  0
   60.8675   30.2867   44.8837 H   0  0  0  0  0  0  0  0  0  0  0  0
   61.2556   28.8251   45.8786 H   0  0  0  0  0  0  0  0  0  0  0  0
   58.9435   29.2101   43.9250 H   0  0  0  0  0  0  0  0  0  0  0  0
   60.3088   28.0215   43.8454 H   0  0  0  0  0  0  0  0  0  0  0  0
   60.5260   26.4867   46.0390 H   0  0  0  0  0  0  0  0  0  0  0  0
   59.1631   24.8460   47.3333 H   0  0  0  0  0  0  0  0  0  0  0  0
   56.6697   24.9867   47.2993 H   0  0  0  0  0  0  0  0  0  0  0  0
   55.5370   26.7839   45.9885 H   0  0  0  0  0  0  0  0  0  0  0  0
   56.8926   28.4322   44.6959 H   0  0  0  0  0  0  0  0  0  0  0  0
  1  2  2  0
  2  3  1  0
  3  4  1  0
  4  5  2  0
  5  6  1  0
  6  7  2  0
  7  8  1  0
  8  9  2  0
  9 10  1  0
 10 11  1  0
 11 12  2  0
 12 13  1  0
 13 14  2  0
 14 15  1  0
 15 16  2  0
 16 17  1  0
 17 18  2  0
 17 19  1  0
 19 20  2  3
 20 21  1  0
 21 22  1  0
 22 23  2  0
 23 24  1  0
  2 25  1  0
 25 26  1  0
 26 27  1  0
 27 28  1  0
 28 29  2  0
 29 30  1  0
 30 31  2  0
 31 32  1  0
 32 33  2  0
  9  4  1  0
 16 11  1  0
 24 20  1  0
 33 28  1  0
  3 34  1  0
  3 35  1  0
  5 36  1  0
  6 37  1  0
  7 38  1  0
  8 39  1  0
 12 40  1  0
 13 41  1  0
 14 42  1  0
 15 43  1  0
 22 44  1  0
 23 45  1  0
 25 46  1  0
 26 47  1  0
 26 48  1  0
 27 49  1  0
 27 50  1  0
 29 51  1  0
 30 52  1  0
 31 53  1  0
 32 54  1  0
 33 55  1  0
M  CHG  1  21  -1
M  END
>  <UniqueID>  (11) 
11

>  <SMILES>  (11) 
O=C(Cc1ccccc1Sc1ccccc1C(=O)N=c1[n-]ccs1)NCCc1ccccc1

>  <Energy>  (11) 
86.77799590315156

>  <Genealogy>  (11) 
O=C(Cc1ccccc1Sc1ccccc1C(=O)N=c1[n-]ccs1)NCCc1ccccc1 (protonated)
O=C(Cc1ccccc1Sc1ccccc1C(=O)N=c1[n-]ccs1)NCCc1ccccc1 (3D coordinates assigned)
O=C(Cc1ccccc1Sc1ccccc1C(=O)N=c1[n-]ccs1)NCCc1ccccc1 (optimized conformer: 86.77799590315156 kcal/mol)

>  <smiles>  (11) 
O=C(Cc1ccccc1Sc1ccccc1C(=O)N=c1[nH]ccs1)NCCc1ccccc1

>  <score_type>  (11) 
oracle

>  <origin>  (11) 
adg

>  <m_score__min__energy>  (11) 
-11.44

>  <m_primary>  (11) 
energy

$$$$
11:0
     RDKit          3D

 40 42  0  0  0  0  0  0  0  0999 V2000
   57.8890   33.6480   46.8600 C   0  0  0  0  0  0  0  0  0  0  0  0
   57.8120   32.8610   45.5930 C   0  0  0  0  0  0  0  0  0  0  0  0
   58.1780   33.4430   44.3730 C   0  0  0  0  0  0  0  0  0  0  0  0
   58.0920   32.6890   43.2030 C   0  0  0  0  0  0  0  0  0  0  0  0
   57.6440   31.3670   43.2560 C   0  0  0  0  0  0  0  0  0  0  0  0
   57.2830   30.8090   44.4940 C   0  0  0  0  0  0  0  0  0  0  0  0
   56.7990   29.4160   44.5920 C   0  0  0  0  0  0  0  0  0  0  0  0
   55.5730   29.1920   44.7940 O   0  0  0  0  0  0  0  0  0  0  0  0
   57.7100   28.3160   44.4200 N   0  0  0  0  0  0  0  0  0  0  0  0
   57.4020   26.9560   44.7720 C   0  0  0  0  0  0  0  0  0  0  0  0
   56.7090   26.6930   45.9640 C   0  0  0  0  0  0  0  0  0  0  0  0
   56.3770   25.3830   46.3160 C   0  0  0  0  0  0  0  0  0  0  0  0
   56.7180   24.3180   45.4740 C   0  0  0  0  0  0  0  0  0  0  0  0
   56.2820   22.6710   45.9210 S   0  0  0  0  0  0  0  0  0  0  0  0
   56.2400   21.7850   44.7080 O   0  0  0  0  0  0  0  0  0  0  0  0
   57.3070   22.1390   46.8810 O   0  0  0  0  0  0  0  0  0  0  0  0
   54.7230   22.6570   46.6850 N   0  0  0  0  0  0  0  0  0  0  0  0
   53.6150   22.9290   46.0670 C   0  0  0  0  0  0  0  0  0  0  0  0
   52.6130   22.0080   45.9840 N   0  0  0  0  0  0  0  0  0  0  0  0
   51.4550   22.2880   45.3330 C   0  0  0  0  0  0  0  0  0  0  0  0
   51.2790   23.5360   44.7370 C   0  0  0  0  0  0  0  0  0  0  0  0
   52.3110   24.4680   44.8300 C   0  0  0  0  0  0  0  0  0  0  0  0
   53.4550   24.1490   45.4900 N   0  0  0  0  0  0  0  0  0  0  0  0
   57.3930   24.5740   44.2740 C   0  0  0  0  0  0  0  0  0  0  0  0
   57.7270   25.8850   43.9200 C   0  0  0  0  0  0  0  0  0  0  0  0
   57.3760   31.5710   45.6200 N   0  0  0  0  0  0  0  0  0  0  0  0
   57.8222   32.9656   47.7202 H   0  0  0  0  0  0  0  0  0  0  0  0
   58.8446   34.1916   46.8965 H   0  0  0  0  0  0  0  0  0  0  0  0
   57.0569   34.3665   46.8965 H   0  0  0  0  0  0  0  0  0  0  0  0
   58.5299   34.4846   44.3379 H   0  0  0  0  0  0  0  0  0  0  0  0
   58.3769   33.1352   42.2387 H   0  0  0  0  0  0  0  0  0  0  0  0
   57.5744   30.7678   42.3362 H   0  0  0  0  0  0  0  0  0  0  0  0
   58.6150   28.4970   43.9310 H   0  0  0  0  0  0  0  0  0  0  0  0
   56.4254   27.5248   46.6256 H   0  0  0  0  0  0  0  0  0  0  0  0
   55.8453   25.1872   47.2589 H   0  0  0  0  0  0  0  0  0  0  0  0
   50.6578   21.5322   45.2759 H   0  0  0  0  0  0  0  0  0  0  0  0
   50.3471   23.7794   44.2056 H   0  0  0  0  0  0  0  0  0  0  0  0
   52.1995   25.4608   44.3696 H   0  0  0  0  0  0  0  0  0  0  0  0
   57.6614   23.7410   43.6076 H   0  0  0  0  0  0  0  0  0  0  0  0
   58.2466   26.0797   42.9702 H   0  0  0  0  0  0  0  0  0  0  0  0
  1  2  1  0
  2  3  2  0
  3  4  1  0
  4  5  2  0
  5  6  1  0
  6  7  1  0
  7  8  2  0
  7  9  1  0
  9 10  1  0
 10 11  2  0
 11 12  1  0
 12 13  2  0
 13 14  1  0
 14 15  2  0
 14 16  2  0
 14 17  1  0
 17 18  2  3
 18 19  1  0
 19 20  2  0
 20 21  1  0
 21 22  2  0
 22 23  1  0
 13 24  1  0
 24 25  2  0
  6 26  2  0
 26  2  1  0
 25 10  1  0
 23 18  1  0
  1 27  1  0
  1 28  1  0
  1 29  1  0
  3 30  1  0
  4 31  1  0
  5 32  1  0
  9 33  1  0
 11 34  1  0
 12 35  1  0
 20 36  1  0
 21 37  1  0
 22 38  1  0
 24 39  1  0
 25 40  1  0
M  CHG  1  23  -1
M  END
>  <UniqueID>  (12) 
12

>  <SMILES>  (12) 
Cc1cccc(C(=O)Nc2ccc(S(=O)(=O)N=c3nccc[n-]3)cc2)n1

>  <Energy>  (12) 
49.79184453134254

>  <Genealogy>  (12) 
Cc1cccc(C(=O)Nc2ccc(S(=O)(=O)N=c3nccc[n-]3)cc2)n1 (protonated)
Cc1cccc(C(=O)Nc2ccc(S(=O)(=O)N=c3nccc[n-]3)cc2)n1 (3D coordinates assigned)
Cc1cccc(C(=O)Nc2ccc(S(=O)(=O)N=c3nccc[n-]3)cc2)n1 (optimized conformer: 49.79184453134254 kcal/mol)

>  <smiles>  (12) 
Cc1cccc(C(=O)Nc2ccc(S(=O)(=O)N=c3nccc[nH]3)cc2)n1

>  <score_type>  (12) 
oracle

>  <origin>  (12) 
adg

>  <m_score__min__energy>  (12) 
-9.6500000000000004

>  <m_primary>  (12) 
energy

$$$$
12:0
     RDKit          3D

 36 37  0  0  0  0  0  0  0  0999 V2000
   55.6420   28.9690   44.7670 N   0  0  0  0  0  0  0  0  0  0  0  0
   56.3150   30.1480   44.3280 C   0  0  0  0  0  0  0  0  0  0  0  0
   56.6440   30.3180   42.9780 C   0  0  0  0  0  0  0  0  0  0  0  0
   57.3030   31.4870   42.5960 C   0  0  0  0  0  0  0  0  0  0  0  0
   57.6070   31.6760   41.3890 O   0  0  0  0  0  0  0  0  0  0  0  0
   57.6130   32.4250   43.5270 N   0  0  0  0  0  0  0  0  0  0  0  0
   57.2920   32.2430   44.8360 C   0  0  0  0  0  0  0  0  0  0  0  0
   57.7190   33.4910   46.0430 S   0  0  0  0  0  0  0  0  0  0  0  0
   59.4050   33.7090   45.3930 C   0  0  0  0  0  0  0  0  0  0  0  0
   60.3590   33.8700   46.5300 C   0  0  0  0  0  0  0  0  0  0  0  0
   60.3420   34.9280   47.2160 O   0  0  0  0  0  0  0  0  0  0  0  0
   61.2570   32.8050   46.8590 N   0  0  0  0  0  0  0  0  0  0  0  0
   61.4320   32.2810   48.2100 C   0  0  0  0  0  0  0  0  0  0  0  0
   60.8770   30.8600   48.3290 C   0  0  0  0  0  0  0  0  0  0  0  0
   59.0580   30.8220   48.1280 S   0  0  0  0  0  0  0  0  0  0  0  0
   59.0630   29.6380   46.7790 C   0  0  0  0  0  0  0  0  0  0  0  0
   59.8500   29.8670   45.6420 C   0  0  0  0  0  0  0  0  0  0  0  0
   59.8600   28.9360   44.5990 C   0  0  0  0  0  0  0  0  0  0  0  0
   59.0920   27.7720   44.6920 C   0  0  0  0  0  0  0  0  0  0  0  0
   58.3120   27.5380   45.8270 C   0  0  0  0  0  0  0  0  0  0  0  0
   58.2990   28.4670   46.8710 C   0  0  0  0  0  0  0  0  0  0  0  0
   56.6460   31.1140   45.2260 N   0  0  0  0  0  0  0  0  0  0  0  0
   54.7780   29.0440   45.3490 H   0  0  0  0  0  0  0  0  0  0  0  0
   56.0060   28.0220   44.5250 H   0  0  0  0  0  0  0  0  0  0  0  0
   56.3888   29.5477   42.2354 H   0  0  0  0  0  0  0  0  0  0  0  0
   59.6865   32.8262   44.8002 H   0  0  0  0  0  0  0  0  0  0  0  0
   59.4395   34.6047   44.7554 H   0  0  0  0  0  0  0  0  0  0  0  0
   62.5045   32.2688   48.4539 H   0  0  0  0  0  0  0  0  0  0  0  0
   60.8825   32.9290   48.9087 H   0  0  0  0  0  0  0  0  0  0  0  0
   61.3346   30.2326   47.5499 H   0  0  0  0  0  0  0  0  0  0  0  0
   61.1181   30.4816   49.3333 H   0  0  0  0  0  0  0  0  0  0  0  0
   60.4600   30.7796   45.5703 H   0  0  0  0  0  0  0  0  0  0  0  0
   60.4729   29.1198   43.7043 H   0  0  0  0  0  0  0  0  0  0  0  0
   59.1018   27.0398   43.8711 H   0  0  0  0  0  0  0  0  0  0  0  0
   57.7075   26.6218   45.8991 H   0  0  0  0  0  0  0  0  0  0  0  0
   57.6881   28.2787   47.7662 H   0  0  0  0  0  0  0  0  0  0  0  0
  1  2  1  0
  2  3  2  0
  3  4  1  0
  4  5  2  0
  4  6  1  0
  6  7  2  0
  7  8  1  0
  8  9  1  0
  9 10  1  0
 10 11  2  0
 10 12  1  0
 12 13  1  0
 13 14  1  0
 14 15  1  0
 15 16  1  0
 16 17  2  0
 17 18  1  0
 18 19  2  0
 19 20  1  0
 20 21  2  0
  7 22  1  0
 22  2  1  0
 21 16  1  0
  1 23  1  0
  1 24  1  0
  3 25  1  0
  9 26  1  0
  9 27  1  0
 13 28  1  0
 13 29  1  0
 14 30  1  0
 14 31  1  0
 17 32  1  0
 18 33  1  0
 19 34  1  0
 20 35  1  0
 21 36  1  0
M  CHG  2  12  -1  22  -1
M  END
>  <UniqueID>  (13) 
13

>  <SMILES>  (13) 
Nc1cc(=O)nc(SCC(=O)[N-]CCSc2ccccc2)[n-]1

>  <Energy>  (13) 
23.94938420889707

>  <Genealogy>  (13) 
Nc1cc(=O)nc(SCC(=O)[N-]CCSc2ccccc2)[n-]1 (protonated)
Nc1cc(=O)nc(SCC(=O)[N-]CCSc2ccccc2)[n-]1 (3D coordinates assigned)
Nc1cc(=O)nc(SCC(=O)[N-]CCSc2ccccc2)[n-]1 (optimized conformer: 23.94938420889707 kcal/mol)

>  <smiles>  (13) 
Nc1cc(=O)nc(SCC(=O)NCCSc2ccccc2)[nH]1

>  <score_type>  (13) 
oracle

>  <origin>  (13) 
adg

>  <m_score__min__energy>  (13) 
-11.49

>  <m_primary>  (13) 
energy

$$$$
13:0
     RDKit          3D

 44 44  0  0  0  0  0  0  0  0999 V2000
   62.4630   33.5410   47.1210 C   0  0  0  0  0  0  0  0  0  0  0  0
   61.1450   33.8300   46.4010 C   0  0  0  0  0  0  0  0  0  0  0  0
   59.9120   33.3670   47.1960 C   0  0  0  0  0  0  0  0  0  0  0  0
   58.6660   34.2530   47.0200 C   0  0  0  0  0  0  0  0  0  0  0  0
   58.2400   34.3980   45.5480 C   0  0  0  0  0  0  0  0  0  0  0  0
   57.0210   33.5300   45.2020 C   0  0  0  0  0  0  0  0  0  0  0  0
   57.4010   32.2650   44.4210 C   0  0  0  0  0  0  0  0  0  0  0  0
   57.2630   31.0870   45.2710 N   0  0  0  0  0  0  0  0  0  0  0  0
   56.8650   29.8050   44.7820 C   0  0  0  0  0  0  0  0  0  0  0  0
   56.4800   29.6720   43.5880 O   0  0  0  0  0  0  0  0  0  0  0  0
   56.9600   28.6970   45.6310 O   0  0  0  0  0  0  0  0  0  0  0  0
   58.1620   28.1590   46.1150 C   0  0  0  0  0  0  0  0  0  0  0  0
   59.1120   28.9680   46.7670 C   0  0  0  0  0  0  0  0  0  0  0  0
   60.3040   28.4170   47.2390 C   0  0  0  0  0  0  0  0  0  0  0  0
   60.5650   27.0570   47.0620 C   0  0  0  0  0  0  0  0  0  0  0  0
   59.6360   26.2460   46.4060 C   0  0  0  0  0  0  0  0  0  0  0  0
   58.4380   26.7910   45.9130 C   0  0  0  0  0  0  0  0  0  0  0  0
   57.4280   25.8900   45.2500 C   0  0  0  0  0  0  0  0  0  0  0  0
   56.2170   25.7410   46.1220 C   0  0  0  0  0  0  0  0  0  0  0  0
   55.1500   26.6880   46.0520 N   0  0  0  0  0  0  0  0  0  0  0  0
   56.1600   24.7970   46.9540 O   0  0  0  0  0  0  0  0  0  0  0  0
   62.3021   33.5763   48.2086 H   0  0  0  0  0  0  0  0  0  0  0  0
   62.8251   32.5421   46.8361 H   0  0  0  0  0  0  0  0  0  0  0  0
   63.2098   34.2967   46.8361 H   0  0  0  0  0  0  0  0  0  0  0  0
   61.0674   34.9144   46.2337 H   0  0  0  0  0  0  0  0  0  0  0  0
   61.1566   33.2686   45.4551 H   0  0  0  0  0  0  0  0  0  0  0  0
   59.6569   32.3477   46.8705 H   0  0  0  0  0  0  0  0  0  0  0  0
   60.1874   33.4243   48.2594 H   0  0  0  0  0  0  0  0  0  0  0  0
   57.8343   33.8058   47.5841 H   0  0  0  0  0  0  0  0  0  0  0  0
   58.9184   35.2569   47.3921 H   0  0  0  0  0  0  0  0  0  0  0  0
   57.9894   35.4516   45.3551 H   0  0  0  0  0  0  0  0  0  0  0  0
   59.0794   34.0616   44.9217 H   0  0  0  0  0  0  0  0  0  0  0  0
   56.5243   33.2312   46.1369 H   0  0  0  0  0  0  0  0  0  0  0  0
   56.3555   34.1291   44.5631 H   0  0  0  0  0  0  0  0  0  0  0  0
   56.7381   32.1635   43.5491 H   0  0  0  0  0  0  0  0  0  0  0  0
   58.4468   32.3482   44.0902 H   0  0  0  0  0  0  0  0  0  0  0  0
   58.9134   30.0411   46.9052 H   0  0  0  0  0  0  0  0  0  0  0  0
   61.0391   29.0552   47.7513 H   0  0  0  0  0  0  0  0  0  0  0  0
   61.5030   26.6237   47.4394 H   0  0  0  0  0  0  0  0  0  0  0  0
   59.8434   25.1738   46.2744 H   0  0  0  0  0  0  0  0  0  0  0  0
   57.1298   26.3262   44.2852 H   0  0  0  0  0  0  0  0  0  0  0  0
   57.8799   24.8999   45.0904 H   0  0  0  0  0  0  0  0  0  0  0  0
   55.1880   27.4920   45.3870 H   0  0  0  0  0  0  0  0  0  0  0  0
   54.3240   26.5960   46.6860 H   0  0  0  0  0  0  0  0  0  0  0  0
  1  2  1  0
  2  3  1  0
  3  4  1  0
  4  5  1  0
  5  6  1  0
  6  7  1  0
  7  8  1  0
  8  9  1  0
  9 10  2  0
  9 11  1  0
 11 12  1  0
 12 13  2  0
 13 14  1  0
 14 15  2  0
 15 16  1  0
 16 17  2  0
 17 18  1  0
 18 19  1  0
 19 20  1  0
 19 21  2  0
 17 12  1  0
  1 22  1  0
  1 23  1  0
  1 24  1  0
  2 25  1  0
  2 26  1  0
  3 27  1  0
  3 28  1  0
  4 29  1  0
  4 30  1  0
  5 31  1  0
  5 32  1  0
  6 33  1  0
  6 34  1  0
  7 35  1  0
  7 36  1  0
 13 37  1  0
 14 38  1  0
 15 39  1  0
 16 40  1  0
 18 41  1  0
 18 42  1  0
 20 43  1  0
 20 44  1  0
M  CHG  1   8  -1
M  END
>  <UniqueID>  (14) 
14

>  <SMILES>  (14) 
CCCCCCC[N-]C(=O)Oc1ccccc1CC(N)=O

>  <Energy>  (14) 
30.76972471156523

>  <Genealogy>  (14) 
CCCCCCC[N-]C(=O)Oc1ccccc1CC(N)=O (protonated)
CCCCCCC[N-]C(=O)Oc1ccccc1CC(N)=O (3D coordinates assigned)
CCCCCCC[N-]C(=O)Oc1ccccc1CC(N)=O (optimized conformer: 30.76972471156523 kcal/mol)

>  <smiles>  (14) 
CCCCCCCNC(=O)Oc1ccccc1CC(N)=O

>  <score_type>  (14) 
oracle

>  <origin>  (14) 
adg

>  <m_score__min__energy>  (14) 
-9.1099999999999994

>  <m_primary>  (14) 
energy

$$$$
14:0
     RDKit          3D

 65 69  0  0  0  0  0  0  0  0999 V2000
   55.9520   29.8220   43.0530 C   0  0  0  0  0  0  0  0  0  0  0  0
   56.1840   30.6120   44.2530 N   0  0  0  0  0  0  0  0  0  0  0  0
   57.0350   30.2960   45.1830 C   0  0  0  0  0  0  0  0  0  0  0  0
   57.2860   28.9870   45.4320 N   0  0  0  0  0  0  0  0  0  0  0  0
   58.1620   28.6250   46.4020 C   0  0  0  0  0  0  0  0  0  0  0  0
   58.4070   27.3610   46.5930 N   0  0  0  0  0  0  0  0  0  0  0  0
   57.6870   26.2430   46.0440 C   0  0  0  0  0  0  0  0  0  0  0  0
   56.6680   25.5820   46.7570 C   0  0  0  0  0  0  0  0  0  0  0  0
   55.9630   24.5280   46.1650 C   0  0  0  0  0  0  0  0  0  0  0  0
   56.2580   24.1310   44.8550 C   0  0  0  0  0  0  0  0  0  0  0  0
   55.3580   22.8280   44.0870 S   0  0  0  0  0  0  0  0  0  0  0  0
   54.3950   22.0240   45.2750 N   0  0  0  0  0  0  0  0  0  0  0  0
   54.4690   23.3990   43.0160 O   0  0  0  0  0  0  0  0  0  0  0  0
   56.3020   21.8440   43.4570 O   0  0  0  0  0  0  0  0  0  0  0  0
   57.2530   24.8020   44.1370 C   0  0  0  0  0  0  0  0  0  0  0  0
   57.9590   25.8530   44.7250 C   0  0  0  0  0  0  0  0  0  0  0  0
   58.7950   29.5870   47.1240 N   0  0  0  0  0  0  0  0  0  0  0  0
   58.5400   30.9020   46.8980 C   0  0  0  0  0  0  0  0  0  0  0  0
   59.1530   31.7920   47.6240 N   0  0  0  0  0  0  0  0  0  0  0  0
   60.5470   32.1620   47.6240 C   0  0  0  0  0  0  0  0  0  0  0  0
   61.0660   33.1380   46.7490 C   0  0  0  0  0  0  0  0  0  0  0  0
   62.4030   33.5350   46.8460 C   0  0  0  0  0  0  0  0  0  0  0  0
   63.2240   32.9920   47.8350 C   0  0  0  0  0  0  0  0  0  0  0  0
   62.7100   32.0530   48.7320 C   0  0  0  0  0  0  0  0  0  0  0  0
   61.3820   31.6250   48.6250 C   0  0  0  0  0  0  0  0  0  0  0  0
   60.9070   30.6500   49.5170 O   0  0  0  0  0  0  0  0  0  0  0  0
   60.2280   30.9580   50.7070 C   0  0  0  0  0  0  0  0  0  0  0  0
   60.9520   31.1440   51.8860 C   0  0  0  0  0  0  0  0  0  0  0  0
   60.2890   31.4760   53.0730 C   0  0  0  0  0  0  0  0  0  0  0  0
   58.8960   31.6070   53.0890 C   0  0  0  0  0  0  0  0  0  0  0  0
   58.1410   31.3740   51.9210 C   0  0  0  0  0  0  0  0  0  0  0  0
   56.6510   31.4150   51.9910 C   0  0  0  0  0  0  0  0  0  0  0  0
   56.0880   32.4710   52.3790 O   0  0  0  0  0  0  0  0  0  0  0  0
   55.8410   30.2400   51.8190 N   0  0  0  0  0  0  0  0  0  0  0  0
   54.4200   30.1670   51.9640 C   0  0  0  0  0  0  0  0  0  0  0  0
   53.8140   29.0870   52.6270 C   0  0  0  0  0  0  0  0  0  0  0  0
   52.4310   29.0900   52.8370 C   0  0  0  0  0  0  0  0  0  0  0  0
   51.6490   30.1550   52.3720 C   0  0  0  0  0  0  0  0  0  0  0  0
   52.2400   31.2230   51.6740 C   0  0  0  0  0  0  0  0  0  0  0  0
   51.4040   32.3340   51.1680 C   0  0  0  0  0  0  0  0  0  0  0  0
   51.3800   32.6100   49.9390 O   0  0  0  0  0  0  0  0  0  0  0  0
   50.6140   33.0710   52.0460 O   0  0  0  0  0  0  0  0  0  0  0  0
   53.6330   31.2170   51.4690 C   0  0  0  0  0  0  0  0  0  0  0  0
   58.8280   31.0560   50.7370 C   0  0  0  0  0  0  0  0  0  0  0  0
   57.6700   31.2540   45.9130 N   0  0  0  0  0  0  0  0  0  0  0  0
   55.6526   28.8025   43.3374 H   0  0  0  0  0  0  0  0  0  0  0  0
   55.1523   30.2863   42.4573 H   0  0  0  0  0  0  0  0  0  0  0  0
   56.8758   29.7801   42.4573 H   0  0  0  0  0  0  0  0  0  0  0  0
   56.4254   25.8954   47.7831 H   0  0  0  0  0  0  0  0  0  0  0  0
   55.1746   24.0097   46.7306 H   0  0  0  0  0  0  0  0  0  0  0  0
   54.1710   21.0770   44.8940 H   0  0  0  0  0  0  0  0  0  0  0  0
   57.4804   24.5002   43.1040 H   0  0  0  0  0  0  0  0  0  0  0  0
   58.7346   26.3792   44.1491 H   0  0  0  0  0  0  0  0  0  0  0  0
   60.4154   33.5897   45.9857 H   0  0  0  0  0  0  0  0  0  0  0  0
   62.8083   34.2764   46.1417 H   0  0  0  0  0  0  0  0  0  0  0  0
   64.2764   33.3036   47.9082 H   0  0  0  0  0  0  0  0  0  0  0  0
   63.3528   31.6475   49.5272 H   0  0  0  0  0  0  0  0  0  0  0  0
   62.0460   31.0294   51.8821 H   0  0  0  0  0  0  0  0  0  0  0  0
   60.8650   31.6345   53.9966 H   0  0  0  0  0  0  0  0  0  0  0  0
   58.3857   31.8941   54.0202 H   0  0  0  0  0  0  0  0  0  0  0  0
   54.4244   28.2425   52.9795 H   0  0  0  0  0  0  0  0  0  0  0  0
   51.9558   28.2528   53.3693 H   0  0  0  0  0  0  0  0  0  0  0  0
   50.5642   30.1559   52.5543 H   0  0  0  0  0  0  0  0  0  0  0  0
   54.1073   32.0416   50.9167 H   0  0  0  0  0  0  0  0  0  0  0  0
   58.2563   30.8801   49.8138 H   0  0  0  0  0  0  0  0  0  0  0  0
  1  2  1  0
  2  3  2  3
  3  4  1  0
  4  5  1  0
  5  6  2  3
  6  7  1  0
  7  8  2  0
  8  9  1  0
  9 10  2  0
 10 11  1  0
 11 12  1  0
 11 13  2  0
 11 14  2  0
 10 15  1  0
 15 16  2  0
  5 17  1  0
 17 18  1  0
 18 19  2  3
 19 20  1  0
 20 21  2  0
 21 22  1  0
 22 23  2  0
 23 24  1  0
 24 25  2  0
 25 26  1  0
 26 27  1  0
 27 28  2  0
 28 29  1  0
 29 30  2  0
 30 31  1  0
 31 32  1  0
 32 33  2  0
 32 34  1  0
 34 35  1  0
 35 36  2  0
 36 37  1  0
 37 38  2  0
 38 39  1  0
 39 40  1  0
 40 41  2  0
 40 42  1  0
 39 43  2  0
 31 44  2  0
 18 45  1  0
 45  3  1  0
 16  7  1  0
 25 20  1  0
 44 27  1  0
 43 35  1  0
  1 46  1  0
  1 47  1  0
  1 48  1  0
  8 49  1  0
  9 50  1  0
 12 51  1  0
 15 52  1  0
 16 53  1  0
 21 54  1  0
 22 55  1  0
 23 56  1  0
 24 57  1  0
 28 58  1  0
 29 59  1  0
 30 60  1  0
 36 61  1  0
 37 62  1  0
 38 63  1  0
 43 64  1  0
 44 65  1  0
M  CHG  6   4  -1  12  -1  17  -1  34  -1  42  -1  45  -1
M  END
>  <UniqueID>  (15) 
15

>  <SMILES>  (15) 
CN=c1[n-]c(=Nc2ccc(S([NH-])(=O)=O)cc2)[n-]c(=Nc2ccccc2Oc2cccc(C(=O)[N-]c3cccc(C(=O)[O-])c3)c2)[n-]1

>  <Energy>  (15) 
101.87256208736137

>  <Genealogy>  (15) 
CN=c1[n-]c(=Nc2ccc(S([NH-])(=O)=O)cc2)[n-]c(=Nc2ccccc2Oc2cccc(C(=O)[N-]c3cccc(C(=O)[O-])c3)c2)[n-]1 (protonated)
CN=c1[n-]c(=Nc2ccc(S([NH-])(=O)=O)cc2)[n-]c(=Nc2ccccc2Oc2cccc(C(=O)[N-]c3cccc(C(=O)[O-])c3)c2)[n-]1 (3D coordinates assigned)
CN=c1[n-]c(=Nc2ccc(S([NH-])(=O)=O)cc2)[n-]c(=Nc2ccccc2Oc2cccc(C(=O)[N-]c3cccc(C(=O)[O-])c3)c2)[n-]1 (optimized conformer: 101.87256208736137 kcal/mol)

>  <smiles>  (15) 
CN=c1[nH]c(=Nc2ccc(S(N)(=O)=O)cc2)[nH]c(=Nc2ccccc2Oc2cccc(C(=O)Nc3cccc(C(=O)O)c3)c2)[nH]1

>  <score_type>  (15) 
oracle

>  <origin>  (15) 
adg

>  <m_score__min__energy>  (15) 
-23.32

>  <m_primary>  (15) 
energy

$$$$
15:0
     RDKit          3D

 64 68  0  0  0  0  0  0  0  0999 V2000
   60.0190   28.6580   49.4510 C   0  0  0  0  0  0  0  0  0  0  0  0
   60.6490   28.1690   50.6740 N   0  0  0  0  0  0  0  0  0  0  0  0
   60.8140   26.8710   50.9960 C   0  0  0  0  0  0  0  0  0  0  0  0
   61.4130   26.7650   52.2330 C   0  0  0  0  0  0  0  0  0  0  0  0
   61.6180   28.0510   52.6850 C   0  0  0  0  0  0  0  0  0  0  0  0
   61.1320   28.9020   51.7060 C   0  0  0  0  0  0  0  0  0  0  0  0
   61.0840   30.3820   51.7970 C   0  0  0  0  0  0  0  0  0  0  0  0
   62.0790   31.0430   51.3910 O   0  0  0  0  0  0  0  0  0  0  0  0
   59.9340   31.0860   52.3210 N   0  0  0  0  0  0  0  0  0  0  0  0
   60.1010   32.3580   53.0450 C   0  0  0  0  0  0  0  0  0  0  0  0
   59.4230   33.5540   52.3360 C   0  0  0  0  0  0  0  0  0  0  0  0
   59.6230   33.6230   50.8080 C   0  0  0  0  0  0  0  0  0  0  0  0
   59.2560   32.3780   50.1130 N   0  0  0  0  0  0  0  0  0  0  0  0
   59.8270   32.1330   48.8130 C   0  0  0  0  0  0  0  0  0  0  0  0
   60.8170   31.3590   48.7050 O   0  0  0  0  0  0  0  0  0  0  0  0
   59.2500   32.7450   47.5960 C   0  0  0  0  0  0  0  0  0  0  0  0
   58.9240   31.9380   46.4940 C   0  0  0  0  0  0  0  0  0  0  0  0
   58.3750   32.5020   45.3300 C   0  0  0  0  0  0  0  0  0  0  0  0
   58.0630   31.6250   44.1450 C   0  0  0  0  0  0  0  0  0  0  0  0
   57.5050   30.3000   44.5990 C   0  0  0  0  0  0  0  0  0  0  0  0
   56.1620   30.1060   44.4940 N   0  0  0  0  0  0  0  0  0  0  0  0
   55.5710   28.9940   44.9260 N   0  0  0  0  0  0  0  0  0  0  0  0
   56.2780   27.9920   45.5020 C   0  0  0  0  0  0  0  0  0  0  0  0
   55.6740   26.9620   45.9050 O   0  0  0  0  0  0  0  0  0  0  0  0
   57.6680   28.1120   45.6420 C   0  0  0  0  0  0  0  0  0  0  0  0
   58.2960   29.2950   45.2010 C   0  0  0  0  0  0  0  0  0  0  0  0
   59.7230   29.4270   45.3380 N   0  0  0  0  0  0  0  0  0  0  0  0
   60.4900   28.4950   46.1590 C   0  0  0  0  0  0  0  0  0  0  0  0
   59.9550   27.0780   45.9670 C   0  0  0  0  0  0  0  0  0  0  0  0
   58.4680   27.0250   46.3300 C   0  0  0  0  0  0  0  0  0  0  0  0
   58.1480   33.8870   45.2790 C   0  0  0  0  0  0  0  0  0  0  0  0
   58.4780   34.6950   46.3690 C   0  0  0  0  0  0  0  0  0  0  0  0
   59.0350   34.1330   47.5200 C   0  0  0  0  0  0  0  0  0  0  0  0
   59.3280   34.9390   48.5720 F   0  0  0  0  0  0  0  0  0  0  0  0
   58.1590   31.5240   50.5970 C   0  0  0  0  0  0  0  0  0  0  0  0
   58.6020   30.7030   51.8150 C   0  0  0  0  0  0  0  0  0  0  0  0
   59.1745   29.3135   49.7103 H   0  0  0  0  0  0  0  0  0  0  0  0
   60.7546   29.2240   48.8606 H   0  0  0  0  0  0  0  0  0  0  0  0
   59.6532   27.8050   48.8606 H   0  0  0  0  0  0  0  0  0  0  0  0
   60.5148   26.0212   50.3648 H   0  0  0  0  0  0  0  0  0  0  0  0
   61.6763   25.8347   52.7576 H   0  0  0  0  0  0  0  0  0  0  0  0
   62.0789   28.3449   53.6396 H   0  0  0  0  0  0  0  0  0  0  0  0
   59.6613   32.2504   54.0475 H   0  0  0  0  0  0  0  0  0  0  0  0
   61.1793   32.5712   53.0885 H   0  0  0  0  0  0  0  0  0  0  0  0
   58.3424   33.4965   52.5337 H   0  0  0  0  0  0  0  0  0  0  0  0
   59.9020   34.4565   52.7434 H   0  0  0  0  0  0  0  0  0  0  0  0
   59.0017   34.4396   50.4116 H   0  0  0  0  0  0  0  0  0  0  0  0
   60.6951   33.7911   50.6283 H   0  0  0  0  0  0  0  0  0  0  0  0
   59.1002   30.8533   46.5425 H   0  0  0  0  0  0  0  0  0  0  0  0
   57.3228   32.1295   43.5066 H   0  0  0  0  0  0  0  0  0  0  0  0
   58.9909   31.4454   43.5821 H   0  0  0  0  0  0  0  0  0  0  0  0
   60.2590   30.1220   44.7770 H   0  0  0  0  0  0  0  0  0  0  0  0
   61.5480   28.5298   45.8599 H   0  0  0  0  0  0  0  0  0  0  0  0
   60.3952   28.7794   47.2174 H   0  0  0  0  0  0  0  0  0  0  0  0
   60.0842   26.7793   44.9163 H   0  0  0  0  0  0  0  0  0  0  0  0
   60.5109   26.3907   46.6217 H   0  0  0  0  0  0  0  0  0  0  0  0
   58.0655   26.0462   46.0300 H   0  0  0  0  0  0  0  0  0  0  0  0
   58.3814   27.1800   47.4156 H   0  0  0  0  0  0  0  0  0  0  0  0
   57.7084   34.3371   44.3767 H   0  0  0  0  0  0  0  0  0  0  0  0
   58.2985   35.7792   46.3210 H   0  0  0  0  0  0  0  0  0  0  0  0
   57.3067   32.1587   50.8810 H   0  0  0  0  0  0  0  0  0  0  0  0
   57.8707   30.8318   49.7922 H   0  0  0  0  0  0  0  0  0  0  0  0
   57.8671   30.8481   52.6205 H   0  0  0  0  0  0  0  0  0  0  0  0
   58.6634   29.6521   51.4960 H   0  0  0  0  0  0  0  0  0  0  0  0
  1  2  1  0
  2  3  1  0
  3  4  2  0
  4  5  1  0
  5  6  2  0
  6  7  1  0
  7  8  2  0
  7  9  1  0
  9 10  1  0
 10 11  1  0
 11 12  1  0
 12 13  1  0
 13 14  1  0
 14 15  2  0
 14 16  1  0
 16 17  2  0
 17 18  1  0
 18 19  1  0
 19 20  1  0
 20 21  2  0
 21 22  1  0
 22 23  1  0
 23 24  2  0
 23 25  1  0
 25 26  2  0
 26 27  1  0
 27 28  1  0
 28 29  1  0
 29 30  1  0
 18 31  2  0
 31 32  1  0
 32 33  2  0
 33 34  1  0
 13 35  1  0
 35 36  1  0
  6  2  1  0
 36  9  1  0
 33 16  1  0
 26 20  1  0
 30 25  1  0
  1 37  1  0
  1 38  1  0
  1 39  1  0
  3 40  1  0
  4 41  1  0
  5 42  1  0
 10 43  1  0
 10 44  1  0
 11 45  1  0
 11 46  1  0
 12 47  1  0
 12 48  1  0
 17 49  1  0
 19 50  1  0
 19 51  1  0
 27 52  1  0
 28 53  1  0
 28 54  1  0
 29 55  1  0
 29 56  1  0
 30 57  1  0
 30 58  1  0
 31 59  1  0
 32 60  1  0
 35 61  1  0
 35 62  1  0
 36 63  1  0
 36 64  1  0
M  CHG  1  22  -1
M  END
>  <UniqueID>  (16) 
16

>  <SMILES>  (16) 
Cn1cccc1C(=O)N1CCCN(C(=O)c2cc(Cc3n[n-]c(=O)c4c3NCCC4)ccc2F)CC1

>  <Energy>  (16) 
111.25756607534356

>  <Genealogy>  (16) 
Cn1cccc1C(=O)N1CCCN(C(=O)c2cc(Cc3n[n-]c(=O)c4c3NCCC4)ccc2F)CC1 (protonated)
Cn1cccc1C(=O)N1CCCN(C(=O)c2cc(Cc3n[n-]c(=O)c4c3NCCC4)ccc2F)CC1 (3D coordinates assigned)
Cn1cccc1C(=O)N1CCCN(C(=O)c2cc(Cc3n[n-]c(=O)c4c3NCCC4)ccc2F)CC1 (nonaromatic ring conformer: 111.25756607534356 kcal/mol)

>  <smiles>  (16) 
Cn1cccc1C(=O)N1CCCN(C(=O)c2cc(Cc3n[nH]c(=O)c4c3NCCC4)ccc2F)CC1

>  <score_type>  (16) 
oracle

>  <origin>  (16) 
adg

>  <m_score__min__energy>  (16) 
-10.630000000000001

>  <m_primary>  (16) 
energy

$$$$
16:0
     RDKit          3D

 53 55  0  0  0  0  0  0  0  0999 V2000
   57.4040   31.5910   42.6020 C   0  0  0  0  0  0  0  0  0  0  0  0
   56.6530   31.0200   43.6670 O   0  0  0  0  0  0  0  0  0  0  0  0
   57.1670   30.1310   44.6230 C   0  0  0  0  0  0  0  0  0  0  0  0
   56.6870   28.8130   44.7460 C   0  0  0  0  0  0  0  0  0  0  0  0
   57.1900   27.9610   45.7390 C   0  0  0  0  0  0  0  0  0  0  0  0
   56.5840   26.3110   45.8650 S   0  0  0  0  0  0  0  0  0  0  0  0
   54.8620   26.3410   46.0060 N   0  0  0  0  0  0  0  0  0  0  0  0
   56.9680   25.5200   44.6430 O   0  0  0  0  0  0  0  0  0  0  0  0
   57.1790   25.6480   47.0770 O   0  0  0  0  0  0  0  0  0  0  0  0
   58.1790   28.4250   46.6150 C   0  0  0  0  0  0  0  0  0  0  0  0
   58.6590   29.7310   46.5030 C   0  0  0  0  0  0  0  0  0  0  0  0
   58.1760   30.5820   45.5000 C   0  0  0  0  0  0  0  0  0  0  0  0
   58.6750   31.9260   45.4270 N   0  0  0  0  0  0  0  0  0  0  0  0
   57.8910   33.0640   45.8010 C   0  0  0  0  0  0  0  0  0  0  0  0
   56.6330   33.0170   45.7380 O   0  0  0  0  0  0  0  0  0  0  0  0
   58.5600   34.2890   46.3400 C   0  0  0  0  0  0  0  0  0  0  0  0
   59.3690   33.9150   47.5520 C   0  0  0  0  0  0  0  0  0  0  0  0
   60.5510   34.6090   47.8540 C   0  0  0  0  0  0  0  0  0  0  0  0
   61.3400   34.2170   48.9380 C   0  0  0  0  0  0  0  0  0  0  0  0
   60.9600   33.1240   49.7230 C   0  0  0  0  0  0  0  0  0  0  0  0
   59.7920   32.4120   49.4220 C   0  0  0  0  0  0  0  0  0  0  0  0
   59.3310   31.0400   50.4250 S   0  0  0  0  0  0  0  0  0  0  0  0
   58.3160   30.1940   49.7060 O   0  0  0  0  0  0  0  0  0  0  0  0
   60.5560   30.2070   50.6830 O   0  0  0  0  0  0  0  0  0  0  0  0
   58.6740   31.6410   51.9330 N   0  0  0  0  0  0  0  0  0  0  0  0
   57.3090   32.1880   51.7610 C   0  0  0  0  0  0  0  0  0  0  0  0
   56.2140   31.2000   52.2020 C   0  0  0  0  0  0  0  0  0  0  0  0
   56.6220   29.8740   51.9470 O   0  0  0  0  0  0  0  0  0  0  0  0
   57.6800   29.5120   52.8140 C   0  0  0  0  0  0  0  0  0  0  0  0
   58.7400   30.6260   52.9980 C   0  0  0  0  0  0  0  0  0  0  0  0
   58.9990   32.8070   48.3350 C   0  0  0  0  0  0  0  0  0  0  0  0
   58.2155   32.2080   43.0152 H   0  0  0  0  0  0  0  0  0  0  0  0
   57.8322   30.7883   41.9837 H   0  0  0  0  0  0  0  0  0  0  0  0
   56.7450   32.2182   41.9837 H   0  0  0  0  0  0  0  0  0  0  0  0
   55.9107   28.4488   44.0570 H   0  0  0  0  0  0  0  0  0  0  0  0
   54.6240   27.0970   46.6830 H   0  0  0  0  0  0  0  0  0  0  0  0
   58.5787   27.7586   47.3935 H   0  0  0  0  0  0  0  0  0  0  0  0
   59.4218   30.0947   47.2071 H   0  0  0  0  0  0  0  0  0  0  0  0
   59.6360   32.0850   45.0470 H   0  0  0  0  0  0  0  0  0  0  0  0
   59.2224   34.7151   45.5721 H   0  0  0  0  0  0  0  0  0  0  0  0
   57.8003   35.0347   46.6171 H   0  0  0  0  0  0  0  0  0  0  0  0
   60.8572   35.4649   47.2346 H   0  0  0  0  0  0  0  0  0  0  0  0
   62.2616   34.7690   49.1744 H   0  0  0  0  0  0  0  0  0  0  0  0
   61.5804   32.8224   50.5798 H   0  0  0  0  0  0  0  0  0  0  0  0
   57.2188   33.1048   52.3621 H   0  0  0  0  0  0  0  0  0  0  0  0
   57.1638   32.3888   50.6893 H   0  0  0  0  0  0  0  0  0  0  0  0
   56.0273   31.3218   53.2792 H   0  0  0  0  0  0  0  0  0  0  0  0
   55.2943   31.4075   51.6353 H   0  0  0  0  0  0  0  0  0  0  0  0
   57.2549   29.2704   53.7993 H   0  0  0  0  0  0  0  0  0  0  0  0
   58.1918   28.6523   52.3568 H   0  0  0  0  0  0  0  0  0  0  0  0
   58.5713   31.1184   53.9670 H   0  0  0  0  0  0  0  0  0  0  0  0
   59.7336   30.1560   52.9541 H   0  0  0  0  0  0  0  0  0  0  0  0
   58.0832   32.2475   48.0936 H   0  0  0  0  0  0  0  0  0  0  0  0
  1  2  1  0
  2  3  1  0
  3  4  2  0
  4  5  1  0
  5  6  1  0
  6  7  1  0
  6  8  2  0
  6  9  2  0
  5 10  2  0
 10 11  1  0
 11 12  2  0
 12 13  1  0
 13 14  1  0
 14 15  2  0
 14 16  1  0
 16 17  1  0
 17 18  2  0
 18 19  1  0
 19 20  2  0
 20 21  1  0
 21 22  1  0
 22 23  2  0
 22 24  2  0
 22 25  1  0
 25 26  1  0
 26 27  1  0
 27 28  1  0
 28 29  1  0
 29 30  1  0
 21 31  2  0
 12  3  1  0
 31 17  1  0
 30 25  1  0
  1 32  1  0
  1 33  1  0
  1 34  1  0
  4 35  1  0
  7 36  1  0
 10 37  1  0
 11 38  1  0
 13 39  1  0
 16 40  1  0
 16 41  1  0
 18 42  1  0
 19 43  1  0
 20 44  1  0
 26 45  1  0
 26 46  1  0
 27 47  1  0
 27 48  1  0
 29 49  1  0
 29 50  1  0
 30 51  1  0
 30 52  1  0
 31 53  1  0
M  CHG  1   7  -1
M  END
>  <UniqueID>  (17) 
17

>  <SMILES>  (17) 
COc1cc(S([NH-])(=O)=O)ccc1NC(=O)Cc1cccc(S(=O)(=O)N2CCOCC2)c1

>  <Energy>  (17) 
65.45640800116593

>  <Genealogy>  (17) 
COc1cc(S([NH-])(=O)=O)ccc1NC(=O)Cc1cccc(S(=O)(=O)N2CCOCC2)c1 (protonated)
COc1cc(S([NH-])(=O)=O)ccc1NC(=O)Cc1cccc(S(=O)(=O)N2CCOCC2)c1 (3D coordinates assigned)
COc1cc(S([NH-])(=O)=O)ccc1NC(=O)Cc1cccc(S(=O)(=O)N2CCOCC2)c1 (nonaromatic ring conformer: 65.45640800116593 kcal/mol)

>  <smiles>  (17) 
COc1cc(S(N)(=O)=O)ccc1NC(=O)Cc1cccc(S(=O)(=O)N2CCOCC2)c1

>  <score_type>  (17) 
oracle

>  <origin>  (17) 
adg

>  <m_score__min__energy>  (17) 
-11.99

>  <m_primary>  (17) 
energy

$$$$
17:0
     RDKit          3D

 39 41  0  0  0  0  0  0  0  0999 V2000
   55.3370   29.3250   44.8810 O   0  0  0  0  0  0  0  0  0  0  0  0
   56.5630   29.5380   45.0790 C   0  0  0  0  0  0  0  0  0  0  0  0
   57.0230   30.8940   45.1330 N   0  0  0  0  0  0  0  0  0  0  0  0
   58.0660   31.3950   45.9820 C   0  0  0  0  0  0  0  0  0  0  0  0
   58.8610   30.5210   46.7450 C   0  0  0  0  0  0  0  0  0  0  0  0
   59.8940   31.0200   47.5400 C   0  0  0  0  0  0  0  0  0  0  0  0
   60.1560   32.3900   47.5690 C   0  0  0  0  0  0  0  0  0  0  0  0
   59.3920   33.2700   46.7940 C   0  0  0  0  0  0  0  0  0  0  0  0
   59.7670   34.9880   46.8450 Cl  0  0  0  0  0  0  0  0  0  0  0  0
   58.3490   32.7730   45.9900 C   0  0  0  0  0  0  0  0  0  0  0  0
   57.3840   33.8720   45.0050 Cl  0  0  0  0  0  0  0  0  0  0  0  0
   57.4730   28.4420   45.2790 N   0  0  0  0  0  0  0  0  0  0  0  0
   57.0930   27.0570   45.2090 C   0  0  0  0  0  0  0  0  0  0  0  0
   56.0510   26.5400   45.9980 C   0  0  0  0  0  0  0  0  0  0  0  0
   55.7160   25.1840   45.9250 C   0  0  0  0  0  0  0  0  0  0  0  0
   56.4290   24.3270   45.0760 C   0  0  0  0  0  0  0  0  0  0  0  0
   56.0000   22.6230   44.9510 S   0  0  0  0  0  0  0  0  0  0  0  0
   54.6420   22.4160   45.5600 O   0  0  0  0  0  0  0  0  0  0  0  0
   55.9560   22.1860   43.5140 O   0  0  0  0  0  0  0  0  0  0  0  0
   57.1640   21.6640   45.8090 N   0  0  0  0  0  0  0  0  0  0  0  0
   57.1670   21.5160   47.0980 C   0  0  0  0  0  0  0  0  0  0  0  0
   57.0020   22.5860   47.9260 N   0  0  0  0  0  0  0  0  0  0  0  0
   57.0000   22.4330   49.2760 C   0  0  0  0  0  0  0  0  0  0  0  0
   57.1690   21.1660   49.8320 C   0  0  0  0  0  0  0  0  0  0  0  0
   57.3390   20.0820   48.9720 C   0  0  0  0  0  0  0  0  0  0  0  0
   57.3350   20.2760   47.6270 N   0  0  0  0  0  0  0  0  0  0  0  0
   57.4800   24.8350   44.3040 C   0  0  0  0  0  0  0  0  0  0  0  0
   57.8170   26.1890   44.3780 C   0  0  0  0  0  0  0  0  0  0  0  0
   58.6677   29.4385   46.7151 H   0  0  0  0  0  0  0  0  0  0  0  0
   60.5027   30.3318   48.1448 H   0  0  0  0  0  0  0  0  0  0  0  0
   60.9658   32.7799   48.2032 H   0  0  0  0  0  0  0  0  0  0  0  0
   58.4870   28.6520   45.4110 H   0  0  0  0  0  0  0  0  0  0  0  0
   55.4963   27.2051   46.6762 H   0  0  0  0  0  0  0  0  0  0  0  0
   54.8906   24.7892   46.5357 H   0  0  0  0  0  0  0  0  0  0  0  0
   56.8652   23.3077   49.9293 H   0  0  0  0  0  0  0  0  0  0  0  0
   57.1682   21.0249   50.9229 H   0  0  0  0  0  0  0  0  0  0  0  0
   57.4763   19.0705   49.3818 H   0  0  0  0  0  0  0  0  0  0  0  0
   58.0428   24.1659   43.6365 H   0  0  0  0  0  0  0  0  0  0  0  0
   58.6554   26.5769   43.7808 H   0  0  0  0  0  0  0  0  0  0  0  0
  1  2  2  0
  2  3  1  0
  3  4  1  0
  4  5  2  0
  5  6  1  0
  6  7  2  0
  7  8  1  0
  8  9  1  0
  8 10  2  0
 10 11  1  0
  2 12  1  0
 12 13  1  0
 13 14  2  0
 14 15  1  0
 15 16  2  0
 16 17  1  0
 17 18  2  0
 17 19  2  0
 17 20  1  0
 20 21  2  3
 21 22  1  0
 22 23  2  0
 23 24  1  0
 24 25  2  0
 25 26  1  0
 16 27  1  0
 27 28  2  0
 10  4  1  0
 28 13  1  0
 26 21  1  0
  5 29  1  0
  6 30  1  0
  7 31  1  0
 12 32  1  0
 14 33  1  0
 15 34  1  0
 23 35  1  0
 24 36  1  0
 25 37  1  0
 27 38  1  0
 28 39  1  0
M  CHG  2   3  -1  26  -1
M  END
>  <UniqueID>  (18) 
18

>  <SMILES>  (18) 
O=C([N-]c1cccc(Cl)c1Cl)Nc1ccc(S(=O)(=O)N=c2nccc[n-]2)cc1

>  <Energy>  (18) 
55.86397343320115

>  <Genealogy>  (18) 
O=C([N-]c1cccc(Cl)c1Cl)Nc1ccc(S(=O)(=O)N=c2nccc[n-]2)cc1 (protonated)
O=C([N-]c1cccc(Cl)c1Cl)Nc1ccc(S(=O)(=O)N=c2nccc[n-]2)cc1 (3D coordinates assigned)
O=C([N-]c1cccc(Cl)c1Cl)Nc1ccc(S(=O)(=O)N=c2nccc[n-]2)cc1 (optimized conformer: 55.86397343320115 kcal/mol)

>  <smiles>  (18) 
O=C(Nc1ccc(S(=O)(=O)N=c2nccc[nH]2)cc1)Nc1cccc(Cl)c1Cl

>  <score_type>  (18) 
oracle

>  <origin>  (18) 
adg

>  <m_score__min__energy>  (18) 
-11.92

>  <m_primary>  (18) 
energy

$$$$
18:0
     RDKit          3D

 69 72  0  0  0  0  0  0  0  0999 V2000
   59.6980   36.1060   45.9800 N   0  0  0  0  0  0  0  0  0  0  0  0
   60.1850   34.6190   46.7150 S   0  0  0  0  0  0  0  0  0  0  0  0
   60.1130   34.7530   48.2090 O   0  0  0  0  0  0  0  0  0  0  0  0
   61.6040   34.3100   46.3260 O   0  0  0  0  0  0  0  0  0  0  0  0
   59.1280   33.3200   46.1700 C   0  0  0  0  0  0  0  0  0  0  0  0
   58.4850   33.4000   44.9260 C   0  0  0  0  0  0  0  0  0  0  0  0
   57.6600   32.3580   44.4930 C   0  0  0  0  0  0  0  0  0  0  0  0
   57.4560   31.2330   45.3060 C   0  0  0  0  0  0  0  0  0  0  0  0
   56.6250   30.1490   44.8760 N   0  0  0  0  0  0  0  0  0  0  0  0
   56.8030   29.3870   43.6750 C   0  0  0  0  0  0  0  0  0  0  0  0
   56.2410   29.7840   42.6210 O   0  0  0  0  0  0  0  0  0  0  0  0
   57.7630   28.2250   43.6070 C   0  0  0  0  0  0  0  0  0  0  0  0
   57.9290   27.5590   44.9510 C   0  0  0  0  0  0  0  0  0  0  0  0
   57.4060   26.2780   45.1830 C   0  0  0  0  0  0  0  0  0  0  0  0
   57.5510   25.6730   46.4340 C   0  0  0  0  0  0  0  0  0  0  0  0
   58.2170   26.3420   47.4640 C   0  0  0  0  0  0  0  0  0  0  0  0
   58.7540   27.6200   47.2510 C   0  0  0  0  0  0  0  0  0  0  0  0
   59.3950   28.3040   48.3410 N   0  0  0  0  0  0  0  0  0  0  0  0
   60.3270   29.3840   48.1770 C   0  0  0  0  0  0  0  0  0  0  0  0
   60.9660   29.5140   47.0960 O   0  0  0  0  0  0  0  0  0  0  0  0
   60.6200   30.2990   49.3370 C   0  0  0  0  0  0  0  0  0  0  0  0
   61.3590   29.5590   50.4650 C   0  0  0  0  0  0  0  0  0  0  0  0
   61.7820   30.5590   51.5520 C   0  0  0  0  0  0  0  0  0  0  0  0
   60.7310   31.5580   51.8140 N   0  0  0  0  0  0  0  0  0  0  0  0
   61.0370   32.7840   52.5160 C   0  0  0  0  0  0  0  0  0  0  0  0
   60.2450   33.7640   52.4340 O   0  0  0  0  0  0  0  0  0  0  0  0
   62.3350   32.9620   53.2730 C   0  0  0  0  0  0  0  0  0  0  0  0
   63.3330   33.8740   52.5430 C   0  0  0  0  0  0  0  0  0  0  0  0
   63.4730   33.4970   51.0900 C   0  0  0  0  0  0  0  0  0  0  0  0
   64.3300   32.4480   50.7140 C   0  0  0  0  0  0  0  0  0  0  0  0
   64.4710   32.1040   49.3650 C   0  0  0  0  0  0  0  0  0  0  0  0
   63.7640   32.8040   48.3850 C   0  0  0  0  0  0  0  0  0  0  0  0
   62.9150   33.8530   48.7510 C   0  0  0  0  0  0  0  0  0  0  0  0
   62.7710   34.2020   50.0970 C   0  0  0  0  0  0  0  0  0  0  0  0
   59.3590   31.2830   51.3600 C   0  0  0  0  0  0  0  0  0  0  0  0
   59.3240   30.9700   49.8530 C   0  0  0  0  0  0  0  0  0  0  0  0
   58.5900   28.2310   45.9950 C   0  0  0  0  0  0  0  0  0  0  0  0
   58.1300   31.1350   46.5300 C   0  0  0  0  0  0  0  0  0  0  0  0
   58.9550   32.1760   46.9650 C   0  0  0  0  0  0  0  0  0  0  0  0
   59.6130   36.8130   46.7470 H   0  0  0  0  0  0  0  0  0  0  0  0
   58.6304   34.2852   44.2894 H   0  0  0  0  0  0  0  0  0  0  0  0
   57.1687   32.4203   43.5108 H   0  0  0  0  0  0  0  0  0  0  0  0
   57.3785   27.4865   42.8882 H   0  0  0  0  0  0  0  0  0  0  0  0
   58.7442   28.6088   43.2909 H   0  0  0  0  0  0  0  0  0  0  0  0
   56.8793   25.7474   44.3761 H   0  0  0  0  0  0  0  0  0  0  0  0
   57.1399   24.6677   46.6084 H   0  0  0  0  0  0  0  0  0  0  0  0
   58.3209   25.8631   48.4488 H   0  0  0  0  0  0  0  0  0  0  0  0
   59.1970   27.9760   49.3140 H   0  0  0  0  0  0  0  0  0  0  0  0
   61.2893   31.0943   48.9770 H   0  0  0  0  0  0  0  0  0  0  0  0
   60.6919   28.8025   50.9041 H   0  0  0  0  0  0  0  0  0  0  0  0
   62.2538   29.0692   50.0534 H   0  0  0  0  0  0  0  0  0  0  0  0
   61.9897   30.0083   52.4813 H   0  0  0  0  0  0  0  0  0  0  0  0
   62.6784   31.0897   51.1988 H   0  0  0  0  0  0  0  0  0  0  0  0
   62.1106   33.4028   54.2555 H   0  0  0  0  0  0  0  0  0  0  0  0
   62.8014   31.9701   53.3660 H   0  0  0  0  0  0  0  0  0  0  0  0
   62.9801   34.9137   52.6091 H   0  0  0  0  0  0  0  0  0  0  0  0
   64.3161   33.7602   53.0231 H   0  0  0  0  0  0  0  0  0  0  0  0
   64.8913   31.8961   51.4824 H   0  0  0  0  0  0  0  0  0  0  0  0
   65.1403   31.2803   49.0758 H   0  0  0  0  0  0  0  0  0  0  0  0
   63.8750   32.5302   47.3254 H   0  0  0  0  0  0  0  0  0  0  0  0
   62.3594   34.4046   47.9784 H   0  0  0  0  0  0  0  0  0  0  0  0
   62.1060   35.0312   50.3801 H   0  0  0  0  0  0  0  0  0  0  0  0
   58.9635   30.4196   51.9152 H   0  0  0  0  0  0  0  0  0  0  0  0
   58.7450   32.1768   51.5447 H   0  0  0  0  0  0  0  0  0  0  0  0
   58.4787   30.2942   49.6563 H   0  0  0  0  0  0  0  0  0  0  0  0
   59.2201   31.9285   49.3234 H   0  0  0  0  0  0  0  0  0  0  0  0
   58.9826   29.2448   45.8273 H   0  0  0  0  0  0  0  0  0  0  0  0
   58.0095   30.2353   47.1513 H   0  0  0  0  0  0  0  0  0  0  0  0
   59.4705   32.0986   47.9336 H   0  0  0  0  0  0  0  0  0  0  0  0
  1  2  1  0
  2  3  2  0
  2  4  2  0
  2  5  1  0
  5  6  2  0
  6  7  1  0
  7  8  2  0
  8  9  1  0
  9 10  1  0
 10 11  2  0
 10 12  1  0
 12 13  1  0
 13 14  2  0
 14 15  1  0
 15 16  2  0
 16 17  1  0
 17 18  1  0
 18 19  1  0
 19 20  2  0
 19 21  1  0
 21 22  1  0
 22 23  1  0
 23 24  1  0
 24 25  1  0
 25 26  2  0
 25 27  1  0
 27 28  1  0
 28 29  1  0
 29 30  2  0
 30 31  1  0
 31 32  2  0
 32 33  1  0
 33 34  2  0
 24 35  1  0
 35 36  1  0
 17 37  2  0
  8 38  1  0
 38 39  2  0
 39  5  1  0
 37 13  1  0
 36 21  1  0
 34 29  1  0
  1 40  1  0
  6 41  1  0
  7 42  1  0
 12 43  1  0
 12 44  1  0
 14 45  1  0
 15 46  1  0
 16 47  1  0
 18 48  1  0
 21 49  1  0
 22 50  1  0
 22 51  1  0
 23 52  1  0
 23 53  1  0
 27 54  1  0
 27 55  1  0
 28 56  1  0
 28 57  1  0
 30 58  1  0
 31 59  1  0
 32 60  1  0
 33 61  1  0
 34 62  1  0
 35 63  1  0
 35 64  1  0
 36 65  1  0
 36 66  1  0
 37 67  1  0
 38 68  1  0
 39 69  1  0
M  CHG  2   1  -1   9  -1
M  END
>  <UniqueID>  (19) 
19

>  <SMILES>  (19) 
[NH-]S(=O)(=O)c1ccc([N-]C(=O)Cc2cccc(NC(=O)C3CCN(C(=O)CCc4ccccc4)CC3)c2)cc1

>  <Energy>  (19) 
80.36998736601167

>  <Genealogy>  (19) 
[NH-]S(=O)(=O)c1ccc([N-]C(=O)Cc2cccc(NC(=O)C3CCN(C(=O)CCc4ccccc4)CC3)c2)cc1 (protonated)
[NH-]S(=O)(=O)c1ccc([N-]C(=O)Cc2cccc(NC(=O)C3CCN(C(=O)CCc4ccccc4)CC3)c2)cc1 (3D coordinates assigned)
[NH-]S(=O)(=O)c1ccc([N-]C(=O)Cc2cccc(NC(=O)C3CCN(C(=O)CCc4ccccc4)CC3)c2)cc1 (nonaromatic ring conformer: 80.36998736601167 kcal/mol)

>  <smiles>  (19) 
NS(=O)(=O)c1ccc(NC(=O)Cc2cccc(NC(=O)C3CCN(C(=O)CCc4ccccc4)CC3)c2)cc1

>  <score_type>  (19) 
oracle

>  <origin>  (19) 
adg

>  <m_score__min__energy>  (19) 
-13.93

>  <m_primary>  (19) 
energy

$$$$
19:0
     RDKit          3D

 25 26  0  0  0  0  0  0  0  0999 V2000
   59.8560   32.7720   50.6500 O   0  0  0  0  0  0  0  0  0  0  0  0
   60.9160   32.1110   50.5110 C   0  0  0  0  0  0  0  0  0  0  0  0
   61.8710   32.3740   49.4160 C   0  0  0  0  0  0  0  0  0  0  0  0
   62.9850   31.5960   49.1750 C   0  0  0  0  0  0  0  0  0  0  0  0
   63.6390   32.1010   48.1150 N   0  0  0  0  0  0  0  0  0  0  0  0
   62.9250   33.1730   47.7240 C   0  0  0  0  0  0  0  0  0  0  0  0
   63.3940   34.1870   46.3680 Cl  0  0  0  0  0  0  0  0  0  0  0  0
   61.8300   33.3710   48.4950 N   0  0  0  0  0  0  0  0  0  0  0  0
   60.8890   34.4910   48.3660 C   0  0  0  0  0  0  0  0  0  0  0  0
   59.8550   34.1930   47.3110 C   0  0  0  0  0  0  0  0  0  0  0  0
   58.8330   33.2620   47.5600 C   0  0  0  0  0  0  0  0  0  0  0  0
   57.8650   32.9990   46.5850 C   0  0  0  0  0  0  0  0  0  0  0  0
   57.9080   33.6640   45.3570 C   0  0  0  0  0  0  0  0  0  0  0  0
   58.9200   34.5930   45.1010 C   0  0  0  0  0  0  0  0  0  0  0  0
   59.8900   34.8590   46.0730 C   0  0  0  0  0  0  0  0  0  0  0  0
   61.1399   31.3090   51.2298 H   0  0  0  0  0  0  0  0  0  0  0  0
   63.2872   30.7106   49.7537 H   0  0  0  0  0  0  0  0  0  0  0  0
   64.5200   31.7390   47.6890 H   0  0  0  0  0  0  0  0  0  0  0  0
   60.3856   34.6537   49.3304 H   0  0  0  0  0  0  0  0  0  0  0  0
   61.4470   35.3924   48.0725 H   0  0  0  0  0  0  0  0  0  0  0  0
   58.7937   32.7374   48.5260 H   0  0  0  0  0  0  0  0  0  0  0  0
   57.0685   32.2673   46.7855 H   0  0  0  0  0  0  0  0  0  0  0  0
   57.1454   33.4563   44.5919 H   0  0  0  0  0  0  0  0  0  0  0  0
   58.9538   35.1158   44.1338 H   0  0  0  0  0  0  0  0  0  0  0  0
   60.6838   35.5924   45.8681 H   0  0  0  0  0  0  0  0  0  0  0  0
  1  2  2  0
  2  3  1  0
  3  4  2  0
  4  5  1  0
  5  6  2  0
  6  7  1  0
  6  8  1  0
  8  9  1  0
  9 10  1  0
 10 11  2  0
 11 12  1  0
 12 13  2  0
 13 14  1  0
 14 15  2  0
  8  3  1  0
 15 10  1  0
  2 16  1  0
  4 17  1  0
  5 18  1  0
  9 19  1  0
  9 20  1  0
 11 21  1  0
 12 22  1  0
 13 23  1  0
 14 24  1  0
 15 25  1  0
M  CHG  1   5   1
M  END
>  <UniqueID>  (20) 
20

>  <SMILES>  (20) 
O=Cc1c[nH+]c(Cl)n1Cc1ccccc1

>  <Energy>  (20) 
57.11566096363453

>  <Genealogy>  (20) 
O=Cc1c[nH+]c(Cl)n1Cc1ccccc1 (protonated)
O=Cc1c[nH+]c(Cl)n1Cc1ccccc1 (3D coordinates assigned)
O=Cc1c[nH+]c(Cl)n1Cc1ccccc1 (optimized conformer: 57.11566096363453 kcal/mol)

>  <smiles>  (20) 
O=Cc1cnc(Cl)n1Cc1ccccc1

>  <score_type>  (20) 
oracle

>  <origin>  (20) 
adg

>  <m_score__min__energy>  (20) 
-4.2699999999999996

>  <m_primary>  (20) 
energy

$$$$
20:0
     RDKit          3D

 49 52  0  0  0  0  0  0  0  0999 V2000
   56.6410   33.5240   45.6820 N   0  0  0  0  0  0  0  0  0  0  0  0
   57.1240   32.0770   44.8690 S   0  0  0  0  0  0  0  0  0  0  0  0
   55.9070   31.2760   44.4950 O   0  0  0  0  0  0  0  0  0  0  0  0
   57.8740   32.4490   43.6200 O   0  0  0  0  0  0  0  0  0  0  0  0
   58.1510   31.1110   45.9370 C   0  0  0  0  0  0  0  0  0  0  0  0
   58.2600   29.7270   45.7330 C   0  0  0  0  0  0  0  0  0  0  0  0
   59.0530   28.9340   46.5770 C   0  0  0  0  0  0  0  0  0  0  0  0
   59.1360   27.4730   46.3450 C   0  0  0  0  0  0  0  0  0  0  0  0
   60.1360   26.6120   46.7730 C   0  0  0  0  0  0  0  0  0  0  0  0
   59.7760   25.3600   46.3250 C   0  0  0  0  0  0  0  0  0  0  0  0
   58.5750   25.5280   45.6550 C   0  0  0  0  0  0  0  0  0  0  0  0
   57.7840   24.5020   44.9530 C   0  0  0  0  0  0  0  0  0  0  0  0
   56.4480   24.3750   45.0170 C   0  0  0  0  0  0  0  0  0  0  0  0
   55.4710   23.1860   44.0790 S   0  0  0  0  0  0  0  0  0  0  0  0
   54.0370   23.7300   45.0140 C   0  0  0  0  0  0  0  0  0  0  0  0
   52.8940   23.2340   44.8300 O   0  0  0  0  0  0  0  0  0  0  0  0
   54.2560   24.7520   45.9780 N   0  0  0  0  0  0  0  0  0  0  0  0
   55.6250   25.1120   45.9800 C   0  0  0  0  0  0  0  0  0  0  0  0
   56.0770   25.9940   46.7580 O   0  0  0  0  0  0  0  0  0  0  0  0
   58.2300   26.7940   45.6770 O   0  0  0  0  0  0  0  0  0  0  0  0
   59.7460   29.5490   47.6330 C   0  0  0  0  0  0  0  0  0  0  0  0
   59.6410   30.9240   47.8450 C   0  0  0  0  0  0  0  0  0  0  0  0
   58.8410   31.7170   47.0040 C   0  0  0  0  0  0  0  0  0  0  0  0
   58.7070   33.1300   47.2130 N   0  0  0  0  0  0  0  0  0  0  0  0
   59.5250   34.3680   46.3200 S   0  0  0  0  0  0  0  0  0  0  0  0
   58.8120   34.6170   45.0200 O   0  0  0  0  0  0  0  0  0  0  0  0
   59.5670   35.6340   47.1280 O   0  0  0  0  0  0  0  0  0  0  0  0
   61.1920   33.8280   45.9910 C   0  0  0  0  0  0  0  0  0  0  0  0
   61.9440   33.6450   47.2810 C   0  0  0  0  0  0  0  0  0  0  0  0
   61.3240   33.9420   48.5060 C   0  0  0  0  0  0  0  0  0  0  0  0
   62.0330   33.8120   49.7040 C   0  0  0  0  0  0  0  0  0  0  0  0
   63.3670   33.3940   49.6860 C   0  0  0  0  0  0  0  0  0  0  0  0
   63.9960   33.1120   48.4690 C   0  0  0  0  0  0  0  0  0  0  0  0
   63.2900   33.2390   47.2690 C   0  0  0  0  0  0  0  0  0  0  0  0
   57.3750   33.7310   46.3970 H   0  0  0  0  0  0  0  0  0  0  0  0
   56.6740   34.2970   44.9770 H   0  0  0  0  0  0  0  0  0  0  0  0
   57.7164   29.2570   44.9001 H   0  0  0  0  0  0  0  0  0  0  0  0
   61.0334   26.8753   47.3520 H   0  0  0  0  0  0  0  0  0  0  0  0
   60.3286   24.4199   46.4696 H   0  0  0  0  0  0  0  0  0  0  0  0
   58.3312   23.7824   44.3263 H   0  0  0  0  0  0  0  0  0  0  0  0
   60.3768   28.9413   48.2984 H   0  0  0  0  0  0  0  0  0  0  0  0
   60.1885   31.3912   48.6768 H   0  0  0  0  0  0  0  0  0  0  0  0
   61.1635   32.8716   45.4484 H   0  0  0  0  0  0  0  0  0  0  0  0
   61.7023   34.5899   45.3835 H   0  0  0  0  0  0  0  0  0  0  0  0
   60.2767   34.2781   48.5228 H   0  0  0  0  0  0  0  0  0  0  0  0
   61.5409   34.0387   50.6613 H   0  0  0  0  0  0  0  0  0  0  0  0
   63.9222   33.2868   50.6295 H   0  0  0  0  0  0  0  0  0  0  0  0
   65.0477   32.7898   48.4560 H   0  0  0  0  0  0  0  0  0  0  0  0
   63.7888   33.0208   46.3132 H   0  0  0  0  0  0  0  0  0  0  0  0
  1  2  1  0
  2  3  2  0
  2  4  2  0
  2  5  1  0
  5  6  2  0
  6  7  1  0
  7  8  1  0
  8  9  2  0
  9 10  1  0
 10 11  2  0
 11 12  1  0
 12 13  2  3
 13 14  1  0
 14 15  1  0
 15 16  2  0
 15 17  1  0
 17 18  1  0
 18 19  2  0
 11 20  1  0
  7 21  2  0
 21 22  1  0
 22 23  2  0
 23 24  1  0
 24 25  1  0
 25 26  2  0
 25 27  2  0
 25 28  1  0
 28 29  1  0
 29 30  2  0
 30 31  1  0
 31 32  2  0
 32 33  1  0
 33 34  2  0
 23  5  1  0
 34 29  1  0
 20  8  1  0
 18 13  1  0
  1 35  1  0
  1 36  1  0
  6 37  1  0
  9 38  1  0
 10 39  1  0
 12 40  1  0
 21 41  1  0
 22 42  1  0
 28 43  1  0
 28 44  1  0
 30 45  1  0
 31 46  1  0
 32 47  1  0
 33 48  1  0
 34 49  1  0
M  CHG  2  17  -1  24  -1
M  END
>  <UniqueID>  (21) 
21

>  <SMILES>  (21) 
NS(=O)(=O)c1cc(-c2ccc(C=C3SC(=O)[N-]C3=O)o2)ccc1[N-]S(=O)(=O)Cc1ccccc1

>  <Energy>  (21) 
100.2808829307616

>  <Genealogy>  (21) 
NS(=O)(=O)c1cc(-c2ccc(C=C3SC(=O)[N-]C3=O)o2)ccc1[N-]S(=O)(=O)Cc1ccccc1 (protonated)
NS(=O)(=O)c1cc(-c2ccc(C=C3SC(=O)[N-]C3=O)o2)ccc1[N-]S(=O)(=O)Cc1ccccc1 (3D coordinates assigned)
NS(=O)(=O)c1cc(-c2ccc(C=C3SC(=O)[N-]C3=O)o2)ccc1[N-]S(=O)(=O)Cc1ccccc1 (nonaromatic ring conformer: 100.2808829307616 kcal/mol)

>  <smiles>  (21) 
NS(=O)(=O)c1cc(-c2ccc(C=C3SC(=O)NC3=O)o2)ccc1NS(=O)(=O)Cc1ccccc1

>  <score_type>  (21) 
oracle

>  <origin>  (21) 
adg

>  <m_score__min__energy>  (21) 
-13.640000000000001

>  <m_primary>  (21) 
energy

$$$$
21:0
     RDKit          3D

 48 51  0  0  0  0  0  0  0  0999 V2000
   60.0379   35.5658   48.1087 H   0  0  0  0  0  0  0  0  0  0  0  0
   59.5590   34.9540   47.3300 C   0  0  0  0  0  0  0  0  0  0  0  0
   58.8370   33.8110   47.6840 C   0  0  0  0  0  0  0  0  0  0  0  0
   58.7430   33.5269   48.7425 H   0  0  0  0  0  0  0  0  0  0  0  0
   58.2340   33.0280   46.6950 C   0  0  0  0  0  0  0  0  0  0  0  0
   57.6599   32.1335   46.9782 H   0  0  0  0  0  0  0  0  0  0  0  0
   58.3590   33.3800   45.3410 C   0  0  0  0  0  0  0  0  0  0  0  0
   57.7260   32.5320   44.2700 C   0  0  0  0  0  0  0  0  0  0  0  0
   58.3966   32.5057   43.3984 H   0  0  0  0  0  0  0  0  0  0  0  0
   56.7539   32.9813   44.0186 H   0  0  0  0  0  0  0  0  0  0  0  0
   57.4740   31.1250   44.7260 C   0  0  0  0  0  0  0  0  0  0  0  0
   56.2500   30.5580   44.8400 N   0  0  0  0  0  0  0  0  0  0  0  0
   56.2970   29.2660   45.1690 N   0  0  0  0  0  0  0  0  0  0  0  0
   57.5610   28.8030   45.3050 C   0  0  0  0  0  0  0  0  0  0  0  0
   57.8680   27.5710   45.5850 N   0  0  0  0  0  0  0  0  0  0  0  0
   58.5160   27.1180   46.7840 C   0  0  0  0  0  0  0  0  0  0  0  0
   58.6310   25.8770   46.9750 O   0  0  0  0  0  0  0  0  0  0  0  0
   59.1130   28.0590   47.7600 C   0  0  0  0  0  0  0  0  0  0  0  0
   58.4920   29.2860   48.0430 C   0  0  0  0  0  0  0  0  0  0  0  0
   57.5572   29.5560   47.5300 H   0  0  0  0  0  0  0  0  0  0  0  0
   59.0520   30.1650   48.9700 C   0  0  0  0  0  0  0  0  0  0  0  0
   58.5542   31.1218   49.1860 H   0  0  0  0  0  0  0  0  0  0  0  0
   60.2470   29.8360   49.6290 C   0  0  0  0  0  0  0  0  0  0  0  0
   60.8030   30.7000   50.6330 N   0  0  0  0  0  0  0  0  0  0  0  0
   60.1610   31.1890   51.2970 H   0  0  0  0  0  0  0  0  0  0  0  0
   62.4330   31.2840   50.5260 S   0  0  0  0  0  0  0  0  0  0  0  0
   62.7000   32.2380   51.6560 O   0  0  0  0  0  0  0  0  0  0  0  0
   63.3890   30.1280   50.6270 O   0  0  0  0  0  0  0  0  0  0  0  0
   62.6310   32.1390   48.9980 C   0  0  0  0  0  0  0  0  0  0  0  0
   63.6380   33.1070   48.8770 C   0  0  0  0  0  0  0  0  0  0  0  0
   64.3364   33.2789   49.7093 H   0  0  0  0  0  0  0  0  0  0  0  0
   63.7570   33.8540   47.7020 C   0  0  0  0  0  0  0  0  0  0  0  0
   64.5514   34.6093   47.6100 H   0  0  0  0  0  0  0  0  0  0  0  0
   62.8710   33.6440   46.6460 C   0  0  0  0  0  0  0  0  0  0  0  0
   62.9620   34.2381   45.7247 H   0  0  0  0  0  0  0  0  0  0  0  0
   61.8670   32.6780   46.7590 C   0  0  0  0  0  0  0  0  0  0  0  0
   61.1712   32.5094   45.9238 H   0  0  0  0  0  0  0  0  0  0  0  0
   61.7450   31.9250   47.9320 C   0  0  0  0  0  0  0  0  0  0  0  0
   60.9542   31.1652   48.0181 H   0  0  0  0  0  0  0  0  0  0  0  0
   60.8960   28.6350   49.3100 C   0  0  0  0  0  0  0  0  0  0  0  0
   61.8532   28.3858   49.7914 H   0  0  0  0  0  0  0  0  0  0  0  0
   60.3330   27.7520   48.3830 C   0  0  0  0  0  0  0  0  0  0  0  0
   60.8492   26.8114   48.1406 H   0  0  0  0  0  0  0  0  0  0  0  0
   58.6980   29.9990   45.0050 S   0  0  0  0  0  0  0  0  0  0  0  0
   59.0710   34.5400   44.9930 C   0  0  0  0  0  0  0  0  0  0  0  0
   59.1557   34.8359   43.9369 H   0  0  0  0  0  0  0  0  0  0  0  0
   59.6720   35.3190   45.9860 C   0  0  0  0  0  0  0  0  0  0  0  0
   60.2355   36.2220   45.7085 H   0  0  0  0  0  0  0  0  0  0  0  0
  1  2  1  0
  2  3  2  0
  3  4  1  0
  3  5  1  0
  5  6  1  0
  5  7  2  0
  7  8  1  0
  8  9  1  0
  8 10  1  0
  8 11  1  0
 11 12  2  0
 12 13  1  0
 13 14  1  0
 14 15  2  0
 15 16  1  0
 16 17  2  0
 16 18  1  0
 18 19  2  0
 19 20  1  0
 19 21  1  0
 21 22  1  0
 21 23  2  0
 23 24  1  0
 24 25  1  0
 24 26  1  0
 26 27  2  0
 26 28  2  0
 26 29  1  0
 29 30  2  0
 30 31  1  0
 30 32  1  0
 32 33  1  0
 32 34  2  0
 34 35  1  0
 34 36  1  0
 36 37  1  0
 36 38  2  0
 38 39  1  0
 23 40  1  0
 40 41  1  0
 40 42  2  0
 42 43  1  0
 14 44  1  0
  7 45  1  0
 45 46  1  0
 45 47  2  0
 47 48  1  0
 47  2  1  0
 44 11  1  0
 42 18  1  0
 38 29  1  0
M  CHG  1  13  -1
M  END
>  <UniqueID>  (22) 
22

>  <SMILES>  (22) 
O=C(/N=c1\[n-]nc(Cc2ccccc2)s1)c1ccc(NS(=O)(=O)c2ccccc2)cc1

>  <Energy>  (22) 
93.56268628462976

>  <Genealogy>  (22) 
O=C(N=c1[n-]nc(Cc2ccccc2)s1)c1ccc(NS(=O)(=O)c2ccccc2)cc1 (protonated)
O=C(/N=c1\[n-]nc(Cc2ccccc2)s1)c1ccc(NS(=O)(=O)c2ccccc2)cc1 (cis-trans isomerization)
O=C(/N=c1\[n-]nc(Cc2ccccc2)s1)c1ccc(NS(=O)(=O)c2ccccc2)cc1 (3D coordinates assigned)
O=C(/N=c1\[n-]nc(Cc2ccccc2)s1)c1ccc(NS(=O)(=O)c2ccccc2)cc1 (optimized conformer: 93.56268628462976 kcal/mol)

>  <smiles>  (22) 
O=C(N=c1[nH]nc(Cc2ccccc2)s1)c1ccc(NS(=O)(=O)c2ccccc2)cc1

>  <score_type>  (22) 
oracle

>  <origin>  (22) 
adg

>  <m_score__min__energy>  (22) 
-11.539999999999999

>  <m_primary>  (22) 
energy

$$$$
22:0
     RDKit          3D

 39 42  0  0  0  0  0  0  0  0999 V2000
   55.3200   29.2880   44.7360 N   0  0  0  0  0  0  0  0  0  0  0  0
   56.2830   28.3620   45.2460 C   0  0  0  0  0  0  0  0  0  0  0  0
   55.8970   27.2160   45.6020 O   0  0  0  0  0  0  0  0  0  0  0  0
   57.7130   28.7280   45.3890 C   0  0  0  0  0  0  0  0  0  0  0  0
   58.7220   27.7510   45.2130 C   0  0  0  0  0  0  0  0  0  0  0  0
   60.0870   28.0910   45.3340 C   0  0  0  0  0  0  0  0  0  0  0  0
   60.4690   29.4120   45.6210 C   0  0  0  0  0  0  0  0  0  0  0  0
   59.4610   30.3580   45.7760 C   0  0  0  0  0  0  0  0  0  0  0  0
   59.6070   31.6680   46.0170 N   0  0  0  0  0  0  0  0  0  0  0  0
   58.3200   32.1070   46.0430 C   0  0  0  0  0  0  0  0  0  0  0  0
   57.9400   33.5490   46.2990 C   0  0  2  0  0  0  0  0  0  0  0  0
   57.9150   34.3360   44.9940 C   0  0  0  0  0  0  0  0  0  0  0  0
   59.2720   35.0190   44.9160 C   0  0  0  0  0  0  0  0  0  0  0  0
   59.9040   34.8510   46.2950 C   0  0  0  0  0  0  0  0  0  0  0  0
   58.8850   34.2690   47.1740 N   0  0  0  0  0  0  0  0  0  0  0  0
   59.4730   33.5010   48.2910 C   0  0  0  0  0  0  0  0  0  0  0  0
   60.9690   33.4950   48.2140 C   0  0  0  0  0  0  0  0  0  0  0  0
   61.6700   32.7900   47.2990 N   0  0  0  0  0  0  0  0  0  0  0  0
   63.0110   32.9360   47.4690 C   0  0  0  0  0  0  0  0  0  0  0  0
   63.3870   33.7500   48.5310 C   0  0  0  0  0  0  0  0  0  0  0  0
   61.9860   34.3020   49.2810 S   0  0  0  0  0  0  0  0  0  0  0  0
   57.3930   31.1400   45.8240 N   0  0  0  0  0  0  0  0  0  0  0  0
   58.1400   30.0360   45.6680 C   0  0  0  0  0  0  0  0  0  0  0  0
   54.3330   28.9820   44.5850 H   0  0  0  0  0  0  0  0  0  0  0  0
   55.5480   30.2970   44.6060 H   0  0  0  0  0  0  0  0  0  0  0  0
   58.4392   26.7140   44.9791 H   0  0  0  0  0  0  0  0  0  0  0  0
   60.8566   27.3161   45.2026 H   0  0  0  0  0  0  0  0  0  0  0  0
   61.5290   29.6889   45.7198 H   0  0  0  0  0  0  0  0  0  0  0  0
   56.9551   33.4913   46.7856 H   0  0  0  0  0  0  0  0  0  0  0  0
   57.7734   33.6598   44.1380 H   0  0  0  0  0  0  0  0  0  0  0  0
   57.0874   35.0600   44.9655 H   0  0  0  0  0  0  0  0  0  0  0  0
   59.8974   34.5411   44.1476 H   0  0  0  0  0  0  0  0  0  0  0  0
   59.1753   36.0800   44.6423 H   0  0  0  0  0  0  0  0  0  0  0  0
   60.7736   34.1804   46.2313 H   0  0  0  0  0  0  0  0  0  0  0  0
   60.2482   35.8198   46.6861 H   0  0  0  0  0  0  0  0  0  0  0  0
   59.1643   33.9580   49.2427 H   0  0  0  0  0  0  0  0  0  0  0  0
   59.1161   32.4625   48.2265 H   0  0  0  0  0  0  0  0  0  0  0  0
   63.7454   32.4453   46.8134 H   0  0  0  0  0  0  0  0  0  0  0  0
   64.4183   33.9907   48.8285 H   0  0  0  0  0  0  0  0  0  0  0  0
  1  2  1  0
  2  3  2  0
  2  4  1  0
  4  5  2  0
  5  6  1  0
  6  7  2  0
  7  8  1  0
  8  9  1  0
  9 10  1  0
 10 11  1  0
 11 12  1  0
 12 13  1  0
 13 14  1  0
 14 15  1  0
 15 16  1  0
 16 17  1  0
 17 18  2  0
 18 19  1  0
 19 20  2  0
 20 21  1  0
 10 22  2  0
 22 23  1  0
 23  4  1  0
 23  8  2  0
 15 11  1  0
 21 17  1  0
  1 24  1  0
  1 25  1  0
  5 26  1  0
  6 27  1  0
  7 28  1  0
 11 29  1  1
 12 30  1  0
 12 31  1  0
 13 32  1  0
 13 33  1  0
 14 34  1  0
 14 35  1  0
 16 36  1  0
 16 37  1  0
 19 38  1  0
 20 39  1  0
M  CHG  1   9  -1
M  END
>  <UniqueID>  (23) 
23

>  <SMILES>  (23) 
NC(=O)c1cccc2[n-]c([C@@H]3CCCN3Cc3nccs3)nc12

>  <Energy>  (23) 
112.33458852267579

>  <Genealogy>  (23) 
NC(=O)c1cccc2[n-]c(C3CCCN3Cc3nccs3)nc12 (protonated)
NC(=O)c1cccc2[n-]c([C@@H]3CCCN3Cc3nccs3)nc12 (chirality)
NC(=O)c1cccc2[n-]c([C@@H]3CCCN3Cc3nccs3)nc12 (3D coordinates assigned)
NC(=O)c1cccc2[n-]c([C@@H]3CCCN3Cc3nccs3)nc12 (nonaromatic ring conformer: 112.33458852267579 kcal/mol)

>  <smiles>  (23) 
NC(=O)c1cccc2[nH]c(C3CCCN3Cc3nccs3)nc12

>  <score_type>  (23) 
oracle

>  <origin>  (23) 
adg

>  <m_score__min__energy>  (23) 
-10.029999999999999

>  <m_primary>  (23) 
energy

$$$$
23:0
     RDKit          3D

 56 57  0  0  0  0  0  0  0  0999 V2000
   56.2820   30.0360   43.4900 C   0  0  0  0  0  0  0  0  0  0  0  0
   57.5110   30.5350   44.2460 C   0  0  0  0  0  0  0  0  0  0  0  0
   57.3730   30.3040   45.6510 O   0  0  0  0  0  0  0  0  0  0  0  0
   57.9790   29.2610   46.3750 C   0  0  0  0  0  0  0  0  0  0  0  0
   57.6340   27.9080   46.1720 C   0  0  0  0  0  0  0  0  0  0  0  0
   58.2510   26.9000   46.9160 C   0  0  0  0  0  0  0  0  0  0  0  0
   59.2230   27.2250   47.8620 C   0  0  0  0  0  0  0  0  0  0  0  0
   59.5820   28.5550   48.0680 C   0  0  0  0  0  0  0  0  0  0  0  0
   58.9540   29.5880   47.3440 C   0  0  0  0  0  0  0  0  0  0  0  0
   59.3380   30.9650   47.5360 N   0  0  0  0  0  0  0  0  0  0  0  0
   60.4220   31.6080   46.8460 C   0  0  0  0  0  0  0  0  0  0  0  0
   61.8790   30.8480   46.7550 S   0  0  0  0  0  0  0  0  0  0  0  0
   60.2510   32.9540   46.3420 N   0  0  0  0  0  0  0  0  0  0  0  0
   59.0360   33.2920   45.5830 C   0  0  0  0  0  0  0  0  0  0  0  0
   57.9330   33.8040   46.5120 C   0  0  0  0  0  0  0  0  0  0  0  0
   57.4380   32.7640   47.3120 O   0  0  0  0  0  0  0  0  0  0  0  0
   61.2670   34.0040   46.5510 C   0  0  0  0  0  0  0  0  0  0  0  0
   62.0650   33.7300   47.8080 C   0  0  0  0  0  0  0  0  0  0  0  0
   63.3670   33.2130   47.6580 C   0  0  0  0  0  0  0  0  0  0  0  0
   64.1570   32.9330   48.7720 C   0  0  0  0  0  0  0  0  0  0  0  0
   63.6620   33.1670   50.0530 C   0  0  0  0  0  0  0  0  0  0  0  0
   62.3800   33.6910   50.2270 C   0  0  0  0  0  0  0  0  0  0  0  0
   61.5700   33.9950   49.1180 C   0  0  0  0  0  0  0  0  0  0  0  0
   60.1960   34.5720   49.3650 C   0  0  0  0  0  0  0  0  0  0  0  0
   59.1730   33.5880   49.0020 N   0  0  0  0  0  0  0  0  0  0  0  0
   59.0820   32.3350   50.2020 S   0  0  0  0  0  0  0  0  0  0  0  0
   59.2770   33.0130   51.8390 C   0  0  0  0  0  0  0  0  0  0  0  0
   60.1850   31.3440   49.9500 O   0  0  0  0  0  0  0  0  0  0  0  0
   57.7580   31.6260   50.1030 O   0  0  0  0  0  0  0  0  0  0  0  0
   55.5110   29.7230   44.2095 H   0  0  0  0  0  0  0  0  0  0  0  0
   55.8869   30.8449   42.8579 H   0  0  0  0  0  0  0  0  0  0  0  0
   56.5626   29.1806   42.8579 H   0  0  0  0  0  0  0  0  0  0  0  0
   58.4008   30.0025   43.8789 H   0  0  0  0  0  0  0  0  0  0  0  0
   57.6140   31.6168   44.0755 H   0  0  0  0  0  0  0  0  0  0  0  0
   56.8733   27.6452   45.4221 H   0  0  0  0  0  0  0  0  0  0  0  0
   57.9701   25.8486   46.7558 H   0  0  0  0  0  0  0  0  0  0  0  0
   59.7073   26.4291   48.4468 H   0  0  0  0  0  0  0  0  0  0  0  0
   60.3629   28.8012   48.8026 H   0  0  0  0  0  0  0  0  0  0  0  0
   58.7700   31.5560   48.1840 H   0  0  0  0  0  0  0  0  0  0  0  0
   59.2774   34.0729   44.8469 H   0  0  0  0  0  0  0  0  0  0  0  0
   58.6748   32.3841   45.0777 H   0  0  0  0  0  0  0  0  0  0  0  0
   58.3430   34.5936   47.1588 H   0  0  0  0  0  0  0  0  0  0  0  0
   57.1105   34.2020   45.8996 H   0  0  0  0  0  0  0  0  0  0  0  0
   57.8140   32.9000   48.2220 H   0  0  0  0  0  0  0  0  0  0  0  0
   61.9482   34.0250   45.6876 H   0  0  0  0  0  0  0  0  0  0  0  0
   60.7585   34.9735   46.6578 H   0  0  0  0  0  0  0  0  0  0  0  0
   63.7651   33.0280   46.6494 H   0  0  0  0  0  0  0  0  0  0  0  0
   65.1709   32.5274   48.6396 H   0  0  0  0  0  0  0  0  0  0  0  0
   64.2839   32.9379   50.9309 H   0  0  0  0  0  0  0  0  0  0  0  0
   61.9987   33.8683   51.2434 H   0  0  0  0  0  0  0  0  0  0  0  0
   60.0938   34.8295   50.4295 H   0  0  0  0  0  0  0  0  0  0  0  0
   60.0654   35.4756   48.7514 H   0  0  0  0  0  0  0  0  0  0  0  0
   59.4580   33.1330   48.1030 H   0  0  0  0  0  0  0  0  0  0  0  0
   59.0539   32.2372   52.5862 H   0  0  0  0  0  0  0  0  0  0  0  0
   60.3119   33.3619   51.9705 H   0  0  0  0  0  0  0  0  0  0  0  0
   58.5856   33.8584   51.9705 H   0  0  0  0  0  0  0  0  0  0  0  0
  1  2  1  0
  2  3  1  0
  3  4  1  0
  4  5  2  0
  5  6  1  0
  6  7  2  0
  7  8  1  0
  8  9  2  0
  9 10  1  0
 10 11  1  0
 11 12  2  0
 11 13  1  0
 13 14  1  0
 14 15  1  0
 15 16  1  0
 13 17  1  0
 17 18  1  0
 18 19  2  0
 19 20  1  0
 20 21  2  0
 21 22  1  0
 22 23  2  0
 23 24  1  0
 24 25  1  0
 25 26  1  0
 26 27  1  0
 26 28  2  0
 26 29  2  0
  9  4  1  0
 23 18  1  0
  1 30  1  0
  1 31  1  0
  1 32  1  0
  2 33  1  0
  2 34  1  0
  5 35  1  0
  6 36  1  0
  7 37  1  0
  8 38  1  0
 10 39  1  0
 14 40  1  0
 14 41  1  0
 15 42  1  0
 15 43  1  0
 16 44  1  0
 17 45  1  0
 17 46  1  0
 19 47  1  0
 20 48  1  0
 21 49  1  0
 22 50  1  0
 24 51  1  0
 24 52  1  0
 25 53  1  0
 27 54  1  0
 27 55  1  0
 27 56  1  0
M  END
>  <UniqueID>  (24) 
24

>  <SMILES>  (24) 
CCOc1ccccc1NC(=S)N(CCO)Cc1ccccc1CNS(C)(=O)=O

>  <Energy>  (24) 
53.07574051468733

>  <Genealogy>  (24) 
CCOc1ccccc1NC(=S)N(CCO)Cc1ccccc1CNS(C)(=O)=O (3D coordinates assigned)
CCOc1ccccc1NC(=S)N(CCO)Cc1ccccc1CNS(C)(=O)=O (optimized conformer: 53.07574051468733 kcal/mol)

>  <smiles>  (24) 
CCOc1ccccc1NC(=S)N(CCO)Cc1ccccc1CNS(C)(=O)=O

>  <score_type>  (24) 
oracle

>  <origin>  (24) 
adg

>  <m_score__min__energy>  (24) 
-9.8200000000000003

>  <m_primary>  (24) 
energy

$$$$
24:0
     RDKit          3D

 24 25  0  0  0  0  0  0  0  0999 V2000
   50.9750   30.6180   48.3240 O   0  0  0  0  0  0  0  0  0  0  0  0
   51.3910   30.8580   49.4870 C   0  0  0  0  0  0  0  0  0  0  0  0
   52.3380   30.0150   50.0800 C   0  0  0  0  0  0  0  0  0  0  0  0
   52.7760   30.2910   51.3790 C   0  0  0  0  0  0  0  0  0  0  0  0
   53.7690   29.4490   51.9890 N   0  0  0  0  0  0  0  0  0  0  0  0
   55.1270   29.8470   52.2430 C   0  0  0  0  0  0  0  0  0  0  0  0
   56.0270   28.9190   52.7890 C   0  0  0  0  0  0  0  0  0  0  0  0
   57.3440   29.2920   53.0690 C   0  0  0  0  0  0  0  0  0  0  0  0
   57.7710   30.5990   52.8210 C   0  0  0  0  0  0  0  0  0  0  0  0
   56.8750   31.5430   52.2990 C   0  0  0  0  0  0  0  0  0  0  0  0
   57.2840   32.8530   52.0610 O   0  0  0  0  0  0  0  0  0  0  0  0
   55.5570   31.1680   52.0180 C   0  0  0  0  0  0  0  0  0  0  0  0
   52.2760   31.4270   52.0310 C   0  0  0  0  0  0  0  0  0  0  0  0
   51.3330   32.2250   51.3760 C   0  0  0  0  0  0  0  0  0  0  0  0
   50.8180   33.3490   52.0070 O   0  0  0  0  0  0  0  0  0  0  0  0
   50.9280   31.9150   50.1470 O   0  0  0  0  0  0  0  0  0  0  0  0
   52.7325   29.1469   49.5315 H   0  0  0  0  0  0  0  0  0  0  0  0
   53.4860   28.4790   52.2600 H   0  0  0  0  0  0  0  0  0  0  0  0
   55.6936   27.8918   52.9978 H   0  0  0  0  0  0  0  0  0  0  0  0
   58.0463   28.5550   53.4856 H   0  0  0  0  0  0  0  0  0  0  0  0
   58.8106   30.8877   53.0353 H   0  0  0  0  0  0  0  0  0  0  0  0
   57.7090   33.4160   52.7880 H   0  0  0  0  0  0  0  0  0  0  0  0
   54.8514   31.9112   51.6182 H   0  0  0  0  0  0  0  0  0  0  0  0
   52.6205   31.6867   53.0429 H   0  0  0  0  0  0  0  0  0  0  0  0
  1  2  2  0
  2  3  1  0
  3  4  2  0
  4  5  1  0
  5  6  1  0
  6  7  2  0
  7  8  1  0
  8  9  2  0
  9 10  1  0
 10 11  1  0
 10 12  2  0
  4 13  1  0
 13 14  2  0
 14 15  1  0
 14 16  1  0
 16  2  1  0
 12  6  1  0
  3 17  1  0
  5 18  1  0
  7 19  1  0
  8 20  1  0
  9 21  1  0
 11 22  1  0
 12 23  1  0
 13 24  1  0
M  CHG  1  15  -1
M  END
>  <UniqueID>  (25) 
25

>  <SMILES>  (25) 
O=c1cc(Nc2cccc(O)c2)cc([O-])o1

>  <Energy>  (25) 
31.46584436977384

>  <Genealogy>  (25) 
O=c1cc(Nc2cccc(O)c2)cc([O-])o1 (protonated)
O=c1cc(Nc2cccc(O)c2)cc([O-])o1 (3D coordinates assigned)
O=c1cc(Nc2cccc(O)c2)cc([O-])o1 (optimized conformer: 31.46584436977384 kcal/mol)

>  <smiles>  (25) 
O=c1cc(Nc2cccc(O)c2)cc(O)o1

>  <score_type>  (25) 
oracle

>  <origin>  (25) 
adg

>  <m_score__min__energy>  (25) 
-9.6300000000000008

>  <m_primary>  (25) 
energy

$$$$
25:0
     RDKit          3D

 34 36  0  0  1  0  0  0  0  0999 V2000
   60.9690   28.4810   45.3390 F   0  0  0  0  0  0  0  0  0  0  0  0
   59.7060   28.7970   44.9560 C   0  0  0  0  0  0  0  0  0  0  0  0
   59.0500   27.8690   44.1600 C   0  0  0  0  0  0  0  0  0  0  0  0
   57.7660   28.1210   43.7320 C   0  0  0  0  0  0  0  0  0  0  0  0
   61.7720   33.3630   47.5040 C   0  0  0  0  0  0  0  0  0  0  0  0
   60.8690   33.7220   48.4860 C   0  0  0  0  0  0  0  0  0  0  0  0
   59.4950   33.9820   48.2230 N   0  0  0  0  0  0  0  0  0  0  0  0
   58.9770   33.8080   47.0780 C   0  0  0  0  0  0  0  0  0  0  0  0
   57.8780   33.4580   44.6240 N   0  0  0  0  0  0  0  0  0  0  0  0
   58.5370   34.6060   44.8750 C   0  0  0  0  0  0  0  0  0  0  0  0
   59.0940   34.7740   46.1290 C   0  0  0  0  0  0  0  0  0  0  0  0
   59.7590   35.9170   46.3960 F   0  0  0  0  0  0  0  0  0  0  0  0
   57.7520   32.4820   45.5650 C   0  0  0  0  0  0  0  0  0  0  0  0
   57.1060   31.4170   45.2420 N   0  0  0  0  0  0  0  0  0  0  0  0
   57.8250   30.2330   44.9120 C   0  0  0  0  0  0  0  0  0  0  0  0
   57.1760   29.2880   44.1100 C   0  0  0  0  0  0  0  0  0  0  0  0
   63.0790   33.1410   47.9080 C   0  0  0  0  0  0  0  0  0  0  0  0
   63.4770   33.2720   49.2300 C   0  0  0  0  0  0  0  0  0  0  0  0
   65.1300   32.9920   49.7400 Cl  0  0  0  0  0  0  0  0  0  0  0  0
   62.5700   33.6310   50.1990 C   0  0  0  0  0  0  0  0  0  0  0  0
   59.1130   29.9870   45.3450 C   0  0  0  0  0  0  0  0  0  0  0  0
   58.3060   32.6780   46.7750 N   0  0  0  0  0  0  0  0  0  0  0  0
   61.2780   33.8530   49.8190 C   0  0  0  0  0  0  0  0  0  0  0  0
   59.5543   26.9348   43.8718 H   0  0  0  0  0  0  0  0  0  0  0  0
   57.2302   27.3973   43.1003 H   0  0  0  0  0  0  0  0  0  0  0  0
   61.4682   33.2584   46.4520 H   0  0  0  0  0  0  0  0  0  0  0  0
   57.4560   33.3350   43.6670 H   0  0  0  0  0  0  0  0  0  0  0  0
   58.6291   35.3863   44.1051 H   0  0  0  0  0  0  0  0  0  0  0  0
   56.1500   29.4960   43.7721 H   0  0  0  0  0  0  0  0  0  0  0  0
   63.8261   32.8510   47.1545 H   0  0  0  0  0  0  0  0  0  0  0  0
   62.8768   33.7363   51.2501 H   0  0  0  0  0  0  0  0  0  0  0  0
   59.6493   30.7105   45.9766 H   0  0  0  0  0  0  0  0  0  0  0  0
   58.2120   31.9320   47.4980 H   0  0  0  0  0  0  0  0  0  0  0  0
   60.5383   34.1425   50.5800 H   0  0  0  0  0  0  0  0  0  0  0  0
  1  2  1  0
  2  3  2  0
  3  4  1  0
  4  5  2  0
  5  6  1  0
  6  7  1  0
  7  8  2  0
  8  9  1  0
  9 10  1  0
 10 11  2  0
 11 12  1  0
 11 13  1  0
 13 14  2  0
 14 15  1  0
 15 16  2  0
 16 17  1  0
 17 18  2  0
 18 19  1  0
 18 20  1  0
 20 21  2  0
 13 22  1  0
  6 23  2  0
 23  2  1  0
 22  8  1  0
 21 15  1  0
  3 24  1  0
  4 25  1  0
  5 26  1  0
  9 27  1  0
 10 28  1  0
 16 29  1  0
 17 30  1  0
 20 31  1  0
 21 32  1  0
 22 33  1  0
 23 34  1  0
M  END
>  <smiles>  (26) 
Fc1cccc(N=c2[nH]cc(F)c(=Nc3ccc(Cl)cc3)[nH]2)c1

>  <score_type>  (26) 
oracle

>  <origin>  (26) 
adg

>  <m_score__min__energy>  (26) 
-7.5099999999999998

>  <m_primary>  (26) 
energy

$$$$
26:0
     RDKit          3D

 54 57  0  0  0  0  0  0  0  0999 V2000
   55.8380   30.0820   43.5050 C   0  0  0  0  0  0  0  0  0  0  0  0
   56.1600   29.6440   44.8220 O   0  0  0  0  0  0  0  0  0  0  0  0
   57.2920   28.8770   45.1470 C   0  0  0  0  0  0  0  0  0  0  0  0
   58.0080   28.2710   44.1040 C   0  0  0  0  0  0  0  0  0  0  0  0
   59.1310   27.4870   44.3800 C   0  0  0  0  0  0  0  0  0  0  0  0
   59.5580   27.3110   45.6980 C   0  0  0  0  0  0  0  0  0  0  0  0
   58.8740   27.9440   46.7520 C   0  0  0  0  0  0  0  0  0  0  0  0
   59.2820   27.7730   48.1160 N   0  0  0  0  0  0  0  0  0  0  0  0
   60.3610   28.4650   48.7590 C   0  0  0  0  0  0  0  0  0  0  0  0
   60.6070   28.2210   49.9690 O   0  0  0  0  0  0  0  0  0  0  0  0
   61.1430   29.5360   48.0510 C   0  0  0  0  0  0  0  0  0  0  0  0
   60.0770   30.9180   47.4920 S   0  0  0  0  0  0  0  0  0  0  0  0
   59.4260   31.3540   49.1250 C   0  0  0  0  0  0  0  0  0  0  0  0
   58.7520   30.3960   49.8200 N   0  0  0  0  0  0  0  0  0  0  0  0
   58.1350   30.6750   50.9950 C   0  0  0  0  0  0  0  0  0  0  0  0
   57.4290   29.7070   51.6450 N   0  0  0  0  0  0  0  0  0  0  0  0
   56.7890   29.9550   52.8160 C   0  0  0  0  0  0  0  0  0  0  0  0
   56.8430   31.2280   53.3880 C   0  0  0  0  0  0  0  0  0  0  0  0
   57.5570   32.2420   52.7430 C   0  0  0  0  0  0  0  0  0  0  0  0
   58.2120   31.9710   51.5310 C   0  0  0  0  0  0  0  0  0  0  0  0
   58.9560   32.9400   50.8350 C   0  0  0  0  0  0  0  0  0  0  0  0
   59.0440   34.1100   51.3040 O   0  0  0  0  0  0  0  0  0  0  0  0
   59.5850   32.6160   49.6560 N   0  0  0  0  0  0  0  0  0  0  0  0
   60.4510   33.6190   49.0010 C   0  0  0  0  0  0  0  0  0  0  0  0
   59.6160   34.7100   48.3250 C   0  0  0  0  0  0  0  0  0  0  0  0
   59.0210   34.2130   47.0360 C   0  0  0  0  0  0  0  0  0  0  0  0
   57.8500   33.4380   47.0460 C   0  0  0  0  0  0  0  0  0  0  0  0
   57.3020   32.9770   45.8460 C   0  0  0  0  0  0  0  0  0  0  0  0
   57.9110   33.2960   44.6300 C   0  0  0  0  0  0  0  0  0  0  0  0
   59.0680   34.0800   44.6100 C   0  0  0  0  0  0  0  0  0  0  0  0
   59.6180   34.5430   45.8080 C   0  0  0  0  0  0  0  0  0  0  0  0
   57.7330   28.7080   46.4750 C   0  0  0  0  0  0  0  0  0  0  0  0
   55.1873   30.9671   43.5618 H   0  0  0  0  0  0  0  0  0  0  0  0
   56.7627   30.3405   42.9682 H   0  0  0  0  0  0  0  0  0  0  0  0
   55.3154   29.2765   42.9682 H   0  0  0  0  0  0  0  0  0  0  0  0
   57.6834   28.4139   43.0627 H   0  0  0  0  0  0  0  0  0  0  0  0
   59.6805   27.0070   43.5568 H   0  0  0  0  0  0  0  0  0  0  0  0
   60.4305   26.6764   45.9124 H   0  0  0  0  0  0  0  0  0  0  0  0
   61.9043   29.9320   48.7392 H   0  0  0  0  0  0  0  0  0  0  0  0
   61.6040   29.0841   47.1604 H   0  0  0  0  0  0  0  0  0  0  0  0
   58.6840   29.4280   49.4320 H   0  0  0  0  0  0  0  0  0  0  0  0
   56.2269   29.1521   53.3153 H   0  0  0  0  0  0  0  0  0  0  0  0
   56.3278   31.4311   54.3384 H   0  0  0  0  0  0  0  0  0  0  0  0
   57.6055   33.2488   53.1835 H   0  0  0  0  0  0  0  0  0  0  0  0
   61.1014   34.0815   49.7581 H   0  0  0  0  0  0  0  0  0  0  0  0
   61.0528   33.1125   48.2321 H   0  0  0  0  0  0  0  0  0  0  0  0
   58.8042   35.0132   49.0025 H   0  0  0  0  0  0  0  0  0  0  0  0
   60.2713   35.5648   48.1017 H   0  0  0  0  0  0  0  0  0  0  0  0
   57.3626   33.1931   48.0012 H   0  0  0  0  0  0  0  0  0  0  0  0
   56.3900   32.3622   45.8590 H   0  0  0  0  0  0  0  0  0  0  0  0
   57.4794   32.9297   43.6868 H   0  0  0  0  0  0  0  0  0  0  0  0
   59.5453   34.3323   43.6516 H   0  0  0  0  0  0  0  0  0  0  0  0
   60.5225   35.1687   45.7895 H   0  0  0  0  0  0  0  0  0  0  0  0
   57.1775   29.1791   47.2993 H   0  0  0  0  0  0  0  0  0  0  0  0
  1  2  1  0
  2  3  1  0
  3  4  2  0
  4  5  1  0
  5  6  2  0
  6  7  1  0
  7  8  1  0
  8  9  1  0
  9 10  2  0
  9 11  1  0
 11 12  1  0
 12 13  1  0
 13 14  2  0
 14 15  1  0
 15 16  2  0
 16 17  1  0
 17 18  2  0
 18 19  1  0
 19 20  2  0
 20 21  1  0
 21 22  2  0
 21 23  1  0
 23 24  1  0
 24 25  1  0
 25 26  1  0
 26 27  2  0
 27 28  1  0
 28 29  2  0
 29 30  1  0
 30 31  2  0
  7 32  2  0
 32  3  1  0
 23 13  1  0
 31 26  1  0
 20 15  1  0
  1 33  1  0
  1 34  1  0
  1 35  1  0
  4 36  1  0
  5 37  1  0
  6 38  1  0
 11 39  1  0
 11 40  1  0
 14 41  1  0
 17 42  1  0
 18 43  1  0
 19 44  1  0
 24 45  1  0
 24 46  1  0
 25 47  1  0
 25 48  1  0
 27 49  1  0
 28 50  1  0
 29 51  1  0
 30 52  1  0
 31 53  1  0
 32 54  1  0
M  CHG  2   8  -1  14   1
M  END
>  <UniqueID>  (27) 
26

>  <SMILES>  (27) 
COc1cccc([N-]C(=O)CSc2[nH+]c3ncccc3c(=O)n2CCc2ccccc2)c1

>  <Energy>  (27) 
67.57712216980491

>  <Genealogy>  (27) 
COc1cccc([N-]C(=O)CSc2[nH+]c3ncccc3c(=O)n2CCc2ccccc2)c1 (protonated)
COc1cccc([N-]C(=O)CSc2[nH+]c3ncccc3c(=O)n2CCc2ccccc2)c1 (3D coordinates assigned)
COc1cccc([N-]C(=O)CSc2[nH+]c3ncccc3c(=O)n2CCc2ccccc2)c1 (optimized conformer: 67.57712216980491 kcal/mol)

>  <smiles>  (27) 
COc1cccc(NC(=O)CSc2nc3ncccc3c(=O)n2CCc2ccccc2)c1

>  <score_type>  (27) 
oracle

>  <origin>  (27) 
adg

>  <m_score__min__energy>  (27) 
-8.8699999999999992

>  <m_primary>  (27) 
energy

$$$$
27:0
     RDKit          3D

 25 27  0  0  0  0  0  0  0  0999 V2000
   54.8710   24.7660   46.0440 O   0  0  0  0  0  0  0  0  0  0  0  0
   55.8950   25.4790   46.2140 C   0  0  0  0  0  0  0  0  0  0  0  0
   55.8990   26.8200   45.9970 N   0  0  0  0  0  0  0  0  0  0  0  0
   57.1700   27.1490   46.2980 C   0  0  0  0  0  0  0  0  0  0  0  0
   57.7680   28.4040   46.2580 C   0  0  0  0  0  0  0  0  0  0  0  0
   57.0240   29.5330   45.8930 O   0  0  0  0  0  0  0  0  0  0  0  0
   57.1250   30.2080   44.6680 C   0  0  0  0  0  0  0  0  0  0  0  0
   57.8370   31.4130   44.6260 C   0  0  0  0  0  0  0  0  0  0  0  0
   57.9550   32.1240   43.4280 C   0  0  0  0  0  0  0  0  0  0  0  0
   57.3490   31.6410   42.2630 C   0  0  0  0  0  0  0  0  0  0  0  0
   57.4940   32.5360   40.7620 Cl  0  0  0  0  0  0  0  0  0  0  0  0
   56.6180   30.4500   42.3010 C   0  0  0  0  0  0  0  0  0  0  0  0
   56.4990   29.7360   43.4980 C   0  0  0  0  0  0  0  0  0  0  0  0
   59.0850   28.4940   46.6240 N   0  0  0  0  0  0  0  0  0  0  0  0
   59.8140   27.3970   47.0050 C   0  0  0  0  0  0  0  0  0  0  0  0
   59.2170   26.1230   47.0380 C   0  0  0  0  0  0  0  0  0  0  0  0
   57.8770   26.0490   46.6730 C   0  0  0  0  0  0  0  0  0  0  0  0
   57.0820   24.9720   46.6260 N   0  0  0  0  0  0  0  0  0  0  0  0
   58.3064   31.8026   45.5413 H   0  0  0  0  0  0  0  0  0  0  0  0
   58.5250   33.0644   43.4013 H   0  0  0  0  0  0  0  0  0  0  0  0
   56.1351   30.0733   41.3872 H   0  0  0  0  0  0  0  0  0  0  0  0
   55.9153   28.8040   43.5255 H   0  0  0  0  0  0  0  0  0  0  0  0
   60.8710   27.5133   47.2863 H   0  0  0  0  0  0  0  0  0  0  0  0
   59.7830   25.2288   47.3380 H   0  0  0  0  0  0  0  0  0  0  0  0
   57.3190   23.9810   46.8550 H   0  0  0  0  0  0  0  0  0  0  0  0
  1  2  2  0
  2  3  1  0
  3  4  1  0
  4  5  2  0
  5  6  1  0
  6  7  1  0
  7  8  2  0
  8  9  1  0
  9 10  2  0
 10 11  1  0
 10 12  1  0
 12 13  2  0
  5 14  1  0
 14 15  2  0
 15 16  1  0
 16 17  2  0
 17 18  1  0
 18  2  1  0
 17  4  1  0
 13  7  1  0
  8 19  1  0
  9 20  1  0
 12 21  1  0
 13 22  1  0
 15 23  1  0
 16 24  1  0
 18 25  1  0
M  CHG  1   3  -1
M  END
>  <UniqueID>  (28) 
27

>  <SMILES>  (28) 
O=c1[n-]c2c(Oc3ccc(Cl)cc3)nccc2[nH]1

>  <Energy>  (28) 
71.1670508877037

>  <Genealogy>  (28) 
O=c1[n-]c2c(Oc3ccc(Cl)cc3)nccc2[nH]1 (protonated)
O=c1[n-]c2c(Oc3ccc(Cl)cc3)nccc2[nH]1 (3D coordinates assigned)
O=c1[n-]c2c(Oc3ccc(Cl)cc3)nccc2[nH]1 (optimized conformer: 71.1670508877037 kcal/mol)

>  <smiles>  (28) 
O=c1[nH]c2ccnc(Oc3ccc(Cl)cc3)c2[nH]1

>  <score_type>  (28) 
oracle

>  <origin>  (28) 
adg

>  <m_score__min__energy>  (28) 
-8.5800000000000001

>  <m_primary>  (28) 
energy

$$$$
28:0
     RDKit          3D

 30 31  0  0  0  0  0  0  0  0999 V2000
   54.3950   30.0510   44.9320 H   0  0  0  0  0  0  0  0  0  0  0  0
   55.1450   29.3270   44.8590 N   0  0  0  0  0  0  0  0  0  0  0  0
   56.3910   29.6270   45.0290 C   0  0  0  0  0  0  0  0  0  0  0  0
   56.8040   30.9100   44.8690 N   0  0  0  0  0  0  0  0  0  0  0  0
   58.1050   31.2680   45.0430 C   0  0  0  0  0  0  0  0  0  0  0  0
   58.4760   32.6450   44.8620 N   0  0  0  0  0  0  0  0  0  0  0  0
   59.2840   32.8520   44.2320 H   0  0  0  0  0  0  0  0  0  0  0  0
   57.7710   33.7860   45.4490 C   0  0  0  0  0  0  0  0  0  0  0  0
   57.8757   34.6533   44.7805 H   0  0  0  0  0  0  0  0  0  0  0  0
   56.7128   33.5120   45.5719 H   0  0  0  0  0  0  0  0  0  0  0  0
   58.3380   34.1480   46.8280 C   0  0  0  0  0  0  0  0  0  0  0  0
   58.3641   35.2431   46.9279 H   0  0  0  0  0  0  0  0  0  0  0  0
   57.6904   33.7011   47.5967 H   0  0  0  0  0  0  0  0  0  0  0  0
   59.7320   33.6060   47.0090 C   0  0  0  0  0  0  0  0  0  0  0  0
   60.8200   34.2270   46.3790 C   0  0  0  0  0  0  0  0  0  0  0  0
   60.6514   35.0964   45.7265 H   0  0  0  0  0  0  0  0  0  0  0  0
   62.1170   33.7470   46.5760 C   0  0  0  0  0  0  0  0  0  0  0  0
   62.9631   34.2355   46.0705 H   0  0  0  0  0  0  0  0  0  0  0  0
   62.3470   32.6490   47.4120 C   0  0  0  0  0  0  0  0  0  0  0  0
   63.6580   32.2030   47.5830 O   0  0  0  0  0  0  0  0  0  0  0  0
   64.4450   32.6150   47.0980 H   0  0  0  0  0  0  0  0  0  0  0  0
   61.2600   32.0260   48.0570 C   0  0  0  0  0  0  0  0  0  0  0  0
   61.4980   30.5270   49.2270 Br  0  0  0  0  0  0  0  0  0  0  0  0
   59.9630   32.5080   47.8530 C   0  0  0  0  0  0  0  0  0  0  0  0
   59.1156   32.0221   48.3588 H   0  0  0  0  0  0  0  0  0  0  0  0
   59.0430   30.2800   45.3850 C   0  0  0  0  0  0  0  0  0  0  0  0
   60.1037   30.5367   45.5231 H   0  0  0  0  0  0  0  0  0  0  0  0
   58.6010   28.9650   45.5460 C   0  0  0  0  0  0  0  0  0  0  0  0
   59.4160   28.0570   45.8570 O   0  0  0  0  0  0  0  0  0  0  0  0
   57.2890   28.6630   45.3680 N   0  0  0  0  0  0  0  0  0  0  0  0
  1  2  1  0
  2  3  2  0
  3  4  1  0
  4  5  1  0
  5  6  1  0
  6  7  1  0
  6  8  1  0
  8  9  1  0
  8 10  1  0
  8 11  1  0
 11 12  1  0
 11 13  1  0
 11 14  1  0
 14 15  2  0
 15 16  1  0
 15 17  1  0
 17 18  1  0
 17 19  2  0
 19 20  1  0
 20 21  1  0
 19 22  1  0
 22 23  1  0
 22 24  2  0
 24 25  1  0
  5 26  2  0
 26 27  1  0
 26 28  1  0
 28 29  2  0
 28 30  1  0
 30  3  1  0
 24 14  1  0
M  CHG  2   4  -1  30  -1
M  END
>  <UniqueID>  (29) 
28

>  <SMILES>  (29) 
[H]/N=c1/[n-]c(NCCc2ccc(O)c(Br)c2)cc(=O)[n-]1

>  <Energy>  (29) 
28.45913966807025

>  <Genealogy>  (29) 
N=c1[n-]c(NCCc2ccc(O)c(Br)c2)cc(=O)[n-]1 (protonated)
[H]/N=c1/[n-]c(NCCc2ccc(O)c(Br)c2)cc(=O)[n-]1 (cis-trans isomerization)
[H]/N=c1/[n-]c(NCCc2ccc(O)c(Br)c2)cc(=O)[n-]1 (3D coordinates assigned)
[H]/N=c1/[n-]c(NCCc2ccc(O)c(Br)c2)cc(=O)[n-]1 (optimized conformer: 28.45913966807025 kcal/mol)

>  <smiles>  (29) 
N=c1[nH]c(NCCc2ccc(O)c(Br)c2)cc(=O)[nH]1

>  <score_type>  (29) 
oracle

>  <origin>  (29) 
adg

>  <m_score__min__energy>  (29) 
-10.69

>  <m_primary>  (29) 
energy

$$$$
29:0
     RDKit          3D

 19 19  0  0  0  0  0  0  0  0999 V2000
   55.1310   29.3440   44.8750 N   0  0  0  0  0  0  0  0  0  0  0  0
   56.6370   29.8560   44.1970 S   0  0  0  0  0  0  0  0  0  0  0  0
   56.4320   30.2200   42.7540 O   0  0  0  0  0  0  0  0  0  0  0  0
   57.1480   31.0570   44.9420 O   0  0  0  0  0  0  0  0  0  0  0  0
   57.7780   28.5850   44.2950 O   0  0  0  0  0  0  0  0  0  0  0  0
   58.3610   28.1090   45.4820 C   0  0  0  0  0  0  0  0  0  0  0  0
   59.5100   28.7120   46.0320 C   0  0  0  0  0  0  0  0  0  0  0  0
   60.0720   28.2220   47.2130 C   0  0  0  0  0  0  0  0  0  0  0  0
   59.4990   27.1290   47.8600 C   0  0  0  0  0  0  0  0  0  0  0  0
   58.3600   26.5220   47.3300 C   0  0  0  0  0  0  0  0  0  0  0  0
   57.7800   27.0000   46.1420 C   0  0  0  0  0  0  0  0  0  0  0  0
   56.5740   26.3110   45.6300 C   0  0  0  0  0  0  0  0  0  0  0  0
   55.4290   26.5400   46.1010 O   0  0  0  0  0  0  0  0  0  0  0  0
   55.3530   28.6450   45.6190 H   0  0  0  0  0  0  0  0  0  0  0  0
   59.9678   29.5754   45.5271 H   0  0  0  0  0  0  0  0  0  0  0  0
   60.9691   28.7001   47.6334 H   0  0  0  0  0  0  0  0  0  0  0  0
   59.9449   26.7445   48.7892 H   0  0  0  0  0  0  0  0  0  0  0  0
   57.9114   25.6608   47.8469 H   0  0  0  0  0  0  0  0  0  0  0  0
   56.6811   25.5790   44.8159 H   0  0  0  0  0  0  0  0  0  0  0  0
  1  2  1  0
  2  3  2  0
  2  4  2  0
  2  5  1  0
  5  6  1  0
  6  7  2  0
  7  8  1  0
  8  9  2  0
  9 10  1  0
 10 11  2  0
 11 12  1  0
 12 13  2  0
 11  6  1  0
  1 14  1  0
  7 15  1  0
  8 16  1  0
  9 17  1  0
 10 18  1  0
 12 19  1  0
M  CHG  1   1  -1
M  END
>  <UniqueID>  (30) 
29

>  <SMILES>  (30) 
[NH-]S(=O)(=O)Oc1ccccc1C=O

>  <Energy>  (30) 
17.042939840345266

>  <Genealogy>  (30) 
[NH-]S(=O)(=O)Oc1ccccc1C=O (protonated)
[NH-]S(=O)(=O)Oc1ccccc1C=O (3D coordinates assigned)
[NH-]S(=O)(=O)Oc1ccccc1C=O (optimized conformer: 17.042939840345266 kcal/mol)

>  <smiles>  (30) 
NS(=O)(=O)Oc1ccccc1C=O

>  <score_type>  (30) 
oracle

>  <origin>  (30) 
adg

>  <m_score__min__energy>  (30) 
-8.4399999999999995

>  <m_primary>  (30) 
energy

$$$$
30:0
     RDKit          3D

 23 24  0  0  0  0  0  0  0  0999 V2000
   57.6410   24.7030   47.6500 O   0  0  0  0  0  0  0  0  0  0  0  0
   57.2740   25.7010   46.9400 C   0  0  0  0  0  0  0  0  0  0  0  0
   58.1200   26.7070   46.4680 C   0  0  0  0  0  0  0  0  0  0  0  0
   57.2730   27.5510   45.7610 C   0  0  0  0  0  0  0  0  0  0  0  0
   57.6280   28.7450   45.0710 N   0  0  0  0  0  0  0  0  0  0  0  0
   57.0170   29.1200   43.7960 C   0  0  0  0  0  0  0  0  0  0  0  0
   57.0750   30.6230   43.6010 C   0  0  0  0  0  0  0  0  0  0  0  0
   56.9220   31.2080   44.8550 O   0  0  0  0  0  0  0  0  0  0  0  0
   58.1150   31.0900   45.5860 C   0  0  0  0  0  0  0  0  0  0  0  0
   58.6210   29.6640   45.5970 C   0  0  0  0  0  0  0  0  0  0  0  0
   56.0140   27.0740   45.8110 N   0  0  0  0  0  0  0  0  0  0  0  0
   56.0060   25.9640   46.5170 N   0  0  0  0  0  0  0  0  0  0  0  0
   59.2047   26.8076   46.6206 H   0  0  0  0  0  0  0  0  0  0  0  0
   57.5596   28.6273   42.9757 H   0  0  0  0  0  0  0  0  0  0  0  0
   55.9640   28.8020   43.7989 H   0  0  0  0  0  0  0  0  0  0  0  0
   58.0445   30.9095   43.1675 H   0  0  0  0  0  0  0  0  0  0  0  0
   56.2831   30.9582   42.9150 H   0  0  0  0  0  0  0  0  0  0  0  0
   58.8790   31.7367   45.1298 H   0  0  0  0  0  0  0  0  0  0  0  0
   57.9144   31.3926   46.6244 H   0  0  0  0  0  0  0  0  0  0  0  0
   59.5289   29.6017   44.9791 H   0  0  0  0  0  0  0  0  0  0  0  0
   58.8368   29.3815   46.6380 H   0  0  0  0  0  0  0  0  0  0  0  0
   55.1400   27.4740   45.3800 H   0  0  0  0  0  0  0  0  0  0  0  0
   55.1530   25.3690   46.7240 H   0  0  0  0  0  0  0  0  0  0  0  0
  1  2  2  0
  2  3  1  0
  3  4  2  0
  4  5  1  0
  5  6  1  0
  6  7  1  0
  7  8  1  0
  8  9  1  0
  9 10  1  0
  4 11  1  0
 11 12  1  0
 12  2  1  0
 10  5  1  0
  3 13  1  0
  6 14  1  0
  6 15  1  0
  7 16  1  0
  7 17  1  0
  9 18  1  0
  9 19  1  0
 10 20  1  0
 10 21  1  0
 11 22  1  0
 12 23  1  0
M  END
>  <smiles>  (31) 
O=c1cc(N2CCOCC2)[nH][nH]1

>  <score_type>  (31) 
oracle

>  <origin>  (31) 
adg

>  <m_score__min__energy>  (31) 
-5.2599999999999998

>  <m_primary>  (31) 
energy

$$$$
31:0
     RDKit          3D

 49 51  0  0  0  0  0  0  0  0999 V2000
   55.5380   29.8400   43.4620 C   0  0  0  0  0  0  0  0  0  0  0  0
   55.4390   29.1740   44.7170 O   0  0  0  0  0  0  0  0  0  0  0  0
   56.5340   28.6630   45.4370 C   0  0  0  0  0  0  0  0  0  0  0  0
   57.7160   29.4070   45.6240 C   0  0  0  0  0  0  0  0  0  0  0  0
   58.7950   28.8730   46.3470 C   0  0  0  0  0  0  0  0  0  0  0  0
   60.0350   29.6620   46.5410 C   0  0  0  0  0  0  0  0  0  0  0  0
   61.1510   29.0930   46.4360 O   0  0  0  0  0  0  0  0  0  0  0  0
   60.0010   31.0510   46.9030 N   0  0  0  0  0  0  0  0  0  0  0  0
   61.1380   31.9250   46.9760 C   0  0  0  0  0  0  0  0  0  0  0  0
   62.3870   31.4480   47.4040 C   0  0  0  0  0  0  0  0  0  0  0  0
   63.4770   32.3130   47.5010 C   0  0  0  0  0  0  0  0  0  0  0  0
   63.3310   33.6650   47.1890 C   0  0  0  0  0  0  0  0  0  0  0  0
   62.0880   34.1570   46.7900 C   0  0  0  0  0  0  0  0  0  0  0  0
   60.9810   33.2970   46.6860 C   0  0  0  0  0  0  0  0  0  0  0  0
   59.7090   33.8180   46.2540 N   0  0  0  0  0  0  0  0  0  0  0  0
   58.6440   34.1150   47.2190 C   0  0  0  0  0  0  0  0  0  0  0  0
   57.4240   33.2440   46.8890 C   0  0  0  0  0  0  0  0  0  0  0  0
   57.0320   33.4230   45.5390 O   0  0  0  0  0  0  0  0  0  0  0  0
   58.0580   32.9750   44.6680 C   0  0  0  0  0  0  0  0  0  0  0  0
   59.3290   33.8200   44.8370 C   0  0  0  0  0  0  0  0  0  0  0  0
   58.6720   27.5950   46.9140 C   0  0  0  0  0  0  0  0  0  0  0  0
   57.5060   26.8510   46.7290 C   0  0  0  0  0  0  0  0  0  0  0  0
   56.4410   27.3770   45.9900 C   0  0  0  0  0  0  0  0  0  0  0  0
   55.2760   26.5830   45.7750 N   0  0  0  0  0  0  0  0  0  0  0  0
   55.3660   24.8570   45.8180 S   0  0  0  0  0  0  0  0  0  0  0  0
   56.4610   24.2730   44.5460 C   0  0  0  0  0  0  0  0  0  0  0  0
   55.8580   24.3960   47.1640 O   0  0  0  0  0  0  0  0  0  0  0  0
   53.9900   24.2870   45.5850 O   0  0  0  0  0  0  0  0  0  0  0  0
   55.6979   30.9154   43.6292 H   0  0  0  0  0  0  0  0  0  0  0  0
   56.3847   29.4274   42.8937 H   0  0  0  0  0  0  0  0  0  0  0  0
   54.6079   29.6916   42.8937 H   0  0  0  0  0  0  0  0  0  0  0  0
   57.7945   30.4183   45.1985 H   0  0  0  0  0  0  0  0  0  0  0  0
   62.5068   30.3860   47.6644 H   0  0  0  0  0  0  0  0  0  0  0  0
   64.4552   31.9278   47.8246 H   0  0  0  0  0  0  0  0  0  0  0  0
   64.1950   34.3423   47.2575 H   0  0  0  0  0  0  0  0  0  0  0  0
   61.9734   35.2255   46.5551 H   0  0  0  0  0  0  0  0  0  0  0  0
   58.9942   33.8909   48.2374 H   0  0  0  0  0  0  0  0  0  0  0  0
   58.3716   35.1791   47.1608 H   0  0  0  0  0  0  0  0  0  0  0  0
   57.6797   32.1869   47.0538 H   0  0  0  0  0  0  0  0  0  0  0  0
   56.5901   33.5409   47.5420 H   0  0  0  0  0  0  0  0  0  0  0  0
   58.2910   31.9245   44.8965 H   0  0  0  0  0  0  0  0  0  0  0  0
   57.7059   33.0739   43.6306 H   0  0  0  0  0  0  0  0  0  0  0  0
   60.1427   33.3896   44.2348 H   0  0  0  0  0  0  0  0  0  0  0  0
   59.1421   34.8503   44.5001 H   0  0  0  0  0  0  0  0  0  0  0  0
   59.4990   27.1777   47.5073 H   0  0  0  0  0  0  0  0  0  0  0  0
   57.4238   25.8452   47.1667 H   0  0  0  0  0  0  0  0  0  0  0  0
   57.3419   23.8032   45.0078 H   0  0  0  0  0  0  0  0  0  0  0  0
   55.9368   23.5347   43.9214 H   0  0  0  0  0  0  0  0  0  0  0  0
   56.7821   25.1196   43.9214 H   0  0  0  0  0  0  0  0  0  0  0  0
  1  2  1  0
  2  3  1  0
  3  4  2  0
  4  5  1  0
  5  6  1  0
  6  7  2  0
  6  8  1  0
  8  9  1  0
  9 10  2  0
 10 11  1  0
 11 12  2  0
 12 13  1  0
 13 14  2  0
 14 15  1  0
 15 16  1  0
 16 17  1  0
 17 18  1  0
 18 19  1  0
 19 20  1  0
  5 21  2  0
 21 22  1  0
 22 23  2  0
 23 24  1  0
 24 25  1  0
 25 26  1  0
 25 27  2  0
 25 28  2  0
 23  3  1  0
 14  9  1  0
 20 15  1  0
  1 29  1  0
  1 30  1  0
  1 31  1  0
  4 32  1  0
 10 33  1  0
 11 34  1  0
 12 35  1  0
 13 36  1  0
 16 37  1  0
 16 38  1  0
 17 39  1  0
 17 40  1  0
 19 41  1  0
 19 42  1  0
 20 43  1  0
 20 44  1  0
 21 45  1  0
 22 46  1  0
 26 47  1  0
 26 48  1  0
 26 49  1  0
M  CHG  2   8  -1  24  -1
M  END
>  <UniqueID>  (32) 
30

>  <SMILES>  (32) 
COc1cc(C(=O)[N-]c2ccccc2N2CCOCC2)ccc1[N-]S(C)(=O)=O

>  <Energy>  (32) 
67.82359012780792

>  <Genealogy>  (32) 
COc1cc(C(=O)[N-]c2ccccc2N2CCOCC2)ccc1[N-]S(C)(=O)=O (protonated)
COc1cc(C(=O)[N-]c2ccccc2N2CCOCC2)ccc1[N-]S(C)(=O)=O (3D coordinates assigned)
COc1cc(C(=O)[N-]c2ccccc2N2CCOCC2)ccc1[N-]S(C)(=O)=O (nonaromatic ring conformer: 67.82359012780792 kcal/mol)

>  <smiles>  (32) 
COc1cc(C(=O)Nc2ccccc2N2CCOCC2)ccc1NS(C)(=O)=O

>  <score_type>  (32) 
oracle

>  <origin>  (32) 
adg

>  <m_score__min__energy>  (32) 
-11.960000000000001

>  <m_primary>  (32) 
energy

$$$$
32:0
     RDKit          3D

 29 30  0  0  1  0  0  0  0  0999 V2000
   55.3820   29.6160   44.8320 O   0  0  0  0  0  0  0  0  0  0  0  0
   56.4460   29.5180   44.1480 C   0  0  0  0  0  0  0  0  0  0  0  0
   56.7560   30.4550   43.0300 C   0  0  0  0  0  0  0  0  0  0  0  0
   57.8650   31.3750   43.4840 C   0  0  0  0  0  0  0  0  0  0  0  0
   57.4020   32.6510   43.8590 O   0  0  0  0  0  0  0  0  0  0  0  0
   57.9830   33.2780   44.9730 C   0  0  0  0  0  0  0  0  0  0  0  0
   58.8690   34.3280   44.8400 C   0  0  0  0  0  0  0  0  0  0  0  0
   59.4470   34.9540   45.9280 C   0  0  0  0  0  0  0  0  0  0  0  0
   59.1400   34.5230   47.2130 C   0  0  0  0  0  0  0  0  0  0  0  0
   58.2500   33.4660   47.3390 C   0  0  0  0  0  0  0  0  0  0  0  0
   57.6800   32.8520   46.2530 C   0  0  0  0  0  0  0  0  0  0  0  0
   57.4080   28.5030   44.4120 N   0  0  0  0  0  0  0  0  0  0  0  0
   57.2570   27.5820   45.2860 C   0  0  0  0  0  0  0  0  0  0  0  0
   58.2500   26.9060   45.9220 N   0  0  0  0  0  0  0  0  0  0  0  0
   57.6180   26.0350   46.7510 C   0  0  0  0  0  0  0  0  0  0  0  0
   56.2870   26.1760   46.6240 N   0  0  0  0  0  0  0  0  0  0  0  0
   56.0590   27.1310   45.7200 N   0  0  0  0  0  0  0  0  0  0  0  0
   57.0812   29.8866   42.1462 H   0  0  0  0  0  0  0  0  0  0  0  0
   55.8625   31.0379   42.7618 H   0  0  0  0  0  0  0  0  0  0  0  0
   58.3689   30.9170   44.3479 H   0  0  0  0  0  0  0  0  0  0  0  0
   58.5496   31.5100   42.6337 H   0  0  0  0  0  0  0  0  0  0  0  0
   59.1247   34.6798   43.8296 H   0  0  0  0  0  0  0  0  0  0  0  0
   60.1467   35.7894   45.7776 H   0  0  0  0  0  0  0  0  0  0  0  0
   59.5859   35.0019   48.0972 H   0  0  0  0  0  0  0  0  0  0  0  0
   57.9922   33.1074   48.3464 H   0  0  0  0  0  0  0  0  0  0  0  0
   56.9790   32.0173   46.4010 H   0  0  0  0  0  0  0  0  0  0  0  0
   58.1188   25.3230   47.4235 H   0  0  0  0  0  0  0  0  0  0  0  0
   55.5240   25.6460   47.1300 H   0  0  0  0  0  0  0  0  0  0  0  0
   55.1410   27.4930   45.3810 H   0  0  0  0  0  0  0  0  0  0  0  0
  1  2  2  0
  2  3  1  0
  3  4  1  0
  4  5  1  0
  5  6  1  0
  6  7  2  0
  7  8  1  0
  8  9  2  0
  9 10  1  0
 10 11  2  0
  2 12  1  0
 12 13  2  0
 13 14  1  0
 14 15  2  0
 15 16  1  0
 16 17  1  0
 11  6  1  0
 17 13  1  0
  3 18  1  0
  3 19  1  0
  4 20  1  0
  4 21  1  0
  7 22  1  0
  8 23  1  0
  9 24  1  0
 10 25  1  0
 11 26  1  0
 15 27  1  0
 16 28  1  0
 17 29  1  0
M  END
>  <smiles>  (33) 
O=C(CCOc1ccccc1)N=c1nc[nH][nH]1

>  <score_type>  (33) 
oracle

>  <origin>  (33) 
adg

>  <m_score__min__energy>  (33) 
-6.8799999999999999

>  <m_primary>  (33) 
energy

$$$$
33:0
     RDKit          3D

 67 70  0  0  0  0  0  0  0  0999 V2000
   56.2790   29.6740   42.7670 C   0  0  0  0  0  0  0  0  0  0  0  0
   55.9340   30.0990   44.1620 C   0  0  0  0  0  0  0  0  0  0  0  0
   55.2410   29.3300   44.8760 O   0  0  0  0  0  0  0  0  0  0  0  0
   56.3330   31.3670   44.6980 N   0  0  0  0  0  0  0  0  0  0  0  0
   57.4890   31.6370   45.5010 C   0  0  0  0  0  0  0  0  0  0  0  0
   58.5990   30.7900   45.3960 C   0  0  0  0  0  0  0  0  0  0  0  0
   59.7490   31.0310   46.1530 C   0  0  0  0  0  0  0  0  0  0  0  0
   59.8130   32.1430   47.0040 C   0  0  0  0  0  0  0  0  0  0  0  0
   61.2810   32.4590   47.9250 S   0  0  0  0  0  0  0  0  0  0  0  0
   61.4240   33.9370   48.1680 O   0  0  0  0  0  0  0  0  0  0  0  0
   62.4760   31.9880   47.1430 O   0  0  0  0  0  0  0  0  0  0  0  0
   61.2400   31.6260   49.4420 N   0  0  0  0  0  0  0  0  0  0  0  0
   61.0160   30.2170   49.5090 C   0  0  0  0  0  0  0  0  0  0  0  0
   60.8770   29.4870   48.3210 C   0  0  0  0  0  0  0  0  0  0  0  0
   60.6370   28.1050   48.3490 C   0  0  0  0  0  0  0  0  0  0  0  0
   60.4450   27.3460   47.0900 C   0  0  0  0  0  0  0  0  0  0  0  0
   60.7820   27.8600   45.9900 O   0  0  0  0  0  0  0  0  0  0  0  0
   59.9100   26.0160   47.1280 N   0  0  0  0  0  0  0  0  0  0  0  0
   58.6740   25.5690   46.5560 C   0  0  0  0  0  0  0  0  0  0  0  0
   58.6070   24.2680   46.0380 C   0  0  0  0  0  0  0  0  0  0  0  0
   57.4170   23.7850   45.4860 C   0  0  0  0  0  0  0  0  0  0  0  0
   56.2760   24.5920   45.4640 C   0  0  0  0  0  0  0  0  0  0  0  0
   56.3220   25.8860   46.0030 C   0  0  0  0  0  0  0  0  0  0  0  0
   55.1880   26.6960   46.0080 O   0  0  0  0  0  0  0  0  0  0  0  0
   57.5150   26.3720   46.5540 C   0  0  0  0  0  0  0  0  0  0  0  0
   60.5640   27.4560   49.5930 C   0  0  0  0  0  0  0  0  0  0  0  0
   60.7180   28.1740   50.7810 C   0  0  0  0  0  0  0  0  0  0  0  0
   60.9450   29.5640   50.7580 C   0  0  0  0  0  0  0  0  0  0  0  0
   61.0640   30.3300   51.9780 N   0  0  0  0  0  0  0  0  0  0  0  0
   60.5570   29.9060   53.2830 C   0  0  0  0  0  0  0  0  0  0  0  0
   59.0410   29.6880   53.2270 C   0  0  0  0  0  0  0  0  0  0  0  0
   58.3360   30.9740   53.4340 N   0  0  0  0  0  0  0  0  0  0  0  0
   58.4940   31.8900   52.2880 C   0  0  0  0  0  0  0  0  0  0  0  0
   57.6960   31.4060   51.0530 C   0  0  0  0  0  0  0  0  0  0  0  0
   56.7320   30.4150   51.3680 O   0  0  0  0  0  0  0  0  0  0  0  0
   56.0000   30.7960   52.5140 C   0  0  0  0  0  0  0  0  0  0  0  0
   56.9010   30.7890   53.7660 C   0  0  0  0  0  0  0  0  0  0  0  0
   58.7190   33.0160   47.0810 C   0  0  0  0  0  0  0  0  0  0  0  0
   57.5640   32.7680   46.3320 C   0  0  0  0  0  0  0  0  0  0  0  0
   56.9719   28.8205   42.8045 H   0  0  0  0  0  0  0  0  0  0  0  0
   55.3619   29.3787   42.2363 H   0  0  0  0  0  0  0  0  0  0  0  0
   56.7565   30.5108   42.2363 H   0  0  0  0  0  0  0  0  0  0  0  0
   58.5657   29.9286   44.7127 H   0  0  0  0  0  0  0  0  0  0  0  0
   60.6065   30.3459   46.0807 H   0  0  0  0  0  0  0  0  0  0  0  0
   60.9571   30.0044   47.3536 H   0  0  0  0  0  0  0  0  0  0  0  0
   59.4973   23.6226   46.0661 H   0  0  0  0  0  0  0  0  0  0  0  0
   57.3785   22.7681   45.0683 H   0  0  0  0  0  0  0  0  0  0  0  0
   55.3421   24.2123   45.0240 H   0  0  0  0  0  0  0  0  0  0  0  0
   55.1490   27.5600   45.4830 H   0  0  0  0  0  0  0  0  0  0  0  0
   57.5475   27.3830   46.9863 H   0  0  0  0  0  0  0  0  0  0  0  0
   60.3838   26.3716   49.6316 H   0  0  0  0  0  0  0  0  0  0  0  0
   60.6614   27.6481   51.7455 H   0  0  0  0  0  0  0  0  0  0  0  0
   61.5030   31.2790   51.9380 H   0  0  0  0  0  0  0  0  0  0  0  0
   61.0472   28.9650   53.5731 H   0  0  0  0  0  0  0  0  0  0  0  0
   60.7756   30.6918   54.0211 H   0  0  0  0  0  0  0  0  0  0  0  0
   58.7682   29.2772   52.2437 H   0  0  0  0  0  0  0  0  0  0  0  0
   58.7480   28.9841   54.0199 H   0  0  0  0  0  0  0  0  0  0  0  0
   58.1327   32.8880   52.5770 H   0  0  0  0  0  0  0  0  0  0  0  0
   59.5598   31.9194   52.0173 H   0  0  0  0  0  0  0  0  0  0  0  0
   57.1785   32.2697   50.6099 H   0  0  0  0  0  0  0  0  0  0  0  0
   58.4151   30.9541   50.3539 H   0  0  0  0  0  0  0  0  0  0  0  0
   55.5976   31.8088   52.3648 H   0  0  0  0  0  0  0  0  0  0  0  0
   55.1810   30.0773   52.6646 H   0  0  0  0  0  0  0  0  0  0  0  0
   56.5850   31.6049   54.4327 H   0  0  0  0  0  0  0  0  0  0  0  0
   56.7935   29.8070   54.2500 H   0  0  0  0  0  0  0  0  0  0  0  0
   58.7690   33.9002   47.7335 H   0  0  0  0  0  0  0  0  0  0  0  0
   56.7115   33.4605   46.3936 H   0  0  0  0  0  0  0  0  0  0  0  0
  1  2  1  0
  2  3  2  0
  2  4  1  0
  4  5  1  0
  5  6  2  0
  6  7  1  0
  7  8  2  0
  8  9  1  0
  9 10  2  0
  9 11  2  0
  9 12  1  0
 12 13  1  0
 13 14  2  0
 14 15  1  0
 15 16  1  0
 16 17  2  0
 16 18  1  0
 18 19  1  0
 19 20  2  0
 20 21  1  0
 21 22  2  0
 22 23  1  0
 23 24  1  0
 23 25  2  0
 15 26  2  0
 26 27  1  0
 27 28  2  0
 28 29  1  0
 29 30  1  0
 30 31  1  0
 31 32  1  0
 32 33  1  0
 33 34  1  0
 34 35  1  0
 35 36  1  0
 36 37  1  0
  8 38  1  0
 38 39  2  0
 39  5  1  0
 28 13  1  0
 37 32  1  0
 25 19  1  0
  1 40  1  0
  1 41  1  0
  1 42  1  0
  6 43  1  0
  7 44  1  0
 14 45  1  0
 20 46  1  0
 21 47  1  0
 22 48  1  0
 24 49  1  0
 25 50  1  0
 26 51  1  0
 27 52  1  0
 29 53  1  0
 30 54  1  0
 30 55  1  0
 31 56  1  0
 31 57  1  0
 33 58  1  0
 33 59  1  0
 34 60  1  0
 34 61  1  0
 36 62  1  0
 36 63  1  0
 37 64  1  0
 37 65  1  0
 38 66  1  0
 39 67  1  0
M  CHG  3   4  -1  12  -1  18  -1
M  END
>  <UniqueID>  (34) 
31

>  <SMILES>  (34) 
CC(=O)[N-]c1ccc(S(=O)(=O)[N-]c2cc(C(=O)[N-]c3cccc(O)c3)ccc2NCCN2CCOCC2)cc1

>  <Energy>  (34) 
97.19826900564865

>  <Genealogy>  (34) 
CC(=O)[N-]c1ccc(S(=O)(=O)[N-]c2cc(C(=O)[N-]c3cccc(O)c3)ccc2NCCN2CCOCC2)cc1 (protonated)
CC(=O)[N-]c1ccc(S(=O)(=O)[N-]c2cc(C(=O)[N-]c3cccc(O)c3)ccc2NCCN2CCOCC2)cc1 (3D coordinates assigned)
CC(=O)[N-]c1ccc(S(=O)(=O)[N-]c2cc(C(=O)[N-]c3cccc(O)c3)ccc2NCCN2CCOCC2)cc1 (nonaromatic ring conformer: 97.19826900564865 kcal/mol)

>  <smiles>  (34) 
CC(=O)Nc1ccc(S(=O)(=O)Nc2cc(C(=O)Nc3cccc(O)c3)ccc2NCCN2CCOCC2)cc1

>  <score_type>  (34) 
oracle

>  <origin>  (34) 
adg

>  <m_score__min__energy>  (34) 
-14.48

>  <m_primary>  (34) 
energy

$$$$
34:0
     RDKit          3D

 63 67  0  0  0  0  0  0  0  0999 V2000
   62.6600   33.8510   46.2950 C   0  0  0  0  0  0  0  0  0  0  0  0
   62.9990   33.5470   47.7150 C   0  0  0  0  0  0  0  0  0  0  0  0
   62.4330   34.1030   48.8420 C   0  0  0  0  0  0  0  0  0  0  0  0
   63.1140   33.5990   49.8890 N   0  0  0  0  0  0  0  0  0  0  0  0
   62.8860   33.8820   51.3040 C   0  0  0  0  0  0  0  0  0  0  0  0
   62.1270   32.7350   51.9870 C   0  0  1  0  0  0  0  0  0  0  0  0
   61.0580   32.0850   51.0610 C   0  0  0  0  0  0  0  0  0  0  0  0
   61.5370   30.7300   50.8140 N   0  0  0  0  0  0  0  0  0  0  0  0
   61.1650   29.9680   49.6600 C   0  0  0  0  0  0  0  0  0  0  0  0
   61.0150   30.5950   48.4150 C   0  0  0  0  0  0  0  0  0  0  0  0
   60.5280   29.8740   47.3220 C   0  0  0  0  0  0  0  0  0  0  0  0
   60.2120   28.5110   47.4490 C   0  0  0  0  0  0  0  0  0  0  0  0
   59.6100   27.7970   46.3480 N   0  0  0  0  0  0  0  0  0  0  0  0
   58.9680   26.4890   46.5820 C   0  0  0  0  0  0  0  0  0  0  0  0
   57.4570   26.6010   46.8590 C   0  0  0  0  0  0  0  0  0  0  0  0
   56.6320   27.0480   45.6340 C   0  0  0  0  0  0  0  0  0  0  0  0
   57.2140   28.2120   44.9300 N   0  0  0  0  0  0  0  0  0  0  0  0
   56.4910   29.4700   44.9070 C   0  0  0  0  0  0  0  0  0  0  0  0
   55.2410   29.4800   45.0670 O   0  0  0  0  0  0  0  0  0  0  0  0
   57.1630   30.7600   44.6700 C   0  0  0  0  0  0  0  0  0  0  0  0
   57.2450   31.2900   43.3720 C   0  0  0  0  0  0  0  0  0  0  0  0
   57.9090   32.5010   43.1490 C   0  0  0  0  0  0  0  0  0  0  0  0
   58.5060   33.1800   44.2170 C   0  0  0  0  0  0  0  0  0  0  0  0
   58.4510   32.6430   45.5060 C   0  0  0  0  0  0  0  0  0  0  0  0
   57.7920   31.4310   45.7310 C   0  0  0  0  0  0  0  0  0  0  0  0
   58.4490   28.0200   44.1470 C   0  0  0  0  0  0  0  0  0  0  0  0
   59.6980   28.3520   44.9850 C   0  0  0  0  0  0  0  0  0  0  0  0
   60.4320   27.8710   48.6850 C   0  0  0  0  0  0  0  0  0  0  0  0
   60.2490   26.5350   48.8130 F   0  0  0  0  0  0  0  0  0  0  0  0
   60.8830   28.6040   49.7850 C   0  0  0  0  0  0  0  0  0  0  0  0
   62.7180   30.5630   51.5710 C   0  0  0  0  0  0  0  0  0  0  0  0
   63.3950   29.5010   51.5910 O   0  0  0  0  0  0  0  0  0  0  0  0
   63.0460   31.6870   52.2890 O   0  0  0  0  0  0  0  0  0  0  0  0
   64.0550   32.7860   49.4360 N   0  0  0  0  0  0  0  0  0  0  0  0
   64.0060   32.7460   48.1140 N   0  0  0  0  0  0  0  0  0  0  0  0
   61.8414   34.5851   46.2625 H   0  0  0  0  0  0  0  0  0  0  0  0
   63.5439   34.2648   45.7875 H   0  0  0  0  0  0  0  0  0  0  0  0
   62.3446   32.9274   45.7875 H   0  0  0  0  0  0  0  0  0  0  0  0
   61.5948   34.8144   48.8789 H   0  0  0  0  0  0  0  0  0  0  0  0
   63.8568   34.0168   51.8034 H   0  0  0  0  0  0  0  0  0  0  0  0
   62.2782   34.7955   51.3819 H   0  0  0  0  0  0  0  0  0  0  0  0
   61.6429   33.1695   52.8741 H   0  0  0  0  0  0  0  0  0  0  0  0
   60.0780   32.0624   51.5602 H   0  0  0  0  0  0  0  0  0  0  0  0
   60.9258   32.6504   50.1267 H   0  0  0  0  0  0  0  0  0  0  0  0
   61.2811   31.6560   48.2987 H   0  0  0  0  0  0  0  0  0  0  0  0
   60.3908   30.3777   46.3538 H   0  0  0  0  0  0  0  0  0  0  0  0
   59.1153   25.8617   45.6905 H   0  0  0  0  0  0  0  0  0  0  0  0
   59.4345   26.0487   47.4756 H   0  0  0  0  0  0  0  0  0  0  0  0
   57.0899   25.6164   47.1841 H   0  0  0  0  0  0  0  0  0  0  0  0
   57.3287   27.3735   47.6315 H   0  0  0  0  0  0  0  0  0  0  0  0
   56.5720   26.2069   44.9276 H   0  0  0  0  0  0  0  0  0  0  0  0
   55.6408   27.3517   46.0018 H   0  0  0  0  0  0  0  0  0  0  0  0
   56.7863   30.7520   42.5293 H   0  0  0  0  0  0  0  0  0  0  0  0
   57.9618   32.9198   42.1332 H   0  0  0  0  0  0  0  0  0  0  0  0
   59.0190   34.1372   44.0418 H   0  0  0  0  0  0  0  0  0  0  0  0
   58.9264   33.1742   46.3437 H   0  0  0  0  0  0  0  0  0  0  0  0
   57.7661   31.0012   46.7432 H   0  0  0  0  0  0  0  0  0  0  0  0
   58.5059   26.9718   43.8182 H   0  0  0  0  0  0  0  0  0  0  0  0
   58.4208   28.6976   43.2809 H   0  0  0  0  0  0  0  0  0  0  0  0
   60.5831   27.9306   44.4861 H   0  0  0  0  0  0  0  0  0  0  0  0
   59.7720   29.4464   45.0671 H   0  0  0  0  0  0  0  0  0  0  0  0
   61.0173   28.1051   50.7561 H   0  0  0  0  0  0  0  0  0  0  0  0
   64.6500   32.1860   47.5110 H   0  0  0  0  0  0  0  0  0  0  0  0
  1  2  1  0
  2  3  2  0
  3  4  1  0
  4  5  1  0
  5  6  1  0
  6  7  1  0
  7  8  1  0
  8  9  1  0
  9 10  2  0
 10 11  1  0
 11 12  2  0
 12 13  1  0
 13 14  1  0
 14 15  1  0
 15 16  1  0
 16 17  1  0
 17 18  1  0
 18 19  2  0
 18 20  1  0
 20 21  2  0
 21 22  1  0
 22 23  2  0
 23 24  1  0
 24 25  2  0
 17 26  1  0
 26 27  1  0
 12 28  1  0
 28 29  1  0
 28 30  2  0
  8 31  1  0
 31 32  2  0
 31 33  1  0
  4 34  1  0
 34 35  2  0
 35  2  1  0
 33  6  1  0
 30  9  1  0
 27 13  1  0
 25 20  1  0
  1 36  1  0
  1 37  1  0
  1 38  1  0
  3 39  1  0
  5 40  1  0
  5 41  1  0
  6 42  1  1
  7 43  1  0
  7 44  1  0
 10 45  1  0
 11 46  1  0
 14 47  1  0
 14 48  1  0
 15 49  1  0
 15 50  1  0
 16 51  1  0
 16 52  1  0
 21 53  1  0
 22 54  1  0
 23 55  1  0
 24 56  1  0
 25 57  1  0
 26 58  1  0
 26 59  1  0
 27 60  1  0
 27 61  1  0
 30 62  1  0
 35 63  1  0
M  CHG  1  35   1
M  END
>  <UniqueID>  (35) 
32

>  <SMILES>  (35) 
Cc1cn(C[C@H]2CN(c3ccc(N4CCCN(C(=O)c5ccccc5)CC4)c(F)c3)C(=O)O2)n[nH+]1

>  <Energy>  (35) 
135.47950431472321

>  <Genealogy>  (35) 
Cc1cn(CC2CN(c3ccc(N4CCCN(C(=O)c5ccccc5)CC4)c(F)c3)C(=O)O2)n[nH+]1 (protonated)
Cc1cn(C[C@H]2CN(c3ccc(N4CCCN(C(=O)c5ccccc5)CC4)c(F)c3)C(=O)O2)n[nH+]1 (chirality)
Cc1cn(C[C@H]2CN(c3ccc(N4CCCN(C(=O)c5ccccc5)CC4)c(F)c3)C(=O)O2)n[nH+]1 (3D coordinates assigned)
Cc1cn(C[C@H]2CN(c3ccc(N4CCCN(C(=O)c5ccccc5)CC4)c(F)c3)C(=O)O2)n[nH+]1 (nonaromatic ring conformer: 135.47950431472321 kcal/mol)

>  <smiles>  (35) 
Cc1cn(CC2CN(c3ccc(N4CCCN(C(=O)c5ccccc5)CC4)c(F)c3)C(=O)O2)nn1

>  <score_type>  (35) 
oracle

>  <origin>  (35) 
adg

>  <m_score__min__energy>  (35) 
-6.2400000000000002

>  <m_primary>  (35) 
energy

$$$$
35:0
     RDKit          3D

 36 38  0  0  0  0  0  0  0  0999 V2000
   56.7530   20.8130   43.1320 C   0  0  0  0  0  0  0  0  0  0  0  0
   55.9100   21.7560   43.7870 O   0  0  0  0  0  0  0  0  0  0  0  0
   56.2920   23.0650   44.1180 C   0  0  0  0  0  0  0  0  0  0  0  0
   57.0140   23.8870   43.2340 C   0  0  0  0  0  0  0  0  0  0  0  0
   57.3710   25.1850   43.6100 C   0  0  0  0  0  0  0  0  0  0  0  0
   57.0120   25.6910   44.8720 C   0  0  0  0  0  0  0  0  0  0  0  0
   57.3960   27.0690   45.2650 C   0  0  0  0  0  0  0  0  0  0  0  0
   56.7490   28.1940   44.8750 N   0  0  0  0  0  0  0  0  0  0  0  0
   57.3040   29.3260   45.3840 C   0  0  0  0  0  0  0  0  0  0  0  0
   56.7820   30.6200   45.0520 N   0  0  0  0  0  0  0  0  0  0  0  0
   57.5120   31.6820   44.4220 C   0  0  0  0  0  0  0  0  0  0  0  0
   57.5940   31.6950   43.1650 O   0  0  0  0  0  0  0  0  0  0  0  0
   58.1260   32.7840   45.2000 C   0  0  0  0  0  0  0  0  0  0  0  0
   58.6880   33.8880   44.5370 C   0  0  0  0  0  0  0  0  0  0  0  0
   59.2620   34.9350   45.2660 C   0  0  0  0  0  0  0  0  0  0  0  0
   59.2700   34.8920   46.6630 C   0  0  0  0  0  0  0  0  0  0  0  0
   58.6990   33.8080   47.3320 C   0  0  0  0  0  0  0  0  0  0  0  0
   58.1250   32.7600   46.6080 C   0  0  0  0  0  0  0  0  0  0  0  0
   58.4310   29.1250   46.1800 C   0  0  0  0  0  0  0  0  0  0  0  0
   58.7060   27.4680   46.2490 S   0  0  0  0  0  0  0  0  0  0  0  0
   56.2950   24.8610   45.7530 C   0  0  0  0  0  0  0  0  0  0  0  0
   55.9390   23.5630   45.3750 C   0  0  0  0  0  0  0  0  0  0  0  0
   57.2878   20.2147   43.8843 H   0  0  0  0  0  0  0  0  0  0  0  0
   56.1415   20.1494   42.5029 H   0  0  0  0  0  0  0  0  0  0  0  0
   57.4807   21.3466   42.5029 H   0  0  0  0  0  0  0  0  0  0  0  0
   57.2990   23.5065   42.2420 H   0  0  0  0  0  0  0  0  0  0  0  0
   57.9387   25.8173   42.9115 H   0  0  0  0  0  0  0  0  0  0  0  0
   55.9260   28.2120   44.2340 H   0  0  0  0  0  0  0  0  0  0  0  0
   58.6766   33.9293   43.4378 H   0  0  0  0  0  0  0  0  0  0  0  0
   59.7071   35.7922   44.7397 H   0  0  0  0  0  0  0  0  0  0  0  0
   59.7265   35.7128   47.2356 H   0  0  0  0  0  0  0  0  0  0  0  0
   58.7010   33.7789   48.4316 H   0  0  0  0  0  0  0  0  0  0  0  0
   57.6700   31.9118   47.1405 H   0  0  0  0  0  0  0  0  0  0  0  0
   59.0294   29.9061   46.6718 H   0  0  0  0  0  0  0  0  0  0  0  0
   56.0121   25.2364   46.7475 H   0  0  0  0  0  0  0  0  0  0  0  0
   55.3755   22.9275   46.0739 H   0  0  0  0  0  0  0  0  0  0  0  0
  1  2  1  0
  2  3  1  0
  3  4  2  0
  4  5  1  0
  5  6  2  0
  6  7  1  0
  7  8  2  0
  8  9  1  0
  9 10  1  0
 10 11  1  0
 11 12  2  0
 11 13  1  0
 13 14  2  0
 14 15  1  0
 15 16  2  0
 16 17  1  0
 17 18  2  0
  9 19  2  0
 19 20  1  0
  6 21  1  0
 21 22  2  0
 22  3  1  0
 20  7  1  0
 18 13  1  0
  1 23  1  0
  1 24  1  0
  1 25  1  0
  4 26  1  0
  5 27  1  0
  8 28  1  0
 14 29  1  0
 15 30  1  0
 16 31  1  0
 17 32  1  0
 18 33  1  0
 19 34  1  0
 21 35  1  0
 22 36  1  0
M  CHG  2   8   1  10  -1
M  END
>  <UniqueID>  (36) 
33

>  <SMILES>  (36) 
COc1ccc(-c2[nH+]c([N-]C(=O)c3ccccc3)cs2)cc1

>  <Energy>  (36) 
75.92643072145877

>  <Genealogy>  (36) 
COc1ccc(-c2[nH+]c([N-]C(=O)c3ccccc3)cs2)cc1 (protonated)
COc1ccc(-c2[nH+]c([N-]C(=O)c3ccccc3)cs2)cc1 (3D coordinates assigned)
COc1ccc(-c2[nH+]c([N-]C(=O)c3ccccc3)cs2)cc1 (optimized conformer: 75.92643072145877 kcal/mol)

>  <smiles>  (36) 
COc1ccc(-c2nc(NC(=O)c3ccccc3)cs2)cc1

>  <score_type>  (36) 
oracle

>  <origin>  (36) 
adg

>  <m_score__min__energy>  (36) 
-8.0299999999999994

>  <m_primary>  (36) 
energy

$$$$
36:0
     RDKit          3D

 41 45  0  0  0  0  0  0  0  0999 V2000
   54.7410   27.4590   46.3650 H   0  0  0  0  0  0  0  0  0  0  0  0
   55.1520   26.7520   45.7680 O   0  0  0  0  0  0  0  0  0  0  0  0
   56.1250   25.8880   46.2590 C   0  0  0  0  0  0  0  0  0  0  0  0
   55.8720   24.8890   47.1200 N   0  0  0  0  0  0  0  0  0  0  0  0
   57.1010   24.3800   47.3520 C   0  0  0  0  0  0  0  0  0  0  0  0
   57.2970   23.4090   48.1290 O   0  0  0  0  0  0  0  0  0  0  0  0
   58.1050   25.0000   46.6960 N   0  0  0  0  0  0  0  0  0  0  0  0
   57.4720   25.9450   45.9780 C   0  0  0  0  0  0  0  0  0  0  0  0
   58.1740   26.9540   45.1670 C   0  0  0  0  0  0  0  0  0  0  0  0
   59.0201   26.6191   44.5489 H   0  0  0  0  0  0  0  0  0  0  0  0
   57.8490   28.2540   45.1330 C   0  0  0  0  0  0  0  0  0  0  0  0
   56.7920   28.8180   44.4190 C   0  0  0  0  0  0  0  0  0  0  0  0
   56.0972   28.2592   43.7748 H   0  0  0  0  0  0  0  0  0  0  0  0
   56.7460   30.1560   44.6350 N   0  0  0  0  0  0  0  0  0  0  0  0
   57.7330   30.4410   45.4690 N   0  0  0  0  0  0  0  0  0  0  0  0
   58.0560   31.6490   45.9920 C   0  0  0  0  0  0  0  0  0  0  0  0
   57.3800   32.7110   45.6440 N   0  0  0  0  0  0  0  0  0  0  0  0
   57.7390   34.1390   45.5560 C   0  0  0  0  0  0  0  0  0  0  0  0
   56.6976   34.4595   45.4049 H   0  0  0  0  0  0  0  0  0  0  0  0
   59.0710   34.4810   44.9070 C   0  0  0  0  0  0  0  0  0  0  0  0
   59.7048   33.6812   44.4965 H   0  0  0  0  0  0  0  0  0  0  0  0
   59.3932   35.1513   44.0965 H   0  0  0  0  0  0  0  0  0  0  0  0
   58.8950   34.6180   46.4220 C   0  0  0  0  0  0  0  0  0  0  0  0
   59.4020   33.9166   47.1010 H   0  0  0  0  0  0  0  0  0  0  0  0
   59.0378   35.4274   47.1531 H   0  0  0  0  0  0  0  0  0  0  0  0
   59.0910   31.6970   46.8780 N   0  0  0  0  0  0  0  0  0  0  0  0
   59.7650   30.5640   47.2380 C   0  0  0  0  0  0  0  0  0  0  0  0
   60.7550   30.6550   48.0750 N   0  0  0  0  0  0  0  0  0  0  0  0
   61.3480   31.8710   48.5640 C   0  0  0  0  0  0  0  0  0  0  0  0
   62.6440   32.2690   48.1840 C   0  0  0  0  0  0  0  0  0  0  0  0
   63.2194   31.6583   47.4727 H   0  0  0  0  0  0  0  0  0  0  0  0
   63.2010   33.4390   48.7090 C   0  0  0  0  0  0  0  0  0  0  0  0
   64.2102   33.7512   48.4023 H   0  0  0  0  0  0  0  0  0  0  0  0
   62.4800   34.2130   49.6220 C   0  0  0  0  0  0  0  0  0  0  0  0
   63.0210   35.3490   50.1270 F   0  0  0  0  0  0  0  0  0  0  0  0
   61.2040   33.8060   50.0250 C   0  0  0  0  0  0  0  0  0  0  0  0
   60.6382   34.4094   50.7502 H   0  0  0  0  0  0  0  0  0  0  0  0
   60.6470   32.6330   49.5070 C   0  0  0  0  0  0  0  0  0  0  0  0
   59.6516   32.3064   49.8423 H   0  0  0  0  0  0  0  0  0  0  0  0
   59.4170   29.3620   46.6870 N   0  0  0  0  0  0  0  0  0  0  0  0
   58.4050   29.3350   45.7910 C   0  0  0  0  0  0  0  0  0  0  0  0
  1  2  1  0
  2  3  1  0
  3  4  1  0
  4  5  1  0
  5  6  2  0
  5  7  1  0
  7  8  1  0
  8  9  1  0
  9 10  1  0
  9 11  2  0
 11 12  1  0
 12 13  1  0
 12 14  2  0
 14 15  1  0
 15 16  1  0
 16 17  2  0
 17 18  1  0
 18 19  1  0
 18 20  1  0
 20 21  1  0
 20 22  1  0
 20 23  1  0
 23 24  1  0
 23 25  1  0
 16 26  1  0
 26 27  1  0
 27 28  2  3
 28 29  1  0
 29 30  2  0
 30 31  1  0
 30 32  1  0
 32 33  1  0
 32 34  2  0
 34 35  1  0
 34 36  1  0
 36 37  1  0
 36 38  2  0
 38 39  1  0
 27 40  1  0
 40 41  2  0
  8  3  2  0
 41 11  1  0
 41 15  1  0
 23 18  1  0
 38 29  1  0
M  CHG  3   4  -1   7  -1  26  -1
M  END
>  <UniqueID>  (37) 
34

>  <SMILES>  (37) 
O=c1[n-]c(O)c(/C=c2/cnn3/c(=N/C4CC4)[n-]c(=Nc4ccc(F)cc4)nc23)[n-]1

>  <Energy>  (37) 
398.8267637718529

>  <Genealogy>  (37) 
O=c1[n-]c(O)c(C=c2cnn3c(=NC4CC4)[n-]c(=Nc4ccc(F)cc4)nc23)[n-]1 (protonated)
O=c1[n-]c(O)c(/C=c2/cnn3/c(=N/C4CC4)[n-]c(=Nc4ccc(F)cc4)nc23)[n-]1 (cis-trans isomerization)
O=c1[n-]c(O)c(/C=c2/cnn3/c(=N/C4CC4)[n-]c(=Nc4ccc(F)cc4)nc23)[n-]1 (3D coordinates assigned)
O=c1[n-]c(O)c(/C=c2/cnn3/c(=N/C4CC4)[n-]c(=Nc4ccc(F)cc4)nc23)[n-]1 (nonaromatic ring conformer: 398.8267637718529 kcal/mol)

>  <smiles>  (37) 
O=c1[nH]c(O)c(C=c2cnn3c(=NC4CC4)[nH]c(=Nc4ccc(F)cc4)nc23)[nH]1

>  <score_type>  (37) 
oracle

>  <origin>  (37) 
adg

>  <m_score__min__energy>  (37) 
-14.32

>  <m_primary>  (37) 
energy

$$$$
37:0
     RDKit          3D

 53 56  0  0  0  0  0  0  0  0999 V2000
   63.8740   30.4610   51.4440 C   0  0  0  0  0  0  0  0  0  0  0  0
   62.5120   30.8780   51.4790 O   0  0  0  0  0  0  0  0  0  0  0  0
   61.6270   30.7720   50.3950 C   0  0  0  0  0  0  0  0  0  0  0  0
   62.1460   30.8720   49.1000 C   0  0  0  0  0  0  0  0  0  0  0  0
   61.3020   30.7910   47.9890 C   0  0  0  0  0  0  0  0  0  0  0  0
   59.9220   30.6150   48.1550 C   0  0  0  0  0  0  0  0  0  0  0  0
   59.0520   30.5590   47.0030 N   0  0  0  0  0  0  0  0  0  0  0  0
   58.2160   31.6090   46.6980 C   0  0  0  0  0  0  0  0  0  0  0  0
   58.1570   33.1110   47.6960 S   0  0  0  0  0  0  0  0  0  0  0  0
   59.3490   34.0450   46.6760 C   0  0  0  0  0  0  0  0  0  0  0  0
   60.7470   33.9570   47.2330 C   0  0  0  0  0  0  0  0  0  0  0  0
   61.8120   33.6720   46.3680 C   0  0  0  0  0  0  0  0  0  0  0  0
   63.1160   33.6300   46.8480 C   0  0  0  0  0  0  0  0  0  0  0  0
   63.3760   33.8610   48.1970 C   0  0  0  0  0  0  0  0  0  0  0  0
   62.3240   34.1330   49.0960 C   0  0  0  0  0  0  0  0  0  0  0  0
   62.5790   34.3310   50.4620 O   0  0  0  0  0  0  0  0  0  0  0  0
   63.7660   33.9160   51.1370 C   0  0  0  0  0  0  0  0  0  0  0  0
   60.9900   34.1890   48.6060 C   0  0  0  0  0  0  0  0  0  0  0  0
   59.8760   34.4650   49.4220 O   0  0  0  0  0  0  0  0  0  0  0  0
   59.5680   33.8570   50.6730 C   0  0  0  0  0  0  0  0  0  0  0  0
   57.4110   31.5500   45.6050 N   0  0  0  0  0  0  0  0  0  0  0  0
   57.4100   30.4780   44.7800 C   0  0  0  0  0  0  0  0  0  0  0  0
   56.5810   30.4630   43.6520 C   0  0  0  0  0  0  0  0  0  0  0  0
   56.5780   29.3540   42.8000 C   0  0  0  0  0  0  0  0  0  0  0  0
   57.4000   28.2550   43.0760 C   0  0  0  0  0  0  0  0  0  0  0  0
   58.2330   28.2650   44.1990 C   0  0  0  0  0  0  0  0  0  0  0  0
   58.2470   29.3820   45.0580 C   0  0  0  0  0  0  0  0  0  0  0  0
   59.0680   29.4440   46.1980 C   0  0  0  0  0  0  0  0  0  0  0  0
   59.8130   28.4640   46.4860 O   0  0  0  0  0  0  0  0  0  0  0  0
   59.4030   30.4770   49.4530 C   0  0  0  0  0  0  0  0  0  0  0  0
   60.2440   30.5690   50.5650 C   0  0  0  0  0  0  0  0  0  0  0  0
   64.2489   30.3462   52.4718 H   0  0  0  0  0  0  0  0  0  0  0  0
   63.9494   29.4986   50.9166 H   0  0  0  0  0  0  0  0  0  0  0  0
   64.4753   31.2162   50.9166 H   0  0  0  0  0  0  0  0  0  0  0  0
   63.2269   31.0155   48.9549 H   0  0  0  0  0  0  0  0  0  0  0  0
   61.7245   30.8660   46.9762 H   0  0  0  0  0  0  0  0  0  0  0  0
   59.3449   33.6334   45.6559 H   0  0  0  0  0  0  0  0  0  0  0  0
   59.0457   35.1023   46.6751 H   0  0  0  0  0  0  0  0  0  0  0  0
   61.6150   33.4804   45.3029 H   0  0  0  0  0  0  0  0  0  0  0  0
   63.9462   33.4134   46.1596 H   0  0  0  0  0  0  0  0  0  0  0  0
   64.4123   33.8309   48.5647 H   0  0  0  0  0  0  0  0  0  0  0  0
   63.6079   33.9713   52.2242 H   0  0  0  0  0  0  0  0  0  0  0  0
   64.0061   32.8806   50.8535 H   0  0  0  0  0  0  0  0  0  0  0  0
   64.5989   34.5763   50.8535 H   0  0  0  0  0  0  0  0  0  0  0  0
   59.9003   34.5129   51.4911 H   0  0  0  0  0  0  0  0  0  0  0  0
   58.4817   33.7002   50.7469 H   0  0  0  0  0  0  0  0  0  0  0  0
   60.0842   32.8884   50.7469 H   0  0  0  0  0  0  0  0  0  0  0  0
   55.9316   31.3241   43.4357 H   0  0  0  0  0  0  0  0  0  0  0  0
   55.9290   29.3453   41.9119 H   0  0  0  0  0  0  0  0  0  0  0  0
   57.3906   27.3813   42.4077 H   0  0  0  0  0  0  0  0  0  0  0  0
   58.8781   27.3999   44.4122 H   0  0  0  0  0  0  0  0  0  0  0  0
   58.3274   30.2953   49.5949 H   0  0  0  0  0  0  0  0  0  0  0  0
   59.8238   30.4825   51.5779 H   0  0  0  0  0  0  0  0  0  0  0  0
  1  2  1  0
  2  3  1  0
  3  4  2  0
  4  5  1  0
  5  6  2  0
  6  7  1  0
  7  8  1  0
  8  9  1  0
  9 10  1  0
 10 11  1  0
 11 12  2  0
 12 13  1  0
 13 14  2  0
 14 15  1  0
 15 16  1  0
 16 17  1  0
 15 18  2  0
 18 19  1  0
 19 20  1  0
  8 21  2  0
 21 22  1  0
 22 23  2  0
 23 24  1  0
 24 25  2  0
 25 26  1  0
 26 27  2  0
 27 28  1  0
 28 29  2  0
  6 30  1  0
 30 31  2  0
 31  3  1  0
 28  7  1  0
 18 11  1  0
 27 22  1  0
  1 32  1  0
  1 33  1  0
  1 34  1  0
  4 35  1  0
  5 36  1  0
 10 37  1  0
 10 38  1  0
 12 39  1  0
 13 40  1  0
 14 41  1  0
 17 42  1  0
 17 43  1  0
 17 44  1  0
 20 45  1  0
 20 46  1  0
 20 47  1  0
 23 48  1  0
 24 49  1  0
 25 50  1  0
 26 51  1  0
 30 52  1  0
 31 53  1  0
M  END
>  <UniqueID>  (38) 
35

>  <SMILES>  (38) 
COc1ccc(-n2c(SCc3cccc(OC)c3OC)nc3ccccc3c2=O)cc1

>  <Energy>  (38) 
64.68577145913085

>  <Genealogy>  (38) 
COc1ccc(-n2c(SCc3cccc(OC)c3OC)nc3ccccc3c2=O)cc1 (3D coordinates assigned)
COc1ccc(-n2c(SCc3cccc(OC)c3OC)nc3ccccc3c2=O)cc1 (optimized conformer: 64.68577145913085 kcal/mol)

>  <smiles>  (38) 
COc1ccc(-n2c(SCc3cccc(OC)c3OC)nc3ccccc3c2=O)cc1

>  <score_type>  (38) 
oracle

>  <origin>  (38) 
adg

>  <m_score__min__energy>  (38) 
-7.6200000000000001

>  <m_primary>  (38) 
energy

$$$$
38:0
     RDKit          3D

 37 38  0  0  0  0  0  0  0  0999 V2000
   56.3850   24.7130   44.3620 N   0  0  0  0  0  0  0  0  0  0  0  0
   55.8470   25.0730   45.9670 S   0  0  0  0  0  0  0  0  0  0  0  0
   55.2410   26.4490   45.9920 O   0  0  0  0  0  0  0  0  0  0  0  0
   54.8100   24.0690   46.3890 O   0  0  0  0  0  0  0  0  0  0  0  0
   57.2290   25.0270   47.0940 C   0  0  0  0  0  0  0  0  0  0  0  0
   58.1980   26.1720   46.8210 C   0  0  0  0  0  0  0  0  0  0  0  0
   58.6950   26.0730   45.4540 N   0  0  0  0  0  0  0  0  0  0  0  0
   58.2310   26.8680   44.3540 C   0  0  0  0  0  0  0  0  0  0  0  0
   58.1140   26.3280   43.2240 O   0  0  0  0  0  0  0  0  0  0  0  0
   57.8400   28.2810   44.5170 C   0  0  0  0  0  0  0  0  0  0  0  0
   58.2400   28.9870   45.6610 C   0  0  0  0  0  0  0  0  0  0  0  0
   57.8700   30.3250   45.8310 C   0  0  0  0  0  0  0  0  0  0  0  0
   57.0810   30.9700   44.8630 C   0  0  0  0  0  0  0  0  0  0  0  0
   56.6770   32.3400   44.9970 N   0  0  0  0  0  0  0  0  0  0  0  0
   57.7390   33.7070   44.9120 S   0  0  0  0  0  0  0  0  0  0  0  0
   56.9380   34.9500   44.6420 O   0  0  0  0  0  0  0  0  0  0  0  0
   58.7190   33.5060   43.7910 O   0  0  0  0  0  0  0  0  0  0  0  0
   58.6230   33.8630   46.4170 C   0  0  0  0  0  0  0  0  0  0  0  0
   58.4040   33.1090   47.5590 C   0  0  0  0  0  0  0  0  0  0  0  0
   59.2540   33.4590   48.6140 C   0  0  0  0  0  0  0  0  0  0  0  0
   60.1410   34.4820   48.2970 C   0  0  0  0  0  0  0  0  0  0  0  0
   59.8640   34.9540   46.7050 S   0  0  0  0  0  0  0  0  0  0  0  0
   56.6630   30.2550   43.7340 C   0  0  0  0  0  0  0  0  0  0  0  0
   57.0330   28.9190   43.5620 C   0  0  0  0  0  0  0  0  0  0  0  0
   56.1620   25.5440   43.7700 H   0  0  0  0  0  0  0  0  0  0  0  0
   57.4250   24.6400   44.3960 H   0  0  0  0  0  0  0  0  0  0  0  0
   56.8548   25.1111   48.1250 H   0  0  0  0  0  0  0  0  0  0  0  0
   57.7633   24.0759   46.9531 H   0  0  0  0  0  0  0  0  0  0  0  0
   57.6776   27.1321   46.9533 H   0  0  0  0  0  0  0  0  0  0  0  0
   59.0426   26.1127   47.5233 H   0  0  0  0  0  0  0  0  0  0  0  0
   58.8479   28.4857   46.4286 H   0  0  0  0  0  0  0  0  0  0  0  0
   58.1977   30.8747   46.7257 H   0  0  0  0  0  0  0  0  0  0  0  0
   57.6422   32.3186   47.6287 H   0  0  0  0  0  0  0  0  0  0  0  0
   59.2235   32.9716   49.5997 H   0  0  0  0  0  0  0  0  0  0  0  0
   60.8961   34.9104   48.9724 H   0  0  0  0  0  0  0  0  0  0  0  0
   56.0379   30.7496   42.9760 H   0  0  0  0  0  0  0  0  0  0  0  0
   56.6909   28.3652   42.6753 H   0  0  0  0  0  0  0  0  0  0  0  0
  1  2  1  0
  2  3  2  0
  2  4  2  0
  2  5  1  0
  5  6  1  0
  6  7  1  0
  7  8  1  0
  8  9  2  0
  8 10  1  0
 10 11  2  0
 11 12  1  0
 12 13  2  0
 13 14  1  0
 14 15  1  0
 15 16  2  0
 15 17  2  0
 15 18  1  0
 18 19  2  0
 19 20  1  0
 20 21  2  0
 21 22  1  0
 13 23  1  0
 23 24  2  0
 24 10  1  0
 22 18  1  0
  1 25  1  0
  1 26  1  0
  5 27  1  0
  5 28  1  0
  6 29  1  0
  6 30  1  0
 11 31  1  0
 12 32  1  0
 19 33  1  0
 20 34  1  0
 21 35  1  0
 23 36  1  0
 24 37  1  0
M  CHG  2   7  -1  14  -1
M  END
>  <UniqueID>  (39) 
36

>  <SMILES>  (39) 
NS(=O)(=O)CC[N-]C(=O)c1ccc([N-]S(=O)(=O)c2cccs2)cc1

>  <Energy>  (39) 
61.5740189364393

>  <Genealogy>  (39) 
NS(=O)(=O)CC[N-]C(=O)c1ccc([N-]S(=O)(=O)c2cccs2)cc1 (protonated)
NS(=O)(=O)CC[N-]C(=O)c1ccc([N-]S(=O)(=O)c2cccs2)cc1 (3D coordinates assigned)
NS(=O)(=O)CC[N-]C(=O)c1ccc([N-]S(=O)(=O)c2cccs2)cc1 (optimized conformer: 61.5740189364393 kcal/mol)

>  <smiles>  (39) 
NS(=O)(=O)CCNC(=O)c1ccc(NS(=O)(=O)c2cccs2)cc1

>  <score_type>  (39) 
oracle

>  <origin>  (39) 
adg

>  <m_score__min__energy>  (39) 
-10.539999999999999

>  <m_primary>  (39) 
energy

$$$$
39:0
     RDKit          3D

 47 49  0  0  1  0  0  0  0  0999 V2000
   58.6050   30.0270   48.5880 C   0  0  0  0  0  0  0  0  0  0  0  0
   59.1420   31.3790   48.2040 C   0  0  0  0  0  0  0  0  0  0  0  0
   60.0280   31.4850   47.1400 C   0  0  0  0  0  0  0  0  0  0  0  0
   60.4720   30.2730   46.3660 C   0  0  0  0  0  0  0  0  0  0  0  0
   59.6050   29.9820   45.2790 N   0  0  0  0  0  0  0  0  0  0  0  0
   58.4820   29.4080   45.2730 C   0  0  0  0  0  0  0  0  0  0  0  0
   58.3240   28.2800   45.9800 N   0  0  0  0  0  0  0  0  0  0  0  0
   57.1290   27.6900   45.9530 C   0  0  0  0  0  0  0  0  0  0  0  0
   56.9200   26.6090   46.6080 N   0  0  0  0  0  0  0  0  0  0  0  0
   56.0730   28.1770   45.2470 N   0  0  0  0  0  0  0  0  0  0  0  0
   56.2250   29.3150   44.5330 C   0  0  0  0  0  0  0  0  0  0  0  0
   55.1630   29.8860   43.7680 N   0  0  0  0  0  0  0  0  0  0  0  0
   57.4460   29.9680   44.5250 C   0  0  0  0  0  0  0  0  0  0  0  0
   57.6570   31.4410   43.6060 Cl  0  0  0  0  0  0  0  0  0  0  0  0
   60.5000   32.7450   46.8110 C   0  0  0  0  0  0  0  0  0  0  0  0
   60.0980   33.8720   47.5270 C   0  0  0  0  0  0  0  0  0  0  0  0
   59.2180   33.7630   48.5850 C   0  0  0  0  0  0  0  0  0  0  0  0
   58.7420   32.5140   48.9200 C   0  0  0  0  0  0  0  0  0  0  0  0
   57.8340   32.2800   49.9900 N   0  0  0  0  0  0  0  0  0  0  0  0
   58.3760   31.9760   51.2680 C   0  0  0  0  0  0  0  0  0  0  0  0
   59.6240   31.9350   51.3740 O   0  0  0  0  0  0  0  0  0  0  0  0
   57.4780   31.7370   52.3380 N   0  0  0  0  0  0  0  0  0  0  0  0
   56.5870   30.8360   52.3930 C   0  0  0  0  0  0  0  0  0  0  0  0
   55.3490   31.1410   51.8150 C   0  0  0  0  0  0  0  0  0  0  0  0
   54.3100   30.2340   51.8210 C   0  0  0  0  0  0  0  0  0  0  0  0
   54.4510   29.0270   52.3810 N   0  0  0  0  0  0  0  0  0  0  0  0
   55.6400   28.7230   52.9410 C   0  0  0  0  0  0  0  0  0  0  0  0
   56.7090   29.6020   52.9570 C   0  0  0  0  0  0  0  0  0  0  0  0
   58.5718   29.9435   49.6843 H   0  0  0  0  0  0  0  0  0  0  0  0
   57.5906   29.9061   48.1802 H   0  0  0  0  0  0  0  0  0  0  0  0
   59.2600   29.2430   48.1802 H   0  0  0  0  0  0  0  0  0  0  0  0
   61.4834   30.4546   45.9734 H   0  0  0  0  0  0  0  0  0  0  0  0
   60.4561   29.4116   47.0500 H   0  0  0  0  0  0  0  0  0  0  0  0
   59.1260   27.9070   46.5220 H   0  0  0  0  0  0  0  0  0  0  0  0
   56.3970   26.5020   47.4840 H   0  0  0  0  0  0  0  0  0  0  0  0
   55.1460   27.6970   45.2390 H   0  0  0  0  0  0  0  0  0  0  0  0
   55.0420   29.7150   42.7430 H   0  0  0  0  0  0  0  0  0  0  0  0
   54.4610   30.5080   44.2300 H   0  0  0  0  0  0  0  0  0  0  0  0
   61.2026   32.8583   45.9722 H   0  0  0  0  0  0  0  0  0  0  0  0
   60.4874   34.8614   47.2449 H   0  0  0  0  0  0  0  0  0  0  0  0
   58.9036   34.6539   49.1484 H   0  0  0  0  0  0  0  0  0  0  0  0
   56.8110   32.3310   49.8350 H   0  0  0  0  0  0  0  0  0  0  0  0
   55.2017   32.1251   51.3460 H   0  0  0  0  0  0  0  0  0  0  0  0
   53.3503   30.5072   51.3581 H   0  0  0  0  0  0  0  0  0  0  0  0
   53.6360   28.3880   52.3540 H   0  0  0  0  0  0  0  0  0  0  0  0
   55.7654   27.7336   53.4051 H   0  0  0  0  0  0  0  0  0  0  0  0
   57.6584   29.3038   53.4258 H   0  0  0  0  0  0  0  0  0  0  0  0
  1  2  1  0
  2  3  2  0
  3  4  1  0
  4  5  1  0
  5  6  2  0
  6  7  1  0
  7  8  1  0
  8  9  2  3
  8 10  1  0
 10 11  1  0
 11 12  1  0
 11 13  2  0
 13 14  1  0
  3 15  1  0
 15 16  2  0
 16 17  1  0
 17 18  2  0
 18 19  1  0
 19 20  1  0
 20 21  2  0
 20 22  1  0
 22 23  2  3
 23 24  1  0
 24 25  2  0
 25 26  1  0
 26 27  1  0
 27 28  2  0
 18  2  1  0
 28 23  1  0
 13  6  1  0
  1 29  1  0
  1 30  1  0
  1 31  1  0
  4 32  1  0
  4 33  1  0
  7 34  1  0
  9 35  1  0
 10 36  1  0
 12 37  1  0
 12 38  1  0
 15 39  1  0
 16 40  1  0
 17 41  1  0
 19 42  1  0
 24 43  1  0
 25 44  1  0
 26 45  1  0
 27 46  1  0
 28 47  1  0
M  END
>  <smiles>  (40) 
Cc1c(CN=c2[nH]c(=N)[nH]c(N)c2Cl)cccc1NC(=O)N=c1cc[nH]cc1

>  <score_type>  (40) 
oracle

>  <origin>  (40) 
adg

>  <m_score__min__energy>  (40) 
-8.3300000000000001

>  <m_primary>  (40) 
energy

$$$$
40:0
     RDKit          3D

 36 38  0  0  0  0  0  0  0  0999 V2000
   57.0220   24.3460   43.1870 C   0  0  0  0  0  0  0  0  0  0  0  0
   56.7970   22.7060   43.8430 S   0  0  0  0  0  0  0  0  0  0  0  0
   55.8100   22.7510   44.9760 O   0  0  0  0  0  0  0  0  0  0  0  0
   56.2630   21.8120   42.7590 O   0  0  0  0  0  0  0  0  0  0  0  0
   58.3520   22.0530   44.4240 C   0  0  0  0  0  0  0  0  0  0  0  0
   58.9590   22.9710   45.4350 C   0  0  0  0  0  0  0  0  0  0  0  0
   60.2070   22.9650   45.6090 O   0  0  0  0  0  0  0  0  0  0  0  0
   58.1250   23.9140   46.1190 N   0  0  0  0  0  0  0  0  0  0  0  0
   58.1920   25.3440   46.0220 C   0  0  0  0  0  0  0  0  0  0  0  0
   56.9970   26.0710   45.9930 C   0  0  0  0  0  0  0  0  0  0  0  0
   57.0160   27.4670   45.9170 C   0  0  0  0  0  0  0  0  0  0  0  0
   58.2370   28.1590   45.8840 C   0  0  0  0  0  0  0  0  0  0  0  0
   58.2660   29.6340   45.8040 C   0  0  0  0  0  0  0  0  0  0  0  0
   57.2800   30.3750   45.2270 N   0  0  0  0  0  0  0  0  0  0  0  0
   57.7360   31.6270   45.3900 C   0  0  0  0  0  0  0  0  0  0  0  0
   57.1340   32.8180   44.9890 C   0  0  0  0  0  0  0  0  0  0  0  0
   57.8110   34.0200   45.2750 C   0  0  0  0  0  0  0  0  0  0  0  0
   59.0570   33.9990   45.9440 C   0  0  0  0  0  0  0  0  0  0  0  0
   59.6340   32.7750   46.3330 C   0  0  0  0  0  0  0  0  0  0  0  0
   60.8270   32.7340   46.9760 F   0  0  0  0  0  0  0  0  0  0  0  0
   58.9350   31.6090   46.0340 C   0  0  0  0  0  0  0  0  0  0  0  0
   59.2560   30.3700   46.2870 O   0  0  0  0  0  0  0  0  0  0  0  0
   59.4370   27.4320   45.9380 C   0  0  0  0  0  0  0  0  0  0  0  0
   59.4160   26.0350   46.0140 C   0  0  0  0  0  0  0  0  0  0  0  0
   57.1203   25.0622   44.0161 H   0  0  0  0  0  0  0  0  0  0  0  0
   57.9322   24.3724   42.5698 H   0  0  0  0  0  0  0  0  0  0  0  0
   56.1526   24.6165   42.5698 H   0  0  0  0  0  0  0  0  0  0  0  0
   58.1820   21.0686   44.8845 H   0  0  0  0  0  0  0  0  0  0  0  0
   59.0396   21.9582   43.5707 H   0  0  0  0  0  0  0  0  0  0  0  0
   56.0344   25.5399   46.0303 H   0  0  0  0  0  0  0  0  0  0  0  0
   56.0692   28.0260   45.8829 H   0  0  0  0  0  0  0  0  0  0  0  0
   56.1652   32.8197   44.4680 H   0  0  0  0  0  0  0  0  0  0  0  0
   57.3676   34.9812   44.9760 H   0  0  0  0  0  0  0  0  0  0  0  0
   59.5776   34.9433   46.1614 H   0  0  0  0  0  0  0  0  0  0  0  0
   60.3996   27.9640   45.9204 H   0  0  0  0  0  0  0  0  0  0  0  0
   60.3614   25.4752   46.0677 H   0  0  0  0  0  0  0  0  0  0  0  0
  1  2  1  0
  2  3  2  0
  2  4  2  0
  2  5  1  0
  5  6  1  0
  6  7  2  0
  6  8  1  0
  8  9  1  0
  9 10  2  0
 10 11  1  0
 11 12  2  0
 12 13  1  0
 13 14  2  0
 14 15  1  0
 15 16  2  0
 16 17  1  0
 17 18  2  0
 18 19  1  0
 19 20  1  0
 19 21  2  0
 21 22  1  0
 12 23  1  0
 23 24  2  0
 24  9  1  0
 22 13  1  0
 21 15  1  0
  1 25  1  0
  1 26  1  0
  1 27  1  0
  5 28  1  0
  5 29  1  0
 10 30  1  0
 11 31  1  0
 16 32  1  0
 17 33  1  0
 18 34  1  0
 23 35  1  0
 24 36  1  0
M  CHG  1   8  -1
M  END
>  <UniqueID>  (41) 
37

>  <SMILES>  (41) 
CS(=O)(=O)CC(=O)[N-]c1ccc(-c2nc3cccc(F)c3o2)cc1

>  <Energy>  (41) 
70.6241166552872

>  <Genealogy>  (41) 
CS(=O)(=O)CC(=O)[N-]c1ccc(-c2nc3cccc(F)c3o2)cc1 (protonated)
CS(=O)(=O)CC(=O)[N-]c1ccc(-c2nc3cccc(F)c3o2)cc1 (3D coordinates assigned)
CS(=O)(=O)CC(=O)[N-]c1ccc(-c2nc3cccc(F)c3o2)cc1 (optimized conformer: 70.6241166552872 kcal/mol)

>  <smiles>  (41) 
CS(=O)(=O)CC(=O)Nc1ccc(-c2nc3cccc(F)c3o2)cc1

>  <score_type>  (41) 
oracle

>  <origin>  (41) 
adg

>  <m_score__min__energy>  (41) 
-9.1300000000000008

>  <m_primary>  (41) 
energy

$$$$
41:0
     RDKit          3D

 31 32  0  0  0  0  0  0  0  0999 V2000
   55.1260   29.3400   44.8200 N   0  0  0  0  0  0  0  0  0  0  0  0
   56.4890   29.7350   44.9750 C   0  0  0  0  0  0  0  0  0  0  0  0
   56.8270   30.9070   44.6560 O   0  0  0  0  0  0  0  0  0  0  0  0
   57.4950   28.7820   45.5000 C   0  0  0  0  0  0  0  0  0  0  0  0
   58.8650   29.0890   45.4500 C   0  0  0  0  0  0  0  0  0  0  0  0
   59.8100   28.1910   45.9500 C   0  0  0  0  0  0  0  0  0  0  0  0
   59.4060   26.9750   46.5070 C   0  0  0  0  0  0  0  0  0  0  0  0
   60.3710   26.1030   47.0000 O   0  0  0  0  0  0  0  0  0  0  0  0
   58.0380   26.6470   46.5630 C   0  0  0  0  0  0  0  0  0  0  0  0
   57.5630   25.3570   47.1870 C   0  0  0  0  0  0  0  0  0  0  0  0
   57.0870   24.4390   46.1470 N   0  0  0  0  0  0  0  0  0  0  0  0
   57.9240   23.4980   45.7000 N   0  0  0  0  0  0  0  0  0  0  0  0
   57.5710   22.6270   44.7200 C   0  0  0  0  0  0  0  0  0  0  0  0
   58.5700   21.6160   44.2350 C   0  0  0  0  0  0  0  0  0  0  0  0
   58.1520   21.0830   42.9430 N   0  0  0  0  0  0  0  0  0  0  0  0
   56.2970   22.7500   44.1510 C   0  0  0  0  0  0  0  0  0  0  0  0
   55.9220   21.9840   43.2240 O   0  0  0  0  0  0  0  0  0  0  0  0
   55.4590   23.7130   44.6060 N   0  0  0  0  0  0  0  0  0  0  0  0
   55.8400   24.5580   45.5970 C   0  0  0  0  0  0  0  0  0  0  0  0
   55.0370   25.4440   45.9940 O   0  0  0  0  0  0  0  0  0  0  0  0
   57.0920   27.5560   46.0610 C   0  0  0  0  0  0  0  0  0  0  0  0
   54.4640   29.3700   45.6270 H   0  0  0  0  0  0  0  0  0  0  0  0
   59.1954   30.0433   45.0140 H   0  0  0  0  0  0  0  0  0  0  0  0
   60.8799   28.4426   45.9051 H   0  0  0  0  0  0  0  0  0  0  0  0
   58.3955   24.8886   47.7324 H   0  0  0  0  0  0  0  0  0  0  0  0
   56.7370   25.5752   47.8800 H   0  0  0  0  0  0  0  0  0  0  0  0
   59.5536   22.0970   44.1298 H   0  0  0  0  0  0  0  0  0  0  0  0
   58.6335   20.7930   44.9621 H   0  0  0  0  0  0  0  0  0  0  0  0
   57.4090   20.3690   43.1180 H   0  0  0  0  0  0  0  0  0  0  0  0
   57.6990   21.8560   42.4010 H   0  0  0  0  0  0  0  0  0  0  0  0
   56.0218   27.3061   46.1070 H   0  0  0  0  0  0  0  0  0  0  0  0
  1  2  1  0
  2  3  2  0
  2  4  1  0
  4  5  2  0
  5  6  1  0
  6  7  2  0
  7  8  1  0
  7  9  1  0
  9 10  1  0
 10 11  1  0
 11 12  1  0
 12 13  2  0
 13 14  1  0
 14 15  1  0
 13 16  1  0
 16 17  2  0
 16 18  1  0
 18 19  1  0
 19 20  2  0
  9 21  2  0
 21  4  1  0
 19 11  1  0
  1 22  1  0
  5 23  1  0
  6 24  1  0
 10 25  1  0
 10 26  1  0
 14 27  1  0
 14 28  1  0
 15 29  1  0
 15 30  1  0
 21 31  1  0
M  CHG  3   1  -1   8  -1  18  -1
M  END
>  <UniqueID>  (42) 
38

>  <SMILES>  (42) 
[NH-]C(=O)c1ccc([O-])c(Cn2nc(CN)c(=O)[n-]c2=O)c1

>  <Energy>  (42) 
32.79868662251473

>  <Genealogy>  (42) 
[NH-]C(=O)c1ccc([O-])c(Cn2nc(CN)c(=O)[n-]c2=O)c1 (protonated)
[NH-]C(=O)c1ccc([O-])c(Cn2nc(CN)c(=O)[n-]c2=O)c1 (3D coordinates assigned)
[NH-]C(=O)c1ccc([O-])c(Cn2nc(CN)c(=O)[n-]c2=O)c1 (optimized conformer: 32.79868662251473 kcal/mol)

>  <smiles>  (42) 
NCc1nn(Cc2cc(C(N)=O)ccc2O)c(=O)[nH]c1=O

>  <score_type>  (42) 
oracle

>  <origin>  (42) 
adg

>  <m_score__min__energy>  (42) 
-13.470000000000001

>  <m_primary>  (42) 
energy

$$$$
42:0
     RDKit          3D

 70 75  0  0  0  0  0  0  0  0999 V2000
   60.7900   33.5110   50.4400 C   0  0  0  0  0  0  0  0  0  0  0  0
   61.7170   33.1280   49.3190 C   0  0  0  0  0  0  0  0  0  0  0  0
   62.8030   33.9730   49.0280 C   0  0  0  0  0  0  0  0  0  0  0  0
   63.6860   33.6660   47.9920 C   0  0  0  0  0  0  0  0  0  0  0  0
   63.4970   32.5160   47.2310 C   0  0  0  0  0  0  0  0  0  0  0  0
   62.4160   31.6750   47.4930 C   0  0  0  0  0  0  0  0  0  0  0  0
   61.4960   31.9780   48.5160 C   0  0  0  0  0  0  0  0  0  0  0  0
   60.3210   31.0410   48.7380 C   0  0  0  0  0  0  0  0  0  0  0  0
   59.2460   31.2250   47.7420 N   0  0  0  0  0  0  0  0  0  0  0  0
   58.4780   32.4280   47.8640 C   0  0  0  0  0  0  0  0  0  0  0  0
   57.6430   32.5540   48.7990 O   0  0  0  0  0  0  0  0  0  0  0  0
   58.7810   33.5610   46.9850 C   0  0  0  0  0  0  0  0  0  0  0  0
   59.2700   34.7600   47.5250 C   0  0  0  0  0  0  0  0  0  0  0  0
   59.6920   35.7880   46.6770 C   0  0  0  0  0  0  0  0  0  0  0  0
   59.6230   35.6240   45.2910 C   0  0  0  0  0  0  0  0  0  0  0  0
   59.1180   34.4380   44.7500 C   0  0  0  0  0  0  0  0  0  0  0  0
   58.6930   33.4070   45.5970 C   0  0  0  0  0  0  0  0  0  0  0  0
   57.8870   32.0050   44.9230 S   0  0  0  0  0  0  0  0  0  0  0  0
   56.2200   32.1690   45.0520 O   0  0  0  0  0  0  0  0  0  0  0  0
   58.4030   30.4220   45.5040 C   0  0  0  0  0  0  0  0  0  0  0  0
   58.2360   29.3550   44.6110 C   0  0  0  0  0  0  0  0  0  0  0  0
   58.4600   28.0410   45.0150 C   0  0  0  0  0  0  0  0  0  0  0  0
   58.8390   27.7680   46.3300 C   0  0  0  0  0  0  0  0  0  0  0  0
   59.1000   26.1040   46.8480 S   0  0  0  0  0  0  0  0  0  0  0  0
   59.5420   26.0880   48.2860 O   0  0  0  0  0  0  0  0  0  0  0  0
   60.1900   25.4990   46.0090 O   0  0  0  0  0  0  0  0  0  0  0  0
   57.6320   25.1790   46.6580 N   0  0  0  0  0  0  0  0  0  0  0  0
   57.3440   24.4220   47.8980 C   0  0  0  0  0  0  0  0  0  0  0  0
   56.3990   23.2240   47.6680 C   0  0  0  0  0  0  0  0  0  0  0  0
   55.6440   23.3790   46.4170 N   0  0  0  0  0  0  0  0  0  0  0  0
   54.2250   23.1270   46.3760 C   0  0  0  0  0  0  0  0  0  0  0  0
   53.6010   22.4070   47.4100 C   0  0  0  0  0  0  0  0  0  0  0  0
   52.2240   22.1710   47.3760 C   0  0  0  0  0  0  0  0  0  0  0  0
   51.4550   22.6580   46.3150 C   0  0  0  0  0  0  0  0  0  0  0  0
   52.0630   23.3830   45.2880 C   0  0  0  0  0  0  0  0  0  0  0  0
   53.4410   23.6200   45.3160 C   0  0  0  0  0  0  0  0  0  0  0  0
   56.3740   23.6930   45.1810 C   0  0  0  0  0  0  0  0  0  0  0  0
   57.7500   24.2860   45.4960 C   0  0  0  0  0  0  0  0  0  0  0  0
   59.0090   28.8220   47.2320 C   0  0  0  0  0  0  0  0  0  0  0  0
   58.8510   30.1650   46.8310 C   0  0  0  0  0  0  0  0  0  0  0  0
   61.2784   33.3092   51.4048 H   0  0  0  0  0  0  0  0  0  0  0  0
   60.5498   34.5820   50.3675 H   0  0  0  0  0  0  0  0  0  0  0  0
   59.8639   32.9218   50.3675 H   0  0  0  0  0  0  0  0  0  0  0  0
   62.9579   34.8851   49.6231 H   0  0  0  0  0  0  0  0  0  0  0  0
   64.5329   34.3340   47.7764 H   0  0  0  0  0  0  0  0  0  0  0  0
   64.2010   32.2704   46.4222 H   0  0  0  0  0  0  0  0  0  0  0  0
   62.2798   30.7631   46.8931 H   0  0  0  0  0  0  0  0  0  0  0  0
   60.6823   30.0038   48.6776 H   0  0  0  0  0  0  0  0  0  0  0  0
   59.8981   31.2688   49.7276 H   0  0  0  0  0  0  0  0  0  0  0  0
   59.3213   34.8911   48.6159 H   0  0  0  0  0  0  0  0  0  0  0  0
   60.0786   36.7265   47.1009 H   0  0  0  0  0  0  0  0  0  0  0  0
   59.9665   36.4291   44.6248 H   0  0  0  0  0  0  0  0  0  0  0  0
   59.0545   34.3146   43.6588 H   0  0  0  0  0  0  0  0  0  0  0  0
   56.0580   32.3710   46.0070 H   0  0  0  0  0  0  0  0  0  0  0  0
   57.9235   29.5581   43.5761 H   0  0  0  0  0  0  0  0  0  0  0  0
   58.3380   27.2172   44.2964 H   0  0  0  0  0  0  0  0  0  0  0  0
   58.2932   24.0460   48.3075 H   0  0  0  0  0  0  0  0  0  0  0  0
   56.8401   25.1095   48.5934 H   0  0  0  0  0  0  0  0  0  0  0  0
   56.9950   22.3009   47.6160 H   0  0  0  0  0  0  0  0  0  0  0  0
   55.6851   23.1764   48.5035 H   0  0  0  0  0  0  0  0  0  0  0  0
   54.2002   22.0272   48.2507 H   0  0  0  0  0  0  0  0  0  0  0  0
   51.7444   21.6011   48.1855 H   0  0  0  0  0  0  0  0  0  0  0  0
   50.3715   22.4702   46.2891 H   0  0  0  0  0  0  0  0  0  0  0  0
   51.4567   23.7686   44.4551 H   0  0  0  0  0  0  0  0  0  0  0  0
   53.9143   24.1943   44.5060 H   0  0  0  0  0  0  0  0  0  0  0  0
   56.5045   22.7710   44.5954 H   0  0  0  0  0  0  0  0  0  0  0  0
   55.7949   24.4325   44.6085 H   0  0  0  0  0  0  0  0  0  0  0  0
   58.4575   23.4752   45.7243 H   0  0  0  0  0  0  0  0  0  0  0  0
   58.1180   24.8525   44.6279 H   0  0  0  0  0  0  0  0  0  0  0  0
   59.2716   28.5994   48.2768 H   0  0  0  0  0  0  0  0  0  0  0  0
  1  2  1  0
  2  3  2  0
  3  4  1  0
  4  5  2  0
  5  6  1  0
  6  7  2  0
  7  8  1  0
  8  9  1  0
  9 10  1  0
 10 11  2  0
 10 12  1  0
 12 13  2  0
 13 14  1  0
 14 15  2  0
 15 16  1  0
 16 17  2  0
 17 18  1  0
 18 19  1  1
 18 20  1  0
 20 21  2  0
 21 22  1  0
 22 23  2  0
 23 24  1  0
 24 25  2  0
 24 26  2  0
 24 27  1  0
 27 28  1  0
 28 29  1  0
 29 30  1  0
 30 31  1  0
 31 32  2  0
 32 33  1  0
 33 34  2  0
 34 35  1  0
 35 36  2  0
 30 37  1  0
 37 38  1  0
 23 39  1  0
 39 40  2  0
  7  2  1  0
 40  9  1  0
 17 12  1  0
 40 20  1  0
 38 27  1  0
 36 31  1  0
  1 41  1  0
  1 42  1  0
  1 43  1  0
  3 44  1  0
  4 45  1  0
  5 46  1  0
  6 47  1  0
  8 48  1  0
  8 49  1  0
 13 50  1  0
 14 51  1  0
 15 52  1  0
 16 53  1  0
 19 54  1  0
 21 55  1  0
 22 56  1  0
 28 57  1  0
 28 58  1  0
 29 59  1  0
 29 60  1  0
 32 61  1  0
 33 62  1  0
 34 63  1  0
 35 64  1  0
 36 65  1  0
 37 66  1  0
 37 67  1  0
 38 68  1  0
 38 69  1  0
 39 70  1  0
M  CHG  1  18   1
M  END
>  <UniqueID>  (43) 
39

>  <SMILES>  (43) 
Cc1ccccc1CN1C(=O)c2ccccc2[S@+](O)c2ccc(S(=O)(=O)N3CCN(c4ccccc4)CC3)cc21

>  <Energy>  (43) 
109.4895851887276

>  <Genealogy>  (43) 
Cc1ccccc1CN1C(=O)c2ccccc2[S+](O)c2ccc(S(=O)(=O)N3CCN(c4ccccc4)CC3)cc21 (protonated)
Cc1ccccc1CN1C(=O)c2ccccc2[S@+](O)c2ccc(S(=O)(=O)N3CCN(c4ccccc4)CC3)cc21 (chirality)
Cc1ccccc1CN1C(=O)c2ccccc2[S@+](O)c2ccc(S(=O)(=O)N3CCN(c4ccccc4)CC3)cc21 (3D coordinates assigned)
Cc1ccccc1CN1C(=O)c2ccccc2[S@+](O)c2ccc(S(=O)(=O)N3CCN(c4ccccc4)CC3)cc21 (nonaromatic ring conformer: 109.4895851887276 kcal/mol)

>  <smiles>  (43) 
Cc1ccccc1CN1C(=O)c2ccccc2[S+]([O-])c2ccc(S(=O)(=O)N3CCN(c4ccccc4)CC3)cc21

>  <score_type>  (43) 
oracle

>  <origin>  (43) 
adg

>  <m_score__min__energy>  (43) 
-9.2400000000000002

>  <m_primary>  (43) 
energy

$$$$
43:0
     RDKit          3D

 50 52  0  0  0  0  0  0  0  0999 V2000
   59.6450   35.4520   46.3120 C   0  0  0  0  0  0  0  0  0  0  0  0
   58.9710   34.1580   45.9610 C   0  0  0  0  0  0  0  0  0  0  0  0
   59.0670   33.0650   46.8270 C   0  0  0  0  0  0  0  0  0  0  0  0
   58.4620   31.8430   46.4920 C   0  0  0  0  0  0  0  0  0  0  0  0
   58.5540   30.7040   47.4740 C   0  0  0  0  0  0  0  0  0  0  0  0
   57.7850   31.7250   45.2500 C   0  0  0  0  0  0  0  0  0  0  0  0
   57.1420   30.4660   44.7860 C   0  0  0  0  0  0  0  0  0  0  0  0
   55.8890   30.3400   44.8010 O   0  0  0  0  0  0  0  0  0  0  0  0
   57.9600   29.3940   44.2940 N   0  0  0  0  0  0  0  0  0  0  0  0
   58.3890   28.2380   45.0320 C   0  0  0  0  0  0  0  0  0  0  0  0
   57.5000   27.1870   45.3220 C   0  0  0  0  0  0  0  0  0  0  0  0
   57.9310   26.0670   46.0400 C   0  0  0  0  0  0  0  0  0  0  0  0
   56.8000   24.7560   46.3670 S   0  0  0  0  0  0  0  0  0  0  0  0
   55.4160   25.2140   46.0020 O   0  0  0  0  0  0  0  0  0  0  0  0
   56.8290   24.4000   47.8280 O   0  0  0  0  0  0  0  0  0  0  0  0
   57.2250   23.3520   45.4150 N   0  0  0  0  0  0  0  0  0  0  0  0
   56.2450   22.2710   45.6440 C   0  0  0  0  0  0  0  0  0  0  0  0
   56.2660   21.2650   44.4820 C   0  0  0  0  0  0  0  0  0  0  0  0
   55.9520   21.8320   43.2150 O   0  0  0  0  0  0  0  0  0  0  0  0
   56.1740   23.2330   43.1440 C   0  0  0  0  0  0  0  0  0  0  0  0
   57.3740   23.7030   43.9850 C   0  0  0  0  0  0  0  0  0  0  0  0
   59.2510   26.0030   46.5000 C   0  0  0  0  0  0  0  0  0  0  0  0
   60.1330   27.0560   46.2470 C   0  0  0  0  0  0  0  0  0  0  0  0
   59.7090   28.1820   45.5220 C   0  0  0  0  0  0  0  0  0  0  0  0
   60.6720   29.3050   45.2520 C   0  0  0  0  0  0  0  0  0  0  0  0
   57.7260   32.8550   44.4140 C   0  0  0  0  0  0  0  0  0  0  0  0
   58.3140   34.0250   44.7770 N   0  0  0  0  0  0  0  0  0  0  0  0
   59.6976   35.5530   47.4061 H   0  0  0  0  0  0  0  0  0  0  0  0
   60.6623   35.4608   45.8936 H   0  0  0  0  0  0  0  0  0  0  0  0
   59.0692   36.2907   45.8936 H   0  0  0  0  0  0  0  0  0  0  0  0
   59.6182   33.1625   47.7739 H   0  0  0  0  0  0  0  0  0  0  0  0
   58.5220   31.1006   48.4995 H   0  0  0  0  0  0  0  0  0  0  0  0
   57.7084   30.0176   47.3197 H   0  0  0  0  0  0  0  0  0  0  0  0
   59.4988   30.1623   47.3197 H   0  0  0  0  0  0  0  0  0  0  0  0
   56.4560   27.2467   44.9808 H   0  0  0  0  0  0  0  0  0  0  0  0
   56.4955   21.7484   46.5789 H   0  0  0  0  0  0  0  0  0  0  0  0
   55.2399   22.7127   45.7118 H   0  0  0  0  0  0  0  0  0  0  0  0
   57.2729   20.8260   44.4237 H   0  0  0  0  0  0  0  0  0  0  0  0
   55.4876   20.5178   44.6961 H   0  0  0  0  0  0  0  0  0  0  0  0
   56.3560   23.5048   42.0938 H   0  0  0  0  0  0  0  0  0  0  0  0
   55.2785   23.7256   43.5507 H   0  0  0  0  0  0  0  0  0  0  0  0
   58.2868   23.2277   43.5966 H   0  0  0  0  0  0  0  0  0  0  0  0
   57.4309   24.7990   43.9100 H   0  0  0  0  0  0  0  0  0  0  0  0
   59.5946   25.1219   47.0618 H   0  0  0  0  0  0  0  0  0  0  0  0
   61.1671   27.0032   46.6182 H   0  0  0  0  0  0  0  0  0  0  0  0
   61.0280   29.7202   46.2064 H   0  0  0  0  0  0  0  0  0  0  0  0
   61.5280   28.9235   44.6760 H   0  0  0  0  0  0  0  0  0  0  0  0
   60.1644   30.0928   44.6760 H   0  0  0  0  0  0  0  0  0  0  0  0
   57.1960   32.7904   43.4523 H   0  0  0  0  0  0  0  0  0  0  0  0
   58.2580   34.8350   44.1190 H   0  0  0  0  0  0  0  0  0  0  0  0
  1  2  1  0
  2  3  2  0
  3  4  1  0
  4  5  1  0
  4  6  2  0
  6  7  1  0
  7  8  2  0
  7  9  1  0
  9 10  1  0
 10 11  2  0
 11 12  1  0
 12 13  1  0
 13 14  2  0
 13 15  2  0
 13 16  1  0
 16 17  1  0
 17 18  1  0
 18 19  1  0
 19 20  1  0
 20 21  1  0
 12 22  2  0
 22 23  1  0
 23 24  2  0
 24 25  1  0
  6 26  1  0
 26 27  2  0
 27  2  1  0
 24 10  1  0
 21 16  1  0
  1 28  1  0
  1 29  1  0
  1 30  1  0
  3 31  1  0
  5 32  1  0
  5 33  1  0
  5 34  1  0
 11 35  1  0
 17 36  1  0
 17 37  1  0
 18 38  1  0
 18 39  1  0
 20 40  1  0
 20 41  1  0
 21 42  1  0
 21 43  1  0
 22 44  1  0
 23 45  1  0
 25 46  1  0
 25 47  1  0
 25 48  1  0
 26 49  1  0
 27 50  1  0
M  CHG  2   9  -1  27   1
M  END
>  <UniqueID>  (44) 
40

>  <SMILES>  (44) 
Cc1cc(C)c(C(=O)[N-]c2cc(S(=O)(=O)N3CCOCC3)ccc2C)c[nH+]1

>  <Energy>  (44) 
69.93223387567194

>  <Genealogy>  (44) 
Cc1cc(C)c(C(=O)[N-]c2cc(S(=O)(=O)N3CCOCC3)ccc2C)c[nH+]1 (protonated)
Cc1cc(C)c(C(=O)[N-]c2cc(S(=O)(=O)N3CCOCC3)ccc2C)c[nH+]1 (3D coordinates assigned)
Cc1cc(C)c(C(=O)[N-]c2cc(S(=O)(=O)N3CCOCC3)ccc2C)c[nH+]1 (nonaromatic ring conformer: 69.93223387567194 kcal/mol)

>  <smiles>  (44) 
Cc1cc(C)c(C(=O)Nc2cc(S(=O)(=O)N3CCOCC3)ccc2C)cn1

>  <score_type>  (44) 
oracle

>  <origin>  (44) 
adg

>  <m_score__min__energy>  (44) 
-9.5600000000000005

>  <m_primary>  (44) 
energy

$$$$
44:0
     RDKit          3D

 41 41  0  0  0  0  0  0  0  0999 V2000
   56.1260   22.4940   46.3130 C   0  0  0  0  0  0  0  0  0  0  0  0
   55.8110   23.9520   46.2100 C   0  0  0  0  0  0  0  0  0  0  0  0
   54.6230   24.3400   46.3790 O   0  0  0  0  0  0  0  0  0  0  0  0
   56.8530   24.8850   45.8900 N   0  0  0  0  0  0  0  0  0  0  0  0
   56.6590   26.3040   45.7750 C   0  0  0  0  0  0  0  0  0  0  0  0
   55.5250   26.8120   45.9950 O   0  0  0  0  0  0  0  0  0  0  0  0
   57.7760   27.1460   45.4500 N   0  0  0  0  0  0  0  0  0  0  0  0
   57.6660   28.5380   45.1060 C   0  0  0  0  0  0  0  0  0  0  0  0
   56.5170   29.0500   44.4800 C   0  0  0  0  0  0  0  0  0  0  0  0
   56.4460   30.4030   44.1320 C   0  0  0  0  0  0  0  0  0  0  0  0
   57.5160   31.2620   44.4000 C   0  0  0  0  0  0  0  0  0  0  0  0
   57.4010   32.6090   44.0270 O   0  0  0  0  0  0  0  0  0  0  0  0
   57.6210   33.7070   44.8690 C   0  0  0  0  0  0  0  0  0  0  0  0
   56.6650   34.4420   45.2410 O   0  0  0  0  0  0  0  0  0  0  0  0
   59.0260   34.0590   45.2670 C   0  0  0  0  0  0  0  0  0  0  0  0
   59.3660   33.7110   46.7430 C   0  0  0  0  0  0  0  0  0  0  0  0
   60.6050   32.7930   46.8200 C   0  0  0  0  0  0  0  0  0  0  0  0
   58.1630   32.9660   47.3580 C   0  0  0  0  0  0  0  0  0  0  0  0
   59.6230   34.9920   47.5630 C   0  0  0  0  0  0  0  0  0  0  0  0
   58.6830   30.7430   44.9880 C   0  0  0  0  0  0  0  0  0  0  0  0
   58.7560   29.3900   45.3340 C   0  0  0  0  0  0  0  0  0  0  0  0
   56.1882   22.2063   47.3729 H   0  0  0  0  0  0  0  0  0  0  0  0
   55.3329   21.9119   45.8209 H   0  0  0  0  0  0  0  0  0  0  0  0
   57.0887   22.2912   45.8209 H   0  0  0  0  0  0  0  0  0  0  0  0
   57.8140   24.5080   45.7240 H   0  0  0  0  0  0  0  0  0  0  0  0
   58.7330   26.7390   45.5540 H   0  0  0  0  0  0  0  0  0  0  0  0
   55.6692   28.3837   44.2625 H   0  0  0  0  0  0  0  0  0  0  0  0
   55.5413   30.7941   43.6437 H   0  0  0  0  0  0  0  0  0  0  0  0
   59.7195   33.5103   44.6128 H   0  0  0  0  0  0  0  0  0  0  0  0
   59.1242   35.1498   45.1644 H   0  0  0  0  0  0  0  0  0  0  0  0
   60.8577   32.6058   47.8741 H   0  0  0  0  0  0  0  0  0  0  0  0
   60.3853   31.8379   46.3204 H   0  0  0  0  0  0  0  0  0  0  0  0
   61.4547   33.2812   46.3204 H   0  0  0  0  0  0  0  0  0  0  0  0
   58.2286   33.0066   48.4553 H   0  0  0  0  0  0  0  0  0  0  0  0
   57.2285   33.4437   47.0286 H   0  0  0  0  0  0  0  0  0  0  0  0
   58.1742   31.9165   47.0286 H   0  0  0  0  0  0  0  0  0  0  0  0
   59.5756   34.7560   48.6363 H   0  0  0  0  0  0  0  0  0  0  0  0
   60.6189   35.3901   47.3187 H   0  0  0  0  0  0  0  0  0  0  0  0
   58.8577   35.7434   47.3187 H   0  0  0  0  0  0  0  0  0  0  0  0
   59.5419   31.4038   45.1766 H   0  0  0  0  0  0  0  0  0  0  0  0
   59.6751   28.9913   45.7883 H   0  0  0  0  0  0  0  0  0  0  0  0
  1  2  1  0
  2  3  2  0
  2  4  1  0
  4  5  1  0
  5  6  2  0
  5  7  1  0
  7  8  1  0
  8  9  2  0
  9 10  1  0
 10 11  2  0
 11 12  1  0
 12 13  1  0
 13 14  2  0
 13 15  1  0
 15 16  1  0
 16 17  1  0
 16 18  1  0
 16 19  1  0
 11 20  1  0
 20 21  2  0
 21  8  1  0
  1 22  1  0
  1 23  1  0
  1 24  1  0
  4 25  1  0
  7 26  1  0
  9 27  1  0
 10 28  1  0
 15 29  1  0
 15 30  1  0
 17 31  1  0
 17 32  1  0
 17 33  1  0
 18 34  1  0
 18 35  1  0
 18 36  1  0
 19 37  1  0
 19 38  1  0
 19 39  1  0
 20 40  1  0
 21 41  1  0
M  END
>  <UniqueID>  (45) 
41

>  <SMILES>  (45) 
CC(=O)NC(=O)Nc1ccc(OC(=O)CC(C)(C)C)cc1

>  <Energy>  (45) 
38.336936966781856

>  <Genealogy>  (45) 
CC(=O)NC(=O)Nc1ccc(OC(=O)CC(C)(C)C)cc1 (3D coordinates assigned)
CC(=O)NC(=O)Nc1ccc(OC(=O)CC(C)(C)C)cc1 (optimized conformer: 38.336936966781856 kcal/mol)

>  <smiles>  (45) 
CC(=O)NC(=O)Nc1ccc(OC(=O)CC(C)(C)C)cc1

>  <score_type>  (45) 
oracle

>  <origin>  (45) 
adg

>  <m_score__min__energy>  (45) 
-7.0300000000000002

>  <m_primary>  (45) 
energy

$$$$
45:0
     RDKit          3D

 54 57  0  0  0  0  0  0  0  0999 V2000
   59.5857   24.2499   46.4814 H   0  0  0  0  0  0  0  0  0  0  0  0
   59.2230   25.2310   46.1410 C   0  0  0  0  0  0  0  0  0  0  0  0
   58.1610   25.3070   45.2420 C   0  0  0  0  0  0  0  0  0  0  0  0
   57.6830   24.3856   44.8779 H   0  0  0  0  0  0  0  0  0  0  0  0
   57.7020   26.5520   44.8020 C   0  0  0  0  0  0  0  0  0  0  0  0
   56.8564   26.6055   44.1005 H   0  0  0  0  0  0  0  0  0  0  0  0
   58.3140   27.7370   45.2500 C   0  0  0  0  0  0  0  0  0  0  0  0
   57.8350   29.0190   44.8080 N   0  0  0  0  0  0  0  0  0  0  0  0
   58.5110   29.6800   44.3620 H   0  0  0  0  0  0  0  0  0  0  0  0
   56.4600   29.4190   44.8730 C   0  0  0  0  0  0  0  0  0  0  0  0
   55.5700   28.5960   45.2260 O   0  0  0  0  0  0  0  0  0  0  0  0
   56.0970   30.7410   44.4560 N   0  0  0  0  0  0  0  0  0  0  0  0
   56.9150   31.9150   44.5670 C   0  0  0  0  0  0  0  0  0  0  0  0
   56.6730   32.8100   45.6160 C   0  0  0  0  0  0  0  0  0  0  0  0
   55.8710   32.6002   46.3390 H   0  0  0  0  0  0  0  0  0  0  0  0
   57.4440   33.9690   45.7510 C   0  0  0  0  0  0  0  0  0  0  0  0
   57.2592   34.6557   46.5903 H   0  0  0  0  0  0  0  0  0  0  0  0
   58.4530   34.2590   44.8190 C   0  0  0  0  0  0  0  0  0  0  0  0
   59.2680   35.5180   44.9580 C   0  0  0  0  0  0  0  0  0  0  0  0
   58.6187   36.3885   44.7828 H   0  0  0  0  0  0  0  0  0  0  0  0
   60.0833   35.4922   44.2201 H   0  0  0  0  0  0  0  0  0  0  0  0
   59.8510   35.6170   46.2950 N   0  0  0  0  0  0  0  0  0  0  0  0
   60.4140   34.6280   46.9240 C   0  0  0  0  0  0  0  0  0  0  0  0
   61.6650   34.1690   46.6400 N   0  0  0  0  0  0  0  0  0  0  0  0
   61.7990   33.1810   47.5410 C   0  0  0  0  0  0  0  0  0  0  0  0
   62.9010   32.3540   47.7470 C   0  0  0  0  0  0  0  0  0  0  0  0
   63.8070   32.4491   47.1304 H   0  0  0  0  0  0  0  0  0  0  0  0
   62.8150   31.3930   48.7710 C   0  0  0  0  0  0  0  0  0  0  0  0
   63.6664   30.7233   48.9624 H   0  0  0  0  0  0  0  0  0  0  0  0
   61.6380   31.2790   49.5610 C   0  0  0  0  0  0  0  0  0  0  0  0
   61.5550   30.2570   50.6650 C   0  0  0  0  0  0  0  0  0  0  0  0
   61.1031   30.7212   51.5540 H   0  0  0  0  0  0  0  0  0  0  0  0
   62.5700   29.9012   50.8957 H   0  0  0  0  0  0  0  0  0  0  0  0
   60.7310   29.1060   50.2470 N   0  0  0  0  0  0  0  0  0  0  0  0
   61.1780   27.8850   50.9370 C   0  0  0  0  0  0  0  0  0  0  0  0
   61.1222   28.0374   52.0250 H   0  0  0  0  0  0  0  0  0  0  0  0
   60.5295   27.0438   50.6508 H   0  0  0  0  0  0  0  0  0  0  0  0
   62.2163   27.6614   50.6508 H   0  0  0  0  0  0  0  0  0  0  0  0
   59.3080   29.3450   50.5390 C   0  0  0  0  0  0  0  0  0  0  0  0
   59.1564   29.3705   51.6282 H   0  0  0  0  0  0  0  0  0  0  0  0
   59.0009   30.3073   50.1035 H   0  0  0  0  0  0  0  0  0  0  0  0
   58.7034   28.5358   50.1035 H   0  0  0  0  0  0  0  0  0  0  0  0
   60.5450   32.1400   49.3190 C   0  0  0  0  0  0  0  0  0  0  0  0
   59.6235   32.0698   49.9157 H   0  0  0  0  0  0  0  0  0  0  0  0
   60.6720   33.0790   48.3020 C   0  0  0  0  0  0  0  0  0  0  0  0
   59.8160   33.9850   47.9110 O   0  0  0  0  0  0  0  0  0  0  0  0
   58.6780   33.3780   43.7510 C   0  0  0  0  0  0  0  0  0  0  0  0
   59.4602   33.6028   43.0110 H   0  0  0  0  0  0  0  0  0  0  0  0
   57.9120   32.2150   43.6230 C   0  0  0  0  0  0  0  0  0  0  0  0
   58.0907   31.5319   42.7796 H   0  0  0  0  0  0  0  0  0  0  0  0
   59.3740   27.6530   46.1770 C   0  0  0  0  0  0  0  0  0  0  0  0
   60.2610   29.2190   46.8360 Br  0  0  0  0  0  0  0  0  0  0  0  0
   59.8270   26.3990   46.6100 C   0  0  0  0  0  0  0  0  0  0  0  0
   60.6624   26.3350   47.3227 H   0  0  0  0  0  0  0  0  0  0  0  0
  1  2  1  0
  2  3  2  0
  3  4  1  0
  3  5  1  0
  5  6  1  0
  5  7  2  0
  7  8  1  0
  8  9  1  0
  8 10  1  0
 10 11  2  0
 10 12  1  0
 12 13  1  0
 13 14  2  0
 14 15  1  0
 14 16  1  0
 16 17  1  0
 16 18  2  0
 18 19  1  0
 19 20  1  0
 19 21  1  0
 19 22  1  0
 22 23  2  0
 23 24  1  0
 24 25  1  0
 25 26  2  0
 26 27  1  0
 26 28  1  0
 28 29  1  0
 28 30  2  0
 30 31  1  0
 31 32  1  0
 31 33  1  0
 31 34  1  0
 34 35  1  0
 35 36  1  0
 35 37  1  0
 35 38  1  0
 34 39  1  0
 39 40  1  0
 39 41  1  0
 39 42  1  0
 30 43  1  0
 43 44  1  0
 43 45  2  0
 45 46  1  0
 18 47  1  0
 47 48  1  0
 47 49  2  0
 49 50  1  0
  7 51  1  0
 51 52  1  0
 51 53  2  0
 53 54  1  0
 53  2  1  0
 49 13  1  0
 46 23  1  0
 45 25  1  0
M  CHG  2  12  -1  24  -1
M  END
>  <UniqueID>  (46) 
42

>  <SMILES>  (46) 
CN(C)Cc1ccc2[n-]/c(=N\Cc3ccc([N-]C(=O)Nc4ccccc4Br)cc3)oc2c1

>  <Energy>  (46) 
102.2300812831185

>  <Genealogy>  (46) 
CN(C)Cc1ccc2[n-]c(=NCc3ccc([N-]C(=O)Nc4ccccc4Br)cc3)oc2c1 (protonated)
CN(C)Cc1ccc2[n-]/c(=N\Cc3ccc([N-]C(=O)Nc4ccccc4Br)cc3)oc2c1 (cis-trans isomerization)
CN(C)Cc1ccc2[n-]/c(=N\Cc3ccc([N-]C(=O)Nc4ccccc4Br)cc3)oc2c1 (3D coordinates assigned)
CN(C)Cc1ccc2[n-]/c(=N\Cc3ccc([N-]C(=O)Nc4ccccc4Br)cc3)oc2c1 (optimized conformer: 102.2300812831185 kcal/mol)

>  <smiles>  (46) 
CN(C)Cc1ccc2[nH]c(=NCc3ccc(NC(=O)Nc4ccccc4Br)cc3)oc2c1

>  <score_type>  (46) 
oracle

>  <origin>  (46) 
adg

>  <m_score__min__energy>  (46) 
-11.76

>  <m_primary>  (46) 
energy

$$$$
46:0
     RDKit          3D

 68 71  0  0  0  0  0  0  0  0999 V2000
   60.2660   30.2500   51.1240 C   0  0  0  0  0  0  0  0  0  0  0  0
   58.8940   30.3980   51.7290 C   0  0  0  0  0  0  0  0  0  0  0  0
   58.5110   29.5220   52.7590 C   0  0  0  0  0  0  0  0  0  0  0  0
   57.2310   29.5950   53.3120 C   0  0  0  0  0  0  0  0  0  0  0  0
   56.3210   30.5450   52.8480 C   0  0  0  0  0  0  0  0  0  0  0  0
   56.6940   31.4380   51.8410 C   0  0  0  0  0  0  0  0  0  0  0  0
   57.9830   31.3950   51.2930 C   0  0  0  0  0  0  0  0  0  0  0  0
   58.3270   32.3340   50.2650 N   0  0  0  0  0  0  0  0  0  0  0  0
   58.5190   31.9430   48.8970 C   0  0  0  0  0  0  0  0  0  0  0  0
   58.5580   30.7200   48.5910 O   0  0  0  0  0  0  0  0  0  0  0  0
   58.6580   32.9640   47.8350 C   0  0  0  0  0  0  0  0  0  0  0  0
   58.2470   32.6680   46.5240 C   0  0  0  0  0  0  0  0  0  0  0  0
   58.3580   33.6270   45.5070 C   0  0  0  0  0  0  0  0  0  0  0  0
   57.9520   33.2900   44.0970 C   0  0  0  0  0  0  0  0  0  0  0  0
   58.3840   31.8520   43.7480 C   0  0  0  0  0  0  0  0  0  0  0  0
   57.7610   30.8110   44.5920 N   0  0  0  0  0  0  0  0  0  0  0  0
   58.6950   29.7800   45.1020 C   0  0  0  0  0  0  0  0  0  0  0  0
   58.4470   28.3980   44.4700 C   0  0  0  0  0  0  0  0  0  0  0  0
   57.0430   27.9420   44.6050 N   0  0  0  0  0  0  0  0  0  0  0  0
   56.8720   26.7170   45.8410 S   0  0  0  0  0  0  0  0  0  0  0  0
   57.7280   25.2130   45.4110 C   0  0  0  0  0  0  0  0  0  0  0  0
   55.4140   26.4070   46.0280 O   0  0  0  0  0  0  0  0  0  0  0  0
   57.4260   27.2330   47.1410 O   0  0  0  0  0  0  0  0  0  0  0  0
   56.0640   29.0280   44.8100 C   0  0  0  0  0  0  0  0  0  0  0  0
   56.4860   30.2910   44.0540 C   0  0  0  0  0  0  0  0  0  0  0  0
   58.8950   34.8860   45.8040 C   0  0  0  0  0  0  0  0  0  0  0  0
   59.3110   35.1880   47.1010 C   0  0  0  0  0  0  0  0  0  0  0  0
   59.2170   34.2270   48.1230 C   0  0  0  0  0  0  0  0  0  0  0  0
   59.6720   34.5100   49.4560 N   0  0  0  0  0  0  0  0  0  0  0  0
   60.7180   33.8380   50.1710 C   0  0  0  0  0  0  0  0  0  0  0  0
   60.5520   33.5070   51.3760 O   0  0  0  0  0  0  0  0  0  0  0  0
   62.0160   33.5760   49.5050 C   0  0  0  0  0  0  0  0  0  0  0  0
   62.1870   33.8490   48.1350 C   0  0  0  0  0  0  0  0  0  0  0  0
   63.4130   33.5990   47.5090 C   0  0  0  0  0  0  0  0  0  0  0  0
   64.4800   33.0780   48.2430 C   0  0  0  0  0  0  0  0  0  0  0  0
   64.3250   32.8060   49.6040 C   0  0  0  0  0  0  0  0  0  0  0  0
   63.1000   33.0490   50.2340 C   0  0  0  0  0  0  0  0  0  0  0  0
   61.0139   30.1693   51.9266 H   0  0  0  0  0  0  0  0  0  0  0  0
   60.2965   29.3433   50.5019 H   0  0  0  0  0  0  0  0  0  0  0  0
   60.4892   31.1293   50.5019 H   0  0  0  0  0  0  0  0  0  0  0  0
   59.2250   28.7732   53.1324 H   0  0  0  0  0  0  0  0  0  0  0  0
   56.9396   28.9021   54.1151 H   0  0  0  0  0  0  0  0  0  0  0  0
   55.3086   30.5909   53.2757 H   0  0  0  0  0  0  0  0  0  0  0  0
   55.9701   32.1811   51.4751 H   0  0  0  0  0  0  0  0  0  0  0  0
   58.5200   33.3200   50.5490 H   0  0  0  0  0  0  0  0  0  0  0  0
   57.8344   31.6747   46.2935 H   0  0  0  0  0  0  0  0  0  0  0  0
   56.8592   33.3739   44.0036 H   0  0  0  0  0  0  0  0  0  0  0  0
   58.4428   33.9902   43.4050 H   0  0  0  0  0  0  0  0  0  0  0  0
   58.1127   31.6549   42.7004 H   0  0  0  0  0  0  0  0  0  0  0  0
   59.4682   31.7957   43.9251 H   0  0  0  0  0  0  0  0  0  0  0  0
   59.7247   30.0928   44.8743 H   0  0  0  0  0  0  0  0  0  0  0  0
   58.5319   29.6869   46.1859 H   0  0  0  0  0  0  0  0  0  0  0  0
   58.6964   28.4522   43.4000 H   0  0  0  0  0  0  0  0  0  0  0  0
   59.0804   27.6741   45.0036 H   0  0  0  0  0  0  0  0  0  0  0  0
   58.0277   24.6864   46.3291 H   0  0  0  0  0  0  0  0  0  0  0  0
   57.0616   24.5681   44.8193 H   0  0  0  0  0  0  0  0  0  0  0  0
   58.6227   25.4567   44.8193 H   0  0  0  0  0  0  0  0  0  0  0  0
   55.0800   28.7003   44.4435 H   0  0  0  0  0  0  0  0  0  0  0  0
   56.0149   29.2601   45.8841 H   0  0  0  0  0  0  0  0  0  0  0  0
   56.6135   30.0501   42.9883 H   0  0  0  0  0  0  0  0  0  0  0  0
   55.7072   31.0580   44.1772 H   0  0  0  0  0  0  0  0  0  0  0  0
   58.9893   35.6413   45.0098 H   0  0  0  0  0  0  0  0  0  0  0  0
   59.7157   36.1858   47.3258 H   0  0  0  0  0  0  0  0  0  0  0  0
   61.3506   34.2620   47.5521 H   0  0  0  0  0  0  0  0  0  0  0  0
   63.5363   33.8132   46.4371 H   0  0  0  0  0  0  0  0  0  0  0  0
   65.4431   32.8816   47.7492 H   0  0  0  0  0  0  0  0  0  0  0  0
   65.1682   32.3997   50.1819 H   0  0  0  0  0  0  0  0  0  0  0  0
   62.9825   32.8273   51.3050 H   0  0  0  0  0  0  0  0  0  0  0  0
  1  2  1  0
  2  3  2  0
  3  4  1  0
  4  5  2  0
  5  6  1  0
  6  7  2  0
  7  8  1  0
  8  9  1  0
  9 10  2  0
  9 11  1  0
 11 12  2  0
 12 13  1  0
 13 14  1  0
 14 15  1  0
 15 16  1  0
 16 17  1  0
 17 18  1  0
 18 19  1  0
 19 20  1  0
 20 21  1  0
 20 22  2  0
 20 23  2  0
 19 24  1  0
 24 25  1  0
 13 26  2  0
 26 27  1  0
 27 28  2  0
 28 29  1  0
 29 30  1  0
 30 31  2  0
 30 32  1  0
 32 33  2  0
 33 34  1  0
 34 35  2  0
 35 36  1  0
 36 37  2  0
  7  2  1  0
 28 11  1  0
 37 32  1  0
 25 16  1  0
  1 38  1  0
  1 39  1  0
  1 40  1  0
  3 41  1  0
  4 42  1  0
  5 43  1  0
  6 44  1  0
  8 45  1  0
 12 46  1  0
 14 47  1  0
 14 48  1  0
 15 49  1  0
 15 50  1  0
 17 51  1  0
 17 52  1  0
 18 53  1  0
 18 54  1  0
 21 55  1  0
 21 56  1  0
 21 57  1  0
 24 58  1  0
 24 59  1  0
 25 60  1  0
 25 61  1  0
 26 62  1  0
 27 63  1  0
 33 64  1  0
 34 65  1  0
 35 66  1  0
 36 67  1  0
 37 68  1  0
M  CHG  1  29  -1
M  END
>  <UniqueID>  (47) 
43

>  <SMILES>  (47) 
Cc1ccccc1NC(=O)c1cc(CCN2CCN(S(C)(=O)=O)CC2)ccc1[N-]C(=O)c1ccccc1

>  <Energy>  (47) 
92.81525130044608

>  <Genealogy>  (47) 
Cc1ccccc1NC(=O)c1cc(CCN2CCN(S(C)(=O)=O)CC2)ccc1[N-]C(=O)c1ccccc1 (protonated)
Cc1ccccc1NC(=O)c1cc(CCN2CCN(S(C)(=O)=O)CC2)ccc1[N-]C(=O)c1ccccc1 (3D coordinates assigned)
Cc1ccccc1NC(=O)c1cc(CCN2CCN(S(C)(=O)=O)CC2)ccc1[N-]C(=O)c1ccccc1 (nonaromatic ring conformer: 92.81525130044608 kcal/mol)

>  <smiles>  (47) 
Cc1ccccc1NC(=O)c1cc(CCN2CCN(S(C)(=O)=O)CC2)ccc1NC(=O)c1ccccc1

>  <score_type>  (47) 
oracle

>  <origin>  (47) 
adg

>  <m_score__min__energy>  (47) 
-10.720000000000001

>  <m_primary>  (47) 
energy

$$$$
47:0
     RDKit          3D

 52 55  0  0  0  0  0  0  0  0999 V2000
   63.6450   32.9470   46.8090 C   0  0  0  0  0  0  0  0  0  0  0  0
   62.5420   33.0470   47.8220 C   0  0  0  0  0  0  0  0  0  0  0  0
   62.7110   33.8300   48.9680 C   0  0  0  0  0  0  0  0  0  0  0  0
   61.6720   33.9610   49.8910 C   0  0  0  0  0  0  0  0  0  0  0  0
   60.4400   33.3120   49.6870 C   0  0  0  0  0  0  0  0  0  0  0  0
   59.3340   33.5300   50.6870 C   0  0  0  0  0  0  0  0  0  0  0  0
   60.2650   32.5030   48.5320 C   0  0  0  0  0  0  0  0  0  0  0  0
   58.9650   31.7720   48.2380 C   0  0  0  0  0  0  0  0  0  0  0  0
   58.6240   31.8530   46.8030 N   0  0  0  0  0  0  0  0  0  0  0  0
   58.5810   33.1610   46.1880 C   0  0  0  0  0  0  0  0  0  0  0  0
   58.8700   34.1940   46.8510 O   0  0  0  0  0  0  0  0  0  0  0  0
   58.2390   33.3010   44.7380 C   0  0  0  0  0  0  0  0  0  0  0  0
   57.3510   32.2670   44.3270 O   0  0  0  0  0  0  0  0  0  0  0  0
   57.4580   30.9640   44.8210 C   0  0  0  0  0  0  0  0  0  0  0  0
   56.8790   29.9160   44.1040 C   0  0  0  0  0  0  0  0  0  0  0  0
   57.0140   28.6020   44.5490 C   0  0  0  0  0  0  0  0  0  0  0  0
   57.7270   28.3210   45.7170 C   0  0  0  0  0  0  0  0  0  0  0  0
   57.8520   26.9530   46.1280 N   0  0  0  0  0  0  0  0  0  0  0  0
   56.5650   25.7910   46.1680 S   0  0  0  0  0  0  0  0  0  0  0  0
   56.5440   25.1120   47.5100 O   0  0  0  0  0  0  0  0  0  0  0  0
   55.2540   26.4960   45.9620 O   0  0  0  0  0  0  0  0  0  0  0  0
   56.7860   24.6060   44.8950 C   0  0  0  0  0  0  0  0  0  0  0  0
   56.7670   24.8320   43.5330 C   0  0  0  0  0  0  0  0  0  0  0  0
   56.9530   23.6540   42.9100 N   0  0  0  0  0  0  0  0  0  0  0  0
   57.0760   22.7040   43.8240 N   0  0  0  0  0  0  0  0  0  0  0  0
   57.3310   21.3020   43.5240 C   0  0  0  0  0  0  0  0  0  0  0  0
   56.9880   23.2510   45.0540 C   0  0  0  0  0  0  0  0  0  0  0  0
   58.2890   29.3790   46.4550 C   0  0  0  0  0  0  0  0  0  0  0  0
   58.1370   30.7190   46.0320 C   0  0  0  0  0  0  0  0  0  0  0  0
   61.3150   32.4090   47.5980 C   0  0  0  0  0  0  0  0  0  0  0  0
   64.6115   32.8594   47.3268 H   0  0  0  0  0  0  0  0  0  0  0  0
   63.4848   32.0597   46.1789 H   0  0  0  0  0  0  0  0  0  0  0  0
   63.6470   33.8486   46.1789 H   0  0  0  0  0  0  0  0  0  0  0  0
   63.6670   34.3451   49.1430 H   0  0  0  0  0  0  0  0  0  0  0  0
   61.8180   34.5792   50.7890 H   0  0  0  0  0  0  0  0  0  0  0  0
   59.7401   33.4500   51.7061 H   0  0  0  0  0  0  0  0  0  0  0  0
   58.9010   34.5308   50.5424 H   0  0  0  0  0  0  0  0  0  0  0  0
   58.5536   32.7684   50.5424 H   0  0  0  0  0  0  0  0  0  0  0  0
   59.0745   30.7151   48.5224 H   0  0  0  0  0  0  0  0  0  0  0  0
   58.1584   32.2457   48.8168 H   0  0  0  0  0  0  0  0  0  0  0  0
   57.7579   34.2764   44.5733 H   0  0  0  0  0  0  0  0  0  0  0  0
   59.1645   33.2267   44.1482 H   0  0  0  0  0  0  0  0  0  0  0  0
   56.3140   30.1277   43.1843 H   0  0  0  0  0  0  0  0  0  0  0  0
   56.5564   27.7814   43.9771 H   0  0  0  0  0  0  0  0  0  0  0  0
   56.6245   25.8061   43.0424 H   0  0  0  0  0  0  0  0  0  0  0  0
   56.9960   23.5010   41.8760 H   0  0  0  0  0  0  0  0  0  0  0  0
   57.4334   20.7388   44.4633 H   0  0  0  0  0  0  0  0  0  0  0  0
   56.4924   20.8934   42.9410 H   0  0  0  0  0  0  0  0  0  0  0  0
   58.2597   21.2148   42.9410 H   0  0  0  0  0  0  0  0  0  0  0  0
   57.0637   22.7135   46.0108 H   0  0  0  0  0  0  0  0  0  0  0  0
   58.8540   29.1604   47.3731 H   0  0  0  0  0  0  0  0  0  0  0  0
   61.1692   31.8249   46.6773 H   0  0  0  0  0  0  0  0  0  0  0  0
  1  2  1  0
  2  3  2  0
  3  4  1  0
  4  5  2  0
  5  6  1  0
  5  7  1  0
  7  8  1  0
  8  9  1  0
  9 10  1  0
 10 11  2  0
 10 12  1  0
 12 13  1  0
 13 14  1  0
 14 15  2  0
 15 16  1  0
 16 17  2  0
 17 18  1  0
 18 19  1  0
 19 20  2  0
 19 21  2  0
 19 22  1  0
 22 23  1  0
 23 24  2  0
 24 25  1  0
 25 26  1  0
 25 27  1  0
 17 28  1  0
 28 29  2  0
  7 30  2  0
 30  2  1  0
 29  9  1  0
 29 14  1  0
 27 22  2  0
  1 31  1  0
  1 32  1  0
  1 33  1  0
  3 34  1  0
  4 35  1  0
  6 36  1  0
  6 37  1  0
  6 38  1  0
  8 39  1  0
  8 40  1  0
 12 41  1  0
 12 42  1  0
 15 43  1  0
 16 44  1  0
 23 45  1  0
 24 46  1  0
 26 47  1  0
 26 48  1  0
 26 49  1  0
 27 50  1  0
 28 51  1  0
 30 52  1  0
M  CHG  2  18  -1  24   1
M  END
>  <UniqueID>  (48) 
44

>  <SMILES>  (48) 
Cc1ccc(C)c(CN2C(=O)COc3ccc([N-]S(=O)(=O)c4c[nH+]n(C)c4)cc32)c1

>  <Energy>  (48) 
95.11645435773862

>  <Genealogy>  (48) 
Cc1ccc(C)c(CN2C(=O)COc3ccc([N-]S(=O)(=O)c4c[nH+]n(C)c4)cc32)c1 (protonated)
Cc1ccc(C)c(CN2C(=O)COc3ccc([N-]S(=O)(=O)c4c[nH+]n(C)c4)cc32)c1 (3D coordinates assigned)
Cc1ccc(C)c(CN2C(=O)COc3ccc([N-]S(=O)(=O)c4c[nH+]n(C)c4)cc32)c1 (nonaromatic ring conformer: 95.11645435773862 kcal/mol)

>  <smiles>  (48) 
Cc1ccc(C)c(CN2C(=O)COc3ccc(NS(=O)(=O)c4cnn(C)c4)cc32)c1

>  <score_type>  (48) 
oracle

>  <origin>  (48) 
adg

>  <m_score__min__energy>  (48) 
-9.4900000000000002

>  <m_primary>  (48) 
energy

$$$$
48:0
     RDKit          3D

 42 44  0  0  0  0  0  0  0  0999 V2000
   59.6844   31.1928   48.2691 H   0  0  0  0  0  0  0  0  0  0  0  0
   59.4420   31.8640   47.4320 C   0  0  0  0  0  0  0  0  0  0  0  0
   58.3530   31.6140   46.6580 N   0  0  0  0  0  0  0  0  0  0  0  0
   58.0110   32.4160   45.6100 C   0  0  0  0  0  0  0  0  0  0  0  0
   56.9700   32.1500   44.8770 N   0  0  0  0  0  0  0  0  0  0  0  0
   56.9230   31.1320   43.8280 C   0  0  0  0  0  0  0  0  0  0  0  0
   57.6433   31.3925   43.0385 H   0  0  0  0  0  0  0  0  0  0  0  0
   55.9042   31.0941   43.4150 H   0  0  0  0  0  0  0  0  0  0  0  0
   57.2710   29.7790   44.3890 C   0  0  0  0  0  0  0  0  0  0  0  0
   58.6110   29.3630   44.4340 C   0  0  0  0  0  0  0  0  0  0  0  0
   59.4020   30.0164   44.0373 H   0  0  0  0  0  0  0  0  0  0  0  0
   58.9420   28.1220   44.9810 C   0  0  0  0  0  0  0  0  0  0  0  0
   59.9930   27.7986   45.0090 H   0  0  0  0  0  0  0  0  0  0  0  0
   57.9440   27.2890   45.4930 C   0  0  0  0  0  0  0  0  0  0  0  0
   58.2120   26.3124   45.9225 H   0  0  0  0  0  0  0  0  0  0  0  0
   56.5980   27.6950   45.4610 C   0  0  0  0  0  0  0  0  0  0  0  0
   55.5390   26.8800   45.9810 N   0  0  0  0  0  0  0  0  0  0  0  0
   55.4570   25.1490   45.9020 S   0  0  0  0  0  0  0  0  0  0  0  0
   54.0400   24.7120   45.6590 O   0  0  0  0  0  0  0  0  0  0  0  0
   55.9190   24.5850   47.2150 O   0  0  0  0  0  0  0  0  0  0  0  0
   56.5250   24.5440   44.6130 C   0  0  0  0  0  0  0  0  0  0  0  0
   57.3985   24.0492   45.0627 H   0  0  0  0  0  0  0  0  0  0  0  0
   55.9756   23.8230   43.9899 H   0  0  0  0  0  0  0  0  0  0  0  0
   56.8610   25.3859   43.9899 H   0  0  0  0  0  0  0  0  0  0  0  0
   56.2720   28.9380   44.9050 C   0  0  0  0  0  0  0  0  0  0  0  0
   55.2206   29.2596   44.8720 H   0  0  0  0  0  0  0  0  0  0  0  0
   58.7910   33.5390   45.3190 C   0  0  0  0  0  0  0  0  0  0  0  0
   58.5218   34.1982   44.4805 H   0  0  0  0  0  0  0  0  0  0  0  0
   59.9140   33.8180   46.1000 C   0  0  0  0  0  0  0  0  0  0  0  0
   60.5306   34.7014   45.8777 H   0  0  0  0  0  0  0  0  0  0  0  0
   60.2590   32.9750   47.1680 C   0  0  0  0  0  0  0  0  0  0  0  0
   61.4490   33.2630   48.0060 C   0  0  0  0  0  0  0  0  0  0  0  0
   62.7290   32.8770   47.5670 C   0  0  0  0  0  0  0  0  0  0  0  0
   62.8424   32.3580   46.6038 H   0  0  0  0  0  0  0  0  0  0  0  0
   63.8560   33.1480   48.3450 C   0  0  0  0  0  0  0  0  0  0  0  0
   64.8525   32.8440   47.9921 H   0  0  0  0  0  0  0  0  0  0  0  0
   63.7210   33.8040   49.5700 C   0  0  0  0  0  0  0  0  0  0  0  0
   64.6109   34.0191   50.1798 H   0  0  0  0  0  0  0  0  0  0  0  0
   62.4560   34.1870   50.0210 C   0  0  0  0  0  0  0  0  0  0  0  0
   62.3511   34.7004   50.9882 H   0  0  0  0  0  0  0  0  0  0  0  0
   61.3220   33.9200   49.2470 C   0  0  0  0  0  0  0  0  0  0  0  0
   60.1020   34.2690   49.7290 F   0  0  0  0  0  0  0  0  0  0  0  0
  1  2  1  0
  2  3  1  0
  3  4  1  0
  4  5  2  0
  5  6  1  0
  6  7  1  0
  6  8  1  0
  6  9  1  0
  9 10  2  0
 10 11  1  0
 10 12  1  0
 12 13  1  0
 12 14  2  0
 14 15  1  0
 14 16  1  0
 16 17  1  0
 17 18  1  0
 18 19  2  0
 18 20  2  0
 18 21  1  0
 21 22  1  0
 21 23  1  0
 21 24  1  0
 16 25  2  0
 25 26  1  0
  4 27  1  0
 27 28  1  0
 27 29  2  0
 29 30  1  0
 29 31  1  0
 31 32  1  0
 32 33  2  0
 33 34  1  0
 33 35  1  0
 35 36  1  0
 35 37  2  0
 37 38  1  0
 37 39  1  0
 39 40  1  0
 39 41  2  0
 41 42  1  0
 31  2  2  0
 41 32  1  0
 25  9  1  0
M  CHG  2   3  -1  17  -1
M  END
>  <UniqueID>  (49) 
45

>  <SMILES>  (49) 
CS(=O)(=O)[N-]c1cccc(C/N=c2/ccc(-c3ccccc3F)c[n-]2)c1

>  <Energy>  (49) 
49.478072670482554

>  <Genealogy>  (49) 
CS(=O)(=O)[N-]c1cccc(CN=c2ccc(-c3ccccc3F)c[n-]2)c1 (protonated)
CS(=O)(=O)[N-]c1cccc(C/N=c2/ccc(-c3ccccc3F)c[n-]2)c1 (cis-trans isomerization)
CS(=O)(=O)[N-]c1cccc(C/N=c2/ccc(-c3ccccc3F)c[n-]2)c1 (3D coordinates assigned)
CS(=O)(=O)[N-]c1cccc(C/N=c2/ccc(-c3ccccc3F)c[n-]2)c1 (optimized conformer: 49.478072670482554 kcal/mol)

>  <smiles>  (49) 
CS(=O)(=O)Nc1cccc(CN=c2ccc(-c3ccccc3F)c[nH]2)c1

>  <score_type>  (49) 
oracle

>  <origin>  (49) 
adg

>  <m_score__min__energy>  (49) 
-12

>  <m_primary>  (49) 
energy

$$$$
49:0
     RDKit          3D

 43 45  0  0  0  0  0  0  0  0999 V2000
   62.7890   33.8080   46.7760 C   0  0  0  0  0  0  0  0  0  0  0  0
   61.5900   32.9410   47.1330 C   0  0  0  0  0  0  0  0  0  0  0  0
   60.1010   33.9760   47.3040 S   0  0  0  0  0  0  0  0  0  0  0  0
   59.2070   33.0990   46.0260 C   0  0  0  0  0  0  0  0  0  0  0  0
   58.7260   33.7730   44.9530 N   0  0  0  0  0  0  0  0  0  0  0  0
   58.0450   33.1240   43.9750 C   0  0  0  0  0  0  0  0  0  0  0  0
   57.8280   31.7460   44.0590 C   0  0  0  0  0  0  0  0  0  0  0  0
   56.9670   30.9690   42.7320 Cl  0  0  0  0  0  0  0  0  0  0  0  0
   58.3300   31.0550   45.1880 C   0  0  0  0  0  0  0  0  0  0  0  0
   58.1620   29.5920   45.3930 C   0  0  0  0  0  0  0  0  0  0  0  0
   58.0330   29.1200   46.5540 O   0  0  0  0  0  0  0  0  0  0  0  0
   58.1960   28.6970   44.2650 N   0  0  0  0  0  0  0  0  0  0  0  0
   57.7640   27.3260   44.3170 C   0  0  0  0  0  0  0  0  0  0  0  0
   57.8210   26.5420   43.1550 C   0  0  0  0  0  0  0  0  0  0  0  0
   57.3900   25.2120   43.1750 C   0  0  0  0  0  0  0  0  0  0  0  0
   56.8850   24.6520   44.3560 C   0  0  0  0  0  0  0  0  0  0  0  0
   56.3550   22.9740   44.4000 S   0  0  0  0  0  0  0  0  0  0  0  0
   55.8210   22.5940   43.0470 O   0  0  0  0  0  0  0  0  0  0  0  0
   57.4990   22.0630   44.7470 O   0  0  0  0  0  0  0  0  0  0  0  0
   55.0990   22.7830   45.5830 N   0  0  0  0  0  0  0  0  0  0  0  0
   53.8380   22.9510   45.3290 C   0  0  0  0  0  0  0  0  0  0  0  0
   52.8880   22.2140   45.9710 N   0  0  0  0  0  0  0  0  0  0  0  0
   51.5670   22.3920   45.7100 C   0  0  0  0  0  0  0  0  0  0  0  0
   51.1670   23.3380   44.7680 C   0  0  0  0  0  0  0  0  0  0  0  0
   52.1500   24.0830   44.1180 C   0  0  0  0  0  0  0  0  0  0  0  0
   53.4620   23.8780   44.4090 N   0  0  0  0  0  0  0  0  0  0  0  0
   56.7990   25.4390   45.5100 C   0  0  0  0  0  0  0  0  0  0  0  0
   57.2280   26.7690   45.4920 C   0  0  0  0  0  0  0  0  0  0  0  0
   59.0110   31.7610   46.1330 N   0  0  0  0  0  0  0  0  0  0  0  0
   63.2749   34.1594   47.6982 H   0  0  0  0  0  0  0  0  0  0  0  0
   63.5056   33.2178   46.1859 H   0  0  0  0  0  0  0  0  0  0  0  0
   62.4530   34.6734   46.1859 H   0  0  0  0  0  0  0  0  0  0  0  0
   61.4280   32.1983   46.3379 H   0  0  0  0  0  0  0  0  0  0  0  0
   61.7856   32.4297   48.0871 H   0  0  0  0  0  0  0  0  0  0  0  0
   57.6614   33.6860   43.1107 H   0  0  0  0  0  0  0  0  0  0  0  0
   58.6350   29.0310   43.3770 H   0  0  0  0  0  0  0  0  0  0  0  0
   58.2076   26.9767   42.2214 H   0  0  0  0  0  0  0  0  0  0  0  0
   57.4476   24.6033   42.2606 H   0  0  0  0  0  0  0  0  0  0  0  0
   50.8144   21.7907   46.2411 H   0  0  0  0  0  0  0  0  0  0  0  0
   50.1015   23.4931   44.5428 H   0  0  0  0  0  0  0  0  0  0  0  0
   51.8639   24.8367   43.3696 H   0  0  0  0  0  0  0  0  0  0  0  0
   56.3914   25.0083   46.4365 H   0  0  0  0  0  0  0  0  0  0  0  0
   57.1461   27.3830   46.4010 H   0  0  0  0  0  0  0  0  0  0  0  0
  1  2  1  0
  2  3  1  0
  3  4  1  0
  4  5  2  0
  5  6  1  0
  6  7  2  0
  7  8  1  0
  7  9  1  0
  9 10  1  0
 10 11  2  0
 10 12  1  0
 12 13  1  0
 13 14  2  0
 14 15  1  0
 15 16  2  0
 16 17  1  0
 17 18  2  0
 17 19  2  0
 17 20  1  0
 20 21  2  3
 21 22  1  0
 22 23  2  0
 23 24  1  0
 24 25  2  0
 25 26  1  0
 16 27  1  0
 27 28  2  0
  9 29  2  0
 29  4  1  0
 28 13  1  0
 26 21  1  0
  1 30  1  0
  1 31  1  0
  1 32  1  0
  2 33  1  0
  2 34  1  0
  6 35  1  0
 12 36  1  0
 14 37  1  0
 15 38  1  0
 23 39  1  0
 24 40  1  0
 25 41  1  0
 27 42  1  0
 28 43  1  0
M  CHG  1  26  -1
M  END
>  <UniqueID>  (50) 
46

>  <SMILES>  (50) 
CCSc1ncc(Cl)c(C(=O)Nc2ccc(S(=O)(=O)N=c3nccc[n-]3)cc2)n1

>  <Energy>  (50) 
50.763916493220385

>  <Genealogy>  (50) 
CCSc1ncc(Cl)c(C(=O)Nc2ccc(S(=O)(=O)N=c3nccc[n-]3)cc2)n1 (protonated)
CCSc1ncc(Cl)c(C(=O)Nc2ccc(S(=O)(=O)N=c3nccc[n-]3)cc2)n1 (3D coordinates assigned)
CCSc1ncc(Cl)c(C(=O)Nc2ccc(S(=O)(=O)N=c3nccc[n-]3)cc2)n1 (optimized conformer: 50.763916493220385 kcal/mol)

>  <smiles>  (50) 
CCSc1ncc(Cl)c(C(=O)Nc2ccc(S(=O)(=O)N=c3nccc[nH]3)cc2)n1

>  <score_type>  (50) 
oracle

>  <origin>  (50) 
adg

>  <m_score__min__energy>  (50) 
-10.029999999999999

>  <m_primary>  (50) 
energy

$$$$
50:0
     RDKit          3D

 45 46  0  0  0  0  0  0  0  0999 V2000
   60.7290   26.4250   46.4130 C   0  0  0  0  0  0  0  0  0  0  0  0
   59.8260   27.4430   45.7820 C   0  0  0  0  0  0  0  0  0  0  0  0
   60.1760   28.8020   45.7950 C   0  0  0  0  0  0  0  0  0  0  0  0
   59.3550   29.7480   45.1750 C   0  0  0  0  0  0  0  0  0  0  0  0
   58.1830   29.3430   44.5210 C   0  0  0  0  0  0  0  0  0  0  0  0
   57.1250   30.5210   43.7500 S   0  0  0  0  0  0  0  0  0  0  0  0
   56.0710   30.9320   44.7380 O   0  0  0  0  0  0  0  0  0  0  0  0
   56.4490   29.9030   42.5560 O   0  0  0  0  0  0  0  0  0  0  0  0
   58.0650   31.9100   43.2500 N   0  0  0  0  0  0  0  0  0  0  0  0
   57.7760   32.2020   41.8390 C   0  0  0  0  0  0  0  0  0  0  0  0
   57.7670   33.0780   44.1040 C   0  0  0  0  0  0  0  0  0  0  0  0
   58.6330   33.0320   45.3710 C   0  0  0  0  0  0  0  0  0  0  0  0
   59.3400   34.3730   45.6540 C   0  0  0  0  0  0  0  0  0  0  0  0
   60.0250   34.4270   47.0310 C   0  0  0  0  0  0  0  0  0  0  0  0
   61.1550   33.4380   47.1490 C   0  0  0  0  0  0  0  0  0  0  0  0
   62.4750   33.8250   46.8590 C   0  0  0  0  0  0  0  0  0  0  0  0
   63.5270   32.9170   47.0200 C   0  0  0  0  0  0  0  0  0  0  0  0
   63.2700   31.6200   47.4700 C   0  0  0  0  0  0  0  0  0  0  0  0
   61.9600   31.2270   47.7600 C   0  0  0  0  0  0  0  0  0  0  0  0
   60.9060   32.1310   47.6030 C   0  0  0  0  0  0  0  0  0  0  0  0
   57.8390   27.9850   44.4950 C   0  0  0  0  0  0  0  0  0  0  0  0
   58.6600   27.0380   45.1150 C   0  0  0  0  0  0  0  0  0  0  0  0
   60.6602   26.5025   47.5081 H   0  0  0  0  0  0  0  0  0  0  0  0
   60.4226   25.4170   46.0968 H   0  0  0  0  0  0  0  0  0  0  0  0
   61.7664   26.6090   46.0968 H   0  0  0  0  0  0  0  0  0  0  0  0
   61.1010   29.1242   46.2956 H   0  0  0  0  0  0  0  0  0  0  0  0
   59.6291   30.8130   45.2003 H   0  0  0  0  0  0  0  0  0  0  0  0
   57.0034   32.9826   41.7769 H   0  0  0  0  0  0  0  0  0  0  0  0
   58.6925   32.5528   41.3420 H   0  0  0  0  0  0  0  0  0  0  0  0
   57.4158   31.2892   41.3420 H   0  0  0  0  0  0  0  0  0  0  0  0
   57.9834   34.0018   43.5474 H   0  0  0  0  0  0  0  0  0  0  0  0
   56.7050   33.0568   44.3897 H   0  0  0  0  0  0  0  0  0  0  0  0
   57.9901   32.7846   46.2286 H   0  0  0  0  0  0  0  0  0  0  0  0
   59.4116   32.2708   45.2154 H   0  0  0  0  0  0  0  0  0  0  0  0
   60.1035   34.5345   44.8787 H   0  0  0  0  0  0  0  0  0  0  0  0
   58.5661   35.1547   45.6466 H   0  0  0  0  0  0  0  0  0  0  0  0
   60.4242   35.4400   47.1875 H   0  0  0  0  0  0  0  0  0  0  0  0
   59.2724   34.1687   47.7905 H   0  0  0  0  0  0  0  0  0  0  0  0
   62.6814   34.8455   46.5042 H   0  0  0  0  0  0  0  0  0  0  0  0
   64.5581   33.2250   46.7919 H   0  0  0  0  0  0  0  0  0  0  0  0
   64.0985   30.9075   47.5963 H   0  0  0  0  0  0  0  0  0  0  0  0
   61.7587   30.2046   48.1123 H   0  0  0  0  0  0  0  0  0  0  0  0
   59.8772   31.8186   47.8356 H   0  0  0  0  0  0  0  0  0  0  0  0
   56.9194   27.6625   43.9848 H   0  0  0  0  0  0  0  0  0  0  0  0
   58.3908   25.9720   45.0797 H   0  0  0  0  0  0  0  0  0  0  0  0
  1  2  1  0
  2  3  2  0
  3  4  1  0
  4  5  2  0
  5  6  1  0
  6  7  2  0
  6  8  2  0
  6  9  1  0
  9 10  1  0
  9 11  1  0
 11 12  1  0
 12 13  1  0
 13 14  1  0
 14 15  1  0
 15 16  2  0
 16 17  1  0
 17 18  2  0
 18 19  1  0
 19 20  2  0
  5 21  1  0
 21 22  2  0
 22  2  1  0
 20 15  1  0
  1 23  1  0
  1 24  1  0
  1 25  1  0
  3 26  1  0
  4 27  1  0
 10 28  1  0
 10 29  1  0
 10 30  1  0
 11 31  1  0
 11 32  1  0
 12 33  1  0
 12 34  1  0
 13 35  1  0
 13 36  1  0
 14 37  1  0
 14 38  1  0
 16 39  1  0
 17 40  1  0
 18 41  1  0
 19 42  1  0
 20 43  1  0
 21 44  1  0
 22 45  1  0
M  END
>  <UniqueID>  (51) 
47

>  <SMILES>  (51) 
Cc1ccc(S(=O)(=O)N(C)CCCCc2ccccc2)cc1

>  <Energy>  (51) 
39.646289063189755

>  <Genealogy>  (51) 
Cc1ccc(S(=O)(=O)N(C)CCCCc2ccccc2)cc1 (3D coordinates assigned)
Cc1ccc(S(=O)(=O)N(C)CCCCc2ccccc2)cc1 (optimized conformer: 39.646289063189755 kcal/mol)

>  <smiles>  (51) 
Cc1ccc(S(=O)(=O)N(C)CCCCc2ccccc2)cc1

>  <score_type>  (51) 
oracle

>  <origin>  (51) 
adg

>  <m_score__min__energy>  (51) 
-8.4199999999999999

>  <m_primary>  (51) 
energy

$$$$
51:0
     RDKit          3D

 51 53  0  0  0  0  0  0  0  0999 V2000
   63.7680   32.7310   47.1000 C   0  0  0  0  0  0  0  0  0  0  0  0
   62.8400   33.7850   47.3350 O   0  0  0  0  0  0  0  0  0  0  0  0
   61.6880   33.6740   48.1320 C   0  0  0  0  0  0  0  0  0  0  0  0
   61.7480   33.7820   49.5360 C   0  0  0  0  0  0  0  0  0  0  0  0
   60.5870   33.6760   50.3040 C   0  0  0  0  0  0  0  0  0  0  0  0
   59.3580   33.4580   49.6850 C   0  0  0  0  0  0  0  0  0  0  0  0
   59.2820   33.3440   48.2960 C   0  0  0  0  0  0  0  0  0  0  0  0
   60.4420   33.4560   47.5040 C   0  0  0  0  0  0  0  0  0  0  0  0
   60.3770   33.3420   46.0680 N   0  0  0  0  0  0  0  0  0  0  0  0
   58.9030   33.4670   45.1580 S   0  0  0  0  0  0  0  0  0  0  0  0
   59.2290   33.8670   43.7460 O   0  0  0  0  0  0  0  0  0  0  0  0
   58.0270   34.5220   45.7750 O   0  0  0  0  0  0  0  0  0  0  0  0
   58.0430   31.9310   45.1920 C   0  0  0  0  0  0  0  0  0  0  0  0
   57.2670   31.5240   44.0980 C   0  0  0  0  0  0  0  0  0  0  0  0
   56.5970   30.2980   44.1290 C   0  0  0  0  0  0  0  0  0  0  0  0
   56.6770   29.4740   45.2590 C   0  0  0  0  0  0  0  0  0  0  0  0
   55.9850   28.2180   45.2410 N   0  0  0  0  0  0  0  0  0  0  0  0
   56.4880   26.9590   45.7100 C   0  0  0  0  0  0  0  0  0  0  0  0
   55.8450   26.2790   46.5520 O   0  0  0  0  0  0  0  0  0  0  0  0
   57.7900   26.4350   45.1820 C   0  0  0  0  0  0  0  0  0  0  0  0
   58.8070   26.4700   46.1860 O   0  0  0  0  0  0  0  0  0  0  0  0
   59.5310   27.6120   46.5670 C   0  0  0  0  0  0  0  0  0  0  0  0
   60.1770   28.3490   45.5660 C   0  0  0  0  0  0  0  0  0  0  0  0
   60.9110   29.4920   45.8880 C   0  0  0  0  0  0  0  0  0  0  0  0
   61.0120   29.9090   47.2180 C   0  0  0  0  0  0  0  0  0  0  0  0
   60.3850   29.1770   48.2370 C   0  0  0  0  0  0  0  0  0  0  0  0
   60.4630   29.6440   49.6610 C   0  0  0  0  0  0  0  0  0  0  0  0
   59.6310   28.0390   47.9070 C   0  0  0  0  0  0  0  0  0  0  0  0
   57.4730   29.8740   46.3470 C   0  0  0  0  0  0  0  0  0  0  0  0
   58.1440   31.1000   46.3150 C   0  0  0  0  0  0  0  0  0  0  0  0
   64.1201   32.3311   48.0624 H   0  0  0  0  0  0  0  0  0  0  0  0
   63.2763   31.9303   46.5280 H   0  0  0  0  0  0  0  0  0  0  0  0
   64.6245   33.1173   46.5280 H   0  0  0  0  0  0  0  0  0  0  0  0
   62.7162   33.9510   50.0300 H   0  0  0  0  0  0  0  0  0  0  0  0
   60.6426   33.7647   51.3990 H   0  0  0  0  0  0  0  0  0  0  0  0
   58.4449   33.3755   50.2928 H   0  0  0  0  0  0  0  0  0  0  0  0
   58.3087   33.1653   47.8157 H   0  0  0  0  0  0  0  0  0  0  0  0
   61.2590   33.2740   45.5150 H   0  0  0  0  0  0  0  0  0  0  0  0
   57.1852   32.1715   43.2125 H   0  0  0  0  0  0  0  0  0  0  0  0
   56.0029   29.9779   43.2603 H   0  0  0  0  0  0  0  0  0  0  0  0
   57.6500   25.3959   44.8492 H   0  0  0  0  0  0  0  0  0  0  0  0
   58.1070   27.0718   44.3430 H   0  0  0  0  0  0  0  0  0  0  0  0
   60.1053   28.0243   44.5175 H   0  0  0  0  0  0  0  0  0  0  0  0
   61.4108   30.0654   45.0934 H   0  0  0  0  0  0  0  0  0  0  0  0
   61.5852   30.8144   47.4666 H   0  0  0  0  0  0  0  0  0  0  0  0
   60.3199   28.7874   50.3361 H   0  0  0  0  0  0  0  0  0  0  0  0
   61.4490   30.0955   49.8453 H   0  0  0  0  0  0  0  0  0  0  0  0
   59.6773   30.3914   49.8453 H   0  0  0  0  0  0  0  0  0  0  0  0
   59.1150   27.4770   48.6994 H   0  0  0  0  0  0  0  0  0  0  0  0
   57.5680   29.2200   47.2263 H   0  0  0  0  0  0  0  0  0  0  0  0
   58.7538   31.4133   47.1752 H   0  0  0  0  0  0  0  0  0  0  0  0
  1  2  1  0
  2  3  1  0
  3  4  2  0
  4  5  1  0
  5  6  2  0
  6  7  1  0
  7  8  2  0
  8  9  1  0
  9 10  1  0
 10 11  2  0
 10 12  2  0
 10 13  1  0
 13 14  2  0
 14 15  1  0
 15 16  2  0
 16 17  1  0
 17 18  1  0
 18 19  2  0
 18 20  1  0
 20 21  1  0
 21 22  1  0
 22 23  2  0
 23 24  1  0
 24 25  2  0
 25 26  1  0
 26 27  1  0
 26 28  2  0
 16 29  1  0
 29 30  2  0
  8  3  1  0
 30 13  1  0
 28 22  1  0
  1 31  1  0
  1 32  1  0
  1 33  1  0
  4 34  1  0
  5 35  1  0
  6 36  1  0
  7 37  1  0
  9 38  1  0
 14 39  1  0
 15 40  1  0
 20 41  1  0
 20 42  1  0
 23 43  1  0
 24 44  1  0
 25 45  1  0
 27 46  1  0
 27 47  1  0
 27 48  1  0
 28 49  1  0
 29 50  1  0
 30 51  1  0
M  CHG  1  17  -1
M  END
>  <UniqueID>  (52) 
48

>  <SMILES>  (52) 
COc1ccccc1NS(=O)(=O)c1ccc([N-]C(=O)COc2cccc(C)c2)cc1

>  <Energy>  (52) 
58.04006810138768

>  <Genealogy>  (52) 
COc1ccccc1NS(=O)(=O)c1ccc([N-]C(=O)COc2cccc(C)c2)cc1 (protonated)
COc1ccccc1NS(=O)(=O)c1ccc([N-]C(=O)COc2cccc(C)c2)cc1 (3D coordinates assigned)
COc1ccccc1NS(=O)(=O)c1ccc([N-]C(=O)COc2cccc(C)c2)cc1 (optimized conformer: 58.04006810138768 kcal/mol)

>  <smiles>  (52) 
COc1ccccc1NS(=O)(=O)c1ccc(NC(=O)COc2cccc(C)c2)cc1

>  <score_type>  (52) 
oracle

>  <origin>  (52) 
adg

>  <m_score__min__energy>  (52) 
-9.8599999999999994

>  <m_primary>  (52) 
energy

$$$$
52:0
     RDKit          3D

 51 54  0  0  0  0  0  0  0  0999 V2000
   57.8980   31.7280   53.8550 C   0  0  0  0  0  0  0  0  0  0  0  0
   58.8730   32.8840   54.0450 C   0  0  0  0  0  0  0  0  0  0  0  0
   59.5270   33.4360   52.4760 S   0  0  0  0  0  0  0  0  0  0  0  0
   58.7430   34.6260   51.9950 O   0  0  0  0  0  0  0  0  0  0  0  0
   60.9630   33.8390   52.6560 O   0  0  0  0  0  0  0  0  0  0  0  0
   59.4530   32.1390   51.3160 N   0  0  0  0  0  0  0  0  0  0  0  0
   60.4620   32.2990   50.2490 C   0  0  1  0  0  0  0  0  0  0  0  0
   61.0930   30.9360   49.8860 C   0  0  0  0  0  0  0  0  0  0  0  0
   60.4470   30.2910   48.6830 C   0  0  0  0  0  0  0  0  0  0  0  0
   61.1070   30.2840   47.4450 C   0  0  0  0  0  0  0  0  0  0  0  0
   60.4800   29.7570   46.3140 C   0  0  0  0  0  0  0  0  0  0  0  0
   59.1820   29.2200   46.4010 C   0  0  0  0  0  0  0  0  0  0  0  0
   58.4730   28.6880   45.1730 C   0  0  2  0  0  0  0  0  0  0  0  0
   57.5550   29.7470   44.5110 C   0  0  0  0  0  0  0  0  0  0  0  0
   56.1250   29.3280   44.7120 C   0  0  0  0  0  0  0  0  0  0  0  0
   55.1640   30.0760   44.3920 O   0  0  0  0  0  0  0  0  0  0  0  0
   55.8980   28.0370   45.2520 N   0  0  0  0  0  0  0  0  0  0  0  0
   57.4110   27.3150   45.5860 S   0  0  0  0  0  0  0  0  0  0  0  0
   57.5080   26.9080   47.0300 O   0  0  0  0  0  0  0  0  0  0  0  0
   57.6540   26.1430   44.6780 O   0  0  0  0  0  0  0  0  0  0  0  0
   58.5270   29.2220   47.6450 C   0  0  0  0  0  0  0  0  0  0  0  0
   59.1550   29.7520   48.7760 C   0  0  0  0  0  0  0  0  0  0  0  0
   59.8550   32.9250   49.0170 C   0  0  0  0  0  0  0  0  0  0  0  0
   58.5510   32.7530   48.6660 N   0  0  0  0  0  0  0  0  0  0  0  0
   58.4810   33.3840   47.4860 C   0  0  0  0  0  0  0  0  0  0  0  0
   57.3720   33.5150   46.6550 C   0  0  0  0  0  0  0  0  0  0  0  0
   57.5440   34.2100   45.4420 C   0  0  0  0  0  0  0  0  0  0  0  0
   58.8070   34.7450   45.0980 C   0  0  0  0  0  0  0  0  0  0  0  0
   59.9060   34.5870   45.9640 C   0  0  0  0  0  0  0  0  0  0  0  0
   59.6980   33.8960   47.1550 C   0  0  0  0  0  0  0  0  0  0  0  0
   60.5970   33.6130   48.1080 N   0  0  0  0  0  0  0  0  0  0  0  0
   57.5801   31.3511   54.8383 H   0  0  0  0  0  0  0  0  0  0  0  0
   57.0186   32.0784   53.2948 H   0  0  0  0  0  0  0  0  0  0  0  0
   58.3917   30.9203   53.2948 H   0  0  0  0  0  0  0  0  0  0  0  0
   58.3488   33.7204   54.5303 H   0  0  0  0  0  0  0  0  0  0  0  0
   59.7090   32.5377   54.6704 H   0  0  0  0  0  0  0  0  0  0  0  0
   58.4910   32.1890   50.9090 H   0  0  0  0  0  0  0  0  0  0  0  0
   61.2478   32.9673   50.6308 H   0  0  0  0  0  0  0  0  0  0  0  0
   62.1607   31.0897   49.6708 H   0  0  0  0  0  0  0  0  0  0  0  0
   60.9408   30.2632   50.7428 H   0  0  0  0  0  0  0  0  0  0  0  0
   62.1238   30.6959   47.3648 H   0  0  0  0  0  0  0  0  0  0  0  0
   61.0048   29.7616   45.3473 H   0  0  0  0  0  0  0  0  0  0  0  0
   59.2780   28.3914   44.4845 H   0  0  0  0  0  0  0  0  0  0  0  0
   57.7236   30.7286   44.9779 H   0  0  0  0  0  0  0  0  0  0  0  0
   57.7791   29.8228   43.4367 H   0  0  0  0  0  0  0  0  0  0  0  0
   57.5132   28.8036   47.7290 H   0  0  0  0  0  0  0  0  0  0  0  0
   58.6332   29.7464   49.7443 H   0  0  0  0  0  0  0  0  0  0  0  0
   56.3965   33.0911   46.9355 H   0  0  0  0  0  0  0  0  0  0  0  0
   56.6914   34.3373   44.7587 H   0  0  0  0  0  0  0  0  0  0  0  0
   58.9315   35.2873   44.1491 H   0  0  0  0  0  0  0  0  0  0  0  0
   60.8949   34.9954   45.7085 H   0  0  0  0  0  0  0  0  0  0  0  0
  1  2  1  0
  2  3  1  0
  3  4  2  0
  3  5  2  0
  3  6  1  0
  6  7  1  0
  7  8  1  0
  8  9  1  0
  9 10  2  0
 10 11  1  0
 11 12  2  0
 12 13  1  0
 13 14  1  0
 14 15  1  0
 15 16  2  0
 15 17  1  0
 17 18  1  0
 18 19  2  0
 18 20  2  0
 12 21  1  0
 21 22  2  0
  7 23  1  0
 23 24  2  0
 24 25  1  0
 25 26  2  0
 26 27  1  0
 27 28  2  0
 28 29  1  0
 29 30  2  0
 30 31  1  0
 22  9  1  0
 31 23  1  0
 18 13  1  0
 30 25  1  0
  1 32  1  0
  1 33  1  0
  1 34  1  0
  2 35  1  0
  2 36  1  0
  6 37  1  0
  7 38  1  1
  8 39  1  0
  8 40  1  0
 10 41  1  0
 11 42  1  0
 13 43  1  6
 14 44  1  0
 14 45  1  0
 21 46  1  0
 22 47  1  0
 26 48  1  0
 27 49  1  0
 28 50  1  0
 29 51  1  0
M  CHG  2  17  -1  31  -1
M  END
>  <UniqueID>  (53) 
49

>  <SMILES>  (53) 
CCS(=O)(=O)N[C@@H](Cc1ccc([C@@H]2CC(=O)[N-]S2(=O)=O)cc1)c1nc2ccccc2[n-]1

>  <Energy>  (53) 
88.58705130307902

>  <Genealogy>  (53) 
CCS(=O)(=O)NC(Cc1ccc(C2CC(=O)[N-]S2(=O)=O)cc1)c1nc2ccccc2[n-]1 (protonated)
CCS(=O)(=O)N[C@@H](Cc1ccc([C@@H]2CC(=O)[N-]S2(=O)=O)cc1)c1nc2ccccc2[n-]1 (chirality)
CCS(=O)(=O)N[C@@H](Cc1ccc([C@@H]2CC(=O)[N-]S2(=O)=O)cc1)c1nc2ccccc2[n-]1 (3D coordinates assigned)
CCS(=O)(=O)N[C@@H](Cc1ccc([C@@H]2CC(=O)[N-]S2(=O)=O)cc1)c1nc2ccccc2[n-]1 (nonaromatic ring conformer: 88.58705130307902 kcal/mol)

>  <smiles>  (53) 
CCS(=O)(=O)NC(Cc1ccc(C2CC(=O)NS2(=O)=O)cc1)c1nc2ccccc2[nH]1

>  <score_type>  (53) 
oracle

>  <origin>  (53) 
adg

>  <m_score__min__energy>  (53) 
-13.109999999999999

>  <m_primary>  (53) 
energy

$$$$
53:0
     RDKit          3D

 34 36  0  0  0  0  0  0  0  0999 V2000
   54.7590   27.0860   46.4180 H   0  0  0  0  0  0  0  0  0  0  0  0
   55.1850   26.2230   46.0110 N   0  0  0  0  0  0  0  0  0  0  0  0
   56.8550   26.5710   45.7290 S   0  0  0  0  0  0  0  0  0  0  0  0
   57.3200   25.8330   44.5060 O   0  0  0  0  0  0  0  0  0  0  0  0
   57.6510   26.1140   46.9200 O   0  0  0  0  0  0  0  0  0  0  0  0
   57.0740   28.3010   45.4890 C   0  0  0  0  0  0  0  0  0  0  0  0
   56.3910   28.9660   44.4620 C   0  0  0  0  0  0  0  0  0  0  0  0
   55.7200   28.4032   43.7964 H   0  0  0  0  0  0  0  0  0  0  0  0
   56.5590   30.3420   44.2800 C   0  0  0  0  0  0  0  0  0  0  0  0
   56.0078   30.8599   43.4813 H   0  0  0  0  0  0  0  0  0  0  0  0
   57.4260   31.0640   45.1100 C   0  0  0  0  0  0  0  0  0  0  0  0
   57.5410   32.4840   44.9290 N   0  0  0  0  0  0  0  0  0  0  0  0
   58.4510   33.2560   45.4480 C   0  0  0  0  0  0  0  0  0  0  0  0
   59.5020   32.7610   46.1310 N   0  0  0  0  0  0  0  0  0  0  0  0
   60.1770   33.8580   46.5340 C   0  0  0  0  0  0  0  0  0  0  0  0
   61.4260   33.8060   47.3340 C   0  0  0  0  0  0  0  0  0  0  0  0
   62.6580   33.4500   46.7490 C   0  0  0  0  0  0  0  0  0  0  0  0
   62.7036   33.2044   45.6777 H   0  0  0  0  0  0  0  0  0  0  0  0
   63.8230   33.4070   47.5220 C   0  0  0  0  0  0  0  0  0  0  0  0
   64.7801   33.1284   47.0569 H   0  0  0  0  0  0  0  0  0  0  0  0
   63.7740   33.7170   48.8830 C   0  0  0  0  0  0  0  0  0  0  0  0
   64.6920   33.6837   49.4882 H   0  0  0  0  0  0  0  0  0  0  0  0
   62.5600   34.0690   49.4750 C   0  0  0  0  0  0  0  0  0  0  0  0
   62.5218   34.3107   50.5474 H   0  0  0  0  0  0  0  0  0  0  0  0
   61.3920   34.1150   48.7070 C   0  0  0  0  0  0  0  0  0  0  0  0
   60.4390   34.3949   49.1797 H   0  0  0  0  0  0  0  0  0  0  0  0
   59.5130   34.9910   46.0950 C   0  0  0  0  0  0  0  0  0  0  0  0
   59.8259   36.0303   46.2734 H   0  0  0  0  0  0  0  0  0  0  0  0
   58.4230   34.6050   45.4150 N   0  0  0  0  0  0  0  0  0  0  0  0
   57.7000   35.2360   45.0060 H   0  0  0  0  0  0  0  0  0  0  0  0
   58.0780   30.4040   46.1650 C   0  0  0  0  0  0  0  0  0  0  0  0
   58.7237   30.9718   46.8510 H   0  0  0  0  0  0  0  0  0  0  0  0
   57.9090   29.0280   46.3460 C   0  0  0  0  0  0  0  0  0  0  0  0
   58.4341   28.5146   47.1649 H   0  0  0  0  0  0  0  0  0  0  0  0
  1  2  1  0
  2  3  1  0
  3  4  2  0
  3  5  2  0
  3  6  1  0
  6  7  2  0
  7  8  1  0
  7  9  1  0
  9 10  1  0
  9 11  2  0
 11 12  1  0
 12 13  2  0
 13 14  1  0
 14 15  1  0
 15 16  1  0
 16 17  2  0
 17 18  1  0
 17 19  1  0
 19 20  1  0
 19 21  2  0
 21 22  1  0
 21 23  1  0
 23 24  1  0
 23 25  2  0
 25 26  1  0
 15 27  2  0
 27 28  1  0
 27 29  1  0
 29 30  1  0
 11 31  1  0
 31 32  1  0
 31 33  2  0
 33 34  1  0
 33  6  1  0
 29 13  1  0
 25 16  1  0
M  CHG  2   2  -1  14  -1
M  END
>  <UniqueID>  (54) 
50

>  <SMILES>  (54) 
[NH-]S(=O)(=O)c1ccc(/N=c2/[n-]c(-c3ccccc3)c[nH]2)cc1

>  <Energy>  (54) 
74.31088561653085

>  <Genealogy>  (54) 
[NH-]S(=O)(=O)c1ccc(N=c2[n-]c(-c3ccccc3)c[nH]2)cc1 (protonated)
[NH-]S(=O)(=O)c1ccc(/N=c2/[n-]c(-c3ccccc3)c[nH]2)cc1 (cis-trans isomerization)
[NH-]S(=O)(=O)c1ccc(/N=c2/[n-]c(-c3ccccc3)c[nH]2)cc1 (3D coordinates assigned)
[NH-]S(=O)(=O)c1ccc(/N=c2/[n-]c(-c3ccccc3)c[nH]2)cc1 (optimized conformer: 74.31088561653085 kcal/mol)

>  <smiles>  (54) 
NS(=O)(=O)c1ccc(N=c2[nH]cc(-c3ccccc3)[nH]2)cc1

>  <score_type>  (54) 
oracle

>  <origin>  (54) 
adg

>  <m_score__min__energy>  (54) 
-11.94

>  <m_primary>  (54) 
energy

$$$$
54:0
     RDKit          3D

 59 62  0  0  0  0  0  0  0  0999 V2000
   58.2400   32.2550   51.7510 C   0  0  0  0  0  0  0  0  0  0  0  0
   58.8530   32.0470   50.4340 N   0  0  0  0  0  0  0  0  0  0  0  0
   59.3930   33.1970   49.6880 C   0  0  0  0  0  0  0  0  0  0  0  0
   60.8370   32.9780   49.3440 C   0  0  0  0  0  0  0  0  0  0  0  0
   61.4470   33.1630   48.1130 C   0  0  0  0  0  0  0  0  0  0  0  0
   62.7700   32.9310   48.2480 N   0  0  0  0  0  0  0  0  0  0  0  0
   63.7460   33.0300   47.1650 C   0  0  0  0  0  0  0  0  0  0  0  0
   63.0320   32.6190   49.5150 N   0  0  0  0  0  0  0  0  0  0  0  0
   64.3300   32.3220   50.0640 C   0  0  0  0  0  0  0  0  0  0  0  0
   65.4170   33.1750   49.8050 C   0  0  0  0  0  0  0  0  0  0  0  0
   66.6770   32.8920   50.3400 C   0  0  0  0  0  0  0  0  0  0  0  0
   66.8620   31.7540   51.1300 C   0  0  0  0  0  0  0  0  0  0  0  0
   65.7880   30.8940   51.3810 C   0  0  0  0  0  0  0  0  0  0  0  0
   64.5270   31.1740   50.8480 C   0  0  0  0  0  0  0  0  0  0  0  0
   61.8670   32.6340   50.1950 C   0  0  0  0  0  0  0  0  0  0  0  0
   61.7550   32.3980   51.4280 O   0  0  0  0  0  0  0  0  0  0  0  0
   58.8190   30.7190   49.8580 C   0  0  0  0  0  0  0  0  0  0  0  0
   58.4130   29.7470   50.5520 O   0  0  0  0  0  0  0  0  0  0  0  0
   59.2130   30.4680   48.4600 C   0  0  0  0  0  0  0  0  0  0  0  0
   60.3540   29.7090   48.1630 C   0  0  0  0  0  0  0  0  0  0  0  0
   60.7410   29.5110   46.8360 C   0  0  0  0  0  0  0  0  0  0  0  0
   59.9860   30.0610   45.7970 C   0  0  0  0  0  0  0  0  0  0  0  0
   58.8290   30.8000   46.0800 C   0  0  0  0  0  0  0  0  0  0  0  0
   57.8720   31.4930   44.7660 S   0  0  0  0  0  0  0  0  0  0  0  0
   56.4730   30.9430   44.8300 O   0  0  0  0  0  0  0  0  0  0  0  0
   58.4720   31.0840   43.4470 O   0  0  0  0  0  0  0  0  0  0  0  0
   57.8060   33.2380   44.8630 N   0  0  0  0  0  0  0  0  0  0  0  0
   59.0740   33.8300   44.3960 C   0  0  0  0  0  0  0  0  0  0  0  0
   59.2340   35.2630   44.9320 C   0  0  0  0  0  0  0  0  0  0  0  0
   59.2490   35.3540   46.3510 O   0  0  0  0  0  0  0  0  0  0  0  0
   58.6170   34.2590   47.0030 C   0  0  0  0  0  0  0  0  0  0  0  0
   57.4180   33.6960   46.2170 C   0  0  0  0  0  0  0  0  0  0  0  0
   58.4420   30.9960   47.4130 C   0  0  0  0  0  0  0  0  0  0  0  0
   58.9682   32.0079   52.5375 H   0  0  0  0  0  0  0  0  0  0  0  0
   57.9347   33.3070   51.8513 H   0  0  0  0  0  0  0  0  0  0  0  0
   57.3576   31.6060   51.8513 H   0  0  0  0  0  0  0  0  0  0  0  0
   58.8170   33.3276   48.7600 H   0  0  0  0  0  0  0  0  0  0  0  0
   59.3128   34.0952   50.3179 H   0  0  0  0  0  0  0  0  0  0  0  0
   60.9378   33.4509   47.1814 H   0  0  0  0  0  0  0  0  0  0  0  0
   64.7556   33.1324   47.5895 H   0  0  0  0  0  0  0  0  0  0  0  0
   63.6992   32.1225   46.5451 H   0  0  0  0  0  0  0  0  0  0  0  0
   63.5179   33.9096   46.5451 H   0  0  0  0  0  0  0  0  0  0  0  0
   65.2755   34.0684   49.1791 H   0  0  0  0  0  0  0  0  0  0  0  0
   67.5234   33.5653   50.1391 H   0  0  0  0  0  0  0  0  0  0  0  0
   67.8528   31.5346   51.5546 H   0  0  0  0  0  0  0  0  0  0  0  0
   65.9362   29.9960   51.9988 H   0  0  0  0  0  0  0  0  0  0  0  0
   63.6858   30.4927   51.0433 H   0  0  0  0  0  0  0  0  0  0  0  0
   60.9463   29.2680   48.9782 H   0  0  0  0  0  0  0  0  0  0  0  0
   61.6413   28.9213   46.6084 H   0  0  0  0  0  0  0  0  0  0  0  0
   60.3006   29.9136   44.7533 H   0  0  0  0  0  0  0  0  0  0  0  0
   59.9130   33.2149   44.7533 H   0  0  0  0  0  0  0  0  0  0  0  0
   59.0659   33.8621   43.2965 H   0  0  0  0  0  0  0  0  0  0  0  0
   60.1813   35.6710   44.5497 H   0  0  0  0  0  0  0  0  0  0  0  0
   58.3570   35.8303   44.5871 H   0  0  0  0  0  0  0  0  0  0  0  0
   59.3571   33.4559   47.1348 H   0  0  0  0  0  0  0  0  0  0  0  0
   58.2331   34.6284   47.9654 H   0  0  0  0  0  0  0  0  0  0  0  0
   56.9976   32.8448   46.7726 H   0  0  0  0  0  0  0  0  0  0  0  0
   56.6784   34.5022   46.1033 H   0  0  0  0  0  0  0  0  0  0  0  0
   57.5293   31.5666   47.6395 H   0  0  0  0  0  0  0  0  0  0  0  0
  1  2  1  0
  2  3  1  0
  3  4  1  0
  4  5  2  0
  5  6  1  0
  6  7  1  0
  6  8  1  0
  8  9  1  0
  9 10  2  0
 10 11  1  0
 11 12  2  0
 12 13  1  0
 13 14  2  0
  8 15  1  0
 15 16  2  0
  2 17  1  0
 17 18  2  0
 17 19  1  0
 19 20  2  0
 20 21  1  0
 21 22  2  0
 22 23  1  0
 23 24  1  0
 24 25  2  0
 24 26  2  0
 24 27  1  0
 27 28  1  0
 28 29  1  0
 29 30  1  0
 30 31  1  0
 31 32  1  0
 23 33  2  0
 15  4  1  0
 33 19  1  0
 14  9  1  0
 32 27  1  0
  1 34  1  0
  1 35  1  0
  1 36  1  0
  3 37  1  0
  3 38  1  0
  5 39  1  0
  7 40  1  0
  7 41  1  0
  7 42  1  0
 10 43  1  0
 11 44  1  0
 12 45  1  0
 13 46  1  0
 14 47  1  0
 20 48  1  0
 21 49  1  0
 22 50  1  0
 28 51  1  0
 28 52  1  0
 29 53  1  0
 29 54  1  0
 31 55  1  0
 31 56  1  0
 32 57  1  0
 32 58  1  0
 33 59  1  0
M  END
>  <UniqueID>  (55) 
51

>  <SMILES>  (55) 
CN(Cc1cn(C)n(-c2ccccc2)c1=O)C(=O)c1cccc(S(=O)(=O)N2CCOCC2)c1

>  <Energy>  (55) 
112.87150714815716

>  <Genealogy>  (55) 
CN(Cc1cn(C)n(-c2ccccc2)c1=O)C(=O)c1cccc(S(=O)(=O)N2CCOCC2)c1 (3D coordinates assigned)
CN(Cc1cn(C)n(-c2ccccc2)c1=O)C(=O)c1cccc(S(=O)(=O)N2CCOCC2)c1 (nonaromatic ring conformer: 112.87150714815716 kcal/mol)

>  <smiles>  (55) 
CN(Cc1cn(C)n(-c2ccccc2)c1=O)C(=O)c1cccc(S(=O)(=O)N2CCOCC2)c1

>  <score_type>  (55) 
oracle

>  <origin>  (55) 
adg

>  <m_score__min__energy>  (55) 
-10.880000000000001

>  <m_primary>  (55) 
energy

$$$$
55:0
     RDKit          3D

 52 56  0  0  1  0  0  0  0  0999 V2000
   63.4140   31.5970   47.4860 C   0  0  0  0  0  0  0  0  0  0  0  0
   63.7980   32.9350   47.4330 C   0  0  0  0  0  0  0  0  0  0  0  0
   62.9310   33.9130   47.9030 C   0  0  0  0  0  0  0  0  0  0  0  0
   61.7100   33.6330   48.4190 C   0  0  0  0  0  0  0  0  0  0  0  0
   60.7240   34.5920   48.9550 C   0  0  0  0  0  0  0  0  0  0  0  0
   59.6410   34.8150   48.1570 O   0  0  0  0  0  0  0  0  0  0  0  0
   59.0420   34.1300   47.1840 C   0  0  0  0  0  0  0  0  0  0  0  0
   59.6010   34.2560   45.8930 C   0  0  0  0  0  0  0  0  0  0  0  0
   59.0920   33.6140   44.8020 C   0  0  0  0  0  0  0  0  0  0  0  0
   57.9940   32.8050   44.9150 C   0  0  0  0  0  0  0  0  0  0  0  0
   57.4220   32.1000   43.7570 C   0  0  0  0  0  0  0  0  0  0  0  0
   56.8310   30.8290   44.1970 N   0  0  0  0  0  0  0  0  0  0  0  0
   55.5370   30.4610   44.1090 C   0  0  0  0  0  0  0  0  0  0  0  0
   55.4090   29.2070   44.6300 N   0  0  0  0  0  0  0  0  0  0  0  0
   56.6410   28.8380   45.0280 C   0  0  0  0  0  0  0  0  0  0  0  0
   57.1370   27.6910   45.6230 C   0  0  0  0  0  0  0  0  0  0  0  0
   56.3790   26.7010   45.9080 N   0  0  0  0  0  0  0  0  0  0  0  0
   56.8830   25.3910   45.6650 C   0  0  0  0  0  0  0  0  0  0  0  0
   57.2210   24.5180   46.6800 C   0  0  0  0  0  0  0  0  0  0  0  0
   57.7010   23.2700   46.3300 C   0  0  0  0  0  0  0  0  0  0  0  0
   57.8410   22.9020   45.0120 C   0  0  0  0  0  0  0  0  0  0  0  0
   57.5020   23.7780   43.9940 C   0  0  0  0  0  0  0  0  0  0  0  0
   57.0180   25.0370   44.3210 C   0  0  0  0  0  0  0  0  0  0  0  0
   58.4430   27.5960   45.9150 N   0  0  0  0  0  0  0  0  0  0  0  0
   59.3300   28.5800   45.6570 C   0  0  0  0  0  0  0  0  0  0  0  0
   58.8700   29.7230   45.0720 N   0  0  0  0  0  0  0  0  0  0  0  0
   57.5470   29.8400   44.7660 C   0  0  0  0  0  0  0  0  0  0  0  0
   57.4170   32.6500   46.1390 C   0  0  0  0  0  0  0  0  0  0  0  0
   57.9440   33.3090   47.2470 C   0  0  0  0  0  0  0  0  0  0  0  0
   61.3400   32.2840   48.4650 C   0  0  0  0  0  0  0  0  0  0  0  0
   62.1870   31.2950   48.0030 C   0  0  0  0  0  0  0  0  0  0  0  0
   64.0826   30.8037   47.1205 H   0  0  0  0  0  0  0  0  0  0  0  0
   64.7795   33.2146   47.0224 H   0  0  0  0  0  0  0  0  0  0  0  0
   63.2507   34.9644   47.8540 H   0  0  0  0  0  0  0  0  0  0  0  0
   60.3628   34.2060   49.9196 H   0  0  0  0  0  0  0  0  0  0  0  0
   61.2476   35.5559   49.0372 H   0  0  0  0  0  0  0  0  0  0  0  0
   60.4839   34.8988   45.7617 H   0  0  0  0  0  0  0  0  0  0  0  0
   59.5697   33.7482   43.8203 H   0  0  0  0  0  0  0  0  0  0  0  0
   56.6436   32.7254   43.2955 H   0  0  0  0  0  0  0  0  0  0  0  0
   58.2160   31.8990   43.0227 H   0  0  0  0  0  0  0  0  0  0  0  0
   54.7225   31.0690   43.6883 H   0  0  0  0  0  0  0  0  0  0  0  0
   57.1115   24.8071   47.7357 H   0  0  0  0  0  0  0  0  0  0  0  0
   57.9765   22.5570   47.1210 H   0  0  0  0  0  0  0  0  0  0  0  0
   58.2261   21.9019   44.7639 H   0  0  0  0  0  0  0  0  0  0  0  0
   57.6148   23.4800   42.9412 H   0  0  0  0  0  0  0  0  0  0  0  0
   56.7434   25.7492   43.5290 H   0  0  0  0  0  0  0  0  0  0  0  0
   58.8390   26.7330   46.3670 H   0  0  0  0  0  0  0  0  0  0  0  0
   60.3938   28.4634   45.9113 H   0  0  0  0  0  0  0  0  0  0  0  0
   56.5341   32.0038   46.2525 H   0  0  0  0  0  0  0  0  0  0  0  0
   57.4555   33.1641   48.2219 H   0  0  0  0  0  0  0  0  0  0  0  0
   60.3581   32.0064   48.8760 H   0  0  0  0  0  0  0  0  0  0  0  0
   61.8665   30.2439   48.0527 H   0  0  0  0  0  0  0  0  0  0  0  0
  1  2  2  0
  2  3  1  0
  3  4  2  0
  4  5  1  0
  5  6  1  0
  6  7  1  0
  7  8  2  0
  8  9  1  0
  9 10  2  0
 10 11  1  0
 11 12  1  0
 12 13  1  0
 13 14  2  0
 14 15  1  0
 15 16  1  0
 16 17  2  0
 17 18  1  0
 18 19  2  0
 19 20  1  0
 20 21  2  0
 21 22  1  0
 22 23  2  0
 16 24  1  0
 24 25  1  0
 25 26  2  0
 26 27  1  0
 10 28  1  0
 28 29  2  0
  4 30  1  0
 30 31  2  0
 31  1  1  0
 29  7  1  0
 27 12  1  0
 27 15  2  0
 23 18  1  0
  1 32  1  0
  2 33  1  0
  3 34  1  0
  5 35  1  0
  5 36  1  0
  8 37  1  0
  9 38  1  0
 11 39  1  0
 11 40  1  0
 13 41  1  0
 19 42  1  0
 20 43  1  0
 21 44  1  0
 22 45  1  0
 23 46  1  0
 24 47  1  0
 25 48  1  0
 28 49  1  0
 29 50  1  0
 30 51  1  0
 31 52  1  0
M  END
>  <smiles>  (56) 
c1ccc(COc2ccc(Cn3cnc4c(=Nc5ccccc5)[nH]cnc43)cc2)cc1

>  <score_type>  (56) 
oracle

>  <origin>  (56) 
adg

>  <m_score__min__energy>  (56) 
-9.4199999999999999

>  <m_primary>  (56) 
energy

$$$$
56:0
     RDKit          3D

 47 49  0  0  0  0  0  0  0  0999 V2000
   57.4810   30.2520   51.1820 O   0  0  0  0  0  0  0  0  0  0  0  0
   57.0290   31.3750   51.5340 C   0  0  0  0  0  0  0  0  0  0  0  0
   55.8440   31.4590   52.3330 N   0  0  0  0  0  0  0  0  0  0  0  0
   55.0170   30.3570   52.7430 C   0  0  0  0  0  0  0  0  0  0  0  0
   55.5870   29.1920   53.2890 C   0  0  0  0  0  0  0  0  0  0  0  0
   54.7840   28.1130   53.6600 C   0  0  0  0  0  0  0  0  0  0  0  0
   53.4020   28.1700   53.4830 C   0  0  0  0  0  0  0  0  0  0  0  0
   52.8100   29.3090   52.9210 C   0  0  0  0  0  0  0  0  0  0  0  0
   51.4200   29.3620   52.7340 C   0  0  0  0  0  0  0  0  0  0  0  0
   50.8290   30.4960   52.1750 C   0  0  0  0  0  0  0  0  0  0  0  0
   51.6160   31.5860   51.7980 C   0  0  0  0  0  0  0  0  0  0  0  0
   51.0200   32.7140   51.2470 O   0  0  0  0  0  0  0  0  0  0  0  0
   53.0030   31.5480   51.9780 C   0  0  0  0  0  0  0  0  0  0  0  0
   53.6180   30.4110   52.5400 C   0  0  0  0  0  0  0  0  0  0  0  0
   57.7450   32.5770   51.2190 N   0  0  0  0  0  0  0  0  0  0  0  0
   58.8460   32.6530   50.2970 C   0  0  0  0  0  0  0  0  0  0  0  0
   59.8930   33.5500   50.5510 C   0  0  0  0  0  0  0  0  0  0  0  0
   60.9640   33.6610   49.6600 C   0  0  0  0  0  0  0  0  0  0  0  0
   61.0000   32.8830   48.4930 C   0  0  0  0  0  0  0  0  0  0  0  0
   62.0970   33.0020   47.5660 N   0  0  0  0  0  0  0  0  0  0  0  0
   63.3400   32.2520   47.7940 C   0  0  0  0  0  0  0  0  0  0  0  0
   64.3270   33.0890   48.6030 C   0  0  0  0  0  0  0  0  0  0  0  0
   64.8270   32.2050   50.0670 Cl  0  0  0  0  0  0  0  0  0  0  0  0
   61.9550   33.8310   46.3610 C   0  0  0  0  0  0  0  0  0  0  0  0
   60.5090   33.8290   45.8650 C   0  0  0  0  0  0  0  0  0  0  0  0
   59.6280   35.2670   46.4430 Cl  0  0  0  0  0  0  0  0  0  0  0  0
   59.9410   32.0040   48.2230 C   0  0  0  0  0  0  0  0  0  0  0  0
   58.8680   31.8940   49.1130 C   0  0  0  0  0  0  0  0  0  0  0  0
   56.6769   29.1314   53.4247 H   0  0  0  0  0  0  0  0  0  0  0  0
   55.2434   27.2128   54.0943 H   0  0  0  0  0  0  0  0  0  0  0  0
   52.7748   27.3185   53.7854 H   0  0  0  0  0  0  0  0  0  0  0  0
   50.7943   28.5068   53.0291 H   0  0  0  0  0  0  0  0  0  0  0  0
   49.7391   30.5312   52.0309 H   0  0  0  0  0  0  0  0  0  0  0  0
   53.6170   32.4104   51.6792 H   0  0  0  0  0  0  0  0  0  0  0  0
   57.4920   33.4380   51.7560 H   0  0  0  0  0  0  0  0  0  0  0  0
   59.8714   34.1712   51.4585 H   0  0  0  0  0  0  0  0  0  0  0  0
   61.7836   34.3625   49.8749 H   0  0  0  0  0  0  0  0  0  0  0  0
   63.1100   31.3289   48.3463 H   0  0  0  0  0  0  0  0  0  0  0  0
   63.7927   32.0084   46.8215 H   0  0  0  0  0  0  0  0  0  0  0  0
   65.2130   33.3025   47.9869 H   0  0  0  0  0  0  0  0  0  0  0  0
   63.8409   34.0300   48.9000 H   0  0  0  0  0  0  0  0  0  0  0  0
   62.2535   34.8632   46.5967 H   0  0  0  0  0  0  0  0  0  0  0  0
   62.5982   33.4160   45.5710 H   0  0  0  0  0  0  0  0  0  0  0  0
   60.5069   33.8249   44.7650 H   0  0  0  0  0  0  0  0  0  0  0  0
   60.0073   32.9319   46.2569 H   0  0  0  0  0  0  0  0  0  0  0  0
   59.9545   31.3974   47.3055 H   0  0  0  0  0  0  0  0  0  0  0  0
   58.0368   31.2103   48.8859 H   0  0  0  0  0  0  0  0  0  0  0  0
  1  2  2  0
  2  3  1  0
  3  4  1  0
  4  5  2  0
  5  6  1  0
  6  7  2  0
  7  8  1  0
  8  9  2  0
  9 10  1  0
 10 11  2  0
 11 12  1  0
 11 13  1  0
 13 14  2  0
  2 15  1  0
 15 16  1  0
 16 17  2  0
 17 18  1  0
 18 19  2  0
 19 20  1  0
 20 21  1  0
 21 22  1  0
 22 23  1  0
 20 24  1  0
 24 25  1  0
 25 26  1  0
 19 27  1  0
 27 28  2  0
 14  4  1  0
 28 16  1  0
 14  8  1  0
  5 29  1  0
  6 30  1  0
  7 31  1  0
  9 32  1  0
 10 33  1  0
 13 34  1  0
 15 35  1  0
 17 36  1  0
 18 37  1  0
 21 38  1  0
 21 39  1  0
 22 40  1  0
 22 41  1  0
 24 42  1  0
 24 43  1  0
 25 44  1  0
 25 45  1  0
 27 46  1  0
 28 47  1  0
M  CHG  2   3  -1  12  -1
M  END
>  <UniqueID>  (57) 
52

>  <SMILES>  (57) 
O=C([N-]c1cccc2ccc([O-])cc12)Nc1ccc(N(CCCl)CCCl)cc1

>  <Energy>  (57) 
57.9606782941195

>  <Genealogy>  (57) 
O=C([N-]c1cccc2ccc([O-])cc12)Nc1ccc(N(CCCl)CCCl)cc1 (protonated)
O=C([N-]c1cccc2ccc([O-])cc12)Nc1ccc(N(CCCl)CCCl)cc1 (3D coordinates assigned)
O=C([N-]c1cccc2ccc([O-])cc12)Nc1ccc(N(CCCl)CCCl)cc1 (optimized conformer: 57.9606782941195 kcal/mol)

>  <smiles>  (57) 
O=C(Nc1ccc(N(CCCl)CCCl)cc1)Nc1cccc2ccc(O)cc12

>  <score_type>  (57) 
oracle

>  <origin>  (57) 
adg

>  <m_score__min__energy>  (57) 
-12.619999999999999

>  <m_primary>  (57) 
energy

$$$$
57:0
     RDKit          3D

 41 44  0  0  0  0  0  0  0  0999 V2000
   61.5140   29.7170   49.9650 O   0  0  0  0  0  0  0  0  0  0  0  0
   61.5450   30.2280   48.8230 N   0  0  0  0  0  0  0  0  0  0  0  0
   60.6630   29.7650   47.8740 O   0  0  0  0  0  0  0  0  0  0  0  0
   62.2470   31.4610   48.6100 C   0  0  0  0  0  0  0  0  0  0  0  0
   63.0580   31.5930   47.4680 C   0  0  0  0  0  0  0  0  0  0  0  0
   63.7630   32.7730   47.2280 C   0  0  0  0  0  0  0  0  0  0  0  0
   63.6620   33.8410   48.1180 C   0  0  0  0  0  0  0  0  0  0  0  0
   62.8510   33.7360   49.2490 C   0  0  0  0  0  0  0  0  0  0  0  0
   62.1430   32.5500   49.5160 C   0  0  0  0  0  0  0  0  0  0  0  0
   61.1820   32.5340   50.6790 C   0  0  0  0  0  0  0  0  0  0  0  0
   59.8690   32.8290   50.1990 O   0  0  0  0  0  0  0  0  0  0  0  0
   59.5690   33.2590   48.9020 C   0  0  0  0  0  0  0  0  0  0  0  0
   59.6160   34.6170   48.5260 C   0  0  0  0  0  0  0  0  0  0  0  0
   59.2660   35.0060   47.2290 C   0  0  0  0  0  0  0  0  0  0  0  0
   58.8650   34.0480   46.2930 C   0  0  0  0  0  0  0  0  0  0  0  0
   58.5260   34.4260   45.0310 N   0  0  0  0  0  0  0  0  0  0  0  0
   58.1340   33.5230   44.0930 C   0  0  0  0  0  0  0  0  0  0  0  0
   58.0620   32.1590   44.4100 C   0  0  0  0  0  0  0  0  0  0  0  0
   57.6760   31.1500   43.3630 C   0  0  0  0  0  0  0  0  0  0  0  0
   56.8990   30.0030   44.0070 C   0  0  2  0  0  0  0  0  0  0  0  0
   55.5630   29.6970   43.4490 C   0  0  0  0  0  0  0  0  0  0  0  0
   55.7190   30.4620   44.6230 O   0  0  0  0  0  0  0  0  0  0  0  0
   58.4150   31.7420   45.7030 C   0  0  0  0  0  0  0  0  0  0  0  0
   58.8120   32.6860   46.6600 C   0  0  0  0  0  0  0  0  0  0  0  0
   59.1560   32.3020   47.9630 C   0  0  0  0  0  0  0  0  0  0  0  0
   63.1371   30.7574   46.7570 H   0  0  0  0  0  0  0  0  0  0  0  0
   64.3994   32.8605   46.3351 H   0  0  0  0  0  0  0  0  0  0  0  0
   64.2225   34.7683   47.9286 H   0  0  0  0  0  0  0  0  0  0  0  0
   62.7646   34.5889   49.9383 H   0  0  0  0  0  0  0  0  0  0  0  0
   61.1883   31.5397   51.1495 H   0  0  0  0  0  0  0  0  0  0  0  0
   61.4845   33.2861   51.4226 H   0  0  0  0  0  0  0  0  0  0  0  0
   59.9301   35.3758   49.2578 H   0  0  0  0  0  0  0  0  0  0  0  0
   59.3063   36.0679   46.9447 H   0  0  0  0  0  0  0  0  0  0  0  0
   57.8721   33.8642   43.0806 H   0  0  0  0  0  0  0  0  0  0  0  0
   57.0462   31.6357   42.6031 H   0  0  0  0  0  0  0  0  0  0  0  0
   58.5864   30.7509   42.8919 H   0  0  0  0  0  0  0  0  0  0  0  0
   57.7729   29.3860   44.2631 H   0  0  0  0  0  0  0  0  0  0  0  0
   55.2288   30.1744   42.5161 H   0  0  0  0  0  0  0  0  0  0  0  0
   55.0158   28.7844   43.1701 H   0  0  0  0  0  0  0  0  0  0  0  0
   58.3801   30.6743   45.9652 H   0  0  0  0  0  0  0  0  0  0  0  0
   59.1018   31.2420   48.2518 H   0  0  0  0  0  0  0  0  0  0  0  0
  1  2  2  0
  2  3  1  0
  2  4  1  0
  4  5  2  0
  5  6  1  0
  6  7  2  0
  7  8  1  0
  8  9  2  0
  9 10  1  0
 10 11  1  0
 11 12  1  0
 12 13  2  0
 13 14  1  0
 14 15  2  0
 15 16  1  0
 16 17  2  0
 17 18  1  0
 18 19  1  0
 19 20  1  0
 20 21  1  0
 21 22  1  0
 18 23  2  0
 23 24  1  0
 24 25  2  0
  9  4  1  0
 25 12  1  0
 24 15  1  0
 22 20  1  0
  5 26  1  0
  6 27  1  0
  7 28  1  0
  8 29  1  0
 10 30  1  0
 10 31  1  0
 13 32  1  0
 14 33  1  0
 17 34  1  0
 19 35  1  0
 19 36  1  0
 20 37  1  1
 21 38  1  0
 21 39  1  0
 23 40  1  0
 25 41  1  0
M  CHG  2   2   1   3  -1
M  END
>  <UniqueID>  (58) 
53

>  <SMILES>  (58) 
O=[N+]([O-])c1ccccc1COc1ccc2ncc(C[C@@H]3CO3)cc2c1

>  <Energy>  (58) 
386.64774902553324

>  <Genealogy>  (58) 
O=[N+]([O-])c1ccccc1COc1ccc2ncc(C[C@@H]3CO3)cc2c1 (chirality)
O=[N+]([O-])c1ccccc1COc1ccc2ncc(C[C@@H]3CO3)cc2c1 (3D coordinates assigned)
O=[N+]([O-])c1ccccc1COc1ccc2ncc(C[C@@H]3CO3)cc2c1 (nonaromatic ring conformer: 386.64774902553324 kcal/mol)

>  <smiles>  (58) 
O=[N+]([O-])c1ccccc1COc1ccc2ncc(CC3CO3)cc2c1

>  <score_type>  (58) 
oracle

>  <origin>  (58) 
adg

>  <m_score__min__energy>  (58) 
-9.0299999999999994

>  <m_primary>  (58) 
energy

$$$$
58:0
     RDKit          3D

 59 62  0  0  0  0  0  0  0  0999 V2000
   59.2250   20.7820   44.5880 H   0  0  0  0  0  0  0  0  0  0  0  0
   58.7710   21.4060   43.9300 O   0  0  0  0  0  0  0  0  0  0  0  0
   57.7920   22.3070   44.3410 C   0  0  0  0  0  0  0  0  0  0  0  0
   57.7060   23.5600   43.7270 C   0  0  0  0  0  0  0  0  0  0  0  0
   58.4098   23.8260   42.9246 H   0  0  0  0  0  0  0  0  0  0  0  0
   56.7300   24.4760   44.1280 C   0  0  0  0  0  0  0  0  0  0  0  0
   56.6703   25.4595   43.6389 H   0  0  0  0  0  0  0  0  0  0  0  0
   55.8220   24.1490   45.1540 C   0  0  0  0  0  0  0  0  0  0  0  0
   54.7860   25.1190   45.5790 C   0  0  0  0  0  0  0  0  0  0  0  0
   53.5690   24.8840   45.3410 O   0  0  0  0  0  0  0  0  0  0  0  0
   55.1700   26.3460   46.2150 N   0  0  0  0  0  0  0  0  0  0  0  0
   56.3710   27.0960   45.9760 C   0  0  0  0  0  0  0  0  0  0  0  0
   56.3610   28.2800   45.2180 C   0  0  0  0  0  0  0  0  0  0  0  0
   55.4193   28.6394   44.7775 H   0  0  0  0  0  0  0  0  0  0  0  0
   57.5410   29.0030   45.0210 C   0  0  0  0  0  0  0  0  0  0  0  0
   57.5198   29.9317   44.4319 H   0  0  0  0  0  0  0  0  0  0  0  0
   58.7490   28.5550   45.5670 C   0  0  0  0  0  0  0  0  0  0  0  0
   59.9320   29.3450   45.3670 N   0  0  0  0  0  0  0  0  0  0  0  0
   60.3060   30.3790   46.0620 C   0  0  0  0  0  0  0  0  0  0  0  0
   61.5340   30.4320   46.6440 N   0  0  0  0  0  0  0  0  0  0  0  0
   61.9330   31.5180   47.3550 C   0  0  0  0  0  0  0  0  0  0  0  0
   63.1970   31.5340   47.9560 C   0  0  0  0  0  0  0  0  0  0  0  0
   63.8723   30.6736   47.8395 H   0  0  0  0  0  0  0  0  0  0  0  0
   63.6010   32.6430   48.7040 C   0  0  0  0  0  0  0  0  0  0  0  0
   64.5964   32.6561   49.1720 H   0  0  0  0  0  0  0  0  0  0  0  0
   62.7430   33.7360   48.8590 C   0  0  0  0  0  0  0  0  0  0  0  0
   63.0628   34.6041   49.4541 H   0  0  0  0  0  0  0  0  0  0  0  0
   61.4800   33.7290   48.2600 C   0  0  0  0  0  0  0  0  0  0  0  0
   60.8068   34.5893   48.3890 H   0  0  0  0  0  0  0  0  0  0  0  0
   61.0680   32.6250   47.4930 C   0  0  0  0  0  0  0  0  0  0  0  0
   59.8090   32.5600   46.8650 C   0  0  0  0  0  0  0  0  0  0  0  0
   58.8800   33.6560   46.9260 N   0  0  0  0  0  0  0  0  0  0  0  0
   59.3050   34.9560   46.3890 C   0  0  0  0  0  0  0  0  0  0  0  0
   60.3930   35.0553   46.5167 H   0  0  0  0  0  0  0  0  0  0  0  0
   58.7685   35.7441   46.9378 H   0  0  0  0  0  0  0  0  0  0  0  0
   58.9650   35.0970   44.8990 C   0  0  0  0  0  0  0  0  0  0  0  0
   59.5599   35.9145   44.4657 H   0  0  0  0  0  0  0  0  0  0  0  0
   57.8927   35.3184   44.7934 H   0  0  0  0  0  0  0  0  0  0  0  0
   59.2680   33.8550   44.1970 N   0  0  0  0  0  0  0  0  0  0  0  0
   59.0010   33.0610   44.8220 H   0  0  0  0  0  0  0  0  0  0  0  0
   60.3050   33.7970   44.0680 H   0  0  0  0  0  0  0  0  0  0  0  0
   57.4510   33.3470   47.0800 C   0  0  0  0  0  0  0  0  0  0  0  0
   57.3437   32.4103   47.6467 H   0  0  0  0  0  0  0  0  0  0  0  0
   56.9669   34.1767   47.6160 H   0  0  0  0  0  0  0  0  0  0  0  0
   56.7790   33.1870   45.7150 C   0  0  0  0  0  0  0  0  0  0  0  0
   55.6871   33.2079   45.8465 H   0  0  0  0  0  0  0  0  0  0  0  0
   57.1037   34.0126   45.0646 H   0  0  0  0  0  0  0  0  0  0  0  0
   57.1610   31.9240   45.0910 N   0  0  0  0  0  0  0  0  0  0  0  0
   57.3180   31.2190   45.8470 H   0  0  0  0  0  0  0  0  0  0  0  0
   58.0830   32.0670   44.6210 H   0  0  0  0  0  0  0  0  0  0  0  0
   59.4670   31.4420   46.1700 N   0  0  0  0  0  0  0  0  0  0  0  0
   58.7500   27.4020   46.3720 C   0  0  0  0  0  0  0  0  0  0  0  0
   59.6848   27.0679   46.8458 H   0  0  0  0  0  0  0  0  0  0  0  0
   57.5700   26.6760   46.5750 C   0  0  0  0  0  0  0  0  0  0  0  0
   57.6150   25.2380   47.5850 Cl  0  0  0  0  0  0  0  0  0  0  0  0
   55.9140   22.8840   45.7650 C   0  0  0  0  0  0  0  0  0  0  0  0
   55.2104   22.6113   46.5654 H   0  0  0  0  0  0  0  0  0  0  0  0
   56.8940   21.9720   45.3610 C   0  0  0  0  0  0  0  0  0  0  0  0
   56.9594   20.9873   45.8468 H   0  0  0  0  0  0  0  0  0  0  0  0
  1  2  1  0
  2  3  1  0
  3  4  2  0
  4  5  1  0
  4  6  1  0
  6  7  1  0
  6  8  2  0
  8  9  1  0
  9 10  2  0
  9 11  1  0
 11 12  1  0
 12 13  2  0
 13 14  1  0
 13 15  1  0
 15 16  1  0
 15 17  2  0
 17 18  1  0
 18 19  2  0
 19 20  1  0
 20 21  2  0
 21 22  1  0
 22 23  1  0
 22 24  2  0
 24 25  1  0
 24 26  1  0
 26 27  1  0
 26 28  2  0
 28 29  1  0
 28 30  1  0
 30 31  2  0
 31 32  1  0
 32 33  1  0
 33 34  1  0
 33 35  1  0
 33 36  1  0
 36 37  1  0
 36 38  1  0
 36 39  1  0
 39 40  1  0
 39 41  1  0
 32 42  1  0
 42 43  1  0
 42 44  1  0
 42 45  1  0
 45 46  1  0
 45 47  1  0
 45 48  1  0
 48 49  1  0
 48 50  1  0
 31 51  1  0
 17 52  1  0
 52 53  1  0
 52 54  2  0
 54 55  1  0
  8 56  1  0
 56 57  1  0
 56 58  2  0
 58 59  1  0
 58  3  1  0
 54 12  1  0
 51 19  1  0
 30 21  1  0
M  CHG  2  11  -1  51  -1
M  END
>  <UniqueID>  (59) 
54

>  <SMILES>  (59) 
NCCN(CCN)c1[n-]/c(=N/c2ccc([N-]C(=O)c3ccc(O)cc3)c(Cl)c2)nc2ccccc12

>  <Energy>  (59) 
75.43706205573271

>  <Genealogy>  (59) 
NCCN(CCN)c1[n-]c(=Nc2ccc([N-]C(=O)c3ccc(O)cc3)c(Cl)c2)nc2ccccc12 (protonated)
NCCN(CCN)c1[n-]/c(=N/c2ccc([N-]C(=O)c3ccc(O)cc3)c(Cl)c2)nc2ccccc12 (cis-trans isomerization)
NCCN(CCN)c1[n-]/c(=N/c2ccc([N-]C(=O)c3ccc(O)cc3)c(Cl)c2)nc2ccccc12 (3D coordinates assigned)
NCCN(CCN)c1[n-]/c(=N/c2ccc([N-]C(=O)c3ccc(O)cc3)c(Cl)c2)nc2ccccc12 (optimized conformer: 75.43706205573271 kcal/mol)

>  <smiles>  (59) 
NCCN(CCN)c1[nH]c(=Nc2ccc(NC(=O)c3ccc(O)cc3)c(Cl)c2)nc2ccccc12

>  <score_type>  (59) 
oracle

>  <origin>  (59) 
adg

>  <m_score__min__energy>  (59) 
-10.369999999999999

>  <m_primary>  (59) 
energy

$$$$
59:0
     RDKit          3D

 54 56  0  0  0  0  0  0  0  0999 V2000
   59.7020   34.3520   48.4950 C   0  0  0  0  0  0  0  0  0  0  0  0
   59.5530   34.9690   47.1070 C   0  0  0  0  0  0  0  0  0  0  0  0
   59.8990   33.9990   46.0660 N   0  0  0  0  0  0  0  0  0  0  0  0
   59.0510   32.9140   45.6370 C   0  0  0  0  0  0  0  0  0  0  0  0
   58.2320   33.0950   44.5100 C   0  0  0  0  0  0  0  0  0  0  0  0
   57.4080   32.0610   44.0550 C   0  0  0  0  0  0  0  0  0  0  0  0
   57.3980   30.8230   44.7140 C   0  0  0  0  0  0  0  0  0  0  0  0
   56.3780   29.5110   44.1260 S   0  0  0  0  0  0  0  0  0  0  0  0
   57.0070   28.8620   42.9300 O   0  0  0  0  0  0  0  0  0  0  0  0
   55.0570   30.0820   43.7070 O   0  0  0  0  0  0  0  0  0  0  0  0
   56.0950   28.3070   45.3400 N   0  0  0  0  0  0  0  0  0  0  0  0
   56.8820   27.1200   45.4920 C   0  0  0  0  0  0  0  0  0  0  0  0
   58.2350   27.0890   45.1200 C   0  0  0  0  0  0  0  0  0  0  0  0
   58.9830   25.9220   45.2850 C   0  0  0  0  0  0  0  0  0  0  0  0
   58.3850   24.7600   45.8200 C   0  0  0  0  0  0  0  0  0  0  0  0
   59.1100   23.5690   45.9950 O   0  0  0  0  0  0  0  0  0  0  0  0
   59.3870   22.6320   44.9600 C   0  0  0  0  0  0  0  0  0  0  0  0
   57.0280   24.7920   46.1960 C   0  0  0  0  0  0  0  0  0  0  0  0
   56.2500   23.3410   46.8390 S   0  0  0  0  0  0  0  0  0  0  0  0
   57.2900   22.3220   47.2150 O   0  0  0  0  0  0  0  0  0  0  0  0
   55.4890   23.7300   48.0760 O   0  0  0  0  0  0  0  0  0  0  0  0
   55.1490   22.6890   45.6410 N   0  0  0  0  0  0  0  0  0  0  0  0
   55.0880   23.5160   44.4200 C   0  0  0  0  0  0  0  0  0  0  0  0
   56.2300   23.2000   43.4360 C   0  0  0  0  0  0  0  0  0  0  0  0
   56.2880   21.8180   43.1510 O   0  0  0  0  0  0  0  0  0  0  0  0
   56.5620   21.1010   44.3370 C   0  0  0  0  0  0  0  0  0  0  0  0
   55.4160   21.2710   45.3440 C   0  0  0  0  0  0  0  0  0  0  0  0
   56.2900   25.9770   46.0500 C   0  0  0  0  0  0  0  0  0  0  0  0
   58.2150   30.6320   45.8340 C   0  0  0  0  0  0  0  0  0  0  0  0
   59.0360   31.6670   46.2950 C   0  0  0  0  0  0  0  0  0  0  0  0
   59.5164   35.1206   49.2598 H   0  0  0  0  0  0  0  0  0  0  0  0
   58.9754   33.5345   48.6128 H   0  0  0  0  0  0  0  0  0  0  0  0
   60.7215   33.9562   48.6128 H   0  0  0  0  0  0  0  0  0  0  0  0
   58.5111   35.2926   46.9663 H   0  0  0  0  0  0  0  0  0  0  0  0
   60.2352   35.8283   47.0285 H   0  0  0  0  0  0  0  0  0  0  0  0
   60.8320   34.1130   45.6060 H   0  0  0  0  0  0  0  0  0  0  0  0
   58.2390   34.0592   43.9806 H   0  0  0  0  0  0  0  0  0  0  0  0
   56.7650   32.2192   43.1766 H   0  0  0  0  0  0  0  0  0  0  0  0
   58.7077   27.9876   44.6969 H   0  0  0  0  0  0  0  0  0  0  0  0
   60.0444   25.9075   44.9966 H   0  0  0  0  0  0  0  0  0  0  0  0
   59.6722   21.6674   45.4053 H   0  0  0  0  0  0  0  0  0  0  0  0
   58.4902   22.4976   44.3374 H   0  0  0  0  0  0  0  0  0  0  0  0
   60.2128   23.0068   44.3374 H   0  0  0  0  0  0  0  0  0  0  0  0
   54.1275   23.3316   43.9166 H   0  0  0  0  0  0  0  0  0  0  0  0
   55.1900   24.5683   44.7236 H   0  0  0  0  0  0  0  0  0  0  0  0
   56.0612   23.7530   42.5002 H   0  0  0  0  0  0  0  0  0  0  0  0
   57.1820   23.5018   43.8972 H   0  0  0  0  0  0  0  0  0  0  0  0
   56.6774   20.0338   44.0965 H   0  0  0  0  0  0  0  0  0  0  0  0
   57.4887   21.4912   44.7830 H   0  0  0  0  0  0  0  0  0  0  0  0
   54.5051   20.8181   44.9254 H   0  0  0  0  0  0  0  0  0  0  0  0
   55.7110   20.7769   46.2815 H   0  0  0  0  0  0  0  0  0  0  0  0
   55.2398   26.0097   46.3755 H   0  0  0  0  0  0  0  0  0  0  0  0
   58.2117   29.6631   46.3547 H   0  0  0  0  0  0  0  0  0  0  0  0
   59.6740   31.5068   47.1766 H   0  0  0  0  0  0  0  0  0  0  0  0
  1  2  1  0
  2  3  1  0
  3  4  1  0
  4  5  2  0
  5  6  1  0
  6  7  2  0
  7  8  1  0
  8  9  2  0
  8 10  2  0
  8 11  1  0
 11 12  1  0
 12 13  2  0
 13 14  1  0
 14 15  2  0
 15 16  1  0
 16 17  1  0
 15 18  1  0
 18 19  1  0
 19 20  2  0
 19 21  2  0
 19 22  1  0
 22 23  1  0
 23 24  1  0
 24 25  1  0
 25 26  1  0
 26 27  1  0
 18 28  2  0
  7 29  1  0
 29 30  2  0
 30  4  1  0
 28 12  1  0
 27 22  1  0
  1 31  1  0
  1 32  1  0
  1 33  1  0
  2 34  1  0
  2 35  1  0
  3 36  1  0
  5 37  1  0
  6 38  1  0
 13 39  1  0
 14 40  1  0
 17 41  1  0
 17 42  1  0
 17 43  1  0
 23 44  1  0
 23 45  1  0
 24 46  1  0
 24 47  1  0
 26 48  1  0
 26 49  1  0
 27 50  1  0
 27 51  1  0
 28 52  1  0
 29 53  1  0
 30 54  1  0
M  CHG  1  11  -1
M  END
>  <UniqueID>  (60) 
55

>  <SMILES>  (60) 
CCNc1ccc(S(=O)(=O)[N-]c2ccc(OC)c(S(=O)(=O)N3CCOCC3)c2)cc1

>  <Energy>  (60) 
64.13147936544355

>  <Genealogy>  (60) 
CCNc1ccc(S(=O)(=O)[N-]c2ccc(OC)c(S(=O)(=O)N3CCOCC3)c2)cc1 (protonated)
CCNc1ccc(S(=O)(=O)[N-]c2ccc(OC)c(S(=O)(=O)N3CCOCC3)c2)cc1 (3D coordinates assigned)
CCNc1ccc(S(=O)(=O)[N-]c2ccc(OC)c(S(=O)(=O)N3CCOCC3)c2)cc1 (nonaromatic ring conformer: 64.13147936544355 kcal/mol)

>  <smiles>  (60) 
CCNc1ccc(S(=O)(=O)Nc2ccc(OC)c(S(=O)(=O)N3CCOCC3)c2)cc1

>  <score_type>  (60) 
oracle

>  <origin>  (60) 
adg

>  <m_score__min__energy>  (60) 
-10.369999999999999

>  <m_primary>  (60) 
energy

$$$$
60:0
     RDKit          3D

 30 33  0  0  0  0  0  0  0  0999 V2000
   57.0300   26.4950   45.6270 C   0  0  0  0  0  0  0  0  0  0  0  0
   57.3560   27.7890   45.5690 C   0  0  0  0  0  0  0  0  0  0  0  0
   56.8890   28.6810   44.6670 N   0  0  0  0  0  0  0  0  0  0  0  0
   57.4350   29.8630   45.0260 C   0  0  0  0  0  0  0  0  0  0  0  0
   57.2500   31.0950   44.4020 C   0  0  0  0  0  0  0  0  0  0  0  0
   57.9200   32.2170   44.9350 C   0  0  0  0  0  0  0  0  0  0  0  0
   57.7670   33.4800   44.3460 C   0  0  0  0  0  0  0  0  0  0  0  0
   58.4330   34.5890   44.8760 C   0  0  0  0  0  0  0  0  0  0  0  0
   59.2570   34.4490   45.9950 C   0  0  0  0  0  0  0  0  0  0  0  0
   59.4230   33.1990   46.5980 C   0  0  0  0  0  0  0  0  0  0  0  0
   58.7620   32.0740   46.0830 C   0  0  0  0  0  0  0  0  0  0  0  0
   58.9260   30.8100   46.6880 C   0  0  0  0  0  0  0  0  0  0  0  0
   58.2430   29.7280   46.1340 C   0  0  0  0  0  0  0  0  0  0  0  0
   58.2050   28.3930   46.4800 C   0  0  0  0  0  0  0  0  0  0  0  0
   58.8460   27.7360   47.4490 C   0  0  0  0  0  0  0  0  0  0  0  0
   58.7710   26.2250   47.4770 C   0  0  0  0  0  0  0  0  0  0  0  0
   57.4780   25.6750   46.8170 C   0  0  0  0  0  0  0  0  0  0  0  0
   56.4434   26.0315   44.8201 H   0  0  0  0  0  0  0  0  0  0  0  0
   56.2310   28.5030   43.8750 H   0  0  0  0  0  0  0  0  0  0  0  0
   56.6005   31.1904   43.5194 H   0  0  0  0  0  0  0  0  0  0  0  0
   57.1207   33.5988   43.4638 H   0  0  0  0  0  0  0  0  0  0  0  0
   58.3074   35.5771   44.4093 H   0  0  0  0  0  0  0  0  0  0  0  0
   59.7781   35.3272   46.4039 H   0  0  0  0  0  0  0  0  0  0  0  0
   60.0738   33.0972   47.4789 H   0  0  0  0  0  0  0  0  0  0  0  0
   59.5723   30.6822   47.5689 H   0  0  0  0  0  0  0  0  0  0  0  0
   59.4181   28.2828   48.2130 H   0  0  0  0  0  0  0  0  0  0  0  0
   59.6403   25.8198   46.9384 H   0  0  0  0  0  0  0  0  0  0  0  0
   58.7631   25.9131   48.5318 H   0  0  0  0  0  0  0  0  0  0  0  0
   57.6659   24.6442   46.4822 H   0  0  0  0  0  0  0  0  0  0  0  0
   56.6775   25.7212   47.5700 H   0  0  0  0  0  0  0  0  0  0  0  0
  1  2  2  0
  2  3  1  0
  3  4  1  0
  4  5  2  0
  5  6  1  0
  6  7  2  0
  7  8  1  0
  8  9  2  0
  9 10  1  0
 10 11  2  0
 11 12  1  0
 12 13  2  0
 13 14  1  0
 14 15  2  0
 15 16  1  0
 16 17  1  0
 17  1  1  0
 14  2  1  0
 13  4  1  0
 11  6  1  0
  1 18  1  0
  3 19  1  0
  5 20  1  0
  7 21  1  0
  8 22  1  0
  9 23  1  0
 10 24  1  0
 12 25  1  0
 15 26  1  0
 16 27  1  0
 16 28  1  0
 17 29  1  0
 17 30  1  0
M  END
>  <UniqueID>  (61) 
56

>  <SMILES>  (61) 
C1=c2[nH]c3cc4ccccc4cc3c2=CCC1

>  <Energy>  (61) 
76.4485418751492

>  <Genealogy>  (61) 
C1=c2[nH]c3cc4ccccc4cc3c2=CCC1 (3D coordinates assigned)
C1=c2[nH]c3cc4ccccc4cc3c2=CCC1 (nonaromatic ring conformer: 76.4485418751492 kcal/mol)

>  <smiles>  (61) 
C1=c2[nH]c3cc4ccccc4cc3c2=CCC1

>  <score_type>  (61) 
oracle

>  <origin>  (61) 
adg

>  <m_score__min__energy>  (61) 
-7.2400000000000002

>  <m_primary>  (61) 
energy

$$$$
61:0
     RDKit          3D

 50 53  0  0  1  0  0  0  0  0999 V2000
   64.0810   33.4810   48.1920 C   0  0  0  0  0  0  0  0  0  0  0  0
   63.0650   32.3910   48.2630 C   0  0  0  0  0  0  0  0  0  0  0  0
   62.8440   31.6440   49.3980 C   0  0  0  0  0  0  0  0  0  0  0  0
   61.8820   30.6470   49.3880 C   0  0  0  0  0  0  0  0  0  0  0  0
   61.1210   30.3730   48.2500 C   0  0  0  0  0  0  0  0  0  0  0  0
   59.9170   29.1160   48.2980 S   0  0  0  0  0  0  0  0  0  0  0  0
   60.0580   28.3060   49.5580 O   0  0  0  0  0  0  0  0  0  0  0  0
   58.5710   29.7890   48.3150 O   0  0  0  0  0  0  0  0  0  0  0  0
   60.0420   28.1530   46.9020 N   0  0  0  0  0  0  0  0  0  0  0  0
   59.1520   28.1610   45.8050 C   0  0  0  0  0  0  0  0  0  0  0  0
   58.6670   27.1230   45.0520 C   0  0  0  0  0  0  0  0  0  0  0  0
   57.8400   27.5720   44.0880 N   0  0  0  0  0  0  0  0  0  0  0  0
   57.7930   28.8860   44.2180 N   0  0  0  0  0  0  0  0  0  0  0  0
   57.1140   29.8190   43.5020 C   0  0  0  0  0  0  0  0  0  0  0  0
   56.2620   29.3740   42.3780 C   0  0  0  0  0  0  0  0  0  0  0  0
   57.1970   31.1720   43.7960 C   0  0  0  0  0  0  0  0  0  0  0  0
   57.9960   31.5740   44.8460 C   0  0  0  0  0  0  0  0  0  0  0  0
   58.0920   32.8220   45.1330 N   0  0  0  0  0  0  0  0  0  0  0  0
   57.4450   33.4050   46.3020 C   0  0  0  0  0  0  0  0  0  0  0  0
   58.3910   33.5150   47.4420 C   0  0  0  0  0  0  0  0  0  0  0  0
   58.2080   32.7070   48.5530 C   0  0  0  0  0  0  0  0  0  0  0  0
   59.0800   32.8040   49.6080 C   0  0  0  0  0  0  0  0  0  0  0  0
   60.1370   33.6800   49.6060 C   0  0  0  0  0  0  0  0  0  0  0  0
   60.3210   34.4850   48.5030 C   0  0  0  0  0  0  0  0  0  0  0  0
   59.4510   34.3970   47.4330 C   0  0  0  0  0  0  0  0  0  0  0  0
   59.7250   35.4430   46.0460 Cl  0  0  0  0  0  0  0  0  0  0  0  0
   58.6640   30.6110   45.5420 N   0  0  0  0  0  0  0  0  0  0  0  0
   58.5650   29.3020   45.2370 C   0  0  0  0  0  0  0  0  0  0  0  0
   61.3810   31.1490   47.1430 C   0  0  0  0  0  0  0  0  0  0  0  0
   62.3340   32.1500   47.1250 C   0  0  0  0  0  0  0  0  0  0  0  0
   64.3644   33.7850   49.2105 H   0  0  0  0  0  0  0  0  0  0  0  0
   64.9709   33.1185   47.6566 H   0  0  0  0  0  0  0  0  0  0  0  0
   63.6569   34.3433   47.6566 H   0  0  0  0  0  0  0  0  0  0  0  0
   63.4289   31.8379   50.3092 H   0  0  0  0  0  0  0  0  0  0  0  0
   61.7134   30.0560   50.3003 H   0  0  0  0  0  0  0  0  0  0  0  0
   60.8690   27.4800   46.8560 H   0  0  0  0  0  0  0  0  0  0  0  0
   58.9195   26.0646   45.2135 H   0  0  0  0  0  0  0  0  0  0  0  0
   57.3230   27.0160   43.3660 H   0  0  0  0  0  0  0  0  0  0  0  0
   55.3521   28.8988   42.7734 H   0  0  0  0  0  0  0  0  0  0  0  0
   55.9843   30.2422   41.7623 H   0  0  0  0  0  0  0  0  0  0  0  0
   56.8159   28.6500   41.7623 H   0  0  0  0  0  0  0  0  0  0  0  0
   56.6365   31.9100   43.2033 H   0  0  0  0  0  0  0  0  0  0  0  0
   57.0758   34.4086   46.0443 H   0  0  0  0  0  0  0  0  0  0  0  0
   56.6135   32.7504   46.6020 H   0  0  0  0  0  0  0  0  0  0  0  0
   57.3710   31.9941   48.5888 H   0  0  0  0  0  0  0  0  0  0  0  0
   58.9269   32.1580   50.4851 H   0  0  0  0  0  0  0  0  0  0  0  0
   60.8213   33.7379   50.4652 H   0  0  0  0  0  0  0  0  0  0  0  0
   61.1592   35.1967   48.4742 H   0  0  0  0  0  0  0  0  0  0  0  0
   60.8013   30.9631   46.2268 H   0  0  0  0  0  0  0  0  0  0  0  0
   62.5043   32.7437   46.2148 H   0  0  0  0  0  0  0  0  0  0  0  0
  1  2  1  0
  2  3  2  0
  3  4  1  0
  4  5  2  0
  5  6  1  0
  6  7  2  0
  6  8  2  0
  6  9  1  0
  9 10  1  0
 10 11  2  0
 11 12  1  0
 12 13  1  0
 13 14  1  0
 14 15  1  0
 14 16  2  0
 16 17  1  0
 17 18  2  0
 18 19  1  0
 19 20  1  0
 20 21  2  0
 21 22  1  0
 22 23  2  0
 23 24  1  0
 24 25  2  0
 25 26  1  0
 17 27  1  0
 27 28  2  0
  5 29  1  0
 29 30  2  0
 30  2  1  0
 28 10  1  0
 28 13  1  0
 25 20  1  0
  1 31  1  0
  1 32  1  0
  1 33  1  0
  3 34  1  0
  4 35  1  0
  9 36  1  0
 11 37  1  0
 12 38  1  0
 15 39  1  0
 15 40  1  0
 15 41  1  0
 16 42  1  0
 19 43  1  0
 19 44  1  0
 21 45  1  0
 22 46  1  0
 23 47  1  0
 24 48  1  0
 29 49  1  0
 30 50  1  0
M  END
>  <smiles>  (62) 
Cc1ccc(S(=O)(=O)Nc2c[nH]n3c(C)cc(=NCc4ccccc4Cl)nc23)cc1

>  <score_type>  (62) 
oracle

>  <origin>  (62) 
adg

>  <m_score__min__energy>  (62) 
-9.4600000000000009

>  <m_primary>  (62) 
energy

$$$$
62:0
     RDKit          3D

 43 44  0  0  0  0  0  0  0  0999 V2000
   58.3800   27.1890   43.5670 C   0  0  0  0  0  0  0  0  0  0  0  0
   58.0280   27.4700   44.9630 N   0  0  0  0  0  0  0  0  0  0  0  0
   56.7680   28.1730   45.2630 C   0  0  0  0  0  0  0  0  0  0  0  0
   56.9630   29.6600   45.2230 C   0  0  0  0  0  0  0  0  0  0  0  0
   56.1320   30.3810   44.6040 O   0  0  0  0  0  0  0  0  0  0  0  0
   58.0350   30.2590   45.9650 N   0  0  0  0  0  0  0  0  0  0  0  0
   58.3750   31.6510   45.8710 C   0  0  0  0  0  0  0  0  0  0  0  0
   58.3220   32.2880   44.6220 C   0  0  0  0  0  0  0  0  0  0  0  0
   58.6450   33.6430   44.5050 C   0  0  0  0  0  0  0  0  0  0  0  0
   59.0080   34.3770   45.6370 C   0  0  0  0  0  0  0  0  0  0  0  0
   59.3160   35.6920   45.5190 F   0  0  0  0  0  0  0  0  0  0  0  0
   59.0350   33.7590   46.8930 C   0  0  0  0  0  0  0  0  0  0  0  0
   59.3550   34.4830   47.9970 F   0  0  0  0  0  0  0  0  0  0  0  0
   58.7120   32.4030   47.0160 C   0  0  0  0  0  0  0  0  0  0  0  0
   58.6790   31.8390   48.2500 F   0  0  0  0  0  0  0  0  0  0  0  0
   58.9510   27.0780   46.0080 C   0  0  0  0  0  0  0  0  0  0  0  0
   59.1850   27.8710   46.9610 O   0  0  0  0  0  0  0  0  0  0  0  0
   59.6470   25.7400   46.0060 C   0  0  0  0  0  0  0  0  0  0  0  0
   58.7450   24.6890   46.3470 O   0  0  0  0  0  0  0  0  0  0  0  0
   57.9100   23.9880   45.4590 C   0  0  0  0  0  0  0  0  0  0  0  0
   58.4270   23.0000   44.5960 C   0  0  0  0  0  0  0  0  0  0  0  0
   57.5880   22.3080   43.7210 C   0  0  0  0  0  0  0  0  0  0  0  0
   56.2210   22.5740   43.7090 C   0  0  0  0  0  0  0  0  0  0  0  0
   55.6870   23.5370   44.5630 C   0  0  0  0  0  0  0  0  0  0  0  0
   56.5170   24.2650   45.4420 C   0  0  0  0  0  0  0  0  0  0  0  0
   55.8990   25.2960   46.3240 C   0  0  0  0  0  0  0  0  0  0  0  0
   54.7420   26.0240   45.9200 N   0  0  0  0  0  0  0  0  0  0  0  0
   56.3930   25.5320   47.4600 O   0  0  0  0  0  0  0  0  0  0  0  0
   59.2393   26.5030   43.5365 H   0  0  0  0  0  0  0  0  0  0  0  0
   57.5220   26.7247   43.0588 H   0  0  0  0  0  0  0  0  0  0  0  0
   58.6426   28.1286   43.0588 H   0  0  0  0  0  0  0  0  0  0  0  0
   56.0105   27.8888   44.5177 H   0  0  0  0  0  0  0  0  0  0  0  0
   56.4382   27.8884   46.2731 H   0  0  0  0  0  0  0  0  0  0  0  0
   58.5080   29.6860   46.7000 H   0  0  0  0  0  0  0  0  0  0  0  0
   58.0245   31.7178   43.7296 H   0  0  0  0  0  0  0  0  0  0  0  0
   58.6133   34.1321   43.5202 H   0  0  0  0  0  0  0  0  0  0  0  0
   60.0565   25.5501   45.0029 H   0  0  0  0  0  0  0  0  0  0  0  0
   60.4520   25.7650   46.7552 H   0  0  0  0  0  0  0  0  0  0  0  0
   59.5030   22.7721   44.6125 H   0  0  0  0  0  0  0  0  0  0  0  0
   58.0068   21.5521   43.0405 H   0  0  0  0  0  0  0  0  0  0  0  0
   55.5609   22.0223   43.0234 H   0  0  0  0  0  0  0  0  0  0  0  0
   54.6045   23.7322   44.5518 H   0  0  0  0  0  0  0  0  0  0  0  0
   54.7900   26.7230   45.1470 H   0  0  0  0  0  0  0  0  0  0  0  0
  1  2  1  0
  2  3  1  0
  3  4  1  0
  4  5  2  0
  4  6  1  0
  6  7  1  0
  7  8  2  0
  8  9  1  0
  9 10  2  0
 10 11  1  0
 10 12  1  0
 12 13  1  0
 12 14  2  0
 14 15  1  0
  2 16  1  0
 16 17  2  0
 16 18  1  0
 18 19  1  0
 19 20  1  0
 20 21  2  0
 21 22  1  0
 22 23  2  0
 23 24  1  0
 24 25  2  0
 25 26  1  0
 26 27  1  0
 26 28  2  0
 14  7  1  0
 25 20  1  0
  1 29  1  0
  1 30  1  0
  1 31  1  0
  3 32  1  0
  3 33  1  0
  6 34  1  0
  8 35  1  0
  9 36  1  0
 18 37  1  0
 18 38  1  0
 21 39  1  0
 22 40  1  0
 23 41  1  0
 24 42  1  0
 27 43  1  0
M  CHG  1  27  -1
M  END
>  <UniqueID>  (63) 
57

>  <SMILES>  (63) 
CN(CC(=O)Nc1ccc(F)c(F)c1F)C(=O)COc1ccccc1C([NH-])=O

>  <Energy>  (63) 
47.13899296100898

>  <Genealogy>  (63) 
CN(CC(=O)Nc1ccc(F)c(F)c1F)C(=O)COc1ccccc1C([NH-])=O (protonated)
CN(CC(=O)Nc1ccc(F)c(F)c1F)C(=O)COc1ccccc1C([NH-])=O (3D coordinates assigned)
CN(CC(=O)Nc1ccc(F)c(F)c1F)C(=O)COc1ccccc1C([NH-])=O (optimized conformer: 47.13899296100898 kcal/mol)

>  <smiles>  (63) 
CN(CC(=O)Nc1ccc(F)c(F)c1F)C(=O)COc1ccccc1C(N)=O

>  <score_type>  (63) 
oracle

>  <origin>  (63) 
adg

>  <m_score__min__energy>  (63) 
-11.24

>  <m_primary>  (63) 
energy

$$$$
63:0
     RDKit          3D

 65 68  0  0  0  0  0  0  0  0999 V2000
   58.0110   21.7670   44.4200 C   0  0  0  0  0  0  0  0  0  0  0  0
   57.4250   23.2720   45.1630 S   0  0  0  0  0  0  0  0  0  0  0  0
   55.9300   23.3270   45.0340 O   0  0  0  0  0  0  0  0  0  0  0  0
   57.8150   23.2920   46.6150 O   0  0  0  0  0  0  0  0  0  0  0  0
   58.1440   24.6160   44.3350 N   0  0  0  0  0  0  0  0  0  0  0  0
   57.7680   25.9880   44.4930 C   0  0  0  0  0  0  0  0  0  0  0  0
   57.0320   26.4420   45.6000 C   0  0  0  0  0  0  0  0  0  0  0  0
   56.6830   27.7920   45.7080 C   0  0  0  0  0  0  0  0  0  0  0  0
   57.0600   28.7090   44.7190 C   0  0  0  0  0  0  0  0  0  0  0  0
   56.7070   30.0580   44.8980 O   0  0  0  0  0  0  0  0  0  0  0  0
   57.0340   31.1330   44.0170 C   0  0  0  0  0  0  0  0  0  0  0  0
   57.7040   32.2460   44.7740 C   0  0  0  0  0  0  0  0  0  0  0  0
   58.2830   33.3120   44.0760 C   0  0  0  0  0  0  0  0  0  0  0  0
   58.9170   34.3440   44.7670 C   0  0  0  0  0  0  0  0  0  0  0  0
   59.0060   34.3250   46.1630 C   0  0  0  0  0  0  0  0  0  0  0  0
   59.6790   35.3840   46.7780 O   0  0  0  0  0  0  0  0  0  0  0  0
   58.4290   33.2460   46.8840 C   0  0  0  0  0  0  0  0  0  0  0  0
   58.5420   33.0800   48.3820 C   0  0  0  0  0  0  0  0  0  0  0  0
   59.5540   32.0470   48.6860 N   0  0  0  0  0  0  0  0  0  0  0  0
   58.9390   30.7180   48.8880 C   0  0  0  0  0  0  0  0  0  0  0  0
   59.4530   29.7620   47.8460 C   0  0  0  0  0  0  0  0  0  0  0  0
   59.2900   28.3800   48.0300 C   0  0  0  0  0  0  0  0  0  0  0  0
   59.7970   27.4780   47.0910 C   0  0  0  0  0  0  0  0  0  0  0  0
   60.4650   27.9500   45.9580 C   0  0  0  0  0  0  0  0  0  0  0  0
   60.6270   29.3250   45.7650 C   0  0  0  0  0  0  0  0  0  0  0  0
   60.1260   30.2300   46.7060 C   0  0  0  0  0  0  0  0  0  0  0  0
   60.4430   32.4330   49.8050 C   0  0  0  0  0  0  0  0  0  0  0  0
   61.8120   32.7310   49.2590 C   0  0  0  0  0  0  0  0  0  0  0  0
   62.9610   32.3160   49.9540 C   0  0  0  0  0  0  0  0  0  0  0  0
   64.2310   32.5670   49.4270 C   0  0  0  0  0  0  0  0  0  0  0  0
   65.3370   32.1670   50.1010 F   0  0  0  0  0  0  0  0  0  0  0  0
   64.3620   33.2270   48.2020 C   0  0  0  0  0  0  0  0  0  0  0  0
   63.2260   33.6170   47.4910 C   0  0  0  0  0  0  0  0  0  0  0  0
   63.3550   34.2360   46.2910 F   0  0  0  0  0  0  0  0  0  0  0  0
   61.9540   33.3680   48.0140 C   0  0  0  0  0  0  0  0  0  0  0  0
   57.7750   32.2230   46.1730 C   0  0  0  0  0  0  0  0  0  0  0  0
   57.7890   28.2490   43.6050 C   0  0  0  0  0  0  0  0  0  0  0  0
   58.1410   26.9010   43.5010 C   0  0  0  0  0  0  0  0  0  0  0  0
   58.2891   21.0527   45.2089 H   0  0  0  0  0  0  0  0  0  0  0  0
   57.2163   21.3327   43.7957 H   0  0  0  0  0  0  0  0  0  0  0  0
   58.8902   21.9844   43.7957 H   0  0  0  0  0  0  0  0  0  0  0  0
   56.7291   25.7332   46.3847 H   0  0  0  0  0  0  0  0  0  0  0  0
   56.1064   28.1371   46.5789 H   0  0  0  0  0  0  0  0  0  0  0  0
   57.7144   30.7661   43.2344 H   0  0  0  0  0  0  0  0  0  0  0  0
   56.1082   31.5168   43.5635 H   0  0  0  0  0  0  0  0  0  0  0  0
   58.2377   33.3358   42.9772 H   0  0  0  0  0  0  0  0  0  0  0  0
   59.3530   35.1843   44.2069 H   0  0  0  0  0  0  0  0  0  0  0  0
   59.2280   36.1820   47.1990 H   0  0  0  0  0  0  0  0  0  0  0  0
   58.8450   34.0353   48.8354 H   0  0  0  0  0  0  0  0  0  0  0  0
   57.5686   32.7730   48.7923 H   0  0  0  0  0  0  0  0  0  0  0  0
   59.1980   30.3428   49.8891 H   0  0  0  0  0  0  0  0  0  0  0  0
   57.8459   30.8033   48.7990 H   0  0  0  0  0  0  0  0  0  0  0  0
   58.7603   28.0051   48.9182 H   0  0  0  0  0  0  0  0  0  0  0  0
   59.6703   26.3960   47.2437 H   0  0  0  0  0  0  0  0  0  0  0  0
   60.8632   27.2399   45.2183 H   0  0  0  0  0  0  0  0  0  0  0  0
   61.1497   29.6959   44.8710 H   0  0  0  0  0  0  0  0  0  0  0  0
   60.2595   31.3111   46.5528 H   0  0  0  0  0  0  0  0  0  0  0  0
   60.0416   33.3275   50.3038 H   0  0  0  0  0  0  0  0  0  0  0  0
   60.5032   31.6112   50.5337 H   0  0  0  0  0  0  0  0  0  0  0  0
   62.8604   31.7919   50.9159 H   0  0  0  0  0  0  0  0  0  0  0  0
   65.3625   33.4395   47.7973 H   0  0  0  0  0  0  0  0  0  0  0  0
   61.0604   33.6718   47.4490 H   0  0  0  0  0  0  0  0  0  0  0  0
   57.3119   31.3916   46.7246 H   0  0  0  0  0  0  0  0  0  0  0  0
   58.0824   28.9542   42.8134 H   0  0  0  0  0  0  0  0  0  0  0  0
   58.7171   26.5542   42.6305 H   0  0  0  0  0  0  0  0  0  0  0  0
  1  2  1  0
  2  3  2  0
  2  4  2  0
  2  5  1  0
  5  6  1  0
  6  7  2  0
  7  8  1  0
  8  9  2  0
  9 10  1  0
 10 11  1  0
 11 12  1  0
 12 13  2  0
 13 14  1  0
 14 15  2  0
 15 16  1  0
 15 17  1  0
 17 18  1  0
 18 19  1  0
 19 20  1  0
 20 21  1  0
 21 22  2  0
 22 23  1  0
 23 24  2  0
 24 25  1  0
 25 26  2  0
 19 27  1  0
 27 28  1  0
 28 29  2  0
 29 30  1  0
 30 31  1  0
 30 32  2  0
 32 33  1  0
 33 34  1  0
 33 35  2  0
 17 36  2  0
  9 37  1  0
 37 38  2  0
 38  6  1  0
 36 12  1  0
 26 21  1  0
 35 28  1  0
  1 39  1  0
  1 40  1  0
  1 41  1  0
  7 42  1  0
  8 43  1  0
 11 44  1  0
 11 45  1  0
 13 46  1  0
 14 47  1  0
 16 48  1  0
 18 49  1  0
 18 50  1  0
 20 51  1  0
 20 52  1  0
 22 53  1  0
 23 54  1  0
 24 55  1  0
 25 56  1  0
 26 57  1  0
 27 58  1  0
 27 59  1  0
 29 60  1  0
 32 61  1  0
 35 62  1  0
 36 63  1  0
 37 64  1  0
 38 65  1  0
M  CHG  1   5  -1
M  END
>  <UniqueID>  (64) 
58

>  <SMILES>  (64) 
CS(=O)(=O)[N-]c1ccc(OCc2ccc(O)c(CN(Cc3ccccc3)Cc3cc(F)cc(F)c3)c2)cc1

>  <Energy>  (64) 
64.91873594894652

>  <Genealogy>  (64) 
CS(=O)(=O)[N-]c1ccc(OCc2ccc(O)c(CN(Cc3ccccc3)Cc3cc(F)cc(F)c3)c2)cc1 (protonated)
CS(=O)(=O)[N-]c1ccc(OCc2ccc(O)c(CN(Cc3ccccc3)Cc3cc(F)cc(F)c3)c2)cc1 (3D coordinates assigned)
CS(=O)(=O)[N-]c1ccc(OCc2ccc(O)c(CN(Cc3ccccc3)Cc3cc(F)cc(F)c3)c2)cc1 (optimized conformer: 64.91873594894652 kcal/mol)

>  <smiles>  (64) 
CS(=O)(=O)Nc1ccc(OCc2ccc(O)c(CN(Cc3ccccc3)Cc3cc(F)cc(F)c3)c2)cc1

>  <score_type>  (64) 
oracle

>  <origin>  (64) 
adg

>  <m_score__min__energy>  (64) 
-11.69

>  <m_primary>  (64) 
energy

$$$$
64:0
     RDKit          3D

 35 36  0  0  0  0  0  0  0  0999 V2000
   57.0010   22.0180   48.2580 N   0  0  0  0  0  0  0  0  0  0  0  0
   56.9110   22.2530   47.1290 C   0  0  0  0  0  0  0  0  0  0  0  0
   56.8000   22.5460   45.7210 C   0  0  0  0  0  0  0  0  0  0  0  0
   56.9120   21.5000   44.7940 C   0  0  0  0  0  0  0  0  0  0  0  0
   56.8120   21.7600   43.4260 C   0  0  0  0  0  0  0  0  0  0  0  0
   56.5910   23.0630   42.9760 C   0  0  0  0  0  0  0  0  0  0  0  0
   56.4800   24.1130   43.8930 C   0  0  0  0  0  0  0  0  0  0  0  0
   56.6010   23.8660   45.2730 C   0  0  0  0  0  0  0  0  0  0  0  0
   56.4650   24.9240   46.2360 N   0  0  0  0  0  0  0  0  0  0  0  0
   55.8320   26.1930   46.0270 C   0  0  0  0  0  0  0  0  0  0  0  0
   54.5770   26.2920   45.9960 O   0  0  0  0  0  0  0  0  0  0  0  0
   56.6750   27.4070   45.7950 C   0  0  0  0  0  0  0  0  0  0  0  0
   55.8740   28.4940   45.2430 N   0  0  0  0  0  0  0  0  0  0  0  0
   56.3560   29.7890   44.8560 C   0  0  0  0  0  0  0  0  0  0  0  0
   55.5180   30.6700   44.5260 O   0  0  0  0  0  0  0  0  0  0  0  0
   57.8180   30.1470   44.8650 C   0  0  0  0  0  0  0  0  0  0  0  0
   58.0310   31.5730   45.3020 C   0  0  0  0  0  0  0  0  0  0  0  0
   58.4590   31.8640   46.6090 C   0  0  0  0  0  0  0  0  0  0  0  0
   58.6670   33.1890   47.0060 C   0  0  0  0  0  0  0  0  0  0  0  0
   58.4580   34.2320   46.1010 C   0  0  0  0  0  0  0  0  0  0  0  0
   58.0430   33.9530   44.7960 C   0  0  0  0  0  0  0  0  0  0  0  0
   57.8330   32.6290   44.3950 C   0  0  0  0  0  0  0  0  0  0  0  0
   57.0792   20.4713   45.1458 H   0  0  0  0  0  0  0  0  0  0  0  0
   56.9074   20.9374   42.7020 H   0  0  0  0  0  0  0  0  0  0  0  0
   56.5040   23.2641   41.8980 H   0  0  0  0  0  0  0  0  0  0  0  0
   56.2973   25.1366   43.5339 H   0  0  0  0  0  0  0  0  0  0  0  0
   57.1127   27.7306   46.7509 H   0  0  0  0  0  0  0  0  0  0  0  0
   57.4693   27.1537   45.0774 H   0  0  0  0  0  0  0  0  0  0  0  0
   58.3465   29.4770   45.5592 H   0  0  0  0  0  0  0  0  0  0  0  0
   58.2084   30.0357   43.8427 H   0  0  0  0  0  0  0  0  0  0  0  0
   58.6312   31.0454   47.3233 H   0  0  0  0  0  0  0  0  0  0  0  0
   58.9956   33.4098   48.0323 H   0  0  0  0  0  0  0  0  0  0  0  0
   58.6201   35.2735   46.4155 H   0  0  0  0  0  0  0  0  0  0  0  0
   57.8813   34.7751   44.0833 H   0  0  0  0  0  0  0  0  0  0  0  0
   57.5115   32.4133   43.3654 H   0  0  0  0  0  0  0  0  0  0  0  0
  1  2  3  0
  2  3  1  0
  3  4  2  0
  4  5  1  0
  5  6  2  0
  6  7  1  0
  7  8  2  0
  8  9  1  0
  9 10  1  0
 10 11  2  0
 10 12  1  0
 12 13  1  0
 13 14  1  0
 14 15  2  0
 14 16  1  0
 16 17  1  0
 17 18  2  0
 18 19  1  0
 19 20  2  0
 20 21  1  0
 21 22  2  0
  8  3  1  0
 22 17  1  0
  4 23  1  0
  5 24  1  0
  6 25  1  0
  7 26  1  0
 12 27  1  0
 12 28  1  0
 16 29  1  0
 16 30  1  0
 18 31  1  0
 19 32  1  0
 20 33  1  0
 21 34  1  0
 22 35  1  0
M  CHG  2   9  -1  13  -1
M  END
>  <UniqueID>  (65) 
59

>  <SMILES>  (65) 
N#Cc1ccccc1[N-]C(=O)C[N-]C(=O)Cc1ccccc1

>  <Energy>  (65) 
34.23508941729607

>  <Genealogy>  (65) 
N#Cc1ccccc1[N-]C(=O)C[N-]C(=O)Cc1ccccc1 (protonated)
N#Cc1ccccc1[N-]C(=O)C[N-]C(=O)Cc1ccccc1 (3D coordinates assigned)
N#Cc1ccccc1[N-]C(=O)C[N-]C(=O)Cc1ccccc1 (optimized conformer: 34.23508941729607 kcal/mol)

>  <smiles>  (65) 
N#Cc1ccccc1NC(=O)CNC(=O)Cc1ccccc1

>  <score_type>  (65) 
oracle

>  <origin>  (65) 
adg

>  <m_score__min__energy>  (65) 
-11.82

>  <m_primary>  (65) 
energy

$$$$
65:0
     RDKit          3D

 38 41  0  0  0  0  0  0  0  0999 V2000
   56.0260   29.5680   43.7120 N   0  0  0  0  0  0  0  0  0  0  0  0
   56.8520   30.2470   44.4530 C   0  0  0  0  0  0  0  0  0  0  0  0
   56.9430   31.5860   44.2520 N   0  0  0  0  0  0  0  0  0  0  0  0
   57.7560   32.3860   44.9940 C   0  0  0  0  0  0  0  0  0  0  0  0
   57.7450   33.7690   44.7570 C   0  0  0  0  0  0  0  0  0  0  0  0
   58.5580   34.6200   45.4920 C   0  0  0  0  0  0  0  0  0  0  0  0
   59.4350   34.1010   46.4350 C   0  0  0  0  0  0  0  0  0  0  0  0
   59.5000   32.7200   46.6770 C   0  0  0  0  0  0  0  0  0  0  0  0
   60.6190   32.2730   47.5260 C   0  0  0  0  0  0  0  0  0  0  0  0
   61.8620   31.8530   47.0670 C   0  0  0  0  0  0  0  0  0  0  0  0
   62.7740   31.6040   48.0990 C   0  0  0  0  0  0  0  0  0  0  0  0
   62.2650   31.8590   49.3660 C   0  0  0  0  0  0  0  0  0  0  0  0
   60.6820   32.4030   49.2020 S   0  0  0  0  0  0  0  0  0  0  0  0
   58.5970   31.8350   46.0000 C   0  0  0  0  0  0  0  0  0  0  0  0
   58.4660   30.4380   46.2800 C   0  0  0  0  0  0  0  0  0  0  0  0
   59.1060   29.8120   47.4690 C   0  0  0  0  0  0  0  0  0  0  0  0
   58.5120   29.9520   48.7310 C   0  0  0  0  0  0  0  0  0  0  0  0
   59.0880   29.3430   49.8470 C   0  0  0  0  0  0  0  0  0  0  0  0
   60.2480   28.5830   49.6880 C   0  0  0  0  0  0  0  0  0  0  0  0
   60.8040   28.4370   48.4570 N   0  0  0  0  0  0  0  0  0  0  0  0
   60.2660   29.0200   47.3520 C   0  0  0  0  0  0  0  0  0  0  0  0
   60.8230   28.8560   46.2330 O   0  0  0  0  0  0  0  0  0  0  0  0
   57.6040   29.6380   45.4840 C   0  0  0  0  0  0  0  0  0  0  0  0
   57.4600   28.1880   45.7570 C   0  0  0  0  0  0  0  0  0  0  0  0
   56.1850   27.5610   45.6380 N   0  0  0  0  0  0  0  0  0  0  0  0
   58.4680   27.5020   46.0750 O   0  0  0  0  0  0  0  0  0  0  0  0
   55.9280   28.5290   43.7210 H   0  0  0  0  0  0  0  0  0  0  0  0
   56.3500   32.0150   43.5040 H   0  0  0  0  0  0  0  0  0  0  0  0
   57.0850   34.1829   43.9804 H   0  0  0  0  0  0  0  0  0  0  0  0
   58.5077   35.7065   45.3275 H   0  0  0  0  0  0  0  0  0  0  0  0
   60.0882   34.7819   47.0005 H   0  0  0  0  0  0  0  0  0  0  0  0
   62.1042   31.7290   46.0012 H   0  0  0  0  0  0  0  0  0  0  0  0
   63.7973   31.2407   47.9233 H   0  0  0  0  0  0  0  0  0  0  0  0
   62.8053   31.7275   50.3151 H   0  0  0  0  0  0  0  0  0  0  0  0
   57.5907   30.5426   48.8419 H   0  0  0  0  0  0  0  0  0  0  0  0
   58.6326   29.4607   50.8414 H   0  0  0  0  0  0  0  0  0  0  0  0
   60.7128   28.1014   50.5610 H   0  0  0  0  0  0  0  0  0  0  0  0
   55.5140   27.8480   44.8920 H   0  0  0  0  0  0  0  0  0  0  0  0
  1  2  2  3
  2  3  1  0
  3  4  1  0
  4  5  2  0
  5  6  1  0
  6  7  2  0
  7  8  1  0
  8  9  1  0
  9 10  2  0
 10 11  1  0
 11 12  2  0
 12 13  1  0
  8 14  2  0
 14 15  1  0
 15 16  1  0
 16 17  2  0
 17 18  1  0
 18 19  2  0
 19 20  1  0
 20 21  1  0
 21 22  2  0
 15 23  2  0
 23 24  1  0
 24 25  1  0
 24 26  2  0
 23  2  1  0
 14  4  1  0
 21 16  1  0
 13  9  1  0
  1 27  1  0
  3 28  1  0
  5 29  1  0
  6 30  1  0
  7 31  1  0
 10 32  1  0
 11 33  1  0
 12 34  1  0
 17 35  1  0
 18 36  1  0
 19 37  1  0
 25 38  1  0
M  CHG  2  20  -1  25  -1
M  END
>  <UniqueID>  (66) 
60

>  <SMILES>  (66) 
N=c1[nH]c2cccc(-c3cccs3)c2c(-c2ccc[n-]c2=O)c1C([NH-])=O

>  <Energy>  (66) 
105.0667689448984

>  <Genealogy>  (66) 
N=c1[nH]c2cccc(-c3cccs3)c2c(-c2ccc[n-]c2=O)c1C([NH-])=O (protonated)
N=c1[nH]c2cccc(-c3cccs3)c2c(-c2ccc[n-]c2=O)c1C([NH-])=O (3D coordinates assigned)
N=c1[nH]c2cccc(-c3cccs3)c2c(-c2ccc[n-]c2=O)c1C([NH-])=O (optimized conformer: 105.0667689448984 kcal/mol)

>  <smiles>  (66) 
N=c1[nH]c2cccc(-c3cccs3)c2c(-c2ccc[nH]c2=O)c1C(N)=O

>  <score_type>  (66) 
oracle

>  <origin>  (66) 
adg

>  <m_score__min__energy>  (66) 
-10.42

>  <m_primary>  (66) 
energy

$$$$
66:0
     RDKit          3D

 50 54  0  0  0  0  0  0  0  0999 V2000
   62.7957   33.6458   52.0320 H   0  0  0  0  0  0  0  0  0  0  0  0
   62.9840   33.5250   50.9550 C   0  0  0  0  0  0  0  0  0  0  0  0
   64.2390   33.1090   50.5090 C   0  0  0  0  0  0  0  0  0  0  0  0
   65.0406   32.9076   51.2348 H   0  0  0  0  0  0  0  0  0  0  0  0
   64.4790   32.9480   49.1430 C   0  0  0  0  0  0  0  0  0  0  0  0
   65.4692   32.6165   48.7973 H   0  0  0  0  0  0  0  0  0  0  0  0
   63.4630   33.2070   48.2070 C   0  0  0  0  0  0  0  0  0  0  0  0
   63.7300   33.0220   46.7390 C   0  0  0  0  0  0  0  0  0  0  0  0
   64.6274   32.4002   46.6051 H   0  0  0  0  0  0  0  0  0  0  0  0
   62.8674   32.5270   46.2690 H   0  0  0  0  0  0  0  0  0  0  0  0
   63.8905   34.0035   46.2690 H   0  0  0  0  0  0  0  0  0  0  0  0
   62.2030   33.6560   48.6540 C   0  0  0  0  0  0  0  0  0  0  0  0
   55.8850   30.8650   44.1960 N   0  0  0  0  0  0  0  0  0  0  0  0
   56.9910   30.9040   44.8770 C   0  0  0  0  0  0  0  0  0  0  0  0
   60.7160   31.2860   47.1820 S   0  0  0  0  0  0  0  0  0  0  0  0
   59.3220   30.9300   46.3110 C   0  0  0  0  0  0  0  0  0  0  0  0
   58.7930   29.7070   45.8910 C   0  0  0  0  0  0  0  0  0  0  0  0
   59.4170   28.4490   46.2100 N   0  0  0  0  0  0  0  0  0  0  0  0
   58.9390   27.1740   45.8010 C   0  0  0  0  0  0  0  0  0  0  0  0
   58.1110   26.8910   44.7080 C   0  0  0  0  0  0  0  0  0  0  0  0
   57.7339   27.6986   44.0633 H   0  0  0  0  0  0  0  0  0  0  0  0
   57.7730   25.5500   44.4540 C   0  0  0  0  0  0  0  0  0  0  0  0
   57.1157   25.3011   43.6078 H   0  0  0  0  0  0  0  0  0  0  0  0
   58.2730   24.5250   45.2790 C   0  0  0  0  0  0  0  0  0  0  0  0
   57.9995   23.4784   45.0796 H   0  0  0  0  0  0  0  0  0  0  0  0
   59.1200   24.8340   46.3560 C   0  0  0  0  0  0  0  0  0  0  0  0
   59.5219   24.0394   47.0017 H   0  0  0  0  0  0  0  0  0  0  0  0
   59.4400   26.1730   46.5880 C   0  0  0  0  0  0  0  0  0  0  0  0
   60.3270   26.7310   47.6430 C   0  0  0  0  0  0  0  0  0  0  0  0
   61.3415   26.3127   47.5666 H   0  0  0  0  0  0  0  0  0  0  0  0
   59.9850   26.4955   48.6616 H   0  0  0  0  0  0  0  0  0  0  0  0
   60.3290   28.2480   47.3410 C   0  0  0  0  0  0  0  0  0  0  0  0
   61.3431   28.5812   47.0752 H   0  0  0  0  0  0  0  0  0  0  0  0
   60.0082   28.8286   48.2185 H   0  0  0  0  0  0  0  0  0  0  0  0
   57.6280   29.7330   45.1800 N   0  0  0  0  0  0  0  0  0  0  0  0
   60.4260   32.9590   47.1220 C   0  0  0  0  0  0  0  0  0  0  0  0
   61.1500   33.8750   47.7020 N   0  0  0  0  0  0  0  0  0  0  0  0
   55.4610   29.7200   43.3980 C   0  0  0  0  0  0  0  0  0  0  0  0
   55.1574   28.9001   44.0655 H   0  0  0  0  0  0  0  0  0  0  0  0
   54.6107   30.0101   42.7633 H   0  0  0  0  0  0  0  0  0  0  0  0
   56.2952   29.3863   42.7633 H   0  0  0  0  0  0  0  0  0  0  0  0
   57.5160   32.0950   45.2920 N   0  0  0  0  0  0  0  0  0  0  0  0
   58.6750   32.1110   45.9990 C   0  0  0  0  0  0  0  0  0  0  0  0
   59.2840   33.2470   46.4420 N   0  0  0  0  0  0  0  0  0  0  0  0
   58.7300   34.5930   46.2840 C   0  0  0  0  0  0  0  0  0  0  0  0
   58.5487   35.0336   47.2755 H   0  0  0  0  0  0  0  0  0  0  0  0
   59.4431   35.2202   45.7289 H   0  0  0  0  0  0  0  0  0  0  0  0
   57.7820   34.5365   45.7289 H   0  0  0  0  0  0  0  0  0  0  0  0
   61.9670   33.7880   50.0350 C   0  0  0  0  0  0  0  0  0  0  0  0
   60.9746   34.1005   50.3922 H   0  0  0  0  0  0  0  0  0  0  0  0
  1  2  1  0
  2  3  2  0
  3  4  1  0
  3  5  1  0
  5  6  1  0
  5  7  2  0
  7  8  1  0
  8  9  1  0
  8 10  1  0
  8 11  1  0
  7 12  1  0
 12 13  1  0
 13 14  2  0
 14 15  1  0
 15 16  1  0
 16 17  1  0
 17 18  1  0
 18 19  1  0
 19 20  2  0
 20 21  1  0
 20 22  1  0
 22 23  1  0
 22 24  2  0
 24 25  1  0
 24 26  1  0
 26 27  1  0
 26 28  2  0
 28 29  1  0
 29 30  1  0
 29 31  1  0
 29 32  1  0
 32 33  1  0
 32 34  1  0
 17 35  2  0
 35 36  1  0
 36 37  2  0
 37 38  1  0
 38 39  1  0
 38 40  1  0
 38 41  1  0
 36 42  1  0
 42 43  1  0
 43 44  1  0
 44 45  1  0
 45 46  1  0
 45 47  1  0
 45 48  1  0
 12 49  2  0
 49 50  1  0
 49  2  1  0
 44 14  1  0
 43 16  2  0
 32 18  1  0
 28 19  1  0
M  CHG  1  42  -1
M  END
>  <UniqueID>  (67) 
61

>  <SMILES>  (67) 
C/N=c1/nc(N2CCc3ccccc32)c2s/c(=N\c3ccccc3C)n(C)c2[n-]1

>  <Energy>  (67) 
117.8691158347884

>  <Genealogy>  (67) 
CN=c1nc(N2CCc3ccccc32)c2sc(=Nc3ccccc3C)n(C)c2[n-]1 (protonated)
C/N=c1/nc(N2CCc3ccccc32)c2s/c(=N\c3ccccc3C)n(C)c2[n-]1 (cis-trans isomerization)
C/N=c1/nc(N2CCc3ccccc32)c2s/c(=N\c3ccccc3C)n(C)c2[n-]1 (3D coordinates assigned)
C/N=c1/nc(N2CCc3ccccc32)c2s/c(=N\c3ccccc3C)n(C)c2[n-]1 (nonaromatic ring conformer: 117.8691158347884 kcal/mol)

>  <smiles>  (67) 
CN=c1nc(N2CCc3ccccc32)c2sc(=Nc3ccccc3C)n(C)c2[nH]1

>  <score_type>  (67) 
oracle

>  <origin>  (67) 
adg

>  <m_score__min__energy>  (67) 
-9.6600000000000001

>  <m_primary>  (67) 
energy

$$$$
67:0
     RDKit          3D

 34 35  0  0  1  0  0  0  0  0999 V2000
   55.9490   29.9050   44.7400 O   0  0  0  0  0  0  0  0  0  0  0  0
   57.0780   30.2660   44.3070 C   0  0  0  0  0  0  0  0  0  0  0  0
   57.2660   31.6330   43.7550 C   0  0  0  0  0  0  0  0  0  0  0  0
   57.8640   32.5530   44.7590 C   0  0  0  0  0  0  0  0  0  0  0  0
   57.4430   33.8620   44.9220 C   0  0  0  0  0  0  0  0  0  0  0  0
   58.0780   34.6030   45.8840 C   0  0  0  0  0  0  0  0  0  0  0  0
   59.1040   34.0910   46.6790 C   0  0  0  0  0  0  0  0  0  0  0  0
   59.6780   34.9500   47.6320 O   0  0  0  0  0  0  0  0  0  0  0  0
   59.5210   32.7980   46.5180 C   0  0  0  0  0  0  0  0  0  0  0  0
   60.9240   32.1240   47.6150 Br  0  0  0  0  0  0  0  0  0  0  0  0
   58.8900   32.0400   45.5530 C   0  0  0  0  0  0  0  0  0  0  0  0
   58.2160   29.4130   44.3180 N   0  0  0  0  0  0  0  0  0  0  0  0
   58.2160   28.2660   44.9100 C   0  0  0  0  0  0  0  0  0  0  0  0
   59.4280   27.7580   45.2950 C   0  0  0  0  0  0  0  0  0  0  0  0
   59.4110   26.5260   45.9310 C   0  0  0  0  0  0  0  0  0  0  0  0
   58.2210   25.8740   46.1460 C   0  0  0  0  0  0  0  0  0  0  0  0
   56.9910   26.4130   45.7430 C   0  0  0  0  0  0  0  0  0  0  0  0
   55.8000   25.6480   46.0180 C   0  0  0  0  0  0  0  0  0  0  0  0
   54.5460   26.2790   45.8300 O   0  0  0  0  0  0  0  0  0  0  0  0
   55.7270   24.4410   46.4230 N   0  0  0  0  0  0  0  0  0  0  0  0
   54.5710   23.9280   46.8890 O   0  0  0  0  0  0  0  0  0  0  0  0
   57.0570   27.5960   45.1390 N   0  0  0  0  0  0  0  0  0  0  0  0
   57.9323   31.5765   42.8816 H   0  0  0  0  0  0  0  0  0  0  0  0
   56.2790   32.0279   43.4723 H   0  0  0  0  0  0  0  0  0  0  0  0
   56.6359   34.2875   44.3075 H   0  0  0  0  0  0  0  0  0  0  0  0
   57.7654   35.6466   46.0361 H   0  0  0  0  0  0  0  0  0  0  0  0
   59.1460   35.7840   47.8430 H   0  0  0  0  0  0  0  0  0  0  0  0
   59.2064   30.9969   45.4049 H   0  0  0  0  0  0  0  0  0  0  0  0
   60.3672   28.2997   45.1092 H   0  0  0  0  0  0  0  0  0  0  0  0
   60.3542   26.0688   46.2648 H   0  0  0  0  0  0  0  0  0  0  0  0
   58.2336   24.8968   46.6510 H   0  0  0  0  0  0  0  0  0  0  0  0
   53.7340   25.9650   46.3770 H   0  0  0  0  0  0  0  0  0  0  0  0
   53.7450   24.4520   47.1280 H   0  0  0  0  0  0  0  0  0  0  0  0
   56.2010   28.0710   44.8060 H   0  0  0  0  0  0  0  0  0  0  0  0
  1  2  2  0
  2  3  1  0
  3  4  1  0
  4  5  2  0
  5  6  1  0
  6  7  2  0
  7  8  1  0
  7  9  1  0
  9 10  1  0
  9 11  2  0
  2 12  1  0
 12 13  2  0
 13 14  1  0
 14 15  2  0
 15 16  1  0
 16 17  2  0
 17 18  1  0
 18 19  1  0
 18 20  2  0
 20 21  1  0
 17 22  1  0
 11  4  1  0
 22 13  1  0
  3 23  1  0
  3 24  1  0
  5 25  1  0
  6 26  1  0
  8 27  1  0
 11 28  1  0
 14 29  1  0
 15 30  1  0
 16 31  1  0
 19 32  1  0
 21 33  1  0
 22 34  1  0
M  END
>  <smiles>  (68) 
O=C(Cc1ccc(O)c(Br)c1)N=c1cccc(C(O)=NO)[nH]1

>  <score_type>  (68) 
oracle

>  <origin>  (68) 
adg

>  <m_score__min__energy>  (68) 
-9.4900000000000002

>  <m_primary>  (68) 
energy

$$$$
68:0
     RDKit          3D

 50 53  0  0  0  0  0  0  0  0999 V2000
   57.3581   30.4450   43.8216 H   0  0  0  0  0  0  0  0  0  0  0  0
   57.5020   29.4850   44.3390 C   0  0  0  0  0  0  0  0  0  0  0  0
   58.6570   28.8880   44.5380 O   0  0  0  0  0  0  0  0  0  0  0  0
   58.4570   27.7610   45.1890 C   0  0  0  0  0  0  0  0  0  0  0  0
   59.5750   26.8470   45.6000 C   0  0  0  0  0  0  0  0  0  0  0  0
   59.1464   25.9164   46.0003 H   0  0  0  0  0  0  0  0  0  0  0  0
   60.1967   26.6447   44.7154 H   0  0  0  0  0  0  0  0  0  0  0  0
   60.4020   27.4440   46.6000 O   0  0  0  0  0  0  0  0  0  0  0  0
   60.0150   28.4920   47.4500 C   0  0  0  0  0  0  0  0  0  0  0  0
   59.5450   28.2740   48.7590 C   0  0  0  0  0  0  0  0  0  0  0  0
   59.4665   27.2488   49.1499 H   0  0  0  0  0  0  0  0  0  0  0  0
   59.1780   29.3560   49.5630 C   0  0  0  0  0  0  0  0  0  0  0  0
   58.8050   29.1795   50.5827 H   0  0  0  0  0  0  0  0  0  0  0  0
   59.2830   30.6600   49.0770 C   0  0  0  0  0  0  0  0  0  0  0  0
   58.9818   31.5065   49.7116 H   0  0  0  0  0  0  0  0  0  0  0  0
   59.7720   30.8970   47.7800 C   0  0  0  0  0  0  0  0  0  0  0  0
   59.8680   32.2270   47.2410 N   0  0  0  0  0  0  0  0  0  0  0  0
   60.5890   32.8660   47.6470 H   0  0  0  0  0  0  0  0  0  0  0  0
   59.0590   32.7040   46.3390 C   0  0  0  0  0  0  0  0  0  0  0  0
   58.5000   33.9630   46.3770 O   0  0  0  0  0  0  0  0  0  0  0  0
   57.6930   34.1620   45.2230 C   0  0  0  0  0  0  0  0  0  0  0  0
   58.0671   35.0131   44.6350 H   0  0  0  0  0  0  0  0  0  0  0  0
   56.6502   34.3888   45.4899 H   0  0  0  0  0  0  0  0  0  0  0  0
   57.8030   32.8520   44.4070 C   0  0  0  0  0  0  0  0  0  0  0  0
   58.2336   33.0510   43.4146 H   0  0  0  0  0  0  0  0  0  0  0  0
   56.8194   32.3888   44.2395 H   0  0  0  0  0  0  0  0  0  0  0  0
   58.6830   31.9920   45.1810 N   0  0  0  0  0  0  0  0  0  0  0  0
   58.9840   31.0260   44.9230 H   0  0  0  0  0  0  0  0  0  0  0  0
   60.1120   29.8040   46.9690 C   0  0  0  0  0  0  0  0  0  0  0  0
   60.4598   29.9798   45.9404 H   0  0  0  0  0  0  0  0  0  0  0  0
   57.0960   27.5920   45.4170 C   0  0  0  0  0  0  0  0  0  0  0  0
   56.4120   26.5020   46.1280 C   0  0  0  0  0  0  0  0  0  0  0  0
   55.1560   26.4430   46.0900 O   0  0  0  0  0  0  0  0  0  0  0  0
   57.1370   25.4880   46.8350 N   0  0  0  0  0  0  0  0  0  0  0  0
   56.7380   24.0880   46.9380 C   0  0  0  0  0  0  0  0  0  0  0  0
   57.4155   23.5698   47.6327 H   0  0  0  0  0  0  0  0  0  0  0  0
   55.7031   24.0420   47.3078 H   0  0  0  0  0  0  0  0  0  0  0  0
   56.8010   23.4150   45.5920 C   0  0  0  0  0  0  0  0  0  0  0  0
   57.8080   22.4740   45.3220 C   0  0  0  0  0  0  0  0  0  0  0  0
   58.5619   22.2424   46.0888 H   0  0  0  0  0  0  0  0  0  0  0  0
   57.8550   21.8310   44.0820 C   0  0  0  0  0  0  0  0  0  0  0  0
   58.6448   21.0937   43.8757 H   0  0  0  0  0  0  0  0  0  0  0  0
   56.9000   22.1230   43.1030 C   0  0  0  0  0  0  0  0  0  0  0  0
   56.9382   21.6145   42.1284 H   0  0  0  0  0  0  0  0  0  0  0  0
   55.8970   23.0610   43.3630 C   0  0  0  0  0  0  0  0  0  0  0  0
   55.1459   23.2898   42.5926 H   0  0  0  0  0  0  0  0  0  0  0  0
   55.8470   23.7090   44.6010 C   0  0  0  0  0  0  0  0  0  0  0  0
   55.0595   24.4507   44.8005 H   0  0  0  0  0  0  0  0  0  0  0  0
   56.5040   28.7120   44.8840 C   0  0  0  0  0  0  0  0  0  0  0  0
   55.1450   29.0050   44.8810 O   0  0  0  0  0  0  0  0  0  0  0  0
  1  2  1  0
  2  3  1  0
  3  4  1  0
  4  5  1  0
  5  6  1  0
  5  7  1  0
  5  8  1  0
  8  9  1  0
  9 10  2  0
 10 11  1  0
 10 12  1  0
 12 13  1  0
 12 14  2  0
 14 15  1  0
 14 16  1  0
 16 17  1  0
 17 18  1  0
 17 19  2  0
 19 20  1  0
 20 21  1  0
 21 22  1  0
 21 23  1  0
 21 24  1  0
 24 25  1  0
 24 26  1  0
 24 27  1  0
 27 28  1  0
 16 29  2  0
 29 30  1  0
  4 31  2  0
 31 32  1  0
 32 33  2  0
 32 34  1  0
 34 35  1  0
 35 36  1  0
 35 37  1  0
 35 38  1  0
 38 39  2  0
 39 40  1  0
 39 41  1  0
 41 42  1  0
 41 43  2  0
 43 44  1  0
 43 45  1  0
 45 46  1  0
 45 47  2  0
 47 48  1  0
 31 49  1  0
 49 50  1  0
 49  2  2  0
 29  9  1  0
 47 38  1  0
 27 19  1  0
M  CHG  3  17   1  34  -1  50  -1
M  END
>  <UniqueID>  (69) 
62

>  <SMILES>  (69) 
O=C([N-]Cc1ccccc1)c1c([O-])coc1COc1cccc(/[NH+]=C2/NCCO2)c1

>  <Energy>  (69) 
101.91920355482335

>  <Genealogy>  (69) 
O=C([N-]Cc1ccccc1)c1c([O-])coc1COc1cccc([NH+]=C2NCCO2)c1 (protonated)
O=C([N-]Cc1ccccc1)c1c([O-])coc1COc1cccc(/[NH+]=C2/NCCO2)c1 (cis-trans isomerization)
O=C([N-]Cc1ccccc1)c1c([O-])coc1COc1cccc(/[NH+]=C2/NCCO2)c1 (3D coordinates assigned)
O=C([N-]Cc1ccccc1)c1c([O-])coc1COc1cccc(/[NH+]=C2/NCCO2)c1 (nonaromatic ring conformer: 101.91920355482335 kcal/mol)

>  <smiles>  (69) 
O=C(NCc1ccccc1)c1c(O)coc1COc1cccc(N=C2NCCO2)c1

>  <score_type>  (69) 
oracle

>  <origin>  (69) 
adg

>  <m_score__min__energy>  (69) 
-13.09

>  <m_primary>  (69) 
energy

$$$$
69:0
     RDKit          3D

 29 30  0  0  0  0  0  0  0  0999 V2000
   57.7650   26.0320   43.2230 C   0  0  0  0  0  0  0  0  0  0  0  0
   58.0900   27.3170   43.3650 C   0  0  0  0  0  0  0  0  0  0  0  0
   58.4220   27.9320   44.6770 C   0  0  0  0  0  0  0  0  0  0  0  0
   59.5200   27.4500   45.4190 C   0  0  0  0  0  0  0  0  0  0  0  0
   59.8900   28.0520   46.6220 C   0  0  0  0  0  0  0  0  0  0  0  0
   59.1770   29.1470   47.1030 C   0  0  0  0  0  0  0  0  0  0  0  0
   58.0920   29.6450   46.3840 C   0  0  0  0  0  0  0  0  0  0  0  0
   57.7040   29.0600   45.1630 C   0  0  0  0  0  0  0  0  0  0  0  0
   56.5220   29.6140   44.4490 C   0  0  0  0  0  0  0  0  0  0  0  0
   55.3660   29.3520   44.8740 O   0  0  0  0  0  0  0  0  0  0  0  0
   56.6460   30.5720   43.3270 C   0  0  0  0  0  0  0  0  0  0  0  0
   57.4280   31.6630   43.3080 C   0  0  0  0  0  0  0  0  0  0  0  0
   57.6530   32.5720   44.4450 C   0  0  0  0  0  0  0  0  0  0  0  0
   58.5070   33.6580   44.4850 C   0  0  0  0  0  0  0  0  0  0  0  0
   58.3510   34.2100   45.7370 C   0  0  0  0  0  0  0  0  0  0  0  0
   57.4020   33.4410   46.3780 C   0  0  0  0  0  0  0  0  0  0  0  0
   57.0000   32.4790   45.5800 O   0  0  0  0  0  0  0  0  0  0  0  0
   57.5286   25.6314   42.2262 H   0  0  0  0  0  0  0  0  0  0  0  0
   57.7332   25.3723   44.1026 H   0  0  0  0  0  0  0  0  0  0  0  0
   58.1137   27.9531   42.4679 H   0  0  0  0  0  0  0  0  0  0  0  0
   60.0921   26.5883   45.0445 H   0  0  0  0  0  0  0  0  0  0  0  0
   60.7462   27.6610   47.1913 H   0  0  0  0  0  0  0  0  0  0  0  0
   59.4706   29.6197   48.0519 H   0  0  0  0  0  0  0  0  0  0  0  0
   57.5311   30.5065   46.7754 H   0  0  0  0  0  0  0  0  0  0  0  0
   56.0435   30.3719   42.4287 H   0  0  0  0  0  0  0  0  0  0  0  0
   57.9436   31.8976   42.3650 H   0  0  0  0  0  0  0  0  0  0  0  0
   59.1732   34.0087   43.6830 H   0  0  0  0  0  0  0  0  0  0  0  0
   58.8767   35.0866   46.1435 H   0  0  0  0  0  0  0  0  0  0  0  0
   57.0374   33.6083   47.4022 H   0  0  0  0  0  0  0  0  0  0  0  0
  1  2  2  0
  2  3  1  0
  3  4  2  0
  4  5  1  0
  5  6  2  0
  6  7  1  0
  7  8  2  0
  8  9  1  0
  9 10  2  0
  9 11  1  0
 11 12  2  3
 12 13  1  0
 13 14  2  0
 14 15  1  0
 15 16  2  0
 16 17  1  0
  8  3  1  0
 17 13  1  0
  1 18  1  0
  1 19  1  0
  2 20  1  0
  4 21  1  0
  5 22  1  0
  6 23  1  0
  7 24  1  0
 11 25  1  0
 12 26  1  0
 14 27  1  0
 15 28  1  0
 16 29  1  0
M  END
>  <UniqueID>  (70) 
63

>  <SMILES>  (70) 
C=Cc1ccccc1C(=O)C=Cc1ccco1

>  <Energy>  (70) 
69.55038805480612

>  <Genealogy>  (70) 
C=Cc1ccccc1C(=O)C=Cc1ccco1 (3D coordinates assigned)
C=Cc1ccccc1C(=O)C=Cc1ccco1 (optimized conformer: 69.55038805480612 kcal/mol)

>  <smiles>  (70) 
C=Cc1ccccc1C(=O)C=Cc1ccco1

>  <score_type>  (70) 
oracle

>  <origin>  (70) 
adg

>  <m_score__min__energy>  (70) 
-7.2800000000000002

>  <m_primary>  (70) 
energy

$$$$
70:0
     RDKit          3D

 48 51  0  0  0  0  0  0  0  0999 V2000
   56.4480   30.6480   44.6310 O   0  0  0  0  0  0  0  0  0  0  0  0
   56.5700   29.5550   45.2440 C   0  0  0  0  0  0  0  0  0  0  0  0
   55.5390   28.6260   45.2070 O   0  0  0  0  0  0  0  0  0  0  0  0
   57.8070   29.2710   46.0390 C   0  0  0  0  0  0  0  0  0  0  0  0
   59.0710   29.8010   45.3450 C   0  0  0  0  0  0  0  0  0  0  0  0
   60.3170   29.7490   46.2350 C   0  0  0  0  0  0  0  0  0  0  0  0
   60.3260   30.8600   47.1280 O   0  0  0  0  0  0  0  0  0  0  0  0
   61.4690   31.3650   47.7660 C   0  0  0  0  0  0  0  0  0  0  0  0
   62.7120   31.4590   47.1140 C   0  0  0  0  0  0  0  0  0  0  0  0
   63.7890   31.9840   47.7610 N   0  0  0  0  0  0  0  0  0  0  0  0
   63.7040   32.4230   49.0440 C   0  0  0  0  0  0  0  0  0  0  0  0
   62.4960   32.3410   49.7350 C   0  0  0  0  0  0  0  0  0  0  0  0
   61.3650   31.8140   49.0950 C   0  0  0  0  0  0  0  0  0  0  0  0
   60.0810   31.7100   49.8210 C   0  0  0  0  0  0  0  0  0  0  0  0
   59.8500   30.6040   50.5810 N   0  0  0  0  0  0  0  0  0  0  0  0
   58.7160   30.4710   51.3140 C   0  0  0  0  0  0  0  0  0  0  0  0
   58.4850   29.3320   52.0870 C   0  0  0  0  0  0  0  0  0  0  0  0
   57.3110   29.2380   52.8380 C   0  0  0  0  0  0  0  0  0  0  0  0
   56.3850   30.2880   52.8040 C   0  0  0  0  0  0  0  0  0  0  0  0
   56.6270   31.3900   52.0430 N   0  0  0  0  0  0  0  0  0  0  0  0
   57.7620   31.5030   51.3020 C   0  0  0  0  0  0  0  0  0  0  0  0
   57.9790   32.6030   50.5390 N   0  0  0  0  0  0  0  0  0  0  0  0
   59.0990   32.7300   49.7760 C   0  0  0  0  0  0  0  0  0  0  0  0
   59.2390   33.8710   48.9760 O   0  0  0  0  0  0  0  0  0  0  0  0
   58.8710   33.9450   47.6240 C   0  0  0  0  0  0  0  0  0  0  0  0
   57.7580   33.2500   47.1140 C   0  0  0  0  0  0  0  0  0  0  0  0
   57.4380   33.3330   45.7550 C   0  0  0  0  0  0  0  0  0  0  0  0
   58.2150   34.1190   44.9010 C   0  0  0  0  0  0  0  0  0  0  0  0
   59.3080   34.8300   45.4050 C   0  0  0  0  0  0  0  0  0  0  0  0
   59.6310   34.7470   46.7630 C   0  0  0  0  0  0  0  0  0  0  0  0
   57.7144   29.7519   47.0240 H   0  0  0  0  0  0  0  0  0  0  0  0
   57.9051   28.1798   46.1369 H   0  0  0  0  0  0  0  0  0  0  0  0
   59.2574   29.1934   44.4472 H   0  0  0  0  0  0  0  0  0  0  0  0
   58.8895   30.8578   45.0994 H   0  0  0  0  0  0  0  0  0  0  0  0
   60.3108   28.8149   46.8159 H   0  0  0  0  0  0  0  0  0  0  0  0
   61.2150   29.7886   45.6010 H   0  0  0  0  0  0  0  0  0  0  0  0
   62.8144   31.1068   46.0769 H   0  0  0  0  0  0  0  0  0  0  0  0
   64.7020   32.0500   47.2590 H   0  0  0  0  0  0  0  0  0  0  0  0
   64.5912   32.8445   49.5391 H   0  0  0  0  0  0  0  0  0  0  0  0
   62.4303   32.6879   50.7768 H   0  0  0  0  0  0  0  0  0  0  0  0
   59.2214   28.5151   52.1046 H   0  0  0  0  0  0  0  0  0  0  0  0
   57.1153   28.3461   53.4514 H   0  0  0  0  0  0  0  0  0  0  0  0
   55.4591   30.2218   53.3942 H   0  0  0  0  0  0  0  0  0  0  0  0
   57.1378   32.6395   47.7868 H   0  0  0  0  0  0  0  0  0  0  0  0
   56.5742   32.7791   45.3587 H   0  0  0  0  0  0  0  0  0  0  0  0
   57.9667   34.1786   43.8311 H   0  0  0  0  0  0  0  0  0  0  0  0
   59.9143   35.4551   44.7330 H   0  0  0  0  0  0  0  0  0  0  0  0
   60.4867   35.3147   47.1573 H   0  0  0  0  0  0  0  0  0  0  0  0
  1  2  2  0
  2  3  1  0
  2  4  1  0
  4  5  1  0
  5  6  1  0
  6  7  1  0
  7  8  1  0
  8  9  2  0
  9 10  1  0
 10 11  2  0
 11 12  1  0
 12 13  2  0
 13 14  1  0
 14 15  2  0
 15 16  1  0
 16 17  2  0
 17 18  1  0
 18 19  2  0
 19 20  1  0
 20 21  2  0
 21 22  1  0
 22 23  2  0
 23 24  1  0
 24 25  1  0
 25 26  2  0
 26 27  1  0
 27 28  2  0
 28 29  1  0
 29 30  2  0
 13  8  1  0
 23 14  1  0
 30 25  1  0
 21 16  1  0
  4 31  1  0
  4 32  1  0
  5 33  1  0
  5 34  1  0
  6 35  1  0
  6 36  1  0
  9 37  1  0
 10 38  1  0
 11 39  1  0
 12 40  1  0
 17 41  1  0
 18 42  1  0
 19 43  1  0
 26 44  1  0
 27 45  1  0
 28 46  1  0
 29 47  1  0
 30 48  1  0
M  CHG  2   3  -1  10   1
M  END
>  <UniqueID>  (71) 
64

>  <SMILES>  (71) 
O=C([O-])CCCOc1c[nH+]ccc1-c1nc2cccnc2nc1Oc1ccccc1

>  <Energy>  (71) 
62.6894785464822

>  <Genealogy>  (71) 
O=C([O-])CCCOc1c[nH+]ccc1-c1nc2cccnc2nc1Oc1ccccc1 (protonated)
O=C([O-])CCCOc1c[nH+]ccc1-c1nc2cccnc2nc1Oc1ccccc1 (3D coordinates assigned)
O=C([O-])CCCOc1c[nH+]ccc1-c1nc2cccnc2nc1Oc1ccccc1 (optimized conformer: 62.6894785464822 kcal/mol)

>  <smiles>  (71) 
O=C(O)CCCOc1cnccc1-c1nc2cccnc2nc1Oc1ccccc1

>  <score_type>  (71) 
oracle

>  <origin>  (71) 
adg

>  <m_score__min__energy>  (71) 
-9.5800000000000001

>  <m_primary>  (71) 
energy

$$$$
71:0
     RDKit          3D

 29 31  0  0  0  0  0  0  0  0999 V2000
   54.9110   26.3400   46.0280 N   0  0  0  0  0  0  0  0  0  0  0  0
   56.6320   26.1890   46.0160 S   0  0  0  0  0  0  0  0  0  0  0  0
   57.0850   25.4800   47.2610 O   0  0  0  0  0  0  0  0  0  0  0  0
   57.0540   25.3810   44.8210 O   0  0  0  0  0  0  0  0  0  0  0  0
   57.3620   27.7890   45.9430 C   0  0  0  0  0  0  0  0  0  0  0  0
   58.4570   28.1040   46.7790 C   0  0  0  0  0  0  0  0  0  0  0  0
   59.0430   29.3800   46.7400 C   0  0  0  0  0  0  0  0  0  0  0  0
   58.5180   30.3340   45.8660 C   0  0  0  0  0  0  0  0  0  0  0  0
   58.9890   31.6010   45.7260 N   0  0  0  0  0  0  0  0  0  0  0  0
   58.2690   32.2930   44.8030 C   0  0  0  0  0  0  0  0  0  0  0  0
   58.5080   33.5220   44.4490 N   0  0  0  0  0  0  0  0  0  0  0  0
   59.1750   34.5070   45.2480 C   0  0  0  0  0  0  0  0  0  0  0  0
   59.2180   35.6970   44.8410 O   0  0  0  0  0  0  0  0  0  0  0  0
   59.7390   34.1810   46.5710 C   0  0  0  0  0  0  0  0  0  0  0  0
   59.2470   34.5870   47.7980 C   0  0  0  0  0  0  0  0  0  0  0  0
   60.1040   34.0560   48.7360 C   0  0  0  0  0  0  0  0  0  0  0  0
   61.0680   33.3650   48.0280 C   0  0  0  0  0  0  0  0  0  0  0  0
   60.8240   33.4610   46.7410 O   0  0  0  0  0  0  0  0  0  0  0  0
   57.0410   31.3560   44.1130 S   0  0  0  0  0  0  0  0  0  0  0  0
   57.4390   30.0200   45.0530 C   0  0  0  0  0  0  0  0  0  0  0  0
   56.8420   28.7630   45.0700 C   0  0  0  0  0  0  0  0  0  0  0  0
   54.6750   27.0900   46.7160 H   0  0  0  0  0  0  0  0  0  0  0  0
   58.8541   27.3428   47.4667 H   0  0  0  0  0  0  0  0  0  0  0  0
   59.8995   29.6231   47.3860 H   0  0  0  0  0  0  0  0  0  0  0  0
   59.8160   31.9670   46.2470 H   0  0  0  0  0  0  0  0  0  0  0  0
   58.3567   35.2052   47.9856 H   0  0  0  0  0  0  0  0  0  0  0  0
   60.0348   34.1609   49.8288 H   0  0  0  0  0  0  0  0  0  0  0  0
   61.9115   32.8177   48.4741 H   0  0  0  0  0  0  0  0  0  0  0  0
   55.9856   28.5364   44.4179 H   0  0  0  0  0  0  0  0  0  0  0  0
  1  2  1  0
  2  3  2  0
  2  4  2  0
  2  5  1  0
  5  6  2  0
  6  7  1  0
  7  8  2  0
  8  9  1  0
  9 10  1  0
 10 11  2  3
 11 12  1  0
 12 13  2  0
 12 14  1  0
 14 15  2  0
 15 16  1  0
 16 17  2  0
 17 18  1  0
 10 19  1  0
 19 20  1  0
 20 21  2  0
 21  5  1  0
 20  8  1  0
 18 14  1  0
  1 22  1  0
  6 23  1  0
  7 24  1  0
  9 25  1  0
 15 26  1  0
 16 27  1  0
 17 28  1  0
 21 29  1  0
M  CHG  1   1  -1
M  END
>  <UniqueID>  (72) 
65

>  <SMILES>  (72) 
[NH-]S(=O)(=O)c1ccc2[nH]c(=NC(=O)c3ccco3)sc2c1

>  <Energy>  (72) 
98.23809214660201

>  <Genealogy>  (72) 
[NH-]S(=O)(=O)c1ccc2[nH]c(=NC(=O)c3ccco3)sc2c1 (protonated)
[NH-]S(=O)(=O)c1ccc2[nH]c(=NC(=O)c3ccco3)sc2c1 (3D coordinates assigned)
[NH-]S(=O)(=O)c1ccc2[nH]c(=NC(=O)c3ccco3)sc2c1 (optimized conformer: 98.23809214660201 kcal/mol)

>  <smiles>  (72) 
NS(=O)(=O)c1ccc2[nH]c(=NC(=O)c3ccco3)sc2c1

>  <score_type>  (72) 
oracle

>  <origin>  (72) 
adg

>  <m_score__min__energy>  (72) 
-9.8900000000000006

>  <m_primary>  (72) 
energy

$$$$
72:0
     RDKit          3D

 47 49  0  0  0  0  0  0  0  0999 V2000
   59.2880   30.5230   48.1450 C   0  0  0  0  0  0  0  0  0  0  0  0
   58.3760   31.2140   47.2980 O   0  0  0  0  0  0  0  0  0  0  0  0
   58.6940   32.3610   46.5550 C   0  0  0  0  0  0  0  0  0  0  0  0
   59.8570   33.1170   46.8060 C   0  0  0  0  0  0  0  0  0  0  0  0
   60.1340   34.2560   46.0440 C   0  0  0  0  0  0  0  0  0  0  0  0
   59.2600   34.6510   45.0300 C   0  0  0  0  0  0  0  0  0  0  0  0
   58.1080   33.9070   44.7710 C   0  0  0  0  0  0  0  0  0  0  0  0
   57.8240   32.7630   45.5260 C   0  0  0  0  0  0  0  0  0  0  0  0
   56.6610   31.9930   45.2260 N   0  0  0  0  0  0  0  0  0  0  0  0
   56.7210   30.7290   44.0470 S   0  0  0  0  0  0  0  0  0  0  0  0
   55.3360   30.1870   43.8320 O   0  0  0  0  0  0  0  0  0  0  0  0
   57.2320   31.2770   42.7440 O   0  0  0  0  0  0  0  0  0  0  0  0
   57.7770   29.4370   44.6140 C   0  0  0  0  0  0  0  0  0  0  0  0
   59.1600   29.6470   44.6840 C   0  0  0  0  0  0  0  0  0  0  0  0
   59.9950   28.6470   45.1810 C   0  0  0  0  0  0  0  0  0  0  0  0
   59.4560   27.4350   45.6210 C   0  0  0  0  0  0  0  0  0  0  0  0
   58.0680   27.2150   45.5760 C   0  0  0  0  0  0  0  0  0  0  0  0
   57.5050   25.9320   46.0570 C   0  0  0  0  0  0  0  0  0  0  0  0
   58.1870   25.2100   46.8350 O   0  0  0  0  0  0  0  0  0  0  0  0
   56.1890   25.5060   45.6650 N   0  0  0  0  0  0  0  0  0  0  0  0
   55.7010   24.1530   45.9150 C   0  0  0  0  0  0  0  0  0  0  0  0
   56.2810   23.2000   44.9080 C   0  0  0  0  0  0  0  0  0  0  0  0
   55.7750   23.1700   43.5970 C   0  0  0  0  0  0  0  0  0  0  0  0
   56.3280   22.3050   42.6470 C   0  0  0  0  0  0  0  0  0  0  0  0
   57.3910   21.4680   42.9970 C   0  0  0  0  0  0  0  0  0  0  0  0
   57.9050   21.4970   44.2970 C   0  0  0  0  0  0  0  0  0  0  0  0
   57.3550   22.3610   45.2490 C   0  0  0  0  0  0  0  0  0  0  0  0
   57.2350   28.2230   45.0570 C   0  0  0  0  0  0  0  0  0  0  0  0
   59.0311   30.7177   49.1967 H   0  0  0  0  0  0  0  0  0  0  0  0
   59.2264   29.4428   47.9464 H   0  0  0  0  0  0  0  0  0  0  0  0
   60.3112   30.8746   47.9464 H   0  0  0  0  0  0  0  0  0  0  0  0
   60.5489   32.8098   47.6041 H   0  0  0  0  0  0  0  0  0  0  0  0
   61.0430   34.8423   46.2441 H   0  0  0  0  0  0  0  0  0  0  0  0
   59.4794   35.5495   44.4345 H   0  0  0  0  0  0  0  0  0  0  0  0
   57.4211   34.2205   43.9711 H   0  0  0  0  0  0  0  0  0  0  0  0
   59.5881   30.6024   44.3464 H   0  0  0  0  0  0  0  0  0  0  0  0
   61.0815   28.8126   45.2269 H   0  0  0  0  0  0  0  0  0  0  0  0
   60.1219   26.6481   46.0050 H   0  0  0  0  0  0  0  0  0  0  0  0
   55.5330   26.1880   45.2230 H   0  0  0  0  0  0  0  0  0  0  0  0
   55.9995   23.8397   46.9263 H   0  0  0  0  0  0  0  0  0  0  0  0
   54.6044   24.1443   45.8287 H   0  0  0  0  0  0  0  0  0  0  0  0
   54.9405   23.8296   43.3169 H   0  0  0  0  0  0  0  0  0  0  0  0
   55.9258   22.2835   41.6234 H   0  0  0  0  0  0  0  0  0  0  0  0
   57.8234   20.7863   42.2497 H   0  0  0  0  0  0  0  0  0  0  0  0
   58.7430   20.8393   44.5712 H   0  0  0  0  0  0  0  0  0  0  0  0
   57.7651   22.3838   46.2694 H   0  0  0  0  0  0  0  0  0  0  0  0
   56.1492   28.0568   44.9985 H   0  0  0  0  0  0  0  0  0  0  0  0
  1  2  1  0
  2  3  1  0
  3  4  2  0
  4  5  1  0
  5  6  2  0
  6  7  1  0
  7  8  2  0
  8  9  1  0
  9 10  1  0
 10 11  2  0
 10 12  2  0
 10 13  1  0
 13 14  2  0
 14 15  1  0
 15 16  2  0
 16 17  1  0
 17 18  1  0
 18 19  2  0
 18 20  1  0
 20 21  1  0
 21 22  1  0
 22 23  2  0
 23 24  1  0
 24 25  2  0
 25 26  1  0
 26 27  2  0
 17 28  2  0
  8  3  1  0
 28 13  1  0
 27 22  1  0
  1 29  1  0
  1 30  1  0
  1 31  1  0
  4 32  1  0
  5 33  1  0
  6 34  1  0
  7 35  1  0
 14 36  1  0
 15 37  1  0
 16 38  1  0
 20 39  1  0
 21 40  1  0
 21 41  1  0
 23 42  1  0
 24 43  1  0
 25 44  1  0
 26 45  1  0
 27 46  1  0
 28 47  1  0
M  CHG  1   9  -1
M  END
>  <UniqueID>  (73) 
66

>  <SMILES>  (73) 
COc1ccccc1[N-]S(=O)(=O)c1cccc(C(=O)NCc2ccccc2)c1

>  <Energy>  (73) 
56.241361063167254

>  <Genealogy>  (73) 
COc1ccccc1[N-]S(=O)(=O)c1cccc(C(=O)NCc2ccccc2)c1 (protonated)
COc1ccccc1[N-]S(=O)(=O)c1cccc(C(=O)NCc2ccccc2)c1 (3D coordinates assigned)
COc1ccccc1[N-]S(=O)(=O)c1cccc(C(=O)NCc2ccccc2)c1 (optimized conformer: 56.241361063167254 kcal/mol)

>  <smiles>  (73) 
COc1ccccc1NS(=O)(=O)c1cccc(C(=O)NCc2ccccc2)c1

>  <score_type>  (73) 
oracle

>  <origin>  (73) 
adg

>  <m_score__min__energy>  (73) 
-11.27

>  <m_primary>  (73) 
energy

$$$$
73:0
     RDKit          3D

 53 56  0  0  0  0  0  0  0  0999 V2000
   54.7860   29.3350   44.1860 N   0  0  0  0  0  0  0  0  0  0  0  0
   56.1010   29.8160   43.9080 C   0  0  0  0  0  0  0  0  0  0  0  0
   56.3160   30.4130   42.8180 O   0  0  0  0  0  0  0  0  0  0  0  0
   57.1990   29.6210   44.8850 C   0  0  0  0  0  0  0  0  0  0  0  0
   57.8510   30.7300   45.4470 C   0  0  0  0  0  0  0  0  0  0  0  0
   58.8930   30.5550   46.3570 C   0  0  0  0  0  0  0  0  0  0  0  0
   59.3000   29.2660   46.7400 C   0  0  0  0  0  0  0  0  0  0  0  0
   60.3640   29.0710   47.6470 C   0  0  0  0  0  0  0  0  0  0  0  0
   61.0400   30.1810   48.2570 N   0  0  0  0  0  0  0  0  0  0  0  0
   60.8920   30.3940   49.7060 C   0  0  0  0  0  0  0  0  0  0  0  0
   61.6610   31.6330   50.2020 C   0  0  0  0  0  0  0  0  0  0  0  0
   61.1380   32.9810   49.6780 C   0  0  0  0  0  0  0  0  0  0  0  0
   61.7060   33.3950   48.3120 C   0  0  0  0  0  0  0  0  0  0  0  0
   61.4540   32.4100   47.1530 C   0  0  0  0  0  0  0  0  0  0  0  0
   61.9540   30.9780   47.4200 C   0  0  0  0  0  0  0  0  0  0  0  0
   60.7660   27.8120   47.9550 N   0  0  0  0  0  0  0  0  0  0  0  0
   60.1640   26.7120   47.4410 C   0  0  0  0  0  0  0  0  0  0  0  0
   59.0790   26.8360   46.5650 C   0  0  0  0  0  0  0  0  0  0  0  0
   58.4220   25.6000   46.0820 C   0  0  0  0  0  0  0  0  0  0  0  0
   59.1960   24.5130   45.6450 C   0  0  0  0  0  0  0  0  0  0  0  0
   58.5760   23.3410   45.2050 C   0  0  0  0  0  0  0  0  0  0  0  0
   57.1790   23.2390   45.2010 C   0  0  0  0  0  0  0  0  0  0  0  0
   56.4020   21.7550   44.6610 S   0  0  0  0  0  0  0  0  0  0  0  0
   57.3720   20.3990   45.1180 N   0  0  0  0  0  0  0  0  0  0  0  0
   55.0390   21.6360   45.2870 O   0  0  0  0  0  0  0  0  0  0  0  0
   56.2450   21.7790   43.1660 O   0  0  0  0  0  0  0  0  0  0  0  0
   56.4050   24.3150   45.6570 C   0  0  0  0  0  0  0  0  0  0  0  0
   57.0230   25.4880   46.0970 C   0  0  0  0  0  0  0  0  0  0  0  0
   58.6480   28.1330   46.1890 C   0  0  0  0  0  0  0  0  0  0  0  0
   57.6080   28.3290   45.2540 C   0  0  0  0  0  0  0  0  0  0  0  0
   54.3980   29.3630   45.1550 H   0  0  0  0  0  0  0  0  0  0  0  0
   57.5370   31.7464   45.1669 H   0  0  0  0  0  0  0  0  0  0  0  0
   59.4012   31.4346   46.7790 H   0  0  0  0  0  0  0  0  0  0  0  0
   59.8244   30.5261   49.9358 H   0  0  0  0  0  0  0  0  0  0  0  0
   61.3101   29.5144   50.2174 H   0  0  0  0  0  0  0  0  0  0  0  0
   61.6062   31.6504   51.3005 H   0  0  0  0  0  0  0  0  0  0  0  0
   62.6856   31.5317   49.8149 H   0  0  0  0  0  0  0  0  0  0  0  0
   60.0436   32.9144   49.5895 H   0  0  0  0  0  0  0  0  0  0  0  0
   61.4645   33.7456   50.3983 H   0  0  0  0  0  0  0  0  0  0  0  0
   61.2557   34.3605   48.0381 H   0  0  0  0  0  0  0  0  0  0  0  0
   62.7978   33.4305   48.4413 H   0  0  0  0  0  0  0  0  0  0  0  0
   60.3709   32.3677   46.9659 H   0  0  0  0  0  0  0  0  0  0  0  0
   62.0219   32.7867   46.2895 H   0  0  0  0  0  0  0  0  0  0  0  0
   62.0762   30.4664   46.4539 H   0  0  0  0  0  0  0  0  0  0  0  0
   62.9026   31.0646   47.9701 H   0  0  0  0  0  0  0  0  0  0  0  0
   60.5315   25.7120   47.7148 H   0  0  0  0  0  0  0  0  0  0  0  0
   60.2937   24.5845   45.6491 H   0  0  0  0  0  0  0  0  0  0  0  0
   59.1877   22.4943   44.8601 H   0  0  0  0  0  0  0  0  0  0  0  0
   58.3620   20.6410   44.8880 H   0  0  0  0  0  0  0  0  0  0  0  0
   57.1020   19.6060   44.4950 H   0  0  0  0  0  0  0  0  0  0  0  0
   55.3079   24.2355   45.6684 H   0  0  0  0  0  0  0  0  0  0  0  0
   56.4104   26.3278   46.4569 H   0  0  0  0  0  0  0  0  0  0  0  0
   57.1102   27.4556   44.8075 H   0  0  0  0  0  0  0  0  0  0  0  0
  1  2  1  0
  2  3  2  0
  2  4  1  0
  4  5  2  0
  5  6  1  0
  6  7  2  0
  7  8  1  0
  8  9  1  0
  9 10  1  0
 10 11  1  0
 11 12  1  0
 12 13  1  0
 13 14  1  0
 14 15  1  0
  8 16  2  0
 16 17  1  0
 17 18  2  0
 18 19  1  0
 19 20  2  0
 20 21  1  0
 21 22  2  0
 22 23  1  0
 23 24  1  0
 23 25  2  0
 23 26  2  0
 22 27  1  0
 27 28  2  0
 18 29  1  0
 29 30  2  0
 30  4  1  0
 29  7  1  0
 15  9  1  0
 28 19  1  0
  1 31  1  0
  5 32  1  0
  6 33  1  0
 10 34  1  0
 10 35  1  0
 11 36  1  0
 11 37  1  0
 12 38  1  0
 12 39  1  0
 13 40  1  0
 13 41  1  0
 14 42  1  0
 14 43  1  0
 15 44  1  0
 15 45  1  0
 17 46  1  0
 20 47  1  0
 21 48  1  0
 24 49  1  0
 24 50  1  0
 27 51  1  0
 28 52  1  0
 30 53  1  0
M  CHG  1   1  -1
M  END
>  <UniqueID>  (74) 
67

>  <SMILES>  (74) 
[NH-]C(=O)c1ccc2c(N3CCCCCC3)ncc(-c3ccc(S(N)(=O)=O)cc3)c2c1

>  <Energy>  (74) 
78.29418416848435

>  <Genealogy>  (74) 
[NH-]C(=O)c1ccc2c(N3CCCCCC3)ncc(-c3ccc(S(N)(=O)=O)cc3)c2c1 (protonated)
[NH-]C(=O)c1ccc2c(N3CCCCCC3)ncc(-c3ccc(S(N)(=O)=O)cc3)c2c1 (3D coordinates assigned)
[NH-]C(=O)c1ccc2c(N3CCCCCC3)ncc(-c3ccc(S(N)(=O)=O)cc3)c2c1 (nonaromatic ring conformer: 78.29418416848435 kcal/mol)

>  <smiles>  (74) 
NC(=O)c1ccc2c(N3CCCCCC3)ncc(-c3ccc(S(N)(=O)=O)cc3)c2c1

>  <score_type>  (74) 
oracle

>  <origin>  (74) 
adg

>  <m_score__min__energy>  (74) 
-10.68

>  <m_primary>  (74) 
energy

$$$$
74:0
     RDKit          3D

 55 56  0  0  0  0  0  0  0  0999 V2000
   59.4340   30.9440   51.7500 C   0  0  0  0  0  0  0  0  0  0  0  0
   58.4750   30.8700   50.6000 C   0  0  0  0  0  0  0  0  0  0  0  0
   58.1690   29.7420   50.1340 O   0  0  0  0  0  0  0  0  0  0  0  0
   57.9350   32.0460   49.9830 N   0  0  0  0  0  0  0  0  0  0  0  0
   58.5130   32.7820   48.8960 C   0  0  0  0  0  0  0  0  0  0  0  0
   59.6610   33.5750   49.0710 C   0  0  0  0  0  0  0  0  0  0  0  0
   60.1820   34.3030   47.9970 C   0  0  0  0  0  0  0  0  0  0  0  0
   59.5550   34.2610   46.7510 C   0  0  0  0  0  0  0  0  0  0  0  0
   58.3930   33.4980   46.5720 C   0  0  0  0  0  0  0  0  0  0  0  0
   57.5870   33.4330   45.0070 S   0  0  0  0  0  0  0  0  0  0  0  0
   58.5990   33.4720   43.8950 O   0  0  0  0  0  0  0  0  0  0  0  0
   56.6810   34.6250   44.8770 O   0  0  0  0  0  0  0  0  0  0  0  0
   56.6440   31.9810   44.8740 N   0  0  0  0  0  0  0  0  0  0  0  0
   57.4900   30.8810   44.4190 C   0  0  0  0  0  0  0  0  0  0  0  0
   57.2880   29.7040   45.3130 C   0  0  0  0  0  0  0  0  0  0  0  0
   57.6330   29.7680   46.5250 O   0  0  0  0  0  0  0  0  0  0  0  0
   56.7170   28.5360   44.7920 O   0  0  0  0  0  0  0  0  0  0  0  0
   57.4000   27.2840   44.7530 C   0  0  0  0  0  0  0  0  0  0  0  0
   57.0640   26.4450   45.9600 C   0  0  0  0  0  0  0  0  0  0  0  0
   55.8690   26.4270   46.3650 O   0  0  0  0  0  0  0  0  0  0  0  0
   58.0510   25.6170   46.6190 N   0  0  0  0  0  0  0  0  0  0  0  0
   58.3820   24.3150   46.0260 C   0  0  0  0  0  0  0  0  0  0  0  0
   58.7310   26.0470   47.8510 C   0  0  0  0  0  0  0  0  0  0  0  0
   59.7140   27.1410   47.5600 C   0  0  0  0  0  0  0  0  0  0  0  0
   60.7570   26.8750   46.9030 O   0  0  0  0  0  0  0  0  0  0  0  0
   59.4340   28.4870   47.9750 N   0  0  0  0  0  0  0  0  0  0  0  0
   60.4000   29.5520   47.9680 C   0  0  0  0  0  0  0  0  0  0  0  0
   60.5530   30.3340   46.8120 C   0  0  0  0  0  0  0  0  0  0  0  0
   61.4770   31.3830   46.7840 C   0  0  0  0  0  0  0  0  0  0  0  0
   62.2450   31.6720   47.9170 C   0  0  0  0  0  0  0  0  0  0  0  0
   63.4010   32.9910   47.8810 Cl  0  0  0  0  0  0  0  0  0  0  0  0
   62.0800   30.9170   49.0820 C   0  0  0  0  0  0  0  0  0  0  0  0
   61.1590   29.8650   49.1130 C   0  0  0  0  0  0  0  0  0  0  0  0
   57.8710   32.7690   47.6510 C   0  0  0  0  0  0  0  0  0  0  0  0
   58.8754   30.9009   52.6966 H   0  0  0  0  0  0  0  0  0  0  0  0
   60.1342   30.0972   51.6986 H   0  0  0  0  0  0  0  0  0  0  0  0
   59.9960   31.8882   51.6986 H   0  0  0  0  0  0  0  0  0  0  0  0
   60.1502   33.6227   50.0551 H   0  0  0  0  0  0  0  0  0  0  0  0
   61.0886   34.9105   48.1346 H   0  0  0  0  0  0  0  0  0  0  0  0
   59.9740   34.8284   45.9069 H   0  0  0  0  0  0  0  0  0  0  0  0
   57.2187   30.6105   43.3879 H   0  0  0  0  0  0  0  0  0  0  0  0
   58.5453   31.1902   44.4481 H   0  0  0  0  0  0  0  0  0  0  0  0
   57.1029   26.7408   43.8438 H   0  0  0  0  0  0  0  0  0  0  0  0
   58.4830   27.4765   44.7516 H   0  0  0  0  0  0  0  0  0  0  0  0
   58.5678   23.5840   46.8267 H   0  0  0  0  0  0  0  0  0  0  0  0
   57.5426   23.9716   45.4035 H   0  0  0  0  0  0  0  0  0  0  0  0
   59.2835   24.4141   45.4035 H   0  0  0  0  0  0  0  0  0  0  0  0
   57.9818   26.4159   48.5670 H   0  0  0  0  0  0  0  0  0  0  0  0
   59.2729   25.1882   48.2739 H   0  0  0  0  0  0  0  0  0  0  0  0
   58.4460   28.7220   48.2260 H   0  0  0  0  0  0  0  0  0  0  0  0
   59.9420   30.1200   45.9227 H   0  0  0  0  0  0  0  0  0  0  0  0
   61.6002   31.9820   45.8696 H   0  0  0  0  0  0  0  0  0  0  0  0
   62.6760   31.1510   49.9764 H   0  0  0  0  0  0  0  0  0  0  0  0
   61.0267   29.2797   50.0349 H   0  0  0  0  0  0  0  0  0  0  0  0
   56.9500   32.1824   47.5183 H   0  0  0  0  0  0  0  0  0  0  0  0
  1  2  1  0
  2  3  2  0
  2  4  1  0
  4  5  1  0
  5  6  2  0
  6  7  1  0
  7  8  2  0
  8  9  1  0
  9 10  1  0
 10 11  2  0
 10 12  2  0
 10 13  1  0
 13 14  1  0
 14 15  1  0
 15 16  2  0
 15 17  1  0
 17 18  1  0
 18 19  1  0
 19 20  2  0
 19 21  1  0
 21 22  1  0
 21 23  1  0
 23 24  1  0
 24 25  2  0
 24 26  1  0
 26 27  1  0
 27 28  2  0
 28 29  1  0
 29 30  2  0
 30 31  1  0
 30 32  1  0
 32 33  2  0
  9 34  2  0
 34  5  1  0
 33 27  1  0
  1 35  1  0
  1 36  1  0
  1 37  1  0
  6 38  1  0
  7 39  1  0
  8 40  1  0
 14 41  1  0
 14 42  1  0
 18 43  1  0
 18 44  1  0
 22 45  1  0
 22 46  1  0
 22 47  1  0
 23 48  1  0
 23 49  1  0
 26 50  1  0
 28 51  1  0
 29 52  1  0
 32 53  1  0
 33 54  1  0
 34 55  1  0
M  CHG  2   4  -1  13  -1
M  END
>  <UniqueID>  (75) 
68

>  <SMILES>  (75) 
CC(=O)[N-]c1cccc(S(=O)(=O)[N-]CC(=O)OCC(=O)N(C)CC(=O)Nc2ccc(Cl)cc2)c1

>  <Energy>  (75) 
53.56243363095501

>  <Genealogy>  (75) 
CC(=O)[N-]c1cccc(S(=O)(=O)[N-]CC(=O)OCC(=O)N(C)CC(=O)Nc2ccc(Cl)cc2)c1 (protonated)
CC(=O)[N-]c1cccc(S(=O)(=O)[N-]CC(=O)OCC(=O)N(C)CC(=O)Nc2ccc(Cl)cc2)c1 (3D coordinates assigned)
CC(=O)[N-]c1cccc(S(=O)(=O)[N-]CC(=O)OCC(=O)N(C)CC(=O)Nc2ccc(Cl)cc2)c1 (optimized conformer: 53.56243363095501 kcal/mol)

>  <smiles>  (75) 
CC(=O)Nc1cccc(S(=O)(=O)NCC(=O)OCC(=O)N(C)CC(=O)Nc2ccc(Cl)cc2)c1

>  <score_type>  (75) 
oracle

>  <origin>  (75) 
adg

>  <m_score__min__energy>  (75) 
-10.99

>  <m_primary>  (75) 
energy

$$$$
75:0
     RDKit          3D

 34 36  0  0  0  0  0  0  0  0999 V2000
   57.2920   32.5600   51.7180 O   0  0  0  0  0  0  0  0  0  0  0  0
   57.7770   31.4550   51.3530 C   0  0  0  0  0  0  0  0  0  0  0  0
   57.6100   30.2550   52.2350 C   0  0  0  0  0  0  0  0  0  0  0  0
   56.1900   30.1690   52.7270 C   0  0  0  0  0  0  0  0  0  0  0  0
   55.8980   29.5220   53.9380 C   0  0  0  0  0  0  0  0  0  0  0  0
   54.5760   29.4140   54.3750 C   0  0  0  0  0  0  0  0  0  0  0  0
   53.5350   29.9410   53.6070 C   0  0  0  0  0  0  0  0  0  0  0  0
   53.8100   30.5800   52.3860 C   0  0  0  0  0  0  0  0  0  0  0  0
   52.7140   31.1310   51.5640 C   0  0  0  0  0  0  0  0  0  0  0  0
   51.9060   32.1420   51.9450 N   0  0  0  0  0  0  0  0  0  0  0  0
   51.0610   32.3430   50.9460 N   0  0  0  0  0  0  0  0  0  0  0  0
   51.3880   31.4480   49.9980 C   0  0  0  0  0  0  0  0  0  0  0  0
   50.6160   31.3130   48.5660 S   0  0  0  0  0  0  0  0  0  0  0  0
   52.3980   30.7000   50.3640 O   0  0  0  0  0  0  0  0  0  0  0  0
   55.1400   30.6870   51.9500 C   0  0  0  0  0  0  0  0  0  0  0  0
   58.4030   31.3180   50.0680 N   0  0  0  0  0  0  0  0  0  0  0  0
   58.7410   32.4250   49.2140 C   0  0  0  0  0  0  0  0  0  0  0  0
   59.6290   33.4060   49.6800 C   0  0  0  0  0  0  0  0  0  0  0  0
   59.9590   34.5020   48.8780 C   0  0  0  0  0  0  0  0  0  0  0  0
   59.3920   34.6350   47.6070 C   0  0  0  0  0  0  0  0  0  0  0  0
   58.4870   33.6770   47.1420 C   0  0  0  0  0  0  0  0  0  0  0  0
   57.7570   33.8590   45.5570 Cl  0  0  0  0  0  0  0  0  0  0  0  0
   58.1560   32.5780   47.9430 C   0  0  0  0  0  0  0  0  0  0  0  0
   57.8529   29.3469   51.6638 H   0  0  0  0  0  0  0  0  0  0  0  0
   58.2856   30.3456   53.0984 H   0  0  0  0  0  0  0  0  0  0  0  0
   56.7125   29.0990   54.5443 H   0  0  0  0  0  0  0  0  0  0  0  0
   54.3535   28.9118   55.3280 H   0  0  0  0  0  0  0  0  0  0  0  0
   52.4964   29.8555   53.9592 H   0  0  0  0  0  0  0  0  0  0  0  0
   55.3621   31.1804   50.9923 H   0  0  0  0  0  0  0  0  0  0  0  0
   58.5370   30.3520   49.6920 H   0  0  0  0  0  0  0  0  0  0  0  0
   60.0687   33.3119   50.6839 H   0  0  0  0  0  0  0  0  0  0  0  0
   60.6652   35.2604   49.2470 H   0  0  0  0  0  0  0  0  0  0  0  0
   59.6582   35.4936   46.9730 H   0  0  0  0  0  0  0  0  0  0  0  0
   57.4359   31.8310   47.5778 H   0  0  0  0  0  0  0  0  0  0  0  0
  1  2  2  0
  2  3  1  0
  3  4  1  0
  4  5  2  0
  5  6  1  0
  6  7  2  0
  7  8  1  0
  8  9  1  0
  9 10  2  0
 10 11  1  0
 11 12  1  0
 12 13  2  0
 12 14  1  0
  8 15  2  0
  2 16  1  0
 16 17  1  0
 17 18  2  0
 18 19  1  0
 19 20  2  0
 20 21  1  0
 21 22  1  0
 21 23  2  0
 15  4  1  0
 23 17  1  0
 14  9  1  0
  3 24  1  0
  3 25  1  0
  5 26  1  0
  6 27  1  0
  7 28  1  0
 15 29  1  0
 16 30  1  0
 18 31  1  0
 19 32  1  0
 20 33  1  0
 23 34  1  0
M  CHG  1  11  -1
M  END
>  <UniqueID>  (76) 
69

>  <SMILES>  (76) 
O=C(Cc1cccc(-c2n[n-]c(=S)o2)c1)Nc1cccc(Cl)c1

>  <Energy>  (76) 
72.72513693457091

>  <Genealogy>  (76) 
O=C(Cc1cccc(-c2n[n-]c(=S)o2)c1)Nc1cccc(Cl)c1 (protonated)
O=C(Cc1cccc(-c2n[n-]c(=S)o2)c1)Nc1cccc(Cl)c1 (3D coordinates assigned)
O=C(Cc1cccc(-c2n[n-]c(=S)o2)c1)Nc1cccc(Cl)c1 (optimized conformer: 72.72513693457091 kcal/mol)

>  <smiles>  (76) 
O=C(Cc1cccc(-c2n[nH]c(=S)o2)c1)Nc1cccc(Cl)c1

>  <score_type>  (76) 
oracle

>  <origin>  (76) 
adg

>  <m_score__min__energy>  (76) 
-10.130000000000001

>  <m_primary>  (76) 
energy

$$$$
76:0
     RDKit          3D

 52 55  0  0  0  0  0  0  0  0999 V2000
   60.0250   22.3640   44.8300 C   0  0  0  0  0  0  0  0  0  0  0  0
   58.5510   22.1490   44.9630 C   0  0  0  0  0  0  0  0  0  0  0  0
   57.9800   20.9300   45.0310 N   0  0  0  0  0  0  0  0  0  0  0  0
   56.6750   21.0840   45.1760 N   0  0  0  0  0  0  0  0  0  0  0  0
   55.7170   19.9860   45.2140 C   0  0  0  0  0  0  0  0  0  0  0  0
   56.3740   22.3960   45.1790 C   0  0  0  0  0  0  0  0  0  0  0  0
   57.5510   23.1160   45.0390 C   0  0  0  0  0  0  0  0  0  0  0  0
   57.6710   24.5910   44.9940 C   0  0  0  0  0  0  0  0  0  0  0  0
   57.6640   25.2610   43.7630 C   0  0  0  0  0  0  0  0  0  0  0  0
   57.7860   26.6510   43.7170 C   0  0  0  0  0  0  0  0  0  0  0  0
   57.9280   27.3780   44.9110 C   0  0  0  0  0  0  0  0  0  0  0  0
   58.0590   28.8190   44.9070 N   0  0  0  0  0  0  0  0  0  0  0  0
   56.8580   29.6730   44.8760 C   0  0  0  0  0  0  0  0  0  0  0  0
   57.2050   31.1220   44.5270 C   0  0  0  0  0  0  0  0  0  0  0  0
   58.3120   31.5840   45.3690 N   0  0  0  0  0  0  0  0  0  0  0  0
   58.1810   32.7980   46.1320 C   0  0  0  0  0  0  0  0  0  0  0  0
   57.0830   33.0710   46.6860 O   0  0  0  0  0  0  0  0  0  0  0  0
   59.2930   33.6800   46.3290 N   0  0  0  0  0  0  0  0  0  0  0  0
   60.5020   33.3580   47.0290 C   0  0  0  0  0  0  0  0  0  0  0  0
   61.7680   33.6450   46.4880 C   0  0  0  0  0  0  0  0  0  0  0  0
   62.9270   33.3310   47.2040 C   0  0  0  0  0  0  0  0  0  0  0  0
   62.8320   32.7450   48.4710 C   0  0  0  0  0  0  0  0  0  0  0  0
   64.2860   32.3520   49.3680 Cl  0  0  0  0  0  0  0  0  0  0  0  0
   61.5750   32.4800   49.0230 C   0  0  0  0  0  0  0  0  0  0  0  0
   60.4150   32.7920   48.3070 C   0  0  0  0  0  0  0  0  0  0  0  0
   59.4910   30.7280   45.5630 C   0  0  0  0  0  0  0  0  0  0  0  0
   59.3920   29.4280   44.7540 C   0  0  0  0  0  0  0  0  0  0  0  0
   57.9480   26.7000   46.0940 N   0  0  0  0  0  0  0  0  0  0  0  0
   57.8270   25.3490   46.1630 C   0  0  0  0  0  0  0  0  0  0  0  0
   60.4777   22.4300   45.8304 H   0  0  0  0  0  0  0  0  0  0  0  0
   60.4704   21.5213   44.2809 H   0  0  0  0  0  0  0  0  0  0  0  0
   60.2111   23.2988   44.2809 H   0  0  0  0  0  0  0  0  0  0  0  0
   58.4730   20.0100   44.9800 H   0  0  0  0  0  0  0  0  0  0  0  0
   55.4938   19.7302   46.2603 H   0  0  0  0  0  0  0  0  0  0  0  0
   54.7904   20.2901   44.7052 H   0  0  0  0  0  0  0  0  0  0  0  0
   56.1439   19.1091   44.7052 H   0  0  0  0  0  0  0  0  0  0  0  0
   55.3655   22.8244   45.2760 H   0  0  0  0  0  0  0  0  0  0  0  0
   57.5619   24.6891   42.8289 H   0  0  0  0  0  0  0  0  0  0  0  0
   57.7710   27.1749   42.7499 H   0  0  0  0  0  0  0  0  0  0  0  0
   56.1609   29.2812   44.1207 H   0  0  0  0  0  0  0  0  0  0  0  0
   56.4014   29.6604   45.8767 H   0  0  0  0  0  0  0  0  0  0  0  0
   57.5010   31.1820   43.4693 H   0  0  0  0  0  0  0  0  0  0  0  0
   56.3252   31.7585   44.7024 H   0  0  0  0  0  0  0  0  0  0  0  0
   61.8466   34.1182   45.4981 H   0  0  0  0  0  0  0  0  0  0  0  0
   63.9151   33.5450   46.7706 H   0  0  0  0  0  0  0  0  0  0  0  0
   61.4984   32.0255   50.0218 H   0  0  0  0  0  0  0  0  0  0  0  0
   59.4284   32.5917   48.7502 H   0  0  0  0  0  0  0  0  0  0  0  0
   60.3875   31.2791   45.2426 H   0  0  0  0  0  0  0  0  0  0  0  0
   59.5490   30.4632   46.6291 H   0  0  0  0  0  0  0  0  0  0  0  0
   59.5676   29.6500   43.6910 H   0  0  0  0  0  0  0  0  0  0  0  0
   60.1483   28.7214   45.1266 H   0  0  0  0  0  0  0  0  0  0  0  0
   57.8515   24.8468   47.1414 H   0  0  0  0  0  0  0  0  0  0  0  0
  1  2  1  0
  2  3  2  0
  3  4  1  0
  4  5  1  0
  4  6  1  0
  6  7  2  0
  7  8  1  0
  8  9  2  0
  9 10  1  0
 10 11  2  0
 11 12  1  0
 12 13  1  0
 13 14  1  0
 14 15  1  0
 15 16  1  0
 16 17  2  0
 16 18  1  0
 18 19  1  0
 19 20  2  0
 20 21  1  0
 21 22  2  0
 22 23  1  0
 22 24  1  0
 24 25  2  0
 15 26  1  0
 26 27  1  0
 11 28  1  0
 28 29  2  0
  7  2  1  0
 29  8  1  0
 27 12  1  0
 25 19  1  0
  1 30  1  0
  1 31  1  0
  1 32  1  0
  3 33  1  0
  5 34  1  0
  5 35  1  0
  5 36  1  0
  6 37  1  0
  9 38  1  0
 10 39  1  0
 13 40  1  0
 13 41  1  0
 14 42  1  0
 14 43  1  0
 20 44  1  0
 21 45  1  0
 24 46  1  0
 25 47  1  0
 26 48  1  0
 26 49  1  0
 27 50  1  0
 27 51  1  0
 29 52  1  0
M  CHG  2   3   1  18  -1
M  END
>  <UniqueID>  (77) 
70

>  <SMILES>  (77) 
Cc1[nH+]n(C)cc1-c1ccc(N2CCN(C(=O)[N-]c3ccc(Cl)cc3)CC2)nc1

>  <Energy>  (77) 
97.04357037466819

>  <Genealogy>  (77) 
Cc1[nH+]n(C)cc1-c1ccc(N2CCN(C(=O)[N-]c3ccc(Cl)cc3)CC2)nc1 (protonated)
Cc1[nH+]n(C)cc1-c1ccc(N2CCN(C(=O)[N-]c3ccc(Cl)cc3)CC2)nc1 (3D coordinates assigned)
Cc1[nH+]n(C)cc1-c1ccc(N2CCN(C(=O)[N-]c3ccc(Cl)cc3)CC2)nc1 (nonaromatic ring conformer: 97.04357037466819 kcal/mol)

>  <smiles>  (77) 
Cc1nn(C)cc1-c1ccc(N2CCN(C(=O)Nc3ccc(Cl)cc3)CC2)nc1

>  <score_type>  (77) 
oracle

>  <origin>  (77) 
adg

>  <m_score__min__energy>  (77) 
-9.0099999999999998

>  <m_primary>  (77) 
energy

$$$$
77:0
     RDKit          3D

 41 43  0  0  0  0  0  0  0  0999 V2000
   58.6791   28.3711   43.6767 H   0  0  0  0  0  0  0  0  0  0  0  0
   58.0130   28.2980   44.5490 C   0  0  0  0  0  0  0  0  0  0  0  0
   56.8340   28.8480   44.4700 N   0  0  0  0  0  0  0  0  0  0  0  0
   56.4690   30.0710   43.8030 C   0  0  0  0  0  0  0  0  0  0  0  0
   56.2340   30.0930   42.5670 O   0  0  0  0  0  0  0  0  0  0  0  0
   56.2800   31.2720   44.5570 N   0  0  0  0  0  0  0  0  0  0  0  0
   57.3130   32.0430   45.1830 C   0  0  0  0  0  0  0  0  0  0  0  0
   58.2690   31.4560   46.0290 C   0  0  0  0  0  0  0  0  0  0  0  0
   58.2070   30.3833   46.2644 H   0  0  0  0  0  0  0  0  0  0  0  0
   59.2990   32.2300   46.5730 C   0  0  0  0  0  0  0  0  0  0  0  0
   60.0305   31.7680   47.2523 H   0  0  0  0  0  0  0  0  0  0  0  0
   59.4040   33.5950   46.2560 C   0  0  0  0  0  0  0  0  0  0  0  0
   60.4190   34.4040   46.7830 O   0  0  0  0  0  0  0  0  0  0  0  0
   61.5730   33.9420   47.4320 C   0  0  0  0  0  0  0  0  0  0  0  0
   62.6950   33.4800   46.7190 C   0  0  0  0  0  0  0  0  0  0  0  0
   62.6790   33.4697   45.6192 H   0  0  0  0  0  0  0  0  0  0  0  0
   63.8300   33.0340   47.4030 C   0  0  0  0  0  0  0  0  0  0  0  0
   64.6983   32.6592   46.8413 H   0  0  0  0  0  0  0  0  0  0  0  0
   63.8620   33.0640   48.7990 C   0  0  0  0  0  0  0  0  0  0  0  0
   64.7532   32.7077   49.3363 H   0  0  0  0  0  0  0  0  0  0  0  0
   62.7610   33.5470   49.5140 C   0  0  0  0  0  0  0  0  0  0  0  0
   62.7904   33.5807   50.6131 H   0  0  0  0  0  0  0  0  0  0  0  0
   61.6230   33.9870   48.8310 C   0  0  0  0  0  0  0  0  0  0  0  0
   60.7611   34.3711   49.3963 H   0  0  0  0  0  0  0  0  0  0  0  0
   58.4460   34.1780   45.4190 C   0  0  0  0  0  0  0  0  0  0  0  0
   58.5038   35.2518   45.1875 H   0  0  0  0  0  0  0  0  0  0  0  0
   57.4160   33.4050   44.8750 C   0  0  0  0  0  0  0  0  0  0  0  0
   56.6817   33.8698   44.2006 H   0  0  0  0  0  0  0  0  0  0  0  0
   58.5150   27.5680   45.7670 C   0  0  0  0  0  0  0  0  0  0  0  0
   58.9739   26.6191   45.4523 H   0  0  0  0  0  0  0  0  0  0  0  0
   59.2521   28.2068   46.2755 H   0  0  0  0  0  0  0  0  0  0  0  0
   57.3770   27.2710   46.7450 C   0  0  0  0  0  0  0  0  0  0  0  0
   57.7996   26.9141   47.6958 H   0  0  0  0  0  0  0  0  0  0  0  0
   56.7989   28.1919   46.9115 H   0  0  0  0  0  0  0  0  0  0  0  0
   56.4690   26.2210   46.1830 C   0  0  0  0  0  0  0  0  0  0  0  0
   55.1350   26.3510   46.0900 N   0  0  0  0  0  0  0  0  0  0  0  0
   54.7310   25.1550   45.6170 C   0  0  0  0  0  0  0  0  0  0  0  0
   53.6775   24.9141   45.4117 H   0  0  0  0  0  0  0  0  0  0  0  0
   55.7400   24.2810   45.4190 N   0  0  0  0  0  0  0  0  0  0  0  0
   56.8390   24.9610   45.7860 C   0  0  0  0  0  0  0  0  0  0  0  0
   57.8675   24.5712   45.7707 H   0  0  0  0  0  0  0  0  0  0  0  0
  1  2  1  0
  2  3  2  0
  3  4  1  0
  4  5  2  0
  4  6  1  0
  6  7  1  0
  7  8  2  0
  8  9  1  0
  8 10  1  0
 10 11  1  0
 10 12  2  0
 12 13  1  0
 13 14  1  0
 14 15  2  0
 15 16  1  0
 15 17  1  0
 17 18  1  0
 17 19  2  0
 19 20  1  0
 19 21  1  0
 21 22  1  0
 21 23  2  0
 23 24  1  0
 12 25  1  0
 25 26  1  0
 25 27  2  0
 27 28  1  0
  2 29  1  0
 29 30  1  0
 29 31  1  0
 29 32  1  0
 32 33  1  0
 32 34  1  0
 32 35  1  0
 35 36  1  0
 36 37  2  0
 37 38  1  0
 37 39  1  0
 39 40  1  0
 40 41  1  0
 27  7  1  0
 40 35  2  0
 23 14  1  0
M  CHG  2   6  -1  39  -1
M  END
>  <UniqueID>  (78) 
71

>  <SMILES>  (78) 
O=C(/N=C\CCc1c[n-]cn1)[N-]c1ccc(Oc2ccccc2)cc1

>  <Energy>  (78) 
79.75798446908641

>  <Genealogy>  (78) 
O=C(N=CCCc1c[n-]cn1)[N-]c1ccc(Oc2ccccc2)cc1 (protonated)
O=C(/N=C\CCc1c[n-]cn1)[N-]c1ccc(Oc2ccccc2)cc1 (cis-trans isomerization)
O=C(/N=C\CCc1c[n-]cn1)[N-]c1ccc(Oc2ccccc2)cc1 (3D coordinates assigned)
O=C(/N=C\CCc1c[n-]cn1)[N-]c1ccc(Oc2ccccc2)cc1 (optimized conformer: 79.75798446908641 kcal/mol)

>  <smiles>  (78) 
O=C(N=CCCc1c[nH]cn1)Nc1ccc(Oc2ccccc2)cc1

>  <score_type>  (78) 
oracle

>  <origin>  (78) 
adg

>  <m_score__min__energy>  (78) 
-11.84

>  <m_primary>  (78) 
energy

$$$$
78:0
     RDKit          3D

 35 36  0  0  0  0  0  0  0  0999 V2000
   55.2720   26.4570   46.0060 N   0  0  0  0  0  0  0  0  0  0  0  0
   56.9690   26.1770   45.8410 S   0  0  0  0  0  0  0  0  0  0  0  0
   57.3180   24.9260   46.5980 O   0  0  0  0  0  0  0  0  0  0  0  0
   57.2950   25.9900   44.3860 O   0  0  0  0  0  0  0  0  0  0  0  0
   57.9000   27.5380   46.4880 C   0  0  0  0  0  0  0  0  0  0  0  0
   58.8330   27.3100   47.5120 C   0  0  0  0  0  0  0  0  0  0  0  0
   59.6020   28.3590   48.0200 C   0  0  0  0  0  0  0  0  0  0  0  0
   59.4480   29.6480   47.5130 C   0  0  0  0  0  0  0  0  0  0  0  0
   58.5230   29.8940   46.4970 C   0  0  0  0  0  0  0  0  0  0  0  0
   57.7430   28.8500   45.9770 C   0  0  0  0  0  0  0  0  0  0  0  0
   56.7650   29.1590   44.9150 C   0  0  0  0  0  0  0  0  0  0  0  0
   55.5340   29.0730   45.1660 O   0  0  0  0  0  0  0  0  0  0  0  0
   57.1840   29.5530   43.6040 N   0  0  0  0  0  0  0  0  0  0  0  0
   57.0150   30.8980   43.0670 C   0  0  0  0  0  0  0  0  0  0  0  0
   57.9140   31.8690   43.8300 C   0  0  0  0  0  0  0  0  0  0  0  0
   57.1100   32.6790   44.8500 C   0  0  0  0  0  0  0  0  0  0  0  0
   57.9880   33.6010   45.5650 N   0  0  0  0  0  0  0  0  0  0  0  0
   58.2890   33.5770   46.8730 C   0  0  0  0  0  0  0  0  0  0  0  0
   59.2100   34.5730   47.1100 C   0  0  0  0  0  0  0  0  0  0  0  0
   59.4960   35.2110   45.9570 N   0  0  0  0  0  0  0  0  0  0  0  0
   58.7350   34.5860   45.0330 C   0  0  0  0  0  0  0  0  0  0  0  0
   55.1440   27.4790   46.1850 H   0  0  0  0  0  0  0  0  0  0  0  0
   58.9594   26.2955   47.9179 H   0  0  0  0  0  0  0  0  0  0  0  0
   60.3305   28.1677   48.8217 H   0  0  0  0  0  0  0  0  0  0  0  0
   60.0560   30.4724   47.9139 H   0  0  0  0  0  0  0  0  0  0  0  0
   58.4047   30.9135   46.1012 H   0  0  0  0  0  0  0  0  0  0  0  0
   57.2895   30.9044   42.0018 H   0  0  0  0  0  0  0  0  0  0  0  0
   55.9651   31.2071   43.1776 H   0  0  0  0  0  0  0  0  0  0  0  0
   58.6926   31.2986   44.3576 H   0  0  0  0  0  0  0  0  0  0  0  0
   58.3666   32.5658   43.1092 H   0  0  0  0  0  0  0  0  0  0  0  0
   56.3304   33.2517   44.3263 H   0  0  0  0  0  0  0  0  0  0  0  0
   56.6478   31.9899   45.5722 H   0  0  0  0  0  0  0  0  0  0  0  0
   57.8743   32.8857   47.6214 H   0  0  0  0  0  0  0  0  0  0  0  0
   59.6462   34.8119   48.0911 H   0  0  0  0  0  0  0  0  0  0  0  0
   58.7266   34.8520   43.9657 H   0  0  0  0  0  0  0  0  0  0  0  0
  1  2  1  0
  2  3  2  0
  2  4  2  0
  2  5  1  0
  5  6  2  0
  6  7  1  0
  7  8  2  0
  8  9  1  0
  9 10  2  0
 10 11  1  0
 11 12  2  0
 11 13  1  0
 13 14  1  0
 14 15  1  0
 15 16  1  0
 16 17  1  0
 17 18  1  0
 18 19  2  0
 19 20  1  0
 20 21  2  0
 10  5  1  0
 21 17  1  0
  1 22  1  0
  6 23  1  0
  7 24  1  0
  8 25  1  0
  9 26  1  0
 14 27  1  0
 14 28  1  0
 15 29  1  0
 15 30  1  0
 16 31  1  0
 16 32  1  0
 18 33  1  0
 19 34  1  0
 21 35  1  0
M  CHG  2   1  -1  13  -1
M  END
>  <UniqueID>  (79) 
72

>  <SMILES>  (79) 
[NH-]S(=O)(=O)c1ccccc1C(=O)[N-]CCCn1ccnc1

>  <Energy>  (79) 
64.69218626268011

>  <Genealogy>  (79) 
[NH-]S(=O)(=O)c1ccccc1C(=O)[N-]CCCn1ccnc1 (protonated)
[NH-]S(=O)(=O)c1ccccc1C(=O)[N-]CCCn1ccnc1 (3D coordinates assigned)
[NH-]S(=O)(=O)c1ccccc1C(=O)[N-]CCCn1ccnc1 (optimized conformer: 64.69218626268011 kcal/mol)

>  <smiles>  (79) 
NS(=O)(=O)c1ccccc1C(=O)NCCCn1ccnc1

>  <score_type>  (79) 
oracle

>  <origin>  (79) 
adg

>  <m_score__min__energy>  (79) 
-11.779999999999999

>  <m_primary>  (79) 
energy

$$$$
79:0
     RDKit          3D

 44 46  0  0  0  0  0  0  0  0999 V2000
   58.4970   31.7490   50.3450 C   0  0  0  0  0  0  0  0  0  0  0  0
   59.2220   32.9110   49.9590 O   0  0  0  0  0  0  0  0  0  0  0  0
   59.2700   33.4220   48.6550 C   0  0  0  0  0  0  0  0  0  0  0  0
   60.0150   34.5660   48.3240 C   0  0  0  0  0  0  0  0  0  0  0  0
   60.0330   35.0310   47.0080 C   0  0  0  0  0  0  0  0  0  0  0  0
   59.3060   34.3710   46.0170 C   0  0  0  0  0  0  0  0  0  0  0  0
   58.5560   33.2220   46.3240 C   0  0  0  0  0  0  0  0  0  0  0  0
   57.7750   32.5380   45.2560 C   0  0  0  0  0  0  0  0  0  0  0  0
   56.6460   32.9960   44.9230 O   0  0  0  0  0  0  0  0  0  0  0  0
   58.2840   31.3170   44.5380 C   0  0  0  0  0  0  0  0  0  0  0  0
   57.3940   30.1800   44.7650 N   0  0  0  0  0  0  0  0  0  0  0  0
   56.0890   30.1970   44.5350 N   0  0  0  0  0  0  0  0  0  0  0  0
   55.5410   29.0380   44.8790 N   0  0  0  0  0  0  0  0  0  0  0  0
   56.5240   28.2380   45.3470 C   0  0  0  0  0  0  0  0  0  0  0  0
   56.3080   26.8650   45.8700 C   0  0  0  0  0  0  0  0  0  0  0  0
   55.1320   26.4410   46.0330 O   0  0  0  0  0  0  0  0  0  0  0  0
   57.3920   25.9710   46.1710 N   0  0  0  0  0  0  0  0  0  0  0  0
   58.3220   25.3440   45.2310 C   0  0  0  0  0  0  0  0  0  0  0  0
   57.6680   24.1910   44.5000 C   0  0  0  0  0  0  0  0  0  0  0  0
   56.4110   24.3750   43.8970 C   0  0  0  0  0  0  0  0  0  0  0  0
   55.7780   23.3190   43.2290 C   0  0  0  0  0  0  0  0  0  0  0  0
   56.3930   22.0680   43.1540 C   0  0  0  0  0  0  0  0  0  0  0  0
   57.6320   21.8610   43.7590 C   0  0  0  0  0  0  0  0  0  0  0  0
   58.2720   22.9120   44.4410 C   0  0  0  0  0  0  0  0  0  0  0  0
   59.8070   22.5760   45.2320 Cl  0  0  0  0  0  0  0  0  0  0  0  0
   57.6990   28.9800   45.2860 C   0  0  0  0  0  0  0  0  0  0  0  0
   58.9010   28.6080   45.6150 N   0  0  0  0  0  0  0  0  0  0  0  0
   58.5580   32.7550   47.6520 C   0  0  0  0  0  0  0  0  0  0  0  0
   58.4591   31.6883   51.4427 H   0  0  0  0  0  0  0  0  0  0  0  0
   57.4737   31.8057   49.9454 H   0  0  0  0  0  0  0  0  0  0  0  0
   58.9977   30.8548   49.9454 H   0  0  0  0  0  0  0  0  0  0  0  0
   60.5843   35.0955   49.1021 H   0  0  0  0  0  0  0  0  0  0  0  0
   60.6236   35.9227   46.7509 H   0  0  0  0  0  0  0  0  0  0  0  0
   59.3196   34.7531   44.9856 H   0  0  0  0  0  0  0  0  0  0  0  0
   58.3352   31.5267   43.4594 H   0  0  0  0  0  0  0  0  0  0  0  0
   59.2834   31.0685   44.9245 H   0  0  0  0  0  0  0  0  0  0  0  0
   58.6501   26.0944   44.4967 H   0  0  0  0  0  0  0  0  0  0  0  0
   59.1804   24.9546   45.7981 H   0  0  0  0  0  0  0  0  0  0  0  0
   55.9200   25.3579   43.9504 H   0  0  0  0  0  0  0  0  0  0  0  0
   54.7942   23.4758   42.7625 H   0  0  0  0  0  0  0  0  0  0  0  0
   55.8995   21.2446   42.6169 H   0  0  0  0  0  0  0  0  0  0  0  0
   58.1109   20.8723   43.7029 H   0  0  0  0  0  0  0  0  0  0  0  0
   59.1460   27.6430   45.9300 H   0  0  0  0  0  0  0  0  0  0  0  0
   57.9890   31.8485   47.9060 H   0  0  0  0  0  0  0  0  0  0  0  0
  1  2  1  0
  2  3  1  0
  3  4  2  0
  4  5  1  0
  5  6  2  0
  6  7  1  0
  7  8  1  0
  8  9  2  0
  8 10  1  0
 10 11  1  0
 11 12  1  0
 12 13  1  0
 13 14  2  0
 14 15  1  0
 15 16  2  0
 15 17  1  0
 17 18  1  0
 18 19  1  0
 19 20  2  0
 20 21  1  0
 21 22  2  0
 22 23  1  0
 23 24  2  0
 24 25  1  0
 14 26  1  0
 26 27  2  3
  7 28  2  0
 28  3  1  0
 26 11  1  0
 24 19  1  0
  1 29  1  0
  1 30  1  0
  1 31  1  0
  4 32  1  0
  5 33  1  0
  6 34  1  0
 10 35  1  0
 10 36  1  0
 18 37  1  0
 18 38  1  0
 20 39  1  0
 21 40  1  0
 22 41  1  0
 23 42  1  0
 27 43  1  0
 28 44  1  0
M  CHG  2  12  -1  17  -1
M  END
>  <UniqueID>  (80) 
73

>  <SMILES>  (80) 
COc1cccc(C(=O)Cn2[n-]nc(C(=O)[N-]Cc3ccccc3Cl)c2=N)c1

>  <Energy>  (80) 
87.18148161802121

>  <Genealogy>  (80) 
COc1cccc(C(=O)Cn2[n-]nc(C(=O)[N-]Cc3ccccc3Cl)c2=N)c1 (protonated)
COc1cccc(C(=O)Cn2[n-]nc(C(=O)[N-]Cc3ccccc3Cl)c2=N)c1 (3D coordinates assigned)
COc1cccc(C(=O)Cn2[n-]nc(C(=O)[N-]Cc3ccccc3Cl)c2=N)c1 (optimized conformer: 87.18148161802121 kcal/mol)

>  <smiles>  (80) 
COc1cccc(C(=O)Cn2[nH]nc(C(=O)NCc3ccccc3Cl)c2=N)c1

>  <score_type>  (80) 
oracle

>  <origin>  (80) 
adg

>  <m_score__min__energy>  (80) 
-12.02

>  <m_primary>  (80) 
energy

$$$$
80:0
     RDKit          3D

 41 44  0  0  0  0  0  0  0  0999 V2000
   59.3345   35.5011   45.1855 H   0  0  0  0  0  0  0  0  0  0  0  0
   59.0040   34.5030   45.5090 C   0  0  0  0  0  0  0  0  0  0  0  0
   58.3000   33.6770   44.6250 C   0  0  0  0  0  0  0  0  0  0  0  0
   58.0708   34.0333   43.6099 H   0  0  0  0  0  0  0  0  0  0  0  0
   57.8830   32.3930   45.0260 C   0  0  0  0  0  0  0  0  0  0  0  0
   57.1480   31.5200   44.0770 C   0  0  0  0  0  0  0  0  0  0  0  0
   57.1960   31.7710   42.8430 O   0  0  0  0  0  0  0  0  0  0  0  0
   56.3210   30.4350   44.5240 N   0  0  0  0  0  0  0  0  0  0  0  0
   56.7380   29.3350   45.0810 C   0  0  0  0  0  0  0  0  0  0  0  0
   55.9230   28.2620   45.2400 N   0  0  0  0  0  0  0  0  0  0  0  0
   56.7310   27.3660   45.8360 C   0  0  0  0  0  0  0  0  0  0  0  0
   56.4120   26.0740   46.2430 C   0  0  0  0  0  0  0  0  0  0  0  0
   55.4030   25.6626   46.0926 H   0  0  0  0  0  0  0  0  0  0  0  0
   57.4260   25.3120   46.8540 C   0  0  0  0  0  0  0  0  0  0  0  0
   57.2108   24.2870   47.1901 H   0  0  0  0  0  0  0  0  0  0  0  0
   58.7190   25.8540   47.0390 C   0  0  0  0  0  0  0  0  0  0  0  0
   59.5025   25.2462   47.5152 H   0  0  0  0  0  0  0  0  0  0  0  0
   59.0130   27.1730   46.6160 C   0  0  0  0  0  0  0  0  0  0  0  0
   60.2710   27.7770   46.7680 O   0  0  0  0  0  0  0  0  0  0  0  0
   60.5050   29.0580   47.3510 C   0  0  0  0  0  0  0  0  0  0  0  0
   60.2448   29.8395   46.6219 H   0  0  0  0  0  0  0  0  0  0  0  0
   61.5672   29.1322   47.6272 H   0  0  0  0  0  0  0  0  0  0  0  0
   59.6580   29.2420   48.6060 C   0  0  0  0  0  0  0  0  0  0  0  0
   60.2883   29.1051   49.4971 H   0  0  0  0  0  0  0  0  0  0  0  0
   59.2281   30.2545   48.6130 H   0  0  0  0  0  0  0  0  0  0  0  0
   58.8468   28.4991   48.6130 H   0  0  0  0  0  0  0  0  0  0  0  0
   57.9780   27.8890   46.0120 C   0  0  0  0  0  0  0  0  0  0  0  0
   58.0060   29.1390   45.5320 N   0  0  0  0  0  0  0  0  0  0  0  0
   58.8280   29.7810   45.4960 H   0  0  0  0  0  0  0  0  0  0  0  0
   58.1680   31.9590   46.3340 C   0  0  0  0  0  0  0  0  0  0  0  0
   57.8232   30.9701   46.6703 H   0  0  0  0  0  0  0  0  0  0  0  0
   58.8870   32.7790   47.2070 C   0  0  0  0  0  0  0  0  0  0  0  0
   59.2860   34.0580   46.8020 C   0  0  0  0  0  0  0  0  0  0  0  0
   59.9680   34.8760   47.7080 O   0  0  0  0  0  0  0  0  0  0  0  0
   60.0240   34.5510   49.0990 C   0  0  0  0  0  0  0  0  0  0  0  0
   59.0955   34.8824   49.5869 H   0  0  0  0  0  0  0  0  0  0  0  0
   60.8887   35.0589   49.5510 H   0  0  0  0  0  0  0  0  0  0  0  0
   60.1810   33.0360   49.2850 C   0  0  0  0  0  0  0  0  0  0  0  0
   60.0315   32.7829   50.3450 H   0  0  0  0  0  0  0  0  0  0  0  0
   61.1908   32.7385   48.9660 H   0  0  0  0  0  0  0  0  0  0  0  0
   59.2180   32.3380   48.4930 O   0  0  0  0  0  0  0  0  0  0  0  0
  1  2  1  0
  2  3  2  0
  3  4  1  0
  3  5  1  0
  5  6  1  0
  6  7  2  0
  6  8  1  0
  8  9  2  0
  9 10  1  0
 10 11  1  0
 11 12  2  0
 12 13  1  0
 12 14  1  0
 14 15  1  0
 14 16  2  0
 16 17  1  0
 16 18  1  0
 18 19  1  0
 19 20  1  0
 20 21  1  0
 20 22  1  0
 20 23  1  0
 23 24  1  0
 23 25  1  0
 23 26  1  0
 18 27  2  0
 27 28  1  0
 28 29  1  0
  5 30  2  0
 30 31  1  0
 30 32  1  0
 32 33  2  0
 33 34  1  0
 34 35  1  0
 35 36  1  0
 35 37  1  0
 35 38  1  0
 38 39  1  0
 38 40  1  0
 38 41  1  0
 33  2  1  0
 28  9  1  0
 41 32  1  0
 27 11  1  0
M  CHG  1  10  -1
M  END
>  <UniqueID>  (81) 
74

>  <SMILES>  (81) 
CCOc1cccc2[n-]/c(=N/C(=O)c3ccc4c(c3)OCCO4)[nH]c12

>  <Energy>  (81) 
87.72211092203179

>  <Genealogy>  (81) 
CCOc1cccc2[n-]c(=NC(=O)c3ccc4c(c3)OCCO4)[nH]c12 (protonated)
CCOc1cccc2[n-]/c(=N/C(=O)c3ccc4c(c3)OCCO4)[nH]c12 (cis-trans isomerization)
CCOc1cccc2[n-]/c(=N/C(=O)c3ccc4c(c3)OCCO4)[nH]c12 (3D coordinates assigned)
CCOc1cccc2[n-]/c(=N/C(=O)c3ccc4c(c3)OCCO4)[nH]c12 (nonaromatic ring conformer: 87.72211092203179 kcal/mol)

>  <smiles>  (81) 
CCOc1cccc2[nH]c(=NC(=O)c3ccc4c(c3)OCCO4)[nH]c12

>  <score_type>  (81) 
oracle

>  <origin>  (81) 
adg

>  <m_score__min__energy>  (81) 
-10.130000000000001

>  <m_primary>  (81) 
energy

$$$$
81:0
     RDKit          3D

 61 62  0  0  0  0  0  0  0  0999 V2000
   56.7530   22.5510   43.3380 C   0  0  0  0  0  0  0  0  0  0  0  0
   56.2620   23.9440   43.7340 C   0  0  0  0  0  0  0  0  0  0  0  0
   57.4030   24.9590   43.9140 C   0  0  0  0  0  0  0  0  0  0  0  0
   57.8140   25.1590   45.3760 C   0  0  0  0  0  0  0  0  0  0  0  0
   57.5360   26.4960   45.7770 O   0  0  0  0  0  0  0  0  0  0  0  0
   56.2520   27.0460   45.7430 C   0  0  0  0  0  0  0  0  0  0  0  0
   55.2540   26.3700   46.1080 O   0  0  0  0  0  0  0  0  0  0  0  0
   56.0540   28.3670   45.2460 N   0  0  0  0  0  0  0  0  0  0  0  0
   57.0430   29.0280   43.9850 S   0  0  0  0  0  0  0  0  0  0  0  0
   58.0650   28.0080   43.5680 O   0  0  0  0  0  0  0  0  0  0  0  0
   56.1740   29.3640   42.8060 O   0  0  0  0  0  0  0  0  0  0  0  0
   57.8590   30.4770   44.5670 C   0  0  0  0  0  0  0  0  0  0  0  0
   57.4300   32.0400   44.1160 S   0  0  0  0  0  0  0  0  0  0  0  0
   58.4700   32.8250   45.1810 C   0  0  0  0  0  0  0  0  0  0  0  0
   58.5840   34.3130   45.3550 C   0  0  0  0  0  0  0  0  0  0  0  0
   59.5310   34.7350   46.5030 C   0  0  0  0  0  0  0  0  0  0  0  0
   59.0010   34.3030   47.8750 C   0  0  0  0  0  0  0  0  0  0  0  0
   60.9660   34.2380   46.2870 C   0  0  0  0  0  0  0  0  0  0  0  0
   59.1580   31.8710   45.9180 C   0  0  0  0  0  0  0  0  0  0  0  0
   58.8260   30.5520   45.5750 C   0  0  0  0  0  0  0  0  0  0  0  0
   59.4070   29.3850   46.2690 C   0  0  0  0  0  0  0  0  0  0  0  0
   59.8860   28.2880   45.5420 C   0  0  0  0  0  0  0  0  0  0  0  0
   60.3920   27.1700   46.2060 C   0  0  0  0  0  0  0  0  0  0  0  0
   60.4300   27.1440   47.6020 C   0  0  0  0  0  0  0  0  0  0  0  0
   59.9740   28.2400   48.3520 C   0  0  0  0  0  0  0  0  0  0  0  0
   60.0170   28.1670   49.7890 N   0  0  0  0  0  0  0  0  0  0  0  0
   59.6170   29.4800   50.8550 S   0  0  0  0  0  0  0  0  0  0  0  0
   58.1240   29.6520   50.8650 O   0  0  0  0  0  0  0  0  0  0  0  0
   60.0730   29.1650   52.2510 O   0  0  0  0  0  0  0  0  0  0  0  0
   60.3640   31.0040   50.2940 C   0  0  0  0  0  0  0  0  0  0  0  0
   61.7780   30.7650   49.7790 C   0  0  0  0  0  0  0  0  0  0  0  0
   59.4730   29.3660   47.6730 C   0  0  0  0  0  0  0  0  0  0  0  0
   56.9600   21.9637   44.2448 H   0  0  0  0  0  0  0  0  0  0  0  0
   55.9790   22.0451   42.7422 H   0  0  0  0  0  0  0  0  0  0  0  0
   57.6732   22.6422   42.7422 H   0  0  0  0  0  0  0  0  0  0  0  0
   55.5862   24.3131   42.9484 H   0  0  0  0  0  0  0  0  0  0  0  0
   55.7532   23.8480   44.7045 H   0  0  0  0  0  0  0  0  0  0  0  0
   58.2785   24.6029   43.3512 H   0  0  0  0  0  0  0  0  0  0  0  0
   57.0370   25.9281   43.5440 H   0  0  0  0  0  0  0  0  0  0  0  0
   57.2492   24.4620   46.0126 H   0  0  0  0  0  0  0  0  0  0  0  0
   58.8919   24.9657   45.4797 H   0  0  0  0  0  0  0  0  0  0  0  0
   58.9625   34.7442   44.4165 H   0  0  0  0  0  0  0  0  0  0  0  0
   57.5811   34.6838   45.6134 H   0  0  0  0  0  0  0  0  0  0  0  0
   59.5591   35.8345   46.4879 H   0  0  0  0  0  0  0  0  0  0  0  0
   59.5937   34.7861   48.6658 H   0  0  0  0  0  0  0  0  0  0  0  0
   57.9470   34.6026   47.9719 H   0  0  0  0  0  0  0  0  0  0  0  0
   59.0819   33.2103   47.9719 H   0  0  0  0  0  0  0  0  0  0  0  0
   61.4470   34.0714   47.2621 H   0  0  0  0  0  0  0  0  0  0  0  0
   60.9461   33.2944   45.7220 H   0  0  0  0  0  0  0  0  0  0  0  0
   61.5340   34.9918   45.7220 H   0  0  0  0  0  0  0  0  0  0  0  0
   59.8929   32.1249   46.6962 H   0  0  0  0  0  0  0  0  0  0  0  0
   59.8632   28.3079   44.4424 H   0  0  0  0  0  0  0  0  0  0  0  0
   60.7611   26.3087   45.6298 H   0  0  0  0  0  0  0  0  0  0  0  0
   60.8213   26.2556   48.1193 H   0  0  0  0  0  0  0  0  0  0  0  0
   60.3390   27.2780   50.2390 H   0  0  0  0  0  0  0  0  0  0  0  0
   59.7528   31.4263   49.4827 H   0  0  0  0  0  0  0  0  0  0  0  0
   60.4148   31.7014   51.1432 H   0  0  0  0  0  0  0  0  0  0  0  0
   62.4639   30.6491   50.6311 H   0  0  0  0  0  0  0  0  0  0  0  0
   61.7958   29.8511   49.1670 H   0  0  0  0  0  0  0  0  0  0  0  0
   62.0951   31.6223   49.1670 H   0  0  0  0  0  0  0  0  0  0  0  0
   59.1297   30.2397   48.2464 H   0  0  0  0  0  0  0  0  0  0  0  0
  1  2  1  0
  2  3  1  0
  3  4  1  0
  4  5  1  0
  5  6  1  0
  6  7  2  0
  6  8  1  0
  8  9  1  0
  9 10  2  0
  9 11  2  0
  9 12  1  0
 12 13  1  0
 13 14  1  0
 14 15  1  0
 15 16  1  0
 16 17  1  0
 16 18  1  0
 14 19  2  0
 19 20  1  0
 20 21  1  0
 21 22  2  0
 22 23  1  0
 23 24  2  0
 24 25  1  0
 25 26  1  0
 26 27  1  0
 27 28  2  0
 27 29  2  0
 27 30  1  0
 30 31  1  0
 25 32  2  0
 20 12  2  0
 32 21  1  0
  1 33  1  0
  1 34  1  0
  1 35  1  0
  2 36  1  0
  2 37  1  0
  3 38  1  0
  3 39  1  0
  4 40  1  0
  4 41  1  0
 15 42  1  0
 15 43  1  0
 16 44  1  0
 17 45  1  0
 17 46  1  0
 17 47  1  0
 18 48  1  0
 18 49  1  0
 18 50  1  0
 19 51  1  0
 22 52  1  0
 23 53  1  0
 24 54  1  0
 26 55  1  0
 30 56  1  0
 30 57  1  0
 31 58  1  0
 31 59  1  0
 31 60  1  0
 32 61  1  0
M  CHG  1   8  -1
M  END
>  <UniqueID>  (82) 
75

>  <SMILES>  (82) 
CCCCOC(=O)[N-]S(=O)(=O)c1sc(CC(C)C)cc1-c1cccc(NS(=O)(=O)CC)c1

>  <Energy>  (82) 
68.09052512932372

>  <Genealogy>  (82) 
CCCCOC(=O)[N-]S(=O)(=O)c1sc(CC(C)C)cc1-c1cccc(NS(=O)(=O)CC)c1 (protonated)
CCCCOC(=O)[N-]S(=O)(=O)c1sc(CC(C)C)cc1-c1cccc(NS(=O)(=O)CC)c1 (3D coordinates assigned)
CCCCOC(=O)[N-]S(=O)(=O)c1sc(CC(C)C)cc1-c1cccc(NS(=O)(=O)CC)c1 (optimized conformer: 68.09052512932372 kcal/mol)

>  <smiles>  (82) 
CCCCOC(=O)NS(=O)(=O)c1sc(CC(C)C)cc1-c1cccc(NS(=O)(=O)CC)c1

>  <score_type>  (82) 
oracle

>  <origin>  (82) 
adg

>  <m_score__min__energy>  (82) 
-10.609999999999999

>  <m_primary>  (82) 
energy

$$$$
82:0
     RDKit          3D

 42 43  0  0  0  0  0  0  0  0999 V2000
   60.7550   30.4180   46.7630 C   0  0  0  0  0  0  0  0  0  0  0  0
   59.6640   29.9050   46.1870 C   0  0  0  0  0  0  0  0  0  0  0  0
   59.6910   29.4430   44.7560 C   0  0  0  0  0  0  0  0  0  0  0  0
   58.4320   28.7660   44.4110 N   0  0  0  0  0  0  0  0  0  0  0  0
   57.4360   29.4850   43.6050 C   0  0  0  0  0  0  0  0  0  0  0  0
   56.3240   29.9560   44.4870 C   0  0  0  0  0  0  0  0  0  0  0  0
   55.5630   29.1160   45.0400 O   0  0  0  0  0  0  0  0  0  0  0  0
   56.1560   31.3630   44.7090 N   0  0  0  0  0  0  0  0  0  0  0  0
   57.1720   32.3030   45.0850 C   0  0  0  0  0  0  0  0  0  0  0  0
   57.8310   33.1110   44.1400 C   0  0  0  0  0  0  0  0  0  0  0  0
   58.8590   33.9680   44.5400 C   0  0  0  0  0  0  0  0  0  0  0  0
   59.2590   34.0220   45.8850 C   0  0  0  0  0  0  0  0  0  0  0  0
   60.4000   34.9160   46.2860 C   0  0  0  0  0  0  0  0  0  0  0  0
   58.6270   33.1820   46.8260 C   0  0  0  0  0  0  0  0  0  0  0  0
   59.1240   33.1470   48.5130 Cl  0  0  0  0  0  0  0  0  0  0  0  0
   57.5900   32.3320   46.4190 C   0  0  0  0  0  0  0  0  0  0  0  0
   58.1060   27.4630   44.9500 C   0  0  0  0  0  0  0  0  0  0  0  0
   57.5960   26.5860   44.1990 O   0  0  0  0  0  0  0  0  0  0  0  0
   58.2750   27.1390   46.4080 C   0  0  0  0  0  0  0  0  0  0  0  0
   57.5000   25.9030   46.7510 C   0  0  0  0  0  0  0  0  0  0  0  0
   58.0010   24.8560   47.4280 N   0  0  0  0  0  0  0  0  0  0  0  0
   56.9440   24.0190   47.5350 C   0  0  0  0  0  0  0  0  0  0  0  0
   57.0180   22.9010   48.1120 O   0  0  0  0  0  0  0  0  0  0  0  0
   55.8030   24.4740   46.9760 N   0  0  0  0  0  0  0  0  0  0  0  0
   56.1700   25.6710   46.4900 C   0  0  0  0  0  0  0  0  0  0  0  0
   55.3100   26.5360   45.8230 O   0  0  0  0  0  0  0  0  0  0  0  0
   60.7187   30.7513   47.8107 H   0  0  0  0  0  0  0  0  0  0  0  0
   61.6895   30.5070   46.1896 H   0  0  0  0  0  0  0  0  0  0  0  0
   58.7334   29.8194   46.7673 H   0  0  0  0  0  0  0  0  0  0  0  0
   59.8268   30.3131   44.0969 H   0  0  0  0  0  0  0  0  0  0  0  0
   60.5233   28.7357   44.6255 H   0  0  0  0  0  0  0  0  0  0  0  0
   57.9119   30.3509   43.1216 H   0  0  0  0  0  0  0  0  0  0  0  0
   57.0320   28.8105   42.8357 H   0  0  0  0  0  0  0  0  0  0  0  0
   57.5352   33.0675   43.0814 H   0  0  0  0  0  0  0  0  0  0  0  0
   59.3590   34.6054   43.7958 H   0  0  0  0  0  0  0  0  0  0  0  0
   60.4605   34.9634   47.3833 H   0  0  0  0  0  0  0  0  0  0  0  0
   61.3409   34.5122   45.8840 H   0  0  0  0  0  0  0  0  0  0  0  0
   60.2331   35.9262   45.8840 H   0  0  0  0  0  0  0  0  0  0  0  0
   57.0994   31.6804   47.1571 H   0  0  0  0  0  0  0  0  0  0  0  0
   59.3408   26.9722   46.6230 H   0  0  0  0  0  0  0  0  0  0  0  0
   57.9002   27.9794   47.0107 H   0  0  0  0  0  0  0  0  0  0  0  0
   55.5810   26.9510   44.9400 H   0  0  0  0  0  0  0  0  0  0  0  0
  1  2  2  0
  2  3  1  0
  3  4  1  0
  4  5  1  0
  5  6  1  0
  6  7  2  0
  6  8  1  0
  8  9  1  0
  9 10  2  0
 10 11  1  0
 11 12  2  0
 12 13  1  0
 12 14  1  0
 14 15  1  0
 14 16  2  0
  4 17  1  0
 17 18  2  0
 17 19  1  0
 19 20  1  0
 20 21  1  0
 21 22  1  0
 22 23  2  0
 22 24  1  0
 24 25  1  0
 25 26  1  0
 16  9  1  0
 25 20  2  0
  1 27  1  0
  1 28  1  0
  2 29  1  0
  3 30  1  0
  3 31  1  0
  5 32  1  0
  5 33  1  0
 10 34  1  0
 11 35  1  0
 13 36  1  0
 13 37  1  0
 13 38  1  0
 16 39  1  0
 19 40  1  0
 19 41  1  0
 26 42  1  0
M  CHG  3   8  -1  21  -1  24  -1
M  END
>  <UniqueID>  (83) 
76

>  <SMILES>  (83) 
C=CCN(CC(=O)[N-]c1ccc(C)c(Cl)c1)C(=O)Cc1[n-]c(=O)[n-]c1O

>  <Energy>  (83) 
64.19881141370675

>  <Genealogy>  (83) 
C=CCN(CC(=O)[N-]c1ccc(C)c(Cl)c1)C(=O)Cc1[n-]c(=O)[n-]c1O (protonated)
C=CCN(CC(=O)[N-]c1ccc(C)c(Cl)c1)C(=O)Cc1[n-]c(=O)[n-]c1O (3D coordinates assigned)
C=CCN(CC(=O)[N-]c1ccc(C)c(Cl)c1)C(=O)Cc1[n-]c(=O)[n-]c1O (optimized conformer: 64.19881141370675 kcal/mol)

>  <smiles>  (83) 
C=CCN(CC(=O)Nc1ccc(C)c(Cl)c1)C(=O)Cc1[nH]c(=O)[nH]c1O

>  <score_type>  (83) 
oracle

>  <origin>  (83) 
adg

>  <m_score__min__energy>  (83) 
-14.09

>  <m_primary>  (83) 
energy

$$$$
83:0
     RDKit          3D

 46 48  0  0  0  0  0  0  0  0999 V2000
   60.3650   29.1010   45.8980 C   0  0  0  0  0  0  0  0  0  0  0  0
   59.3100   28.0480   46.0970 C   0  0  0  0  0  0  0  0  0  0  0  0
   59.6850   26.7090   46.2950 C   0  0  0  0  0  0  0  0  0  0  0  0
   58.7170   25.7270   46.5070 C   0  0  0  0  0  0  0  0  0  0  0  0
   57.3570   26.0680   46.5200 C   0  0  0  0  0  0  0  0  0  0  0  0
   56.3420   25.0800   46.7460 N   0  0  0  0  0  0  0  0  0  0  0  0
   55.1250   24.9650   45.9960 C   0  0  0  0  0  0  0  0  0  0  0  0
   54.4020   25.9840   45.8440 O   0  0  0  0  0  0  0  0  0  0  0  0
   54.7090   23.7220   45.4140 N   0  0  0  0  0  0  0  0  0  0  0  0
   55.5520   22.8140   44.6900 C   0  0  0  0  0  0  0  0  0  0  0  0
   56.1090   21.6760   45.3050 C   0  0  0  0  0  0  0  0  0  0  0  0
   56.9440   20.8230   44.5770 C   0  0  0  0  0  0  0  0  0  0  0  0
   57.2120   21.0860   43.2310 C   0  0  0  0  0  0  0  0  0  0  0  0
   56.6380   22.1970   42.6080 C   0  0  0  0  0  0  0  0  0  0  0  0
   55.8050   23.0550   43.3340 C   0  0  0  0  0  0  0  0  0  0  0  0
   56.9760   27.3950   46.2990 C   0  0  0  0  0  0  0  0  0  0  0  0
   57.9440   28.4000   46.1290 C   0  0  0  0  0  0  0  0  0  0  0  0
   57.5650   29.7750   45.9520 N   0  0  0  0  0  0  0  0  0  0  0  0
   56.9380   30.3300   44.7910 C   0  0  0  0  0  0  0  0  0  0  0  0
   55.7260   30.0940   44.5390 O   0  0  0  0  0  0  0  0  0  0  0  0
   57.6930   31.2050   43.9460 N   0  0  0  0  0  0  0  0  0  0  0  0
   57.5010   32.6500   43.9070 C   0  0  0  0  0  0  0  0  0  0  0  0
   58.1890   33.3010   45.0770 C   0  0  0  0  0  0  0  0  0  0  0  0
   59.1140   34.3400   44.8760 C   0  0  0  0  0  0  0  0  0  0  0  0
   59.7280   34.9570   45.9700 C   0  0  0  0  0  0  0  0  0  0  0  0
   59.4220   34.5450   47.2700 C   0  0  0  0  0  0  0  0  0  0  0  0
   58.5010   33.5150   47.4780 C   0  0  0  0  0  0  0  0  0  0  0  0
   57.8840   32.8950   46.3870 C   0  0  0  0  0  0  0  0  0  0  0  0
   60.7194   29.4547   46.8774 H   0  0  0  0  0  0  0  0  0  0  0  0
   61.2082   28.6736   45.3355 H   0  0  0  0  0  0  0  0  0  0  0  0
   59.9392   29.9450   45.3355 H   0  0  0  0  0  0  0  0  0  0  0  0
   60.7496   26.4326   46.2828 H   0  0  0  0  0  0  0  0  0  0  0  0
   59.0217   24.6818   46.6645 H   0  0  0  0  0  0  0  0  0  0  0  0
   55.8867   21.4579   46.3600 H   0  0  0  0  0  0  0  0  0  0  0  0
   57.3905   19.9438   45.0644 H   0  0  0  0  0  0  0  0  0  0  0  0
   57.8752   20.4180   42.6617 H   0  0  0  0  0  0  0  0  0  0  0  0
   56.8412   22.3973   41.5457 H   0  0  0  0  0  0  0  0  0  0  0  0
   55.3467   23.9229   42.8374 H   0  0  0  0  0  0  0  0  0  0  0  0
   55.9080   27.6552   46.2577 H   0  0  0  0  0  0  0  0  0  0  0  0
   57.9225   33.0468   42.9717 H   0  0  0  0  0  0  0  0  0  0  0  0
   56.4243   32.8691   43.9583 H   0  0  0  0  0  0  0  0  0  0  0  0
   59.3556   34.6688   43.8545 H   0  0  0  0  0  0  0  0  0  0  0  0
   60.4531   35.7680   45.8074 H   0  0  0  0  0  0  0  0  0  0  0  0
   59.9063   35.0316   48.1295 H   0  0  0  0  0  0  0  0  0  0  0  0
   58.2609   33.1914   48.5015 H   0  0  0  0  0  0  0  0  0  0  0  0
   57.1573   32.0865   46.5550 H   0  0  0  0  0  0  0  0  0  0  0  0
  1  2  1  0
  2  3  2  0
  3  4  1  0
  4  5  2  0
  5  6  1  0
  6  7  1  0
  7  8  2  0
  7  9  1  0
  9 10  1  0
 10 11  2  0
 11 12  1  0
 12 13  2  0
 13 14  1  0
 14 15  2  0
  5 16  1  0
 16 17  2  0
 17 18  1  0
 18 19  1  0
 19 20  2  0
 19 21  1  0
 21 22  1  0
 22 23  1  0
 23 24  2  0
 24 25  1  0
 25 26  2  0
 26 27  1  0
 27 28  2  0
 17  2  1  0
 28 23  1  0
 15 10  1  0
  1 29  1  0
  1 30  1  0
  1 31  1  0
  3 32  1  0
  4 33  1  0
 11 34  1  0
 12 35  1  0
 13 36  1  0
 14 37  1  0
 15 38  1  0
 16 39  1  0
 22 40  1  0
 22 41  1  0
 24 42  1  0
 25 43  1  0
 26 44  1  0
 27 45  1  0
 28 46  1  0
M  CHG  4   6  -1   9  -1  18  -1  21  -1
M  END
>  <UniqueID>  (84) 
77

>  <SMILES>  (84) 
Cc1ccc([N-]C(=O)[N-]c2ccccc2)cc1[N-]C(=O)[N-]Cc1ccccc1

>  <Energy>  (84) 
56.36310363661566

>  <Genealogy>  (84) 
Cc1ccc([N-]C(=O)[N-]c2ccccc2)cc1[N-]C(=O)[N-]Cc1ccccc1 (protonated)
Cc1ccc([N-]C(=O)[N-]c2ccccc2)cc1[N-]C(=O)[N-]Cc1ccccc1 (3D coordinates assigned)
Cc1ccc([N-]C(=O)[N-]c2ccccc2)cc1[N-]C(=O)[N-]Cc1ccccc1 (optimized conformer: 56.36310363661566 kcal/mol)

>  <smiles>  (84) 
Cc1ccc(NC(=O)Nc2ccccc2)cc1NC(=O)NCc1ccccc1

>  <score_type>  (84) 
oracle

>  <origin>  (84) 
adg

>  <m_score__min__energy>  (84) 
-15.51

>  <m_primary>  (84) 
energy

$$$$
84:0
     RDKit          3D

 34 35  0  0  0  0  0  0  0  0999 V2000
   60.6700   32.1180   48.9930 O   0  0  0  0  0  0  0  0  0  0  0  0
   60.0140   31.3200   48.2700 C   0  0  0  0  0  0  0  0  0  0  0  0
   58.5920   31.6290   47.9240 C   0  0  0  0  0  0  0  0  0  0  0  0
   58.5400   32.7020   46.8710 C   0  0  0  0  0  0  0  0  0  0  0  0
   59.6160   33.5920   46.7110 C   0  0  0  0  0  0  0  0  0  0  0  0
   59.5790   34.5680   45.7110 C   0  0  0  0  0  0  0  0  0  0  0  0
   58.4740   34.6570   44.8590 C   0  0  0  0  0  0  0  0  0  0  0  0
   57.4050   33.7680   45.0040 C   0  0  0  0  0  0  0  0  0  0  0  0
   57.4390   32.7900   46.0040 C   0  0  0  0  0  0  0  0  0  0  0  0
   60.6340   30.1490   47.7320 N   0  0  0  0  0  0  0  0  0  0  0  0
   61.2770   30.1040   46.4230 C   0  0  0  0  0  0  0  0  0  0  0  0
   60.7970   28.8840   45.6320 C   0  0  0  0  0  0  0  0  0  0  0  0
   59.3050   28.9310   45.4430 C   0  0  0  0  0  0  0  0  0  0  0  0
   58.4690   28.1000   46.2060 C   0  0  0  0  0  0  0  0  0  0  0  0
   57.0850   28.1200   46.0070 C   0  0  0  0  0  0  0  0  0  0  0  0
   56.5260   28.9600   45.0390 C   0  0  0  0  0  0  0  0  0  0  0  0
   55.1490   28.9700   44.8510 O   0  0  0  0  0  0  0  0  0  0  0  0
   57.3550   29.7820   44.2630 C   0  0  0  0  0  0  0  0  0  0  0  0
   56.6710   30.8350   43.0350 Cl  0  0  0  0  0  0  0  0  0  0  0  0
   58.7400   29.7630   44.4610 C   0  0  0  0  0  0  0  0  0  0  0  0
   58.1043   30.7200   47.5421 H   0  0  0  0  0  0  0  0  0  0  0  0
   58.0697   31.9822   48.8254 H   0  0  0  0  0  0  0  0  0  0  0  0
   60.4901   33.5203   47.3749 H   0  0  0  0  0  0  0  0  0  0  0  0
   60.4203   35.2669   45.5942 H   0  0  0  0  0  0  0  0  0  0  0  0
   58.4458   35.4271   44.0741 H   0  0  0  0  0  0  0  0  0  0  0  0
   56.5370   33.8373   44.3319 H   0  0  0  0  0  0  0  0  0  0  0  0
   56.5997   32.0871   46.1114 H   0  0  0  0  0  0  0  0  0  0  0  0
   61.0270   31.0185   45.8651 H   0  0  0  0  0  0  0  0  0  0  0  0
   62.3656   30.0314   46.5634 H   0  0  0  0  0  0  0  0  0  0  0  0
   61.2864   28.8760   44.6469 H   0  0  0  0  0  0  0  0  0  0  0  0
   61.0558   27.9732   46.1919 H   0  0  0  0  0  0  0  0  0  0  0  0
   58.9043   27.4309   46.9629 H   0  0  0  0  0  0  0  0  0  0  0  0
   56.4343   27.4731   46.6137 H   0  0  0  0  0  0  0  0  0  0  0  0
   59.3898   30.4022   43.8452 H   0  0  0  0  0  0  0  0  0  0  0  0
  1  2  2  0
  2  3  1  0
  3  4  1  0
  4  5  2  0
  5  6  1  0
  6  7  2  0
  7  8  1  0
  8  9  2  0
  2 10  1  0
 10 11  1  0
 11 12  1  0
 12 13  1  0
 13 14  2  0
 14 15  1  0
 15 16  2  0
 16 17  1  0
 16 18  1  0
 18 19  1  0
 18 20  2  0
  9  4  1  0
 20 13  1  0
  3 21  1  0
  3 22  1  0
  5 23  1  0
  6 24  1  0
  7 25  1  0
  8 26  1  0
  9 27  1  0
 11 28  1  0
 11 29  1  0
 12 30  1  0
 12 31  1  0
 14 32  1  0
 15 33  1  0
 20 34  1  0
M  CHG  2  10  -1  17  -1
M  END
>  <UniqueID>  (85) 
78

>  <SMILES>  (85) 
O=C(Cc1ccccc1)[N-]CCc1ccc([O-])c(Cl)c1

>  <Energy>  (85) 
28.331868667311426

>  <Genealogy>  (85) 
O=C(Cc1ccccc1)[N-]CCc1ccc([O-])c(Cl)c1 (protonated)
O=C(Cc1ccccc1)[N-]CCc1ccc([O-])c(Cl)c1 (3D coordinates assigned)
O=C(Cc1ccccc1)[N-]CCc1ccc([O-])c(Cl)c1 (optimized conformer: 28.331868667311426 kcal/mol)

>  <smiles>  (85) 
O=C(Cc1ccccc1)NCCc1ccc(O)c(Cl)c1

>  <score_type>  (85) 
oracle

>  <origin>  (85) 
adg

>  <m_score__min__energy>  (85) 
-11.48

>  <m_primary>  (85) 
energy

$$$$
85:0
     RDKit          3D

 50 52  0  0  0  0  0  0  0  0999 V2000
   60.9180   28.4380   50.1540 C   0  0  0  0  0  0  0  0  0  0  0  0
   59.6820   29.0040   49.4540 C   0  0  0  0  0  0  0  0  0  0  0  0
   59.9760   30.2610   48.7520 N   0  0  0  0  0  0  0  0  0  0  0  0
   60.6010   31.3660   49.5010 C   0  0  0  0  0  0  0  0  0  0  0  0
   59.5850   32.2860   50.1170 C   0  0  0  0  0  0  0  0  0  0  0  0
   59.0660   31.9880   51.2260 O   0  0  0  0  0  0  0  0  0  0  0  0
   59.2010   33.4840   49.4330 N   0  0  0  0  0  0  0  0  0  0  0  0
   59.2100   33.6610   48.0070 C   0  0  0  0  0  0  0  0  0  0  0  0
   58.0220   33.5870   47.2570 C   0  0  0  0  0  0  0  0  0  0  0  0
   58.0420   33.7970   45.8760 C   0  0  0  0  0  0  0  0  0  0  0  0
   59.2450   34.0890   45.2310 C   0  0  0  0  0  0  0  0  0  0  0  0
   60.4280   34.1820   45.9670 C   0  0  0  0  0  0  0  0  0  0  0  0
   60.4150   33.9840   47.3530 C   0  0  0  0  0  0  0  0  0  0  0  0
   61.9540   34.1260   48.2700 S   0  0  0  0  0  0  0  0  0  0  0  0
   62.9600   33.4840   46.8980 C   0  0  0  0  0  0  0  0  0  0  0  0
   60.1410   30.1920   47.3240 C   0  0  0  0  0  0  0  0  0  0  0  0
   61.1660   30.7030   46.7970 O   0  0  0  0  0  0  0  0  0  0  0  0
   59.0830   29.6030   46.4700 C   0  0  0  0  0  0  0  0  0  0  0  0
   58.4820   30.3720   45.4600 C   0  0  0  0  0  0  0  0  0  0  0  0
   57.4440   29.8400   44.6920 C   0  0  0  0  0  0  0  0  0  0  0  0
   57.0050   28.5330   44.9110 C   0  0  0  0  0  0  0  0  0  0  0  0
   57.6070   27.7380   45.9000 C   0  0  0  0  0  0  0  0  0  0  0  0
   57.1720   26.3790   46.1120 N   0  0  0  0  0  0  0  0  0  0  0  0
   57.9530   25.2960   46.3190 C   0  0  0  0  0  0  0  0  0  0  0  0
   59.3400   25.3290   46.3820 O   0  0  0  0  0  0  0  0  0  0  0  0
   57.1910   24.1580   46.4920 C   0  0  0  0  0  0  0  0  0  0  0  0
   55.8730   24.5590   46.3940 C   0  0  0  0  0  0  0  0  0  0  0  0
   55.9020   25.9200   46.1660 C   0  0  0  0  0  0  0  0  0  0  0  0
   54.7710   26.7090   45.9920 O   0  0  0  0  0  0  0  0  0  0  0  0
   58.6400   28.2860   46.6800 C   0  0  0  0  0  0  0  0  0  0  0  0
   60.7827   28.4999   51.2439 H   0  0  0  0  0  0  0  0  0  0  0  0
   61.0563   27.3868   49.8608 H   0  0  0  0  0  0  0  0  0  0  0  0
   61.8042   29.0200   49.8608 H   0  0  0  0  0  0  0  0  0  0  0  0
   59.3178   28.2661   48.7241 H   0  0  0  0  0  0  0  0  0  0  0  0
   58.9217   29.2123   50.2212 H   0  0  0  0  0  0  0  0  0  0  0  0
   61.2250   30.9419   50.3015 H   0  0  0  0  0  0  0  0  0  0  0  0
   61.2012   31.9551   48.7919 H   0  0  0  0  0  0  0  0  0  0  0  0
   57.0707   33.3622   47.7615 H   0  0  0  0  0  0  0  0  0  0  0  0
   57.1092   33.7322   45.2966 H   0  0  0  0  0  0  0  0  0  0  0  0
   59.2611   34.2459   44.1424 H   0  0  0  0  0  0  0  0  0  0  0  0
   61.3744   34.4118   45.4556 H   0  0  0  0  0  0  0  0  0  0  0  0
   63.8225   32.9336   47.3020 H   0  0  0  0  0  0  0  0  0  0  0  0
   62.3499   32.8079   46.2810 H   0  0  0  0  0  0  0  0  0  0  0  0
   63.3162   34.3221   46.2810 H   0  0  0  0  0  0  0  0  0  0  0  0
   58.8306   31.3984   45.2730 H   0  0  0  0  0  0  0  0  0  0  0  0
   56.9704   30.4533   43.9113 H   0  0  0  0  0  0  0  0  0  0  0  0
   56.1830   28.1235   44.3055 H   0  0  0  0  0  0  0  0  0  0  0  0
   57.5594   23.1372   46.6717 H   0  0  0  0  0  0  0  0  0  0  0  0
   54.9802   23.9222   46.4803 H   0  0  0  0  0  0  0  0  0  0  0  0
   59.1083   27.6753   47.4660 H   0  0  0  0  0  0  0  0  0  0  0  0
  1  2  1  0
  2  3  1  0
  3  4  1  0
  4  5  1  0
  5  6  2  0
  5  7  1  0
  7  8  1  0
  8  9  2  0
  9 10  1  0
 10 11  2  0
 11 12  1  0
 12 13  2  0
 13 14  1  0
 14 15  1  0
  3 16  1  0
 16 17  2  0
 16 18  1  0
 18 19  2  0
 19 20  1  0
 20 21  2  0
 21 22  1  0
 22 23  1  0
 23 24  1  0
 24 25  1  0
 24 26  2  0
 26 27  1  0
 27 28  2  0
 28 29  1  0
 22 30  2  0
 13  8  1  0
 30 18  1  0
 28 23  1  0
  1 31  1  0
  1 32  1  0
  1 33  1  0
  2 34  1  0
  2 35  1  0
  4 36  1  0
  4 37  1  0
  9 38  1  0
 10 39  1  0
 11 40  1  0
 12 41  1  0
 15 42  1  0
 15 43  1  0
 15 44  1  0
 19 45  1  0
 20 46  1  0
 21 47  1  0
 26 48  1  0
 27 49  1  0
 30 50  1  0
M  CHG  3   7  -1  25  -1  29  -1
M  END
>  <UniqueID>  (86) 
79

>  <SMILES>  (86) 
CCN(CC(=O)[N-]c1ccccc1SC)C(=O)c1cccc(-n2c([O-])ccc2[O-])c1

>  <Energy>  (86) 
86.04502536056405

>  <Genealogy>  (86) 
CCN(CC(=O)[N-]c1ccccc1SC)C(=O)c1cccc(-n2c([O-])ccc2[O-])c1 (protonated)
CCN(CC(=O)[N-]c1ccccc1SC)C(=O)c1cccc(-n2c([O-])ccc2[O-])c1 (3D coordinates assigned)
CCN(CC(=O)[N-]c1ccccc1SC)C(=O)c1cccc(-n2c([O-])ccc2[O-])c1 (optimized conformer: 86.04502536056405 kcal/mol)

>  <smiles>  (86) 
CCN(CC(=O)Nc1ccccc1SC)C(=O)c1cccc(-n2c(O)ccc2O)c1

>  <score_type>  (86) 
oracle

>  <origin>  (86) 
adg

>  <m_score__min__energy>  (86) 
-15.050000000000001

>  <m_primary>  (86) 
energy

$$$$
86:0
     RDKit          3D

 50 52  0  0  1  0  0  0  0  0999 V2000
   56.9340   30.7950   42.9490 C   0  0  0  0  0  0  0  0  0  0  0  0
   56.2420   29.7480   43.7570 C   0  0  0  0  0  0  0  0  0  0  0  0
   56.5820   29.7540   45.1270 O   0  0  0  0  0  0  0  0  0  0  0  0
   57.6040   29.0010   45.6900 C   0  0  0  0  0  0  0  0  0  0  0  0
   57.4030   27.7700   46.2810 C   0  0  0  0  0  0  0  0  0  0  0  0
   58.4490   27.0540   46.8300 C   0  0  0  0  0  0  0  0  0  0  0  0
   59.7250   27.5450   46.8050 C   0  0  0  0  0  0  0  0  0  0  0  0
   59.9410   28.7650   46.2210 C   0  0  0  0  0  0  0  0  0  0  0  0
   61.6270   33.7750   48.0900 C   0  0  0  0  0  0  0  0  0  0  0  0
   59.1230   30.7510   45.0680 N   0  0  0  0  0  0  0  0  0  0  0  0
   58.8800   31.8370   45.7150 C   0  0  0  0  0  0  0  0  0  0  0  0
   57.6150   32.2320   45.9480 N   0  0  0  0  0  0  0  0  0  0  0  0
   57.3160   33.3620   46.6190 C   0  0  0  0  0  0  0  0  0  0  0  0
   58.3590   34.1440   47.0880 C   0  0  0  0  0  0  0  0  0  0  0  0
   59.6420   33.7100   46.8320 C   0  0  0  0  0  0  0  0  0  0  0  0
   60.6520   34.4200   47.2580 N   0  0  0  0  0  0  0  0  0  0  0  0
   58.9000   29.4880   45.6700 C   0  0  0  0  0  0  0  0  0  0  0  0
   62.8370   33.4920   47.5110 C   0  0  0  0  0  0  0  0  0  0  0  0
   63.0990   33.8480   46.0840 C   0  0  0  0  0  0  0  0  0  0  0  0
   63.8210   32.8700   48.2530 C   0  0  0  0  0  0  0  0  0  0  0  0
   63.5660   32.5450   49.5750 C   0  0  0  0  0  0  0  0  0  0  0  0
   64.6350   31.8830   50.3440 C   0  0  0  0  0  0  0  0  0  0  0  0
   62.3320   32.8460   50.1290 C   0  0  0  0  0  0  0  0  0  0  0  0
   61.3560   33.4610   49.3920 C   0  0  0  0  0  0  0  0  0  0  0  0
   60.0120   33.8110   49.9270 C   0  0  0  0  0  0  0  0  0  0  0  0
   59.9200   32.5780   46.1580 N   0  0  0  0  0  0  0  0  0  0  0  0
   57.4135   31.5205   43.6225 H   0  0  0  0  0  0  0  0  0  0  0  0
   57.6985   30.3228   42.3145 H   0  0  0  0  0  0  0  0  0  0  0  0
   56.1999   31.3132   42.3145 H   0  0  0  0  0  0  0  0  0  0  0  0
   55.1570   29.9068   43.6704 H   0  0  0  0  0  0  0  0  0  0  0  0
   56.5644   28.7757   43.3561 H   0  0  0  0  0  0  0  0  0  0  0  0
   56.3871   27.3497   46.3156 H   0  0  0  0  0  0  0  0  0  0  0  0
   58.2529   26.0759   47.2935 H   0  0  0  0  0  0  0  0  0  0  0  0
   60.5572   26.9744   47.2430 H   0  0  0  0  0  0  0  0  0  0  0  0
   60.9607   29.1764   46.1900 H   0  0  0  0  0  0  0  0  0  0  0  0
   56.7760   31.6750   45.6140 H   0  0  0  0  0  0  0  0  0  0  0  0
   56.2699   33.6560   46.7900 H   0  0  0  0  0  0  0  0  0  0  0  0
   58.1706   35.0749   47.6430 H   0  0  0  0  0  0  0  0  0  0  0  0
   63.7505   34.7332   46.0406 H   0  0  0  0  0  0  0  0  0  0  0  0
   63.5931   33.0041   45.5803 H   0  0  0  0  0  0  0  0  0  0  0  0
   62.1463   34.0688   45.5803 H   0  0  0  0  0  0  0  0  0  0  0  0
   64.7955   32.6354   47.7999 H   0  0  0  0  0  0  0  0  0  0  0  0
   64.4409   32.0032   51.4200 H   0  0  0  0  0  0  0  0  0  0  0  0
   64.6581   30.8123   50.0929 H   0  0  0  0  0  0  0  0  0  0  0  0
   65.6038   32.3395   50.0929 H   0  0  0  0  0  0  0  0  0  0  0  0
   62.1333   32.5862   51.1793 H   0  0  0  0  0  0  0  0  0  0  0  0
   60.0417   33.8033   51.0266 H   0  0  0  0  0  0  0  0  0  0  0  0
   59.7268   34.8134   49.5749 H   0  0  0  0  0  0  0  0  0  0  0  0
   59.2742   33.0750   49.5749 H   0  0  0  0  0  0  0  0  0  0  0  0
   60.8750   32.2420   45.9590 H   0  0  0  0  0  0  0  0  0  0  0  0
  1  2  1  0
  2  3  1  0
  3  4  1  0
  4  5  2  0
  5  6  1  0
  6  7  2  0
  7  8  1  0
  8  9  2  0
  9 10  1  0
 10 11  2  0
 11 12  1  0
 12 13  1  0
 13 14  2  0
 14 15  1  0
 15 16  2  0
 16 17  1  0
 17 18  2  0
 18 19  1  0
 18 20  1  0
 20 21  2  0
 21 22  1  0
 21 23  1  0
 23 24  2  0
 24 25  1  0
 15 26  1  0
  9  4  1  0
 26 11  1  0
 24 17  1  0
  1 27  1  0
  1 28  1  0
  1 29  1  0
  2 30  1  0
  2 31  1  0
  5 32  1  0
  6 33  1  0
  7 34  1  0
  8 35  1  0
 12 36  1  0
 13 37  1  0
 14 38  1  0
 19 39  1  0
 19 40  1  0
 19 41  1  0
 20 42  1  0
 22 43  1  0
 22 44  1  0
 22 45  1  0
 23 46  1  0
 25 47  1  0
 25 48  1  0
 25 49  1  0
 26 50  1  0
M  END
>  <smiles>  (87) 
CCOc1ccccc1N=c1[nH]ccc(=Nc2c(C)cc(C)cc2C)[nH]1

>  <score_type>  (87) 
oracle

>  <origin>  (87) 
adg

>  <m_score__min__energy>  (87) 
-8.2799999999999994

>  <m_primary>  (87) 
energy

$$$$
87:0
     RDKit          3D

 62 65  0  0  0  0  0  0  0  0999 V2000
   59.6930   22.1460   44.6010 C   0  0  0  0  0  0  0  0  0  0  0  0
   58.7920   23.1130   45.3120 C   0  0  0  0  0  0  0  0  0  0  0  0
   57.4430   22.8000   45.5210 C   0  0  0  0  0  0  0  0  0  0  0  0
   56.5940   23.7190   46.1440 C   0  0  0  0  0  0  0  0  0  0  0  0
   57.0800   24.9740   46.5540 C   0  0  0  0  0  0  0  0  0  0  0  0
   56.2180   25.8840   47.1700 O   0  0  0  0  0  0  0  0  0  0  0  0
   58.4360   25.3020   46.3420 C   0  0  0  0  0  0  0  0  0  0  0  0
   59.1260   26.8470   46.8640 S   0  0  0  0  0  0  0  0  0  0  0  0
   60.2200   27.3140   45.9410 O   0  0  0  0  0  0  0  0  0  0  0  0
   59.7320   26.6630   48.2280 O   0  0  0  0  0  0  0  0  0  0  0  0
   57.8620   28.0350   46.9800 N   0  0  0  0  0  0  0  0  0  0  0  0
   57.4200   28.9190   45.9370 C   0  0  0  0  0  0  0  0  0  0  0  0
   58.1220   30.0900   45.6050 C   0  0  0  0  0  0  0  0  0  0  0  0
   57.6410   30.9560   44.6090 C   0  0  0  0  0  0  0  0  0  0  0  0
   58.3560   32.2110   44.2910 C   0  0  0  0  0  0  0  0  0  0  0  0
   58.2520   32.6990   43.1360 O   0  0  0  0  0  0  0  0  0  0  0  0
   59.1350   32.9140   45.2670 N   0  0  0  0  0  0  0  0  0  0  0  0
   59.5460   34.3130   45.1490 C   0  0  0  0  0  0  0  0  0  0  0  0
   59.4420   34.9800   46.4780 C   0  0  0  0  0  0  0  0  0  0  0  0
   59.6660   36.2170   46.5810 O   0  0  0  0  0  0  0  0  0  0  0  0
   59.1110   34.2050   47.6350 N   0  0  0  0  0  0  0  0  0  0  0  0
   59.9880   34.0820   48.7990 C   0  0  1  0  0  0  0  0  0  0  0  0
   59.3200   33.3430   49.9450 C   0  0  0  0  0  0  0  0  0  0  0  0
   59.3000   33.8570   51.2570 C   0  0  0  0  0  0  0  0  0  0  0  0
   58.6610   33.1530   52.2820 C   0  0  0  0  0  0  0  0  0  0  0  0
   58.0320   31.9340   52.0130 C   0  0  0  0  0  0  0  0  0  0  0  0
   58.0330   31.4210   50.7150 C   0  0  0  0  0  0  0  0  0  0  0  0
   58.6670   32.1220   49.6840 C   0  0  0  0  0  0  0  0  0  0  0  0
   61.2780   33.3990   48.3960 C   0  0  0  0  0  0  0  0  0  0  0  0
   61.2330   32.2580   47.5730 C   0  0  0  0  0  0  0  0  0  0  0  0
   62.4120   31.6130   47.1900 C   0  0  0  0  0  0  0  0  0  0  0  0
   63.6470   32.0970   47.6190 C   0  0  0  0  0  0  0  0  0  0  0  0
   63.7090   33.2310   48.4350 C   0  0  0  0  0  0  0  0  0  0  0  0
   62.5340   33.8830   48.8250 C   0  0  0  0  0  0  0  0  0  0  0  0
   62.6250   34.9700   49.6320 F   0  0  0  0  0  0  0  0  0  0  0  0
   56.4850   30.6060   43.8940 C   0  0  0  0  0  0  0  0  0  0  0  0
   55.7890   29.4410   44.2140 C   0  0  0  0  0  0  0  0  0  0  0  0
   56.2430   28.6070   45.2410 C   0  0  0  0  0  0  0  0  0  0  0  0
   55.5250   27.4630   45.5620 O   0  0  0  0  0  0  0  0  0  0  0  0
   59.2830   24.3690   45.7220 C   0  0  0  0  0  0  0  0  0  0  0  0
   60.2481   21.5503   45.3406 H   0  0  0  0  0  0  0  0  0  0  0  0
   59.0886   21.4772   43.9706 H   0  0  0  0  0  0  0  0  0  0  0  0
   60.4028   22.7017   43.9706 H   0  0  0  0  0  0  0  0  0  0  0  0
   57.0498   21.8263   45.1933 H   0  0  0  0  0  0  0  0  0  0  0  0
   55.5388   23.4593   46.3149 H   0  0  0  0  0  0  0  0  0  0  0  0
   56.2140   26.8670   46.9040 H   0  0  0  0  0  0  0  0  0  0  0  0
   59.0579   30.3311   46.1304 H   0  0  0  0  0  0  0  0  0  0  0  0
   60.5870   34.3600   44.7966 H   0  0  0  0  0  0  0  0  0  0  0  0
   58.8898   34.8265   44.4309 H   0  0  0  0  0  0  0  0  0  0  0  0
   60.2108   35.0955   49.1638 H   0  0  0  0  0  0  0  0  0  0  0  0
   59.7898   34.8173   51.4758 H   0  0  0  0  0  0  0  0  0  0  0  0
   58.6532   33.5599   53.3040 H   0  0  0  0  0  0  0  0  0  0  0  0
   57.5366   31.3795   52.8237 H   0  0  0  0  0  0  0  0  0  0  0  0
   57.5344   30.4638   50.5025 H   0  0  0  0  0  0  0  0  0  0  0  0
   58.6557   31.7169   48.6614 H   0  0  0  0  0  0  0  0  0  0  0  0
   60.2625   31.8712   47.2288 H   0  0  0  0  0  0  0  0  0  0  0  0
   62.3655   30.7209   46.5482 H   0  0  0  0  0  0  0  0  0  0  0  0
   64.5730   31.5867   47.3155 H   0  0  0  0  0  0  0  0  0  0  0  0
   64.6847   33.6117   48.7714 H   0  0  0  0  0  0  0  0  0  0  0  0
   56.1272   31.2525   43.0791 H   0  0  0  0  0  0  0  0  0  0  0  0
   54.8786   29.1765   43.6562 H   0  0  0  0  0  0  0  0  0  0  0  0
   60.3406   24.6210   45.5546 H   0  0  0  0  0  0  0  0  0  0  0  0
  1  2  1  0
  2  3  2  0
  3  4  1  0
  4  5  2  0
  5  6  1  0
  5  7  1  0
  7  8  1  0
  8  9  2  0
  8 10  2  0
  8 11  1  0
 11 12  1  0
 12 13  2  0
 13 14  1  0
 14 15  1  0
 15 16  2  0
 15 17  1  0
 17 18  1  0
 18 19  1  0
 19 20  2  0
 19 21  1  0
 21 22  1  0
 22 23  1  0
 23 24  2  0
 24 25  1  0
 25 26  2  0
 26 27  1  0
 27 28  2  0
 22 29  1  0
 29 30  2  0
 30 31  1  0
 31 32  2  0
 32 33  1  0
 33 34  2  0
 34 35  1  0
 14 36  2  0
 36 37  1  0
 37 38  2  0
 38 39  1  0
  7 40  2  0
 40  2  1  0
 38 12  1  0
 28 23  1  0
 34 29  1  0
  1 41  1  0
  1 42  1  0
  1 43  1  0
  3 44  1  0
  4 45  1  0
  6 46  1  0
 13 47  1  0
 18 48  1  0
 18 49  1  0
 22 50  1  1
 24 51  1  0
 25 52  1  0
 26 53  1  0
 27 54  1  0
 28 55  1  0
 30 56  1  0
 31 57  1  0
 32 58  1  0
 33 59  1  0
 36 60  1  0
 37 61  1  0
 40 62  1  0
M  CHG  4  11  -1  17  -1  21  -1  39  -1
M  END
>  <UniqueID>  (88) 
80

>  <SMILES>  (88) 
Cc1ccc(O)c(S(=O)(=O)[N-]c2cc(C(=O)[N-]CC(=O)[N-][C@@H](c3ccccc3)c3ccccc3F)ccc2[O-])c1

>  <Energy>  (88) 
74.63377839618532

>  <Genealogy>  (88) 
Cc1ccc(O)c(S(=O)(=O)[N-]c2cc(C(=O)[N-]CC(=O)[N-]C(c3ccccc3)c3ccccc3F)ccc2[O-])c1 (protonated)
Cc1ccc(O)c(S(=O)(=O)[N-]c2cc(C(=O)[N-]CC(=O)[N-][C@@H](c3ccccc3)c3ccccc3F)ccc2[O-])c1 (chirality)
Cc1ccc(O)c(S(=O)(=O)[N-]c2cc(C(=O)[N-]CC(=O)[N-][C@@H](c3ccccc3)c3ccccc3F)ccc2[O-])c1 (3D coordinates assigned)
Cc1ccc(O)c(S(=O)(=O)[N-]c2cc(C(=O)[N-]CC(=O)[N-][C@@H](c3ccccc3)c3ccccc3F)ccc2[O-])c1 (optimized conformer: 74.63377839618532 kcal/mol)

>  <smiles>  (88) 
Cc1ccc(O)c(S(=O)(=O)Nc2cc(C(=O)NCC(=O)NC(c3ccccc3)c3ccccc3F)ccc2O)c1

>  <score_type>  (88) 
oracle

>  <origin>  (88) 
adg

>  <m_score__min__energy>  (88) 
-17.93

>  <m_primary>  (88) 
energy

$$$$
88:0
     RDKit          3D

 43 45  0  0  0  0  0  0  0  0999 V2000
   59.6750   34.0320   48.9220 C   0  0  0  0  0  0  0  0  0  0  0  0
   59.9210   32.5750   48.6640 C   0  0  0  0  0  0  0  0  0  0  0  0
   61.1760   32.1220   48.2300 C   0  0  0  0  0  0  0  0  0  0  0  0
   61.3890   30.7630   47.9850 C   0  0  0  0  0  0  0  0  0  0  0  0
   60.3550   29.8370   48.1650 C   0  0  0  0  0  0  0  0  0  0  0  0
   60.6210   28.4520   47.9060 N   0  0  0  0  0  0  0  0  0  0  0  0
   60.3360   27.6420   46.4000 S   0  0  0  0  0  0  0  0  0  0  0  0
   60.8200   28.5070   45.2680 O   0  0  0  0  0  0  0  0  0  0  0  0
   61.1070   26.3530   46.3800 O   0  0  0  0  0  0  0  0  0  0  0  0
   58.6220   27.2810   46.2340 C   0  0  0  0  0  0  0  0  0  0  0  0
   58.1160   26.0740   46.7320 C   0  0  0  0  0  0  0  0  0  0  0  0
   56.7580   25.7760   46.6070 C   0  0  0  0  0  0  0  0  0  0  0  0
   55.8890   26.6890   45.9990 C   0  0  0  0  0  0  0  0  0  0  0  0
   54.5530   26.3410   45.8300 O   0  0  0  0  0  0  0  0  0  0  0  0
   56.3810   27.9260   45.5370 C   0  0  0  0  0  0  0  0  0  0  0  0
   55.5330   28.9020   44.9200 N   0  0  0  0  0  0  0  0  0  0  0  0
   55.9430   29.8920   43.9670 C   0  0  0  0  0  0  0  0  0  0  0  0
   55.8760   29.6550   42.7320 O   0  0  0  0  0  0  0  0  0  0  0  0
   56.4730   31.1890   44.4190 C   0  0  0  0  0  0  0  0  0  0  0  0
   57.6310   31.3650   45.0730 C   0  0  0  0  0  0  0  0  0  0  0  0
   58.3540   32.6460   45.1900 C   0  0  0  0  0  0  0  0  0  0  0  0
   57.8040   33.8880   44.9450 C   0  0  0  0  0  0  0  0  0  0  0  0
   58.8070   34.7980   45.2030 C   0  0  0  0  0  0  0  0  0  0  0  0
   59.9020   34.0580   45.5980 C   0  0  0  0  0  0  0  0  0  0  0  0
   59.6000   32.7800   45.5860 O   0  0  0  0  0  0  0  0  0  0  0  0
   57.7520   28.1970   45.6270 C   0  0  0  0  0  0  0  0  0  0  0  0
   59.0920   30.2920   48.5900 C   0  0  0  0  0  0  0  0  0  0  0  0
   58.8800   31.6510   48.8380 C   0  0  0  0  0  0  0  0  0  0  0  0
   59.6446   34.2123   50.0067 H   0  0  0  0  0  0  0  0  0  0  0  0
   60.4856   34.6256   48.4743 H   0  0  0  0  0  0  0  0  0  0  0  0
   58.7144   34.3266   48.4743 H   0  0  0  0  0  0  0  0  0  0  0  0
   61.9960   32.8401   48.0819 H   0  0  0  0  0  0  0  0  0  0  0  0
   62.3776   30.4180   47.6478 H   0  0  0  0  0  0  0  0  0  0  0  0
   58.7911   25.3580   47.2235 H   0  0  0  0  0  0  0  0  0  0  0  0
   56.3695   24.8199   46.9878 H   0  0  0  0  0  0  0  0  0  0  0  0
   55.8719   32.0847   44.2034 H   0  0  0  0  0  0  0  0  0  0  0  0
   58.0766   30.4852   45.5603 H   0  0  0  0  0  0  0  0  0  0  0  0
   56.7783   34.1064   44.6129 H   0  0  0  0  0  0  0  0  0  0  0  0
   58.7463   35.8926   45.1122 H   0  0  0  0  0  0  0  0  0  0  0  0
   60.8799   34.4751   45.8803 H   0  0  0  0  0  0  0  0  0  0  0  0
   58.1497   29.1373   45.2176 H   0  0  0  0  0  0  0  0  0  0  0  0
   58.2691   29.5751   48.7273 H   0  0  0  0  0  0  0  0  0  0  0  0
   57.8909   31.9981   49.1716 H   0  0  0  0  0  0  0  0  0  0  0  0
  1  2  1  0
  2  3  2  0
  3  4  1  0
  4  5  2  0
  5  6  1  0
  6  7  1  0
  7  8  2  0
  7  9  2  0
  7 10  1  0
 10 11  2  0
 11 12  1  0
 12 13  2  0
 13 14  1  0
 13 15  1  0
 15 16  1  0
 16 17  1  0
 17 18  2  0
 17 19  1  0
 19 20  2  3
 20 21  1  0
 21 22  2  0
 22 23  1  0
 23 24  2  0
 24 25  1  0
 15 26  2  0
  5 27  1  0
 27 28  2  0
 28  2  1  0
 26 10  1  0
 25 21  1  0
  1 29  1  0
  1 30  1  0
  1 31  1  0
  3 32  1  0
  4 33  1  0
 11 34  1  0
 12 35  1  0
 19 36  1  0
 20 37  1  0
 22 38  1  0
 23 39  1  0
 24 40  1  0
 26 41  1  0
 27 42  1  0
 28 43  1  0
M  CHG  3   6  -1  14  -1  16  -1
M  END
>  <UniqueID>  (89) 
81

>  <SMILES>  (89) 
Cc1ccc([N-]S(=O)(=O)c2ccc([O-])c([N-]C(=O)C=Cc3ccco3)c2)cc1

>  <Energy>  (89) 
83.46204883543807

>  <Genealogy>  (89) 
Cc1ccc([N-]S(=O)(=O)c2ccc([O-])c([N-]C(=O)C=Cc3ccco3)c2)cc1 (protonated)
Cc1ccc([N-]S(=O)(=O)c2ccc([O-])c([N-]C(=O)C=Cc3ccco3)c2)cc1 (3D coordinates assigned)
Cc1ccc([N-]S(=O)(=O)c2ccc([O-])c([N-]C(=O)C=Cc3ccco3)c2)cc1 (optimized conformer: 83.46204883543807 kcal/mol)

>  <smiles>  (89) 
Cc1ccc(NS(=O)(=O)c2ccc(O)c(NC(=O)C=Cc3ccco3)c2)cc1

>  <score_type>  (89) 
oracle

>  <origin>  (89) 
adg

>  <m_score__min__energy>  (89) 
-15.449999999999999

>  <m_primary>  (89) 
energy

$$$$
89:0
     RDKit          3D

 60 62  0  0  0  0  0  0  0  0999 V2000
   59.4140   22.2190   45.0600 C   0  0  0  0  0  0  0  0  0  0  0  0
   58.0770   21.6530   45.5270 C   0  0  0  0  0  0  0  0  0  0  0  0
   56.9310   22.3340   44.8180 C   0  0  0  0  0  0  0  0  0  0  0  0
   57.0170   22.5610   43.4360 C   0  0  0  0  0  0  0  0  0  0  0  0
   55.9940   23.2270   42.7620 C   0  0  0  0  0  0  0  0  0  0  0  0
   54.8780   23.6850   43.4590 C   0  0  0  0  0  0  0  0  0  0  0  0
   54.7640   23.4730   44.8430 C   0  0  0  0  0  0  0  0  0  0  0  0
   53.5800   24.0610   45.5760 C   0  0  0  0  0  0  0  0  0  0  0  0
   52.3390   24.0700   44.6870 C   0  0  0  0  0  0  0  0  0  0  0  0
   55.8020   22.7970   45.5300 C   0  0  0  0  0  0  0  0  0  0  0  0
   55.7600   22.6580   46.9550 N   0  0  0  0  0  0  0  0  0  0  0  0
   56.7060   23.2650   47.8370 C   0  0  0  0  0  0  0  0  0  0  0  0
   57.3920   22.5560   48.6200 O   0  0  0  0  0  0  0  0  0  0  0  0
   56.8810   24.6820   47.8350 N   0  0  0  0  0  0  0  0  0  0  0  0
   57.9630   25.3220   47.0910 C   0  0  0  0  0  0  0  0  0  0  0  0
   57.4270   26.4100   46.1270 C   0  0  0  0  0  0  0  0  0  0  0  0
   56.0490   26.1850   45.9270 O   0  0  0  0  0  0  0  0  0  0  0  0
   58.1180   26.2700   44.7500 C   0  0  0  0  0  0  0  0  0  0  0  0
   57.7710   27.4710   43.8620 C   0  0  0  0  0  0  0  0  0  0  0  0
   58.2110   28.7650   44.4390 N   0  0  0  0  0  0  0  0  0  0  0  0
   57.0410   30.0270   44.1080 S   0  0  0  0  0  0  0  0  0  0  0  0
   56.7290   30.0780   42.6360 O   0  0  0  0  0  0  0  0  0  0  0  0
   55.7640   29.7470   44.8550 O   0  0  0  0  0  0  0  0  0  0  0  0
   57.6780   31.5840   44.6520 C   0  0  0  0  0  0  0  0  0  0  0  0
   57.7920   31.8350   46.0260 C   0  0  0  0  0  0  0  0  0  0  0  0
   58.3050   33.0550   46.4840 C   0  0  0  0  0  0  0  0  0  0  0  0
   58.4180   33.2890   47.8200 F   0  0  0  0  0  0  0  0  0  0  0  0
   58.7100   34.0310   45.5700 C   0  0  0  0  0  0  0  0  0  0  0  0
   58.6070   33.7860   44.1970 C   0  0  0  0  0  0  0  0  0  0  0  0
   58.0940   32.5670   43.7330 C   0  0  0  0  0  0  0  0  0  0  0  0
   58.0190   32.3520   42.3960 F   0  0  0  0  0  0  0  0  0  0  0  0
   58.5800   28.7220   45.8730 C   0  0  0  0  0  0  0  0  0  0  0  0
   57.6350   27.8460   46.7150 C   0  0  0  0  0  0  0  0  0  0  0  0
   60.0279   22.4789   45.9350 H   0  0  0  0  0  0  0  0  0  0  0  0
   59.9394   21.4661   44.4541 H   0  0  0  0  0  0  0  0  0  0  0  0
   59.2391   23.1203   44.4541 H   0  0  0  0  0  0  0  0  0  0  0  0
   58.0460   20.5750   45.3103 H   0  0  0  0  0  0  0  0  0  0  0  0
   57.9776   21.8285   46.6084 H   0  0  0  0  0  0  0  0  0  0  0  0
   57.8988   22.2106   42.8796 H   0  0  0  0  0  0  0  0  0  0  0  0
   56.0683   23.3912   41.6769 H   0  0  0  0  0  0  0  0  0  0  0  0
   54.0795   24.2170   42.9211 H   0  0  0  0  0  0  0  0  0  0  0  0
   53.3761   23.4580   46.4731 H   0  0  0  0  0  0  0  0  0  0  0  0
   53.8193   25.0975   45.8561 H   0  0  0  0  0  0  0  0  0  0  0  0
   51.4370   24.0765   45.3166 H   0  0  0  0  0  0  0  0  0  0  0  0
   52.3494   24.9681   44.0519 H   0  0  0  0  0  0  0  0  0  0  0  0
   52.3364   23.1719   44.0519 H   0  0  0  0  0  0  0  0  0  0  0  0
   58.6592   25.7882   47.8037 H   0  0  0  0  0  0  0  0  0  0  0  0
   58.4710   24.5518   46.4920 H   0  0  0  0  0  0  0  0  0  0  0  0
   55.8240   25.2880   46.2880 H   0  0  0  0  0  0  0  0  0  0  0  0
   59.2078   26.2258   44.8926 H   0  0  0  0  0  0  0  0  0  0  0  0
   57.7667   25.3485   44.2628 H   0  0  0  0  0  0  0  0  0  0  0  0
   58.2602   27.3381   42.8858 H   0  0  0  0  0  0  0  0  0  0  0  0
   56.6754   27.5070   43.7708 H   0  0  0  0  0  0  0  0  0  0  0  0
   57.4765   31.0688   46.7495 H   0  0  0  0  0  0  0  0  0  0  0  0
   59.1093   34.9907   45.9298 H   0  0  0  0  0  0  0  0  0  0  0  0
   58.9300   34.5533   43.4781 H   0  0  0  0  0  0  0  0  0  0  0  0
   59.6001   28.3197   45.9598 H   0  0  0  0  0  0  0  0  0  0  0  0
   58.5071   29.7488   46.2608 H   0  0  0  0  0  0  0  0  0  0  0  0
   58.0570   27.7506   47.7263 H   0  0  0  0  0  0  0  0  0  0  0  0
   56.6523   28.3402   46.7186 H   0  0  0  0  0  0  0  0  0  0  0  0
  1  2  1  0
  2  3  1  0
  3  4  2  0
  4  5  1  0
  5  6  2  0
  6  7  1  0
  7  8  1  0
  8  9  1  0
  7 10  2  0
 10 11  1  0
 11 12  1  0
 12 13  2  0
 12 14  1  0
 14 15  1  0
 15 16  1  0
 16 17  1  0
 16 18  1  0
 18 19  1  0
 19 20  1  0
 20 21  1  0
 21 22  2  0
 21 23  2  0
 21 24  1  0
 24 25  2  0
 25 26  1  0
 26 27  1  0
 26 28  2  0
 28 29  1  0
 29 30  2  0
 30 31  1  0
 20 32  1  0
 32 33  1  0
 10  3  1  0
 33 16  1  0
 30 24  1  0
  1 34  1  0
  1 35  1  0
  1 36  1  0
  2 37  1  0
  2 38  1  0
  4 39  1  0
  5 40  1  0
  6 41  1  0
  8 42  1  0
  8 43  1  0
  9 44  1  0
  9 45  1  0
  9 46  1  0
 15 47  1  0
 15 48  1  0
 17 49  1  0
 18 50  1  0
 18 51  1  0
 19 52  1  0
 19 53  1  0
 25 54  1  0
 28 55  1  0
 29 56  1  0
 32 57  1  0
 32 58  1  0
 33 59  1  0
 33 60  1  0
M  CHG  2  11  -1  14  -1
M  END
>  <UniqueID>  (90) 
82

>  <SMILES>  (90) 
CCc1cccc(CC)c1[N-]C(=O)[N-]CC1(O)CCN(S(=O)(=O)c2cc(F)ccc2F)CC1

>  <Energy>  (90) 
71.23923435314227

>  <Genealogy>  (90) 
CCc1cccc(CC)c1[N-]C(=O)[N-]CC1(O)CCN(S(=O)(=O)c2cc(F)ccc2F)CC1 (protonated)
CCc1cccc(CC)c1[N-]C(=O)[N-]CC1(O)CCN(S(=O)(=O)c2cc(F)ccc2F)CC1 (3D coordinates assigned)
CCc1cccc(CC)c1[N-]C(=O)[N-]CC1(O)CCN(S(=O)(=O)c2cc(F)ccc2F)CC1 (nonaromatic ring conformer: 71.23923435314227 kcal/mol)

>  <smiles>  (90) 
CCc1cccc(CC)c1NC(=O)NCC1(O)CCN(S(=O)(=O)c2cc(F)ccc2F)CC1

>  <score_type>  (90) 
oracle

>  <origin>  (90) 
adg

>  <m_score__min__energy>  (90) 
-13.220000000000001

>  <m_primary>  (90) 
energy

$$$$
90:0
     RDKit          3D

 62 65  0  0  0  0  0  0  0  0999 V2000
   59.3230   28.1860   48.6600 O   0  0  0  0  0  0  0  0  0  0  0  0
   59.4710   28.7750   47.5530 C   0  0  0  0  0  0  0  0  0  0  0  0
   60.3470   29.9950   47.4750 C   0  0  0  0  0  0  0  0  0  0  0  0
   60.3650   30.7920   48.7900 C   0  0  0  0  0  0  0  0  0  0  0  0
   59.1800   31.7580   48.9400 C   0  0  0  0  0  0  0  0  0  0  0  0
   58.8080   31.9390   50.3420 N   0  0  0  0  0  0  0  0  0  0  0  0
   58.9110   33.1930   51.0830 C   0  0  0  0  0  0  0  0  0  0  0  0
   58.2840   32.9150   52.4730 C   0  0  0  0  0  0  0  0  0  0  0  0
   57.7590   31.5570   52.4030 N   0  0  0  0  0  0  0  0  0  0  0  0
   57.0210   30.8770   53.4650 C   0  0  0  0  0  0  0  0  0  0  0  0
   55.6870   30.4110   52.9490 C   0  0  0  0  0  0  0  0  0  0  0  0
   55.1360   29.2060   53.4160 C   0  0  0  0  0  0  0  0  0  0  0  0
   53.8790   28.7870   52.9660 C   0  0  0  0  0  0  0  0  0  0  0  0
   53.1620   29.5700   52.0570 C   0  0  0  0  0  0  0  0  0  0  0  0
   53.7010   30.7740   51.5960 C   0  0  0  0  0  0  0  0  0  0  0  0
   54.9580   31.1970   52.0420 C   0  0  0  0  0  0  0  0  0  0  0  0
   58.0900   31.0220   51.1400 C   0  0  0  0  0  0  0  0  0  0  0  0
   57.7630   29.8660   50.7600 O   0  0  0  0  0  0  0  0  0  0  0  0
   58.8100   28.2860   46.3780 N   0  0  0  0  0  0  0  0  0  0  0  0
   57.9170   27.1640   46.3980 C   0  0  0  0  0  0  0  0  0  0  0  0
   58.3250   25.9790   47.0290 C   0  0  0  0  0  0  0  0  0  0  0  0
   57.4660   24.8790   47.0890 C   0  0  0  0  0  0  0  0  0  0  0  0
   56.1910   24.9570   46.5270 C   0  0  0  0  0  0  0  0  0  0  0  0
   55.7650   26.1400   45.9180 C   0  0  0  0  0  0  0  0  0  0  0  0
   56.6140   27.2560   45.8680 C   0  0  0  0  0  0  0  0  0  0  0  0
   56.1570   28.4820   45.2950 N   0  0  0  0  0  0  0  0  0  0  0  0
   56.9570   29.2320   43.9550 S   0  0  0  0  0  0  0  0  0  0  0  0
   58.1140   28.3720   43.5260 O   0  0  0  0  0  0  0  0  0  0  0  0
   55.9940   29.3390   42.8060 O   0  0  0  0  0  0  0  0  0  0  0  0
   57.5230   30.8450   44.3800 C   0  0  0  0  0  0  0  0  0  0  0  0
   57.6940   31.8130   43.3800 C   0  0  0  0  0  0  0  0  0  0  0  0
   58.1160   33.1040   43.7180 C   0  0  0  0  0  0  0  0  0  0  0  0
   58.3650   33.4320   45.0550 C   0  0  0  0  0  0  0  0  0  0  0  0
   58.1900   32.4710   46.0550 C   0  0  0  0  0  0  0  0  0  0  0  0
   57.7690   31.1800   45.7200 C   0  0  0  0  0  0  0  0  0  0  0  0
   61.3738   29.6776   47.2408 H   0  0  0  0  0  0  0  0  0  0  0  0
   59.9379   30.6507   46.6923 H   0  0  0  0  0  0  0  0  0  0  0  0
   60.3417   30.0802   49.6284 H   0  0  0  0  0  0  0  0  0  0  0  0
   61.2801   31.4024   48.7847 H   0  0  0  0  0  0  0  0  0  0  0  0
   59.4589   32.7338   48.5157 H   0  0  0  0  0  0  0  0  0  0  0  0
   58.3177   31.3303   48.4075 H   0  0  0  0  0  0  0  0  0  0  0  0
   59.9650   33.4889   51.1905 H   0  0  0  0  0  0  0  0  0  0  0  0
   58.3954   34.0139   50.5632 H   0  0  0  0  0  0  0  0  0  0  0  0
   59.0480   32.9910   53.2607 H   0  0  0  0  0  0  0  0  0  0  0  0
   57.4964   33.6433   52.7167 H   0  0  0  0  0  0  0  0  0  0  0  0
   57.6003   30.0089   53.8126 H   0  0  0  0  0  0  0  0  0  0  0  0
   56.8608   31.5772   54.2981 H   0  0  0  0  0  0  0  0  0  0  0  0
   55.6940   28.5905   54.1370 H   0  0  0  0  0  0  0  0  0  0  0  0
   53.4542   27.8393   53.3285 H   0  0  0  0  0  0  0  0  0  0  0  0
   52.1740   29.2387   51.7047 H   0  0  0  0  0  0  0  0  0  0  0  0
   53.1361   31.3904   50.8812 H   0  0  0  0  0  0  0  0  0  0  0  0
   55.3764   32.1481   51.6810 H   0  0  0  0  0  0  0  0  0  0  0  0
   58.8560   28.8540   45.5020 H   0  0  0  0  0  0  0  0  0  0  0  0
   59.3268   25.9158   47.4789 H   0  0  0  0  0  0  0  0  0  0  0  0
   57.7947   23.9509   47.5795 H   0  0  0  0  0  0  0  0  0  0  0  0
   55.5205   24.0858   46.5636 H   0  0  0  0  0  0  0  0  0  0  0  0
   54.7594   26.1968   45.4757 H   0  0  0  0  0  0  0  0  0  0  0  0
   57.4962   31.5574   42.3285 H   0  0  0  0  0  0  0  0  0  0  0  0
   58.2520   33.8612   42.9318 H   0  0  0  0  0  0  0  0  0  0  0  0
   58.6986   34.4463   45.3194 H   0  0  0  0  0  0  0  0  0  0  0  0
   58.3836   32.7304   47.1063 H   0  0  0  0  0  0  0  0  0  0  0  0
   57.6305   30.4258   46.5087 H   0  0  0  0  0  0  0  0  0  0  0  0
  1  2  2  0
  2  3  1  0
  3  4  1  0
  4  5  1  0
  5  6  1  0
  6  7  1  0
  7  8  1  0
  8  9  1  0
  9 10  1  0
 10 11  1  0
 11 12  2  0
 12 13  1  0
 13 14  2  0
 14 15  1  0
 15 16  2  0
  9 17  1  0
 17 18  2  0
  2 19  1  0
 19 20  1  0
 20 21  2  0
 21 22  1  0
 22 23  2  0
 23 24  1  0
 24 25  2  0
 25 26  1  0
 26 27  1  0
 27 28  2  0
 27 29  2  0
 27 30  1  0
 30 31  2  0
 31 32  1  0
 32 33  2  0
 33 34  1  0
 34 35  2  0
 17  6  1  0
 25 20  1  0
 35 30  1  0
 16 11  1  0
  3 36  1  0
  3 37  1  0
  4 38  1  0
  4 39  1  0
  5 40  1  0
  5 41  1  0
  7 42  1  0
  7 43  1  0
  8 44  1  0
  8 45  1  0
 10 46  1  0
 10 47  1  0
 12 48  1  0
 13 49  1  0
 14 50  1  0
 15 51  1  0
 16 52  1  0
 19 53  1  0
 21 54  1  0
 22 55  1  0
 23 56  1  0
 24 57  1  0
 31 58  1  0
 32 59  1  0
 33 60  1  0
 34 61  1  0
 35 62  1  0
M  CHG  1  26  -1
M  END
>  <UniqueID>  (91) 
83

>  <SMILES>  (91) 
O=C(CCCN1CCN(Cc2ccccc2)C1=O)Nc1ccccc1[N-]S(=O)(=O)c1ccccc1

>  <Energy>  (91) 
82.90764567576261

>  <Genealogy>  (91) 
O=C(CCCN1CCN(Cc2ccccc2)C1=O)Nc1ccccc1[N-]S(=O)(=O)c1ccccc1 (protonated)
O=C(CCCN1CCN(Cc2ccccc2)C1=O)Nc1ccccc1[N-]S(=O)(=O)c1ccccc1 (3D coordinates assigned)
O=C(CCCN1CCN(Cc2ccccc2)C1=O)Nc1ccccc1[N-]S(=O)(=O)c1ccccc1 (nonaromatic ring conformer: 82.90764567576261 kcal/mol)

>  <smiles>  (91) 
O=C(CCCN1CCN(Cc2ccccc2)C1=O)Nc1ccccc1NS(=O)(=O)c1ccccc1

>  <score_type>  (91) 
oracle

>  <origin>  (91) 
adg

>  <m_score__min__energy>  (91) 
-11.91

>  <m_primary>  (91) 
energy

$$$$
91:0
     RDKit          3D

 61 64  0  0  0  0  0  0  0  0999 V2000
   57.6300   31.5780   42.7920 C   0  0  0  0  0  0  0  0  0  0  0  0
   56.6900   30.5160   43.3360 C   0  0  0  0  0  0  0  0  0  0  0  0
   56.5970   30.6400   44.7510 O   0  0  0  0  0  0  0  0  0  0  0  0
   57.5650   30.1260   45.6170 C   0  0  0  0  0  0  0  0  0  0  0  0
   57.4170   28.9780   46.1240 O   0  0  0  0  0  0  0  0  0  0  0  0
   58.7280   30.9070   45.9350 N   0  0  0  0  0  0  0  0  0  0  0  0
   60.0100   30.4820   46.1180 C   0  0  0  0  0  0  0  0  0  0  0  0
   60.4950   29.0770   45.8700 C   0  0  0  0  0  0  0  0  0  0  0  0
   60.2040   28.2340   47.0420 N   0  0  0  0  0  0  0  0  0  0  0  0
   60.2780   26.7670   46.8970 C   0  0  0  0  0  0  0  0  0  0  0  0
   58.9110   26.1820   46.6400 C   0  0  0  0  0  0  0  0  0  0  0  0
   58.1780   25.6090   47.6920 C   0  0  0  0  0  0  0  0  0  0  0  0
   56.8580   25.1950   47.4920 C   0  0  0  0  0  0  0  0  0  0  0  0
   56.2460   25.3580   46.2360 C   0  0  0  0  0  0  0  0  0  0  0  0
   54.9090   25.0070   45.9960 O   0  0  0  0  0  0  0  0  0  0  0  0
   54.4960   23.9960   45.0860 C   0  0  0  0  0  0  0  0  0  0  0  0
   56.9870   25.8990   45.1820 C   0  0  0  0  0  0  0  0  0  0  0  0
   58.3080   26.3120   45.3810 C   0  0  0  0  0  0  0  0  0  0  0  0
   59.8010   28.8630   48.2810 C   0  0  0  0  0  0  0  0  0  0  0  0
   58.5740   28.9250   48.5750 O   0  0  0  0  0  0  0  0  0  0  0  0
   60.7980   29.4520   49.2470 C   0  0  0  0  0  0  0  0  0  0  0  0
   60.5240   30.9160   49.4630 C   0  0  0  0  0  0  0  0  0  0  0  0
   59.2100   31.3650   49.6720 C   0  0  0  0  0  0  0  0  0  0  0  0
   58.9560   32.7200   49.9030 C   0  0  0  0  0  0  0  0  0  0  0  0
   60.0130   33.6340   49.9330 C   0  0  0  0  0  0  0  0  0  0  0  0
   61.3240   33.1950   49.7370 C   0  0  0  0  0  0  0  0  0  0  0  0
   61.5820   31.8400   49.5080 C   0  0  0  0  0  0  0  0  0  0  0  0
   60.8710   31.4920   46.4080 N   0  0  0  0  0  0  0  0  0  0  0  0
   60.0880   32.5810   46.3860 C   0  0  0  0  0  0  0  0  0  0  0  0
   60.4760   33.9040   46.5870 C   0  0  0  0  0  0  0  0  0  0  0  0
   59.4840   34.8980   46.4940 C   0  0  0  0  0  0  0  0  0  0  0  0
   58.1450   34.5480   46.2100 C   0  0  0  0  0  0  0  0  0  0  0  0
   57.7870   33.2020   46.0070 C   0  0  0  0  0  0  0  0  0  0  0  0
   58.7980   32.2410   46.0940 C   0  0  0  0  0  0  0  0  0  0  0  0
   58.1031   32.1125   43.6290 H   0  0  0  0  0  0  0  0  0  0  0  0
   58.4064   31.1000   42.1765 H   0  0  0  0  0  0  0  0  0  0  0  0
   57.0613   32.2906   42.1765 H   0  0  0  0  0  0  0  0  0  0  0  0
   55.6927   30.6470   42.8907 H   0  0  0  0  0  0  0  0  0  0  0  0
   57.0789   29.5190   43.0815 H   0  0  0  0  0  0  0  0  0  0  0  0
   59.9836   28.6647   44.9877 H   0  0  0  0  0  0  0  0  0  0  0  0
   61.5809   29.0934   45.6954 H   0  0  0  0  0  0  0  0  0  0  0  0
   60.9394   26.5214   46.0531 H   0  0  0  0  0  0  0  0  0  0  0  0
   60.6729   26.3409   47.8311 H   0  0  0  0  0  0  0  0  0  0  0  0
   58.6457   25.4852   48.6799 H   0  0  0  0  0  0  0  0  0  0  0  0
   56.2954   24.7398   48.3204 H   0  0  0  0  0  0  0  0  0  0  0  0
   54.1384   23.1206   45.6480 H   0  0  0  0  0  0  0  0  0  0  0  0
   53.6836   24.3822   44.4529 H   0  0  0  0  0  0  0  0  0  0  0  0
   55.3464   23.7029   44.4529 H   0  0  0  0  0  0  0  0  0  0  0  0
   56.5274   26.0008   44.1878 H   0  0  0  0  0  0  0  0  0  0  0  0
   58.8779   26.7418   44.5441 H   0  0  0  0  0  0  0  0  0  0  0  0
   60.7242   28.9244   50.2094 H   0  0  0  0  0  0  0  0  0  0  0  0
   61.8085   29.3381   48.8276 H   0  0  0  0  0  0  0  0  0  0  0  0
   58.3767   30.6471   49.6539 H   0  0  0  0  0  0  0  0  0  0  0  0
   57.9242   33.0670   50.0612 H   0  0  0  0  0  0  0  0  0  0  0  0
   59.8118   34.7007   50.1113 H   0  0  0  0  0  0  0  0  0  0  0  0
   62.1545   33.9158   49.7628 H   0  0  0  0  0  0  0  0  0  0  0  0
   62.6167   31.4960   49.3626 H   0  0  0  0  0  0  0  0  0  0  0  0
   61.5215   34.1627   46.8106 H   0  0  0  0  0  0  0  0  0  0  0  0
   59.7529   35.9541   46.6434 H   0  0  0  0  0  0  0  0  0  0  0  0
   57.3769   35.3329   46.1471 H   0  0  0  0  0  0  0  0  0  0  0  0
   56.7476   32.9164   45.7875 H   0  0  0  0  0  0  0  0  0  0  0  0
  1  2  1  0
  2  3  1  0
  3  4  1  0
  4  5  2  0
  4  6  1  0
  6  7  1  0
  7  8  1  0
  8  9  1  0
  9 10  1  0
 10 11  1  0
 11 12  2  0
 12 13  1  0
 13 14  2  0
 14 15  1  0
 15 16  1  0
 14 17  1  0
 17 18  2  0
  9 19  1  0
 19 20  2  0
 19 21  1  0
 21 22  1  0
 22 23  2  0
 23 24  1  0
 24 25  2  0
 25 26  1  0
 26 27  2  0
  7 28  2  0
 28 29  1  0
 29 30  2  0
 30 31  1  0
 31 32  2  0
 32 33  1  0
 33 34  2  0
 34  6  1  0
 18 11  1  0
 27 22  1  0
 34 29  1  0
  1 35  1  0
  1 36  1  0
  1 37  1  0
  2 38  1  0
  2 39  1  0
  8 40  1  0
  8 41  1  0
 10 42  1  0
 10 43  1  0
 12 44  1  0
 13 45  1  0
 16 46  1  0
 16 47  1  0
 16 48  1  0
 17 49  1  0
 18 50  1  0
 21 51  1  0
 21 52  1  0
 23 53  1  0
 24 54  1  0
 25 55  1  0
 26 56  1  0
 27 57  1  0
 30 58  1  0
 31 59  1  0
 32 60  1  0
 33 61  1  0
M  END
>  <UniqueID>  (92) 
84

>  <SMILES>  (92) 
CCOC(=O)n1c(CN(Cc2ccc(OC)cc2)C(=O)Cc2ccccc2)nc2ccccc21

>  <Energy>  (92) 
93.84056827469365

>  <Genealogy>  (92) 
CCOC(=O)n1c(CN(Cc2ccc(OC)cc2)C(=O)Cc2ccccc2)nc2ccccc21 (3D coordinates assigned)
CCOC(=O)n1c(CN(Cc2ccc(OC)cc2)C(=O)Cc2ccccc2)nc2ccccc21 (optimized conformer: 93.84056827469365 kcal/mol)

>  <smiles>  (92) 
CCOC(=O)n1c(CN(Cc2ccc(OC)cc2)C(=O)Cc2ccccc2)nc2ccccc21

>  <score_type>  (92) 
oracle

>  <origin>  (92) 
adg

>  <m_score__min__energy>  (92) 
-8.6400000000000006

>  <m_primary>  (92) 
energy

$$$$
92:0
     RDKit          3D

 56 59  0  0  0  0  0  0  0  0999 V2000
   56.4620   29.9020   43.1680 C   0  0  0  0  0  0  0  0  0  0  0  0
   56.3110   30.5010   44.4520 O   0  0  0  0  0  0  0  0  0  0  0  0
   57.3580   31.0950   45.1750 C   0  0  0  0  0  0  0  0  0  0  0  0
   58.2440   30.2610   45.8680 C   0  0  0  0  0  0  0  0  0  0  0  0
   59.3070   30.8040   46.5970 C   0  0  0  0  0  0  0  0  0  0  0  0
   59.4880   32.1930   46.6540 C   0  0  0  0  0  0  0  0  0  0  0  0
   60.6080   32.7390   47.3620 N   0  0  0  0  0  0  0  0  0  0  0  0
   61.8390   32.7040   46.8770 N   0  0  0  0  0  0  0  0  0  0  0  0
   62.6510   33.2680   47.7920 C   0  0  0  0  0  0  0  0  0  0  0  0
   64.1140   33.4790   47.5920 C   0  0  0  0  0  0  0  0  0  0  0  0
   61.9180   33.6870   48.8850 C   0  0  0  0  0  0  0  0  0  0  0  0
   60.6170   33.3170   48.5890 C   0  0  0  0  0  0  0  0  0  0  0  0
   59.4550   33.4700   49.4980 C   0  0  0  0  0  0  0  0  0  0  0  0
   59.3030   34.5320   50.1550 O   0  0  0  0  0  0  0  0  0  0  0  0
   58.5150   32.4050   49.6960 N   0  0  0  0  0  0  0  0  0  0  0  0
   58.7140   31.2580   50.5350 C   0  0  0  0  0  0  0  0  0  0  0  0
   59.6520   30.2620   50.2080 C   0  0  0  0  0  0  0  0  0  0  0  0
   59.8150   29.1490   51.0380 C   0  0  0  0  0  0  0  0  0  0  0  0
   59.0330   29.0130   52.1870 C   0  0  0  0  0  0  0  0  0  0  0  0
   58.0810   29.9900   52.5120 C   0  0  0  0  0  0  0  0  0  0  0  0
   57.0780   29.7800   53.9440 S   0  0  0  0  0  0  0  0  0  0  0  0
   57.7630   28.8190   54.8760 O   0  0  0  0  0  0  0  0  0  0  0  0
   56.8840   31.0850   54.6650 O   0  0  0  0  0  0  0  0  0  0  0  0
   55.5390   29.1260   53.4780 N   0  0  0  0  0  0  0  0  0  0  0  0
   54.4770   29.9270   52.9270 C   0  0  0  0  0  0  0  0  0  0  0  0
   54.5530   30.4580   51.6270 C   0  0  0  0  0  0  0  0  0  0  0  0
   53.5100   31.2350   51.1170 C   0  0  0  0  0  0  0  0  0  0  0  0
   52.3740   31.5050   51.8990 C   0  0  0  0  0  0  0  0  0  0  0  0
   51.2690   32.3200   51.3500 C   0  0  0  0  0  0  0  0  0  0  0  0
   51.0430   32.3410   50.1080 O   0  0  0  0  0  0  0  0  0  0  0  0
   50.4700   33.0860   52.1960 O   0  0  0  0  0  0  0  0  0  0  0  0
   52.3020   30.9820   53.2030 C   0  0  0  0  0  0  0  0  0  0  0  0
   53.3470   30.2040   53.7110 C   0  0  0  0  0  0  0  0  0  0  0  0
   57.9190   31.1060   51.6780 C   0  0  0  0  0  0  0  0  0  0  0  0
   58.6120   33.0330   45.9520 C   0  0  0  0  0  0  0  0  0  0  0  0
   57.5470   32.4920   45.2230 C   0  0  0  0  0  0  0  0  0  0  0  0
   56.7293   28.8417   43.2872 H   0  0  0  0  0  0  0  0  0  0  0  0
   55.5157   29.9814   42.6128 H   0  0  0  0  0  0  0  0  0  0  0  0
   57.2575   30.4205   42.6128 H   0  0  0  0  0  0  0  0  0  0  0  0
   58.1029   29.1705   45.8388 H   0  0  0  0  0  0  0  0  0  0  0  0
   60.0038   30.1385   47.1277 H   0  0  0  0  0  0  0  0  0  0  0  0
   64.6113   33.5507   48.5706 H   0  0  0  0  0  0  0  0  0  0  0  0
   64.5330   32.6320   47.0290 H   0  0  0  0  0  0  0  0  0  0  0  0
   64.2766   34.4099   47.0290 H   0  0  0  0  0  0  0  0  0  0  0  0
   62.2849   34.1989   49.7868 H   0  0  0  0  0  0  0  0  0  0  0  0
   60.2593   30.3593   49.2960 H   0  0  0  0  0  0  0  0  0  0  0  0
   60.5598   28.3798   50.7859 H   0  0  0  0  0  0  0  0  0  0  0  0
   59.1642   28.1369   52.8391 H   0  0  0  0  0  0  0  0  0  0  0  0
   55.4590   28.0850   53.4370 H   0  0  0  0  0  0  0  0  0  0  0  0
   55.4400   30.2601   51.0073 H   0  0  0  0  0  0  0  0  0  0  0  0
   53.5784   31.6384   50.0959 H   0  0  0  0  0  0  0  0  0  0  0  0
   51.4189   31.1862   53.8263 H   0  0  0  0  0  0  0  0  0  0  0  0
   53.2825   29.8057   54.7343 H   0  0  0  0  0  0  0  0  0  0  0  0
   57.1630   31.8665   51.9231 H   0  0  0  0  0  0  0  0  0  0  0  0
   58.7626   34.1224   45.9744 H   0  0  0  0  0  0  0  0  0  0  0  0
   56.8555   33.1579   44.6860 H   0  0  0  0  0  0  0  0  0  0  0  0
  1  2  1  0
  2  3  1  0
  3  4  2  0
  4  5  1  0
  5  6  2  0
  6  7  1  0
  7  8  1  0
  8  9  2  0
  9 10  1  0
  9 11  1  0
 11 12  2  0
 12 13  1  0
 13 14  2  0
 13 15  1  0
 15 16  1  0
 16 17  2  0
 17 18  1  0
 18 19  2  0
 19 20  1  0
 20 21  1  0
 21 22  2  0
 21 23  2  0
 21 24  1  0
 24 25  1  0
 25 26  2  0
 26 27  1  0
 27 28  2  0
 28 29  1  0
 29 30  2  0
 29 31  1  0
 28 32  1  0
 32 33  2  0
 20 34  2  0
  6 35  1  0
 35 36  2  0
 36  3  1  0
 12  7  1  0
 34 16  1  0
 33 25  1  0
  1 37  1  0
  1 38  1  0
  1 39  1  0
  4 40  1  0
  5 41  1  0
 10 42  1  0
 10 43  1  0
 10 44  1  0
 11 45  1  0
 17 46  1  0
 18 47  1  0
 19 48  1  0
 24 49  1  0
 26 50  1  0
 27 51  1  0
 32 52  1  0
 33 53  1  0
 34 54  1  0
 35 55  1  0
 36 56  1  0
M  CHG  2  15  -1  31  -1
M  END
>  <UniqueID>  (93) 
85

>  <SMILES>  (93) 
COc1ccc(-n2nc(C)cc2C(=O)[N-]c2cccc(S(=O)(=O)Nc3ccc(C(=O)[O-])cc3)c2)cc1

>  <Energy>  (93) 
105.80848182076011

>  <Genealogy>  (93) 
COc1ccc(-n2nc(C)cc2C(=O)[N-]c2cccc(S(=O)(=O)Nc3ccc(C(=O)[O-])cc3)c2)cc1 (protonated)
COc1ccc(-n2nc(C)cc2C(=O)[N-]c2cccc(S(=O)(=O)Nc3ccc(C(=O)[O-])cc3)c2)cc1 (3D coordinates assigned)
COc1ccc(-n2nc(C)cc2C(=O)[N-]c2cccc(S(=O)(=O)Nc3ccc(C(=O)[O-])cc3)c2)cc1 (optimized conformer: 105.80848182076011 kcal/mol)

>  <smiles>  (93) 
COc1ccc(-n2nc(C)cc2C(=O)Nc2cccc(S(=O)(=O)Nc3ccc(C(=O)O)cc3)c2)cc1

>  <score_type>  (93) 
oracle

>  <origin>  (93) 
adg

>  <m_score__min__energy>  (93) 
-13.960000000000001

>  <m_primary>  (93) 
energy

$$$$
93:0
     RDKit          3D

 11 11  0  0  0  0  0  0  0  0999 V2000
   56.5860   30.8660   44.5210 O   0  0  0  0  0  0  0  0  0  0  0  0
   56.8690   29.6890   44.8670 C   0  0  0  0  0  0  0  0  0  0  0  0
   55.8780   28.8390   45.2420 N   0  0  0  0  0  0  0  0  0  0  0  0
   56.1500   27.5630   45.6200 C   0  0  0  0  0  0  0  0  0  0  0  0
   55.1180   26.7130   45.9980 O   0  0  0  0  0  0  0  0  0  0  0  0
   57.4740   27.1140   45.6250 C   0  0  0  0  0  0  0  0  0  0  0  0
   58.4700   27.9620   45.2520 N   0  0  0  0  0  0  0  0  0  0  0  0
   58.1980   29.2410   44.8710 C   0  0  0  0  0  0  0  0  0  0  0  0
   59.1350   30.0120   44.5280 O   0  0  0  0  0  0  0  0  0  0  0  0
   57.7085   26.0829   45.9282 H   0  0  0  0  0  0  0  0  0  0  0  0
   59.4580   27.6200   45.2580 H   0  0  0  0  0  0  0  0  0  0  0  0
  1  2  2  0
  2  3  1  0
  3  4  1  0
  4  5  1  0
  4  6  2  0
  6  7  1  0
  7  8  1  0
  8  9  2  0
  8  2  1  0
  6 10  1  0
  7 11  1  0
M  CHG  2   3  -1   5  -1
M  END
>  <UniqueID>  (94) 
86

>  <SMILES>  (94) 
O=c1[n-]c([O-])c[nH]c1=O

>  <Energy>  (94) 
11.898569222840077

>  <Genealogy>  (94) 
O=c1[n-]c([O-])c[nH]c1=O (protonated)
O=c1[n-]c([O-])c[nH]c1=O (3D coordinates assigned)
O=c1[n-]c([O-])c[nH]c1=O (optimized conformer: 11.898569222840077 kcal/mol)

>  <smiles>  (94) 
O=c1[nH]cc(O)[nH]c1=O

>  <score_type>  (94) 
oracle

>  <origin>  (94) 
adg

>  <m_score__min__energy>  (94) 
-12.02

>  <m_primary>  (94) 
energy

$$$$
94:0
     RDKit          3D

 46 48  0  0  0  0  0  0  0  0999 V2000
   56.1758   30.0033   41.3422 H   0  0  0  0  0  0  0  0  0  0  0  0
   56.6290   30.3970   42.2640 C   0  0  0  0  0  0  0  0  0  0  0  0
   57.3120   31.6140   42.2400 C   0  0  0  0  0  0  0  0  0  0  0  0
   57.3837   32.1856   41.3029 H   0  0  0  0  0  0  0  0  0  0  0  0
   57.9050   32.1070   43.4060 C   0  0  0  0  0  0  0  0  0  0  0  0
   58.4429   33.0662   43.3824 H   0  0  0  0  0  0  0  0  0  0  0  0
   57.8180   31.3850   44.6070 C   0  0  0  0  0  0  0  0  0  0  0  0
   58.4700   31.9180   45.8530 C   0  0  0  0  0  0  0  0  0  0  0  0
   57.9637   31.5041   46.7375 H   0  0  0  0  0  0  0  0  0  0  0  0
   59.5300   31.6245   45.8664 H   0  0  0  0  0  0  0  0  0  0  0  0
   58.3931   33.0152   45.8664 H   0  0  0  0  0  0  0  0  0  0  0  0
   57.0910   30.1750   44.6340 C   0  0  0  0  0  0  0  0  0  0  0  0
   56.9130   29.4680   45.8270 O   0  0  0  0  0  0  0  0  0  0  0  0
   57.2950   28.1280   45.9530 C   0  0  0  0  0  0  0  0  0  0  0  0
   56.3550   27.1480   45.9170 N   0  0  0  0  0  0  0  0  0  0  0  0
   56.6780   25.8360   46.0400 C   0  0  0  0  0  0  0  0  0  0  0  0
   55.7580   24.9120   45.9950 N   0  0  0  0  0  0  0  0  0  0  0  0
   55.6670   23.7930   45.0440 C   0  0  0  0  0  0  0  0  0  0  0  0
   54.5976   23.6606   44.8232 H   0  0  0  0  0  0  0  0  0  0  0  0
   56.1690   22.4630   45.6540 C   0  0  0  0  0  0  0  0  0  0  0  0
   57.0058   22.6741   46.3360 H   0  0  0  0  0  0  0  0  0  0  0  0
   55.3363   21.9919   46.1969 H   0  0  0  0  0  0  0  0  0  0  0  0
   56.6460   21.4960   44.5590 C   0  0  0  0  0  0  0  0  0  0  0  0
   57.7104   21.6804   44.3513 H   0  0  0  0  0  0  0  0  0  0  0  0
   56.5023   20.4629   44.9082 H   0  0  0  0  0  0  0  0  0  0  0  0
   55.9000   21.6870   43.3730 O   0  0  0  0  0  0  0  0  0  0  0  0
   56.2770   22.9010   42.7420 C   0  0  0  0  0  0  0  0  0  0  0  0
   57.2622   22.7575   42.2742 H   0  0  0  0  0  0  0  0  0  0  0  0
   55.4930   23.1376   42.0076 H   0  0  0  0  0  0  0  0  0  0  0  0
   56.3670   24.1060   43.7100 C   0  0  0  0  0  0  0  0  0  0  0  0
   57.4256   24.3339   43.9037 H   0  0  0  0  0  0  0  0  0  0  0  0
   55.8669   24.9682   43.2448 H   0  0  0  0  0  0  0  0  0  0  0  0
   57.9810   25.4820   46.2110 N   0  0  0  0  0  0  0  0  0  0  0  0
   58.2410   24.4750   46.3140 H   0  0  0  0  0  0  0  0  0  0  0  0
   58.9610   26.4240   46.2530 C   0  0  0  0  0  0  0  0  0  0  0  0
   60.0073   26.1186   46.4016 H   0  0  0  0  0  0  0  0  0  0  0  0
   58.6450   27.7820   46.1080 C   0  0  0  0  0  0  0  0  0  0  0  0
   59.7230   28.8310   46.1840 C   0  0  0  0  0  0  0  0  0  0  0  0
   60.4282   28.5661   46.9856 H   0  0  0  0  0  0  0  0  0  0  0  0
   59.2543   29.8040   46.3927 H   0  0  0  0  0  0  0  0  0  0  0  0
   60.4800   28.9260   44.8630 C   0  0  0  0  0  0  0  0  0  0  0  0
   61.5530   29.0607   45.0642 H   0  0  0  0  0  0  0  0  0  0  0  0
   60.3282   28.0018   44.2861 H   0  0  0  0  0  0  0  0  0  0  0  0
   60.1046   29.7841   44.2861 H   0  0  0  0  0  0  0  0  0  0  0  0
   56.5200   29.6780   43.4570 C   0  0  0  0  0  0  0  0  0  0  0  0
   55.9834   28.7178   43.4711 H   0  0  0  0  0  0  0  0  0  0  0  0
  1  2  1  0
  2  3  2  0
  3  4  1  0
  3  5  1  0
  5  6  1  0
  5  7  2  0
  7  8  1  0
  8  9  1  0
  8 10  1  0
  8 11  1  0
  7 12  1  0
 12 13  1  0
 13 14  1  0
 14 15  2  0
 15 16  1  0
 16 17  2  0
 17 18  1  0
 18 19  1  0
 18 20  1  0
 20 21  1  0
 20 22  1  0
 20 23  1  0
 23 24  1  0
 23 25  1  0
 23 26  1  0
 26 27  1  0
 27 28  1  0
 27 29  1  0
 27 30  1  0
 30 31  1  0
 30 32  1  0
 16 33  1  0
 33 34  1  0
 33 35  1  0
 35 36  1  0
 35 37  2  0
 37 38  1  0
 38 39  1  0
 38 40  1  0
 38 41  1  0
 41 42  1  0
 41 43  1  0
 41 44  1  0
 12 45  2  0
 45 46  1  0
 45  2  1  0
 37 14  1  0
 30 18  1  0
M  END
>  <UniqueID>  (95) 
87

>  <SMILES>  (95) 
CCc1c[nH]/c(=N/C2CCOCC2)nc1Oc1ccccc1C

>  <Energy>  (95) 
56.278847481905636

>  <Genealogy>  (95) 
CCc1c[nH]/c(=N/C2CCOCC2)nc1Oc1ccccc1C (cis-trans isomerization)
CCc1c[nH]/c(=N/C2CCOCC2)nc1Oc1ccccc1C (3D coordinates assigned)
CCc1c[nH]/c(=N/C2CCOCC2)nc1Oc1ccccc1C (nonaromatic ring conformer: 56.278847481905636 kcal/mol)

>  <smiles>  (95) 
CCc1c[nH]c(=NC2CCOCC2)nc1Oc1ccccc1C

>  <score_type>  (95) 
oracle

>  <origin>  (95) 
adg

>  <m_score__min__energy>  (95) 
-7.8099999999999996

>  <m_primary>  (95) 
energy

$$$$
