0:0
     RDKit          3D

 51 54  0  0  0  0  0  0  0  0999 V2000
   56.0500   29.3800   43.1540 O   0  0  0  0  0  0  0  0  0  0  0  0
   56.4680   29.4880   44.3380 C   0  0  0  0  0  0  0  0  0  0  0  0
   56.2360   28.4360   45.2860 N   0  0  0  0  0  0  0  0  0  0  0  0
   57.1170   27.3460   45.5910 C   0  0  0  0  0  0  0  0  0  0  0  0
   58.7590   27.4650   45.9310 S   0  0  0  0  0  0  0  0  0  0  0  0
   58.9980   25.8330   46.2410 C   0  0  0  0  0  0  0  0  0  0  0  0
   57.7880   25.1610   46.0780 C   0  0  0  0  0  0  0  0  0  0  0  0
   57.6990   23.6910   46.2190 C   0  0  0  0  0  0  0  0  0  0  0  0
   58.4600   22.8460   45.3930 C   0  0  0  0  0  0  0  0  0  0  0  0
   58.3880   21.4590   45.5470 C   0  0  0  0  0  0  0  0  0  0  0  0
   57.5660   20.9050   46.5320 C   0  0  0  0  0  0  0  0  0  0  0  0
   56.8210   21.7370   47.3700 C   0  0  0  0  0  0  0  0  0  0  0  0
   56.8890   23.1260   47.2180 C   0  0  0  0  0  0  0  0  0  0  0  0
   56.7130   26.0160   45.7240 C   0  0  0  0  0  0  0  0  0  0  0  0
   55.3010   25.5880   45.5980 C   0  0  0  0  0  0  0  0  0  0  0  0
   54.3710   26.3390   45.9920 O   0  0  0  0  0  0  0  0  0  0  0  0
   54.9850   24.3390   45.0760 O   0  0  0  0  0  0  0  0  0  0  0  0
   57.2090   30.7030   44.7500 C   0  0  0  0  0  0  0  0  0  0  0  0
   57.3690   31.7790   43.8590 C   0  0  0  0  0  0  0  0  0  0  0  0
   58.0770   32.9220   44.2440 C   0  0  0  0  0  0  0  0  0  0  0  0
   58.6340   33.0090   45.5260 C   0  0  0  0  0  0  0  0  0  0  0  0
   59.5290   34.4420   46.0230 S   0  0  0  0  0  0  0  0  0  0  0  0
   59.2580   35.5600   45.0530 O   0  0  0  0  0  0  0  0  0  0  0  0
   59.0700   34.8570   47.3920 O   0  0  0  0  0  0  0  0  0  0  0  0
   61.2310   34.0840   46.1100 N   0  0  0  0  0  0  0  0  0  0  0  0
   61.4670   32.8810   46.9030 C   0  0  0  0  0  0  0  0  0  0  0  0
   62.3500   33.2260   48.0660 C   0  0  0  0  0  0  0  0  0  0  0  0
   63.6870   32.7930   48.0920 C   0  0  0  0  0  0  0  0  0  0  0  0
   64.4960   33.0750   49.1970 C   0  0  0  0  0  0  0  0  0  0  0  0
   63.9750   33.7800   50.2860 C   0  0  0  0  0  0  0  0  0  0  0  0
   62.6420   34.2000   50.2740 C   0  0  0  0  0  0  0  0  0  0  0  0
   61.8290   33.9200   49.1700 C   0  0  0  0  0  0  0  0  0  0  0  0
   58.4720   31.9440   46.4210 C   0  0  0  0  0  0  0  0  0  0  0  0
   57.7700   30.7980   46.0360 C   0  0  0  0  0  0  0  0  0  0  0  0
   59.9538   25.3693   46.5263 H   0  0  0  0  0  0  0  0  0  0  0  0
   59.1149   23.2783   44.6222 H   0  0  0  0  0  0  0  0  0  0  0  0
   58.9792   20.8023   44.8919 H   0  0  0  0  0  0  0  0  0  0  0  0
   57.5059   19.8127   46.6472 H   0  0  0  0  0  0  0  0  0  0  0  0
   56.1803   21.3001   48.1501 H   0  0  0  0  0  0  0  0  0  0  0  0
   56.3055   23.7788   47.8839 H   0  0  0  0  0  0  0  0  0  0  0  0
   56.9336   31.7212   42.8505 H   0  0  0  0  0  0  0  0  0  0  0  0
   58.1969   33.7561   43.5370 H   0  0  0  0  0  0  0  0  0  0  0  0
   60.5078   32.4889   47.2721 H   0  0  0  0  0  0  0  0  0  0  0  0
   61.9550   32.1164   46.2808 H   0  0  0  0  0  0  0  0  0  0  0  0
   64.0980   32.2307   47.2406 H   0  0  0  0  0  0  0  0  0  0  0  0
   65.5442   32.7416   49.2095 H   0  0  0  0  0  0  0  0  0  0  0  0
   64.6144   34.0042   51.1526 H   0  0  0  0  0  0  0  0  0  0  0  0
   62.2317   34.7511   51.1330 H   0  0  0  0  0  0  0  0  0  0  0  0
   60.7780   34.2447   49.1670 H   0  0  0  0  0  0  0  0  0  0  0  0
   58.8995   32.0096   47.4324 H   0  0  0  0  0  0  0  0  0  0  0  0
   57.6556   29.9643   46.7444 H   0  0  0  0  0  0  0  0  0  0  0  0
  1  2  2  0
  2  3  1  0
  3  4  1  0
  4  5  1  0
  5  6  1  0
  6  7  2  0
  7  8  1  0
  8  9  2  0
  9 10  1  0
 10 11  2  0
 11 12  1  0
 12 13  2  0
  7 14  1  0
 14 15  1  0
 15 16  2  0
 15 17  1  0
  2 18  1  0
 18 19  2  0
 19 20  1  0
 20 21  2  0
 21 22  1  0
 22 23  2  0
 22 24  2  0
 22 25  1  0
 25 26  1  0
 26 27  1  0
 27 28  2  0
 28 29  1  0
 29 30  2  0
 30 31  1  0
 31 32  2  0
 21 33  1  0
 33 34  2  0
 14  4  2  0
 34 18  1  0
 13  8  1  0
 32 27  1  0
  6 35  1  0
  9 36  1  0
 10 37  1  0
 11 38  1  0
 12 39  1  0
 13 40  1  0
 19 41  1  0
 20 42  1  0
 26 43  1  0
 26 44  1  0
 28 45  1  0
 29 46  1  0
 30 47  1  0
 31 48  1  0
 32 49  1  0
 33 50  1  0
 34 51  1  0
M  CHG  3   3  -1  17  -1  25  -1
M  END
>  <UniqueID>  (1) 
1

>  <SMILES>  (1) 
O=C([N-]c1scc(-c2ccccc2)c1C(=O)[O-])c1ccc(S(=O)(=O)[N-]Cc2ccccc2)cc1

>  <Energy>  (1) 
91.88352478971696

>  <Genealogy>  (1) 
O=C([N-]c1scc(-c2ccccc2)c1C(=O)[O-])c1ccc(S(=O)(=O)[N-]Cc2ccccc2)cc1 (protonated)
O=C([N-]c1scc(-c2ccccc2)c1C(=O)[O-])c1ccc(S(=O)(=O)[N-]Cc2ccccc2)cc1 (3D coordinates assigned)
O=C([N-]c1scc(-c2ccccc2)c1C(=O)[O-])c1ccc(S(=O)(=O)[N-]Cc2ccccc2)cc1 (optimized conformer: 91.88352478971696 kcal/mol)

>  <smiles>  (1) 
O=C(Nc1scc(-c2ccccc2)c1C(=O)O)c1ccc(S(=O)(=O)NCc2ccccc2)cc1

>  <score_type>  (1) 
oracle

>  <origin>  (1) 
adg

>  <m_score__min__energy>  (1) 
-14.779999999999999

>  <m_primary>  (1) 
energy

$$$$
1:0
     RDKit          3D

 70 75  0  0  0  0  0  0  0  0999 V2000
   57.3460   28.8110   52.2880 H   0  0  0  0  0  0  0  0  0  0  0  0
   57.2050   29.7080   51.8340 O   0  0  0  0  0  0  0  0  0  0  0  0
   57.7750   30.8800   52.3340 C   0  0  0  0  0  0  0  0  0  0  0  0
   57.6860   31.1540   53.7060 C   0  0  0  0  0  0  0  0  0  0  0  0
   57.1776   30.4412   54.3719 H   0  0  0  0  0  0  0  0  0  0  0  0
   58.2360   32.3220   54.2350 C   0  0  0  0  0  0  0  0  0  0  0  0
   58.1390   32.5610   55.6040 O   0  0  0  0  0  0  0  0  0  0  0  0
   58.8790   33.2430   53.3930 C   0  0  0  0  0  0  0  0  0  0  0  0
   59.4820   34.4950   53.9660 C   0  0  0  0  0  0  0  0  0  0  0  0
   59.4575   34.4442   55.0646 H   0  0  0  0  0  0  0  0  0  0  0  0
   60.5240   34.5888   53.6264 H   0  0  0  0  0  0  0  0  0  0  0  0
   58.9057   35.3682   53.6264 H   0  0  0  0  0  0  0  0  0  0  0  0
   58.9560   32.9820   52.0140 C   0  0  0  0  0  0  0  0  0  0  0  0
   59.4396   33.7132   51.3496 H   0  0  0  0  0  0  0  0  0  0  0  0
   58.4210   31.7940   51.4700 C   0  0  0  0  0  0  0  0  0  0  0  0
   58.5480   31.5040   50.0160 C   0  0  0  0  0  0  0  0  0  0  0  0
   58.0880   32.3150   49.1730 O   0  0  0  0  0  0  0  0  0  0  0  0
   59.1790   30.2790   49.5090 C   0  0  0  0  0  0  0  0  0  0  0  0
   58.5180   29.3050   48.3110 S   0  0  0  0  0  0  0  0  0  0  0  0
   59.6390   28.0850   48.5660 C   0  0  0  0  0  0  0  0  0  0  0  0
   59.5980   26.9460   47.9450 N   0  0  0  0  0  0  0  0  0  0  0  0
   58.3960   26.3480   47.3700 C   0  0  0  0  0  0  0  0  0  0  0  0
   58.5398   25.2637   47.2535 H   0  0  0  0  0  0  0  0  0  0  0  0
   57.5341   26.5216   48.0311 H   0  0  0  0  0  0  0  0  0  0  0  0
   58.1510   26.9740   46.0280 C   0  0  0  0  0  0  0  0  0  0  0  0
   59.0110   26.7100   44.9480 C   0  0  0  0  0  0  0  0  0  0  0  0
   59.8032   25.9537   45.0499 H   0  0  0  0  0  0  0  0  0  0  0  0
   58.8620   27.4070   43.7430 C   0  0  0  0  0  0  0  0  0  0  0  0
   59.5287   27.1866   42.8963 H   0  0  0  0  0  0  0  0  0  0  0  0
   57.8680   28.3830   43.6120 C   0  0  0  0  0  0  0  0  0  0  0  0
   57.7627   28.9375   42.6678 H   0  0  0  0  0  0  0  0  0  0  0  0
   57.0070   28.6540   44.6830 C   0  0  0  0  0  0  0  0  0  0  0  0
   55.9770   29.6970   44.5560 C   0  0  0  0  0  0  0  0  0  0  0  0
   54.7670   29.3490   44.4930 O   0  0  0  0  0  0  0  0  0  0  0  0
   56.3020   31.0950   44.4830 N   0  0  0  0  0  0  0  0  0  0  0  0
   57.2400   31.7160   45.1370 C   0  0  0  0  0  0  0  0  0  0  0  0
   57.1690   33.0480   45.3930 N   0  0  0  0  0  0  0  0  0  0  0  0
   58.2750   33.2620   46.1210 C   0  0  0  0  0  0  0  0  0  0  0  0
   58.7110   34.4610   46.6800 C   0  0  0  0  0  0  0  0  0  0  0  0
   58.1456   35.3939   46.5385 H   0  0  0  0  0  0  0  0  0  0  0  0
   59.9000   34.4370   47.4320 C   0  0  0  0  0  0  0  0  0  0  0  0
   60.2795   35.3662   47.8821 H   0  0  0  0  0  0  0  0  0  0  0  0
   60.6150   33.2220   47.6150 C   0  0  0  0  0  0  0  0  0  0  0  0
   61.8280   33.2000   48.3880 N   0  0  0  0  0  0  0  0  0  0  0  0
   63.1200   32.9420   47.7550 C   0  0  0  0  0  0  0  0  0  0  0  0
   62.9590   32.5008   46.7603 H   0  0  0  0  0  0  0  0  0  0  0  0
   63.6726   33.8876   47.6527 H   0  0  0  0  0  0  0  0  0  0  0  0
   63.9310   31.9680   48.6210 C   0  0  0  0  0  0  0  0  0  0  0  0
   63.4658   30.9731   48.5599 H   0  0  0  0  0  0  0  0  0  0  0  0
   64.9612   31.9624   48.2353 H   0  0  0  0  0  0  0  0  0  0  0  0
   63.9910   32.3750   50.0430 N   0  0  0  0  0  0  0  0  0  0  0  0
   64.9100   33.5050   50.2650 C   0  0  0  0  0  0  0  0  0  0  0  0
   65.0401   33.6650   51.3455 H   0  0  0  0  0  0  0  0  0  0  0  0
   65.8848   33.2801   49.8076 H   0  0  0  0  0  0  0  0  0  0  0  0
   64.4912   34.4135   49.8076 H   0  0  0  0  0  0  0  0  0  0  0  0
   62.6500   32.6130   50.6180 C   0  0  0  0  0  0  0  0  0  0  0  0
   62.1082   31.6565   50.6581 H   0  0  0  0  0  0  0  0  0  0  0  0
   62.7871   33.0415   51.6218 H   0  0  0  0  0  0  0  0  0  0  0  0
   61.8280   33.6100   49.7930 C   0  0  0  0  0  0  0  0  0  0  0  0
   60.7942   33.6316   50.1683 H   0  0  0  0  0  0  0  0  0  0  0  0
   62.2722   34.6124   49.8817 H   0  0  0  0  0  0  0  0  0  0  0  0
   60.1360   32.0300   47.0260 C   0  0  0  0  0  0  0  0  0  0  0  0
   60.6758   31.0794   47.1481 H   0  0  0  0  0  0  0  0  0  0  0  0
   58.9600   32.0980   46.2870 C   0  0  0  0  0  0  0  0  0  0  0  0
   58.3250   31.0920   45.6720 N   0  0  0  0  0  0  0  0  0  0  0  0
   57.1470   27.9480   45.8870 C   0  0  0  0  0  0  0  0  0  0  0  0
   56.4671   28.1577   46.7259 H   0  0  0  0  0  0  0  0  0  0  0  0
   60.5110   28.3800   49.5570 N   0  0  0  0  0  0  0  0  0  0  0  0
   60.2530   29.6100   50.0870 C   0  0  0  0  0  0  0  0  0  0  0  0
   60.8474   30.0392   50.9070 H   0  0  0  0  0  0  0  0  0  0  0  0
  1  2  1  0
  2  3  1  0
  3  4  2  0
  4  5  1  0
  4  6  1  0
  6  7  1  0
  6  8  2  0
  8  9  1  0
  9 10  1  0
  9 11  1  0
  9 12  1  0
  8 13  1  0
 13 14  1  0
 13 15  2  0
 15 16  1  0
 16 17  2  0
 16 18  1  0
 18 19  1  0
 19 20  1  0
 20 21  2  0
 21 22  1  0
 22 23  1  0
 22 24  1  0
 22 25  1  0
 25 26  2  0
 26 27  1  0
 26 28  1  0
 28 29  1  0
 28 30  2  0
 30 31  1  0
 30 32  1  0
 32 33  1  0
 33 34  2  0
 33 35  1  0
 35 36  2  3
 36 37  1  0
 37 38  1  0
 38 39  2  0
 39 40  1  0
 39 41  1  0
 41 42  1  0
 41 43  2  0
 43 44  1  0
 44 45  1  0
 45 46  1  0
 45 47  1  0
 45 48  1  0
 48 49  1  0
 48 50  1  0
 48 51  1  0
 51 52  1  0
 52 53  1  0
 52 54  1  0
 52 55  1  0
 51 56  1  0
 56 57  1  0
 56 58  1  0
 56 59  1  0
 59 60  1  0
 59 61  1  0
 43 62  1  0
 62 63  1  0
 62 64  2  0
 64 65  1  0
 32 66  2  0
 66 67  1  0
 20 68  1  0
 68 69  1  0
 69 70  1  0
 15  3  1  0
 69 18  2  0
 66 25  1  0
 65 36  1  0
 64 38  1  0
 59 44  1  0
M  CHG  4   7  -1  37  -1  65  -1  68  -1
M  END
>  <UniqueID>  (2) 
2

>  <SMILES>  (2) 
Cc1cc(C(=O)c2c[n-]/c(=N\Cc3cccc(C(=O)N=c4[n-]c5ccc(N6CCN(C)CC6)cc5[n-]4)c3)s2)c(O)cc1[O-]

>  <Energy>  (2) 
167.84182762938838

>  <Genealogy>  (2) 
Cc1cc(C(=O)c2c[n-]c(=NCc3cccc(C(=O)N=c4[n-]c5ccc(N6CCN(C)CC6)cc5[n-]4)c3)s2)c(O)cc1[O-] (protonated)
Cc1cc(C(=O)c2c[n-]/c(=N\Cc3cccc(C(=O)N=c4[n-]c5ccc(N6CCN(C)CC6)cc5[n-]4)c3)s2)c(O)cc1[O-] (cis-trans isomerization)
Cc1cc(C(=O)c2c[n-]/c(=N\Cc3cccc(C(=O)N=c4[n-]c5ccc(N6CCN(C)CC6)cc5[n-]4)c3)s2)c(O)cc1[O-] (3D coordinates assigned)
Cc1cc(C(=O)c2c[n-]/c(=N\Cc3cccc(C(=O)N=c4[n-]c5ccc(N6CCN(C)CC6)cc5[n-]4)c3)s2)c(O)cc1[O-] (nonaromatic ring conformer: 167.84182762938838 kcal/mol)

>  <smiles>  (2) 
Cc1cc(C(=O)c2c[nH]c(=NCc3cccc(C(=O)N=c4[nH]c5ccc(N6CCN(C)CC6)cc5[nH]4)c3)s2)c(O)cc1O

>  <score_type>  (2) 
oracle

>  <origin>  (2) 
adg

>  <m_score__min__energy>  (2) 
-15.69

>  <m_primary>  (2) 
energy

$$$$
2:0
     RDKit          3D

 35 37  0  0  0  0  0  0  0  0999 V2000
   57.0190   26.4890   44.1860 H   0  0  0  0  0  0  0  0  0  0  0  0
   57.3260   25.5720   43.8830 O   0  0  0  0  0  0  0  0  0  0  0  0
   56.7230   24.4080   44.3580 C   0  0  0  0  0  0  0  0  0  0  0  0
   57.0140   23.1700   43.7660 C   0  0  0  0  0  0  0  0  0  0  0  0
   57.7265   23.1161   42.9297 H   0  0  0  0  0  0  0  0  0  0  0  0
   56.4020   22.0060   44.2350 C   0  0  0  0  0  0  0  0  0  0  0  0
   56.6398   21.0359   43.7743 H   0  0  0  0  0  0  0  0  0  0  0  0
   55.4880   22.0730   45.2890 C   0  0  0  0  0  0  0  0  0  0  0  0
   54.9996   21.1564   45.6512 H   0  0  0  0  0  0  0  0  0  0  0  0
   55.1930   23.3020   45.8840 C   0  0  0  0  0  0  0  0  0  0  0  0
   54.4610   23.3519   46.7035 H   0  0  0  0  0  0  0  0  0  0  0  0
   55.8290   24.4780   45.4390 C   0  0  0  0  0  0  0  0  0  0  0  0
   55.5200   25.7650   46.0040 N   0  0  0  0  0  0  0  0  0  0  0  0
   56.2760   26.8240   45.9930 C   0  0  0  0  0  0  0  0  0  0  0  0
   57.4740   26.8470   46.6380 N   0  0  0  0  0  0  0  0  0  0  0  0
   58.2550   27.9540   46.5920 C   0  0  0  0  0  0  0  0  0  0  0  0
   59.3580   27.9720   47.1960 O   0  0  0  0  0  0  0  0  0  0  0  0
   57.8470   29.0410   45.8930 N   0  0  0  0  0  0  0  0  0  0  0  0
   56.6570   29.0240   45.2340 C   0  0  0  0  0  0  0  0  0  0  0  0
   56.2530   30.0550   44.5530 N   0  0  0  0  0  0  0  0  0  0  0  0
   57.1040   30.8700   43.6870 C   0  0  0  0  0  0  0  0  0  0  0  0
   57.8980   30.2384   43.2619 H   0  0  0  0  0  0  0  0  0  0  0  0
   56.4870   31.2971   42.8827 H   0  0  0  0  0  0  0  0  0  0  0  0
   57.7310   31.9950   44.4690 C   0  0  0  0  0  0  0  0  0  0  0  0
   57.7800   31.9510   45.8720 C   0  0  0  0  0  0  0  0  0  0  0  0
   57.3417   31.0970   46.4093 H   0  0  0  0  0  0  0  0  0  0  0  0
   58.3840   32.9890   46.5880 C   0  0  0  0  0  0  0  0  0  0  0  0
   58.4187   32.9504   47.6868 H   0  0  0  0  0  0  0  0  0  0  0  0
   58.9440   34.0760   45.9100 C   0  0  0  0  0  0  0  0  0  0  0  0
   59.7010   35.3770   46.8110 Cl  0  0  0  0  0  0  0  0  0  0  0  0
   58.9000   34.1250   44.5140 C   0  0  0  0  0  0  0  0  0  0  0  0
   59.3390   34.9810   43.9806 H   0  0  0  0  0  0  0  0  0  0  0  0
   58.2990   33.0880   43.7940 C   0  0  0  0  0  0  0  0  0  0  0  0
   58.2709   33.1283   42.6951 H   0  0  0  0  0  0  0  0  0  0  0  0
   55.8800   27.9130   45.2860 N   0  0  0  0  0  0  0  0  0  0  0  0
  1  2  1  0
  2  3  1  0
  3  4  2  0
  4  5  1  0
  4  6  1  0
  6  7  1  0
  6  8  2  0
  8  9  1  0
  8 10  1  0
 10 11  1  0
 10 12  2  0
 12 13  1  0
 13 14  2  0
 14 15  1  0
 15 16  1  0
 16 17  2  0
 16 18  1  0
 18 19  1  0
 19 20  2  0
 20 21  1  0
 21 22  1  0
 21 23  1  0
 21 24  1  0
 24 25  2  0
 25 26  1  0
 25 27  1  0
 27 28  1  0
 27 29  2  0
 29 30  1  0
 29 31  1  0
 31 32  1  0
 31 33  2  0
 33 34  1  0
 19 35  1  0
 12  3  1  0
 35 14  1  0
 33 24  1  0
M  CHG  3  15  -1  18  -1  35  -1
M  END
>  <UniqueID>  (3) 
3

>  <SMILES>  (3) 
O=c1[n-]/c(=N\Cc2ccc(Cl)cc2)[n-]/c(=N/c2ccccc2O)[n-]1

>  <Energy>  (3) 
44.02883798998394

>  <Genealogy>  (3) 
O=c1[n-]c(=NCc2ccc(Cl)cc2)[n-]c(=Nc2ccccc2O)[n-]1 (protonated)
O=c1[n-]/c(=N\Cc2ccc(Cl)cc2)[n-]/c(=N/c2ccccc2O)[n-]1 (cis-trans isomerization)
O=c1[n-]/c(=N\Cc2ccc(Cl)cc2)[n-]/c(=N/c2ccccc2O)[n-]1 (3D coordinates assigned)
O=c1[n-]/c(=N\Cc2ccc(Cl)cc2)[n-]/c(=N/c2ccccc2O)[n-]1 (optimized conformer: 44.02883798998394 kcal/mol)

>  <smiles>  (3) 
O=c1[nH]c(=NCc2ccc(Cl)cc2)[nH]c(=Nc2ccccc2O)[nH]1

>  <score_type>  (3) 
oracle

>  <origin>  (3) 
adg

>  <m_score__min__energy>  (3) 
-13.41

>  <m_primary>  (3) 
energy

$$$$
3:0
     RDKit          3D

 29 30  0  0  0  0  0  0  0  0999 V2000
   55.6870   28.6610   44.8810 N   0  0  0  0  0  0  0  0  0  0  0  0
   56.4840   27.7120   45.5970 C   0  0  0  0  0  0  0  0  0  0  0  0
   57.8590   27.9400   45.7620 C   0  0  0  0  0  0  0  0  0  0  0  0
   58.6550   27.0180   46.4540 C   0  0  0  0  0  0  0  0  0  0  0  0
   60.3820   27.3100   46.6370 S   0  0  0  0  0  0  0  0  0  0  0  0
   60.7060   27.3750   48.1030 O   0  0  0  0  0  0  0  0  0  0  0  0
   61.1790   26.2010   46.0090 O   0  0  0  0  0  0  0  0  0  0  0  0
   60.8150   28.8150   45.8880 N   0  0  0  0  0  0  0  0  0  0  0  0
   60.3570   30.1010   46.3480 C   0  0  0  0  0  0  0  0  0  0  0  0
   60.8780   30.6990   47.5130 C   0  0  0  0  0  0  0  0  0  0  0  0
   60.4210   31.9510   47.9330 C   0  0  0  0  0  0  0  0  0  0  0  0
   59.4360   32.6190   47.2020 C   0  0  0  0  0  0  0  0  0  0  0  0
   58.9070   32.0350   46.0490 C   0  0  0  0  0  0  0  0  0  0  0  0
   59.3610   30.7820   45.6230 C   0  0  0  0  0  0  0  0  0  0  0  0
   58.8340   30.2380   44.4970 F   0  0  0  0  0  0  0  0  0  0  0  0
   58.0700   25.8660   46.9950 C   0  0  0  0  0  0  0  0  0  0  0  0
   56.7020   25.6330   46.8360 C   0  0  0  0  0  0  0  0  0  0  0  0
   55.9070   26.5500   46.1390 C   0  0  0  0  0  0  0  0  0  0  0  0
   54.5470   26.2990   45.9900 O   0  0  0  0  0  0  0  0  0  0  0  0
   54.7640   28.9810   45.2500 H   0  0  0  0  0  0  0  0  0  0  0  0
   56.0140   29.0510   43.9690 H   0  0  0  0  0  0  0  0  0  0  0  0
   58.3152   28.8498   45.3447 H   0  0  0  0  0  0  0  0  0  0  0  0
   61.5100   28.7670   45.1100 H   0  0  0  0  0  0  0  0  0  0  0  0
   61.6503   30.1762   48.0962 H   0  0  0  0  0  0  0  0  0  0  0  0
   60.8378   32.4113   48.8410 H   0  0  0  0  0  0  0  0  0  0  0  0
   59.0772   33.6043   47.5342 H   0  0  0  0  0  0  0  0  0  0  0  0
   58.1311   32.5617   45.4740 H   0  0  0  0  0  0  0  0  0  0  0  0
   58.6893   25.1432   47.5463 H   0  0  0  0  0  0  0  0  0  0  0  0
   56.2478   24.7254   47.2602 H   0  0  0  0  0  0  0  0  0  0  0  0
  1  2  1  0
  2  3  2  0
  3  4  1  0
  4  5  1  0
  5  6  2  0
  5  7  2  0
  5  8  1  0
  8  9  1  0
  9 10  2  0
 10 11  1  0
 11 12  2  0
 12 13  1  0
 13 14  2  0
 14 15  1  0
  4 16  2  0
 16 17  1  0
 17 18  2  0
 18 19  1  0
 18  2  1  0
 14  9  1  0
  1 20  1  0
  1 21  1  0
  3 22  1  0
  8 23  1  0
 10 24  1  0
 11 25  1  0
 12 26  1  0
 13 27  1  0
 16 28  1  0
 17 29  1  0
M  CHG  1  19  -1
M  END
>  <UniqueID>  (4) 
4

>  <SMILES>  (4) 
Nc1cc(S(=O)(=O)Nc2ccccc2F)ccc1[O-]

>  <Energy>  (4) 
32.504699476635714

>  <Genealogy>  (4) 
Nc1cc(S(=O)(=O)Nc2ccccc2F)ccc1[O-] (protonated)
Nc1cc(S(=O)(=O)Nc2ccccc2F)ccc1[O-] (3D coordinates assigned)
Nc1cc(S(=O)(=O)Nc2ccccc2F)ccc1[O-] (optimized conformer: 32.504699476635714 kcal/mol)

>  <smiles>  (4) 
Nc1cc(S(=O)(=O)Nc2ccccc2F)ccc1O

>  <score_type>  (4) 
oracle

>  <origin>  (4) 
adg

>  <m_score__min__energy>  (4) 
-9.6999999999999993

>  <m_primary>  (4) 
energy

$$$$
4:0
     RDKit          3D

 44 46  0  0  0  0  0  0  0  0999 V2000
   57.6390   29.4180   51.5340 O   0  0  0  0  0  0  0  0  0  0  0  0
   57.5420   30.6660   51.3900 C   0  0  0  0  0  0  0  0  0  0  0  0
   56.3180   31.3760   51.8760 C   0  0  0  0  0  0  0  0  0  0  0  0
   55.2200   30.4680   51.9810 O   0  0  0  0  0  0  0  0  0  0  0  0
   53.8940   30.8240   52.2760 C   0  0  0  0  0  0  0  0  0  0  0  0
   53.1110   31.6100   51.4060 C   0  0  0  0  0  0  0  0  0  0  0  0
   51.7940   31.9360   51.7400 C   0  0  0  0  0  0  0  0  0  0  0  0
   51.0290   32.7090   50.8750 O   0  0  0  0  0  0  0  0  0  0  0  0
   51.2450   31.4840   52.9410 C   0  0  0  0  0  0  0  0  0  0  0  0
   52.0110   30.7090   53.8120 C   0  0  0  0  0  0  0  0  0  0  0  0
   53.3430   30.3810   53.4900 C   0  0  0  0  0  0  0  0  0  0  0  0
   54.1380   29.5970   54.3410 O   0  0  0  0  0  0  0  0  0  0  0  0
   54.1760   28.1970   54.3290 C   0  0  0  0  0  0  0  0  0  0  0  0
   53.0250   27.4930   54.7040 C   0  0  0  0  0  0  0  0  0  0  0  0
   53.0290   26.0960   54.7330 C   0  0  0  0  0  0  0  0  0  0  0  0
   54.1810   25.3930   54.3760 C   0  0  0  0  0  0  0  0  0  0  0  0
   55.3270   26.0860   53.9760 C   0  0  0  0  0  0  0  0  0  0  0  0
   55.3310   27.4850   53.9320 C   0  0  0  0  0  0  0  0  0  0  0  0
   56.4730   28.1380   53.4710 O   0  0  0  0  0  0  0  0  0  0  0  0
   58.5980   31.4080   50.7790 N   0  0  0  0  0  0  0  0  0  0  0  0
   59.2280   31.0120   49.2170 S   0  0  0  0  0  0  0  0  0  0  0  0
   58.5110   29.8050   48.6840 O   0  0  0  0  0  0  0  0  0  0  0  0
   60.6910   30.6860   49.3370 O   0  0  0  0  0  0  0  0  0  0  0  0
   58.9770   32.3640   48.1180 C   0  0  0  0  0  0  0  0  0  0  0  0
   58.1940   32.2130   46.9650 C   0  0  0  0  0  0  0  0  0  0  0  0
   58.0140   33.2920   46.0930 C   0  0  0  0  0  0  0  0  0  0  0  0
   58.6160   34.5230   46.3680 C   0  0  0  0  0  0  0  0  0  0  0  0
   59.4020   34.6770   47.5140 C   0  0  0  0  0  0  0  0  0  0  0  0
   59.5840   33.5990   48.3870 C   0  0  0  0  0  0  0  0  0  0  0  0
   56.5219   31.8130   52.8647 H   0  0  0  0  0  0  0  0  0  0  0  0
   56.0573   32.1671   51.1575 H   0  0  0  0  0  0  0  0  0  0  0  0
   53.5395   31.9688   50.4585 H   0  0  0  0  0  0  0  0  0  0  0  0
   50.2071   31.7392   53.2010 H   0  0  0  0  0  0  0  0  0  0  0  0
   51.5727   30.3519   54.7556 H   0  0  0  0  0  0  0  0  0  0  0  0
   52.1124   28.0430   54.9773 H   0  0  0  0  0  0  0  0  0  0  0  0
   52.1239   25.5499   55.0373 H   0  0  0  0  0  0  0  0  0  0  0  0
   54.1868   24.2935   54.4095 H   0  0  0  0  0  0  0  0  0  0  0  0
   56.2320   25.5281   53.6938 H   0  0  0  0  0  0  0  0  0  0  0  0
   56.4480   29.0700   53.0780 H   0  0  0  0  0  0  0  0  0  0  0  0
   57.7205   31.2447   46.7456 H   0  0  0  0  0  0  0  0  0  0  0  0
   57.3979   33.1714   45.1897 H   0  0  0  0  0  0  0  0  0  0  0  0
   58.4714   35.3711   45.6825 H   0  0  0  0  0  0  0  0  0  0  0  0
   59.8772   35.6455   47.7292 H   0  0  0  0  0  0  0  0  0  0  0  0
   60.2049   33.7206   49.2868 H   0  0  0  0  0  0  0  0  0  0  0  0
  1  2  2  0
  2  3  1  0
  3  4  1  0
  4  5  1  0
  5  6  2  0
  6  7  1  0
  7  8  1  0
  7  9  2  0
  9 10  1  0
 10 11  2  0
 11 12  1  0
 12 13  1  0
 13 14  2  0
 14 15  1  0
 15 16  2  0
 16 17  1  0
 17 18  2  0
 18 19  1  0
  2 20  1  0
 20 21  1  0
 21 22  2  0
 21 23  2  0
 21 24  1  0
 24 25  2  0
 25 26  1  0
 26 27  2  0
 27 28  1  0
 28 29  2  0
 11  5  1  0
 18 13  1  0
 29 24  1  0
  3 30  1  0
  3 31  1  0
  6 32  1  0
  9 33  1  0
 10 34  1  0
 14 35  1  0
 15 36  1  0
 16 37  1  0
 17 38  1  0
 19 39  1  0
 25 40  1  0
 26 41  1  0
 27 42  1  0
 28 43  1  0
 29 44  1  0
M  CHG  2   8  -1  20  -1
M  END
>  <UniqueID>  (5) 
5

>  <SMILES>  (5) 
O=C(COc1cc([O-])ccc1Oc1ccccc1O)[N-]S(=O)(=O)c1ccccc1

>  <Energy>  (5) 
56.6513477546285

>  <Genealogy>  (5) 
O=C(COc1cc([O-])ccc1Oc1ccccc1O)[N-]S(=O)(=O)c1ccccc1 (protonated)
O=C(COc1cc([O-])ccc1Oc1ccccc1O)[N-]S(=O)(=O)c1ccccc1 (3D coordinates assigned)
O=C(COc1cc([O-])ccc1Oc1ccccc1O)[N-]S(=O)(=O)c1ccccc1 (optimized conformer: 56.6513477546285 kcal/mol)

>  <smiles>  (5) 
O=C(COc1cc(O)ccc1Oc1ccccc1O)NS(=O)(=O)c1ccccc1

>  <score_type>  (5) 
oracle

>  <origin>  (5) 
adg

>  <m_score__min__energy>  (5) 
-11.539999999999999

>  <m_primary>  (5) 
energy

$$$$
5:0
     RDKit          3D

 33 34  0  0  0  0  0  0  0  0999 V2000
   59.9750   30.8190   45.9510 O   0  0  0  0  0  0  0  0  0  0  0  0
   58.9210   31.2380   46.9370 S   0  0  0  0  0  0  0  0  0  0  0  0
   58.6750   30.1150   47.9050 O   0  0  0  0  0  0  0  0  0  0  0  0
   59.4700   32.6840   47.8250 C   0  0  0  0  0  0  0  0  0  0  0  0
   60.9640   32.8200   47.7330 C   0  0  0  0  0  0  0  0  0  0  0  0
   61.5380   33.7470   46.8460 C   0  0  0  0  0  0  0  0  0  0  0  0
   62.9280   33.8510   46.7380 C   0  0  0  0  0  0  0  0  0  0  0  0
   63.7530   33.0260   47.5070 C   0  0  0  0  0  0  0  0  0  0  0  0
   63.1900   32.0930   48.3830 C   0  0  0  0  0  0  0  0  0  0  0  0
   61.8010   31.9870   48.4940 C   0  0  0  0  0  0  0  0  0  0  0  0
   57.4760   31.6200   46.1110 O   0  0  0  0  0  0  0  0  0  0  0  0
   57.4150   31.6040   44.7170 C   0  0  0  0  0  0  0  0  0  0  0  0
   57.9810   32.6580   43.9780 C   0  0  0  0  0  0  0  0  0  0  0  0
   58.9060   34.0900   44.8480 Br  0  0  0  0  0  0  0  0  0  0  0  0
   57.9110   32.6500   42.5820 C   0  0  0  0  0  0  0  0  0  0  0  0
   57.2960   31.5900   41.9160 C   0  0  0  0  0  0  0  0  0  0  0  0
   56.7570   30.5250   42.6400 C   0  0  0  0  0  0  0  0  0  0  0  0
   56.8070   30.5220   44.0440 C   0  0  0  0  0  0  0  0  0  0  0  0
   56.2900   29.3240   44.7950 C   0  0  0  0  0  0  0  0  0  0  0  0
   57.6760   28.4080   45.5360 S   0  0  0  0  0  0  0  0  0  0  0  0
   58.9974   33.5772   47.3905 H   0  0  0  0  0  0  0  0  0  0  0  0
   59.1856   32.5823   48.8827 H   0  0  0  0  0  0  0  0  0  0  0  0
   60.8911   34.3931   46.2345 H   0  0  0  0  0  0  0  0  0  0  0  0
   63.3725   34.5827   46.0473 H   0  0  0  0  0  0  0  0  0  0  0  0
   64.8465   33.1107   47.4231 H   0  0  0  0  0  0  0  0  0  0  0  0
   63.8408   31.4420   48.9852 H   0  0  0  0  0  0  0  0  0  0  0  0
   61.3612   31.2482   49.1801 H   0  0  0  0  0  0  0  0  0  0  0  0
   58.3424   33.4825   42.0067 H   0  0  0  0  0  0  0  0  0  0  0  0
   57.2355   31.5932   40.8177 H   0  0  0  0  0  0  0  0  0  0  0  0
   56.2903   29.6830   42.1079 H   0  0  0  0  0  0  0  0  0  0  0  0
   55.6082   29.6592   45.5905 H   0  0  0  0  0  0  0  0  0  0  0  0
   55.7535   28.6644   44.0970 H   0  0  0  0  0  0  0  0  0  0  0  0
   58.3800   29.5830   45.8660 H   0  0  0  0  0  0  0  0  0  0  0  0
  1  2  2  0
  2  3  2  0
  2  4  1  0
  4  5  1  0
  5  6  2  0
  6  7  1  0
  7  8  2  0
  8  9  1  0
  9 10  2  0
  2 11  1  0
 11 12  1  0
 12 13  2  0
 13 14  1  0
 13 15  1  0
 15 16  2  0
 16 17  1  0
 17 18  2  0
 18 19  1  0
 19 20  1  0
 10  5  1  0
 18 12  1  0
  4 21  1  0
  4 22  1  0
  6 23  1  0
  7 24  1  0
  8 25  1  0
  9 26  1  0
 10 27  1  0
 15 28  1  0
 16 29  1  0
 17 30  1  0
 19 31  1  0
 19 32  1  0
 20 33  1  0
M  END
>  <UniqueID>  (6) 
6

>  <SMILES>  (6) 
O=S(=O)(Cc1ccccc1)Oc1c(Br)cccc1CS

>  <Energy>  (6) 
33.40878986176153

>  <Genealogy>  (6) 
O=S(=O)(Cc1ccccc1)Oc1c(Br)cccc1CS (3D coordinates assigned)
O=S(=O)(Cc1ccccc1)Oc1c(Br)cccc1CS (optimized conformer: 33.40878986176153 kcal/mol)

>  <smiles>  (6) 
O=S(=O)(Cc1ccccc1)Oc1c(Br)cccc1CS

>  <score_type>  (6) 
oracle

>  <origin>  (6) 
adg

>  <m_score__min__energy>  (6) 
-7.1500000000000004

>  <m_primary>  (6) 
energy

$$$$
6:0
     RDKit          3D

 94100  0  0  0  0  0  0  0  0999 V2000
   62.9160   31.6610   47.1190 C   0  0  0  0  0  0  0  0  0  0  0  0
   63.7860   32.8430   46.6960 C   0  0  0  0  0  0  0  0  0  0  0  0
   63.1260   34.1850   47.0340 C   0  0  0  0  0  0  0  0  0  0  0  0
   63.3000   34.5140   48.4110 O   0  0  0  0  0  0  0  0  0  0  0  0
   63.5100   33.5640   49.4210 C   0  0  0  0  0  0  0  0  0  0  0  0
   64.7510   33.0380   49.6020 N   0  0  0  0  0  0  0  0  0  0  0  0
   64.9950   32.0940   50.5420 C   0  0  0  0  0  0  0  0  0  0  0  0
   66.2730   31.5400   50.6600 C   0  0  0  0  0  0  0  0  0  0  0  0
   66.5040   30.5070   51.5700 C   0  0  0  0  0  0  0  0  0  0  0  0
   65.4630   30.0350   52.3870 C   0  0  0  0  0  0  0  0  0  0  0  0
   65.6750   28.9020   53.2510 N   0  0  0  0  0  0  0  0  0  0  0  0
   67.0340   28.3600   53.3890 C   0  0  0  0  0  0  0  0  0  0  0  0
   67.4830   27.7450   52.0890 C   0  0  0  0  0  0  0  0  0  0  0  0
   68.8030   27.9120   51.6380 C   0  0  0  0  0  0  0  0  0  0  0  0
   69.2230   27.3050   50.4500 C   0  0  0  0  0  0  0  0  0  0  0  0
   68.3290   26.5290   49.7060 C   0  0  0  0  0  0  0  0  0  0  0  0
   67.0150   26.3560   50.1470 C   0  0  0  0  0  0  0  0  0  0  0  0
   66.5930   26.9590   51.3360 C   0  0  0  0  0  0  0  0  0  0  0  0
   64.5490   28.1750   53.7940 C   0  0  0  0  0  0  0  0  0  0  0  0
   64.3500   28.1820   55.0390 O   0  0  0  0  0  0  0  0  0  0  0  0
   63.6190   27.4040   52.9290 C   0  0  0  0  0  0  0  0  0  0  0  0
   63.8360   26.0390   52.6530 C   0  0  0  0  0  0  0  0  0  0  0  0
   62.9450   25.3290   51.8410 C   0  0  0  0  0  0  0  0  0  0  0  0
   61.8460   25.9750   51.2760 C   0  0  0  0  0  0  0  0  0  0  0  0
   61.6310   27.3320   51.5250 C   0  0  0  0  0  0  0  0  0  0  0  0
   62.5130   28.0470   52.3420 C   0  0  0  0  0  0  0  0  0  0  0  0
   64.1950   30.6270   52.3050 C   0  0  0  0  0  0  0  0  0  0  0  0
   63.9490   31.6460   51.3680 C   0  0  0  0  0  0  0  0  0  0  0  0
   62.6760   32.2110   51.1920 C   0  0  0  0  0  0  0  0  0  0  0  0
   61.7200   31.8410   51.9300 O   0  0  0  0  0  0  0  0  0  0  0  0
   62.4650   33.1490   50.2100 N   0  0  0  0  0  0  0  0  0  0  0  0
   61.0950   33.6420   49.9580 C   0  0  0  0  0  0  0  0  0  0  0  0
   60.4690   32.8800   48.8150 C   0  0  0  0  0  0  0  0  0  0  0  0
   60.0990   33.5450   47.6340 C   0  0  0  0  0  0  0  0  0  0  0  0
   59.4480   32.8520   46.6090 C   0  0  0  0  0  0  0  0  0  0  0  0
   59.1480   31.4910   46.7580 C   0  0  0  0  0  0  0  0  0  0  0  0
   58.4330   30.7710   45.6890 C   0  0  0  0  0  0  0  0  0  0  0  0
   57.2890   31.3780   45.1460 C   0  0  0  0  0  0  0  0  0  0  0  0
   56.5920   30.7750   44.1010 C   0  0  0  0  0  0  0  0  0  0  0  0
   57.0280   29.5570   43.5870 C   0  0  0  0  0  0  0  0  0  0  0  0
   58.1550   28.9310   44.1200 C   0  0  0  0  0  0  0  0  0  0  0  0
   58.8770   29.5170   45.1800 C   0  0  0  0  0  0  0  0  0  0  0  0
   60.0430   28.7780   45.7440 C   0  0  0  0  0  0  0  0  0  0  0  0
   61.2210   29.0880   45.4180 O   0  0  0  0  0  0  0  0  0  0  0  0
   59.8220   27.6880   46.6520 N   0  0  0  0  0  0  0  0  0  0  0  0
   59.2210   26.4200   46.3450 C   0  0  0  0  0  0  0  0  0  0  0  0
   60.0580   25.3370   46.0500 C   0  0  0  0  0  0  0  0  0  0  0  0
   59.5170   24.0950   45.7090 C   0  0  0  0  0  0  0  0  0  0  0  0
   58.1320   23.9290   45.6450 C   0  0  0  0  0  0  0  0  0  0  0  0
   57.2810   25.0050   45.9250 C   0  0  0  0  0  0  0  0  0  0  0  0
   55.5340   24.8030   45.8210 S   0  0  0  0  0  0  0  0  0  0  0  0
   54.7700   26.3410   45.9970 N   0  0  0  0  0  0  0  0  0  0  0  0
   55.0610   23.8770   46.9070 O   0  0  0  0  0  0  0  0  0  0  0  0
   55.1650   24.2120   44.4900 O   0  0  0  0  0  0  0  0  0  0  0  0
   57.8260   26.2530   46.2630 C   0  0  0  0  0  0  0  0  0  0  0  0
   59.5340   30.8210   47.9270 C   0  0  0  0  0  0  0  0  0  0  0  0
   60.1980   31.5080   48.9470 C   0  0  0  0  0  0  0  0  0  0  0  0
   62.8774   31.6086   48.2171 H   0  0  0  0  0  0  0  0  0  0  0  0
   61.8987   31.7940   46.7223 H   0  0  0  0  0  0  0  0  0  0  0  0
   63.3454   30.7292   46.7223 H   0  0  0  0  0  0  0  0  0  0  0  0
   64.7518   32.7794   47.2187 H   0  0  0  0  0  0  0  0  0  0  0  0
   63.9229   32.7941   45.6056 H   0  0  0  0  0  0  0  0  0  0  0  0
   63.5805   34.9738   46.4166 H   0  0  0  0  0  0  0  0  0  0  0  0
   62.0483   34.1041   46.8291 H   0  0  0  0  0  0  0  0  0  0  0  0
   67.0963   31.9179   50.0360 H   0  0  0  0  0  0  0  0  0  0  0  0
   67.5062   30.0602   51.6478 H   0  0  0  0  0  0  0  0  0  0  0  0
   67.7230   29.1722   53.6639 H   0  0  0  0  0  0  0  0  0  0  0  0
   67.0344   27.5866   54.1712 H   0  0  0  0  0  0  0  0  0  0  0  0
   69.5085   28.5221   52.2211 H   0  0  0  0  0  0  0  0  0  0  0  0
   70.2575   27.4382   50.1007 H   0  0  0  0  0  0  0  0  0  0  0  0
   68.6612   26.0537   48.7713 H   0  0  0  0  0  0  0  0  0  0  0  0
   66.3129   25.7461   49.5596 H   0  0  0  0  0  0  0  0  0  0  0  0
   65.5591   26.8176   51.6841 H   0  0  0  0  0  0  0  0  0  0  0  0
   64.7121   25.5283   53.0791 H   0  0  0  0  0  0  0  0  0  0  0  0
   63.1118   24.2590   51.6479 H   0  0  0  0  0  0  0  0  0  0  0  0
   61.1489   25.4159   50.6346 H   0  0  0  0  0  0  0  0  0  0  0  0
   60.7647   27.8407   51.0770 H   0  0  0  0  0  0  0  0  0  0  0  0
   62.3413   29.1177   52.5268 H   0  0  0  0  0  0  0  0  0  0  0  0
   63.3898   30.2932   52.9760 H   0  0  0  0  0  0  0  0  0  0  0  0
   60.4865   33.5032   50.8638 H   0  0  0  0  0  0  0  0  0  0  0  0
   61.1401   34.7094   49.6959 H   0  0  0  0  0  0  0  0  0  0  0  0
   60.3225   34.6155   47.5153 H   0  0  0  0  0  0  0  0  0  0  0  0
   59.1704   33.3765   45.6828 H   0  0  0  0  0  0  0  0  0  0  0  0
   56.9395   32.3396   45.5499 H   0  0  0  0  0  0  0  0  0  0  0  0
   55.6982   31.2609   43.6826 H   0  0  0  0  0  0  0  0  0  0  0  0
   56.4814   29.0860   42.7567 H   0  0  0  0  0  0  0  0  0  0  0  0
   58.4852   27.9663   43.7074 H   0  0  0  0  0  0  0  0  0  0  0  0
   61.1499   25.4651   46.0870 H   0  0  0  0  0  0  0  0  0  0  0  0
   60.1827   23.2470   45.4907 H   0  0  0  0  0  0  0  0  0  0  0  0
   57.7086   22.9506   45.3740 H   0  0  0  0  0  0  0  0  0  0  0  0
   55.1780   26.9660   45.2680 H   0  0  0  0  0  0  0  0  0  0  0  0
   57.1599   27.1048   46.4648 H   0  0  0  0  0  0  0  0  0  0  0  0
   59.3133   29.7495   48.0422 H   0  0  0  0  0  0  0  0  0  0  0  0
   60.5094   30.9726   49.8561 H   0  0  0  0  0  0  0  0  0  0  0  0
  1  2  1  0
  2  3  1  0
  3  4  1  0
  4  5  1  0
  5  6  2  0
  6  7  1  0
  7  8  2  0
  8  9  1  0
  9 10  2  0
 10 11  1  0
 11 12  1  0
 12 13  1  0
 13 14  2  0
 14 15  1  0
 15 16  2  0
 16 17  1  0
 17 18  2  0
 11 19  1  0
 19 20  2  0
 19 21  1  0
 21 22  2  0
 22 23  1  0
 23 24  2  0
 24 25  1  0
 25 26  2  0
 10 27  1  0
 27 28  2  0
 28 29  1  0
 29 30  2  0
 29 31  1  0
 31 32  1  0
 32 33  1  0
 33 34  2  0
 34 35  1  0
 35 36  2  0
 36 37  1  0
 37 38  2  0
 38 39  1  0
 39 40  2  0
 40 41  1  0
 41 42  2  0
 42 43  1  0
 43 44  2  0
 43 45  1  0
 45 46  1  0
 46 47  2  0
 47 48  1  0
 48 49  2  0
 49 50  1  0
 50 51  1  0
 51 52  1  0
 51 53  2  0
 51 54  2  0
 50 55  2  0
 36 56  1  0
 56 57  2  0
 31  5  1  0
 57 33  1  0
 28  7  1  0
 42 37  1  0
 55 46  1  0
 18 13  1  0
 26 21  1  0
  1 58  1  0
  1 59  1  0
  1 60  1  0
  2 61  1  0
  2 62  1  0
  3 63  1  0
  3 64  1  0
  8 65  1  0
  9 66  1  0
 12 67  1  0
 12 68  1  0
 14 69  1  0
 15 70  1  0
 16 71  1  0
 17 72  1  0
 18 73  1  0
 22 74  1  0
 23 75  1  0
 24 76  1  0
 25 77  1  0
 26 78  1  0
 27 79  1  0
 32 80  1  0
 32 81  1  0
 34 82  1  0
 35 83  1  0
 38 84  1  0
 39 85  1  0
 40 86  1  0
 41 87  1  0
 47 88  1  0
 48 89  1  0
 49 90  1  0
 52 91  1  0
 55 92  1  0
 56 93  1  0
 57 94  1  0
M  CHG  2  45  -1  52  -1
M  END
>  <UniqueID>  (7) 
7

>  <SMILES>  (7) 
CCCOc1nc2ccc(N(Cc3ccccc3)C(=O)c3ccccc3)cc2c(=O)n1Cc1ccc(-c2ccccc2C(=O)[N-]c2cccc(S([NH-])(=O)=O)c2)cc1

>  <Energy>  (7) 
119.86911985649436

>  <Genealogy>  (7) 
CCCOc1nc2ccc(N(Cc3ccccc3)C(=O)c3ccccc3)cc2c(=O)n1Cc1ccc(-c2ccccc2C(=O)[N-]c2cccc(S([NH-])(=O)=O)c2)cc1 (protonated)
CCCOc1nc2ccc(N(Cc3ccccc3)C(=O)c3ccccc3)cc2c(=O)n1Cc1ccc(-c2ccccc2C(=O)[N-]c2cccc(S([NH-])(=O)=O)c2)cc1 (3D coordinates assigned)
CCCOc1nc2ccc(N(Cc3ccccc3)C(=O)c3ccccc3)cc2c(=O)n1Cc1ccc(-c2ccccc2C(=O)[N-]c2cccc(S([NH-])(=O)=O)c2)cc1 (optimized conformer: 119.86911985649436 kcal/mol)

>  <smiles>  (7) 
CCCOc1nc2ccc(N(Cc3ccccc3)C(=O)c3ccccc3)cc2c(=O)n1Cc1ccc(-c2ccccc2C(=O)Nc2cccc(S(N)(=O)=O)c2)cc1

>  <score_type>  (7) 
oracle

>  <origin>  (7) 
adg

>  <m_score__min__energy>  (7) 
-16.34

>  <m_primary>  (7) 
energy

$$$$
7:0
     RDKit          3D

 37 39  0  0  0  0  0  0  0  0999 V2000
   61.4480   25.8830   53.6540 N   0  0  0  0  0  0  0  0  0  0  0  0
   61.3220   27.0940   52.9050 C   0  0  0  0  0  0  0  0  0  0  0  0
   62.4560   27.6940   52.3420 C   0  0  0  0  0  0  0  0  0  0  0  0
   62.3340   28.8790   51.6130 C   0  0  0  0  0  0  0  0  0  0  0  0
   61.0800   29.4710   51.4390 C   0  0  0  0  0  0  0  0  0  0  0  0
   59.9290   28.8790   51.9900 C   0  0  0  0  0  0  0  0  0  0  0  0
   58.5940   29.5030   51.8180 C   0  0  0  0  0  0  0  0  0  0  0  0
   58.1630   29.7360   50.6560 O   0  0  0  0  0  0  0  0  0  0  0  0
   57.8110   29.8910   52.9590 N   0  0  0  0  0  0  0  0  0  0  0  0
   56.3900   30.1120   52.9150 C   0  0  0  0  0  0  0  0  0  0  0  0
   55.8150   31.0010   51.9900 C   0  0  0  0  0  0  0  0  0  0  0  0
   54.4290   31.1810   51.9500 C   0  0  0  0  0  0  0  0  0  0  0  0
   53.5970   30.4750   52.8300 C   0  0  0  0  0  0  0  0  0  0  0  0
   52.1040   30.6430   52.7600 C   0  0  0  0  0  0  0  0  0  0  0  0
   51.6900   30.9940   51.3640 C   0  0  0  0  0  0  0  0  0  0  0  0
   51.6790   30.1220   50.3400 N   0  0  0  0  0  0  0  0  0  0  0  0
   51.1800   30.8530   49.3180 C   0  0  0  0  0  0  0  0  0  0  0  0
   51.0180   30.3800   48.1630 O   0  0  0  0  0  0  0  0  0  0  0  0
   50.8620   32.1260   49.6330 N   0  0  0  0  0  0  0  0  0  0  0  0
   51.1870   32.1970   50.9340 C   0  0  0  0  0  0  0  0  0  0  0  0
   51.0200   33.3360   51.7120 O   0  0  0  0  0  0  0  0  0  0  0  0
   54.1660   29.5640   53.7320 C   0  0  0  0  0  0  0  0  0  0  0  0
   55.5510   29.3820   53.7720 C   0  0  0  0  0  0  0  0  0  0  0  0
   60.0640   27.6890   52.7310 C   0  0  0  0  0  0  0  0  0  0  0  0
   60.6400   25.2300   53.7560 H   0  0  0  0  0  0  0  0  0  0  0  0
   62.3520   25.6280   54.1110 H   0  0  0  0  0  0  0  0  0  0  0  0
   63.4448   27.2306   52.4745 H   0  0  0  0  0  0  0  0  0  0  0  0
   63.2274   29.3477   51.1746 H   0  0  0  0  0  0  0  0  0  0  0  0
   60.9924   30.4066   50.8671 H   0  0  0  0  0  0  0  0  0  0  0  0
   58.3150   30.1350   53.8420 H   0  0  0  0  0  0  0  0  0  0  0  0
   56.4591   31.5581   51.2938 H   0  0  0  0  0  0  0  0  0  0  0  0
   53.9890   31.8805   51.2240 H   0  0  0  0  0  0  0  0  0  0  0  0
   51.6178   29.7024   53.0580 H   0  0  0  0  0  0  0  0  0  0  0  0
   51.8008   31.4530   53.4397 H   0  0  0  0  0  0  0  0  0  0  0  0
   53.5188   28.9899   54.4113 H   0  0  0  0  0  0  0  0  0  0  0  0
   55.9869   28.6617   54.4799 H   0  0  0  0  0  0  0  0  0  0  0  0
   59.1740   27.2216   53.1777 H   0  0  0  0  0  0  0  0  0  0  0  0
  1  2  1  0
  2  3  2  0
  3  4  1  0
  4  5  2  0
  5  6  1  0
  6  7  1  0
  7  8  2  0
  7  9  1  0
  9 10  1  0
 10 11  2  0
 11 12  1  0
 12 13  2  0
 13 14  1  0
 14 15  1  0
 15 16  1  0
 16 17  1  0
 17 18  2  0
 17 19  1  0
 19 20  1  0
 20 21  1  0
 13 22  1  0
 22 23  2  0
  6 24  2  0
 24  2  1  0
 23 10  1  0
 20 15  2  0
  1 25  1  0
  1 26  1  0
  3 27  1  0
  4 28  1  0
  5 29  1  0
  9 30  1  0
 11 31  1  0
 12 32  1  0
 14 33  1  0
 14 34  1  0
 22 35  1  0
 23 36  1  0
 24 37  1  0
M  CHG  3  16  -1  19  -1  21  -1
M  END
>  <UniqueID>  (8) 
8

>  <SMILES>  (8) 
Nc1cccc(C(=O)Nc2ccc(Cc3[n-]c(=O)[n-]c3[O-])cc2)c1

>  <Energy>  (8) 
71.89261921271628

>  <Genealogy>  (8) 
Nc1cccc(C(=O)Nc2ccc(Cc3[n-]c(=O)[n-]c3[O-])cc2)c1 (protonated)
Nc1cccc(C(=O)Nc2ccc(Cc3[n-]c(=O)[n-]c3[O-])cc2)c1 (3D coordinates assigned)
Nc1cccc(C(=O)Nc2ccc(Cc3[n-]c(=O)[n-]c3[O-])cc2)c1 (optimized conformer: 71.89261921271628 kcal/mol)

>  <smiles>  (8) 
Nc1cccc(C(=O)Nc2ccc(Cc3[nH]c(=O)[nH]c3O)cc2)c1

>  <score_type>  (8) 
oracle

>  <origin>  (8) 
adg

>  <m_score__min__energy>  (8) 
-15.18

>  <m_primary>  (8) 
energy

$$$$
8:0
     RDKit          3D

 35 37  0  0  0  0  0  0  0  0999 V2000
   56.4710   31.9050   52.9970 O   0  0  0  0  0  0  0  0  0  0  0  0
   56.4460   31.1300   52.0030 C   0  0  0  0  0  0  0  0  0  0  0  0
   55.2540   30.3780   51.7160 N   0  0  0  0  0  0  0  0  0  0  0  0
   53.9440   30.7500   52.1790 C   0  0  0  0  0  0  0  0  0  0  0  0
   53.4930   30.3970   53.4650 C   0  0  0  0  0  0  0  0  0  0  0  0
   52.2230   30.7910   53.8990 C   0  0  0  0  0  0  0  0  0  0  0  0
   51.3990   31.5480   53.0630 C   0  0  0  0  0  0  0  0  0  0  0  0
   51.8460   31.9210   51.7920 C   0  0  0  0  0  0  0  0  0  0  0  0
   51.0300   32.6820   50.9650 O   0  0  0  0  0  0  0  0  0  0  0  0
   53.1160   31.5300   51.3550 C   0  0  0  0  0  0  0  0  0  0  0  0
   57.6660   30.9670   51.1740 C   0  0  0  0  0  0  0  0  0  0  0  0
   58.4010   29.7670   51.1990 C   0  0  0  0  0  0  0  0  0  0  0  0
   59.5400   29.6210   50.4020 C   0  0  0  0  0  0  0  0  0  0  0  0
   59.9600   30.6640   49.5760 C   0  0  0  0  0  0  0  0  0  0  0  0
   59.2450   31.8730   49.5470 C   0  0  0  0  0  0  0  0  0  0  0  0
   59.6240   32.9380   48.7160 O   0  0  0  0  0  0  0  0  0  0  0  0
   59.0240   33.2670   47.4910 C   0  0  0  0  0  0  0  0  0  0  0  0
   59.3430   34.4840   46.8870 C   0  0  0  0  0  0  0  0  0  0  0  0
   58.7830   34.8120   45.6930 N   0  0  0  0  0  0  0  0  0  0  0  0
   57.9380   33.9880   45.0700 N   0  0  0  0  0  0  0  0  0  0  0  0
   57.6050   32.7840   45.6010 C   0  0  0  0  0  0  0  0  0  0  0  0
   56.8130   32.0220   44.9860 O   0  0  0  0  0  0  0  0  0  0  0  0
   58.1500   32.3970   46.8260 C   0  0  0  0  0  0  0  0  0  0  0  0
   58.0920   32.0100   50.3300 C   0  0  0  0  0  0  0  0  0  0  0  0
   55.3600   29.4520   51.2430 H   0  0  0  0  0  0  0  0  0  0  0  0
   54.1417   29.8092   54.1310 H   0  0  0  0  0  0  0  0  0  0  0  0
   51.8723   30.5039   54.9013 H   0  0  0  0  0  0  0  0  0  0  0  0
   50.3982   31.8507   53.4047 H   0  0  0  0  0  0  0  0  0  0  0  0
   53.4688   31.8356   50.3589 H   0  0  0  0  0  0  0  0  0  0  0  0
   58.0777   28.9403   51.8487 H   0  0  0  0  0  0  0  0  0  0  0  0
   60.1079   28.6793   50.4262 H   0  0  0  0  0  0  0  0  0  0  0  0
   60.8531   30.5394   48.9460 H   0  0  0  0  0  0  0  0  0  0  0  0
   60.0453   35.1754   47.3757 H   0  0  0  0  0  0  0  0  0  0  0  0
   57.8964   31.4205   47.2643 H   0  0  0  0  0  0  0  0  0  0  0  0
   57.5123   32.9438   50.2850 H   0  0  0  0  0  0  0  0  0  0  0  0
  1  2  2  0
  2  3  1  0
  3  4  1  0
  4  5  2  0
  5  6  1  0
  6  7  2  0
  7  8  1  0
  8  9  1  0
  8 10  2  0
  2 11  1  0
 11 12  2  0
 12 13  1  0
 13 14  2  0
 14 15  1  0
 15 16  1  0
 16 17  1  0
 17 18  1  0
 18 19  2  0
 19 20  1  0
 20 21  1  0
 21 22  2  0
 21 23  1  0
 15 24  2  0
 10  4  1  0
 24 11  1  0
 23 17  2  0
  3 25  1  0
  5 26  1  0
  6 27  1  0
  7 28  1  0
 10 29  1  0
 12 30  1  0
 13 31  1  0
 14 32  1  0
 18 33  1  0
 23 34  1  0
 24 35  1  0
M  CHG  2   9  -1  20  -1
M  END
>  <UniqueID>  (9) 
9

>  <SMILES>  (9) 
O=C(Nc1cccc([O-])c1)c1cccc(Oc2cn[n-]c(=O)c2)c1

>  <Energy>  (9) 
51.762787808489406

>  <Genealogy>  (9) 
O=C(Nc1cccc([O-])c1)c1cccc(Oc2cn[n-]c(=O)c2)c1 (protonated)
O=C(Nc1cccc([O-])c1)c1cccc(Oc2cn[n-]c(=O)c2)c1 (3D coordinates assigned)
O=C(Nc1cccc([O-])c1)c1cccc(Oc2cn[n-]c(=O)c2)c1 (optimized conformer: 51.762787808489406 kcal/mol)

>  <smiles>  (9) 
O=C(Nc1cccc(O)c1)c1cccc(Oc2cn[nH]c(=O)c2)c1

>  <score_type>  (9) 
oracle

>  <origin>  (9) 
adg

>  <m_score__min__energy>  (9) 
-12.220000000000001

>  <m_primary>  (9) 
energy

$$$$
9:0
     RDKit          3D

 61 64  0  0  0  0  0  0  0  0999 V2000
   64.0270   32.2790   47.0060 H   0  0  0  0  0  0  0  0  0  0  0  0
   63.7000   32.9610   47.7280 N   0  0  0  0  0  0  0  0  0  0  0  0
   62.0030   33.1770   47.4870 S   0  0  0  0  0  0  0  0  0  0  0  0
   61.7530   33.6200   46.0720 O   0  0  0  0  0  0  0  0  0  0  0  0
   61.4920   34.2370   48.4210 O   0  0  0  0  0  0  0  0  0  0  0  0
   61.1680   31.6580   47.7940 C   0  0  0  0  0  0  0  0  0  0  0  0
   60.5530   31.4340   49.0330 C   0  0  0  0  0  0  0  0  0  0  0  0
   60.5912   32.2092   49.8125 H   0  0  0  0  0  0  0  0  0  0  0  0
   59.8910   30.2280   49.2810 C   0  0  0  0  0  0  0  0  0  0  0  0
   59.4030   30.0593   50.2523 H   0  0  0  0  0  0  0  0  0  0  0  0
   59.8480   29.2360   48.2970 C   0  0  0  0  0  0  0  0  0  0  0  0
   59.3168   28.2928   48.4922 H   0  0  0  0  0  0  0  0  0  0  0  0
   60.4810   29.4400   47.0600 C   0  0  0  0  0  0  0  0  0  0  0  0
   60.4020   28.3900   45.9910 C   0  0  0  0  0  0  0  0  0  0  0  0
   59.9838   28.8303   45.0738 H   0  0  0  0  0  0  0  0  0  0  0  0
   61.4093   28.0005   45.7822 H   0  0  0  0  0  0  0  0  0  0  0  0
   59.5410   27.3010   46.4460 N   0  0  0  0  0  0  0  0  0  0  0  0
   58.2730   27.2200   46.1810 C   0  0  0  0  0  0  0  0  0  0  0  0
   57.6050   28.3250   45.7630 N   0  0  0  0  0  0  0  0  0  0  0  0
   56.2750   28.2610   45.4860 C   0  0  0  0  0  0  0  0  0  0  0  0
   55.6250   29.3110   45.0810 N   0  0  0  0  0  0  0  0  0  0  0  0
   55.8030   29.9600   43.7800 C   0  0  0  0  0  0  0  0  0  0  0  0
   55.4140   29.2966   42.9935 H   0  0  0  0  0  0  0  0  0  0  0  0
   55.2566   30.9146   43.7932 H   0  0  0  0  0  0  0  0  0  0  0  0
   57.2820   30.2560   43.4960 C   0  0  0  0  0  0  0  0  0  0  0  0
   57.8791   29.3674   43.7487 H   0  0  0  0  0  0  0  0  0  0  0  0
   57.3847   30.5073   42.4300 H   0  0  0  0  0  0  0  0  0  0  0  0
   57.7780   31.4260   44.3070 C   0  0  0  0  0  0  0  0  0  0  0  0
   57.8640   31.3310   45.7060 C   0  0  0  0  0  0  0  0  0  0  0  0
   57.5886   30.3923   46.2089 H   0  0  0  0  0  0  0  0  0  0  0  0
   58.2980   32.4240   46.4620 C   0  0  0  0  0  0  0  0  0  0  0  0
   58.3690   32.3406   47.5565 H   0  0  0  0  0  0  0  0  0  0  0  0
   58.6420   33.6230   45.8300 C   0  0  0  0  0  0  0  0  0  0  0  0
   59.0740   34.7050   46.5940 O   0  0  0  0  0  0  0  0  0  0  0  0
   60.0250   34.7630   46.9390 H   0  0  0  0  0  0  0  0  0  0  0  0
   58.5480   33.7270   44.4350 C   0  0  0  0  0  0  0  0  0  0  0  0
   58.8155   34.6698   43.9355 H   0  0  0  0  0  0  0  0  0  0  0  0
   58.1150   32.6350   43.6780 C   0  0  0  0  0  0  0  0  0  0  0  0
   58.0379   32.7232   42.5843 H   0  0  0  0  0  0  0  0  0  0  0  0
   55.6140   27.0850   45.6340 N   0  0  0  0  0  0  0  0  0  0  0  0
   56.2740   25.9740   46.0490 C   0  0  0  0  0  0  0  0  0  0  0  0
   55.6230   24.8560   46.1780 N   0  0  0  0  0  0  0  0  0  0  0  0
   55.0670   24.0750   45.0680 C   0  0  0  0  0  0  0  0  0  0  0  0
   54.1048   24.5056   44.7538 H   0  0  0  0  0  0  0  0  0  0  0  0
   56.0140   24.1300   43.8450 C   0  0  0  0  0  0  0  0  0  0  0  0
   55.7473   24.9973   43.2232 H   0  0  0  0  0  0  0  0  0  0  0  0
   57.0484   24.2175   44.2087 H   0  0  0  0  0  0  0  0  0  0  0  0
   55.9020   22.8550   43.0000 C   0  0  0  0  0  0  0  0  0  0  0  0
   54.8640   22.7533   42.6505 H   0  0  0  0  0  0  0  0  0  0  0  0
   56.6043   22.9485   42.1585 H   0  0  0  0  0  0  0  0  0  0  0  0
   56.2680   21.6410   43.7580 N   0  0  0  0  0  0  0  0  0  0  0  0
   57.2910   21.4600   43.6210 H   0  0  0  0  0  0  0  0  0  0  0  0
   56.0110   21.7220   45.2100 C   0  0  0  0  0  0  0  0  0  0  0  0
   55.8047   20.7106   45.5902 H   0  0  0  0  0  0  0  0  0  0  0  0
   56.9026   22.1548   45.6872 H   0  0  0  0  0  0  0  0  0  0  0  0
   54.8160   22.6260   45.5370 C   0  0  0  0  0  0  0  0  0  0  0  0
   53.9212   22.2349   45.0306 H   0  0  0  0  0  0  0  0  0  0  0  0
   54.6728   22.6329   46.6276 H   0  0  0  0  0  0  0  0  0  0  0  0
   57.6040   26.0450   46.3190 N   0  0  0  0  0  0  0  0  0  0  0  0
   61.1310   30.6590   46.8110 C   0  0  0  0  0  0  0  0  0  0  0  0
   61.6145   30.8316   45.8382 H   0  0  0  0  0  0  0  0  0  0  0  0
  1  2  1  0
  2  3  1  0
  3  4  2  0
  3  5  2  0
  3  6  1  0
  6  7  2  0
  7  8  1  0
  7  9  1  0
  9 10  1  0
  9 11  2  0
 11 12  1  0
 11 13  1  0
 13 14  1  0
 14 15  1  0
 14 16  1  0
 14 17  1  0
 17 18  2  0
 18 19  1  0
 19 20  1  0
 20 21  2  3
 21 22  1  0
 22 23  1  0
 22 24  1  0
 22 25  1  0
 25 26  1  0
 25 27  1  0
 25 28  1  0
 28 29  2  0
 29 30  1  0
 29 31  1  0
 31 32  1  0
 31 33  2  0
 33 34  1  0
 34 35  1  0
 33 36  1  0
 36 37  1  0
 36 38  2  0
 38 39  1  0
 20 40  1  0
 40 41  1  0
 41 42  2  3
 42 43  1  0
 43 44  1  0
 43 45  1  0
 45 46  1  0
 45 47  1  0
 45 48  1  0
 48 49  1  0
 48 50  1  0
 48 51  1  0
 51 52  1  0
 51 53  1  0
 53 54  1  0
 53 55  1  0
 53 56  1  0
 56 57  1  0
 56 58  1  0
 41 59  1  0
 13 60  2  0
 60 61  1  0
 60  6  1  0
 59 18  1  0
 38 28  1  0
 56 43  1  0
M  CHG  4   2  -1  19  -1  40  -1  59  -1
M  END
>  <UniqueID>  (10) 
10

>  <SMILES>  (10) 
[NH-]S(=O)(=O)c1cccc(C/N=c2/[n-]c(=NCCc3ccc(O)cc3)[n-]c(=NC3CCNCC3)[n-]2)c1

>  <Energy>  (10) 
64.28853113374926

>  <Genealogy>  (10) 
[NH-]S(=O)(=O)c1cccc(CN=c2[n-]c(=NCCc3ccc(O)cc3)[n-]c(=NC3CCNCC3)[n-]2)c1 (protonated)
[NH-]S(=O)(=O)c1cccc(C/N=c2/[n-]c(=NCCc3ccc(O)cc3)[n-]c(=NC3CCNCC3)[n-]2)c1 (cis-trans isomerization)
[NH-]S(=O)(=O)c1cccc(C/N=c2/[n-]c(=NCCc3ccc(O)cc3)[n-]c(=NC3CCNCC3)[n-]2)c1 (3D coordinates assigned)
[NH-]S(=O)(=O)c1cccc(C/N=c2/[n-]c(=NCCc3ccc(O)cc3)[n-]c(=NC3CCNCC3)[n-]2)c1 (nonaromatic ring conformer: 64.28853113374926 kcal/mol)

>  <smiles>  (10) 
NS(=O)(=O)c1cccc(CN=c2[nH]c(=NCCc3ccc(O)cc3)[nH]c(=NC3CCNCC3)[nH]2)c1

>  <score_type>  (10) 
oracle

>  <origin>  (10) 
adg

>  <m_score__min__energy>  (10) 
-15.18

>  <m_primary>  (10) 
energy

$$$$
10:0
     RDKit          3D

 44 46  0  0  0  0  0  0  0  0999 V2000
   54.7500   23.3420   44.9390 C   0  0  0  0  0  0  0  0  0  0  0  0
   55.1950   24.7080   45.3470 C   0  0  0  0  0  0  0  0  0  0  0  0
   54.3720   25.6470   45.8640 N   0  0  0  0  0  0  0  0  0  0  0  0
   55.0950   26.7080   46.0850 O   0  0  0  0  0  0  0  0  0  0  0  0
   56.3440   26.4980   45.7390 C   0  0  0  0  0  0  0  0  0  0  0  0
   57.2920   27.3790   45.8190 N   0  0  0  0  0  0  0  0  0  0  0  0
   58.8420   27.0140   46.5000 S   0  0  0  0  0  0  0  0  0  0  0  0
   59.8690   27.0270   45.4040 O   0  0  0  0  0  0  0  0  0  0  0  0
   58.7870   25.6400   47.1100 O   0  0  0  0  0  0  0  0  0  0  0  0
   59.2860   28.2130   47.7230 C   0  0  0  0  0  0  0  0  0  0  0  0
   60.1300   27.8320   48.7790 C   0  0  0  0  0  0  0  0  0  0  0  0
   60.5310   28.7640   49.7380 C   0  0  0  0  0  0  0  0  0  0  0  0
   60.0870   30.0840   49.6600 C   0  0  0  0  0  0  0  0  0  0  0  0
   59.2350   30.4740   48.6260 C   0  0  0  0  0  0  0  0  0  0  0  0
   58.8260   29.5480   47.6480 C   0  0  0  0  0  0  0  0  0  0  0  0
   57.9040   29.9560   46.6210 N   0  0  0  0  0  0  0  0  0  0  0  0
   58.0830   31.1380   45.8210 C   0  0  0  0  0  0  0  0  0  0  0  0
   58.7900   32.2360   46.3440 C   0  0  0  0  0  0  0  0  0  0  0  0
   59.0030   33.3780   45.5710 C   0  0  0  0  0  0  0  0  0  0  0  0
   58.5200   33.4370   44.2650 C   0  0  0  0  0  0  0  0  0  0  0  0
   57.8220   32.3540   43.7270 C   0  0  0  0  0  0  0  0  0  0  0  0
   57.5960   31.1980   44.4920 C   0  0  0  0  0  0  0  0  0  0  0  0
   56.6770   29.8590   43.7900 S   0  0  0  0  0  0  0  0  0  0  0  0
   55.4350   29.3310   44.8720 N   0  0  0  0  0  0  0  0  0  0  0  0
   56.0470   30.3040   42.5000 O   0  0  0  0  0  0  0  0  0  0  0  0
   57.6000   28.7030   43.5270 O   0  0  0  0  0  0  0  0  0  0  0  0
   56.4800   25.2120   45.2700 C   0  0  0  0  0  0  0  0  0  0  0  0
   57.6940   24.5670   44.6780 C   0  0  0  0  0  0  0  0  0  0  0  0
   54.5530   22.7372   45.8365 H   0  0  0  0  0  0  0  0  0  0  0  0
   53.8307   23.4195   44.3400 H   0  0  0  0  0  0  0  0  0  0  0  0
   55.5386   22.8631   44.3400 H   0  0  0  0  0  0  0  0  0  0  0  0
   60.4779   26.7909   48.8510 H   0  0  0  0  0  0  0  0  0  0  0  0
   61.1984   28.4568   50.5567 H   0  0  0  0  0  0  0  0  0  0  0  0
   60.4086   30.8177   50.4138 H   0  0  0  0  0  0  0  0  0  0  0  0
   58.8800   31.5139   48.5748 H   0  0  0  0  0  0  0  0  0  0  0  0
   57.0640   29.3600   46.4520 H   0  0  0  0  0  0  0  0  0  0  0  0
   59.1786   32.1939   47.3722 H   0  0  0  0  0  0  0  0  0  0  0  0
   59.5526   34.2324   45.9928 H   0  0  0  0  0  0  0  0  0  0  0  0
   58.6889   34.3381   43.6572 H   0  0  0  0  0  0  0  0  0  0  0  0
   57.4457   32.4066   42.6947 H   0  0  0  0  0  0  0  0  0  0  0  0
   55.5100   28.2910   44.9430 H   0  0  0  0  0  0  0  0  0  0  0  0
   58.3536   24.2165   45.4855 H   0  0  0  0  0  0  0  0  0  0  0  0
   57.3889   23.7121   44.0567 H   0  0  0  0  0  0  0  0  0  0  0  0
   58.2317   25.2984   44.0567 H   0  0  0  0  0  0  0  0  0  0  0  0
  1  2  1  0
  2  3  1  0
  3  4  1  0
  4  5  1  0
  5  6  2  3
  6  7  1  0
  7  8  2  0
  7  9  2  0
  7 10  1  0
 10 11  2  0
 11 12  1  0
 12 13  2  0
 13 14  1  0
 14 15  2  0
 15 16  1  0
 16 17  1  0
 17 18  2  0
 18 19  1  0
 19 20  2  0
 20 21  1  0
 21 22  2  0
 22 23  1  0
 23 24  1  0
 23 25  2  0
 23 26  2  0
  5 27  1  0
 27 28  1  0
 27  2  2  0
 15 10  1  0
 22 17  1  0
  1 29  1  0
  1 30  1  0
  1 31  1  0
 11 32  1  0
 12 33  1  0
 13 34  1  0
 14 35  1  0
 16 36  1  0
 18 37  1  0
 19 38  1  0
 20 39  1  0
 21 40  1  0
 24 41  1  0
 28 42  1  0
 28 43  1  0
 28 44  1  0
M  CHG  2   3  -1  24  -1
M  END
>  <UniqueID>  (11) 
11

>  <SMILES>  (11) 
Cc1[n-]oc(=NS(=O)(=O)c2ccccc2Nc2ccccc2S([NH-])(=O)=O)c1C

>  <Energy>  (11) 
87.00390690177554

>  <Genealogy>  (11) 
Cc1[n-]oc(=NS(=O)(=O)c2ccccc2Nc2ccccc2S([NH-])(=O)=O)c1C (protonated)
Cc1[n-]oc(=NS(=O)(=O)c2ccccc2Nc2ccccc2S([NH-])(=O)=O)c1C (3D coordinates assigned)
Cc1[n-]oc(=NS(=O)(=O)c2ccccc2Nc2ccccc2S([NH-])(=O)=O)c1C (optimized conformer: 87.00390690177554 kcal/mol)

>  <smiles>  (11) 
Cc1[nH]oc(=NS(=O)(=O)c2ccccc2Nc2ccccc2S(N)(=O)=O)c1C

>  <score_type>  (11) 
oracle

>  <origin>  (11) 
adg

>  <m_score__min__energy>  (11) 
-14.66

>  <m_primary>  (11) 
energy

$$$$
11:0
     RDKit          3D

 46 48  0  0  0  0  0  0  0  0999 V2000
   63.7660   32.9670   46.7890 C   0  0  0  0  0  0  0  0  0  0  0  0
   62.5110   33.8320   46.8340 C   0  0  0  0  0  0  0  0  0  0  0  0
   61.6920   33.4970   48.0080 N   0  0  0  0  0  0  0  0  0  0  0  0
   60.4910   34.2850   48.3300 C   0  0  0  0  0  0  0  0  0  0  0  0
   59.4510   34.1510   47.2510 C   0  0  0  0  0  0  0  0  0  0  0  0
   59.6300   34.7760   46.0050 C   0  0  0  0  0  0  0  0  0  0  0  0
   58.6910   34.5950   44.9840 C   0  0  0  0  0  0  0  0  0  0  0  0
   57.5670   33.7950   45.2030 C   0  0  0  0  0  0  0  0  0  0  0  0
   57.3760   33.1800   46.4430 C   0  0  0  0  0  0  0  0  0  0  0  0
   58.3120   33.3570   47.4650 C   0  0  0  0  0  0  0  0  0  0  0  0
   61.8970   32.2330   48.6620 C   0  0  0  0  0  0  0  0  0  0  0  0
   62.8570   32.1010   49.4690 O   0  0  0  0  0  0  0  0  0  0  0  0
   61.0070   31.0840   48.3960 C   0  0  0  0  0  0  0  0  0  0  0  0
   60.9140   30.5430   47.1050 C   0  0  0  0  0  0  0  0  0  0  0  0
   60.0290   29.4940   46.8420 C   0  0  0  0  0  0  0  0  0  0  0  0
   59.2230   28.9650   47.8630 C   0  0  0  0  0  0  0  0  0  0  0  0
   58.2970   27.9100   47.5500 N   0  0  0  0  0  0  0  0  0  0  0  0
   57.7740   27.5310   45.9400 S   0  0  0  0  0  0  0  0  0  0  0  0
   58.9630   27.1340   45.1100 O   0  0  0  0  0  0  0  0  0  0  0  0
   56.8070   26.3820   45.9880 O   0  0  0  0  0  0  0  0  0  0  0  0
   56.9750   28.9230   45.2330 C   0  0  0  0  0  0  0  0  0  0  0  0
   57.5570   30.1330   44.9570 C   0  0  0  0  0  0  0  0  0  0  0  0
   56.6260   30.9510   44.4380 N   0  0  0  0  0  0  0  0  0  0  0  0
   55.5030   30.2000   44.4190 C   0  0  0  0  0  0  0  0  0  0  0  0
   55.6750   28.9520   44.8990 N   0  0  0  0  0  0  0  0  0  0  0  0
   59.3500   29.4810   49.1640 C   0  0  0  0  0  0  0  0  0  0  0  0
   60.2410   30.5240   49.4290 C   0  0  0  0  0  0  0  0  0  0  0  0
   64.0930   32.7416   47.8148 H   0  0  0  0  0  0  0  0  0  0  0  0
   63.5455   32.0282   46.2599 H   0  0  0  0  0  0  0  0  0  0  0  0
   64.5649   33.5072   46.2599 H   0  0  0  0  0  0  0  0  0  0  0  0
   62.8038   34.8909   46.8880 H   0  0  0  0  0  0  0  0  0  0  0  0
   61.9199   33.6459   45.9252 H   0  0  0  0  0  0  0  0  0  0  0  0
   60.0704   33.9267   49.2811 H   0  0  0  0  0  0  0  0  0  0  0  0
   60.7783   35.3439   48.4094 H   0  0  0  0  0  0  0  0  0  0  0  0
   60.5120   35.4101   45.8319 H   0  0  0  0  0  0  0  0  0  0  0  0
   58.8377   35.0825   44.0089 H   0  0  0  0  0  0  0  0  0  0  0  0
   56.8314   33.6490   44.3983 H   0  0  0  0  0  0  0  0  0  0  0  0
   56.4870   32.5553   46.6149 H   0  0  0  0  0  0  0  0  0  0  0  0
   58.1566   32.8730   48.4405 H   0  0  0  0  0  0  0  0  0  0  0  0
   61.5407   30.9464   46.2959 H   0  0  0  0  0  0  0  0  0  0  0  0
   59.9631   29.0787   45.8255 H   0  0  0  0  0  0  0  0  0  0  0  0
   57.9760   27.2730   48.3140 H   0  0  0  0  0  0  0  0  0  0  0  0
   58.6118   30.3915   45.1316 H   0  0  0  0  0  0  0  0  0  0  0  0
   54.5374   30.5725   44.0463 H   0  0  0  0  0  0  0  0  0  0  0  0
   58.7434   29.0606   49.9797 H   0  0  0  0  0  0  0  0  0  0  0  0
   60.3425   30.9086   50.4546 H   0  0  0  0  0  0  0  0  0  0  0  0
  1  2  1  0
  2  3  1  0
  3  4  1  0
  4  5  1  0
  5  6  2  0
  6  7  1  0
  7  8  2  0
  8  9  1  0
  9 10  2  0
  3 11  1  0
 11 12  2  0
 11 13  1  0
 13 14  2  0
 14 15  1  0
 15 16  2  0
 16 17  1  0
 17 18  1  0
 18 19  2  0
 18 20  2  0
 18 21  1  0
 21 22  2  0
 22 23  1  0
 23 24  1  0
 24 25  2  0
 16 26  1  0
 26 27  2  0
 10  5  1  0
 27 13  1  0
 25 21  1  0
  1 28  1  0
  1 29  1  0
  1 30  1  0
  2 31  1  0
  2 32  1  0
  4 33  1  0
  4 34  1  0
  6 35  1  0
  7 36  1  0
  8 37  1  0
  9 38  1  0
 10 39  1  0
 14 40  1  0
 15 41  1  0
 17 42  1  0
 22 43  1  0
 24 44  1  0
 26 45  1  0
 27 46  1  0
M  CHG  1  23  -1
M  END
>  <UniqueID>  (12) 
12

>  <SMILES>  (12) 
CCN(Cc1ccccc1)C(=O)c1ccc(NS(=O)(=O)c2c[n-]cn2)cc1

>  <Energy>  (12) 
77.9116681680969

>  <Genealogy>  (12) 
CCN(Cc1ccccc1)C(=O)c1ccc(NS(=O)(=O)c2c[n-]cn2)cc1 (protonated)
CCN(Cc1ccccc1)C(=O)c1ccc(NS(=O)(=O)c2c[n-]cn2)cc1 (3D coordinates assigned)
CCN(Cc1ccccc1)C(=O)c1ccc(NS(=O)(=O)c2c[n-]cn2)cc1 (optimized conformer: 77.9116681680969 kcal/mol)

>  <smiles>  (12) 
CCN(Cc1ccccc1)C(=O)c1ccc(NS(=O)(=O)c2c[nH]cn2)cc1

>  <score_type>  (12) 
oracle

>  <origin>  (12) 
adg

>  <m_score__min__energy>  (12) 
-10.220000000000001

>  <m_primary>  (12) 
energy

$$$$
12:0
     RDKit          3D

 38 40  0  0  0  0  0  0  0  0999 V2000
   59.4480   30.4570   45.2990 O   0  0  0  0  0  0  0  0  0  0  0  0
   58.2650   30.0290   45.2050 C   0  0  0  0  0  0  0  0  0  0  0  0
   57.1880   30.9220   45.2650 O   0  0  0  0  0  0  0  0  0  0  0  0
   57.2110   32.2200   44.6750 C   0  0  0  0  0  0  0  0  0  0  0  0
   58.0340   33.1620   45.5110 C   0  0  0  0  0  0  0  0  0  0  0  0
   58.0890   32.9940   46.9050 C   0  0  0  0  0  0  0  0  0  0  0  0
   58.8670   33.8540   47.6870 C   0  0  0  0  0  0  0  0  0  0  0  0
   59.5970   34.8820   47.0830 C   0  0  0  0  0  0  0  0  0  0  0  0
   59.5500   35.0520   45.6960 C   0  0  0  0  0  0  0  0  0  0  0  0
   58.7730   34.1950   44.9110 C   0  0  0  0  0  0  0  0  0  0  0  0
   58.0120   28.5810   45.0290 C   0  0  0  0  0  0  0  0  0  0  0  0
   58.3610   27.9430   43.8290 C   0  0  0  0  0  0  0  0  0  0  0  0
   58.1230   26.5760   43.6570 C   0  0  0  0  0  0  0  0  0  0  0  0
   57.5210   25.8190   44.6770 C   0  0  0  0  0  0  0  0  0  0  0  0
   57.2820   24.3660   44.4760 C   0  0  0  0  0  0  0  0  0  0  0  0
   57.8210   23.4010   45.3390 C   0  0  0  0  0  0  0  0  0  0  0  0
   57.5530   22.0530   45.0940 C   0  0  0  0  0  0  0  0  0  0  0  0
   58.0320   21.1750   45.8630 O   0  0  0  0  0  0  0  0  0  0  0  0
   56.7780   21.6870   44.0340 N   0  0  0  0  0  0  0  0  0  0  0  0
   56.5310   20.3440   43.8170 O   0  0  0  0  0  0  0  0  0  0  0  0
   56.2510   22.6410   43.2090 C   0  0  0  0  0  0  0  0  0  0  0  0
   55.5270   22.3140   42.2320 O   0  0  0  0  0  0  0  0  0  0  0  0
   56.5050   23.9550   43.4380 N   0  0  0  0  0  0  0  0  0  0  0  0
   57.1820   26.4590   45.8830 C   0  0  0  0  0  0  0  0  0  0  0  0
   57.4220   27.8260   46.0550 C   0  0  0  0  0  0  0  0  0  0  0  0
   57.6485   32.1526   43.6680 H   0  0  0  0  0  0  0  0  0  0  0  0
   56.1815   32.6029   44.6152 H   0  0  0  0  0  0  0  0  0  0  0  0
   57.5186   32.1838   47.3827 H   0  0  0  0  0  0  0  0  0  0  0  0
   58.9045   33.7214   48.7783 H   0  0  0  0  0  0  0  0  0  0  0  0
   60.2086   35.5574   47.6992 H   0  0  0  0  0  0  0  0  0  0  0  0
   60.1251   35.8610   45.2219 H   0  0  0  0  0  0  0  0  0  0  0  0
   58.7402   34.3301   43.8198 H   0  0  0  0  0  0  0  0  0  0  0  0
   58.8253   28.5226   43.0175 H   0  0  0  0  0  0  0  0  0  0  0  0
   58.4098   26.0879   42.7138 H   0  0  0  0  0  0  0  0  0  0  0  0
   58.4443   23.7010   46.1943 H   0  0  0  0  0  0  0  0  0  0  0  0
   57.1560   19.6210   44.1530 H   0  0  0  0  0  0  0  0  0  0  0  0
   56.7241   25.8791   46.6979 H   0  0  0  0  0  0  0  0  0  0  0  0
   57.1463   28.3135   47.0017 H   0  0  0  0  0  0  0  0  0  0  0  0
  1  2  2  0
  2  3  1  0
  3  4  1  0
  4  5  1  0
  5  6  2  0
  6  7  1  0
  7  8  2  0
  8  9  1  0
  9 10  2  0
  2 11  1  0
 11 12  2  0
 12 13  1  0
 13 14  2  0
 14 15  1  0
 15 16  2  0
 16 17  1  0
 17 18  2  0
 17 19  1  0
 19 20  1  0
 19 21  1  0
 21 22  2  0
 21 23  1  0
 14 24  1  0
 24 25  2  0
 10  5  1  0
 25 11  1  0
 23 15  1  0
  4 26  1  0
  4 27  1  0
  6 28  1  0
  7 29  1  0
  8 30  1  0
  9 31  1  0
 10 32  1  0
 12 33  1  0
 13 34  1  0
 16 35  1  0
 20 36  1  0
 24 37  1  0
 25 38  1  0
M  CHG  1  23  -1
M  END
>  <UniqueID>  (13) 
13

>  <SMILES>  (13) 
O=C(OCc1ccccc1)c1ccc(-c2cc(=O)n(O)c(=O)[n-]2)cc1

>  <Energy>  (13) 
45.710788954518016

>  <Genealogy>  (13) 
O=C(OCc1ccccc1)c1ccc(-c2cc(=O)n(O)c(=O)[n-]2)cc1 (protonated)
O=C(OCc1ccccc1)c1ccc(-c2cc(=O)n(O)c(=O)[n-]2)cc1 (3D coordinates assigned)
O=C(OCc1ccccc1)c1ccc(-c2cc(=O)n(O)c(=O)[n-]2)cc1 (optimized conformer: 45.710788954518016 kcal/mol)

>  <smiles>  (13) 
O=C(OCc1ccccc1)c1ccc(-c2cc(=O)n(O)c(=O)[nH]2)cc1

>  <score_type>  (13) 
oracle

>  <origin>  (13) 
adg

>  <m_score__min__energy>  (13) 
-10.09

>  <m_primary>  (13) 
energy

$$$$
13:0
     RDKit          3D

 45 47  0  0  0  0  0  0  0  0999 V2000
   61.4260   34.0470   46.4020 N   0  0  0  0  0  0  0  0  0  0  0  0
   59.7670   34.5180   46.2800 S   0  0  0  0  0  0  0  0  0  0  0  0
   59.6350   35.6260   45.2740 O   0  0  0  0  0  0  0  0  0  0  0  0
   59.2890   35.0170   47.6150 O   0  0  0  0  0  0  0  0  0  0  0  0
   58.7950   33.1390   45.7780 C   0  0  0  0  0  0  0  0  0  0  0  0
   58.5680   32.0770   46.6630 C   0  0  0  0  0  0  0  0  0  0  0  0
   57.7770   30.9920   46.2730 C   0  0  0  0  0  0  0  0  0  0  0  0
   57.1980   30.9540   44.9930 C   0  0  0  0  0  0  0  0  0  0  0  0
   56.3760   29.7900   44.5800 C   0  0  0  0  0  0  0  0  0  0  0  0
   55.1370   29.9380   44.4030 O   0  0  0  0  0  0  0  0  0  0  0  0
   56.9400   28.4830   44.4150 N   0  0  0  0  0  0  0  0  0  0  0  0
   57.3780   27.6220   45.4770 C   0  0  0  0  0  0  0  0  0  0  0  0
   56.4610   26.7450   46.0670 C   0  0  0  0  0  0  0  0  0  0  0  0
   55.1430   26.7020   45.6240 O   0  0  0  0  0  0  0  0  0  0  0  0
   56.8630   25.9190   47.1160 C   0  0  0  0  0  0  0  0  0  0  0  0
   58.1840   25.9650   47.5590 C   0  0  0  0  0  0  0  0  0  0  0  0
   59.0880   26.7920   46.9570 N   0  0  0  0  0  0  0  0  0  0  0  0
   60.4460   26.7740   47.4160 C   0  0  0  0  0  0  0  0  0  0  0  0
   61.3590   26.3710   46.6470 O   0  0  0  0  0  0  0  0  0  0  0  0
   60.7890   27.2630   48.7890 C   0  0  0  0  0  0  0  0  0  0  0  0
   60.6990   28.7630   48.8380 C   0  0  0  0  0  0  0  0  0  0  0  0
   60.3270   29.4120   50.0270 C   0  0  0  0  0  0  0  0  0  0  0  0
   60.2950   30.8080   50.0880 C   0  0  0  0  0  0  0  0  0  0  0  0
   60.6430   31.5700   48.9680 C   0  0  0  0  0  0  0  0  0  0  0  0
   60.6120   32.9600   49.0450 O   0  0  0  0  0  0  0  0  0  0  0  0
   61.0240   30.9300   47.7820 C   0  0  0  0  0  0  0  0  0  0  0  0
   61.0540   29.5320   47.7170 C   0  0  0  0  0  0  0  0  0  0  0  0
   58.7150   27.6110   45.9230 C   0  0  0  0  0  0  0  0  0  0  0  0
   59.5730   28.3450   45.3590 O   0  0  0  0  0  0  0  0  0  0  0  0
   57.4430   32.0170   44.1050 C   0  0  0  0  0  0  0  0  0  0  0  0
   58.2270   33.1050   44.4990 C   0  0  0  0  0  0  0  0  0  0  0  0
   61.6330   33.9210   47.4190 H   0  0  0  0  0  0  0  0  0  0  0  0
   59.0137   32.0968   47.6685 H   0  0  0  0  0  0  0  0  0  0  0  0
   57.6065   30.1614   46.9737 H   0  0  0  0  0  0  0  0  0  0  0  0
   56.1430   25.2360   47.5905 H   0  0  0  0  0  0  0  0  0  0  0  0
   58.5003   25.3302   48.3999 H   0  0  0  0  0  0  0  0  0  0  0  0
   60.0847   26.8319   49.5157 H   0  0  0  0  0  0  0  0  0  0  0  0
   61.8155   26.9546   49.0362 H   0  0  0  0  0  0  0  0  0  0  0  0
   60.0597   28.8189   50.9140 H   0  0  0  0  0  0  0  0  0  0  0  0
   59.9951   31.3091   51.0202 H   0  0  0  0  0  0  0  0  0  0  0  0
   60.7610   33.5390   48.2260 H   0  0  0  0  0  0  0  0  0  0  0  0
   61.3001   31.5268   46.9002 H   0  0  0  0  0  0  0  0  0  0  0  0
   61.3568   29.0334   46.7844 H   0  0  0  0  0  0  0  0  0  0  0  0
   57.0142   31.9918   43.0924 H   0  0  0  0  0  0  0  0  0  0  0  0
   58.3984   33.9379   43.8012 H   0  0  0  0  0  0  0  0  0  0  0  0
  1  2  1  0
  2  3  2  0
  2  4  2  0
  2  5  1  0
  5  6  2  0
  6  7  1  0
  7  8  2  0
  8  9  1  0
  9 10  2  0
  9 11  1  0
 11 12  1  0
 12 13  2  0
 13 14  1  0
 13 15  1  0
 15 16  2  0
 16 17  1  0
 17 18  1  0
 18 19  2  0
 18 20  1  0
 20 21  1  0
 21 22  2  0
 22 23  1  0
 23 24  2  0
 24 25  1  0
 24 26  1  0
 26 27  2  0
 17 28  1  0
 28 29  2  0
  8 30  1  0
 30 31  2  0
 31  5  1  0
 28 12  1  0
 27 21  1  0
  1 32  1  0
  6 33  1  0
  7 34  1  0
 15 35  1  0
 16 36  1  0
 20 37  1  0
 20 38  1  0
 22 39  1  0
 23 40  1  0
 25 41  1  0
 26 42  1  0
 27 43  1  0
 30 44  1  0
 31 45  1  0
M  CHG  3   1  -1  11  -1  14  -1
M  END
>  <UniqueID>  (14) 
14

>  <SMILES>  (14) 
[NH-]S(=O)(=O)c1ccc(C(=O)[N-]c2c([O-])ccn(C(=O)Cc3ccc(O)cc3)c2=O)cc1

>  <Energy>  (14) 
59.531666370704535

>  <Genealogy>  (14) 
[NH-]S(=O)(=O)c1ccc(C(=O)[N-]c2c([O-])ccn(C(=O)Cc3ccc(O)cc3)c2=O)cc1 (protonated)
[NH-]S(=O)(=O)c1ccc(C(=O)[N-]c2c([O-])ccn(C(=O)Cc3ccc(O)cc3)c2=O)cc1 (3D coordinates assigned)
[NH-]S(=O)(=O)c1ccc(C(=O)[N-]c2c([O-])ccn(C(=O)Cc3ccc(O)cc3)c2=O)cc1 (optimized conformer: 59.531666370704535 kcal/mol)

>  <smiles>  (14) 
NS(=O)(=O)c1ccc(C(=O)Nc2c(O)ccn(C(=O)Cc3ccc(O)cc3)c2=O)cc1

>  <score_type>  (14) 
oracle

>  <origin>  (14) 
adg

>  <m_score__min__energy>  (14) 
-14.15

>  <m_primary>  (14) 
energy

$$$$
14:0
     RDKit          3D

 41 43  0  0  0  0  0  0  0  0999 V2000
   63.5920   31.3370   47.6340 N   0  0  0  0  0  0  0  0  0  0  0  0
   63.5610   33.0650   47.6190 S   0  0  0  0  0  0  0  0  0  0  0  0
   64.3820   33.5950   48.7620 O   0  0  0  0  0  0  0  0  0  0  0  0
   64.1520   33.5580   46.3290 O   0  0  0  0  0  0  0  0  0  0  0  0
   61.9000   33.6230   47.7810 C   0  0  0  0  0  0  0  0  0  0  0  0
   61.3470   33.8720   49.0470 C   0  0  0  0  0  0  0  0  0  0  0  0
   60.0330   34.3350   49.1580 C   0  0  0  0  0  0  0  0  0  0  0  0
   59.2700   34.5650   48.0100 C   0  0  0  0  0  0  0  0  0  0  0  0
   59.8180   34.3300   46.7420 C   0  0  0  0  0  0  0  0  0  0  0  0
   58.8760   34.6630   45.2920 S   0  0  0  0  0  0  0  0  0  0  0  0
   57.4540   34.9370   45.6890 O   0  0  0  0  0  0  0  0  0  0  0  0
   59.4270   35.8600   44.5700 O   0  0  0  0  0  0  0  0  0  0  0  0
   58.9130   33.2940   44.2260 N   0  0  0  0  0  0  0  0  0  0  0  0
   58.1490   32.0930   44.4030 C   0  0  0  0  0  0  0  0  0  0  0  0
   57.3210   31.5770   43.3890 C   0  0  0  0  0  0  0  0  0  0  0  0
   56.6180   30.3870   43.5920 C   0  0  0  0  0  0  0  0  0  0  0  0
   56.7350   29.6900   44.8080 C   0  0  0  0  0  0  0  0  0  0  0  0
   56.0420   28.4960   45.0500 O   0  0  0  0  0  0  0  0  0  0  0  0
   56.6000   27.3440   45.6230 C   0  0  0  0  0  0  0  0  0  0  0  0
   57.9950   27.2310   45.6800 C   0  0  0  0  0  0  0  0  0  0  0  0
   58.5900   26.0990   46.2440 C   0  0  0  0  0  0  0  0  0  0  0  0
   57.7950   25.0650   46.7430 C   0  0  0  0  0  0  0  0  0  0  0  0
   56.4020   25.1560   46.6680 C   0  0  0  0  0  0  0  0  0  0  0  0
   55.8000   26.2840   46.1000 C   0  0  0  0  0  0  0  0  0  0  0  0
   54.4150   26.3320   45.9880 O   0  0  0  0  0  0  0  0  0  0  0  0
   57.5360   30.2220   45.8250 C   0  0  0  0  0  0  0  0  0  0  0  0
   58.2400   31.4130   45.6220 C   0  0  0  0  0  0  0  0  0  0  0  0
   61.1300   33.8490   46.6330 C   0  0  0  0  0  0  0  0  0  0  0  0
   64.5190   31.0450   47.2530 H   0  0  0  0  0  0  0  0  0  0  0  0
   61.9483   33.7026   49.9524 H   0  0  0  0  0  0  0  0  0  0  0  0
   59.5982   34.5188   50.1516 H   0  0  0  0  0  0  0  0  0  0  0  0
   58.2369   34.9313   48.1020 H   0  0  0  0  0  0  0  0  0  0  0  0
   57.2269   32.1127   42.4329 H   0  0  0  0  0  0  0  0  0  0  0  0
   55.9691   29.9928   42.7961 H   0  0  0  0  0  0  0  0  0  0  0  0
   58.6258   28.0378   45.2786 H   0  0  0  0  0  0  0  0  0  0  0  0
   59.6862   26.0225   46.2949 H   0  0  0  0  0  0  0  0  0  0  0  0
   58.2648   24.1790   47.1950 H   0  0  0  0  0  0  0  0  0  0  0  0
   55.7773   24.3383   47.0567 H   0  0  0  0  0  0  0  0  0  0  0  0
   57.6122   29.6999   46.7902 H   0  0  0  0  0  0  0  0  0  0  0  0
   58.8703   31.8183   46.4272 H   0  0  0  0  0  0  0  0  0  0  0  0
   61.5576   33.6477   45.6397 H   0  0  0  0  0  0  0  0  0  0  0  0
  1  2  1  0
  2  3  2  0
  2  4  2  0
  2  5  1  0
  5  6  2  0
  6  7  1  0
  7  8  2  0
  8  9  1  0
  9 10  1  0
 10 11  2  0
 10 12  2  0
 10 13  1  0
 13 14  1  0
 14 15  2  0
 15 16  1  0
 16 17  2  0
 17 18  1  0
 18 19  1  0
 19 20  2  0
 20 21  1  0
 21 22  2  0
 22 23  1  0
 23 24  2  0
 24 25  1  0
 17 26  1  0
 26 27  2  0
  9 28  2  0
 28  5  1  0
 27 14  1  0
 24 19  1  0
  1 29  1  0
  6 30  1  0
  7 31  1  0
  8 32  1  0
 15 33  1  0
 16 34  1  0
 20 35  1  0
 21 36  1  0
 22 37  1  0
 23 38  1  0
 26 39  1  0
 27 40  1  0
 28 41  1  0
M  CHG  3   1  -1  13  -1  25  -1
M  END
>  <UniqueID>  (15) 
15

>  <SMILES>  (15) 
[NH-]S(=O)(=O)c1cccc(S(=O)(=O)[N-]c2ccc(Oc3ccccc3[O-])cc2)c1

>  <Energy>  (15) 
53.50670098138735

>  <Genealogy>  (15) 
[NH-]S(=O)(=O)c1cccc(S(=O)(=O)[N-]c2ccc(Oc3ccccc3[O-])cc2)c1 (protonated)
[NH-]S(=O)(=O)c1cccc(S(=O)(=O)[N-]c2ccc(Oc3ccccc3[O-])cc2)c1 (3D coordinates assigned)
[NH-]S(=O)(=O)c1cccc(S(=O)(=O)[N-]c2ccc(Oc3ccccc3[O-])cc2)c1 (optimized conformer: 53.50670098138735 kcal/mol)

>  <smiles>  (15) 
NS(=O)(=O)c1cccc(S(=O)(=O)Nc2ccc(Oc3ccccc3O)cc2)c1

>  <score_type>  (15) 
oracle

>  <origin>  (15) 
adg

>  <m_score__min__energy>  (15) 
-14.83

>  <m_primary>  (15) 
energy

$$$$
15:0
     RDKit          3D

 43 46  0  0  0  0  0  0  0  0999 V2000
   56.6428   21.1236   43.1880 H   0  0  0  0  0  0  0  0  0  0  0  0
   56.4690   21.9840   43.8510 C   0  0  0  0  0  0  0  0  0  0  0  0
   56.6700   23.2840   43.3770 C   0  0  0  0  0  0  0  0  0  0  0  0
   57.0096   23.4453   42.3432 H   0  0  0  0  0  0  0  0  0  0  0  0
   56.4400   24.3790   44.2150 C   0  0  0  0  0  0  0  0  0  0  0  0
   56.6191   25.3993   43.8449 H   0  0  0  0  0  0  0  0  0  0  0  0
   55.9820   24.1820   45.5250 C   0  0  0  0  0  0  0  0  0  0  0  0
   55.7930   25.3200   46.3800 N   0  0  0  0  0  0  0  0  0  0  0  0
   56.4660   26.4370   46.3620 C   0  0  0  0  0  0  0  0  0  0  0  0
   55.9920   27.4670   45.6190 N   0  0  0  0  0  0  0  0  0  0  0  0
   58.2930   27.7890   47.0290 C   0  0  0  0  0  0  0  0  0  0  0  0
   59.3980   27.9860   47.6930 N   0  0  0  0  0  0  0  0  0  0  0  0
   60.0600   29.2390   47.9200 C   0  0  0  0  0  0  0  0  0  0  0  0
   60.7470   29.8990   46.8840 C   0  0  0  0  0  0  0  0  0  0  0  0
   60.8089   29.4389   45.8868 H   0  0  0  0  0  0  0  0  0  0  0  0
   60.5360   31.1050   49.3980 C   0  0  0  0  0  0  0  0  0  0  0  0
   60.4485   31.5829   50.3849 H   0  0  0  0  0  0  0  0  0  0  0  0
   58.3800   33.0760   43.6060 C   0  0  0  0  0  0  0  0  0  0  0  0
   58.9473   33.9653   43.2940 H   0  0  0  0  0  0  0  0  0  0  0  0
   58.1660   32.8240   44.9650 C   0  0  0  0  0  0  0  0  0  0  0  0
   58.7870   33.9360   46.1710 Cl  0  0  0  0  0  0  0  0  0  0  0  0
   59.9330   29.8640   49.1670 C   0  0  0  0  0  0  0  0  0  0  0  0
   59.3569   29.3772   49.9677 H   0  0  0  0  0  0  0  0  0  0  0  0
   57.7990   28.8060   46.2780 N   0  0  0  0  0  0  0  0  0  0  0  0
   56.6450   28.6570   45.5820 C   0  0  0  0  0  0  0  0  0  0  0  0
   56.2120   29.6460   44.8550 N   0  0  0  0  0  0  0  0  0  0  0  0
   56.9680   30.7830   44.4060 C   0  0  0  0  0  0  0  0  0  0  0  0
   57.1610   31.0610   43.0390 C   0  0  0  0  0  0  0  0  0  0  0  0
   56.7500   30.3810   42.2783 H   0  0  0  0  0  0  0  0  0  0  0  0
   57.8730   32.1980   42.6450 C   0  0  0  0  0  0  0  0  0  0  0  0
   58.0343   32.4016   41.5761 H   0  0  0  0  0  0  0  0  0  0  0  0
   61.2500   31.7390   48.3760 C   0  0  0  0  0  0  0  0  0  0  0  0
   61.7317   32.7103   48.5619 H   0  0  0  0  0  0  0  0  0  0  0  0
   61.3510   31.1380   47.1190 C   0  0  0  0  0  0  0  0  0  0  0  0
   61.9064   31.6401   46.3131 H   0  0  0  0  0  0  0  0  0  0  0  0
   57.4540   31.6870   45.3620 C   0  0  0  0  0  0  0  0  0  0  0  0
   57.2741   31.5007   46.4311 H   0  0  0  0  0  0  0  0  0  0  0  0
   57.6040   26.6100   47.0990 N   0  0  0  0  0  0  0  0  0  0  0  0
   57.9040   25.8740   47.7720 H   0  0  0  0  0  0  0  0  0  0  0  0
   55.8180   22.8710   46.0090 C   0  0  0  0  0  0  0  0  0  0  0  0
   55.5089   22.7057   47.0516 H   0  0  0  0  0  0  0  0  0  0  0  0
   56.0470   21.7780   45.1680 C   0  0  0  0  0  0  0  0  0  0  0  0
   55.8951   20.7550   45.5427 H   0  0  0  0  0  0  0  0  0  0  0  0
  1  2  1  0
  2  3  2  0
  3  4  1  0
  3  5  1  0
  5  6  1  0
  5  7  2  0
  7  8  1  0
  8  9  2  3
  9 10  1  0
 10 11  1  0
 11 12  2  0
 12 13  1  0
 13 14  2  0
 14 15  1  0
 14 16  1  0
 16 17  1  0
 16 18  2  0
 18 19  1  0
 18 20  1  0
 20 21  1  0
 20 22  2  0
 22 23  1  0
 11 24  1  0
 24 25  1  0
 25 26  2  0
 26 27  1  0
 27 28  2  0
 28 29  1  0
 28 30  1  0
 30 31  1  0
 30 32  2  0
 32 33  1  0
 32 34  1  0
 34 35  1  0
 34 36  2  0
 36 37  1  0
 25 38  1  0
 38 39  1  0
  7 40  1  0
 40 41  1  0
 40 42  2  0
 42 43  1  0
 42  2  1  0
 38  9  1  0
 22 13  1  0
 36 27  1  0
M  CHG  2  10  -1  24  -1
M  END
>  <UniqueID>  (16) 
16

>  <SMILES>  (16) 
Clc1cccc(/N=c2\[n-]c(=Nc3ccccc3)[nH]/c(=N\c3ccccc3)[n-]2)c1

>  <Energy>  (16) 
71.27388419622746

>  <Genealogy>  (16) 
Clc1cccc(N=c2[n-]c(=Nc3ccccc3)[nH]c(=Nc3ccccc3)[n-]2)c1 (protonated)
Clc1cccc(/N=c2\[n-]c(=Nc3ccccc3)[nH]/c(=N\c3ccccc3)[n-]2)c1 (cis-trans isomerization)
Clc1cccc(/N=c2\[n-]c(=Nc3ccccc3)[nH]/c(=N\c3ccccc3)[n-]2)c1 (3D coordinates assigned)
Clc1cccc(/N=c2\[n-]c(=Nc3ccccc3)[nH]/c(=N\c3ccccc3)[n-]2)c1 (optimized conformer: 71.27388419622746 kcal/mol)

>  <smiles>  (16) 
Clc1cccc(N=c2[nH]c(=Nc3ccccc3)[nH]c(=Nc3ccccc3)[nH]2)c1

>  <score_type>  (16) 
oracle

>  <origin>  (16) 
adg

>  <m_score__min__energy>  (16) 
-11.880000000000001

>  <m_primary>  (16) 
energy

$$$$
16:0
     RDKit          3D

 63 66  0  0  0  0  0  0  0  0999 V2000
   61.8650   33.7480   50.6450 C   0  0  0  0  0  0  0  0  0  0  0  0
   63.0940   32.9840   51.1310 C   0  0  0  0  0  0  0  0  0  0  0  0
   64.3380   33.8810   51.1300 C   0  0  0  0  0  0  0  0  0  0  0  0
   65.3700   33.4210   50.0910 C   0  0  0  0  0  0  0  0  0  0  0  0
   64.7350   32.6760   49.0020 N   0  0  0  0  0  0  0  0  0  0  0  0
   63.8870   33.3080   48.0320 C   0  0  0  0  0  0  0  0  0  0  0  0
   63.7020   34.5550   48.0650 O   0  0  0  0  0  0  0  0  0  0  0  0
   63.2380   32.5030   46.9490 C   0  0  0  0  0  0  0  0  0  0  0  0
   61.9910   31.9110   47.4370 N   0  0  0  0  0  0  0  0  0  0  0  0
   61.9010   30.8620   48.2910 C   0  0  0  0  0  0  0  0  0  0  0  0
   60.5690   30.5770   48.5630 C   0  0  0  0  0  0  0  0  0  0  0  0
   60.0460   29.5010   49.4620 C   0  0  0  0  0  0  0  0  0  0  0  0
   59.4670   28.4280   48.6640 N   0  0  0  0  0  0  0  0  0  0  0  0
   60.2140   27.6340   47.7370 C   0  0  0  0  0  0  0  0  0  0  0  0
   61.0150   26.7560   48.1570 O   0  0  0  0  0  0  0  0  0  0  0  0
   60.0650   27.8520   46.2600 C   0  0  0  0  0  0  0  0  0  0  0  0
   58.6070   27.9530   45.8620 C   0  0  0  0  0  0  0  0  0  0  0  0
   57.7330   26.9390   46.2840 C   0  0  0  0  0  0  0  0  0  0  0  0
   56.3750   27.0050   45.9720 C   0  0  0  0  0  0  0  0  0  0  0  0
   55.5880   26.1090   46.3800 O   0  0  0  0  0  0  0  0  0  0  0  0
   55.8930   28.0450   45.2460 N   0  0  0  0  0  0  0  0  0  0  0  0
   56.6960   29.0510   44.8090 C   0  0  0  0  0  0  0  0  0  0  0  0
   56.1390   30.1080   44.0780 C   0  0  0  0  0  0  0  0  0  0  0  0
   56.9410   31.1690   43.6570 C   0  0  0  0  0  0  0  0  0  0  0  0
   58.3040   31.1790   43.9550 C   0  0  0  0  0  0  0  0  0  0  0  0
   58.8750   30.1300   44.6810 C   0  0  0  0  0  0  0  0  0  0  0  0
   58.0810   29.0450   45.1180 C   0  0  0  0  0  0  0  0  0  0  0  0
   59.8320   31.4880   47.8350 C   0  0  0  0  0  0  0  0  0  0  0  0
   58.4550   31.6500   47.7080 C   0  0  0  0  0  0  0  0  0  0  0  0
   57.9880   32.6850   46.8820 C   0  0  0  0  0  0  0  0  0  0  0  0
   58.8900   33.5380   46.2050 C   0  0  0  0  0  0  0  0  0  0  0  0
   58.3590   34.5570   45.3980 O   0  0  0  0  0  0  0  0  0  0  0  0
   57.0380   34.5510   44.8660 C   0  0  0  0  0  0  0  0  0  0  0  0
   60.2860   33.3430   46.3530 C   0  0  0  0  0  0  0  0  0  0  0  0
   60.7230   32.2960   47.1730 C   0  0  0  0  0  0  0  0  0  0  0  0
   61.2894   34.1058   51.5114 H   0  0  0  0  0  0  0  0  0  0  0  0
   62.1842   34.6071   50.0367 H   0  0  0  0  0  0  0  0  0  0  0  0
   61.2358   33.0816   50.0367 H   0  0  0  0  0  0  0  0  0  0  0  0
   62.9117   32.6238   52.1542 H   0  0  0  0  0  0  0  0  0  0  0  0
   63.2721   32.1390   50.4496 H   0  0  0  0  0  0  0  0  0  0  0  0
   64.0336   34.9121   50.8975 H   0  0  0  0  0  0  0  0  0  0  0  0
   64.8037   33.8218   52.1248 H   0  0  0  0  0  0  0  0  0  0  0  0
   65.8757   34.3041   49.6734 H   0  0  0  0  0  0  0  0  0  0  0  0
   66.0920   32.7577   50.5898 H   0  0  0  0  0  0  0  0  0  0  0  0
   64.9550   31.6570   48.9030 H   0  0  0  0  0  0  0  0  0  0  0  0
   63.0188   33.1569   46.0920 H   0  0  0  0  0  0  0  0  0  0  0  0
   63.9215   31.6977   46.6419 H   0  0  0  0  0  0  0  0  0  0  0  0
   62.7593   30.3152   48.7085 H   0  0  0  0  0  0  0  0  0  0  0  0
   60.8708   29.0999   50.0694 H   0  0  0  0  0  0  0  0  0  0  0  0
   59.2716   29.9224   50.1198 H   0  0  0  0  0  0  0  0  0  0  0  0
   60.5776   28.7848   45.9821 H   0  0  0  0  0  0  0  0  0  0  0  0
   60.5088   26.9926   45.7361 H   0  0  0  0  0  0  0  0  0  0  0  0
   58.1208   26.0882   46.8635 H   0  0  0  0  0  0  0  0  0  0  0  0
   55.0662   30.1015   43.8352 H   0  0  0  0  0  0  0  0  0  0  0  0
   56.4976   31.9999   43.0886 H   0  0  0  0  0  0  0  0  0  0  0  0
   58.9321   32.0164   43.6170 H   0  0  0  0  0  0  0  0  0  0  0  0
   59.9499   30.1488   44.9140 H   0  0  0  0  0  0  0  0  0  0  0  0
   57.7548   30.9878   48.2382 H   0  0  0  0  0  0  0  0  0  0  0  0
   56.9051   32.8344   46.7598 H   0  0  0  0  0  0  0  0  0  0  0  0
   56.3105   34.5477   45.6910 H   0  0  0  0  0  0  0  0  0  0  0  0
   56.8875   35.4485   44.2480 H   0  0  0  0  0  0  0  0  0  0  0  0
   56.8957   33.6522   44.2480 H   0  0  0  0  0  0  0  0  0  0  0  0
   61.0059   33.9961   45.8380 H   0  0  0  0  0  0  0  0  0  0  0  0
  1  2  1  0
  2  3  1  0
  3  4  1  0
  4  5  1  0
  5  6  1  0
  6  7  2  0
  6  8  1  0
  8  9  1  0
  9 10  1  0
 10 11  2  0
 11 12  1  0
 12 13  1  0
 13 14  1  0
 14 15  2  0
 14 16  1  0
 16 17  1  0
 17 18  2  0
 18 19  1  0
 19 20  2  0
 19 21  1  0
 21 22  1  0
 22 23  2  0
 23 24  1  0
 24 25  2  0
 25 26  1  0
 26 27  2  0
 11 28  1  0
 28 29  2  0
 29 30  1  0
 30 31  2  0
 31 32  1  0
 32 33  1  0
 31 34  1  0
 34 35  2  0
 35  9  1  0
 27 17  1  0
 35 28  1  0
 27 22  1  0
  1 36  1  0
  1 37  1  0
  1 38  1  0
  2 39  1  0
  2 40  1  0
  3 41  1  0
  3 42  1  0
  4 43  1  0
  4 44  1  0
  5 45  1  0
  8 46  1  0
  8 47  1  0
 10 48  1  0
 12 49  1  0
 12 50  1  0
 16 51  1  0
 16 52  1  0
 18 53  1  0
 23 54  1  0
 24 55  1  0
 25 56  1  0
 26 57  1  0
 29 58  1  0
 30 59  1  0
 33 60  1  0
 33 61  1  0
 33 62  1  0
 34 63  1  0
M  CHG  2  13  -1  21  -1
M  END
>  <UniqueID>  (17) 
17

>  <SMILES>  (17) 
CCCCNC(=O)Cn1cc(C[N-]C(=O)Cc2cc(=O)[n-]c3ccccc23)c2ccc(OC)cc21

>  <Energy>  (17) 
89.63984019106687

>  <Genealogy>  (17) 
CCCCNC(=O)Cn1cc(C[N-]C(=O)Cc2cc(=O)[n-]c3ccccc23)c2ccc(OC)cc21 (protonated)
CCCCNC(=O)Cn1cc(C[N-]C(=O)Cc2cc(=O)[n-]c3ccccc23)c2ccc(OC)cc21 (3D coordinates assigned)
CCCCNC(=O)Cn1cc(C[N-]C(=O)Cc2cc(=O)[n-]c3ccccc23)c2ccc(OC)cc21 (optimized conformer: 89.63984019106687 kcal/mol)

>  <smiles>  (17) 
CCCCNC(=O)Cn1cc(CNC(=O)Cc2cc(=O)[nH]c3ccccc23)c2ccc(OC)cc21

>  <score_type>  (17) 
oracle

>  <origin>  (17) 
adg

>  <m_score__min__energy>  (17) 
-12.15

>  <m_primary>  (17) 
energy

$$$$
17:0
     RDKit          3D

 70 73  0  0  0  0  0  0  0  0999 V2000
   63.6320   33.6550   47.7370 C   0  0  0  0  0  0  0  0  0  0  0  0
   64.1810   33.6260   49.1030 N   0  0  0  0  0  0  0  0  0  0  0  0
   64.8810   32.3600   49.3720 C   0  0  0  0  0  0  0  0  0  0  0  0
   63.1850   33.9830   50.1400 C   0  0  0  0  0  0  0  0  0  0  0  0
   62.9900   32.9280   51.2420 C   0  0  0  0  0  0  0  0  0  0  0  0
   61.9440   32.0320   50.8860 O   0  0  0  0  0  0  0  0  0  0  0  0
   61.2310   32.0740   49.6790 C   0  0  0  0  0  0  0  0  0  0  0  0
   61.5440   31.2260   48.6000 C   0  0  0  0  0  0  0  0  0  0  0  0
   60.7980   31.2750   47.4210 C   0  0  0  0  0  0  0  0  0  0  0  0
   59.7320   32.1800   47.2880 C   0  0  0  0  0  0  0  0  0  0  0  0
   58.9450   32.2340   46.0300 C   0  0  0  0  0  0  0  0  0  0  0  0
   58.9240   33.4040   45.2520 C   0  0  0  0  0  0  0  0  0  0  0  0
   58.2040   33.4460   44.0560 C   0  0  0  0  0  0  0  0  0  0  0  0
   57.4990   32.3210   43.6240 C   0  0  0  0  0  0  0  0  0  0  0  0
   57.4890   31.1550   44.3980 C   0  0  0  0  0  0  0  0  0  0  0  0
   56.5860   29.7420   43.8610 S   0  0  0  0  0  0  0  0  0  0  0  0
   57.6680   28.4080   43.6630 N   0  0  0  0  0  0  0  0  0  0  0  0
   55.5330   29.3940   44.8770 O   0  0  0  0  0  0  0  0  0  0  0  0
   55.9120   30.0390   42.5500 O   0  0  0  0  0  0  0  0  0  0  0  0
   58.2190   31.1110   45.5940 C   0  0  0  0  0  0  0  0  0  0  0  0
   59.4280   33.0380   48.3570 C   0  0  0  0  0  0  0  0  0  0  0  0
   60.1590   32.9790   49.5570 C   0  0  0  0  0  0  0  0  0  0  0  0
   59.8300   33.8830   50.6820 C   0  0  0  0  0  0  0  0  0  0  0  0
   59.2940   33.4820   51.8440 C   0  0  0  0  0  0  0  0  0  0  0  0
   58.3890   32.3230   51.9880 C   0  0  0  0  0  0  0  0  0  0  0  0
   57.0290   32.5390   52.2420 C   0  0  0  0  0  0  0  0  0  0  0  0
   56.1550   31.4560   52.3710 C   0  0  0  0  0  0  0  0  0  0  0  0
   56.6350   30.1400   52.2640 C   0  0  0  0  0  0  0  0  0  0  0  0
   55.7700   29.0000   52.3700 N   0  0  0  0  0  0  0  0  0  0  0  0
   54.3250   28.9180   53.3260 S   0  0  0  0  0  0  0  0  0  0  0  0
   54.6280   29.1720   54.7760 O   0  0  0  0  0  0  0  0  0  0  0  0
   53.7520   27.5330   53.2060 O   0  0  0  0  0  0  0  0  0  0  0  0
   53.1450   30.0800   52.7210 C   0  0  0  0  0  0  0  0  0  0  0  0
   53.1430   30.4360   51.3630 C   0  0  0  0  0  0  0  0  0  0  0  0
   52.2130   31.3610   50.8780 C   0  0  0  0  0  0  0  0  0  0  0  0
   51.2860   31.9420   51.7480 C   0  0  0  0  0  0  0  0  0  0  0  0
   51.2950   31.6080   53.1060 C   0  0  0  0  0  0  0  0  0  0  0  0
   52.2160   30.6740   53.5910 C   0  0  0  0  0  0  0  0  0  0  0  0
   58.0020   29.9260   52.0600 C   0  0  0  0  0  0  0  0  0  0  0  0
   58.8760   31.0070   51.9200 C   0  0  0  0  0  0  0  0  0  0  0  0
   62.5345   33.7130   47.7841 H   0  0  0  0  0  0  0  0  0  0  0  0
   64.0230   34.5337   47.2032 H   0  0  0  0  0  0  0  0  0  0  0  0
   63.9283   32.7400   47.2032 H   0  0  0  0  0  0  0  0  0  0  0  0
   64.9637   32.2105   50.4586 H   0  0  0  0  0  0  0  0  0  0  0  0
   64.3153   31.5270   48.9292 H   0  0  0  0  0  0  0  0  0  0  0  0
   65.8873   32.3962   48.9292 H   0  0  0  0  0  0  0  0  0  0  0  0
   63.5095   34.9195   50.6172 H   0  0  0  0  0  0  0  0  0  0  0  0
   62.2185   34.0699   49.6221 H   0  0  0  0  0  0  0  0  0  0  0  0
   63.9242   32.3621   51.3725 H   0  0  0  0  0  0  0  0  0  0  0  0
   62.7234   33.4353   52.1809 H   0  0  0  0  0  0  0  0  0  0  0  0
   62.3826   30.5194   48.6864 H   0  0  0  0  0  0  0  0  0  0  0  0
   61.0470   30.5994   46.5894 H   0  0  0  0  0  0  0  0  0  0  0  0
   59.4785   34.2929   45.5873 H   0  0  0  0  0  0  0  0  0  0  0  0
   58.1924   34.3664   43.4537 H   0  0  0  0  0  0  0  0  0  0  0  0
   56.9493   32.3512   42.6717 H   0  0  0  0  0  0  0  0  0  0  0  0
   58.3000   28.6460   42.8660 H   0  0  0  0  0  0  0  0  0  0  0  0
   57.0920   27.5880   43.3620 H   0  0  0  0  0  0  0  0  0  0  0  0
   58.2241   30.1906   46.1964 H   0  0  0  0  0  0  0  0  0  0  0  0
   58.6086   33.7647   48.2547 H   0  0  0  0  0  0  0  0  0  0  0  0
   60.0392   34.9556   50.5565 H   0  0  0  0  0  0  0  0  0  0  0  0
   59.5446   34.0537   52.7497 H   0  0  0  0  0  0  0  0  0  0  0  0
   56.6468   33.5657   52.3405 H   0  0  0  0  0  0  0  0  0  0  0  0
   55.0858   31.6350   52.5573 H   0  0  0  0  0  0  0  0  0  0  0  0
   53.8760   29.9855   50.6776 H   0  0  0  0  0  0  0  0  0  0  0  0
   52.2110   31.6314   49.8117 H   0  0  0  0  0  0  0  0  0  0  0  0
   50.5488   32.6625   51.3642 H   0  0  0  0  0  0  0  0  0  0  0  0
   50.5773   32.0802   53.7930 H   0  0  0  0  0  0  0  0  0  0  0  0
   52.2128   30.4037   54.6573 H   0  0  0  0  0  0  0  0  0  0  0  0
   58.3920   28.8987   52.0094 H   0  0  0  0  0  0  0  0  0  0  0  0
   59.9487   30.8271   51.7560 H   0  0  0  0  0  0  0  0  0  0  0  0
  1  2  1  0
  2  3  1  0
  2  4  1  0
  4  5  1  0
  5  6  1  0
  6  7  1  0
  7  8  2  0
  8  9  1  0
  9 10  2  0
 10 11  1  0
 11 12  2  0
 12 13  1  0
 13 14  2  0
 14 15  1  0
 15 16  1  0
 16 17  1  0
 16 18  2  0
 16 19  2  0
 15 20  2  0
 10 21  1  0
 21 22  2  0
 22 23  1  0
 23 24  2  3
 24 25  1  0
 25 26  2  0
 26 27  1  0
 27 28  2  0
 28 29  1  0
 29 30  1  0
 30 31  2  0
 30 32  2  0
 30 33  1  0
 33 34  2  0
 34 35  1  0
 35 36  2  0
 36 37  1  0
 37 38  2  0
 28 39  1  0
 39 40  2  0
 22  7  1  0
 40 25  1  0
 20 11  1  0
 38 33  1  0
  1 41  1  0
  1 42  1  0
  1 43  1  0
  3 44  1  0
  3 45  1  0
  3 46  1  0
  4 47  1  0
  4 48  1  0
  5 49  1  0
  5 50  1  0
  8 51  1  0
  9 52  1  0
 12 53  1  0
 13 54  1  0
 14 55  1  0
 17 56  1  0
 17 57  1  0
 20 58  1  0
 21 59  1  0
 23 60  1  0
 24 61  1  0
 26 62  1  0
 27 63  1  0
 34 64  1  0
 35 65  1  0
 36 66  1  0
 37 67  1  0
 38 68  1  0
 39 69  1  0
 40 70  1  0
M  CHG  1  29  -1
M  END
>  <UniqueID>  (18) 
18

>  <SMILES>  (18) 
CN(C)CCOc1ccc(-c2cccc(S(N)(=O)=O)c2)cc1C=Cc1ccc([N-]S(=O)(=O)c2ccccc2)cc1

>  <Energy>  (18) 
89.18511127546341

>  <Genealogy>  (18) 
CN(C)CCOc1ccc(-c2cccc(S(N)(=O)=O)c2)cc1C=Cc1ccc([N-]S(=O)(=O)c2ccccc2)cc1 (protonated)
CN(C)CCOc1ccc(-c2cccc(S(N)(=O)=O)c2)cc1C=Cc1ccc([N-]S(=O)(=O)c2ccccc2)cc1 (3D coordinates assigned)
CN(C)CCOc1ccc(-c2cccc(S(N)(=O)=O)c2)cc1C=Cc1ccc([N-]S(=O)(=O)c2ccccc2)cc1 (optimized conformer: 89.18511127546341 kcal/mol)

>  <smiles>  (18) 
CN(C)CCOc1ccc(-c2cccc(S(N)(=O)=O)c2)cc1C=Cc1ccc(NS(=O)(=O)c2ccccc2)cc1

>  <score_type>  (18) 
oracle

>  <origin>  (18) 
adg

>  <m_score__min__energy>  (18) 
-12.44

>  <m_primary>  (18) 
energy

$$$$
18:0
     RDKit          3D

 57 60  0  0  0  0  0  0  0  0999 V2000
   64.1580   32.8800   48.6260 C   0  0  0  0  0  0  0  0  0  0  0  0
   63.3710   33.8220   47.9060 O   0  0  0  0  0  0  0  0  0  0  0  0
   61.9760   33.7560   47.7800 C   0  0  0  0  0  0  0  0  0  0  0  0
   61.4220   33.8260   46.4980 C   0  0  0  0  0  0  0  0  0  0  0  0
   60.0390   33.7510   46.3150 C   0  0  0  0  0  0  0  0  0  0  0  0
   59.1860   33.5990   47.4200 C   0  0  0  0  0  0  0  0  0  0  0  0
   57.7030   33.4590   47.2270 C   0  0  0  0  0  0  0  0  0  0  0  0
   57.2850   33.6600   45.4630 S   0  0  0  0  0  0  0  0  0  0  0  0
   57.3490   31.9110   45.0810 C   0  0  0  0  0  0  0  0  0  0  0  0
   56.2810   31.3070   44.5070 N   0  0  0  0  0  0  0  0  0  0  0  0
   56.2900   29.9760   44.2330 C   0  0  0  0  0  0  0  0  0  0  0  0
   55.2760   29.4540   43.6990 O   0  0  0  0  0  0  0  0  0  0  0  0
   57.4230   29.2010   44.5420 C   0  0  0  0  0  0  0  0  0  0  0  0
   57.4520   27.7150   44.2740 C   0  0  0  0  0  0  0  0  0  0  0  0
   58.5200   29.8550   45.1380 C   0  0  0  0  0  0  0  0  0  0  0  0
   59.7530   29.1360   45.4970 C   0  0  0  0  0  0  0  0  0  0  0  0
   60.6030   28.8850   44.6010 O   0  0  0  0  0  0  0  0  0  0  0  0
   59.9970   28.7100   46.8920 C   0  0  0  0  0  0  0  0  0  0  0  0
   60.4990   29.6380   47.8220 C   0  0  0  0  0  0  0  0  0  0  0  0
   60.7750   29.2480   49.1340 C   0  0  0  0  0  0  0  0  0  0  0  0
   60.5520   27.9290   49.5340 C   0  0  0  0  0  0  0  0  0  0  0  0
   60.0320   27.0030   48.6280 C   0  0  0  0  0  0  0  0  0  0  0  0
   59.7380   27.3860   47.3100 C   0  0  0  0  0  0  0  0  0  0  0  0
   59.1650   26.4420   46.4010 N   0  0  0  0  0  0  0  0  0  0  0  0
   57.6910   25.5980   46.7430 S   0  0  0  0  0  0  0  0  0  0  0  0
   56.5390   26.5640   46.7460 O   0  0  0  0  0  0  0  0  0  0  0  0
   57.7900   24.9550   48.0960 O   0  0  0  0  0  0  0  0  0  0  0  0
   57.4400   24.3570   45.5210 C   0  0  0  0  0  0  0  0  0  0  0  0
   58.3180   23.2690   45.4210 C   0  0  0  0  0  0  0  0  0  0  0  0
   58.1080   22.2850   44.4510 C   0  0  0  0  0  0  0  0  0  0  0  0
   57.0220   22.3830   43.5760 C   0  0  0  0  0  0  0  0  0  0  0  0
   56.1530   23.4750   43.6630 C   0  0  0  0  0  0  0  0  0  0  0  0
   56.3630   24.4620   44.6310 C   0  0  0  0  0  0  0  0  0  0  0  0
   58.4540   31.1880   45.3900 N   0  0  0  0  0  0  0  0  0  0  0  0
   59.7380   33.5270   48.7080 C   0  0  0  0  0  0  0  0  0  0  0  0
   61.1210   33.6170   48.8900 C   0  0  0  0  0  0  0  0  0  0  0  0
   64.0244   33.0400   49.7061 H   0  0  0  0  0  0  0  0  0  0  0  0
   63.8397   31.8601   48.3642 H   0  0  0  0  0  0  0  0  0  0  0  0
   65.2182   33.0118   48.3642 H   0  0  0  0  0  0  0  0  0  0  0  0
   62.0815   33.9412   45.6252 H   0  0  0  0  0  0  0  0  0  0  0  0
   59.6166   33.8113   45.3011 H   0  0  0  0  0  0  0  0  0  0  0  0
   57.3835   32.4626   47.5663 H   0  0  0  0  0  0  0  0  0  0  0  0
   57.1868   34.2343   47.8122 H   0  0  0  0  0  0  0  0  0  0  0  0
   57.4626   27.1702   45.2296 H   0  0  0  0  0  0  0  0  0  0  0  0
   56.5593   27.4287   43.6986 H   0  0  0  0  0  0  0  0  0  0  0  0
   58.3552   27.4637   43.6986 H   0  0  0  0  0  0  0  0  0  0  0  0
   60.6755   30.6790   47.5134 H   0  0  0  0  0  0  0  0  0  0  0  0
   61.1687   29.9810   49.8535 H   0  0  0  0  0  0  0  0  0  0  0  0
   60.7861   27.6195   50.5633 H   0  0  0  0  0  0  0  0  0  0  0  0
   59.8515   25.9665   48.9490 H   0  0  0  0  0  0  0  0  0  0  0  0
   59.1740   23.1895   46.1073 H   0  0  0  0  0  0  0  0  0  0  0  0
   58.7984   21.4319   44.3759 H   0  0  0  0  0  0  0  0  0  0  0  0
   56.8514   21.6022   42.8202 H   0  0  0  0  0  0  0  0  0  0  0  0
   55.3033   23.5577   42.9693 H   0  0  0  0  0  0  0  0  0  0  0  0
   55.6811   25.3228   44.6939 H   0  0  0  0  0  0  0  0  0  0  0  0
   59.0788   33.3990   49.5793 H   0  0  0  0  0  0  0  0  0  0  0  0
   61.5433   33.5791   49.9050 H   0  0  0  0  0  0  0  0  0  0  0  0
  1  2  1  0
  2  3  1  0
  3  4  2  0
  4  5  1  0
  5  6  2  0
  6  7  1  0
  7  8  1  0
  8  9  1  0
  9 10  2  0
 10 11  1  0
 11 12  2  0
 11 13  1  0
 13 14  1  0
 13 15  2  0
 15 16  1  0
 16 17  2  0
 16 18  1  0
 18 19  2  0
 19 20  1  0
 20 21  2  0
 21 22  1  0
 22 23  2  0
 23 24  1  0
 24 25  1  0
 25 26  2  0
 25 27  2  0
 25 28  1  0
 28 29  2  0
 29 30  1  0
 30 31  2  0
 31 32  1  0
 32 33  2  0
 15 34  1  0
  6 35  1  0
 35 36  2  0
 36  3  1  0
 34  9  1  0
 23 18  1  0
 33 28  1  0
  1 37  1  0
  1 38  1  0
  1 39  1  0
  4 40  1  0
  5 41  1  0
  7 42  1  0
  7 43  1  0
 14 44  1  0
 14 45  1  0
 14 46  1  0
 19 47  1  0
 20 48  1  0
 21 49  1  0
 22 50  1  0
 29 51  1  0
 30 52  1  0
 31 53  1  0
 32 54  1  0
 33 55  1  0
 35 56  1  0
 36 57  1  0
M  CHG  2  24  -1  34  -1
M  END
>  <UniqueID>  (19) 
19

>  <SMILES>  (19) 
COc1ccc(CSc2nc(=O)c(C)c(C(=O)c3ccccc3[N-]S(=O)(=O)c3ccccc3)[n-]2)cc1

>  <Energy>  (19) 
68.0446027382628

>  <Genealogy>  (19) 
COc1ccc(CSc2nc(=O)c(C)c(C(=O)c3ccccc3[N-]S(=O)(=O)c3ccccc3)[n-]2)cc1 (protonated)
COc1ccc(CSc2nc(=O)c(C)c(C(=O)c3ccccc3[N-]S(=O)(=O)c3ccccc3)[n-]2)cc1 (3D coordinates assigned)
COc1ccc(CSc2nc(=O)c(C)c(C(=O)c3ccccc3[N-]S(=O)(=O)c3ccccc3)[n-]2)cc1 (optimized conformer: 68.0446027382628 kcal/mol)

>  <smiles>  (19) 
COc1ccc(CSc2nc(=O)c(C)c(C(=O)c3ccccc3NS(=O)(=O)c3ccccc3)[nH]2)cc1

>  <score_type>  (19) 
oracle

>  <origin>  (19) 
adg

>  <m_score__min__energy>  (19) 
-14.67

>  <m_primary>  (19) 
energy

$$$$
19:0
     RDKit          3D

 40 42  0  0  0  0  0  0  0  0999 V2000
   55.8970   30.1070   44.5490 O   0  0  0  0  0  0  0  0  0  0  0  0
   56.8280   30.9540   44.5440 C   0  0  0  0  0  0  0  0  0  0  0  0
   58.1380   30.5940   43.8960 C   0  0  0  0  0  0  0  0  0  0  0  0
   58.9830   29.7850   44.8240 C   0  0  0  0  0  0  0  0  0  0  0  0
   59.3520   30.2080   46.0510 N   0  0  0  0  0  0  0  0  0  0  0  0
   60.0920   29.2790   46.7110 C   0  0  0  0  0  0  0  0  0  0  0  0
   60.6570   29.5510   48.0770 C   0  0  0  0  0  0  0  0  0  0  0  0
   60.5040   30.9650   48.4570 N   0  0  0  0  0  0  0  0  0  0  0  0
   61.7440   31.6890   48.3090 C   0  0  0  0  0  0  0  0  0  0  0  0
   61.9650   32.5070   47.1850 C   0  0  0  0  0  0  0  0  0  0  0  0
   63.1470   33.2440   47.0680 C   0  0  0  0  0  0  0  0  0  0  0  0
   63.3440   34.0410   45.9880 F   0  0  0  0  0  0  0  0  0  0  0  0
   64.1240   33.1640   48.0640 C   0  0  0  0  0  0  0  0  0  0  0  0
   63.9190   32.3500   49.1800 C   0  0  0  0  0  0  0  0  0  0  0  0
   64.8680   32.2730   50.1460 F   0  0  0  0  0  0  0  0  0  0  0  0
   62.7320   31.6210   49.3080 C   0  0  0  0  0  0  0  0  0  0  0  0
   60.3260   28.1010   46.0050 C   0  0  0  0  0  0  0  0  0  0  0  0
   59.5550   28.2340   44.5160 S   0  0  0  0  0  0  0  0  0  0  0  0
   56.6260   32.2030   45.2210 N   0  0  0  0  0  0  0  0  0  0  0  0
   57.6570   33.1300   45.5790 C   0  0  0  0  0  0  0  0  0  0  0  0
   58.1710   33.9900   44.5990 C   0  0  0  0  0  0  0  0  0  0  0  0
   59.1660   34.9160   44.9250 C   0  0  0  0  0  0  0  0  0  0  0  0
   59.6700   34.9700   46.2270 C   0  0  0  0  0  0  0  0  0  0  0  0
   59.1860   34.0930   47.2030 C   0  0  0  0  0  0  0  0  0  0  0  0
   58.1900   33.1660   46.8800 C   0  0  0  0  0  0  0  0  0  0  0  0
   57.7790   32.2780   47.8200 F   0  0  0  0  0  0  0  0  0  0  0  0
   57.9414   30.0096   42.9851 H   0  0  0  0  0  0  0  0  0  0  0  0
   58.6752   31.5211   43.6471 H   0  0  0  0  0  0  0  0  0  0  0  0
   60.1298   28.9251   48.8121 H   0  0  0  0  0  0  0  0  0  0  0  0
   61.7312   29.3152   48.0573 H   0  0  0  0  0  0  0  0  0  0  0  0
   60.1520   31.0340   49.4420 H   0  0  0  0  0  0  0  0  0  0  0  0
   59.7790   31.4020   47.8400 H   0  0  0  0  0  0  0  0  0  0  0  0
   61.2030   32.5666   46.3939 H   0  0  0  0  0  0  0  0  0  0  0  0
   65.0548   33.7424   47.9689 H   0  0  0  0  0  0  0  0  0  0  0  0
   62.5702   30.9909   50.1950 H   0  0  0  0  0  0  0  0  0  0  0  0
   60.9103   27.2385   46.3581 H   0  0  0  0  0  0  0  0  0  0  0  0
   57.7897   33.9360   43.5686 H   0  0  0  0  0  0  0  0  0  0  0  0
   59.5521   35.6020   44.1567 H   0  0  0  0  0  0  0  0  0  0  0  0
   60.4484   35.7032   46.4847 H   0  0  0  0  0  0  0  0  0  0  0  0
   59.5892   34.1324   48.2257 H   0  0  0  0  0  0  0  0  0  0  0  0
  1  2  2  0
  2  3  1  0
  3  4  1  0
  4  5  2  0
  5  6  1  0
  6  7  1  0
  7  8  1  0
  8  9  1  0
  9 10  2  0
 10 11  1  0
 11 12  1  0
 11 13  2  0
 13 14  1  0
 14 15  1  0
 14 16  2  0
  6 17  2  0
 17 18  1  0
  2 19  1  0
 19 20  1  0
 20 21  2  0
 21 22  1  0
 22 23  2  0
 23 24  1  0
 24 25  2  0
 25 26  1  0
 18  4  1  0
 25 20  1  0
 16  9  1  0
  3 27  1  0
  3 28  1  0
  7 29  1  0
  7 30  1  0
  8 31  1  0
  8 32  1  0
 10 33  1  0
 13 34  1  0
 16 35  1  0
 17 36  1  0
 21 37  1  0
 22 38  1  0
 23 39  1  0
 24 40  1  0
M  CHG  2   8   1  19  -1
M  END
>  <UniqueID>  (20) 
20

>  <SMILES>  (20) 
O=C(Cc1nc(C[NH2+]c2cc(F)cc(F)c2)cs1)[N-]c1ccccc1F

>  <Energy>  (20) 
71.77855795554424

>  <Genealogy>  (20) 
O=C(Cc1nc(C[NH2+]c2cc(F)cc(F)c2)cs1)[N-]c1ccccc1F (protonated)
O=C(Cc1nc(C[NH2+]c2cc(F)cc(F)c2)cs1)[N-]c1ccccc1F (3D coordinates assigned)
O=C(Cc1nc(C[NH2+]c2cc(F)cc(F)c2)cs1)[N-]c1ccccc1F (optimized conformer: 71.77855795554424 kcal/mol)

>  <smiles>  (20) 
O=C(Cc1nc(CNc2cc(F)cc(F)c2)cs1)Nc1ccccc1F

>  <score_type>  (20) 
oracle

>  <origin>  (20) 
adg

>  <m_score__min__energy>  (20) 
-8.3100000000000005

>  <m_primary>  (20) 
energy

$$$$
20:0
     RDKit          3D

 45 48  0  0  0  0  0  0  0  0999 V2000
   56.2610   27.1320   44.7390 H   0  0  0  0  0  0  0  0  0  0  0  0
   55.9910   27.9680   45.2460 O   0  0  0  0  0  0  0  0  0  0  0  0
   56.5540   29.2080   44.9560 C   0  0  0  0  0  0  0  0  0  0  0  0
   56.0980   29.9640   43.8700 C   0  0  0  0  0  0  0  0  0  0  0  0
   55.2861   29.5780   43.2361 H   0  0  0  0  0  0  0  0  0  0  0  0
   56.6700   31.2070   43.5880 C   0  0  0  0  0  0  0  0  0  0  0  0
   56.3103   31.7899   42.7273 H   0  0  0  0  0  0  0  0  0  0  0  0
   57.7020   31.7200   44.3950 C   0  0  0  0  0  0  0  0  0  0  0  0
   58.2790   33.0430   44.0470 C   0  0  0  0  0  0  0  0  0  0  0  0
   58.5713   33.2190   43.0013 H   0  0  0  0  0  0  0  0  0  0  0  0
   58.4660   34.0360   44.9270 C   0  0  0  0  0  0  0  0  0  0  0  0
   58.1357   35.0530   44.6688 H   0  0  0  0  0  0  0  0  0  0  0  0
   59.1030   33.7960   46.2300 C   0  0  0  0  0  0  0  0  0  0  0  0
   58.4630   33.4370   47.3200 O   0  0  0  0  0  0  0  0  0  0  0  0
   59.3310   33.3050   48.2980 C   0  0  0  0  0  0  0  0  0  0  0  0
   58.9300   32.9560   49.6770 C   0  0  0  0  0  0  0  0  0  0  0  0
   59.3640   33.7520   50.7460 C   0  0  0  0  0  0  0  0  0  0  0  0
   59.9883   34.6365   50.5513 H   0  0  0  0  0  0  0  0  0  0  0  0
   59.0080   33.4280   52.0570 C   0  0  0  0  0  0  0  0  0  0  0  0
   59.3447   34.0631   52.8897 H   0  0  0  0  0  0  0  0  0  0  0  0
   58.2250   32.2990   52.3140 C   0  0  0  0  0  0  0  0  0  0  0  0
   57.8710   31.9920   53.6230 O   0  0  0  0  0  0  0  0  0  0  0  0
   57.7990   31.4780   51.2600 C   0  0  0  0  0  0  0  0  0  0  0  0
   57.0160   30.3520   51.5600 O   0  0  0  0  0  0  0  0  0  0  0  0
   55.8280   30.3850   52.3450 C   0  0  0  0  0  0  0  0  0  0  0  0
   56.0935   30.3776   53.4124 H   0  0  0  0  0  0  0  0  0  0  0  0
   55.2614   31.2992   52.1144 H   0  0  0  0  0  0  0  0  0  0  0  0
   55.2115   29.5036   52.1144 H   0  0  0  0  0  0  0  0  0  0  0  0
   58.1710   31.8030   49.9410 C   0  0  0  0  0  0  0  0  0  0  0  0
   57.8651   31.1492   49.1110 H   0  0  0  0  0  0  0  0  0  0  0  0
   60.6110   33.5740   47.8170 C   0  0  0  0  0  0  0  0  0  0  0  0
   61.9090   33.4400   48.5100 C   0  0  0  0  0  0  0  0  0  0  0  0
   62.2580   34.2140   49.6120 C   0  0  0  0  0  0  0  0  0  0  0  0
   61.6265   34.9766   50.0911 H   0  0  0  0  0  0  0  0  0  0  0  0
   63.8110   33.7820   50.0840 S   0  0  0  0  0  0  0  0  0  0  0  0
   64.0670   32.6270   48.8910 C   0  0  0  0  0  0  0  0  0  0  0  0
   64.9785   32.0255   48.7595 H   0  0  0  0  0  0  0  0  0  0  0  0
   62.9290   32.5640   48.1010 C   0  0  0  0  0  0  0  0  0  0  0  0
   62.8337   31.8916   47.2357 H   0  0  0  0  0  0  0  0  0  0  0  0
   60.4540   33.9070   46.4860 C   0  0  0  0  0  0  0  0  0  0  0  0
   61.2425   34.1999   45.7771 H   0  0  0  0  0  0  0  0  0  0  0  0
   58.1630   30.9460   45.4790 C   0  0  0  0  0  0  0  0  0  0  0  0
   58.9808   31.3231   46.1107 H   0  0  0  0  0  0  0  0  0  0  0  0
   57.5880   29.7020   45.7570 C   0  0  0  0  0  0  0  0  0  0  0  0
   57.9508   29.1094   46.6097 H   0  0  0  0  0  0  0  0  0  0  0  0
  1  2  1  0
  2  3  1  0
  3  4  2  0
  4  5  1  0
  4  6  1  0
  6  7  1  0
  6  8  2  0
  8  9  1  0
  9 10  1  0
  9 11  2  0
 11 12  1  0
 11 13  1  0
 13 14  1  0
 14 15  1  0
 15 16  1  0
 16 17  2  0
 17 18  1  0
 17 19  1  0
 19 20  1  0
 19 21  2  0
 21 22  1  0
 21 23  1  0
 23 24  1  0
 24 25  1  0
 25 26  1  0
 25 27  1  0
 25 28  1  0
 23 29  2  0
 29 30  1  0
 15 31  2  0
 31 32  1  0
 32 33  2  0
 33 34  1  0
 33 35  1  0
 35 36  1  0
 36 37  1  0
 36 38  2  0
 38 39  1  0
 31 40  1  0
 40 41  1  0
  8 42  1  0
 42 43  1  0
 42 44  2  0
 44 45  1  0
 44  3  1  0
 40 13  2  0
 29 16  1  0
 38 32  1  0
M  CHG  1  22  -1
M  END
>  <UniqueID>  (21) 
21

>  <SMILES>  (21) 
COc1cc(-c2oc(/C=C/c3ccc(O)cc3)cc2-c2ccsc2)ccc1[O-]

>  <Energy>  (21) 
108.0865167254095

>  <Genealogy>  (21) 
COc1cc(-c2oc(C=Cc3ccc(O)cc3)cc2-c2ccsc2)ccc1[O-] (protonated)
COc1cc(-c2oc(/C=C/c3ccc(O)cc3)cc2-c2ccsc2)ccc1[O-] (cis-trans isomerization)
COc1cc(-c2oc(/C=C/c3ccc(O)cc3)cc2-c2ccsc2)ccc1[O-] (3D coordinates assigned)
COc1cc(-c2oc(/C=C/c3ccc(O)cc3)cc2-c2ccsc2)ccc1[O-] (optimized conformer: 108.0865167254095 kcal/mol)

>  <smiles>  (21) 
COc1cc(-c2oc(C=Cc3ccc(O)cc3)cc2-c2ccsc2)ccc1O

>  <score_type>  (21) 
oracle

>  <origin>  (21) 
adg

>  <m_score__min__energy>  (21) 
-11.289999999999999

>  <m_primary>  (21) 
energy

$$$$
21:0
     RDKit          3D

 56 58  0  0  0  0  0  0  0  0999 V2000
   61.4440   26.3410   47.4410 O   0  0  0  0  0  0  0  0  0  0  0  0
   60.6790   27.1810   47.9830 C   0  0  0  0  0  0  0  0  0  0  0  0
   60.8450   27.4580   49.3800 N   0  0  0  0  0  0  0  0  0  0  0  0
   60.9360   28.7880   49.9780 C   0  0  0  0  0  0  0  0  0  0  0  0
   59.7550   29.0390   50.9170 C   0  0  0  0  0  0  0  0  0  0  0  0
   58.7500   30.3930   50.3220 S   0  0  0  0  0  0  0  0  0  0  0  0
   58.5660   30.2620   48.8360 O   0  0  0  0  0  0  0  0  0  0  0  0
   57.4010   30.3330   50.9830 O   0  0  0  0  0  0  0  0  0  0  0  0
   59.4730   31.9350   50.6950 N   0  0  0  0  0  0  0  0  0  0  0  0
   60.9400   31.8700   50.7610 C   0  0  0  0  0  0  0  0  0  0  0  0
   61.6140   32.2930   49.4750 C   0  0  0  0  0  0  0  0  0  0  0  0
   62.4170   33.4480   49.4330 C   0  0  0  0  0  0  0  0  0  0  0  0
   63.0480   33.8260   48.2450 C   0  0  0  0  0  0  0  0  0  0  0  0
   62.9020   33.0460   47.0950 C   0  0  0  0  0  0  0  0  0  0  0  0
   62.1280   31.8840   47.1340 C   0  0  0  0  0  0  0  0  0  0  0  0
   61.4840   31.5090   48.3150 C   0  0  0  0  0  0  0  0  0  0  0  0
   59.6570   27.8580   47.1570 C   0  0  0  0  0  0  0  0  0  0  0  0
   58.3390   27.3780   47.1070 C   0  0  0  0  0  0  0  0  0  0  0  0
   57.3830   28.0200   46.3150 C   0  0  0  0  0  0  0  0  0  0  0  0
   57.7400   29.1300   45.5380 C   0  0  0  0  0  0  0  0  0  0  0  0
   56.5470   29.9180   44.5070 S   0  0  0  0  0  0  0  0  0  0  0  0
   56.8960   29.7080   43.0600 O   0  0  0  0  0  0  0  0  0  0  0  0
   55.2000   29.3030   44.7600 O   0  0  0  0  0  0  0  0  0  0  0  0
   56.4600   31.6220   44.8570 N   0  0  0  0  0  0  0  0  0  0  0  0
   57.6390   32.3330   44.3580 C   0  0  0  0  0  0  0  0  0  0  0  0
   58.3040   33.1210   45.4570 C   0  0  0  0  0  0  0  0  0  0  0  0
   58.1450   32.7340   46.7990 C   0  0  0  0  0  0  0  0  0  0  0  0
   58.7520   33.4700   47.8210 C   0  0  0  0  0  0  0  0  0  0  0  0
   59.5230   34.5950   47.5120 C   0  0  0  0  0  0  0  0  0  0  0  0
   59.6940   34.9800   46.1800 C   0  0  0  0  0  0  0  0  0  0  0  0
   59.0910   34.2450   45.1530 C   0  0  0  0  0  0  0  0  0  0  0  0
   59.0640   29.5850   45.5530 C   0  0  0  0  0  0  0  0  0  0  0  0
   60.0170   28.9550   46.3590 C   0  0  0  0  0  0  0  0  0  0  0  0
   61.8736   28.8644   50.5482 H   0  0  0  0  0  0  0  0  0  0  0  0
   60.9161   29.5396   49.1750 H   0  0  0  0  0  0  0  0  0  0  0  0
   59.1388   28.1295   50.9730 H   0  0  0  0  0  0  0  0  0  0  0  0
   60.1441   29.2987   51.9126 H   0  0  0  0  0  0  0  0  0  0  0  0
   59.1770   32.6190   49.9610 H   0  0  0  0  0  0  0  0  0  0  0  0
   61.2832   32.5321   51.5696 H   0  0  0  0  0  0  0  0  0  0  0  0
   61.2126   30.8199   50.9426 H   0  0  0  0  0  0  0  0  0  0  0  0
   62.5486   34.0563   50.3400 H   0  0  0  0  0  0  0  0  0  0  0  0
   63.6607   34.7391   48.2151 H   0  0  0  0  0  0  0  0  0  0  0  0
   63.3963   33.3469   46.1595 H   0  0  0  0  0  0  0  0  0  0  0  0
   62.0254   31.2626   46.2321 H   0  0  0  0  0  0  0  0  0  0  0  0
   60.8718   30.5954   48.3379 H   0  0  0  0  0  0  0  0  0  0  0  0
   58.0570   26.4917   47.6943 H   0  0  0  0  0  0  0  0  0  0  0  0
   56.3463   27.6525   46.3016 H   0  0  0  0  0  0  0  0  0  0  0  0
   58.3559   31.6018   43.9561 H   0  0  0  0  0  0  0  0  0  0  0  0
   57.3180   33.0326   43.5722 H   0  0  0  0  0  0  0  0  0  0  0  0
   57.5407   31.8487   47.0460 H   0  0  0  0  0  0  0  0  0  0  0  0
   58.6229   33.1637   48.8696 H   0  0  0  0  0  0  0  0  0  0  0  0
   59.9948   35.1767   48.3176 H   0  0  0  0  0  0  0  0  0  0  0  0
   60.3040   35.8628   45.9379 H   0  0  0  0  0  0  0  0  0  0  0  0
   59.2334   34.5478   44.1051 H   0  0  0  0  0  0  0  0  0  0  0  0
   59.3557   30.4419   44.9279 H   0  0  0  0  0  0  0  0  0  0  0  0
   61.0543   29.3210   46.3677 H   0  0  0  0  0  0  0  0  0  0  0  0
  1  2  2  0
  2  3  1  0
  3  4  1  0
  4  5  1  0
  5  6  1  0
  6  7  2  0
  6  8  2  0
  6  9  1  0
  9 10  1  0
 10 11  1  0
 11 12  2  0
 12 13  1  0
 13 14  2  0
 14 15  1  0
 15 16  2  0
  2 17  1  0
 17 18  2  0
 18 19  1  0
 19 20  2  0
 20 21  1  0
 21 22  2  0
 21 23  2  0
 21 24  1  0
 24 25  1  0
 25 26  1  0
 26 27  2  0
 27 28  1  0
 28 29  2  0
 29 30  1  0
 30 31  2  0
 20 32  1  0
 32 33  2  0
 16 11  1  0
 33 17  1  0
 31 26  1  0
  4 34  1  0
  4 35  1  0
  5 36  1  0
  5 37  1  0
  9 38  1  0
 10 39  1  0
 10 40  1  0
 12 41  1  0
 13 42  1  0
 14 43  1  0
 15 44  1  0
 16 45  1  0
 18 46  1  0
 19 47  1  0
 25 48  1  0
 25 49  1  0
 27 50  1  0
 28 51  1  0
 29 52  1  0
 30 53  1  0
 31 54  1  0
 32 55  1  0
 33 56  1  0
M  CHG  2   3  -1  24  -1
M  END
>  <UniqueID>  (22) 
22

>  <SMILES>  (22) 
O=C([N-]CCS(=O)(=O)NCc1ccccc1)c1ccc(S(=O)(=O)[N-]Cc2ccccc2)cc1

>  <Energy>  (22) 
50.885840455781576

>  <Genealogy>  (22) 
O=C([N-]CCS(=O)(=O)NCc1ccccc1)c1ccc(S(=O)(=O)[N-]Cc2ccccc2)cc1 (protonated)
O=C([N-]CCS(=O)(=O)NCc1ccccc1)c1ccc(S(=O)(=O)[N-]Cc2ccccc2)cc1 (3D coordinates assigned)
O=C([N-]CCS(=O)(=O)NCc1ccccc1)c1ccc(S(=O)(=O)[N-]Cc2ccccc2)cc1 (optimized conformer: 50.885840455781576 kcal/mol)

>  <smiles>  (22) 
O=C(NCCS(=O)(=O)NCc1ccccc1)c1ccc(S(=O)(=O)NCc2ccccc2)cc1

>  <score_type>  (22) 
oracle

>  <origin>  (22) 
adg

>  <m_score__min__energy>  (22) 
-11.949999999999999

>  <m_primary>  (22) 
energy

$$$$
22:0
     RDKit          3D

 56 59  0  0  0  0  0  0  0  0999 V2000
   60.0830   30.1310   45.6960 C   0  0  0  0  0  0  0  0  0  0  0  0
   60.3040   28.7870   45.0060 C   0  0  0  0  0  0  0  0  0  0  0  0
   59.2600   27.7700   45.4130 C   0  0  0  0  0  0  0  0  0  0  0  0
   58.0150   27.6230   44.7490 C   0  0  0  0  0  0  0  0  0  0  0  0
   57.5060   28.5210   43.6500 C   0  0  0  0  0  0  0  0  0  0  0  0
   56.4570   29.4550   44.1720 C   0  0  0  0  0  0  0  0  0  0  0  0
   55.5230   29.0010   44.8910 O   0  0  0  0  0  0  0  0  0  0  0  0
   56.5180   30.8470   43.8200 N   0  0  0  0  0  0  0  0  0  0  0  0
   57.1990   31.7660   44.4390 C   0  0  0  0  0  0  0  0  0  0  0  0
   57.8950   32.7450   43.8010 N   0  0  0  0  0  0  0  0  0  0  0  0
   58.4130   33.4410   44.8240 C   0  0  0  0  0  0  0  0  0  0  0  0
   59.2190   34.5780   44.7640 C   0  0  0  0  0  0  0  0  0  0  0  0
   59.6510   35.1390   45.9810 C   0  0  0  0  0  0  0  0  0  0  0  0
   59.2680   34.5530   47.2130 C   0  0  0  0  0  0  0  0  0  0  0  0
   58.4400   33.4130   47.2340 C   0  0  0  0  0  0  0  0  0  0  0  0
   58.0300   32.8890   46.0100 C   0  0  0  0  0  0  0  0  0  0  0  0
   57.2530   31.8180   45.7950 N   0  0  0  0  0  0  0  0  0  0  0  0
   57.2220   26.6060   45.2720 C   0  0  0  0  0  0  0  0  0  0  0  0
   58.0410   25.8900   46.5440 S   0  0  0  0  0  0  0  0  0  0  0  0
   59.4170   26.8510   46.4670 C   0  0  0  0  0  0  0  0  0  0  0  0
   60.5410   26.7420   47.4640 C   0  0  0  0  0  0  0  0  0  0  0  0
   60.0760   27.0080   48.9020 C   0  0  0  0  0  0  0  0  0  0  0  0
   60.6080   28.2790   49.4030 N   0  0  0  0  0  0  0  0  0  0  0  0
   59.4270   29.5540   49.3130 S   0  0  0  0  0  0  0  0  0  0  0  0
   58.5550   29.5010   50.5370 O   0  0  0  0  0  0  0  0  0  0  0  0
   58.5610   29.3630   48.0990 O   0  0  0  0  0  0  0  0  0  0  0  0
   60.1980   31.1320   49.2420 C   0  0  0  0  0  0  0  0  0  0  0  0
   61.1290   31.5310   48.3100 C   0  0  0  0  0  0  0  0  0  0  0  0
   61.5070   32.7790   48.6310 N   0  0  0  0  0  0  0  0  0  0  0  0
   62.4590   33.6220   47.9110 C   0  0  0  0  0  0  0  0  0  0  0  0
   63.4650   32.7590   47.1590 C   0  0  0  0  0  0  0  0  0  0  0  0
   60.7900   33.1170   49.7240 C   0  0  0  0  0  0  0  0  0  0  0  0
   59.9740   32.1210   50.1340 N   0  0  0  0  0  0  0  0  0  0  0  0
   60.1060   29.9913   46.7868 H   0  0  0  0  0  0  0  0  0  0  0  0
   60.8781   30.8307   45.3991 H   0  0  0  0  0  0  0  0  0  0  0  0
   59.1057   30.5393   45.3991 H   0  0  0  0  0  0  0  0  0  0  0  0
   60.2538   28.9330   43.9169 H   0  0  0  0  0  0  0  0  0  0  0  0
   61.2904   28.4050   45.3077 H   0  0  0  0  0  0  0  0  0  0  0  0
   58.3440   29.1084   43.2466 H   0  0  0  0  0  0  0  0  0  0  0  0
   57.0623   27.8968   42.8604 H   0  0  0  0  0  0  0  0  0  0  0  0
   59.5071   35.0210   43.7992 H   0  0  0  0  0  0  0  0  0  0  0  0
   60.2882   36.0356   45.9754 H   0  0  0  0  0  0  0  0  0  0  0  0
   59.6193   34.9908   48.1590 H   0  0  0  0  0  0  0  0  0  0  0  0
   58.1284   32.9530   48.1834 H   0  0  0  0  0  0  0  0  0  0  0  0
   56.2234   26.3203   44.9098 H   0  0  0  0  0  0  0  0  0  0  0  0
   60.9628   25.7274   47.4112 H   0  0  0  0  0  0  0  0  0  0  0  0
   61.2913   27.5046   47.2079 H   0  0  0  0  0  0  0  0  0  0  0  0
   58.9768   27.0456   48.9228 H   0  0  0  0  0  0  0  0  0  0  0  0
   60.4477   26.1964   49.5448 H   0  0  0  0  0  0  0  0  0  0  0  0
   61.4956   30.9374   47.4596 H   0  0  0  0  0  0  0  0  0  0  0  0
   61.9145   34.2535   47.1935 H   0  0  0  0  0  0  0  0  0  0  0  0
   62.9976   34.2522   48.6340 H   0  0  0  0  0  0  0  0  0  0  0  0
   64.0955   32.2181   47.8801 H   0  0  0  0  0  0  0  0  0  0  0  0
   62.9281   32.0363   46.5270 H   0  0  0  0  0  0  0  0  0  0  0  0
   64.0976   33.3996   46.5270 H   0  0  0  0  0  0  0  0  0  0  0  0
   60.8620   34.0938   50.2247 H   0  0  0  0  0  0  0  0  0  0  0  0
  1  2  1  0
  2  3  1  0
  3  4  1  0
  4  5  1  0
  5  6  1  0
  6  7  2  0
  6  8  1  0
  8  9  2  3
  9 10  1  0
 10 11  1  0
 11 12  2  0
 12 13  1  0
 13 14  2  0
 14 15  1  0
 15 16  2  0
 16 17  1  0
  4 18  2  0
 18 19  1  0
 19 20  1  0
 20 21  1  0
 21 22  1  0
 22 23  1  0
 23 24  1  0
 24 25  2  0
 24 26  2  0
 24 27  1  0
 27 28  2  0
 28 29  1  0
 29 30  1  0
 30 31  1  0
 29 32  1  0
 32 33  2  0
 20  3  2  0
 33 27  1  0
 17  9  1  0
 16 11  1  0
  1 34  1  0
  1 35  1  0
  1 36  1  0
  2 37  1  0
  2 38  1  0
  5 39  1  0
  5 40  1  0
 12 41  1  0
 13 42  1  0
 14 43  1  0
 15 44  1  0
 18 45  1  0
 21 46  1  0
 21 47  1  0
 22 48  1  0
 22 49  1  0
 28 50  1  0
 30 51  1  0
 30 52  1  0
 31 53  1  0
 31 54  1  0
 31 55  1  0
 32 56  1  0
M  CHG  3  10  -1  17  -1  23  -1
M  END
>  <UniqueID>  (23) 
23

>  <SMILES>  (23) 
CCc1c(CC(=O)N=c2[n-]c3ccccc3[n-]2)csc1CC[N-]S(=O)(=O)c1cn(CC)cn1

>  <Energy>  (23) 
140.52250110026523

>  <Genealogy>  (23) 
CCc1c(CC(=O)N=c2[n-]c3ccccc3[n-]2)csc1CC[N-]S(=O)(=O)c1cn(CC)cn1 (protonated)
CCc1c(CC(=O)N=c2[n-]c3ccccc3[n-]2)csc1CC[N-]S(=O)(=O)c1cn(CC)cn1 (3D coordinates assigned)
CCc1c(CC(=O)N=c2[n-]c3ccccc3[n-]2)csc1CC[N-]S(=O)(=O)c1cn(CC)cn1 (optimized conformer: 140.52250110026523 kcal/mol)

>  <smiles>  (23) 
CCc1c(CC(=O)N=c2[nH]c3ccccc3[nH]2)csc1CCNS(=O)(=O)c1cn(CC)cn1

>  <score_type>  (23) 
oracle

>  <origin>  (23) 
adg

>  <m_score__min__energy>  (23) 
-13.48

>  <m_primary>  (23) 
energy

$$$$
23:0
     RDKit          3D

 54 57  0  0  0  0  0  0  0  0999 V2000
   63.9440   31.4290   50.7520 C   0  0  0  0  0  0  0  0  0  0  0  0
   62.7320   31.7050   50.0550 O   0  0  0  0  0  0  0  0  0  0  0  0
   62.6590   32.3850   48.8300 C   0  0  0  0  0  0  0  0  0  0  0  0
   63.7580   32.4800   47.9530 C   0  0  0  0  0  0  0  0  0  0  0  0
   63.6350   33.1720   46.7450 C   0  0  0  0  0  0  0  0  0  0  0  0
   62.4230   33.7750   46.4010 C   0  0  0  0  0  0  0  0  0  0  0  0
   61.3190   33.6890   47.2640 C   0  0  0  0  0  0  0  0  0  0  0  0
   60.0050   34.3150   46.8770 C   0  0  0  0  0  0  0  0  0  0  0  0
   59.2780   33.4500   45.9340 N   0  0  0  0  0  0  0  0  0  0  0  0
   59.1900   33.8180   44.6190 C   0  0  0  0  0  0  0  0  0  0  0  0
   58.5160   33.0500   43.7240 N   0  0  0  0  0  0  0  0  0  0  0  0
   57.9250   31.8860   44.1030 C   0  0  0  0  0  0  0  0  0  0  0  0
   57.2220   31.1070   43.1730 C   0  0  0  0  0  0  0  0  0  0  0  0
   56.6190   29.9110   43.5710 C   0  0  0  0  0  0  0  0  0  0  0  0
   56.7120   29.4710   44.8960 C   0  0  0  0  0  0  0  0  0  0  0  0
   56.0660   28.2400   45.2560 N   0  0  0  0  0  0  0  0  0  0  0  0
   56.8750   26.7780   45.7190 S   0  0  0  0  0  0  0  0  0  0  0  0
   55.9570   25.9270   46.5450 O   0  0  0  0  0  0  0  0  0  0  0  0
   57.2440   26.0100   44.4820 O   0  0  0  0  0  0  0  0  0  0  0  0
   58.3470   27.1780   46.5970 C   0  0  0  0  0  0  0  0  0  0  0  0
   59.5720   26.6100   46.2390 C   0  0  0  0  0  0  0  0  0  0  0  0
   60.7220   26.9070   46.9750 C   0  0  0  0  0  0  0  0  0  0  0  0
   60.6550   27.7760   48.0660 C   0  0  0  0  0  0  0  0  0  0  0  0
   59.4320   28.3680   48.4340 C   0  0  0  0  0  0  0  0  0  0  0  0
   59.3400   29.3030   49.5890 C   0  0  0  0  0  0  0  0  0  0  0  0
   60.5520   29.7360   50.3590 C   0  0  0  0  0  0  0  0  0  0  0  0
   58.2130   29.7450   49.9480 O   0  0  0  0  0  0  0  0  0  0  0  0
   58.2840   28.0550   47.6860 C   0  0  0  0  0  0  0  0  0  0  0  0
   57.4090   30.2520   45.8320 C   0  0  0  0  0  0  0  0  0  0  0  0
   58.0140   31.4620   45.4430 C   0  0  0  0  0  0  0  0  0  0  0  0
   58.7050   32.2780   46.3560 C   0  0  0  0  0  0  0  0  0  0  0  0
   58.7970   31.9280   47.5640 O   0  0  0  0  0  0  0  0  0  0  0  0
   61.4440   32.9880   48.4750 C   0  0  0  0  0  0  0  0  0  0  0  0
   63.7613   31.4706   51.8359 H   0  0  0  0  0  0  0  0  0  0  0  0
   64.3037   30.4260   50.4790 H   0  0  0  0  0  0  0  0  0  0  0  0
   64.7025   32.1774   50.4790 H   0  0  0  0  0  0  0  0  0  0  0  0
   64.7152   32.0083   48.2199 H   0  0  0  0  0  0  0  0  0  0  0  0
   64.4953   33.2420   46.0631 H   0  0  0  0  0  0  0  0  0  0  0  0
   62.3331   34.3197   45.4496 H   0  0  0  0  0  0  0  0  0  0  0  0
   59.3936   34.4600   47.7799 H   0  0  0  0  0  0  0  0  0  0  0  0
   60.2018   35.2825   46.3919 H   0  0  0  0  0  0  0  0  0  0  0  0
   59.6714   34.7480   44.2822 H   0  0  0  0  0  0  0  0  0  0  0  0
   58.4590   33.3720   42.7290 H   0  0  0  0  0  0  0  0  0  0  0  0
   57.1450   31.4384   42.1269 H   0  0  0  0  0  0  0  0  0  0  0  0
   56.0655   29.3092   42.8351 H   0  0  0  0  0  0  0  0  0  0  0  0
   59.6313   25.9287   45.3774 H   0  0  0  0  0  0  0  0  0  0  0  0
   61.6843   26.4543   46.6938 H   0  0  0  0  0  0  0  0  0  0  0  0
   61.5649   27.9997   48.6423 H   0  0  0  0  0  0  0  0  0  0  0  0
   60.3469   29.6627   51.4372 H   0  0  0  0  0  0  0  0  0  0  0  0
   61.4012   29.0856   50.1023 H   0  0  0  0  0  0  0  0  0  0  0  0
   60.7968   30.7772   50.1023 H   0  0  0  0  0  0  0  0  0  0  0  0
   57.3196   28.5070   47.9611 H   0  0  0  0  0  0  0  0  0  0  0  0
   57.4827   29.9158   46.8768 H   0  0  0  0  0  0  0  0  0  0  0  0
   60.5800   32.9114   49.1515 H   0  0  0  0  0  0  0  0  0  0  0  0
  1  2  1  0
  2  3  1  0
  3  4  2  0
  4  5  1  0
  5  6  2  0
  6  7  1  0
  7  8  1  0
  8  9  1  0
  9 10  1  0
 10 11  2  0
 11 12  1  0
 12 13  2  0
 13 14  1  0
 14 15  2  0
 15 16  1  0
 16 17  1  0
 17 18  2  0
 17 19  2  0
 17 20  1  0
 20 21  2  0
 21 22  1  0
 22 23  2  0
 23 24  1  0
 24 25  1  0
 25 26  1  0
 25 27  2  0
 24 28  2  0
 15 29  1  0
 29 30  2  0
 30 31  1  0
 31 32  2  0
  7 33  2  0
 33  3  1  0
 31  9  1  0
 30 12  1  0
 28 20  1  0
  1 34  1  0
  1 35  1  0
  1 36  1  0
  4 37  1  0
  5 38  1  0
  6 39  1  0
  8 40  1  0
  8 41  1  0
 10 42  1  0
 11 43  1  0
 13 44  1  0
 14 45  1  0
 21 46  1  0
 22 47  1  0
 23 48  1  0
 26 49  1  0
 26 50  1  0
 26 51  1  0
 28 52  1  0
 29 53  1  0
 33 54  1  0
M  CHG  2  11   1  16  -1
M  END
>  <UniqueID>  (24) 
24

>  <SMILES>  (24) 
COc1cccc(Cn2c[nH+]c3ccc([N-]S(=O)(=O)c4cccc(C(C)=O)c4)cc3c2=O)c1

>  <Energy>  (24) 
66.81259332277753

>  <Genealogy>  (24) 
COc1cccc(Cn2c[nH+]c3ccc([N-]S(=O)(=O)c4cccc(C(C)=O)c4)cc3c2=O)c1 (protonated)
COc1cccc(Cn2c[nH+]c3ccc([N-]S(=O)(=O)c4cccc(C(C)=O)c4)cc3c2=O)c1 (3D coordinates assigned)
COc1cccc(Cn2c[nH+]c3ccc([N-]S(=O)(=O)c4cccc(C(C)=O)c4)cc3c2=O)c1 (optimized conformer: 66.81259332277753 kcal/mol)

>  <smiles>  (24) 
COc1cccc(Cn2cnc3ccc(NS(=O)(=O)c4cccc(C(C)=O)c4)cc3c2=O)c1

>  <score_type>  (24) 
oracle

>  <origin>  (24) 
adg

>  <m_score__min__energy>  (24) 
-10.390000000000001

>  <m_primary>  (24) 
energy

$$$$
24:0
     RDKit          3D

 56 59  0  0  0  0  0  0  0  0999 V2000
   59.2150   34.4560   46.3850 C   0  0  0  0  0  0  0  0  0  0  0  0
   59.7430   33.2850   46.9970 O   0  0  0  0  0  0  0  0  0  0  0  0
   61.0970   33.0860   47.3150 C   0  0  0  0  0  0  0  0  0  0  0  0
   61.8860   34.1250   47.8490 C   0  0  0  0  0  0  0  0  0  0  0  0
   63.2200   33.8990   48.1910 C   0  0  0  0  0  0  0  0  0  0  0  0
   63.7830   32.6350   48.0100 C   0  0  0  0  0  0  0  0  0  0  0  0
   63.0170   31.5970   47.4800 C   0  0  0  0  0  0  0  0  0  0  0  0
   61.6760   31.8110   47.1160 C   0  0  0  0  0  0  0  0  0  0  0  0
   60.8920   30.6850   46.5540 C   0  0  0  0  0  0  0  0  0  0  0  0
   61.4940   29.7310   45.9900 O   0  0  0  0  0  0  0  0  0  0  0  0
   59.4540   30.7020   46.5860 N   0  0  0  0  0  0  0  0  0  0  0  0
   58.6440   29.5170   46.5110 C   0  0  0  0  0  0  0  0  0  0  0  0
   58.8340   28.4440   47.3990 C   0  0  0  0  0  0  0  0  0  0  0  0
   58.0180   27.3120   47.3280 C   0  0  0  0  0  0  0  0  0  0  0  0
   57.0000   27.2290   46.3630 C   0  0  0  0  0  0  0  0  0  0  0  0
   56.1380   26.0260   46.2720 C   0  0  0  0  0  0  0  0  0  0  0  0
   54.9460   26.1460   45.8850 O   0  0  0  0  0  0  0  0  0  0  0  0
   56.6050   24.7270   46.6650 N   0  0  0  0  0  0  0  0  0  0  0  0
   57.2590   23.7750   45.8110 C   0  0  0  0  0  0  0  0  0  0  0  0
   58.6620   23.7300   45.7120 C   0  0  0  0  0  0  0  0  0  0  0  0
   59.2800   22.7840   44.8920 C   0  0  0  0  0  0  0  0  0  0  0  0
   58.5080   21.8820   44.1580 C   0  0  0  0  0  0  0  0  0  0  0  0
   57.1160   21.9290   44.2360 C   0  0  0  0  0  0  0  0  0  0  0  0
   56.4820   22.8800   45.0510 C   0  0  0  0  0  0  0  0  0  0  0  0
   55.0500   22.9180   45.1320 N   0  0  0  0  0  0  0  0  0  0  0  0
   54.3400   21.9110   45.9250 C   0  0  0  0  0  0  0  0  0  0  0  0
   52.9910   22.4760   46.3760 C   0  0  0  0  0  0  0  0  0  0  0  0
   52.2630   22.9760   45.2670 O   0  0  0  0  0  0  0  0  0  0  0  0
   52.9400   24.0890   44.7100 C   0  0  0  0  0  0  0  0  0  0  0  0
   54.2930   23.6660   44.1260 C   0  0  0  0  0  0  0  0  0  0  0  0
   56.7860   28.3160   45.5010 C   0  0  0  0  0  0  0  0  0  0  0  0
   57.6000   29.4510   45.5770 C   0  0  0  0  0  0  0  0  0  0  0  0
   58.8956   35.1644   47.1635 H   0  0  0  0  0  0  0  0  0  0  0  0
   59.9894   34.9236   45.7592 H   0  0  0  0  0  0  0  0  0  0  0  0
   58.3519   34.1853   45.7592 H   0  0  0  0  0  0  0  0  0  0  0  0
   61.4465   35.1224   47.9974 H   0  0  0  0  0  0  0  0  0  0  0  0
   63.8280   34.7176   48.6035 H   0  0  0  0  0  0  0  0  0  0  0  0
   64.8329   32.4570   48.2858 H   0  0  0  0  0  0  0  0  0  0  0  0
   63.4661   30.6019   47.3456 H   0  0  0  0  0  0  0  0  0  0  0  0
   58.9760   31.6320   46.5780 H   0  0  0  0  0  0  0  0  0  0  0  0
   59.6310   28.4959   48.1554 H   0  0  0  0  0  0  0  0  0  0  0  0
   58.1734   26.4809   48.0317 H   0  0  0  0  0  0  0  0  0  0  0  0
   59.2744   24.4432   46.2831 H   0  0  0  0  0  0  0  0  0  0  0  0
   60.3774   22.7494   44.8242 H   0  0  0  0  0  0  0  0  0  0  0  0
   58.9976   21.1336   43.5176 H   0  0  0  0  0  0  0  0  0  0  0  0
   56.5115   21.2166   43.6554 H   0  0  0  0  0  0  0  0  0  0  0  0
   54.1750   21.0118   45.3132 H   0  0  0  0  0  0  0  0  0  0  0  0
   54.9414   21.6482   46.8078 H   0  0  0  0  0  0  0  0  0  0  0  0
   52.4088   21.6783   46.8605 H   0  0  0  0  0  0  0  0  0  0  0  0
   53.1702   23.2996   47.0828 H   0  0  0  0  0  0  0  0  0  0  0  0
   52.3221   24.5240   43.9106 H   0  0  0  0  0  0  0  0  0  0  0  0
   53.1146   24.8295   45.5044 H   0  0  0  0  0  0  0  0  0  0  0  0
   54.1282   23.0297   43.2440 H   0  0  0  0  0  0  0  0  0  0  0  0
   54.8605   24.5616   43.8331 H   0  0  0  0  0  0  0  0  0  0  0  0
   55.9731   28.2750   44.7611 H   0  0  0  0  0  0  0  0  0  0  0  0
   57.4199   30.2983   44.8990 H   0  0  0  0  0  0  0  0  0  0  0  0
  1  2  1  0
  2  3  1  0
  3  4  2  0
  4  5  1  0
  5  6  2  0
  6  7  1  0
  7  8  2  0
  8  9  1  0
  9 10  2  0
  9 11  1  0
 11 12  1  0
 12 13  2  0
 13 14  1  0
 14 15  2  0
 15 16  1  0
 16 17  2  0
 16 18  1  0
 18 19  1  0
 19 20  2  0
 20 21  1  0
 21 22  2  0
 22 23  1  0
 23 24  2  0
 24 25  1  0
 25 26  1  0
 26 27  1  0
 27 28  1  0
 28 29  1  0
 29 30  1  0
 15 31  1  0
 31 32  2  0
  8  3  1  0
 32 12  1  0
 24 19  1  0
 30 25  1  0
  1 33  1  0
  1 34  1  0
  1 35  1  0
  4 36  1  0
  5 37  1  0
  6 38  1  0
  7 39  1  0
 11 40  1  0
 13 41  1  0
 14 42  1  0
 20 43  1  0
 21 44  1  0
 22 45  1  0
 23 46  1  0
 26 47  1  0
 26 48  1  0
 27 49  1  0
 27 50  1  0
 29 51  1  0
 29 52  1  0
 30 53  1  0
 30 54  1  0
 31 55  1  0
 32 56  1  0
M  CHG  1  18  -1
M  END
>  <UniqueID>  (25) 
25

>  <SMILES>  (25) 
COc1ccccc1C(=O)Nc1ccc(C(=O)[N-]c2ccccc2N2CCOCC2)cc1

>  <Energy>  (25) 
78.95648234549061

>  <Genealogy>  (25) 
COc1ccccc1C(=O)Nc1ccc(C(=O)[N-]c2ccccc2N2CCOCC2)cc1 (protonated)
COc1ccccc1C(=O)Nc1ccc(C(=O)[N-]c2ccccc2N2CCOCC2)cc1 (3D coordinates assigned)
COc1ccccc1C(=O)Nc1ccc(C(=O)[N-]c2ccccc2N2CCOCC2)cc1 (nonaromatic ring conformer: 78.95648234549061 kcal/mol)

>  <smiles>  (25) 
COc1ccccc1C(=O)Nc1ccc(C(=O)Nc2ccccc2N2CCOCC2)cc1

>  <score_type>  (25) 
oracle

>  <origin>  (25) 
adg

>  <m_score__min__energy>  (25) 
-9.9299999999999997

>  <m_primary>  (25) 
energy

$$$$
25:0
     RDKit          3D

 48 50  0  0  0  0  0  0  0  0999 V2000
   63.3770   33.7560   47.4450 C   0  0  0  0  0  0  0  0  0  0  0  0
   62.7350   32.8120   48.1370 C   0  0  0  0  0  0  0  0  0  0  0  0
   61.8890   31.7740   47.4560 C   0  0  0  0  0  0  0  0  0  0  0  0
   60.7710   31.3690   48.3130 N   0  0  0  0  0  0  0  0  0  0  0  0
   60.6170   29.9940   48.6870 C   0  0  0  0  0  0  0  0  0  0  0  0
   61.1100   29.5700   49.9290 C   0  0  0  0  0  0  0  0  0  0  0  0
   60.9840   28.2380   50.3240 C   0  0  0  0  0  0  0  0  0  0  0  0
   60.3660   27.3160   49.4800 C   0  0  0  0  0  0  0  0  0  0  0  0
   59.8870   27.7200   48.2320 C   0  0  0  0  0  0  0  0  0  0  0  0
   60.0170   29.0570   47.8090 C   0  0  0  0  0  0  0  0  0  0  0  0
   59.5230   29.4560   46.4670 C   0  0  0  0  0  0  0  0  0  0  0  0
   60.3500   29.6810   45.5410 O   0  0  0  0  0  0  0  0  0  0  0  0
   58.1150   29.6150   46.2180 N   0  0  0  0  0  0  0  0  0  0  0  0
   57.5890   30.0140   44.9440 C   0  0  0  0  0  0  0  0  0  0  0  0
   58.2870   30.9630   44.1820 C   0  0  0  0  0  0  0  0  0  0  0  0
   57.7920   31.3740   42.9400 C   0  0  0  0  0  0  0  0  0  0  0  0
   56.5880   30.8530   42.4600 C   0  0  0  0  0  0  0  0  0  0  0  0
   55.8710   29.9290   43.2250 C   0  0  0  0  0  0  0  0  0  0  0  0
   56.3580   29.5170   44.4700 C   0  0  0  0  0  0  0  0  0  0  0  0
   55.6030   28.6410   45.2400 O   0  0  0  0  0  0  0  0  0  0  0  0
   59.4850   32.4780   48.6920 S   0  0  0  0  0  0  0  0  0  0  0  0
   59.9980   33.5420   49.6190 O   0  0  0  0  0  0  0  0  0  0  0  0
   58.3740   31.7310   49.3770 O   0  0  0  0  0  0  0  0  0  0  0  0
   58.8640   33.2500   47.2330 C   0  0  0  0  0  0  0  0  0  0  0  0
   59.7270   33.9950   46.4160 C   0  0  0  0  0  0  0  0  0  0  0  0
   59.2480   34.5900   45.2450 C   0  0  0  0  0  0  0  0  0  0  0  0
   57.9060   34.4460   44.8860 C   0  0  0  0  0  0  0  0  0  0  0  0
   57.0400   33.7050   45.6970 C   0  0  0  0  0  0  0  0  0  0  0  0
   57.5170   33.1100   46.8690 C   0  0  0  0  0  0  0  0  0  0  0  0
   63.9894   34.5031   47.9712 H   0  0  0  0  0  0  0  0  0  0  0  0
   63.2936   33.7868   46.3486 H   0  0  0  0  0  0  0  0  0  0  0  0
   62.8277   32.7937   49.2329 H   0  0  0  0  0  0  0  0  0  0  0  0
   61.4921   32.1907   46.5185 H   0  0  0  0  0  0  0  0  0  0  0  0
   62.5123   30.8915   47.2494 H   0  0  0  0  0  0  0  0  0  0  0  0
   61.6000   30.2933   50.5973 H   0  0  0  0  0  0  0  0  0  0  0  0
   61.3722   27.9150   51.3013 H   0  0  0  0  0  0  0  0  0  0  0  0
   60.2556   26.2687   49.7978 H   0  0  0  0  0  0  0  0  0  0  0  0
   59.4026   26.9855   47.5718 H   0  0  0  0  0  0  0  0  0  0  0  0
   57.4400   29.5440   47.0120 H   0  0  0  0  0  0  0  0  0  0  0  0
   59.2282   31.3859   44.5632 H   0  0  0  0  0  0  0  0  0  0  0  0
   58.3511   32.1079   42.3409 H   0  0  0  0  0  0  0  0  0  0  0  0
   56.2040   31.1702   41.4792 H   0  0  0  0  0  0  0  0  0  0  0  0
   54.9206   29.5244   42.8469 H   0  0  0  0  0  0  0  0  0  0  0  0
   60.7840   34.1115   46.6975 H   0  0  0  0  0  0  0  0  0  0  0  0
   59.9285   35.1719   44.6060 H   0  0  0  0  0  0  0  0  0  0  0  0
   57.5298   34.9155   43.9651 H   0  0  0  0  0  0  0  0  0  0  0  0
   55.9836   33.5904   45.4127 H   0  0  0  0  0  0  0  0  0  0  0  0
   56.8338   32.5305   47.5072 H   0  0  0  0  0  0  0  0  0  0  0  0
  1  2  2  0
  2  3  1  0
  3  4  1  0
  4  5  1  0
  5  6  2  0
  6  7  1  0
  7  8  2  0
  8  9  1  0
  9 10  2  0
 10 11  1  0
 11 12  2  0
 11 13  1  0
 13 14  1  0
 14 15  2  0
 15 16  1  0
 16 17  2  0
 17 18  1  0
 18 19  2  0
 19 20  1  0
  4 21  1  0
 21 22  2  0
 21 23  2  0
 21 24  1  0
 24 25  2  0
 25 26  1  0
 26 27  2  0
 27 28  1  0
 28 29  2  0
 10  5  1  0
 19 14  1  0
 29 24  1  0
  1 30  1  0
  1 31  1  0
  2 32  1  0
  3 33  1  0
  3 34  1  0
  6 35  1  0
  7 36  1  0
  8 37  1  0
  9 38  1  0
 13 39  1  0
 15 40  1  0
 16 41  1  0
 17 42  1  0
 18 43  1  0
 25 44  1  0
 26 45  1  0
 27 46  1  0
 28 47  1  0
 29 48  1  0
M  CHG  1  20  -1
M  END
>  <UniqueID>  (26) 
26

>  <SMILES>  (26) 
C=CCN(c1ccccc1C(=O)Nc1ccccc1[O-])S(=O)(=O)c1ccccc1

>  <Energy>  (26) 
63.690469338060915

>  <Genealogy>  (26) 
C=CCN(c1ccccc1C(=O)Nc1ccccc1[O-])S(=O)(=O)c1ccccc1 (protonated)
C=CCN(c1ccccc1C(=O)Nc1ccccc1[O-])S(=O)(=O)c1ccccc1 (3D coordinates assigned)
C=CCN(c1ccccc1C(=O)Nc1ccccc1[O-])S(=O)(=O)c1ccccc1 (optimized conformer: 63.690469338060915 kcal/mol)

>  <smiles>  (26) 
C=CCN(c1ccccc1C(=O)Nc1ccccc1O)S(=O)(=O)c1ccccc1

>  <score_type>  (26) 
oracle

>  <origin>  (26) 
adg

>  <m_score__min__energy>  (26) 
-13.06

>  <m_primary>  (26) 
energy

$$$$
26:0
     RDKit          3D

 50 53  0  0  0  0  0  0  0  0999 V2000
   59.9510   33.9630   48.3310 O   0  0  0  0  0  0  0  0  0  0  0  0
   60.0950   32.9030   47.6620 C   0  0  0  0  0  0  0  0  0  0  0  0
   61.1690   32.0000   47.9800 N   0  0  0  0  0  0  0  0  0  0  0  0
   62.3560   32.3920   48.6880 C   0  0  0  0  0  0  0  0  0  0  0  0
   62.5270   31.9930   50.0180 C   0  0  0  0  0  0  0  0  0  0  0  0
   63.6810   32.3420   50.7250 C   0  0  0  0  0  0  0  0  0  0  0  0
   64.7110   33.0970   50.1160 C   0  0  0  0  0  0  0  0  0  0  0  0
   65.9180   33.4680   50.8550 N   0  0  0  0  0  0  0  0  0  0  0  0
   65.8390   34.5270   51.8830 C   0  0  0  0  0  0  0  0  0  0  0  0
   67.1550   34.7500   52.6340 C   0  0  0  0  0  0  0  0  0  0  0  0
   68.2570   34.6420   51.7640 O   0  0  0  0  0  0  0  0  0  0  0  0
   68.3780   33.2960   51.3680 C   0  0  0  0  0  0  0  0  0  0  0  0
   67.2170   32.8850   50.4580 C   0  0  0  0  0  0  0  0  0  0  0  0
   64.5360   33.4670   48.7620 C   0  0  0  0  0  0  0  0  0  0  0  0
   63.3790   33.1160   48.0600 C   0  0  0  0  0  0  0  0  0  0  0  0
   59.1230   32.5800   46.5890 C   0  0  0  0  0  0  0  0  0  0  0  0
   58.0970   33.4820   46.2490 C   0  0  0  0  0  0  0  0  0  0  0  0
   57.1870   33.1700   45.2360 C   0  0  0  0  0  0  0  0  0  0  0  0
   57.2830   31.9540   44.5550 C   0  0  0  0  0  0  0  0  0  0  0  0
   58.2830   31.0320   44.8950 C   0  0  0  0  0  0  0  0  0  0  0  0
   58.4060   29.7370   44.1380 C   0  0  0  0  0  0  0  0  0  0  0  0
   57.9900   28.5890   45.0100 C   0  0  0  0  0  0  0  0  0  0  0  0
   56.6520   28.1830   45.0760 C   0  0  0  0  0  0  0  0  0  0  0  0
   56.3000   27.1370   45.9260 C   0  0  0  0  0  0  0  0  0  0  0  0
   54.9770   26.7150   46.0030 O   0  0  0  0  0  0  0  0  0  0  0  0
   57.2900   26.5240   46.6950 C   0  0  0  0  0  0  0  0  0  0  0  0
   57.0040   25.5750   47.4720 O   0  0  0  0  0  0  0  0  0  0  0  0
   58.5740   26.9600   46.6040 N   0  0  0  0  0  0  0  0  0  0  0  0
   58.9120   27.9630   45.7910 N   0  0  0  0  0  0  0  0  0  0  0  0
   59.2040   31.3520   45.9060 C   0  0  0  0  0  0  0  0  0  0  0  0
   61.0270   30.9840   47.7860 H   0  0  0  0  0  0  0  0  0  0  0  0
   61.7449   31.3983   50.5125 H   0  0  0  0  0  0  0  0  0  0  0  0
   63.7903   32.0244   51.7725 H   0  0  0  0  0  0  0  0  0  0  0  0
   65.5551   35.4690   51.3911 H   0  0  0  0  0  0  0  0  0  0  0  0
   65.0945   34.2023   52.6249 H   0  0  0  0  0  0  0  0  0  0  0  0
   67.1476   35.7545   53.0822 H   0  0  0  0  0  0  0  0  0  0  0  0
   67.2479   33.9804   53.4145 H   0  0  0  0  0  0  0  0  0  0  0  0
   69.3251   33.1648   50.8242 H   0  0  0  0  0  0  0  0  0  0  0  0
   68.3591   32.6631   52.2675 H   0  0  0  0  0  0  0  0  0  0  0  0
   67.4461   33.2121   49.4330 H   0  0  0  0  0  0  0  0  0  0  0  0
   67.1173   31.7923   50.5365 H   0  0  0  0  0  0  0  0  0  0  0  0
   65.3240   34.0409   48.2525 H   0  0  0  0  0  0  0  0  0  0  0  0
   63.2705   33.4105   47.0057 H   0  0  0  0  0  0  0  0  0  0  0  0
   58.0113   34.4390   46.7846 H   0  0  0  0  0  0  0  0  0  0  0  0
   56.3924   33.8840   44.9738 H   0  0  0  0  0  0  0  0  0  0  0  0
   56.5717   31.7192   43.7494 H   0  0  0  0  0  0  0  0  0  0  0  0
   57.7587   29.7721   43.2493 H   0  0  0  0  0  0  0  0  0  0  0  0
   59.4534   29.5963   43.8327 H   0  0  0  0  0  0  0  0  0  0  0  0
   55.8876   28.6840   44.4639 H   0  0  0  0  0  0  0  0  0  0  0  0
   59.9968   30.6354   46.1667 H   0  0  0  0  0  0  0  0  0  0  0  0
  1  2  2  0
  2  3  1  0
  3  4  1  0
  4  5  2  0
  5  6  1  0
  6  7  2  0
  7  8  1  0
  8  9  1  0
  9 10  1  0
 10 11  1  0
 11 12  1  0
 12 13  1  0
  7 14  1  0
 14 15  2  0
  2 16  1  0
 16 17  2  0
 17 18  1  0
 18 19  2  0
 19 20  1  0
 20 21  1  0
 21 22  1  0
 22 23  1  0
 23 24  2  0
 24 25  1  0
 24 26  1  0
 26 27  2  0
 26 28  1  0
 28 29  1  0
 20 30  2  0
 15  4  1  0
 30 16  1  0
 13  8  1  0
 29 22  2  0
  3 31  1  0
  5 32  1  0
  6 33  1  0
  9 34  1  0
  9 35  1  0
 10 36  1  0
 10 37  1  0
 12 38  1  0
 12 39  1  0
 13 40  1  0
 13 41  1  0
 14 42  1  0
 15 43  1  0
 17 44  1  0
 18 45  1  0
 19 46  1  0
 21 47  1  0
 21 48  1  0
 23 49  1  0
 30 50  1  0
M  CHG  2  25  -1  28  -1
M  END
>  <UniqueID>  (27) 
27

>  <SMILES>  (27) 
O=C(Nc1ccc(N2CCOCC2)cc1)c1cccc(Cc2cc([O-])c(=O)[n-]n2)c1

>  <Energy>  (27) 
67.24855788143493

>  <Genealogy>  (27) 
O=C(Nc1ccc(N2CCOCC2)cc1)c1cccc(Cc2cc([O-])c(=O)[n-]n2)c1 (protonated)
O=C(Nc1ccc(N2CCOCC2)cc1)c1cccc(Cc2cc([O-])c(=O)[n-]n2)c1 (3D coordinates assigned)
O=C(Nc1ccc(N2CCOCC2)cc1)c1cccc(Cc2cc([O-])c(=O)[n-]n2)c1 (nonaromatic ring conformer: 67.24855788143493 kcal/mol)

>  <smiles>  (27) 
O=C(Nc1ccc(N2CCOCC2)cc1)c1cccc(Cc2cc(O)c(=O)[nH]n2)c1

>  <score_type>  (27) 
oracle

>  <origin>  (27) 
adg

>  <m_score__min__energy>  (27) 
-14.75

>  <m_primary>  (27) 
energy

$$$$
27:0
     RDKit          3D

 39 40  0  0  0  0  0  0  0  0999 V2000
   59.3250   35.3200   47.0760 C   0  0  0  0  0  0  0  0  0  0  0  0
   58.7260   34.3920   46.0610 C   0  0  0  0  0  0  0  0  0  0  0  0
   57.6540   33.5570   46.4130 C   0  0  0  0  0  0  0  0  0  0  0  0
   57.1220   32.6600   45.4800 C   0  0  0  0  0  0  0  0  0  0  0  0
   57.6750   32.5660   44.1960 C   0  0  0  0  0  0  0  0  0  0  0  0
   57.0960   31.6170   43.2230 C   0  0  0  0  0  0  0  0  0  0  0  0
   57.0320   30.2880   43.3950 C   0  0  0  0  0  0  0  0  0  0  0  0
   57.3260   29.5810   44.6590 C   0  0  0  0  0  0  0  0  0  0  0  0
   56.3850   29.3790   45.4720 O   0  0  0  0  0  0  0  0  0  0  0  0
   58.6730   29.2260   45.0140 N   0  0  0  0  0  0  0  0  0  0  0  0
   58.9960   28.3440   46.1010 C   0  0  0  0  0  0  0  0  0  0  0  0
   59.7000   28.8550   47.2020 C   0  0  0  0  0  0  0  0  0  0  0  0
   60.0420   28.0280   48.2720 C   0  0  0  0  0  0  0  0  0  0  0  0
   59.6980   26.6760   48.2460 C   0  0  0  0  0  0  0  0  0  0  0  0
   59.0230   26.1460   47.1440 C   0  0  0  0  0  0  0  0  0  0  0  0
   58.6760   26.9690   46.0550 C   0  0  0  0  0  0  0  0  0  0  0  0
   58.0460   26.4560   44.9080 O   0  0  0  0  0  0  0  0  0  0  0  0
   56.9440   25.5500   44.8990 C   0  0  0  0  0  0  0  0  0  0  0  0
   56.0380   25.8120   46.0590 C   0  0  0  0  0  0  0  0  0  0  0  0
   55.1690   26.7210   45.9920 O   0  0  0  0  0  0  0  0  0  0  0  0
   56.1770   25.0780   47.2300 O   0  0  0  0  0  0  0  0  0  0  0  0
   58.7350   33.4160   43.8380 C   0  0  0  0  0  0  0  0  0  0  0  0
   59.2690   34.3100   44.7700 C   0  0  0  0  0  0  0  0  0  0  0  0
   59.0909   34.9573   48.0877 H   0  0  0  0  0  0  0  0  0  0  0  0
   60.4163   35.3546   46.9423 H   0  0  0  0  0  0  0  0  0  0  0  0
   58.9071   36.3287   46.9423 H   0  0  0  0  0  0  0  0  0  0  0  0
   57.2302   33.6080   47.4268 H   0  0  0  0  0  0  0  0  0  0  0  0
   56.2663   32.0262   45.7557 H   0  0  0  0  0  0  0  0  0  0  0  0
   56.6874   32.0303   42.2891 H   0  0  0  0  0  0  0  0  0  0  0  0
   56.7380   29.6776   42.5284 H   0  0  0  0  0  0  0  0  0  0  0  0
   59.4530   29.7650   44.5740 H   0  0  0  0  0  0  0  0  0  0  0  0
   59.9848   29.9173   47.2215 H   0  0  0  0  0  0  0  0  0  0  0  0
   60.5827   28.4416   49.1360 H   0  0  0  0  0  0  0  0  0  0  0  0
   59.9588   26.0266   49.0947 H   0  0  0  0  0  0  0  0  0  0  0  0
   58.7605   25.0779   47.1265 H   0  0  0  0  0  0  0  0  0  0  0  0
   56.3794   25.6767   43.9635 H   0  0  0  0  0  0  0  0  0  0  0  0
   57.3291   24.5224   44.9748 H   0  0  0  0  0  0  0  0  0  0  0  0
   59.1467   33.3775   42.8187 H   0  0  0  0  0  0  0  0  0  0  0  0
   60.1178   34.9514   44.4905 H   0  0  0  0  0  0  0  0  0  0  0  0
  1  2  1  0
  2  3  2  0
  3  4  1  0
  4  5  2  0
  5  6  1  0
  6  7  2  3
  7  8  1  0
  8  9  2  0
  8 10  1  0
 10 11  1  0
 11 12  2  0
 12 13  1  0
 13 14  2  0
 14 15  1  0
 15 16  2  0
 16 17  1  0
 17 18  1  0
 18 19  1  0
 19 20  2  0
 19 21  1  0
  5 22  1  0
 22 23  2  0
 23  2  1  0
 16 11  1  0
  1 24  1  0
  1 25  1  0
  1 26  1  0
  3 27  1  0
  4 28  1  0
  6 29  1  0
  7 30  1  0
 10 31  1  0
 12 32  1  0
 13 33  1  0
 14 34  1  0
 15 35  1  0
 18 36  1  0
 18 37  1  0
 22 38  1  0
 23 39  1  0
M  CHG  1  21  -1
M  END
>  <UniqueID>  (28) 
28

>  <SMILES>  (28) 
Cc1ccc(C=CC(=O)Nc2ccccc2OCC(=O)[O-])cc1

>  <Energy>  (28) 
48.92449435998027

>  <Genealogy>  (28) 
Cc1ccc(C=CC(=O)Nc2ccccc2OCC(=O)[O-])cc1 (protonated)
Cc1ccc(C=CC(=O)Nc2ccccc2OCC(=O)[O-])cc1 (3D coordinates assigned)
Cc1ccc(C=CC(=O)Nc2ccccc2OCC(=O)[O-])cc1 (optimized conformer: 48.92449435998027 kcal/mol)

>  <smiles>  (28) 
Cc1ccc(C=CC(=O)Nc2ccccc2OCC(=O)O)cc1

>  <score_type>  (28) 
oracle

>  <origin>  (28) 
adg

>  <m_score__min__energy>  (28) 
-11.699999999999999

>  <m_primary>  (28) 
energy

$$$$
28:0
     RDKit          3D

 23 24  0  0  0  0  0  0  0  0999 V2000
   56.1340   24.9590   47.0660 O   0  0  0  0  0  0  0  0  0  0  0  0
   56.2700   26.0390   46.4320 C   0  0  0  0  0  0  0  0  0  0  0  0
   55.1450   26.7210   45.9860 O   0  0  0  0  0  0  0  0  0  0  0  0
   57.6310   26.6040   46.1880 C   0  0  0  0  0  0  0  0  0  0  0  0
   57.8210   27.0810   44.4370 S   0  0  0  0  0  0  0  0  0  0  0  0
   57.3950   28.8000   44.7080 C   0  0  0  0  0  0  0  0  0  0  0  0
   56.1500   29.2870   44.5750 N   0  0  0  0  0  0  0  0  0  0  0  0
   56.2240   30.5780   44.8480 N   0  0  0  0  0  0  0  0  0  0  0  0
   57.5130   30.8400   45.1420 C   0  0  0  0  0  0  0  0  0  0  0  0
   58.0190   32.1820   45.5020 C   0  0  0  0  0  0  0  0  0  0  0  0
   57.9660   33.2360   44.5720 C   0  0  0  0  0  0  0  0  0  0  0  0
   58.4430   34.5050   44.9150 C   0  0  0  0  0  0  0  0  0  0  0  0
   58.9780   34.7330   46.1850 C   0  0  0  0  0  0  0  0  0  0  0  0
   59.0370   33.6930   47.1150 C   0  0  0  0  0  0  0  0  0  0  0  0
   58.5600   32.4230   46.7780 C   0  0  0  0  0  0  0  0  0  0  0  0
   58.2890   29.7390   45.0660 N   0  0  0  0  0  0  0  0  0  0  0  0
   57.7736   27.4913   46.8223 H   0  0  0  0  0  0  0  0  0  0  0  0
   58.3826   25.8387   46.4316 H   0  0  0  0  0  0  0  0  0  0  0  0
   57.5473   33.0612   43.5700 H   0  0  0  0  0  0  0  0  0  0  0  0
   58.3968   35.3251   44.1834 H   0  0  0  0  0  0  0  0  0  0  0  0
   59.3529   35.7319   46.4526 H   0  0  0  0  0  0  0  0  0  0  0  0
   59.4595   33.8735   48.1145 H   0  0  0  0  0  0  0  0  0  0  0  0
   58.6079   31.6075   47.5147 H   0  0  0  0  0  0  0  0  0  0  0  0
  1  2  2  0
  2  3  1  0
  2  4  1  0
  4  5  1  0
  5  6  1  0
  6  7  2  0
  7  8  1  0
  8  9  1  0
  9 10  1  0
 10 11  2  0
 11 12  1  0
 12 13  2  0
 13 14  1  0
 14 15  2  0
  9 16  2  0
 16  6  1  0
 15 10  1  0
  4 17  1  0
  4 18  1  0
 11 19  1  0
 12 20  1  0
 13 21  1  0
 14 22  1  0
 15 23  1  0
M  CHG  2   3  -1   8  -1
M  END
>  <UniqueID>  (29) 
29

>  <SMILES>  (29) 
O=C([O-])CSc1n[n-]c(-c2ccccc2)n1

>  <Energy>  (29) 
51.31340597708684

>  <Genealogy>  (29) 
O=C([O-])CSc1n[n-]c(-c2ccccc2)n1 (protonated)
O=C([O-])CSc1n[n-]c(-c2ccccc2)n1 (3D coordinates assigned)
O=C([O-])CSc1n[n-]c(-c2ccccc2)n1 (optimized conformer: 51.31340597708684 kcal/mol)

>  <smiles>  (29) 
O=C(O)CSc1n[nH]c(-c2ccccc2)n1

>  <score_type>  (29) 
oracle

>  <origin>  (29) 
adg

>  <m_score__min__energy>  (29) 
-11.289999999999999

>  <m_primary>  (29) 
energy

$$$$
29:0
     RDKit          3D

 56 61  0  0  1  0  0  0  0  0999 V2000
   55.2550   29.3060   44.6460 O   0  0  0  0  0  0  0  0  0  0  0  0
   55.9540   30.1140   43.9820 C   0  0  0  0  0  0  0  0  0  0  0  0
   56.1590   30.1910   42.6530 N   0  0  0  0  0  0  0  0  0  0  0  0
   56.9830   31.2130   42.3570 C   0  0  0  0  0  0  0  0  0  0  0  0
   57.4430   31.6310   41.1200 O   0  0  0  0  0  0  0  0  0  0  0  0
   57.2980   31.7940   43.5700 C   0  0  0  0  0  0  0  0  0  0  0  0
   58.1530   32.9390   43.8520 C   0  0  0  0  0  0  0  0  0  0  0  0
   58.4010   33.2920   45.1040 C   0  0  0  0  0  0  0  0  0  0  0  0
   58.4370   34.5940   45.5580 C   0  0  0  0  0  0  0  0  0  0  0  0
   58.7180   34.5370   46.8750 N   0  0  0  0  0  0  0  0  0  0  0  0
   58.8550   33.2620   47.2460 N   0  0  0  0  0  0  0  0  0  0  0  0
   59.1290   32.6480   48.4110 C   0  0  0  0  0  0  0  0  0  0  0  0
   59.3140   33.3720   49.4440 N   0  0  0  0  0  0  0  0  0  0  0  0
   60.5350   34.0780   49.7640 C   0  0  1  0  0  0  0  0  0  0  0  0
   61.0560   33.4090   51.0400 C   0  0  0  0  0  0  0  0  0  0  0  0
   62.5160   33.7740   50.9870 C   0  0  0  0  0  0  0  0  0  0  0  0
   62.8180   33.6650   49.5170 C   0  0  0  0  0  0  0  0  0  0  0  0
   64.0010   33.4300   48.8470 C   0  0  0  0  0  0  0  0  0  0  0  0
   64.0680   33.3660   47.4880 C   0  0  0  0  0  0  0  0  0  0  0  0
   62.8930   33.5470   46.7700 C   0  0  0  0  0  0  0  0  0  0  0  0
   61.6950   33.7840   47.4240 C   0  0  0  0  0  0  0  0  0  0  0  0
   61.6310   33.8470   48.8040 C   0  0  0  0  0  0  0  0  0  0  0  0
   59.2210   31.2830   48.5540 C   0  0  0  0  0  0  0  0  0  0  0  0
   59.0210   30.5000   47.4390 C   0  0  0  0  0  0  0  0  0  0  0  0
   59.0880   29.0810   47.4520 N   0  0  0  0  0  0  0  0  0  0  0  0
   58.4890   28.2960   46.3650 C   0  0  0  0  0  0  0  0  0  0  0  0
   58.2900   26.8850   46.8840 C   0  0  0  0  0  0  0  0  0  0  0  0
   59.5340   26.3500   47.1100 O   0  0  0  0  0  0  0  0  0  0  0  0
   60.3500   27.0630   47.9520 C   0  0  0  0  0  0  0  0  0  0  0  0
   59.7310   28.3240   48.5070 C   0  0  0  0  0  0  0  0  0  0  0  0
   58.7490   31.1250   46.2810 N   0  0  0  0  0  0  0  0  0  0  0  0
   58.6650   32.4580   46.1760 C   0  0  0  0  0  0  0  0  0  0  0  0
   56.6640   31.1160   44.5650 N   0  0  0  0  0  0  0  0  0  0  0  0
   55.7300   29.5360   41.9630 H   0  0  0  0  0  0  0  0  0  0  0  0
   56.8370   31.7400   40.3120 H   0  0  0  0  0  0  0  0  0  0  0  0
   58.5938   33.5119   43.0229 H   0  0  0  0  0  0  0  0  0  0  0  0
   58.2690   35.5025   44.9611 H   0  0  0  0  0  0  0  0  0  0  0  0
   60.2980   35.1515   49.8029 H   0  0  0  0  0  0  0  0  0  0  0  0
   60.5703   33.8196   51.9375 H   0  0  0  0  0  0  0  0  0  0  0  0
   60.8629   32.3274   51.0936 H   0  0  0  0  0  0  0  0  0  0  0  0
   62.6849   34.7971   51.3540 H   0  0  0  0  0  0  0  0  0  0  0  0
   63.1536   33.1365   51.6171 H   0  0  0  0  0  0  0  0  0  0  0  0
   64.9226   33.2894   49.4309 H   0  0  0  0  0  0  0  0  0  0  0  0
   65.0227   33.1769   46.9753 H   0  0  0  0  0  0  0  0  0  0  0  0
   62.9138   33.5017   45.6711 H   0  0  0  0  0  0  0  0  0  0  0  0
   60.7771   33.9248   46.8344 H   0  0  0  0  0  0  0  0  0  0  0  0
   59.4477   30.8301   49.5305 H   0  0  0  0  0  0  0  0  0  0  0  0
   57.5208   28.7308   46.0761 H   0  0  0  0  0  0  0  0  0  0  0  0
   59.1412   28.2966   45.4792 H   0  0  0  0  0  0  0  0  0  0  0  0
   57.7146   26.9071   47.8212 H   0  0  0  0  0  0  0  0  0  0  0  0
   57.7337   26.2783   46.1543 H   0  0  0  0  0  0  0  0  0  0  0  0
   60.6227   26.4137   48.7970 H   0  0  0  0  0  0  0  0  0  0  0  0
   61.2174   27.3782   47.3534 H   0  0  0  0  0  0  0  0  0  0  0  0
   58.9829   28.0556   49.2674 H   0  0  0  0  0  0  0  0  0  0  0  0
   60.5232   28.9414   48.9555 H   0  0  0  0  0  0  0  0  0  0  0  0
   56.7110   31.3240   45.5950 H   0  0  0  0  0  0  0  0  0  0  0  0
  1  2  2  0
  2  3  1  0
  3  4  1  0
  4  5  1  0
  4  6  2  0
  6  7  1  0
  7  8  2  0
  8  9  1  0
  9 10  2  0
 10 11  1  0
 11 12  1  0
 12 13  2  0
 13 14  1  0
 14 15  1  0
 15 16  1  0
 16 17  1  0
 17 18  2  0
 18 19  1  0
 19 20  2  0
 20 21  1  0
 21 22  2  0
 12 23  1  0
 23 24  2  0
 24 25  1  0
 25 26  1  0
 26 27  1  0
 27 28  1  0
 28 29  1  0
 29 30  1  0
 24 31  1  0
 31 32  2  0
  6 33  1  0
 33  2  1  0
 32  8  1  0
 32 11  1  0
 22 14  1  0
 30 25  1  0
 22 17  1  0
  3 34  1  0
  5 35  1  0
  7 36  1  0
  9 37  1  0
 14 38  1  1
 15 39  1  0
 15 40  1  0
 16 41  1  0
 16 42  1  0
 18 43  1  0
 19 44  1  0
 20 45  1  0
 21 46  1  0
 23 47  1  0
 26 48  1  0
 26 49  1  0
 27 50  1  0
 27 51  1  0
 29 52  1  0
 29 53  1  0
 30 54  1  0
 30 55  1  0
 33 56  1  0
M  END
>  <smiles>  (30) 
O=c1[nH]c(O)c(C=c2cnn3c(=NC4CCc5ccccc54)cc(N4CCOCC4)nc23)[nH]1

>  <score_type>  (30) 
oracle

>  <origin>  (30) 
adg

>  <m_score__min__energy>  (30) 
-10.460000000000001

>  <m_primary>  (30) 
energy

$$$$
30:0
     RDKit          3D

 48 52  0  0  0  0  0  0  0  0999 V2000
   55.1730   28.9860   45.6180 H   0  0  0  0  0  0  0  0  0  0  0  0
   55.1490   29.2870   44.6170 N   0  0  0  0  0  0  0  0  0  0  0  0
   56.1950   30.0920   44.0720 C   0  0  0  0  0  0  0  0  0  0  0  0
   56.2700   30.2150   42.8190 O   0  0  0  0  0  0  0  0  0  0  0  0
   57.1790   30.7940   44.9490 C   0  0  0  0  0  0  0  0  0  0  0  0
   57.1240   32.1970   45.0340 C   0  0  0  0  0  0  0  0  0  0  0  0
   56.3820   32.7488   44.4382 H   0  0  0  0  0  0  0  0  0  0  0  0
   57.9740   32.8770   45.8410 N   0  0  0  0  0  0  0  0  0  0  0  0
   58.9120   32.2560   46.5980 C   0  0  0  0  0  0  0  0  0  0  0  0
   59.7890   33.0350   47.4340 N   0  0  0  0  0  0  0  0  0  0  0  0
   59.4340   34.1100   48.1820 C   0  0  0  0  0  0  0  0  0  0  0  0
   58.4245   34.5461   48.2100 H   0  0  0  0  0  0  0  0  0  0  0  0
   60.5200   34.5850   48.9080 C   0  0  0  0  0  0  0  0  0  0  0  0
   60.5366   35.4395   49.6005 H   0  0  0  0  0  0  0  0  0  0  0  0
   61.5720   33.7580   48.5760 C   0  0  0  0  0  0  0  0  0  0  0  0
   62.9010   33.7730   49.0030 C   0  0  0  0  0  0  0  0  0  0  0  0
   63.2561   34.5218   49.7263 H   0  0  0  0  0  0  0  0  0  0  0  0
   63.7720   32.8000   48.4790 C   0  0  0  0  0  0  0  0  0  0  0  0
   64.8244   32.7785   48.7984 H   0  0  0  0  0  0  0  0  0  0  0  0
   63.3020   31.8520   47.5460 C   0  0  0  0  0  0  0  0  0  0  0  0
   63.9922   31.0984   47.1389 H   0  0  0  0  0  0  0  0  0  0  0  0
   61.9570   31.8630   47.1320 C   0  0  0  0  0  0  0  0  0  0  0  0
   61.5863   31.1338   46.3966 H   0  0  0  0  0  0  0  0  0  0  0  0
   61.1030   32.8280   47.6820 C   0  0  0  0  0  0  0  0  0  0  0  0
   59.0260   30.8610   46.5400 C   0  0  0  0  0  0  0  0  0  0  0  0
   59.7963   30.3484   47.1349 H   0  0  0  0  0  0  0  0  0  0  0  0
   58.1560   30.1120   45.7210 C   0  0  0  0  0  0  0  0  0  0  0  0
   58.2300   28.8110   45.6590 N   0  0  0  0  0  0  0  0  0  0  0  0
   58.9660   27.8980   46.5360 C   0  0  0  0  0  0  0  0  0  0  0  0
   59.4849   28.4848   47.3082 H   0  0  0  0  0  0  0  0  0  0  0  0
   59.6851   27.3351   45.9227 H   0  0  0  0  0  0  0  0  0  0  0  0
   58.0270   26.8950   47.2190 C   0  0  0  0  0  0  0  0  0  0  0  0
   57.1295   27.4253   47.5701 H   0  0  0  0  0  0  0  0  0  0  0  0
   58.5617   26.4366   48.0640 H   0  0  0  0  0  0  0  0  0  0  0  0
   57.6140   25.8080   46.2720 C   0  0  0  0  0  0  0  0  0  0  0  0
   58.3390   24.6650   45.9130 C   0  0  0  0  0  0  0  0  0  0  0  0
   59.3918   24.4798   46.1726 H   0  0  0  0  0  0  0  0  0  0  0  0
   57.5520   23.8160   45.1960 N   0  0  0  0  0  0  0  0  0  0  0  0
   57.8210   22.4100   44.9230 C   0  0  0  0  0  0  0  0  0  0  0  0
   57.9252   21.8654   45.8730 H   0  0  0  0  0  0  0  0  0  0  0  0
   56.9883   21.9829   44.3449 H   0  0  0  0  0  0  0  0  0  0  0  0
   58.7526   22.3204   44.3449 H   0  0  0  0  0  0  0  0  0  0  0  0
   56.3700   24.4450   45.0930 C   0  0  0  0  0  0  0  0  0  0  0  0
   55.1380   23.9190   45.0570 N   0  0  0  0  0  0  0  0  0  0  0  0
   54.4100   24.9240   45.6260 C   0  0  0  0  0  0  0  0  0  0  0  0
   53.3125   24.8956   45.6944 H   0  0  0  0  0  0  0  0  0  0  0  0
   55.1510   25.9680   46.1040 N   0  0  0  0  0  0  0  0  0  0  0  0
   56.3770   25.6210   45.6980 C   0  0  0  0  0  0  0  0  0  0  0  0
  1  2  1  0
  2  3  1  0
  3  4  2  0
  3  5  1  0
  5  6  2  0
  6  7  1  0
  6  8  1  0
  8  9  1  0
  9 10  1  0
 10 11  1  0
 11 12  1  0
 11 13  2  0
 13 14  1  0
 13 15  1  0
 15 16  2  0
 16 17  1  0
 16 18  1  0
 18 19  1  0
 18 20  2  0
 20 21  1  0
 20 22  1  0
 22 23  1  0
 22 24  2  0
  9 25  2  0
 25 26  1  0
 25 27  1  0
 27 28  2  0
 28 29  1  0
 29 30  1  0
 29 31  1  0
 29 32  1  0
 32 33  1  0
 32 34  1  0
 32 35  1  0
 35 36  2  0
 36 37  1  0
 36 38  1  0
 38 39  1  0
 39 40  1  0
 39 41  1  0
 39 42  1  0
 38 43  1  0
 43 44  1  0
 44 45  1  0
 45 46  1  0
 45 47  2  0
 47 48  1  0
 27  5  1  0
 48 35  1  0
 24 10  1  0
 48 43  2  0
 24 15  1  0
M  CHG  3   2  -1   8  -1  44  -1
M  END
>  <UniqueID>  (31) 
30

>  <SMILES>  (31) 
Cn1cc(CC/N=c2\cc(-n3ccc4ccccc43)[n-]cc2C([NH-])=O)c2nc[n-]c21

>  <Energy>  (31) 
180.33949715593468

>  <Genealogy>  (31) 
Cn1cc(CCN=c2cc(-n3ccc4ccccc43)[n-]cc2C([NH-])=O)c2nc[n-]c21 (protonated)
Cn1cc(CC/N=c2\cc(-n3ccc4ccccc43)[n-]cc2C([NH-])=O)c2nc[n-]c21 (cis-trans isomerization)
Cn1cc(CC/N=c2\cc(-n3ccc4ccccc43)[n-]cc2C([NH-])=O)c2nc[n-]c21 (3D coordinates assigned)
Cn1cc(CC/N=c2\cc(-n3ccc4ccccc43)[n-]cc2C([NH-])=O)c2nc[n-]c21 (optimized conformer: 180.33949715593468 kcal/mol)

>  <smiles>  (31) 
Cn1cc(CCN=c2cc(-n3ccc4ccccc43)[nH]cc2C(N)=O)c2nc[nH]c21

>  <score_type>  (31) 
oracle

>  <origin>  (31) 
adg

>  <m_score__min__energy>  (31) 
-14.58

>  <m_primary>  (31) 
energy

$$$$
31:0
     RDKit          3D

 54 58  0  0  0  0  0  0  0  0999 V2000
   56.7760   31.3120   51.9730 C   0  0  0  0  0  0  0  0  0  0  0  0
   57.9690   31.7820   51.1920 C   0  0  0  0  0  0  0  0  0  0  0  0
   58.5270   33.0450   51.4400 C   0  0  0  0  0  0  0  0  0  0  0  0
   59.6170   33.4890   50.6880 C   0  0  0  0  0  0  0  0  0  0  0  0
   60.1450   32.6890   49.6730 C   0  0  0  0  0  0  0  0  0  0  0  0
   59.5770   31.4350   49.3910 C   0  0  0  0  0  0  0  0  0  0  0  0
   60.1380   30.5780   48.2840 C   0  0  0  0  0  0  0  0  0  0  0  0
   59.3220   30.7030   47.0680 N   0  0  0  0  0  0  0  0  0  0  0  0
   59.0560   31.8390   46.3680 C   0  0  0  0  0  0  0  0  0  0  0  0
   59.5290   33.1360   46.6050 C   0  0  0  0  0  0  0  0  0  0  0  0
   59.1010   34.1660   45.7470 C   0  0  0  0  0  0  0  0  0  0  0  0
   58.2180   33.8930   44.6810 C   0  0  0  0  0  0  0  0  0  0  0  0
   57.7490   32.5880   44.4610 C   0  0  0  0  0  0  0  0  0  0  0  0
   58.1890   31.5870   45.3230 C   0  0  0  0  0  0  0  0  0  0  0  0
   57.9000   30.2440   45.3810 C   0  0  0  0  0  0  0  0  0  0  0  0
   57.0760   29.4460   44.6090 C   0  0  0  0  0  0  0  0  0  0  0  0
   56.9760   28.1260   44.9390 N   0  0  0  0  0  0  0  0  0  0  0  0
   57.6570   27.5910   45.9720 N   0  0  0  0  0  0  0  0  0  0  0  0
   57.4700   26.1640   46.2810 C   0  0  0  0  0  0  0  0  0  0  0  0
   56.0040   25.8220   46.2740 C   0  0  0  0  0  0  0  0  0  0  0  0
   55.1730   26.7220   45.9800 O   0  0  0  0  0  0  0  0  0  0  0  0
   55.5140   24.5030   46.5570 N   0  0  0  0  0  0  0  0  0  0  0  0
   54.6700   23.6930   45.6840 C   0  0  0  0  0  0  0  0  0  0  0  0
   55.4980   22.9820   44.6590 C   0  0  0  0  0  0  0  0  0  0  0  0
   55.7470   23.4180   43.3630 C   0  0  0  0  0  0  0  0  0  0  0  0
   56.6010   22.5680   42.6510 C   0  0  0  0  0  0  0  0  0  0  0  0
   57.0370   21.4710   43.3850 C   0  0  0  0  0  0  0  0  0  0  0  0
   56.3600   21.5620   44.9220 S   0  0  0  0  0  0  0  0  0  0  0  0
   58.4810   28.3730   46.7540 C   0  0  0  0  0  0  0  0  0  0  0  0
   59.1150   27.8730   47.7220 O   0  0  0  0  0  0  0  0  0  0  0  0
   58.5980   29.7310   46.4450 C   0  0  0  0  0  0  0  0  0  0  0  0
   58.4930   30.9840   50.1630 C   0  0  0  0  0  0  0  0  0  0  0  0
   56.9866   31.3950   53.0495 H   0  0  0  0  0  0  0  0  0  0  0  0
   55.9045   31.9340   51.7209 H   0  0  0  0  0  0  0  0  0  0  0  0
   56.5629   30.2627   51.7209 H   0  0  0  0  0  0  0  0  0  0  0  0
   58.1055   33.6866   52.2278 H   0  0  0  0  0  0  0  0  0  0  0  0
   60.0614   34.4734   50.8964 H   0  0  0  0  0  0  0  0  0  0  0  0
   61.0095   33.0418   49.0914 H   0  0  0  0  0  0  0  0  0  0  0  0
   61.1665   30.8999   48.0637 H   0  0  0  0  0  0  0  0  0  0  0  0
   60.1293   29.5275   48.6101 H   0  0  0  0  0  0  0  0  0  0  0  0
   60.2159   33.3436   47.4387 H   0  0  0  0  0  0  0  0  0  0  0  0
   59.4583   35.1937   45.9090 H   0  0  0  0  0  0  0  0  0  0  0  0
   57.8946   34.7085   44.0174 H   0  0  0  0  0  0  0  0  0  0  0  0
   57.0573   32.3640   43.6355 H   0  0  0  0  0  0  0  0  0  0  0  0
   56.5191   29.8619   43.7564 H   0  0  0  0  0  0  0  0  0  0  0  0
   56.3480   27.5280   44.3580 H   0  0  0  0  0  0  0  0  0  0  0  0
   57.9891   25.5568   45.5248 H   0  0  0  0  0  0  0  0  0  0  0  0
   57.8844   25.9538   47.2780 H   0  0  0  0  0  0  0  0  0  0  0  0
   54.1304   22.9507   46.2905 H   0  0  0  0  0  0  0  0  0  0  0  0
   53.9582   24.3537   45.1675 H   0  0  0  0  0  0  0  0  0  0  0  0
   55.3166   24.3376   42.9399 H   0  0  0  0  0  0  0  0  0  0  0  0
   56.8993   22.7509   41.6081 H   0  0  0  0  0  0  0  0  0  0  0  0
   57.7093   20.6793   43.0228 H   0  0  0  0  0  0  0  0  0  0  0  0
   58.0514   29.9974   49.9593 H   0  0  0  0  0  0  0  0  0  0  0  0
  1  2  1  0
  2  3  2  0
  3  4  1  0
  4  5  2  0
  5  6  1  0
  6  7  1  0
  7  8  1  0
  8  9  1  0
  9 10  2  0
 10 11  1  0
 11 12  2  0
 12 13  1  0
 13 14  2  0
 14 15  1  0
 15 16  1  0
 16 17  2  0
 17 18  1  0
 18 19  1  0
 19 20  1  0
 20 21  2  0
 20 22  1  0
 22 23  1  0
 23 24  1  0
 24 25  2  0
 25 26  1  0
 26 27  2  0
 27 28  1  0
 18 29  1  0
 29 30  2  0
 29 31  1  0
  6 32  2  0
 32  2  1  0
 31  8  1  0
 14  9  1  0
 31 15  2  0
 28 24  1  0
  1 33  1  0
  1 34  1  0
  1 35  1  0
  3 36  1  0
  4 37  1  0
  5 38  1  0
  7 39  1  0
  7 40  1  0
 10 41  1  0
 11 42  1  0
 12 43  1  0
 13 44  1  0
 16 45  1  0
 17 46  1  0
 19 47  1  0
 19 48  1  0
 23 49  1  0
 23 50  1  0
 25 51  1  0
 26 52  1  0
 27 53  1  0
 32 54  1  0
M  CHG  2  17   1  22  -1
M  END
>  <UniqueID>  (32) 
31

>  <SMILES>  (32) 
Cc1cccc(Cn2c3ccccc3c3c[nH+]n(CC(=O)[N-]Cc4cccs4)c(=O)c32)c1

>  <Energy>  (32) 
127.39206061706945

>  <Genealogy>  (32) 
Cc1cccc(Cn2c3ccccc3c3c[nH+]n(CC(=O)[N-]Cc4cccs4)c(=O)c32)c1 (protonated)
Cc1cccc(Cn2c3ccccc3c3c[nH+]n(CC(=O)[N-]Cc4cccs4)c(=O)c32)c1 (3D coordinates assigned)
Cc1cccc(Cn2c3ccccc3c3c[nH+]n(CC(=O)[N-]Cc4cccs4)c(=O)c32)c1 (optimized conformer: 127.39206061706945 kcal/mol)

>  <smiles>  (32) 
Cc1cccc(Cn2c3ccccc3c3cnn(CC(=O)NCc4cccs4)c(=O)c32)c1

>  <score_type>  (32) 
oracle

>  <origin>  (32) 
adg

>  <m_score__min__energy>  (32) 
-10.94

>  <m_primary>  (32) 
energy

$$$$
32:0
     RDKit          3D

 70 72  0  0  0  0  0  0  0  0999 V2000
   55.6520   27.1000   45.6880 N   0  0  0  0  0  0  0  0  0  0  0  0
   56.3730   25.9360   46.0970 C   0  0  0  0  0  0  0  0  0  0  0  0
   55.9240   25.2200   47.0320 O   0  0  0  0  0  0  0  0  0  0  0  0
   57.6320   25.5270   45.3860 C   0  0  0  0  0  0  0  0  0  0  0  0
   58.1340   26.6180   44.4230 C   0  0  0  0  0  0  0  0  0  0  0  0
   58.2430   28.0260   45.0520 C   0  0  2  0  0  0  0  0  0  0  0  0
   57.5830   29.0020   44.1860 N   0  0  0  0  0  0  0  0  0  0  0  0
   56.5200   29.8550   44.6190 C   0  0  0  0  0  0  0  0  0  0  0  0
   55.3200   29.4720   44.5310 O   0  0  0  0  0  0  0  0  0  0  0  0
   56.8300   31.1150   45.1390 O   0  0  0  0  0  0  0  0  0  0  0  0
   57.4290   32.1540   44.3680 C   0  0  0  0  0  0  0  0  0  0  0  0
   58.0910   33.1640   45.2670 C   0  0  0  0  0  0  0  0  0  0  0  0
   58.9390   34.1500   44.7350 C   0  0  0  0  0  0  0  0  0  0  0  0
   59.5550   35.0790   45.5800 C   0  0  0  0  0  0  0  0  0  0  0  0
   59.3300   35.0280   46.9580 C   0  0  0  0  0  0  0  0  0  0  0  0
   58.4880   34.0490   47.4960 C   0  0  0  0  0  0  0  0  0  0  0  0
   57.8700   33.1200   46.6540 C   0  0  0  0  0  0  0  0  0  0  0  0
   59.6780   28.4330   45.2680 C   0  0  0  0  0  0  0  0  0  0  0  0
   60.3360   28.9740   44.3360 O   0  0  0  0  0  0  0  0  0  0  0  0
   60.2780   28.2440   46.5540 N   0  0  0  0  0  0  0  0  0  0  0  0
   60.4840   29.2910   47.5570 C   0  0  2  0  0  0  0  0  0  0  0  0
   59.2720   29.3660   48.5080 C   0  0  0  0  0  0  0  0  0  0  0  0
   59.4580   30.4510   49.5400 C   0  0  0  0  0  0  0  0  0  0  0  0
   58.5370   31.5100   49.6250 C   0  0  0  0  0  0  0  0  0  0  0  0
   58.7490   32.5570   50.5270 C   0  0  0  0  0  0  0  0  0  0  0  0
   59.8800   32.5580   51.3460 C   0  0  0  0  0  0  0  0  0  0  0  0
   60.8020   31.5110   51.2660 C   0  0  0  0  0  0  0  0  0  0  0  0
   60.5950   30.4610   50.3660 C   0  0  0  0  0  0  0  0  0  0  0  0
   60.7970   30.6140   46.9020 C   0  0  0  0  0  0  0  0  0  0  0  0
   59.9920   31.0960   46.0590 O   0  0  0  0  0  0  0  0  0  0  0  0
   62.0290   31.2880   47.1810 N   0  0  0  0  0  0  0  0  0  0  0  0
   62.2100   32.7300   47.0580 C   0  0  0  0  0  0  0  0  0  0  0  0
   61.8310   33.4340   48.3650 C   0  0  0  0  0  0  0  0  0  0  0  0
   63.0120   33.4800   49.2980 C   0  0  0  0  0  0  0  0  0  0  0  0
   64.1680   32.7330   49.0170 C   0  0  0  0  0  0  0  0  0  0  0  0
   65.2490   32.7480   49.9030 C   0  0  0  0  0  0  0  0  0  0  0  0
   65.1780   33.4970   51.0810 C   0  0  0  0  0  0  0  0  0  0  0  0
   64.0270   34.2320   51.3750 C   0  0  0  0  0  0  0  0  0  0  0  0
   62.9440   34.2230   50.4900 C   0  0  0  0  0  0  0  0  0  0  0  0
   54.7610   27.3620   46.1660 H   0  0  0  0  0  0  0  0  0  0  0  0
   56.0030   27.7030   44.9110 H   0  0  0  0  0  0  0  0  0  0  0  0
   58.4132   25.3277   46.1344 H   0  0  0  0  0  0  0  0  0  0  0  0
   57.4090   24.6280   44.7926 H   0  0  0  0  0  0  0  0  0  0  0  0
   59.1306   26.3251   44.0611 H   0  0  0  0  0  0  0  0  0  0  0  0
   57.3889   26.6916   43.6171 H   0  0  0  0  0  0  0  0  0  0  0  0
   57.7491   27.9953   46.0344 H   0  0  0  0  0  0  0  0  0  0  0  0
   58.1834   31.7176   43.6968 H   0  0  0  0  0  0  0  0  0  0  0  0
   56.6463   32.6584   43.7824 H   0  0  0  0  0  0  0  0  0  0  0  0
   59.1190   34.1915   43.6506 H   0  0  0  0  0  0  0  0  0  0  0  0
   60.2170   35.8502   45.1593 H   0  0  0  0  0  0  0  0  0  0  0  0
   59.8158   35.7590   47.6210 H   0  0  0  0  0  0  0  0  0  0  0  0
   58.3123   34.0102   48.5812 H   0  0  0  0  0  0  0  0  0  0  0  0
   57.2079   32.3512   47.0790 H   0  0  0  0  0  0  0  0  0  0  0  0
   61.3609   29.0344   48.1696 H   0  0  0  0  0  0  0  0  0  0  0  0
   58.3670   29.5802   47.9205 H   0  0  0  0  0  0  0  0  0  0  0  0
   59.1757   28.4016   49.0282 H   0  0  0  0  0  0  0  0  0  0  0  0
   57.6464   31.5148   48.9794 H   0  0  0  0  0  0  0  0  0  0  0  0
   58.0236   33.3814   50.5916 H   0  0  0  0  0  0  0  0  0  0  0  0
   60.0452   33.3832   52.0543 H   0  0  0  0  0  0  0  0  0  0  0  0
   61.6922   31.5128   51.9122 H   0  0  0  0  0  0  0  0  0  0  0  0
   61.3246   29.6401   50.3043 H   0  0  0  0  0  0  0  0  0  0  0  0
   63.2635   32.9436   46.8246 H   0  0  0  0  0  0  0  0  0  0  0  0
   61.5592   33.1019   46.2530 H   0  0  0  0  0  0  0  0  0  0  0  0
   61.5048   34.4606   48.1423 H   0  0  0  0  0  0  0  0  0  0  0  0
   61.0161   32.8749   48.8481 H   0  0  0  0  0  0  0  0  0  0  0  0
   64.2227   32.1339   48.0961 H   0  0  0  0  0  0  0  0  0  0  0  0
   66.1562   32.1700   49.6730 H   0  0  0  0  0  0  0  0  0  0  0  0
   66.0295   33.5077   51.7774 H   0  0  0  0  0  0  0  0  0  0  0  0
   63.9723   34.8187   52.3039 H   0  0  0  0  0  0  0  0  0  0  0  0
   62.0370   34.7984   50.7269 H   0  0  0  0  0  0  0  0  0  0  0  0
  1  2  1  0
  2  3  2  0
  2  4  1  0
  4  5  1  0
  5  6  1  0
  6  7  1  0
  7  8  1  0
  8  9  2  0
  8 10  1  0
 10 11  1  0
 11 12  1  0
 12 13  2  0
 13 14  1  0
 14 15  2  0
 15 16  1  0
 16 17  2  0
  6 18  1  0
 18 19  2  0
 18 20  1  0
 20 21  1  0
 21 22  1  0
 22 23  1  0
 23 24  2  0
 24 25  1  0
 25 26  2  0
 26 27  1  0
 27 28  2  0
 21 29  1  0
 29 30  2  0
 29 31  1  0
 31 32  1  0
 32 33  1  0
 33 34  1  0
 34 35  2  0
 35 36  1  0
 36 37  2  0
 37 38  1  0
 38 39  2  0
 17 12  1  0
 28 23  1  0
 39 34  1  0
  1 40  1  0
  1 41  1  0
  4 42  1  0
  4 43  1  0
  5 44  1  0
  5 45  1  0
  6 46  1  1
 11 47  1  0
 11 48  1  0
 13 49  1  0
 14 50  1  0
 15 51  1  0
 16 52  1  0
 17 53  1  0
 21 54  1  1
 22 55  1  0
 22 56  1  0
 24 57  1  0
 25 58  1  0
 26 59  1  0
 27 60  1  0
 28 61  1  0
 32 62  1  0
 32 63  1  0
 33 64  1  0
 33 65  1  0
 35 66  1  0
 36 67  1  0
 37 68  1  0
 38 69  1  0
 39 70  1  0
M  CHG  3   7  -1  20  -1  31  -1
M  END
>  <UniqueID>  (33) 
32

>  <SMILES>  (33) 
NC(=O)CC[C@H]([N-]C(=O)OCc1ccccc1)C(=O)[N-][C@H](Cc1ccccc1)C(=O)[N-]CCc1ccccc1

>  <Energy>  (33) 
55.66562949559189

>  <Genealogy>  (33) 
NC(=O)CCC([N-]C(=O)OCc1ccccc1)C(=O)[N-]C(Cc1ccccc1)C(=O)[N-]CCc1ccccc1 (protonated)
NC(=O)CC[C@H]([N-]C(=O)OCc1ccccc1)C(=O)[N-][C@H](Cc1ccccc1)C(=O)[N-]CCc1ccccc1 (chirality)
NC(=O)CC[C@H]([N-]C(=O)OCc1ccccc1)C(=O)[N-][C@H](Cc1ccccc1)C(=O)[N-]CCc1ccccc1 (3D coordinates assigned)
NC(=O)CC[C@H]([N-]C(=O)OCc1ccccc1)C(=O)[N-][C@H](Cc1ccccc1)C(=O)[N-]CCc1ccccc1 (optimized conformer: 55.66562949559189 kcal/mol)

>  <smiles>  (33) 
NC(=O)CCC(NC(=O)OCc1ccccc1)C(=O)NC(Cc1ccccc1)C(=O)NCCc1ccccc1

>  <score_type>  (33) 
oracle

>  <origin>  (33) 
adg

>  <m_score__min__energy>  (33) 
-13.48

>  <m_primary>  (33) 
energy

$$$$
33:0
     RDKit          3D

 39 42  0  0  0  0  0  0  0  0999 V2000
   60.5730   28.2100   48.7090 O   0  0  0  0  0  0  0  0  0  0  0  0
   59.9750   28.8590   47.8060 C   0  0  0  0  0  0  0  0  0  0  0  0
   60.0150   30.2640   47.8050 C   0  0  0  0  0  0  0  0  0  0  0  0
   60.7470   30.9800   48.7650 O   0  0  0  0  0  0  0  0  0  0  0  0
   61.7750   31.8900   48.4810 C   0  0  0  0  0  0  0  0  0  0  0  0
   61.9180   33.0170   49.2980 C   0  0  0  0  0  0  0  0  0  0  0  0
   62.9220   33.9560   49.0390 C   0  0  0  0  0  0  0  0  0  0  0  0
   63.7850   33.7770   47.9560 C   0  0  0  0  0  0  0  0  0  0  0  0
   63.6410   32.6620   47.1250 C   0  0  0  0  0  0  0  0  0  0  0  0
   62.6380   31.7220   47.3810 C   0  0  0  0  0  0  0  0  0  0  0  0
   59.2800   30.9600   46.8260 C   0  0  0  0  0  0  0  0  0  0  0  0
   59.2510   32.4370   46.7980 C   0  0  0  0  0  0  0  0  0  0  0  0
   59.6040   33.1120   45.6160 C   0  0  0  0  0  0  0  0  0  0  0  0
   59.6300   34.5070   45.5770 C   0  0  0  0  0  0  0  0  0  0  0  0
   59.3130   35.2450   46.7180 C   0  0  0  0  0  0  0  0  0  0  0  0
   58.9620   34.5880   47.9000 C   0  0  0  0  0  0  0  0  0  0  0  0
   58.9200   33.1900   47.9500 C   0  0  0  0  0  0  0  0  0  0  0  0
   58.5280   32.5830   49.1450 O   0  0  0  0  0  0  0  0  0  0  0  0
   58.5990   30.2890   45.9010 O   0  0  0  0  0  0  0  0  0  0  0  0
   58.5590   28.9620   45.8490 C   0  0  0  0  0  0  0  0  0  0  0  0
   57.8260   28.3310   44.8390 C   0  0  0  0  0  0  0  0  0  0  0  0
   57.7700   26.9360   44.7780 C   0  0  0  0  0  0  0  0  0  0  0  0
   58.4480   26.1630   45.7270 C   0  0  0  0  0  0  0  0  0  0  0  0
   58.3720   24.4130   45.6450 Cl  0  0  0  0  0  0  0  0  0  0  0  0
   59.1840   26.7850   46.7430 C   0  0  0  0  0  0  0  0  0  0  0  0
   59.2480   28.1890   46.8090 C   0  0  0  0  0  0  0  0  0  0  0  0
   61.2369   33.1654   50.1489 H   0  0  0  0  0  0  0  0  0  0  0  0
   63.0318   34.8364   49.6893 H   0  0  0  0  0  0  0  0  0  0  0  0
   64.5778   34.5130   47.7567 H   0  0  0  0  0  0  0  0  0  0  0  0
   64.3176   32.5240   46.2687 H   0  0  0  0  0  0  0  0  0  0  0  0
   62.5228   30.8492   46.7215 H   0  0  0  0  0  0  0  0  0  0  0  0
   59.8617   32.5361   44.7149 H   0  0  0  0  0  0  0  0  0  0  0  0
   59.9008   35.0254   44.6454 H   0  0  0  0  0  0  0  0  0  0  0  0
   59.3395   36.3442   46.6869 H   0  0  0  0  0  0  0  0  0  0  0  0
   58.7168   35.1739   48.7981 H   0  0  0  0  0  0  0  0  0  0  0  0
   59.1070   31.9200   49.6440 H   0  0  0  0  0  0  0  0  0  0  0  0
   57.2919   28.9345   44.0903 H   0  0  0  0  0  0  0  0  0  0  0  0
   57.1915   26.4444   43.9820 H   0  0  0  0  0  0  0  0  0  0  0  0
   59.7127   26.1752   47.4904 H   0  0  0  0  0  0  0  0  0  0  0  0
  1  2  2  0
  2  3  1  0
  3  4  1  0
  4  5  1  0
  5  6  2  0
  6  7  1  0
  7  8  2  0
  8  9  1  0
  9 10  2  0
  3 11  2  0
 11 12  1  0
 12 13  2  0
 13 14  1  0
 14 15  2  0
 15 16  1  0
 16 17  2  0
 17 18  1  0
 11 19  1  0
 19 20  1  0
 20 21  2  0
 21 22  1  0
 22 23  2  0
 23 24  1  0
 23 25  1  0
 25 26  2  0
 26  2  1  0
 10  5  1  0
 17 12  1  0
 26 20  1  0
  6 27  1  0
  7 28  1  0
  8 29  1  0
  9 30  1  0
 10 31  1  0
 13 32  1  0
 14 33  1  0
 15 34  1  0
 16 35  1  0
 18 36  1  0
 21 37  1  0
 22 38  1  0
 25 39  1  0
M  END
>  <UniqueID>  (34) 
33

>  <SMILES>  (34) 
O=c1c(Oc2ccccc2)c(-c2ccccc2O)oc2ccc(Cl)cc12

>  <Energy>  (34) 
63.7615537889483

>  <Genealogy>  (34) 
O=c1c(Oc2ccccc2)c(-c2ccccc2O)oc2ccc(Cl)cc12 (3D coordinates assigned)
O=c1c(Oc2ccccc2)c(-c2ccccc2O)oc2ccc(Cl)cc12 (optimized conformer: 63.7615537889483 kcal/mol)

>  <smiles>  (34) 
O=c1c(Oc2ccccc2)c(-c2ccccc2O)oc2ccc(Cl)cc12

>  <score_type>  (34) 
oracle

>  <origin>  (34) 
adg

>  <m_score__min__energy>  (34) 
-8.1999999999999993

>  <m_primary>  (34) 
energy

$$$$
34:0
     RDKit          3D

 51 53  0  0  0  0  0  0  0  0999 V2000
   54.9220   31.2000   51.7340 N   0  0  0  0  0  0  0  0  0  0  0  0
   56.2740   30.5050   52.5550 S   0  0  0  0  0  0  0  0  0  0  0  0
   56.2390   30.9050   54.0030 O   0  0  0  0  0  0  0  0  0  0  0  0
   56.2060   29.0070   52.4670 O   0  0  0  0  0  0  0  0  0  0  0  0
   57.7630   31.0720   51.8080 C   0  0  0  0  0  0  0  0  0  0  0  0
   58.0810   32.4360   51.8030 C   0  0  0  0  0  0  0  0  0  0  0  0
   59.2710   32.8800   51.2170 C   0  0  0  0  0  0  0  0  0  0  0  0
   60.1560   31.9650   50.6240 C   0  0  0  0  0  0  0  0  0  0  0  0
   61.4520   32.4480   50.0220 C   0  0  0  0  0  0  0  0  0  0  0  0
   61.2750   32.9940   48.5910 C   0  0  0  0  0  0  0  0  0  0  0  0
   60.7810   34.3800   48.5900 N   0  0  0  0  0  0  0  0  0  0  0  0
   59.3290   34.4950   48.3740 C   0  0  0  0  0  0  0  0  0  0  0  0
   58.9070   34.0520   46.9930 C   0  0  0  0  0  0  0  0  0  0  0  0
   58.9450   34.9530   45.9180 C   0  0  0  0  0  0  0  0  0  0  0  0
   58.5000   34.5580   44.6530 C   0  0  0  0  0  0  0  0  0  0  0  0
   58.0350   33.2550   44.4470 C   0  0  0  0  0  0  0  0  0  0  0  0
   58.0380   32.3310   45.4970 C   0  0  0  0  0  0  0  0  0  0  0  0
   57.5540   31.0020   45.2640 N   0  0  0  0  0  0  0  0  0  0  0  0
   58.3960   29.8540   45.1020 C   0  0  0  0  0  0  0  0  0  0  0  0
   59.5420   29.9960   44.5970 O   0  0  0  0  0  0  0  0  0  0  0  0
   57.9220   28.4970   45.4790 C   0  0  0  0  0  0  0  0  0  0  0  0
   58.8690   27.5050   45.8040 C   0  0  0  0  0  0  0  0  0  0  0  0
   58.4610   26.2260   46.1810 C   0  0  0  0  0  0  0  0  0  0  0  0
   57.1040   25.9150   46.2460 C   0  0  0  0  0  0  0  0  0  0  0  0
   56.1470   26.8800   45.9290 C   0  0  0  0  0  0  0  0  0  0  0  0
   54.7990   26.5500   46.0070 O   0  0  0  0  0  0  0  0  0  0  0  0
   56.5440   28.1750   45.5460 C   0  0  0  0  0  0  0  0  0  0  0  0
   55.5770   29.1380   45.2460 O   0  0  0  0  0  0  0  0  0  0  0  0
   58.4520   32.7400   46.7750 C   0  0  0  0  0  0  0  0  0  0  0  0
   59.8110   30.6040   50.5910 C   0  0  0  0  0  0  0  0  0  0  0  0
   58.6260   30.1610   51.1860 C   0  0  0  0  0  0  0  0  0  0  0  0
   55.2860   31.6420   50.8590 H   0  0  0  0  0  0  0  0  0  0  0  0
   57.3923   33.1608   52.2616 H   0  0  0  0  0  0  0  0  0  0  0  0
   59.5151   33.9526   51.2207 H   0  0  0  0  0  0  0  0  0  0  0  0
   61.8581   33.2492   50.6569 H   0  0  0  0  0  0  0  0  0  0  0  0
   62.1348   31.5873   49.9677 H   0  0  0  0  0  0  0  0  0  0  0  0
   62.2462   32.9622   48.0755 H   0  0  0  0  0  0  0  0  0  0  0  0
   60.5322   32.3669   48.0762 H   0  0  0  0  0  0  0  0  0  0  0  0
   61.2750   34.9110   47.8320 H   0  0  0  0  0  0  0  0  0  0  0  0
   58.8123   33.8698   49.1171 H   0  0  0  0  0  0  0  0  0  0  0  0
   59.0612   35.5568   48.4780 H   0  0  0  0  0  0  0  0  0  0  0  0
   59.3262   35.9734   46.0711 H   0  0  0  0  0  0  0  0  0  0  0  0
   58.5156   35.2736   43.8177 H   0  0  0  0  0  0  0  0  0  0  0  0
   57.6654   32.9557   43.4551 H   0  0  0  0  0  0  0  0  0  0  0  0
   59.9422   27.7424   45.7597 H   0  0  0  0  0  0  0  0  0  0  0  0
   59.2118   25.4609   46.4276 H   0  0  0  0  0  0  0  0  0  0  0  0
   56.7864   24.9061   46.5480 H   0  0  0  0  0  0  0  0  0  0  0  0
   55.6140   30.0790   45.6180 H   0  0  0  0  0  0  0  0  0  0  0  0
   58.4200   32.0277   47.6126 H   0  0  0  0  0  0  0  0  0  0  0  0
   60.4767   29.8828   50.0944 H   0  0  0  0  0  0  0  0  0  0  0  0
   58.3701   29.0914   51.1655 H   0  0  0  0  0  0  0  0  0  0  0  0
  1  2  1  0
  2  3  2  0
  2  4  2  0
  2  5  1  0
  5  6  2  0
  6  7  1  0
  7  8  2  0
  8  9  1  0
  9 10  1  0
 10 11  1  0
 11 12  1  0
 12 13  1  0
 13 14  2  0
 14 15  1  0
 15 16  2  0
 16 17  1  0
 17 18  1  0
 18 19  1  0
 19 20  2  0
 19 21  1  0
 21 22  2  0
 22 23  1  0
 23 24  2  0
 24 25  1  0
 25 26  1  0
 25 27  2  0
 27 28  1  0
 17 29  2  0
  8 30  1  0
 30 31  2  0
 31  5  1  0
 29 13  1  0
 27 21  1  0
  1 32  1  0
  6 33  1  0
  7 34  1  0
  9 35  1  0
  9 36  1  0
 10 37  1  0
 10 38  1  0
 11 39  1  0
 12 40  1  0
 12 41  1  0
 14 42  1  0
 15 43  1  0
 16 44  1  0
 22 45  1  0
 23 46  1  0
 24 47  1  0
 28 48  1  0
 29 49  1  0
 30 50  1  0
 31 51  1  0
M  CHG  3   1  -1  18  -1  26  -1
M  END
>  <UniqueID>  (35) 
34

>  <SMILES>  (35) 
[NH-]S(=O)(=O)c1ccc(CCNCc2cccc([N-]C(=O)c3cccc([O-])c3O)c2)cc1

>  <Energy>  (35) 
56.72381477325207

>  <Genealogy>  (35) 
[NH-]S(=O)(=O)c1ccc(CCNCc2cccc([N-]C(=O)c3cccc([O-])c3O)c2)cc1 (protonated)
[NH-]S(=O)(=O)c1ccc(CCNCc2cccc([N-]C(=O)c3cccc([O-])c3O)c2)cc1 (3D coordinates assigned)
[NH-]S(=O)(=O)c1ccc(CCNCc2cccc([N-]C(=O)c3cccc([O-])c3O)c2)cc1 (optimized conformer: 56.72381477325207 kcal/mol)

>  <smiles>  (35) 
NS(=O)(=O)c1ccc(CCNCc2cccc(NC(=O)c3cccc(O)c3O)c2)cc1

>  <score_type>  (35) 
oracle

>  <origin>  (35) 
adg

>  <m_score__min__energy>  (35) 
-16.190000000000001

>  <m_primary>  (35) 
energy

$$$$
35:0
     RDKit          3D

 39 41  0  0  0  0  0  0  0  0999 V2000
   55.1540   29.3960   44.8640 O   0  0  0  0  0  0  0  0  0  0  0  0
   56.3430   29.5290   44.4640 C   0  0  0  0  0  0  0  0  0  0  0  0
   56.6680   30.4540   43.3620 C   0  0  0  0  0  0  0  0  0  0  0  0
   57.6970   31.3160   43.3470 C   0  0  0  0  0  0  0  0  0  0  0  0
   57.8670   32.4620   44.2660 C   0  0  0  0  0  0  0  0  0  0  0  0
   57.1310   32.5670   45.4570 C   0  0  0  0  0  0  0  0  0  0  0  0
   57.3520   33.6390   46.3220 C   0  0  0  0  0  0  0  0  0  0  0  0
   58.3260   34.5860   46.0010 C   0  0  0  0  0  0  0  0  0  0  0  0
   59.0530   34.4550   44.8600 N   0  0  0  0  0  0  0  0  0  0  0  0
   58.8540   33.4210   44.0010 C   0  0  0  0  0  0  0  0  0  0  0  0
   57.3820   28.7020   44.9980 N   0  0  0  0  0  0  0  0  0  0  0  0
   58.5650   29.1580   45.6710 C   0  0  0  0  0  0  0  0  0  0  0  0
   59.8040   28.9810   45.0460 C   0  0  0  0  0  0  0  0  0  0  0  0
   60.9760   29.4280   45.6600 C   0  0  0  0  0  0  0  0  0  0  0  0
   60.9180   30.0740   46.8970 C   0  0  0  0  0  0  0  0  0  0  0  0
   59.6780   30.2870   47.5260 C   0  0  0  0  0  0  0  0  0  0  0  0
   59.5660   30.9690   48.7820 N   0  0  0  0  0  0  0  0  0  0  0  0
   60.0830   32.5970   49.0860 S   0  0  0  0  0  0  0  0  0  0  0  0
   60.3750   32.7580   50.5520 O   0  0  0  0  0  0  0  0  0  0  0  0
   58.9840   33.5430   48.6950 O   0  0  0  0  0  0  0  0  0  0  0  0
   61.5120   32.9580   48.1370 C   0  0  0  0  0  0  0  0  0  0  0  0
   62.8080   32.5770   48.4510 C   0  0  0  0  0  0  0  0  0  0  0  0
   63.7470   33.0230   47.5140 C   0  0  0  0  0  0  0  0  0  0  0  0
   63.1900   33.7490   46.4680 C   0  0  0  0  0  0  0  0  0  0  0  0
   61.5270   33.8400   46.7090 S   0  0  0  0  0  0  0  0  0  0  0  0
   58.5070   29.8310   46.9050 C   0  0  0  0  0  0  0  0  0  0  0  0
   56.0125   30.4360   42.4788 H   0  0  0  0  0  0  0  0  0  0  0  0
   58.4779   31.1568   42.5888 H   0  0  0  0  0  0  0  0  0  0  0  0
   56.3798   31.8037   45.7082 H   0  0  0  0  0  0  0  0  0  0  0  0
   56.7650   33.7370   47.2471 H   0  0  0  0  0  0  0  0  0  0  0  0
   58.5054   35.4390   46.6720 H   0  0  0  0  0  0  0  0  0  0  0  0
   59.4703   33.3364   43.0938 H   0  0  0  0  0  0  0  0  0  0  0  0
   59.8554   28.4866   44.0647 H   0  0  0  0  0  0  0  0  0  0  0  0
   61.9473   29.2709   45.1681 H   0  0  0  0  0  0  0  0  0  0  0  0
   61.8445   30.4171   47.3806 H   0  0  0  0  0  0  0  0  0  0  0  0
   63.0700   31.9871   49.3417 H   0  0  0  0  0  0  0  0  0  0  0  0
   64.8245   32.8182   47.5976 H   0  0  0  0  0  0  0  0  0  0  0  0
   63.7427   34.1896   45.6251 H   0  0  0  0  0  0  0  0  0  0  0  0
   57.5331   30.0011   47.3873 H   0  0  0  0  0  0  0  0  0  0  0  0
  1  2  2  0
  2  3  1  0
  3  4  2  3
  4  5  1  0
  5  6  2  0
  6  7  1  0
  7  8  2  0
  8  9  1  0
  9 10  2  0
  2 11  1  0
 11 12  1  0
 12 13  2  0
 13 14  1  0
 14 15  2  0
 15 16  1  0
 16 17  1  0
 17 18  1  0
 18 19  2  0
 18 20  2  0
 18 21  1  0
 21 22  2  0
 22 23  1  0
 23 24  2  0
 24 25  1  0
 16 26  2  0
 10  5  1  0
 26 12  1  0
 25 21  1  0
  3 27  1  0
  4 28  1  0
  6 29  1  0
  7 30  1  0
  8 31  1  0
 10 32  1  0
 13 33  1  0
 14 34  1  0
 15 35  1  0
 22 36  1  0
 23 37  1  0
 24 38  1  0
 26 39  1  0
M  CHG  2  11  -1  17  -1
M  END
>  <UniqueID>  (36) 
35

>  <SMILES>  (36) 
O=C(C=Cc1cccnc1)[N-]c1cccc([N-]S(=O)(=O)c2cccs2)c1

>  <Energy>  (36) 
82.04741786084959

>  <Genealogy>  (36) 
O=C(C=Cc1cccnc1)[N-]c1cccc([N-]S(=O)(=O)c2cccs2)c1 (protonated)
O=C(C=Cc1cccnc1)[N-]c1cccc([N-]S(=O)(=O)c2cccs2)c1 (3D coordinates assigned)
O=C(C=Cc1cccnc1)[N-]c1cccc([N-]S(=O)(=O)c2cccs2)c1 (optimized conformer: 82.04741786084959 kcal/mol)

>  <smiles>  (36) 
O=C(C=Cc1cccnc1)Nc1cccc(NS(=O)(=O)c2cccs2)c1

>  <score_type>  (36) 
oracle

>  <origin>  (36) 
adg

>  <m_score__min__energy>  (36) 
-12.119999999999999

>  <m_primary>  (36) 
energy

$$$$
36:0
     RDKit          3D

 47 49  0  0  0  0  0  0  0  0999 V2000
   61.1880   35.0073   47.5314 H   0  0  0  0  0  0  0  0  0  0  0  0
   60.8870   34.2100   48.2270 C   0  0  0  0  0  0  0  0  0  0  0  0
   61.6610   33.0540   48.3540 C   0  0  0  0  0  0  0  0  0  0  0  0
   63.2470   32.8370   47.3200 Br  0  0  0  0  0  0  0  0  0  0  0  0
   61.2780   32.0730   49.2130 N   0  0  0  0  0  0  0  0  0  0  0  0
   60.1480   32.1710   49.9690 C   0  0  0  0  0  0  0  0  0  0  0  0
   59.7950   31.2220   50.7880 N   0  0  0  0  0  0  0  0  0  0  0  0
   58.9620   30.0900   50.4950 C   0  0  0  0  0  0  0  0  0  0  0  0
   57.7600   30.1110   50.8700 O   0  0  0  0  0  0  0  0  0  0  0  0
   59.4690   28.9580   49.7760 N   0  0  0  0  0  0  0  0  0  0  0  0
   60.1550   29.0460   48.4930 C   0  0  0  0  0  0  0  0  0  0  0  0
   60.0515   30.0673   48.0979 H   0  0  0  0  0  0  0  0  0  0  0  0
   61.2165   28.7995   48.6428 H   0  0  0  0  0  0  0  0  0  0  0  0
   59.5680   28.0730   47.5060 C   0  0  0  0  0  0  0  0  0  0  0  0
   60.3610   27.0530   46.9570 C   0  0  0  0  0  0  0  0  0  0  0  0
   61.4138   26.9546   47.2601 H   0  0  0  0  0  0  0  0  0  0  0  0
   59.8190   26.1630   46.0280 C   0  0  0  0  0  0  0  0  0  0  0  0
   60.4458   25.3656   45.6021 H   0  0  0  0  0  0  0  0  0  0  0  0
   58.4840   26.2820   45.6380 C   0  0  0  0  0  0  0  0  0  0  0  0
   58.0689   25.5898   44.8907 H   0  0  0  0  0  0  0  0  0  0  0  0
   57.6680   27.2800   46.1940 C   0  0  0  0  0  0  0  0  0  0  0  0
   56.2710   27.4460   45.7390 C   0  0  0  0  0  0  0  0  0  0  0  0
   55.4760   26.4740   45.8330 O   0  0  0  0  0  0  0  0  0  0  0  0
   55.7800   28.6890   45.2150 N   0  0  0  0  0  0  0  0  0  0  0  0
   56.2910   29.3650   44.0240 C   0  0  0  0  0  0  0  0  0  0  0  0
   56.2149   28.6845   43.1631 H   0  0  0  0  0  0  0  0  0  0  0  0
   55.6931   30.2720   43.8509 H   0  0  0  0  0  0  0  0  0  0  0  0
   57.7560   29.7730   44.2130 C   0  0  0  0  0  0  0  0  0  0  0  0
   58.2424   29.0499   44.8841 H   0  0  0  0  0  0  0  0  0  0  0  0
   58.2367   29.7828   43.2236 H   0  0  0  0  0  0  0  0  0  0  0  0
   57.8850   31.1510   44.8070 C   0  0  0  0  0  0  0  0  0  0  0  0
   57.7040   32.2880   44.0020 C   0  0  0  0  0  0  0  0  0  0  0  0
   57.4886   32.1725   42.9295 H   0  0  0  0  0  0  0  0  0  0  0  0
   57.7970   33.5660   44.5610 C   0  0  0  0  0  0  0  0  0  0  0  0
   57.6628   34.4541   43.9260 H   0  0  0  0  0  0  0  0  0  0  0  0
   58.0600   33.7170   45.9240 C   0  0  0  0  0  0  0  0  0  0  0  0
   58.1318   34.7239   46.3611 H   0  0  0  0  0  0  0  0  0  0  0  0
   58.2320   32.5920   46.7330 C   0  0  0  0  0  0  0  0  0  0  0  0
   58.4361   32.7134   47.8071 H   0  0  0  0  0  0  0  0  0  0  0  0
   58.1450   31.3120   46.1790 C   0  0  0  0  0  0  0  0  0  0  0  0
   58.2804   30.4275   46.8187 H   0  0  0  0  0  0  0  0  0  0  0  0
   58.2190   28.1770   47.1260 C   0  0  0  0  0  0  0  0  0  0  0  0
   57.5890   28.9667   47.5613 H   0  0  0  0  0  0  0  0  0  0  0  0
   59.3540   33.3210   49.8710 C   0  0  0  0  0  0  0  0  0  0  0  0
   58.4437   33.4195   50.4807 H   0  0  0  0  0  0  0  0  0  0  0  0
   59.7270   34.3420   48.9930 C   0  0  0  0  0  0  0  0  0  0  0  0
   59.1084   35.2474   48.9055 H   0  0  0  0  0  0  0  0  0  0  0  0
  1  2  1  0
  2  3  2  0
  3  4  1  0
  3  5  1  0
  5  6  1  0
  6  7  2  0
  7  8  1  0
  8  9  2  0
  8 10  1  0
 10 11  1  0
 11 12  1  0
 11 13  1  0
 11 14  1  0
 14 15  2  0
 15 16  1  0
 15 17  1  0
 17 18  1  0
 17 19  2  0
 19 20  1  0
 19 21  1  0
 21 22  1  0
 22 23  2  0
 22 24  1  0
 24 25  1  0
 25 26  1  0
 25 27  1  0
 25 28  1  0
 28 29  1  0
 28 30  1  0
 28 31  1  0
 31 32  2  0
 32 33  1  0
 32 34  1  0
 34 35  1  0
 34 36  2  0
 36 37  1  0
 36 38  1  0
 38 39  1  0
 38 40  2  0
 40 41  1  0
 21 42  2  0
 42 43  1  0
  6 44  1  0
 44 45  1  0
 44 46  2  0
 46 47  1  0
 46  2  1  0
 42 14  1  0
 40 31  1  0
M  CHG  3   5  -1  10  -1  24  -1
M  END
>  <UniqueID>  (37) 
36

>  <SMILES>  (37) 
O=C(/N=c1/cccc(Br)[n-]1)[N-]Cc1cccc(C(=O)[N-]CCc2ccccc2)c1

>  <Energy>  (37) 
47.26418637634966

>  <Genealogy>  (37) 
O=C(N=c1cccc(Br)[n-]1)[N-]Cc1cccc(C(=O)[N-]CCc2ccccc2)c1 (protonated)
O=C(/N=c1/cccc(Br)[n-]1)[N-]Cc1cccc(C(=O)[N-]CCc2ccccc2)c1 (cis-trans isomerization)
O=C(/N=c1/cccc(Br)[n-]1)[N-]Cc1cccc(C(=O)[N-]CCc2ccccc2)c1 (3D coordinates assigned)
O=C(/N=c1/cccc(Br)[n-]1)[N-]Cc1cccc(C(=O)[N-]CCc2ccccc2)c1 (optimized conformer: 47.26418637634966 kcal/mol)

>  <smiles>  (37) 
O=C(N=c1cccc(Br)[nH]1)NCc1cccc(C(=O)NCCc2ccccc2)c1

>  <score_type>  (37) 
oracle

>  <origin>  (37) 
adg

>  <m_score__min__energy>  (37) 
-12.41

>  <m_primary>  (37) 
energy

$$$$
37:0
     RDKit          3D

 40 42  0  0  0  0  0  0  0  0999 V2000
   57.0630   31.9270   45.0410 O   0  0  0  0  0  0  0  0  0  0  0  0
   58.1240   31.8380   45.7160 C   0  0  0  0  0  0  0  0  0  0  0  0
   58.6400   30.4980   46.0570 C   0  0  0  0  0  0  0  0  0  0  0  0
   58.9050   30.1660   47.3960 C   0  0  0  0  0  0  0  0  0  0  0  0
   59.4000   28.9020   47.7260 C   0  0  0  0  0  0  0  0  0  0  0  0
   59.6480   27.9580   46.7210 C   0  0  0  0  0  0  0  0  0  0  0  0
   60.2280   26.3530   47.1580 S   0  0  0  0  0  0  0  0  0  0  0  0
   61.1110   26.4690   48.3680 O   0  0  0  0  0  0  0  0  0  0  0  0
   61.0190   25.7440   46.0340 O   0  0  0  0  0  0  0  0  0  0  0  0
   58.8810   25.3270   47.5290 N   0  0  0  0  0  0  0  0  0  0  0  0
   57.7930   25.0390   46.6400 C   0  0  0  0  0  0  0  0  0  0  0  0
   57.8610   24.0120   45.6790 C   0  0  0  0  0  0  0  0  0  0  0  0
   56.7800   23.7740   44.8250 C   0  0  0  0  0  0  0  0  0  0  0  0
   55.6220   24.5510   44.9250 C   0  0  0  0  0  0  0  0  0  0  0  0
   55.5440   25.5660   45.8820 C   0  0  0  0  0  0  0  0  0  0  0  0
   54.3910   26.3340   45.9880 O   0  0  0  0  0  0  0  0  0  0  0  0
   56.6260   25.8090   46.7350 C   0  0  0  0  0  0  0  0  0  0  0  0
   59.4130   28.2950   45.3820 C   0  0  0  0  0  0  0  0  0  0  0  0
   58.9170   29.5580   45.0510 C   0  0  0  0  0  0  0  0  0  0  0  0
   58.8140   33.0360   46.1180 N   0  0  0  0  0  0  0  0  0  0  0  0
   60.2490   33.1080   46.3470 C   0  0  0  0  0  0  0  0  0  0  0  0
   60.5430   34.5680   46.6630 C   0  0  0  0  0  0  0  0  0  0  0  0
   59.3280   35.3550   46.1810 C   0  0  0  0  0  0  0  0  0  0  0  0
   58.1890   34.3480   46.0820 C   0  0  0  0  0  0  0  0  0  0  0  0
   58.7217   30.9056   48.1893 H   0  0  0  0  0  0  0  0  0  0  0  0
   59.5956   28.6472   48.7780 H   0  0  0  0  0  0  0  0  0  0  0  0
   58.7680   23.3947   45.5999 H   0  0  0  0  0  0  0  0  0  0  0  0
   56.8407   22.9737   44.0728 H   0  0  0  0  0  0  0  0  0  0  0  0
   54.7732   24.3634   44.2509 H   0  0  0  0  0  0  0  0  0  0  0  0
   56.5602   26.6103   47.4857 H   0  0  0  0  0  0  0  0  0  0  0  0
   59.6198   27.5622   44.5881 H   0  0  0  0  0  0  0  0  0  0  0  0
   58.7424   29.8179   43.9965 H   0  0  0  0  0  0  0  0  0  0  0  0
   60.5348   32.4672   47.1941 H   0  0  0  0  0  0  0  0  0  0  0  0
   60.8177   32.7594   45.4723 H   0  0  0  0  0  0  0  0  0  0  0  0
   60.6819   34.7044   47.7456 H   0  0  0  0  0  0  0  0  0  0  0  0
   61.4655   34.9092   46.1705 H   0  0  0  0  0  0  0  0  0  0  0  0
   59.0759   36.1479   46.9006 H   0  0  0  0  0  0  0  0  0  0  0  0
   59.5208   35.8422   45.2138 H   0  0  0  0  0  0  0  0  0  0  0  0
   57.4986   34.4665   46.9301 H   0  0  0  0  0  0  0  0  0  0  0  0
   57.6018   34.4909   45.1629 H   0  0  0  0  0  0  0  0  0  0  0  0
  1  2  2  0
  2  3  1  0
  3  4  2  0
  4  5  1  0
  5  6  2  0
  6  7  1  0
  7  8  2  0
  7  9  2  0
  7 10  1  0
 10 11  1  0
 11 12  2  0
 12 13  1  0
 13 14  2  0
 14 15  1  0
 15 16  1  0
 15 17  2  0
  6 18  1  0
 18 19  2  0
  2 20  1  0
 20 21  1  0
 21 22  1  0
 22 23  1  0
 23 24  1  0
 19  3  1  0
 24 20  1  0
 17 11  1  0
  4 25  1  0
  5 26  1  0
 12 27  1  0
 13 28  1  0
 14 29  1  0
 17 30  1  0
 18 31  1  0
 19 32  1  0
 21 33  1  0
 21 34  1  0
 22 35  1  0
 22 36  1  0
 23 37  1  0
 23 38  1  0
 24 39  1  0
 24 40  1  0
M  CHG  2  10  -1  16  -1
M  END
>  <UniqueID>  (38) 
37

>  <SMILES>  (38) 
O=C(c1ccc(S(=O)(=O)[N-]c2cccc([O-])c2)cc1)N1CCCC1

>  <Energy>  (38) 
49.00343279308254

>  <Genealogy>  (38) 
O=C(c1ccc(S(=O)(=O)[N-]c2cccc([O-])c2)cc1)N1CCCC1 (protonated)
O=C(c1ccc(S(=O)(=O)[N-]c2cccc([O-])c2)cc1)N1CCCC1 (3D coordinates assigned)
O=C(c1ccc(S(=O)(=O)[N-]c2cccc([O-])c2)cc1)N1CCCC1 (nonaromatic ring conformer: 49.00343279308254 kcal/mol)

>  <smiles>  (38) 
O=C(c1ccc(S(=O)(=O)Nc2cccc(O)c2)cc1)N1CCCC1

>  <score_type>  (38) 
oracle

>  <origin>  (38) 
adg

>  <m_score__min__energy>  (38) 
-13.07

>  <m_primary>  (38) 
energy

$$$$
38:0
     RDKit          3D

 50 53  0  0  0  0  0  0  0  0999 V2000
   60.2940   29.0550   45.9620 O   0  0  0  0  0  0  0  0  0  0  0  0
   59.3930   30.2530   46.0910 S   0  0  0  0  0  0  0  0  0  0  0  0
   60.2400   31.4930   46.0110 O   0  0  0  0  0  0  0  0  0  0  0  0
   58.5960   30.2080   47.6260 N   0  0  0  0  0  0  0  0  0  0  0  0
   59.2930   30.5400   48.8270 C   0  0  0  0  0  0  0  0  0  0  0  0
   60.2200   29.6440   49.3660 C   0  0  0  0  0  0  0  0  0  0  0  0
   60.9130   29.9780   50.5290 C   0  0  0  0  0  0  0  0  0  0  0  0
   60.6790   31.2150   51.1330 C   0  0  0  0  0  0  0  0  0  0  0  0
   59.7790   32.0820   50.5930 N   0  0  0  0  0  0  0  0  0  0  0  0
   59.0720   31.7690   49.4670 C   0  0  0  0  0  0  0  0  0  0  0  0
   58.1650   32.6740   48.9000 O   0  0  0  0  0  0  0  0  0  0  0  0
   58.3370   33.3490   47.6810 C   0  0  0  0  0  0  0  0  0  0  0  0
   57.5160   33.0770   46.5710 C   0  0  0  0  0  0  0  0  0  0  0  0
   57.7240   33.7390   45.3600 C   0  0  0  0  0  0  0  0  0  0  0  0
   58.7540   34.6730   45.2410 C   0  0  0  0  0  0  0  0  0  0  0  0
   59.5840   34.9420   46.3310 C   0  0  0  0  0  0  0  0  0  0  0  0
   59.3940   34.2730   47.5530 C   0  0  0  0  0  0  0  0  0  0  0  0
   60.2950   34.5810   48.7230 C   0  0  0  0  0  0  0  0  0  0  0  0
   61.6200   33.8850   48.5620 C   0  0  0  0  0  0  0  0  0  0  0  0
   62.0120   33.3920   47.3050 C   0  0  0  0  0  0  0  0  0  0  0  0
   63.2600   32.7820   47.1460 C   0  0  0  0  0  0  0  0  0  0  0  0
   64.1280   32.6650   48.2360 C   0  0  0  0  0  0  0  0  0  0  0  0
   63.7470   33.1540   49.4880 C   0  0  0  0  0  0  0  0  0  0  0  0
   62.4980   33.7620   49.6530 C   0  0  0  0  0  0  0  0  0  0  0  0
   58.2040   30.2770   44.7920 C   0  0  0  0  0  0  0  0  0  0  0  0
   58.3540   31.1790   43.7300 C   0  0  0  0  0  0  0  0  0  0  0  0
   57.4020   31.2220   42.7050 C   0  0  0  0  0  0  0  0  0  0  0  0
   56.3000   30.3630   42.7380 C   0  0  0  0  0  0  0  0  0  0  0  0
   56.1470   29.4600   43.7950 C   0  0  0  0  0  0  0  0  0  0  0  0
   57.0940   29.4180   44.8230 C   0  0  0  0  0  0  0  0  0  0  0  0
   60.4026   28.6773   48.8739 H   0  0  0  0  0  0  0  0  0  0  0  0
   61.6366   29.2742   50.9661 H   0  0  0  0  0  0  0  0  0  0  0  0
   61.2237   31.4899   52.0483 H   0  0  0  0  0  0  0  0  0  0  0  0
   59.6640   33.0170   51.0440 H   0  0  0  0  0  0  0  0  0  0  0  0
   56.7056   32.3383   46.6582 H   0  0  0  0  0  0  0  0  0  0  0  0
   57.0751   33.5242   44.4981 H   0  0  0  0  0  0  0  0  0  0  0  0
   58.9122   35.1979   44.2873 H   0  0  0  0  0  0  0  0  0  0  0  0
   60.3918   35.6822   46.2331 H   0  0  0  0  0  0  0  0  0  0  0  0
   60.4603   35.6672   48.7772 H   0  0  0  0  0  0  0  0  0  0  0  0
   59.8149   34.2254   49.6466 H   0  0  0  0  0  0  0  0  0  0  0  0
   61.3345   33.4865   46.4436 H   0  0  0  0  0  0  0  0  0  0  0  0
   63.5596   32.3934   46.1615 H   0  0  0  0  0  0  0  0  0  0  0  0
   65.1108   32.1879   48.1077 H   0  0  0  0  0  0  0  0  0  0  0  0
   64.4301   33.0608   50.3452 H   0  0  0  0  0  0  0  0  0  0  0  0
   62.2016   34.1454   50.6405 H   0  0  0  0  0  0  0  0  0  0  0  0
   59.2217   31.8545   43.7020 H   0  0  0  0  0  0  0  0  0  0  0  0
   57.5211   31.9320   41.8733 H   0  0  0  0  0  0  0  0  0  0  0  0
   55.5523   30.3972   41.9319 H   0  0  0  0  0  0  0  0  0  0  0  0
   55.2809   28.7822   43.8177 H   0  0  0  0  0  0  0  0  0  0  0  0
   56.9691   28.7113   45.6567 H   0  0  0  0  0  0  0  0  0  0  0  0
  1  2  2  0
  2  3  2  0
  2  4  1  0
  4  5  1  0
  5  6  2  0
  6  7  1  0
  7  8  2  0
  8  9  1  0
  9 10  2  0
 10 11  1  0
 11 12  1  0
 12 13  2  0
 13 14  1  0
 14 15  2  0
 15 16  1  0
 16 17  2  0
 17 18  1  0
 18 19  1  0
 19 20  2  0
 20 21  1  0
 21 22  2  0
 22 23  1  0
 23 24  2  0
  2 25  1  0
 25 26  2  0
 26 27  1  0
 27 28  2  0
 28 29  1  0
 29 30  2  0
 10  5  1  0
 17 12  1  0
 24 19  1  0
 30 25  1  0
  6 31  1  0
  7 32  1  0
  8 33  1  0
  9 34  1  0
 13 35  1  0
 14 36  1  0
 15 37  1  0
 16 38  1  0
 18 39  1  0
 18 40  1  0
 20 41  1  0
 21 42  1  0
 22 43  1  0
 23 44  1  0
 24 45  1  0
 26 46  1  0
 27 47  1  0
 28 48  1  0
 29 49  1  0
 30 50  1  0
M  CHG  2   4  -1   9   1
M  END
>  <UniqueID>  (39) 
38

>  <SMILES>  (39) 
O=S(=O)([N-]c1ccc[nH+]c1Oc1ccccc1Cc1ccccc1)c1ccccc1

>  <Energy>  (39) 
63.42852268246382

>  <Genealogy>  (39) 
O=S(=O)([N-]c1ccc[nH+]c1Oc1ccccc1Cc1ccccc1)c1ccccc1 (protonated)
O=S(=O)([N-]c1ccc[nH+]c1Oc1ccccc1Cc1ccccc1)c1ccccc1 (3D coordinates assigned)
O=S(=O)([N-]c1ccc[nH+]c1Oc1ccccc1Cc1ccccc1)c1ccccc1 (optimized conformer: 63.42852268246382 kcal/mol)

>  <smiles>  (39) 
O=S(=O)(Nc1cccnc1Oc1ccccc1Cc1ccccc1)c1ccccc1

>  <score_type>  (39) 
oracle

>  <origin>  (39) 
adg

>  <m_score__min__energy>  (39) 
-10.08

>  <m_primary>  (39) 
energy

$$$$
39:0
     RDKit          3D

 36 38  0  0  0  0  0  0  0  0999 V2000
   58.9350   27.6850   54.0470 H   0  0  0  0  0  0  0  0  0  0  0  0
   58.2350   27.9340   53.3590 O   0  0  0  0  0  0  0  0  0  0  0  0
   58.3720   29.0160   52.4880 C   0  0  0  0  0  0  0  0  0  0  0  0
   59.4110   29.0130   51.6180 N   0  0  0  0  0  0  0  0  0  0  0  0
   59.6030   30.0150   50.7260 C   0  0  0  0  0  0  0  0  0  0  0  0
   60.5770   29.9440   49.9280 O   0  0  0  0  0  0  0  0  0  0  0  0
   58.7430   31.0790   50.6880 N   0  0  0  0  0  0  0  0  0  0  0  0
   58.9570   32.1470   49.7410 C   0  0  0  0  0  0  0  0  0  0  0  0
   59.6150   33.3240   50.1360 C   0  0  0  0  0  0  0  0  0  0  0  0
   59.9673   33.4326   51.1724 H   0  0  0  0  0  0  0  0  0  0  0  0
   59.8240   34.3570   49.2190 C   0  0  0  0  0  0  0  0  0  0  0  0
   60.3389   35.2764   49.5346 H   0  0  0  0  0  0  0  0  0  0  0  0
   59.3790   34.2230   47.9000 C   0  0  0  0  0  0  0  0  0  0  0  0
   59.5444   35.0365   47.1783 H   0  0  0  0  0  0  0  0  0  0  0  0
   58.7240   33.0550   47.4990 C   0  0  0  0  0  0  0  0  0  0  0  0
   58.3739   32.9504   46.4615 H   0  0  0  0  0  0  0  0  0  0  0  0
   58.5130   32.0190   48.4150 C   0  0  0  0  0  0  0  0  0  0  0  0
   57.9977   31.1012   48.0955 H   0  0  0  0  0  0  0  0  0  0  0  0
   57.6840   31.1350   51.5580 C   0  0  0  0  0  0  0  0  0  0  0  0
   56.9260   32.1460   51.5640 O   0  0  0  0  0  0  0  0  0  0  0  0
   57.4600   30.0870   52.4750 C   0  0  0  0  0  0  0  0  0  0  0  0
   56.3370   30.1310   53.4420 C   0  0  0  0  0  0  0  0  0  0  0  0
   56.4948   30.6073   54.4209 H   0  0  0  0  0  0  0  0  0  0  0  0
   55.1350   29.6080   53.1600 C   0  0  0  0  0  0  0  0  0  0  0  0
   55.0072   28.5202   53.2616 H   0  0  0  0  0  0  0  0  0  0  0  0
   53.9670   30.4100   52.7190 C   0  0  0  0  0  0  0  0  0  0  0  0
   52.9520   30.6870   53.6510 C   0  0  0  0  0  0  0  0  0  0  0  0
   53.0358   30.3031   54.6784 H   0  0  0  0  0  0  0  0  0  0  0  0
   51.8370   31.4460   53.2840 C   0  0  0  0  0  0  0  0  0  0  0  0
   51.0451   31.6499   54.0197 H   0  0  0  0  0  0  0  0  0  0  0  0
   51.7270   31.9460   51.9840 C   0  0  0  0  0  0  0  0  0  0  0  0
   50.6170   32.7000   51.6200 O   0  0  0  0  0  0  0  0  0  0  0  0
   52.7350   31.6910   51.0520 C   0  0  0  0  0  0  0  0  0  0  0  0
   52.6498   32.0888   50.0300 H   0  0  0  0  0  0  0  0  0  0  0  0
   53.8520   30.9320   51.4130 C   0  0  0  0  0  0  0  0  0  0  0  0
   54.6453   30.7407   50.6754 H   0  0  0  0  0  0  0  0  0  0  0  0
  1  2  1  0
  2  3  1  0
  3  4  1  0
  4  5  1  0
  5  6  2  0
  5  7  1  0
  7  8  1  0
  8  9  2  0
  9 10  1  0
  9 11  1  0
 11 12  1  0
 11 13  2  0
 13 14  1  0
 13 15  1  0
 15 16  1  0
 15 17  2  0
 17 18  1  0
  7 19  1  0
 19 20  2  0
 19 21  1  0
 21 22  1  0
 22 23  1  0
 22 24  2  0
 24 25  1  0
 24 26  1  0
 26 27  2  0
 27 28  1  0
 27 29  1  0
 29 30  1  0
 29 31  2  0
 31 32  1  0
 31 33  1  0
 33 34  1  0
 33 35  2  0
 35 36  1  0
 21  3  2  0
 35 26  1  0
 17  8  1  0
M  CHG  2   4  -1  32  -1
M  END
>  <UniqueID>  (40) 
39

>  <SMILES>  (40) 
O=c1[n-]c(O)c(/C=C/c2ccc([O-])cc2)c(=O)n1-c1ccccc1

>  <Energy>  (40) 
59.093869169997916

>  <Genealogy>  (40) 
O=c1[n-]c(O)c(C=Cc2ccc([O-])cc2)c(=O)n1-c1ccccc1 (protonated)
O=c1[n-]c(O)c(/C=C/c2ccc([O-])cc2)c(=O)n1-c1ccccc1 (cis-trans isomerization)
O=c1[n-]c(O)c(/C=C/c2ccc([O-])cc2)c(=O)n1-c1ccccc1 (3D coordinates assigned)
O=c1[n-]c(O)c(/C=C/c2ccc([O-])cc2)c(=O)n1-c1ccccc1 (optimized conformer: 59.093869169997916 kcal/mol)

>  <smiles>  (40) 
O=c1[nH]c(O)c(C=Cc2ccc(O)cc2)c(=O)n1-c1ccccc1

>  <score_type>  (40) 
oracle

>  <origin>  (40) 
adg

>  <m_score__min__energy>  (40) 
-11.68

>  <m_primary>  (40) 
energy

$$$$
40:0
     RDKit          3D

 55 58  0  0  0  0  0  0  0  0999 V2000
   55.5730   24.4260   45.1840 C   0  0  0  0  0  0  0  0  0  0  0  0
   55.3900   25.5370   46.0530 O   0  0  0  0  0  0  0  0  0  0  0  0
   56.2450   26.6430   46.0570 C   0  0  0  0  0  0  0  0  0  0  0  0
   57.4730   26.5580   46.7120 C   0  0  0  0  0  0  0  0  0  0  0  0
   58.3250   27.6720   46.6940 C   0  0  0  0  0  0  0  0  0  0  0  0
   59.5670   27.6670   47.3420 O   0  0  0  0  0  0  0  0  0  0  0  0
   60.2850   28.8060   47.7360 C   0  0  0  0  0  0  0  0  0  0  0  0
   60.7820   29.6630   46.7480 C   0  0  0  0  0  0  0  0  0  0  0  0
   61.5130   30.8010   47.1000 C   0  0  0  0  0  0  0  0  0  0  0  0
   61.7580   31.1010   48.4490 C   0  0  0  0  0  0  0  0  0  0  0  0
   62.5350   32.2640   48.7820 N   0  0  0  0  0  0  0  0  0  0  0  0
   63.6800   32.2410   49.6520 C   0  0  0  0  0  0  0  0  0  0  0  0
   63.8460   31.2900   50.4610 O   0  0  0  0  0  0  0  0  0  0  0  0
   64.6030   33.3350   49.6710 N   0  0  0  0  0  0  0  0  0  0  0  0
   65.7430   33.4270   50.5350 C   0  0  0  0  0  0  0  0  0  0  0  0
   66.9540   32.8680   50.1090 C   0  0  0  0  0  0  0  0  0  0  0  0
   68.0890   32.9330   50.9210 C   0  0  0  0  0  0  0  0  0  0  0  0
   68.0250   33.5730   52.1610 C   0  0  0  0  0  0  0  0  0  0  0  0
   66.8310   34.1640   52.5820 C   0  0  0  0  0  0  0  0  0  0  0  0
   65.6890   34.1040   51.7740 C   0  0  0  0  0  0  0  0  0  0  0  0
   64.2470   34.9620   52.3050 Cl  0  0  0  0  0  0  0  0  0  0  0  0
   61.2950   30.2180   49.4400 C   0  0  0  0  0  0  0  0  0  0  0  0
   60.5640   29.0800   49.0860 C   0  0  0  0  0  0  0  0  0  0  0  0
   57.9180   28.8080   46.0700 N   0  0  0  0  0  0  0  0  0  0  0  0
   56.7110   28.8840   45.4440 C   0  0  0  0  0  0  0  0  0  0  0  0
   56.3400   29.9650   44.8190 N   0  0  0  0  0  0  0  0  0  0  0  0
   57.1320   31.1420   44.5850 C   0  0  0  0  0  0  0  0  0  0  0  0
   57.3650   31.6380   43.2880 C   0  0  0  0  0  0  0  0  0  0  0  0
   58.1660   32.7680   43.1010 C   0  0  0  0  0  0  0  0  0  0  0  0
   58.7580   33.3980   44.1980 C   0  0  0  0  0  0  0  0  0  0  0  0
   58.5670   32.8890   45.4880 C   0  0  0  0  0  0  0  0  0  0  0  0
   59.3160   33.6800   46.8710 S   0  0  0  0  0  0  0  0  0  0  0  0
   58.9190   35.3610   46.8600 N   0  0  0  0  0  0  0  0  0  0  0  0
   58.8190   33.0580   48.1450 O   0  0  0  0  0  0  0  0  0  0  0  0
   60.8090   33.5160   46.8050 O   0  0  0  0  0  0  0  0  0  0  0  0
   57.7570   31.7590   45.6750 C   0  0  0  0  0  0  0  0  0  0  0  0
   55.8930   27.8000   45.4320 N   0  0  0  0  0  0  0  0  0  0  0  0
   55.7232   23.5144   45.7810 H   0  0  0  0  0  0  0  0  0  0  0  0
   54.6825   24.3062   44.5495 H   0  0  0  0  0  0  0  0  0  0  0  0
   56.4549   24.5982   44.5495 H   0  0  0  0  0  0  0  0  0  0  0  0
   57.7679   25.6351   47.2328 H   0  0  0  0  0  0  0  0  0  0  0  0
   60.5962   29.4396   45.6871 H   0  0  0  0  0  0  0  0  0  0  0  0
   61.8992   31.4665   46.3139 H   0  0  0  0  0  0  0  0  0  0  0  0
   62.2090   33.1910   48.4290 H   0  0  0  0  0  0  0  0  0  0  0  0
   67.0122   32.3741   49.1279 H   0  0  0  0  0  0  0  0  0  0  0  0
   69.0331   32.4802   50.5839 H   0  0  0  0  0  0  0  0  0  0  0  0
   68.9150   33.6117   52.8063 H   0  0  0  0  0  0  0  0  0  0  0  0
   66.7879   34.6790   53.5530 H   0  0  0  0  0  0  0  0  0  0  0  0
   61.5089   30.4234   50.4993 H   0  0  0  0  0  0  0  0  0  0  0  0
   60.2052   28.3952   49.8685 H   0  0  0  0  0  0  0  0  0  0  0  0
   56.9153   31.1347   42.4194 H   0  0  0  0  0  0  0  0  0  0  0  0
   58.3306   33.1622   42.0873 H   0  0  0  0  0  0  0  0  0  0  0  0
   59.3755   34.2959   44.0480 H   0  0  0  0  0  0  0  0  0  0  0  0
   58.8570   35.6660   47.8570 H   0  0  0  0  0  0  0  0  0  0  0  0
   57.6117   31.3541   46.6874 H   0  0  0  0  0  0  0  0  0  0  0  0
  1  2  1  0
  2  3  1  0
  3  4  2  0
  4  5  1  0
  5  6  1  0
  6  7  1  0
  7  8  2  0
  8  9  1  0
  9 10  2  0
 10 11  1  0
 11 12  1  0
 12 13  2  0
 12 14  1  0
 14 15  1  0
 15 16  2  0
 16 17  1  0
 17 18  2  0
 18 19  1  0
 19 20  2  0
 20 21  1  0
 10 22  1  0
 22 23  2  0
  5 24  2  0
 24 25  1  0
 25 26  2  3
 26 27  1  0
 27 28  2  0
 28 29  1  0
 29 30  2  0
 30 31  1  0
 31 32  1  0
 32 33  1  0
 32 34  2  0
 32 35  2  0
 31 36  2  0
 25 37  1  0
 37  3  1  0
 23  7  1  0
 36 27  1  0
 20 15  1  0
  1 38  1  0
  1 39  1  0
  1 40  1  0
  4 41  1  0
  8 42  1  0
  9 43  1  0
 11 44  1  0
 16 45  1  0
 17 46  1  0
 18 47  1  0
 19 48  1  0
 22 49  1  0
 23 50  1  0
 28 51  1  0
 29 52  1  0
 30 53  1  0
 33 54  1  0
 36 55  1  0
M  CHG  3  14  -1  33  -1  37  -1
M  END
>  <UniqueID>  (41) 
40

>  <SMILES>  (41) 
COc1cc(Oc2ccc(NC(=O)[N-]c3ccccc3Cl)cc2)nc(=Nc2cccc(S([NH-])(=O)=O)c2)[n-]1

>  <Energy>  (41) 
80.66592951556039

>  <Genealogy>  (41) 
COc1cc(Oc2ccc(NC(=O)[N-]c3ccccc3Cl)cc2)nc(=Nc2cccc(S([NH-])(=O)=O)c2)[n-]1 (protonated)
COc1cc(Oc2ccc(NC(=O)[N-]c3ccccc3Cl)cc2)nc(=Nc2cccc(S([NH-])(=O)=O)c2)[n-]1 (3D coordinates assigned)
COc1cc(Oc2ccc(NC(=O)[N-]c3ccccc3Cl)cc2)nc(=Nc2cccc(S([NH-])(=O)=O)c2)[n-]1 (optimized conformer: 80.66592951556039 kcal/mol)

>  <smiles>  (41) 
COc1cc(Oc2ccc(NC(=O)Nc3ccccc3Cl)cc2)nc(=Nc2cccc(S(N)(=O)=O)c2)[nH]1

>  <score_type>  (41) 
oracle

>  <origin>  (41) 
adg

>  <m_score__min__energy>  (41) 
-14.58

>  <m_primary>  (41) 
energy

$$$$
41:0
     RDKit          3D

 57 61  0  0  0  0  0  0  0  0999 V2000
   56.4860   28.2780   45.2800 O   0  0  0  0  0  0  0  0  0  0  0  0
   57.5790   28.5130   45.8310 C   0  0  0  0  0  0  0  0  0  0  0  0
   58.4280   27.3710   46.0000 N   0  0  0  0  0  0  0  0  0  0  0  0
   57.9860   26.0980   45.5460 C   0  0  0  0  0  0  0  0  0  0  0  0
   57.7940   25.9780   44.1690 C   0  0  0  0  0  0  0  0  0  0  0  0
   57.3670   24.7930   43.6050 C   0  0  0  0  0  0  0  0  0  0  0  0
   57.1300   23.7190   44.4410 C   0  0  0  0  0  0  0  0  0  0  0  0
   56.5880   22.2230   43.7050 S   0  0  0  0  0  0  0  0  0  0  0  0
   57.7910   21.3620   43.4380 O   0  0  0  0  0  0  0  0  0  0  0  0
   55.8380   22.5580   42.4690 O   0  0  0  0  0  0  0  0  0  0  0  0
   55.5950   21.3660   44.8310 N   0  0  0  0  0  0  0  0  0  0  0  0
   56.1830   20.8440   45.8580 C   0  0  0  0  0  0  0  0  0  0  0  0
   55.8250   21.2200   47.0950 N   0  0  0  0  0  0  0  0  0  0  0  0
   56.4100   20.7020   48.1880 C   0  0  0  0  0  0  0  0  0  0  0  0
   57.4040   19.7590   47.9790 C   0  0  0  0  0  0  0  0  0  0  0  0
   57.7690   19.3760   46.6960 C   0  0  0  0  0  0  0  0  0  0  0  0
   57.1540   19.9220   45.6350 N   0  0  0  0  0  0  0  0  0  0  0  0
   57.3190   23.8300   45.8190 C   0  0  0  0  0  0  0  0  0  0  0  0
   57.7520   25.0310   46.3860 C   0  0  0  0  0  0  0  0  0  0  0  0
   58.0820   29.7750   46.3110 C   0  0  0  0  0  0  0  0  0  0  0  0
   58.6820   29.8560   47.5440 N   0  0  0  0  0  0  0  0  0  0  0  0
   59.1610   30.9570   48.0490 N   0  0  0  0  0  0  0  0  0  0  0  0
   59.7710   30.8700   49.3790 C   0  0  0  0  0  0  0  0  0  0  0  0
   58.9530   31.5460   50.4160 C   0  0  0  0  0  0  0  0  0  0  0  0
   59.2760   32.7740   50.9520 C   0  0  0  0  0  0  0  0  0  0  0  0
   58.5190   33.4070   51.9160 C   0  0  0  0  0  0  0  0  0  0  0  0
   57.3640   32.7820   52.3810 C   0  0  0  0  0  0  0  0  0  0  0  0
   57.0170   31.5510   51.8600 C   0  0  0  0  0  0  0  0  0  0  0  0
   57.7910   30.9320   50.8930 C   0  0  0  0  0  0  0  0  0  0  0  0
   59.1250   32.1460   47.4220 C   0  0  0  0  0  0  0  0  0  0  0  0
   59.5810   33.1920   47.9030 O   0  0  0  0  0  0  0  0  0  0  0  0
   58.5330   32.1530   46.1660 C   0  0  0  0  0  0  0  0  0  0  0  0
   58.4850   33.3520   45.5070 C   0  0  0  0  0  0  0  0  0  0  0  0
   57.9070   33.4160   44.2560 C   0  0  0  0  0  0  0  0  0  0  0  0
   57.4070   32.2370   43.7430 C   0  0  0  0  0  0  0  0  0  0  0  0
   57.4560   31.0390   44.4010 C   0  0  0  0  0  0  0  0  0  0  0  0
   58.0220   30.9700   45.6320 C   0  0  0  0  0  0  0  0  0  0  0  0
   59.3530   27.4740   46.4480 H   0  0  0  0  0  0  0  0  0  0  0  0
   57.9868   26.8451   43.5202 H   0  0  0  0  0  0  0  0  0  0  0  0
   57.2193   24.7059   42.5184 H   0  0  0  0  0  0  0  0  0  0  0  0
   56.1140   21.0118   49.2011 H   0  0  0  0  0  0  0  0  0  0  0  0
   57.9117   19.3070   48.8438 H   0  0  0  0  0  0  0  0  0  0  0  0
   58.5606   18.6266   46.5488 H   0  0  0  0  0  0  0  0  0  0  0  0
   57.4480   19.6160   44.6940 H   0  0  0  0  0  0  0  0  0  0  0  0
   57.1248   22.9620   46.4662 H   0  0  0  0  0  0  0  0  0  0  0  0
   57.9019   25.1224   47.4719 H   0  0  0  0  0  0  0  0  0  0  0  0
   59.8805   29.8095   49.6498 H   0  0  0  0  0  0  0  0  0  0  0  0
   60.7472   31.3752   49.3365 H   0  0  0  0  0  0  0  0  0  0  0  0
   60.1860   33.2761   50.5919 H   0  0  0  0  0  0  0  0  0  0  0  0
   58.8220   34.3880   52.3106 H   0  0  0  0  0  0  0  0  0  0  0  0
   56.7394   33.2606   53.1496 H   0  0  0  0  0  0  0  0  0  0  0  0
   56.1059   31.0514   52.2211 H   0  0  0  0  0  0  0  0  0  0  0  0
   57.4897   29.9508   50.4975 H   0  0  0  0  0  0  0  0  0  0  0  0
   58.9039   34.2570   45.9712 H   0  0  0  0  0  0  0  0  0  0  0  0
   57.8477   34.3605   43.6952 H   0  0  0  0  0  0  0  0  0  0  0  0
   56.9417   32.2619   42.7465 H   0  0  0  0  0  0  0  0  0  0  0  0
   57.0381   30.1350   43.9339 H   0  0  0  0  0  0  0  0  0  0  0  0
  1  2  2  0
  2  3  1  0
  3  4  1  0
  4  5  2  0
  5  6  1  0
  6  7  2  0
  7  8  1  0
  8  9  2  0
  8 10  2  0
  8 11  1  0
 11 12  2  3
 12 13  1  0
 13 14  2  0
 14 15  1  0
 15 16  2  0
 16 17  1  0
  7 18  1  0
 18 19  2  0
  2 20  1  0
 20 21  2  0
 21 22  1  0
 22 23  1  0
 23 24  1  0
 24 25  2  0
 25 26  1  0
 26 27  2  0
 27 28  1  0
 28 29  2  0
 22 30  1  0
 30 31  2  0
 30 32  1  0
 32 33  2  0
 33 34  1  0
 34 35  2  0
 35 36  1  0
 36 37  2  0
 19  4  1  0
 37 20  1  0
 17 12  1  0
 29 24  1  0
 37 32  1  0
  3 38  1  0
  5 39  1  0
  6 40  1  0
 14 41  1  0
 15 42  1  0
 16 43  1  0
 17 44  1  0
 18 45  1  0
 19 46  1  0
 23 47  1  0
 23 48  1  0
 25 49  1  0
 26 50  1  0
 27 51  1  0
 28 52  1  0
 29 53  1  0
 33 54  1  0
 34 55  1  0
 35 56  1  0
 36 57  1  0
M  END
>  <smiles>  (42) 
O=C(Nc1ccc(S(=O)(=O)N=c2nccc[nH]2)cc1)c1nn(Cc2ccccc2)c(=O)c2ccccc12

>  <score_type>  (42) 
oracle

>  <origin>  (42) 
adg

>  <m_score__min__energy>  (42) 
-9.75

>  <m_primary>  (42) 
energy

$$$$
42:0
     RDKit          3D

 45 47  0  0  0  0  0  0  0  0999 V2000
   58.9900   27.4090   46.6520 O   0  0  0  0  0  0  0  0  0  0  0  0
   57.8830   27.0920   46.1410 C   0  0  0  0  0  0  0  0  0  0  0  0
   57.3460   25.7870   46.4070 N   0  0  0  0  0  0  0  0  0  0  0  0
   55.9700   25.4230   46.2240 C   0  0  0  0  0  0  0  0  0  0  0  0
   55.1010   26.3060   45.9810 O   0  0  0  0  0  0  0  0  0  0  0  0
   55.5880   24.0430   46.3250 N   0  0  0  0  0  0  0  0  0  0  0  0
   54.2240   23.5900   46.2560 C   0  0  0  0  0  0  0  0  0  0  0  0
   53.3600   24.0960   45.2670 C   0  0  0  0  0  0  0  0  0  0  0  0
   52.0210   23.6990   45.2260 C   0  0  0  0  0  0  0  0  0  0  0  0
   51.5280   22.8020   46.1760 C   0  0  0  0  0  0  0  0  0  0  0  0
   52.3730   22.2990   47.1670 C   0  0  0  0  0  0  0  0  0  0  0  0
   53.7190   22.6830   47.2140 C   0  0  0  0  0  0  0  0  0  0  0  0
   54.5290   22.1340   48.2100 O   0  0  0  0  0  0  0  0  0  0  0  0
   57.2240   27.9950   45.2390 N   0  0  0  0  0  0  0  0  0  0  0  0
   57.4520   29.4170   45.2160 C   0  0  0  0  0  0  0  0  0  0  0  0
   58.0600   30.0350   46.3200 C   0  0  0  0  0  0  0  0  0  0  0  0
   58.3030   31.4120   46.3170 C   0  0  0  0  0  0  0  0  0  0  0  0
   57.9530   32.1880   45.2040 C   0  0  0  0  0  0  0  0  0  0  0  0
   58.2580   33.9220   45.1990 S   0  0  0  0  0  0  0  0  0  0  0  0
   56.9990   34.6750   44.8690 O   0  0  0  0  0  0  0  0  0  0  0  0
   59.3010   34.2310   44.1630 O   0  0  0  0  0  0  0  0  0  0  0  0
   58.8330   34.4350   46.7540 N   0  0  0  0  0  0  0  0  0  0  0  0
   60.0390   34.2210   47.1840 C   0  0  0  0  0  0  0  0  0  0  0  0
   60.3170   34.3990   48.5030 N   0  0  0  0  0  0  0  0  0  0  0  0
   61.5690   34.1940   48.9890 C   0  0  0  0  0  0  0  0  0  0  0  0
   62.5910   33.7920   48.1300 C   0  0  0  0  0  0  0  0  0  0  0  0
   62.2930   33.6140   46.7790 C   0  0  0  0  0  0  0  0  0  0  0  0
   61.0290   33.8310   46.3320 N   0  0  0  0  0  0  0  0  0  0  0  0
   57.3590   31.5750   44.0940 C   0  0  0  0  0  0  0  0  0  0  0  0
   57.1200   30.1970   44.0930 C   0  0  0  0  0  0  0  0  0  0  0  0
   57.9910   25.0720   46.8140 H   0  0  0  0  0  0  0  0  0  0  0  0
   56.3470   23.3320   46.4120 H   0  0  0  0  0  0  0  0  0  0  0  0
   53.7415   24.8089   44.5212 H   0  0  0  0  0  0  0  0  0  0  0  0
   51.3546   24.0934   44.4447 H   0  0  0  0  0  0  0  0  0  0  0  0
   50.4732   22.4916   46.1435 H   0  0  0  0  0  0  0  0  0  0  0  0
   51.9789   21.5963   47.9160 H   0  0  0  0  0  0  0  0  0  0  0  0
   54.2390   22.0620   49.1790 H   0  0  0  0  0  0  0  0  0  0  0  0
   56.6410   27.5810   44.4760 H   0  0  0  0  0  0  0  0  0  0  0  0
   58.3474   29.4317   47.1938 H   0  0  0  0  0  0  0  0  0  0  0  0
   58.7706   31.8878   47.1916 H   0  0  0  0  0  0  0  0  0  0  0  0
   61.7761   34.3450   50.0587 H   0  0  0  0  0  0  0  0  0  0  0  0
   63.6091   33.6192   48.5090 H   0  0  0  0  0  0  0  0  0  0  0  0
   63.0795   33.2988   46.0776 H   0  0  0  0  0  0  0  0  0  0  0  0
   57.0791   32.1799   43.2189 H   0  0  0  0  0  0  0  0  0  0  0  0
   56.6701   29.7204   43.2096 H   0  0  0  0  0  0  0  0  0  0  0  0
  1  2  2  0
  2  3  1  0
  3  4  1  0
  4  5  2  0
  4  6  1  0
  6  7  1  0
  7  8  2  0
  8  9  1  0
  9 10  2  0
 10 11  1  0
 11 12  2  0
 12 13  1  0
  2 14  1  0
 14 15  1  0
 15 16  2  0
 16 17  1  0
 17 18  2  0
 18 19  1  0
 19 20  2  0
 19 21  2  0
 19 22  1  0
 22 23  2  3
 23 24  1  0
 24 25  2  0
 25 26  1  0
 26 27  2  0
 27 28  1  0
 18 29  1  0
 29 30  2  0
 12  7  1  0
 30 15  1  0
 28 23  1  0
  3 31  1  0
  6 32  1  0
  8 33  1  0
  9 34  1  0
 10 35  1  0
 11 36  1  0
 13 37  1  0
 14 38  1  0
 16 39  1  0
 17 40  1  0
 25 41  1  0
 26 42  1  0
 27 43  1  0
 29 44  1  0
 30 45  1  0
M  CHG  1  28  -1
M  END
>  <UniqueID>  (43) 
41

>  <SMILES>  (43) 
O=C(NC(=O)Nc1ccccc1O)Nc1ccc(S(=O)(=O)N=c2nccc[n-]2)cc1

>  <Energy>  (43) 
61.078437499395164

>  <Genealogy>  (43) 
O=C(NC(=O)Nc1ccccc1O)Nc1ccc(S(=O)(=O)N=c2nccc[n-]2)cc1 (protonated)
O=C(NC(=O)Nc1ccccc1O)Nc1ccc(S(=O)(=O)N=c2nccc[n-]2)cc1 (3D coordinates assigned)
O=C(NC(=O)Nc1ccccc1O)Nc1ccc(S(=O)(=O)N=c2nccc[n-]2)cc1 (optimized conformer: 61.078437499395164 kcal/mol)

>  <smiles>  (43) 
O=C(NC(=O)Nc1ccccc1O)Nc1ccc(S(=O)(=O)N=c2nccc[nH]2)cc1

>  <score_type>  (43) 
oracle

>  <origin>  (43) 
adg

>  <m_score__min__energy>  (43) 
-9.4000000000000004

>  <m_primary>  (43) 
energy

$$$$
43:0
     RDKit          3D

 36 38  0  0  0  0  0  0  0  0999 V2000
   57.2970   25.5350   44.0980 O   0  0  0  0  0  0  0  0  0  0  0  0
   57.1820   25.4880   45.3520 C   0  0  0  0  0  0  0  0  0  0  0  0
   56.6180   24.2630   45.9960 C   0  0  0  0  0  0  0  0  0  0  0  0
   55.2230   24.0880   45.5940 N   0  0  0  0  0  0  0  0  0  0  0  0
   54.2430   25.0040   45.6140 C   0  0  0  0  0  0  0  0  0  0  0  0
   54.4110   26.3360   45.9760 O   0  0  0  0  0  0  0  0  0  0  0  0
   53.0580   24.4150   45.2360 C   0  0  0  0  0  0  0  0  0  0  0  0
   53.2810   23.1060   44.9860 N   0  0  0  0  0  0  0  0  0  0  0  0
   54.6020   22.9500   45.2210 C   0  0  0  0  0  0  0  0  0  0  0  0
   55.1910   21.8420   45.1090 O   0  0  0  0  0  0  0  0  0  0  0  0
   57.6830   26.5480   46.1770 N   0  0  0  0  0  0  0  0  0  0  0  0
   57.7700   27.9370   45.8270 C   0  0  0  0  0  0  0  0  0  0  0  0
   58.9390   28.6900   46.0430 C   0  0  0  0  0  0  0  0  0  0  0  0
   58.9880   30.0360   45.6670 C   0  0  0  0  0  0  0  0  0  0  0  0
   57.8810   30.6410   45.0470 C   0  0  0  0  0  0  0  0  0  0  0  0
   57.8870   31.9930   44.6730 O   0  0  0  0  0  0  0  0  0  0  0  0
   58.4080   33.0460   45.4370 C   0  0  0  0  0  0  0  0  0  0  0  0
   58.3820   33.0290   46.8450 C   0  0  0  0  0  0  0  0  0  0  0  0
   58.9290   34.0920   47.5710 C   0  0  0  0  0  0  0  0  0  0  0  0
   59.5140   35.1710   46.9010 C   0  0  0  0  0  0  0  0  0  0  0  0
   59.5600   35.1840   45.5050 C   0  0  0  0  0  0  0  0  0  0  0  0
   59.0150   34.1220   44.7760 C   0  0  0  0  0  0  0  0  0  0  0  0
   56.7220   29.8880   44.8330 C   0  0  0  0  0  0  0  0  0  0  0  0
   56.6720   28.5420   45.2070 C   0  0  0  0  0  0  0  0  0  0  0  0
   57.2011   23.3845   45.6825 H   0  0  0  0  0  0  0  0  0  0  0  0
   56.6693   24.3718   47.0894 H   0  0  0  0  0  0  0  0  0  0  0  0
   52.0878   24.9264   45.1512 H   0  0  0  0  0  0  0  0  0  0  0  0
   59.8168   28.2185   46.5090 H   0  0  0  0  0  0  0  0  0  0  0  0
   59.8976   30.6245   45.8574 H   0  0  0  0  0  0  0  0  0  0  0  0
   57.9303   32.1775   47.3751 H   0  0  0  0  0  0  0  0  0  0  0  0
   58.8990   34.0792   48.6705 H   0  0  0  0  0  0  0  0  0  0  0  0
   59.9379   36.0094   47.4732 H   0  0  0  0  0  0  0  0  0  0  0  0
   60.0253   36.0303   44.9784 H   0  0  0  0  0  0  0  0  0  0  0  0
   59.0632   34.1316   43.6771 H   0  0  0  0  0  0  0  0  0  0  0  0
   55.8435   30.3583   44.3671 H   0  0  0  0  0  0  0  0  0  0  0  0
   55.7626   27.9545   45.0123 H   0  0  0  0  0  0  0  0  0  0  0  0
  1  2  2  0
  2  3  1  0
  3  4  1  0
  4  5  1  0
  5  6  1  0
  5  7  2  0
  7  8  1  0
  8  9  1  0
  9 10  2  0
  2 11  1  0
 11 12  1  0
 12 13  2  0
 13 14  1  0
 14 15  2  0
 15 16  1  0
 16 17  1  0
 17 18  2  0
 18 19  1  0
 19 20  2  0
 20 21  1  0
 21 22  2  0
 15 23  1  0
 23 24  2  0
  9  4  1  0
 24 12  1  0
 22 17  1  0
  3 25  1  0
  3 26  1  0
  7 27  1  0
 13 28  1  0
 14 29  1  0
 18 30  1  0
 19 31  1  0
 20 32  1  0
 21 33  1  0
 22 34  1  0
 23 35  1  0
 24 36  1  0
M  CHG  3   6  -1   8  -1  11  -1
M  END
>  <UniqueID>  (44) 
42

>  <SMILES>  (44) 
O=C(Cn1c([O-])c[n-]c1=O)[N-]c1ccc(Oc2ccccc2)cc1

>  <Energy>  (44) 
78.74440827808193

>  <Genealogy>  (44) 
O=C(Cn1c([O-])c[n-]c1=O)[N-]c1ccc(Oc2ccccc2)cc1 (protonated)
O=C(Cn1c([O-])c[n-]c1=O)[N-]c1ccc(Oc2ccccc2)cc1 (3D coordinates assigned)
O=C(Cn1c([O-])c[n-]c1=O)[N-]c1ccc(Oc2ccccc2)cc1 (optimized conformer: 78.74440827808193 kcal/mol)

>  <smiles>  (44) 
O=C(Cn1c(O)c[nH]c1=O)Nc1ccc(Oc2ccccc2)cc1

>  <score_type>  (44) 
oracle

>  <origin>  (44) 
adg

>  <m_score__min__energy>  (44) 
-14.470000000000001

>  <m_primary>  (44) 
energy

$$$$
44:0
     RDKit          3D

 57 60  0  0  0  0  0  0  0  0999 V2000
   59.5720   34.0720   48.6310 C   0  0  0  0  0  0  0  0  0  0  0  0
   59.1380   33.8740   47.2100 C   0  0  0  0  0  0  0  0  0  0  0  0
   59.5640   34.7610   46.2100 C   0  0  0  0  0  0  0  0  0  0  0  0
   59.1890   34.5530   44.8810 C   0  0  0  0  0  0  0  0  0  0  0  0
   58.3980   33.4540   44.5360 C   0  0  0  0  0  0  0  0  0  0  0  0
   57.9730   32.5470   45.5280 C   0  0  0  0  0  0  0  0  0  0  0  0
   57.1810   31.4240   45.2400 O   0  0  0  0  0  0  0  0  0  0  0  0
   57.1370   30.7350   43.9910 C   0  0  0  0  0  0  0  0  0  0  0  0
   56.5720   29.3270   44.1750 C   0  0  0  0  0  0  0  0  0  0  0  0
   57.8190   28.0700   43.7260 S   0  0  0  0  0  0  0  0  0  0  0  0
   59.0530   28.6580   44.8900 C   0  0  0  0  0  0  0  0  0  0  0  0
   60.1500   29.3420   44.5200 N   0  0  0  0  0  0  0  0  0  0  0  0
   60.8140   29.6340   45.6280 N   0  0  0  0  0  0  0  0  0  0  0  0
   60.1180   29.1120   46.6590 C   0  0  0  0  0  0  0  0  0  0  0  0
   60.5410   29.2900   48.0920 C   0  0  0  0  0  0  0  0  0  0  0  0
   60.6050   30.7110   48.4300 N   0  0  0  0  0  0  0  0  0  0  0  0
   61.7870   31.5250   48.2970 C   0  0  0  0  0  0  0  0  0  0  0  0
   61.9710   32.2800   47.1260 C   0  0  0  0  0  0  0  0  0  0  0  0
   63.1080   33.0770   46.9660 C   0  0  0  0  0  0  0  0  0  0  0  0
   64.0730   33.1310   47.9730 C   0  0  0  0  0  0  0  0  0  0  0  0
   63.9020   32.3870   49.1430 C   0  0  0  0  0  0  0  0  0  0  0  0
   62.7660   31.5890   49.3090 C   0  0  0  0  0  0  0  0  0  0  0  0
   58.9970   28.4880   46.2280 N   0  0  0  0  0  0  0  0  0  0  0  0
   57.9420   27.8150   46.9940 C   0  0  0  0  0  0  0  0  0  0  0  0
   57.6690   26.4440   46.4310 C   0  0  0  0  0  0  0  0  0  0  0  0
   56.3550   26.0490   46.1340 C   0  0  0  0  0  0  0  0  0  0  0  0
   56.1050   24.7900   45.5790 C   0  0  0  0  0  0  0  0  0  0  0  0
   57.1630   23.9150   45.3220 C   0  0  0  0  0  0  0  0  0  0  0  0
   58.4740   24.2960   45.6240 C   0  0  0  0  0  0  0  0  0  0  0  0
   58.7280   25.5530   46.1800 C   0  0  0  0  0  0  0  0  0  0  0  0
   58.3590   32.7610   46.8580 C   0  0  0  0  0  0  0  0  0  0  0  0
   58.7837   33.7124   49.3087 H   0  0  0  0  0  0  0  0  0  0  0  0
   60.4982   33.5073   48.8136 H   0  0  0  0  0  0  0  0  0  0  0  0
   59.7526   35.1416   48.8136 H   0  0  0  0  0  0  0  0  0  0  0  0
   60.1951   35.6226   46.4735 H   0  0  0  0  0  0  0  0  0  0  0  0
   59.5177   35.2572   44.1025 H   0  0  0  0  0  0  0  0  0  0  0  0
   58.1061   33.2961   43.4873 H   0  0  0  0  0  0  0  0  0  0  0  0
   56.4968   31.2933   43.2921 H   0  0  0  0  0  0  0  0  0  0  0  0
   58.1589   30.6584   43.5912 H   0  0  0  0  0  0  0  0  0  0  0  0
   56.2817   29.1886   45.2269 H   0  0  0  0  0  0  0  0  0  0  0  0
   55.6965   29.2078   43.5198 H   0  0  0  0  0  0  0  0  0  0  0  0
   59.8126   28.7931   48.7497 H   0  0  0  0  0  0  0  0  0  0  0  0
   61.5375   28.8447   48.2286 H   0  0  0  0  0  0  0  0  0  0  0  0
   59.7280   31.1580   48.7850 H   0  0  0  0  0  0  0  0  0  0  0  0
   61.2139   32.2434   46.3288 H   0  0  0  0  0  0  0  0  0  0  0  0
   63.2426   33.6628   46.0447 H   0  0  0  0  0  0  0  0  0  0  0  0
   64.9672   33.7587   47.8455 H   0  0  0  0  0  0  0  0  0  0  0  0
   64.6633   32.4291   49.9359 H   0  0  0  0  0  0  0  0  0  0  0  0
   62.6356   31.0082   50.2340 H   0  0  0  0  0  0  0  0  0  0  0  0
   58.2621   27.7181   48.0419 H   0  0  0  0  0  0  0  0  0  0  0  0
   57.0214   28.4137   46.9307 H   0  0  0  0  0  0  0  0  0  0  0  0
   55.5182   26.7330   46.3388 H   0  0  0  0  0  0  0  0  0  0  0  0
   55.0735   24.4883   45.3445 H   0  0  0  0  0  0  0  0  0  0  0  0
   56.9649   22.9264   44.8821 H   0  0  0  0  0  0  0  0  0  0  0  0
   59.3066   23.6056   45.4238 H   0  0  0  0  0  0  0  0  0  0  0  0
   59.7601   25.8465   46.4222 H   0  0  0  0  0  0  0  0  0  0  0  0
   58.0476   32.0479   47.6356 H   0  0  0  0  0  0  0  0  0  0  0  0
  1  2  1  0
  2  3  2  0
  3  4  1  0
  4  5  2  0
  5  6  1  0
  6  7  1  0
  7  8  1  0
  8  9  1  0
  9 10  1  0
 10 11  1  0
 11 12  2  0
 12 13  1  0
 13 14  2  0
 14 15  1  0
 15 16  1  0
 16 17  1  0
 17 18  2  0
 18 19  1  0
 19 20  2  0
 20 21  1  0
 21 22  2  0
 14 23  1  0
 23 24  1  0
 24 25  1  0
 25 26  2  0
 26 27  1  0
 27 28  2  0
 28 29  1  0
 29 30  2  0
  6 31  2  0
 31  2  1  0
 23 11  1  0
 30 25  1  0
 22 17  1  0
  1 32  1  0
  1 33  1  0
  1 34  1  0
  3 35  1  0
  4 36  1  0
  5 37  1  0
  8 38  1  0
  8 39  1  0
  9 40  1  0
  9 41  1  0
 15 42  1  0
 15 43  1  0
 16 44  1  0
 18 45  1  0
 19 46  1  0
 20 47  1  0
 21 48  1  0
 22 49  1  0
 24 50  1  0
 24 51  1  0
 26 52  1  0
 27 53  1  0
 28 54  1  0
 29 55  1  0
 30 56  1  0
 31 57  1  0
M  END
>  <UniqueID>  (45) 
43

>  <SMILES>  (45) 
Cc1cccc(OCCSc2nnc(CNc3ccccc3)n2Cc2ccccc2)c1

>  <Energy>  (45) 
87.23464591340053

>  <Genealogy>  (45) 
Cc1cccc(OCCSc2nnc(CNc3ccccc3)n2Cc2ccccc2)c1 (3D coordinates assigned)
Cc1cccc(OCCSc2nnc(CNc3ccccc3)n2Cc2ccccc2)c1 (optimized conformer: 87.23464591340053 kcal/mol)

>  <smiles>  (45) 
Cc1cccc(OCCSc2nnc(CNc3ccccc3)n2Cc2ccccc2)c1

>  <score_type>  (45) 
oracle

>  <origin>  (45) 
adg

>  <m_score__min__energy>  (45) 
-9.4800000000000004

>  <m_primary>  (45) 
energy

$$$$
45:0
     RDKit          3D

 28 29  0  0  0  0  0  0  0  0999 V2000
   55.4970   29.8950   44.8850 O   0  0  0  0  0  0  0  0  0  0  0  0
   56.5130   29.2660   44.5020 C   0  0  0  0  0  0  0  0  0  0  0  0
   57.3320   29.6530   43.4170 N   0  0  0  0  0  0  0  0  0  0  0  0
   57.0140   30.8370   42.6810 C   0  0  0  0  0  0  0  0  0  0  0  0
   57.9900   31.9770   42.8870 C   0  0  0  0  0  0  0  0  0  0  0  0
   57.9460   32.4610   44.3050 C   0  0  0  0  0  0  0  0  0  0  0  0
   57.4240   33.6260   44.8470 C   0  0  0  0  0  0  0  0  0  0  0  0
   57.5370   33.7810   46.1630 C   0  0  0  0  0  0  0  0  0  0  0  0
   58.1470   32.8070   46.8950 C   0  0  0  0  0  0  0  0  0  0  0  0
   58.6210   31.5600   45.7350 S   0  0  0  0  0  0  0  0  0  0  0  0
   56.8840   28.0340   45.2300 C   0  0  0  0  0  0  0  0  0  0  0  0
   58.1850   27.5580   45.1970 C   0  0  0  0  0  0  0  0  0  0  0  0
   58.5310   26.3960   45.8840 C   0  0  0  0  0  0  0  0  0  0  0  0
   57.5660   25.7190   46.5990 C   0  0  0  0  0  0  0  0  0  0  0  0
   57.8060   24.6590   47.2460 O   0  0  0  0  0  0  0  0  0  0  0  0
   56.3240   26.2330   46.5890 N   0  0  0  0  0  0  0  0  0  0  0  0
   55.9900   27.3330   45.9420 N   0  0  0  0  0  0  0  0  0  0  0  0
   58.1760   29.0980   43.1280 H   0  0  0  0  0  0  0  0  0  0  0  0
   56.9996   30.5843   41.6105 H   0  0  0  0  0  0  0  0  0  0  0  0
   56.0381   31.1858   43.0497 H   0  0  0  0  0  0  0  0  0  0  0  0
   59.0072   31.6280   42.6558 H   0  0  0  0  0  0  0  0  0  0  0  0
   57.7111   32.8067   42.2208 H   0  0  0  0  0  0  0  0  0  0  0  0
   56.9390   34.3866   44.2175 H   0  0  0  0  0  0  0  0  0  0  0  0
   57.1434   34.6833   46.6539 H   0  0  0  0  0  0  0  0  0  0  0  0
   58.3107   32.7984   47.9827 H   0  0  0  0  0  0  0  0  0  0  0  0
   58.9506   28.1016   44.6240 H   0  0  0  0  0  0  0  0  0  0  0  0
   59.5651   26.0221   45.8561 H   0  0  0  0  0  0  0  0  0  0  0  0
   55.5310   25.7640   47.1190 H   0  0  0  0  0  0  0  0  0  0  0  0
  1  2  2  0
  2  3  1  0
  3  4  1  0
  4  5  1  0
  5  6  1  0
  6  7  2  0
  7  8  1  0
  8  9  2  0
  9 10  1  0
  2 11  1  0
 11 12  1  0
 12 13  2  0
 13 14  1  0
 14 15  2  0
 14 16  1  0
 16 17  1  0
 10  6  1  0
 17 11  2  0
  3 18  1  0
  4 19  1  0
  4 20  1  0
  5 21  1  0
  5 22  1  0
  7 23  1  0
  8 24  1  0
  9 25  1  0
 12 26  1  0
 13 27  1  0
 16 28  1  0
M  END
>  <smiles>  (46) 
O=C(NCCc1cccs1)c1ccc(=O)[nH]n1

>  <score_type>  (46) 
oracle

>  <origin>  (46) 
adg

>  <m_score__min__energy>  (46) 
-6.6799999999999997

>  <m_primary>  (46) 
energy

$$$$
46:0
     RDKit          3D

 34 35  0  0  0  0  0  0  0  0999 V2000
   63.3370   33.4710   47.1070 C   0  0  0  0  0  0  0  0  0  0  0  0
   61.8460   33.5130   47.4030 C   0  0  0  0  0  0  0  0  0  0  0  0
   61.1730   34.2050   46.3590 O   0  0  0  0  0  0  0  0  0  0  0  0
   59.8910   34.7420   46.5120 C   0  0  0  0  0  0  0  0  0  0  0  0
   59.6980   35.9840   46.4080 O   0  0  0  0  0  0  0  0  0  0  0  0
   58.7420   33.8330   46.8180 C   0  0  0  0  0  0  0  0  0  0  0  0
   58.4020   32.9860   45.6170 C   0  0  0  0  0  0  0  0  0  0  0  0
   58.2380   33.5590   44.3560 C   0  0  0  0  0  0  0  0  0  0  0  0
   57.7930   32.3500   43.2830 S   0  0  0  0  0  0  0  0  0  0  0  0
   57.7930   31.1460   44.4490 C   0  0  0  0  0  0  0  0  0  0  0  0
   57.4020   29.9320   44.1710 N   0  0  0  0  0  0  0  0  0  0  0  0
   56.3570   29.1690   44.7810 C   0  0  0  0  0  0  0  0  0  0  0  0
   55.2040   29.6670   44.8730 O   0  0  0  0  0  0  0  0  0  0  0  0
   56.6470   27.8650   45.3990 C   0  0  0  0  0  0  0  0  0  0  0  0
   57.8930   27.2850   45.5230 C   0  0  0  0  0  0  0  0  0  0  0  0
   57.6790   26.0850   46.1670 C   0  0  0  0  0  0  0  0  0  0  0  0
   56.3200   26.0080   46.3940 C   0  0  0  0  0  0  0  0  0  0  0  0
   55.7310   27.0830   45.9240 O   0  0  0  0  0  0  0  0  0  0  0  0
   58.1980   31.6260   45.6660 N   0  0  0  0  0  0  0  0  0  0  0  0
   58.5100   30.8170   46.8550 C   0  0  0  0  0  0  0  0  0  0  0  0
   63.8983   33.4552   48.0529 H   0  0  0  0  0  0  0  0  0  0  0  0
   63.5703   32.5659   46.5270 H   0  0  0  0  0  0  0  0  0  0  0  0
   63.6209   34.3615   46.5270 H   0  0  0  0  0  0  0  0  0  0  0  0
   61.4572   32.4863   47.4720 H   0  0  0  0  0  0  0  0  0  0  0  0
   61.6768   34.0350   48.3563 H   0  0  0  0  0  0  0  0  0  0  0  0
   59.0136   33.1769   47.6581 H   0  0  0  0  0  0  0  0  0  0  0  0
   57.8660   34.4441   47.0810 H   0  0  0  0  0  0  0  0  0  0  0  0
   58.3768   34.6217   44.1080 H   0  0  0  0  0  0  0  0  0  0  0  0
   58.8548   27.6941   45.1801 H   0  0  0  0  0  0  0  0  0  0  0  0
   58.4385   25.3391   46.4441 H   0  0  0  0  0  0  0  0  0  0  0  0
   55.8077   25.1723   46.8932 H   0  0  0  0  0  0  0  0  0  0  0  0
   58.2862   31.3972   47.7623 H   0  0  0  0  0  0  0  0  0  0  0  0
   57.9005   29.9013   46.8457 H   0  0  0  0  0  0  0  0  0  0  0  0
   59.5765   30.5477   46.8457 H   0  0  0  0  0  0  0  0  0  0  0  0
  1  2  1  0
  2  3  1  0
  3  4  1  0
  4  5  2  0
  4  6  1  0
  6  7  1  0
  7  8  2  0
  8  9  1  0
  9 10  1  0
 10 11  2  3
 11 12  1  0
 12 13  2  0
 12 14  1  0
 14 15  2  0
 15 16  1  0
 16 17  2  0
 17 18  1  0
 10 19  1  0
 19 20  1  0
 19  7  1  0
 18 14  1  0
  1 21  1  0
  1 22  1  0
  1 23  1  0
  2 24  1  0
  2 25  1  0
  6 26  1  0
  6 27  1  0
  8 28  1  0
 15 29  1  0
 16 30  1  0
 17 31  1  0
 20 32  1  0
 20 33  1  0
 20 34  1  0
M  END
>  <UniqueID>  (47) 
44

>  <SMILES>  (47) 
CCOC(=O)Cc1csc(=NC(=O)c2ccco2)n1C

>  <Energy>  (47) 
96.23302941825423

>  <Genealogy>  (47) 
CCOC(=O)Cc1csc(=NC(=O)c2ccco2)n1C (3D coordinates assigned)
CCOC(=O)Cc1csc(=NC(=O)c2ccco2)n1C (optimized conformer: 96.23302941825423 kcal/mol)

>  <smiles>  (47) 
CCOC(=O)Cc1csc(=NC(=O)c2ccco2)n1C

>  <score_type>  (47) 
oracle

>  <origin>  (47) 
adg

>  <m_score__min__energy>  (47) 
-6.4199999999999999

>  <m_primary>  (47) 
energy

$$$$
47:0
     RDKit          3D

 60 63  0  0  0  0  0  0  0  0999 V2000
   56.8050   21.4620   43.0760 C   0  0  0  0  0  0  0  0  0  0  0  0
   55.9730   22.5470   43.4740 O   0  0  0  0  0  0  0  0  0  0  0  0
   56.4510   23.7640   43.9870 C   0  0  0  0  0  0  0  0  0  0  0  0
   57.2390   24.5690   43.1560 C   0  0  0  0  0  0  0  0  0  0  0  0
   57.7600   25.7790   43.6220 C   0  0  0  0  0  0  0  0  0  0  0  0
   57.5030   26.2020   44.9370 C   0  0  0  0  0  0  0  0  0  0  0  0
   58.0650   27.5040   45.4370 C   0  0  0  0  0  0  0  0  0  0  0  0
   56.9770   28.3990   45.8130 N   0  0  0  0  0  0  0  0  0  0  0  0
   56.3190   29.2600   44.8810 C   0  0  0  0  0  0  0  0  0  0  0  0
   55.1450   28.9890   44.5000 O   0  0  0  0  0  0  0  0  0  0  0  0
   57.0020   30.4760   44.3750 C   0  0  0  0  0  0  0  0  0  0  0  0
   57.0950   30.7150   42.9910 C   0  0  0  0  0  0  0  0  0  0  0  0
   57.7430   31.8590   42.5120 C   0  0  0  0  0  0  0  0  0  0  0  0
   58.3040   32.7750   43.4040 C   0  0  0  0  0  0  0  0  0  0  0  0
   58.2190   32.5530   44.7850 C   0  0  0  0  0  0  0  0  0  0  0  0
   58.9260   33.7260   45.8960 S   0  0  0  0  0  0  0  0  0  0  0  0
   59.9230   34.5910   45.1740 O   0  0  0  0  0  0  0  0  0  0  0  0
   57.8240   34.6050   46.4230 O   0  0  0  0  0  0  0  0  0  0  0  0
   59.7120   32.8870   47.2150 N   0  0  0  0  0  0  0  0  0  0  0  0
   59.8260   33.7970   48.3790 C   0  0  0  0  0  0  0  0  0  0  0  0
   60.8760   33.3150   49.3820 C   0  0  0  0  0  0  0  0  0  0  0  0
   62.1860   33.2130   48.7260 N   0  0  0  0  0  0  0  0  0  0  0  0
   63.4000   33.3150   49.5040 C   0  0  0  0  0  0  0  0  0  0  0  0
   63.4360   34.0980   50.6750 C   0  0  0  0  0  0  0  0  0  0  0  0
   64.6040   34.1810   51.4370 C   0  0  0  0  0  0  0  0  0  0  0  0
   65.7510   33.4890   51.0420 C   0  0  0  0  0  0  0  0  0  0  0  0
   66.8800   33.5720   51.7860 F   0  0  0  0  0  0  0  0  0  0  0  0
   65.7320   32.7160   49.8750 C   0  0  0  0  0  0  0  0  0  0  0  0
   64.5630   32.6230   49.1160 C   0  0  0  0  0  0  0  0  0  0  0  0
   62.2420   33.0350   47.2700 C   0  0  0  0  0  0  0  0  0  0  0  0
   60.9980   32.2840   46.7680 C   0  0  0  0  0  0  0  0  0  0  0  0
   57.5640   31.4080   45.2690 C   0  0  0  0  0  0  0  0  0  0  0  0
   56.6950   25.4080   45.7670 C   0  0  0  0  0  0  0  0  0  0  0  0
   56.1700   24.1990   45.2990 C   0  0  0  0  0  0  0  0  0  0  0  0
   57.1956   20.9526   43.9693 H   0  0  0  0  0  0  0  0  0  0  0  0
   56.2183   20.7511   42.4756 H   0  0  0  0  0  0  0  0  0  0  0  0
   57.6438   21.8442   42.4756 H   0  0  0  0  0  0  0  0  0  0  0  0
   57.4502   24.2459   42.1260 H   0  0  0  0  0  0  0  0  0  0  0  0
   58.3741   26.4032   42.9563 H   0  0  0  0  0  0  0  0  0  0  0  0
   58.7016   27.3144   46.3138 H   0  0  0  0  0  0  0  0  0  0  0  0
   58.6618   27.9721   44.6403 H   0  0  0  0  0  0  0  0  0  0  0  0
   56.6556   29.9982   42.2817 H   0  0  0  0  0  0  0  0  0  0  0  0
   57.8107   32.0373   41.4287 H   0  0  0  0  0  0  0  0  0  0  0  0
   58.8134   33.6721   43.0222 H   0  0  0  0  0  0  0  0  0  0  0  0
   59.0700   32.1040   47.4880 H   0  0  0  0  0  0  0  0  0  0  0  0
   60.1096   34.7977   48.0211 H   0  0  0  0  0  0  0  0  0  0  0  0
   58.8522   33.8187   48.8902 H   0  0  0  0  0  0  0  0  0  0  0  0
   60.9401   34.0308   50.2148 H   0  0  0  0  0  0  0  0  0  0  0  0
   60.5844   32.3252   49.7632 H   0  0  0  0  0  0  0  0  0  0  0  0
   62.5376   34.6481   50.9916 H   0  0  0  0  0  0  0  0  0  0  0  0
   64.6203   34.7932   52.3508 H   0  0  0  0  0  0  0  0  0  0  0  0
   66.6386   32.1813   49.5554 H   0  0  0  0  0  0  0  0  0  0  0  0
   64.5511   32.0036   48.2071 H   0  0  0  0  0  0  0  0  0  0  0  0
   62.2878   34.0221   46.7867 H   0  0  0  0  0  0  0  0  0  0  0  0
   63.1367   32.4463   47.0190 H   0  0  0  0  0  0  0  0  0  0  0  0
   61.0155   32.2799   45.6681 H   0  0  0  0  0  0  0  0  0  0  0  0
   61.0419   31.2704   47.1931 H   0  0  0  0  0  0  0  0  0  0  0  0
   57.4897   31.2384   46.3533 H   0  0  0  0  0  0  0  0  0  0  0  0
   56.4735   25.7392   46.7923 H   0  0  0  0  0  0  0  0  0  0  0  0
   55.5360   23.5856   45.9561 H   0  0  0  0  0  0  0  0  0  0  0  0
  1  2  1  0
  2  3  1  0
  3  4  2  0
  4  5  1  0
  5  6  2  0
  6  7  1  0
  7  8  1  0
  8  9  1  0
  9 10  2  0
  9 11  1  0
 11 12  2  0
 12 13  1  0
 13 14  2  0
 14 15  1  0
 15 16  1  0
 16 17  2  0
 16 18  2  0
 16 19  1  0
 19 20  1  0
 20 21  1  0
 21 22  1  0
 22 23  1  0
 23 24  2  0
 24 25  1  0
 25 26  2  0
 26 27  1  0
 26 28  1  0
 28 29  2  0
 22 30  1  0
 30 31  1  0
 15 32  2  0
  6 33  1  0
 33 34  2  0
 34  3  1  0
 32 11  1  0
 31 19  1  0
 29 23  1  0
  1 35  1  0
  1 36  1  0
  1 37  1  0
  4 38  1  0
  5 39  1  0
  7 40  1  0
  7 41  1  0
 12 42  1  0
 13 43  1  0
 14 44  1  0
 19 45  1  0
 20 46  1  0
 20 47  1  0
 21 48  1  0
 21 49  1  0
 24 50  1  0
 25 51  1  0
 28 52  1  0
 29 53  1  0
 30 54  1  0
 30 55  1  0
 31 56  1  0
 31 57  1  0
 32 58  1  0
 33 59  1  0
 34 60  1  0
M  CHG  2   8  -1  19   1
M  END
>  <UniqueID>  (48) 
45

>  <SMILES>  (48) 
COc1ccc(C[N-]C(=O)c2cccc(S(=O)(=O)[NH+]3CCN(c4ccc(F)cc4)CC3)c2)cc1

>  <Energy>  (48) 
70.30674210436771

>  <Genealogy>  (48) 
COc1ccc(C[N-]C(=O)c2cccc(S(=O)(=O)[NH+]3CCN(c4ccc(F)cc4)CC3)c2)cc1 (protonated)
COc1ccc(C[N-]C(=O)c2cccc(S(=O)(=O)[NH+]3CCN(c4ccc(F)cc4)CC3)c2)cc1 (3D coordinates assigned)
COc1ccc(C[N-]C(=O)c2cccc(S(=O)(=O)[NH+]3CCN(c4ccc(F)cc4)CC3)c2)cc1 (nonaromatic ring conformer: 70.30674210436771 kcal/mol)

>  <smiles>  (48) 
COc1ccc(CNC(=O)c2cccc(S(=O)(=O)N3CCN(c4ccc(F)cc4)CC3)c2)cc1

>  <score_type>  (48) 
oracle

>  <origin>  (48) 
adg

>  <m_score__min__energy>  (48) 
-10.77

>  <m_primary>  (48) 
energy

$$$$
48:0
     RDKit          3D

 33 34  0  0  0  0  0  0  0  0999 V2000
   55.1060   23.5620   44.3190 C   0  0  0  0  0  0  0  0  0  0  0  0
   55.0090   24.2550   45.9770 S   0  0  0  0  0  0  0  0  0  0  0  0
   56.2360   25.5170   46.2210 C   0  0  0  0  0  0  0  0  0  0  0  0
   55.9370   26.7590   45.7390 N   0  0  0  0  0  0  0  0  0  0  0  0
   56.8450   27.7600   45.9020 C   0  0  0  0  0  0  0  0  0  0  0  0
   56.5420   29.0690   45.4000 N   0  0  0  0  0  0  0  0  0  0  0  0
   57.0070   29.4690   44.1100 C   0  0  0  0  0  0  0  0  0  0  0  0
   57.6800   28.6560   43.4300 O   0  0  0  0  0  0  0  0  0  0  0  0
   56.6500   30.8380   43.6670 C   0  0  0  0  0  0  0  0  0  0  0  0
   56.4150   31.6270   44.8020 O   0  0  0  0  0  0  0  0  0  0  0  0
   57.3000   32.6010   45.2060 C   0  0  0  0  0  0  0  0  0  0  0  0
   57.4230   33.0780   46.4870 C   0  0  0  0  0  0  0  0  0  0  0  0
   58.3360   34.0680   46.8400 C   0  0  0  0  0  0  0  0  0  0  0  0
   59.1390   34.5810   45.8490 C   0  0  0  0  0  0  0  0  0  0  0  0
   59.0450   34.1290   44.5520 C   0  0  0  0  0  0  0  0  0  0  0  0
   58.1380   33.1520   44.2330 C   0  0  0  0  0  0  0  0  0  0  0  0
   58.0460   27.5270   46.5390 C   0  0  0  0  0  0  0  0  0  0  0  0
   58.3360   26.2670   47.0210 C   0  0  0  0  0  0  0  0  0  0  0  0
   59.4300   26.0510   47.6040 O   0  0  0  0  0  0  0  0  0  0  0  0
   57.4110   25.3020   46.8420 N   0  0  0  0  0  0  0  0  0  0  0  0
   55.2582   22.4746   44.3844 H   0  0  0  0  0  0  0  0  0  0  0  0
   54.1701   23.7694   43.7796 H   0  0  0  0  0  0  0  0  0  0  0  0
   55.9490   24.0184   43.7796 H   0  0  0  0  0  0  0  0  0  0  0  0
   55.9770   29.7050   46.0060 H   0  0  0  0  0  0  0  0  0  0  0  0
   57.4776   31.2663   43.0825 H   0  0  0  0  0  0  0  0  0  0  0  0
   55.7487   30.8067   43.0371 H   0  0  0  0  0  0  0  0  0  0  0  0
   56.7719   32.6599   47.2688 H   0  0  0  0  0  0  0  0  0  0  0  0
   58.4123   34.4276   47.8768 H   0  0  0  0  0  0  0  0  0  0  0  0
   59.8689   35.3658   46.0966 H   0  0  0  0  0  0  0  0  0  0  0  0
   59.6967   34.5512   43.7729 H   0  0  0  0  0  0  0  0  0  0  0  0
   58.0687   32.7960   43.1945 H   0  0  0  0  0  0  0  0  0  0  0  0
   58.7716   28.3445   46.6626 H   0  0  0  0  0  0  0  0  0  0  0  0
   57.6260   24.3420   47.2060 H   0  0  0  0  0  0  0  0  0  0  0  0
  1  2  1  0
  2  3  1  0
  3  4  2  0
  4  5  1  0
  5  6  1  0
  6  7  1  0
  7  8  2  0
  7  9  1  0
  9 10  1  0
 10 11  1  0
 11 12  2  0
 12 13  1  0
 13 14  2  0
 14 15  1  0
 15 16  2  0
  5 17  2  0
 17 18  1  0
 18 19  2  0
 18 20  1  0
 20  3  1  0
 16 11  1  0
  1 21  1  0
  1 22  1  0
  1 23  1  0
  6 24  1  0
  9 25  1  0
  9 26  1  0
 12 27  1  0
 13 28  1  0
 14 29  1  0
 15 30  1  0
 16 31  1  0
 17 32  1  0
 20 33  1  0
M  END
>  <smiles>  (49) 
CSc1nc(NC(=O)COc2ccccc2)cc(=O)[nH]1

>  <score_type>  (49) 
oracle

>  <origin>  (49) 
adg

>  <m_score__min__energy>  (49) 
-6.4500000000000002

>  <m_primary>  (49) 
energy

$$$$
49:0
     RDKit          3D

 57 59  0  0  0  0  0  0  0  0999 V2000
   55.9200   29.6460   43.1630 C   0  0  0  0  0  0  0  0  0  0  0  0
   56.1910   30.7970   44.0090 N   0  0  0  0  0  0  0  0  0  0  0  0
   57.3810   31.5840   43.8970 C   0  0  0  0  0  0  0  0  0  0  0  0
   57.8680   31.8230   42.7580 O   0  0  0  0  0  0  0  0  0  0  0  0
   58.0160   32.1570   45.1080 C   0  0  0  0  0  0  0  0  0  0  0  0
   58.5090   33.4710   45.0560 C   0  0  0  0  0  0  0  0  0  0  0  0
   59.0310   34.0820   46.1980 C   0  0  0  0  0  0  0  0  0  0  0  0
   59.6380   35.7270   46.1130 Cl  0  0  0  0  0  0  0  0  0  0  0  0
   59.0630   33.3920   47.4100 C   0  0  0  0  0  0  0  0  0  0  0  0
   58.5870   32.0750   47.4900 C   0  0  0  0  0  0  0  0  0  0  0  0
   58.6800   31.3280   48.7910 C   0  0  0  0  0  0  0  0  0  0  0  0
   58.0980   31.4360   46.3300 C   0  0  0  0  0  0  0  0  0  0  0  0
   57.7370   30.0490   46.4000 N   0  0  0  0  0  0  0  0  0  0  0  0
   58.4550   29.0280   45.6940 C   0  0  0  0  0  0  0  0  0  0  0  0
   59.3840   29.3530   44.9050 O   0  0  0  0  0  0  0  0  0  0  0  0
   58.0830   27.6030   45.8680 C   0  0  0  0  0  0  0  0  0  0  0  0
   57.6470   26.8630   44.7580 C   0  0  0  0  0  0  0  0  0  0  0  0
   57.3270   25.5100   44.8840 C   0  0  0  0  0  0  0  0  0  0  0  0
   56.9070   24.8190   43.7980 F   0  0  0  0  0  0  0  0  0  0  0  0
   57.4340   24.8680   46.1200 C   0  0  0  0  0  0  0  0  0  0  0  0
   57.0930   23.5090   46.1990 O   0  0  0  0  0  0  0  0  0  0  0  0
   57.6630   22.4880   45.3850 C   0  0  0  0  0  0  0  0  0  0  0  0
   57.8790   25.5970   47.2350 C   0  0  0  0  0  0  0  0  0  0  0  0
   58.2210   26.9540   47.1150 C   0  0  0  0  0  0  0  0  0  0  0  0
   58.7260   27.6820   48.2400 N   0  0  0  0  0  0  0  0  0  0  0  0
   60.3660   27.6520   48.7980 S   0  0  0  0  0  0  0  0  0  0  0  0
   60.4150   27.2180   50.2350 O   0  0  0  0  0  0  0  0  0  0  0  0
   61.1690   26.7010   47.9530 O   0  0  0  0  0  0  0  0  0  0  0  0
   61.0210   29.2750   48.6220 C   0  0  0  0  0  0  0  0  0  0  0  0
   61.4890   29.9820   49.7370 C   0  0  0  0  0  0  0  0  0  0  0  0
   62.0740   31.2430   49.5780 C   0  0  0  0  0  0  0  0  0  0  0  0
   62.2050   31.8140   48.2970 C   0  0  0  0  0  0  0  0  0  0  0  0
   62.8450   33.1420   48.1130 C   0  0  0  0  0  0  0  0  0  0  0  0
   62.2390   34.2080   48.5330 N   0  0  0  0  0  0  0  0  0  0  0  0
   64.1090   33.2650   47.4490 N   0  0  0  0  0  0  0  0  0  0  0  0
   61.7080   31.1060   47.1860 C   0  0  0  0  0  0  0  0  0  0  0  0
   61.1240   29.8470   47.3490 C   0  0  0  0  0  0  0  0  0  0  0  0
   55.7134   28.7684   43.7931 H   0  0  0  0  0  0  0  0  0  0  0  0
   55.0466   29.8553   42.5279 H   0  0  0  0  0  0  0  0  0  0  0  0
   56.7950   29.4436   42.5279 H   0  0  0  0  0  0  0  0  0  0  0  0
   58.4837   34.0246   44.1058 H   0  0  0  0  0  0  0  0  0  0  0  0
   59.4640   33.8838   48.3085 H   0  0  0  0  0  0  0  0  0  0  0  0
   58.5918   32.0366   49.6278 H   0  0  0  0  0  0  0  0  0  0  0  0
   57.8669   30.5894   48.8487 H   0  0  0  0  0  0  0  0  0  0  0  0
   59.6494   30.8113   48.8487 H   0  0  0  0  0  0  0  0  0  0  0  0
   57.5564   27.3545   43.7781 H   0  0  0  0  0  0  0  0  0  0  0  0
   58.0985   21.7079   46.0267 H   0  0  0  0  0  0  0  0  0  0  0  0
   56.8811   22.0461   44.7499 H   0  0  0  0  0  0  0  0  0  0  0  0
   58.4495   22.9217   44.7499 H   0  0  0  0  0  0  0  0  0  0  0  0
   57.9606   25.0998   48.2128 H   0  0  0  0  0  0  0  0  0  0  0  0
   61.3962   29.5440   50.7418 H   0  0  0  0  0  0  0  0  0  0  0  0
   62.4344   31.7927   50.4601 H   0  0  0  0  0  0  0  0  0  0  0  0
   61.9610   34.3270   49.5340 H   0  0  0  0  0  0  0  0  0  0  0  0
   64.5550   32.4540   46.9680 H   0  0  0  0  0  0  0  0  0  0  0  0
   64.5710   34.1980   47.3560 H   0  0  0  0  0  0  0  0  0  0  0  0
   61.7801   31.5477   46.1812 H   0  0  0  0  0  0  0  0  0  0  0  0
   60.7433   29.3028   46.4722 H   0  0  0  0  0  0  0  0  0  0  0  0
  1  2  1  0
  2  3  1  0
  3  4  2  0
  3  5  1  0
  5  6  2  0
  6  7  1  0
  7  8  1  0
  7  9  2  0
  9 10  1  0
 10 11  1  0
 10 12  2  0
 12 13  1  0
 13 14  1  0
 14 15  2  0
 14 16  1  0
 16 17  2  0
 17 18  1  0
 18 19  1  0
 18 20  2  0
 20 21  1  0
 21 22  1  0
 20 23  1  0
 23 24  2  0
 24 25  1  0
 25 26  1  0
 26 27  2  0
 26 28  2  0
 26 29  1  0
 29 30  2  0
 30 31  1  0
 31 32  2  0
 32 33  1  0
 33 34  2  3
 33 35  1  0
 32 36  1  0
 36 37  2  0
 12  5  1  0
 24 16  1  0
 37 29  1  0
  1 38  1  0
  1 39  1  0
  1 40  1  0
  6 41  1  0
  9 42  1  0
 11 43  1  0
 11 44  1  0
 11 45  1  0
 17 46  1  0
 22 47  1  0
 22 48  1  0
 22 49  1  0
 23 50  1  0
 30 51  1  0
 31 52  1  0
 34 53  1  0
 35 54  1  0
 35 55  1  0
 36 56  1  0
 37 57  1  0
M  CHG  3   2  -1  13  -1  25  -1
M  END
>  <UniqueID>  (50) 
46

>  <SMILES>  (50) 
C[N-]C(=O)c1cc(Cl)cc(C)c1[N-]C(=O)c1cc(F)c(OC)cc1[N-]S(=O)(=O)c1ccc(C(=N)N)cc1

>  <Energy>  (50) 
73.73329947589056

>  <Genealogy>  (50) 
C[N-]C(=O)c1cc(Cl)cc(C)c1[N-]C(=O)c1cc(F)c(OC)cc1[N-]S(=O)(=O)c1ccc(C(=N)N)cc1 (protonated)
C[N-]C(=O)c1cc(Cl)cc(C)c1[N-]C(=O)c1cc(F)c(OC)cc1[N-]S(=O)(=O)c1ccc(C(=N)N)cc1 (3D coordinates assigned)
C[N-]C(=O)c1cc(Cl)cc(C)c1[N-]C(=O)c1cc(F)c(OC)cc1[N-]S(=O)(=O)c1ccc(C(=N)N)cc1 (optimized conformer: 73.73329947589056 kcal/mol)

>  <smiles>  (50) 
CNC(=O)c1cc(Cl)cc(C)c1NC(=O)c1cc(F)c(OC)cc1NS(=O)(=O)c1ccc(C(=N)N)cc1

>  <score_type>  (50) 
oracle

>  <origin>  (50) 
adg

>  <m_score__min__energy>  (50) 
-12.99

>  <m_primary>  (50) 
energy

$$$$
50:0
     RDKit          3D

 47 49  0  0  0  0  0  0  0  0999 V2000
   60.0020   35.3240   46.4190 C   0  0  0  0  0  0  0  0  0  0  0  0
   59.0890   34.2250   45.9410 C   0  0  0  0  0  0  0  0  0  0  0  0
   58.6920   34.1960   44.5950 C   0  0  0  0  0  0  0  0  0  0  0  0
   57.8390   33.1960   44.1260 C   0  0  0  0  0  0  0  0  0  0  0  0
   57.3500   32.2150   45.0020 C   0  0  0  0  0  0  0  0  0  0  0  0
   56.4850   31.1640   44.5480 N   0  0  0  0  0  0  0  0  0  0  0  0
   56.6120   29.7760   44.8720 C   0  0  0  0  0  0  0  0  0  0  0  0
   55.5670   29.0790   44.9800 O   0  0  0  0  0  0  0  0  0  0  0  0
   57.9060   29.1580   44.9700 N   0  0  0  0  0  0  0  0  0  0  0  0
   58.1290   27.8540   45.5340 C   0  0  0  0  0  0  0  0  0  0  0  0
   57.5500   26.7110   44.9510 C   0  0  0  0  0  0  0  0  0  0  0  0
   57.7350   25.4510   45.5260 C   0  0  0  0  0  0  0  0  0  0  0  0
   58.4810   25.3180   46.6980 C   0  0  0  0  0  0  0  0  0  0  0  0
   59.0450   26.4450   47.2980 C   0  0  0  0  0  0  0  0  0  0  0  0
   58.8750   27.7130   46.7250 C   0  0  0  0  0  0  0  0  0  0  0  0
   59.4820   28.8500   47.3550 N   0  0  0  0  0  0  0  0  0  0  0  0
   58.9590   29.3290   48.6400 C   0  0  0  0  0  0  0  0  0  0  0  0
   60.0890   29.8340   49.5660 C   0  0  0  0  0  0  0  0  0  0  0  0
   61.3450   30.1460   48.8580 N   0  0  0  0  0  0  0  0  0  0  0  0
   61.0980   30.6980   47.5240 C   0  0  0  0  0  0  0  0  0  0  0  0
   60.5150   29.6020   46.6360 C   0  0  0  0  0  0  0  0  0  0  0  0
   57.7620   32.2220   46.3380 C   0  0  0  0  0  0  0  0  0  0  0  0
   58.6200   33.2230   46.8240 C   0  0  0  0  0  0  0  0  0  0  0  0
   59.0310   33.2050   48.2740 C   0  0  0  0  0  0  0  0  0  0  0  0
   60.0139   35.3384   47.5188 H   0  0  0  0  0  0  0  0  0  0  0  0
   61.0202   35.1441   46.0436 H   0  0  0  0  0  0  0  0  0  0  0  0
   59.6385   36.2919   46.0436 H   0  0  0  0  0  0  0  0  0  0  0  0
   59.0569   34.9692   43.9029 H   0  0  0  0  0  0  0  0  0  0  0  0
   57.5488   33.1768   43.0651 H   0  0  0  0  0  0  0  0  0  0  0  0
   58.7110   29.6520   44.5250 H   0  0  0  0  0  0  0  0  0  0  0  0
   56.9475   26.8105   44.0361 H   0  0  0  0  0  0  0  0  0  0  0  0
   57.2917   24.5619   45.0538 H   0  0  0  0  0  0  0  0  0  0  0  0
   58.6245   24.3250   47.1489 H   0  0  0  0  0  0  0  0  0  0  0  0
   59.6262   26.3376   48.2257 H   0  0  0  0  0  0  0  0  0  0  0  0
   58.2560   30.1541   48.4532 H   0  0  0  0  0  0  0  0  0  0  0  0
   58.4566   28.4879   49.1402 H   0  0  0  0  0  0  0  0  0  0  0  0
   59.7406   30.7463   50.0723 H   0  0  0  0  0  0  0  0  0  0  0  0
   60.3128   29.0200   50.2712 H   0  0  0  0  0  0  0  0  0  0  0  0
   61.8670   30.8610   49.4160 H   0  0  0  0  0  0  0  0  0  0  0  0
   60.3855   31.5330   47.5959 H   0  0  0  0  0  0  0  0  0  0  0  0
   62.0406   31.0657   47.0922 H   0  0  0  0  0  0  0  0  0  0  0  0
   60.0707   30.0606   45.7403 H   0  0  0  0  0  0  0  0  0  0  0  0
   61.3217   28.9112   46.3496 H   0  0  0  0  0  0  0  0  0  0  0  0
   57.4095   31.4327   47.0183 H   0  0  0  0  0  0  0  0  0  0  0  0
   58.1342   33.2443   48.9098 H   0  0  0  0  0  0  0  0  0  0  0  0
   59.5901   32.2815   48.4852 H   0  0  0  0  0  0  0  0  0  0  0  0
   59.6687   34.0761   48.4852 H   0  0  0  0  0  0  0  0  0  0  0  0
  1  2  1  0
  2  3  2  0
  3  4  1  0
  4  5  2  0
  5  6  1  0
  6  7  1  0
  7  8  2  0
  7  9  1  0
  9 10  1  0
 10 11  2  0
 11 12  1  0
 12 13  2  0
 13 14  1  0
 14 15  2  0
 15 16  1  0
 16 17  1  0
 17 18  1  0
 18 19  1  0
 19 20  1  0
 20 21  1  0
  5 22  1  0
 22 23  2  0
 23 24  1  0
 23  2  1  0
 15 10  1  0
 21 16  1  0
  1 25  1  0
  1 26  1  0
  1 27  1  0
  3 28  1  0
  4 29  1  0
  9 30  1  0
 11 31  1  0
 12 32  1  0
 13 33  1  0
 14 34  1  0
 17 35  1  0
 17 36  1  0
 18 37  1  0
 18 38  1  0
 19 39  1  0
 20 40  1  0
 20 41  1  0
 21 42  1  0
 21 43  1  0
 22 44  1  0
 24 45  1  0
 24 46  1  0
 24 47  1  0
M  CHG  1   6  -1
M  END
>  <UniqueID>  (51) 
47

>  <SMILES>  (51) 
Cc1ccc([N-]C(=O)Nc2ccccc2N2CCNCC2)cc1C

>  <Energy>  (51) 
63.91636068169654

>  <Genealogy>  (51) 
Cc1ccc([N-]C(=O)Nc2ccccc2N2CCNCC2)cc1C (protonated)
Cc1ccc([N-]C(=O)Nc2ccccc2N2CCNCC2)cc1C (3D coordinates assigned)
Cc1ccc([N-]C(=O)Nc2ccccc2N2CCNCC2)cc1C (nonaromatic ring conformer: 63.91636068169654 kcal/mol)

>  <smiles>  (51) 
Cc1ccc(NC(=O)Nc2ccccc2N2CCNCC2)cc1C

>  <score_type>  (51) 
oracle

>  <origin>  (51) 
adg

>  <m_score__min__energy>  (51) 
-9.5

>  <m_primary>  (51) 
energy

$$$$
51:0
     RDKit          3D

 57 60  0  0  0  0  0  0  0  0999 V2000
   60.9510   27.1970   50.5180 O   0  0  0  0  0  0  0  0  0  0  0  0
   60.7710   27.9830   49.5480 C   0  0  0  0  0  0  0  0  0  0  0  0
   61.0010   29.3840   49.7340 N   0  0  0  0  0  0  0  0  0  0  0  0
   60.0000   30.3310   50.1340 C   0  0  0  0  0  0  0  0  0  0  0  0
   58.8300   29.9100   50.7900 C   0  0  0  0  0  0  0  0  0  0  0  0
   57.8850   30.8450   51.2220 C   0  0  0  0  0  0  0  0  0  0  0  0
   58.1040   32.2070   51.0200 C   0  0  0  0  0  0  0  0  0  0  0  0
   59.2720   32.6390   50.3870 C   0  0  0  0  0  0  0  0  0  0  0  0
   60.2270   31.7070   49.9460 C   0  0  0  0  0  0  0  0  0  0  0  0
   61.4130   32.1560   49.2710 N   0  0  0  0  0  0  0  0  0  0  0  0
   61.5890   31.8230   47.8570 C   0  0  0  0  0  0  0  0  0  0  0  0
   63.0790   31.8890   47.4840 C   0  0  0  0  0  0  0  0  0  0  0  0
   63.6550   33.1120   47.8990 O   0  0  0  0  0  0  0  0  0  0  0  0
   63.6190   33.2060   49.3130 C   0  0  0  0  0  0  0  0  0  0  0  0
   62.1760   33.2790   49.8200 C   0  0  0  0  0  0  0  0  0  0  0  0
   60.3990   27.4420   48.2260 C   0  0  0  0  0  0  0  0  0  0  0  0
   60.9110   26.3500   47.8530 O   0  0  0  0  0  0  0  0  0  0  0  0
   59.4510   28.1440   47.3310 C   0  0  0  0  0  0  0  0  0  0  0  0
   59.6810   29.4760   46.9400 C   0  0  0  0  0  0  0  0  0  0  0  0
   58.8250   30.1040   46.0310 C   0  0  0  0  0  0  0  0  0  0  0  0
   57.7230   29.4120   45.5070 C   0  0  0  0  0  0  0  0  0  0  0  0
   56.6880   30.1610   44.2930 S   0  0  0  0  0  0  0  0  0  0  0  0
   55.2440   30.0580   44.6990 O   0  0  0  0  0  0  0  0  0  0  0  0
   56.8690   29.4490   42.9840 O   0  0  0  0  0  0  0  0  0  0  0  0
   57.1200   31.8340   44.1030 N   0  0  0  0  0  0  0  0  0  0  0  0
   56.6630   32.6360   45.2400 C   0  0  0  0  0  0  0  0  0  0  0  0
   57.8090   33.4440   45.7720 C   0  0  0  0  0  0  0  0  0  0  0  0
   58.5540   34.2710   44.9130 C   0  0  0  0  0  0  0  0  0  0  0  0
   59.6200   35.0270   45.4130 C   0  0  0  0  0  0  0  0  0  0  0  0
   59.9440   34.9660   46.7730 C   0  0  0  0  0  0  0  0  0  0  0  0
   59.1970   34.1590   47.6360 C   0  0  0  0  0  0  0  0  0  0  0  0
   58.1280   33.4060   47.1410 C   0  0  0  0  0  0  0  0  0  0  0  0
   57.4820   28.0900   45.9000 C   0  0  0  0  0  0  0  0  0  0  0  0
   58.3440   27.4570   46.8010 C   0  0  0  0  0  0  0  0  0  0  0  0
   58.6571   28.8378   50.9645 H   0  0  0  0  0  0  0  0  0  0  0  0
   56.9663   30.5054   51.7226 H   0  0  0  0  0  0  0  0  0  0  0  0
   57.3578   32.9408   51.3587 H   0  0  0  0  0  0  0  0  0  0  0  0
   59.4451   33.7143   50.2329 H   0  0  0  0  0  0  0  0  0  0  0  0
   61.2117   30.8064   47.6723 H   0  0  0  0  0  0  0  0  0  0  0  0
   61.0303   32.5449   47.2433 H   0  0  0  0  0  0  0  0  0  0  0  0
   63.6087   31.0583   47.9732 H   0  0  0  0  0  0  0  0  0  0  0  0
   63.1685   31.8146   46.3902 H   0  0  0  0  0  0  0  0  0  0  0  0
   64.1081   32.3206   49.7452 H   0  0  0  0  0  0  0  0  0  0  0  0
   64.1449   34.1229   49.6174 H   0  0  0  0  0  0  0  0  0  0  0  0
   62.1694   33.2256   50.9187 H   0  0  0  0  0  0  0  0  0  0  0  0
   61.7198   34.2269   49.4984 H   0  0  0  0  0  0  0  0  0  0  0  0
   60.5396   30.0263   47.3522 H   0  0  0  0  0  0  0  0  0  0  0  0
   59.0159   31.1434   45.7257 H   0  0  0  0  0  0  0  0  0  0  0  0
   55.8584   33.3111   44.9132 H   0  0  0  0  0  0  0  0  0  0  0  0
   56.2841   31.9711   46.0301 H   0  0  0  0  0  0  0  0  0  0  0  0
   58.2980   34.3239   43.8445 H   0  0  0  0  0  0  0  0  0  0  0  0
   60.2034   35.6693   44.7370 H   0  0  0  0  0  0  0  0  0  0  0  0
   60.7877   35.5539   47.1635 H   0  0  0  0  0  0  0  0  0  0  0  0
   59.4505   34.1164   48.7056 H   0  0  0  0  0  0  0  0  0  0  0  0
   57.5344   32.7816   47.8249 H   0  0  0  0  0  0  0  0  0  0  0  0
   56.6127   27.5481   45.4992 H   0  0  0  0  0  0  0  0  0  0  0  0
   58.1550   26.4146   47.0973 H   0  0  0  0  0  0  0  0  0  0  0  0
  1  2  2  0
  2  3  1  0
  3  4  1  0
  4  5  2  0
  5  6  1  0
  6  7  2  0
  7  8  1  0
  8  9  2  0
  9 10  1  0
 10 11  1  0
 11 12  1  0
 12 13  1  0
 13 14  1  0
 14 15  1  0
  2 16  1  0
 16 17  2  0
 16 18  1  0
 18 19  2  0
 19 20  1  0
 20 21  2  0
 21 22  1  0
 22 23  2  0
 22 24  2  0
 22 25  1  0
 25 26  1  0
 26 27  1  0
 27 28  2  0
 28 29  1  0
 29 30  2  0
 30 31  1  0
 31 32  2  0
 21 33  1  0
 33 34  2  0
  9  4  1  0
 15 10  1  0
 34 18  1  0
 32 27  1  0
  5 35  1  0
  6 36  1  0
  7 37  1  0
  8 38  1  0
 11 39  1  0
 11 40  1  0
 12 41  1  0
 12 42  1  0
 14 43  1  0
 14 44  1  0
 15 45  1  0
 15 46  1  0
 19 47  1  0
 20 48  1  0
 26 49  1  0
 26 50  1  0
 28 51  1  0
 29 52  1  0
 30 53  1  0
 31 54  1  0
 32 55  1  0
 33 56  1  0
 34 57  1  0
M  CHG  2   3  -1  25  -1
M  END
>  <UniqueID>  (52) 
48

>  <SMILES>  (52) 
O=C([N-]c1ccccc1N1CCOCC1)C(=O)c1ccc(S(=O)(=O)[N-]Cc2ccccc2)cc1

>  <Energy>  (52) 
73.95280135017802

>  <Genealogy>  (52) 
O=C([N-]c1ccccc1N1CCOCC1)C(=O)c1ccc(S(=O)(=O)[N-]Cc2ccccc2)cc1 (protonated)
O=C([N-]c1ccccc1N1CCOCC1)C(=O)c1ccc(S(=O)(=O)[N-]Cc2ccccc2)cc1 (3D coordinates assigned)
O=C([N-]c1ccccc1N1CCOCC1)C(=O)c1ccc(S(=O)(=O)[N-]Cc2ccccc2)cc1 (nonaromatic ring conformer: 73.95280135017802 kcal/mol)

>  <smiles>  (52) 
O=C(Nc1ccccc1N1CCOCC1)C(=O)c1ccc(S(=O)(=O)NCc2ccccc2)cc1

>  <score_type>  (52) 
oracle

>  <origin>  (52) 
adg

>  <m_score__min__energy>  (52) 
-11.74

>  <m_primary>  (52) 
energy

$$$$
52:0
     RDKit          3D

 34 36  0  0  0  0  0  0  0  0999 V2000
   55.7910   30.8100   44.4960 O   0  0  0  0  0  0  0  0  0  0  0  0
   57.1330   31.0990   43.9210 S   0  0  0  0  0  0  0  0  0  0  0  0
   57.0180   31.5990   42.5020 O   0  0  0  0  0  0  0  0  0  0  0  0
   58.2380   29.7930   44.0250 N   0  0  0  0  0  0  0  0  0  0  0  0
   58.2210   28.9620   45.1670 C   0  0  0  0  0  0  0  0  0  0  0  0
   58.8710   29.3320   46.3410 C   0  0  0  0  0  0  0  0  0  0  0  0
   58.8570   28.5220   47.4600 C   0  0  0  0  0  0  0  0  0  0  0  0
   58.1840   27.3120   47.4200 C   0  0  0  0  0  0  0  0  0  0  0  0
   57.5340   26.9320   46.2640 C   0  0  0  0  0  0  0  0  0  0  0  0
   56.8350   25.6520   46.2610 C   0  0  0  0  0  0  0  0  0  0  0  0
   55.5160   25.4060   46.3510 N   0  0  0  0  0  0  0  0  0  0  0  0
   55.3100   24.0780   46.3070 C   0  0  0  0  0  0  0  0  0  0  0  0
   56.5460   23.4560   46.1860 C   0  0  0  0  0  0  0  0  0  0  0  0
   57.4540   24.4620   46.1610 N   0  0  0  0  0  0  0  0  0  0  0  0
   57.5430   27.7390   45.1350 C   0  0  0  0  0  0  0  0  0  0  0  0
   57.8230   32.4330   44.8580 C   0  0  0  0  0  0  0  0  0  0  0  0
   58.4560   33.4790   44.1860 C   0  0  0  0  0  0  0  0  0  0  0  0
   59.0140   34.5500   44.8760 C   0  0  0  0  0  0  0  0  0  0  0  0
   58.9330   34.5700   46.2560 C   0  0  0  0  0  0  0  0  0  0  0  0
   58.3020   33.5280   46.9330 C   0  0  0  0  0  0  0  0  0  0  0  0
   57.7460   32.4580   46.2340 C   0  0  0  0  0  0  0  0  0  0  0  0
   58.9140   29.6240   43.2430 H   0  0  0  0  0  0  0  0  0  0  0  0
   59.4081   30.2913   46.3786 H   0  0  0  0  0  0  0  0  0  0  0  0
   59.3771   28.8360   48.3770 H   0  0  0  0  0  0  0  0  0  0  0  0
   58.1679   26.6582   48.3044 H   0  0  0  0  0  0  0  0  0  0  0  0
   54.3341   23.5729   46.3579 H   0  0  0  0  0  0  0  0  0  0  0  0
   56.7456   22.3761   46.1237 H   0  0  0  0  0  0  0  0  0  0  0  0
   58.4820   24.2500   46.0720 H   0  0  0  0  0  0  0  0  0  0  0  0
   57.0206   27.4191   44.2214 H   0  0  0  0  0  0  0  0  0  0  0  0
   58.5150   33.4562   43.0878 H   0  0  0  0  0  0  0  0  0  0  0  0
   59.5113   35.3672   44.3330 H   0  0  0  0  0  0  0  0  0  0  0  0
   59.3669   35.4089   46.8200 H   0  0  0  0  0  0  0  0  0  0  0  0
   58.2421   33.5503   48.0311 H   0  0  0  0  0  0  0  0  0  0  0  0
   57.2496   31.6398   46.7763 H   0  0  0  0  0  0  0  0  0  0  0  0
  1  2  2  0
  2  3  2  0
  2  4  1  0
  4  5  1  0
  5  6  2  0
  6  7  1  0
  7  8  2  0
  8  9  1  0
  9 10  1  0
 10 11  2  0
 11 12  1  0
 12 13  2  0
 13 14  1  0
  9 15  2  0
  2 16  1  0
 16 17  2  0
 17 18  1  0
 18 19  2  0
 19 20  1  0
 20 21  2  0
 15  5  1  0
 21 16  1  0
 14 10  1  0
  4 22  1  0
  6 23  1  0
  7 24  1  0
  8 25  1  0
 12 26  1  0
 13 27  1  0
 14 28  1  0
 15 29  1  0
 17 30  1  0
 18 31  1  0
 19 32  1  0
 20 33  1  0
 21 34  1  0
M  END
>  <smiles>  (53) 
O=S(=O)(Nc1cccc(-c2ncc[nH]2)c1)c1ccccc1

>  <score_type>  (53) 
oracle

>  <origin>  (53) 
adg

>  <m_score__min__energy>  (53) 
-8.1600000000000001

>  <m_primary>  (53) 
energy

$$$$
53:0
     RDKit          3D

 62 66  0  0  0  0  0  0  0  0999 V2000
   53.8830   23.8630   44.4370 C   0  0  0  0  0  0  0  0  0  0  0  0
   55.2600   24.0810   44.9080 N   0  0  0  0  0  0  0  0  0  0  0  0
   55.5500   25.1870   45.6750 C   0  0  0  0  0  0  0  0  0  0  0  0
   54.6620   26.0290   45.9810 O   0  0  0  0  0  0  0  0  0  0  0  0
   56.8550   25.3690   46.0970 C   0  0  0  0  0  0  0  0  0  0  0  0
   57.3650   26.3430   46.8640 N   0  0  0  0  0  0  0  0  0  0  0  0
   58.6800   26.0020   46.9320 C   0  0  0  0  0  0  0  0  0  0  0  0
   59.6480   26.7620   47.7490 C   0  0  0  0  0  0  0  0  0  0  0  0
   60.4000   27.7780   47.3010 C   0  0  0  0  0  0  0  0  0  0  0  0
   59.8590   28.9710   46.6230 C   0  0  0  0  0  0  0  0  0  0  0  0
   59.1220   28.8220   45.4420 C   0  0  0  0  0  0  0  0  0  0  0  0
   58.5680   29.9420   44.8130 C   0  0  0  0  0  0  0  0  0  0  0  0
   58.7600   31.2160   45.3550 C   0  0  0  0  0  0  0  0  0  0  0  0
   59.5330   31.3860   46.5120 C   0  0  0  0  0  0  0  0  0  0  0  0
   59.7340   32.7120   47.0170 N   0  0  0  0  0  0  0  0  0  0  0  0
   60.2360   33.0890   48.6320 S   0  0  0  0  0  0  0  0  0  0  0  0
   61.6500   32.6080   48.8270 O   0  0  0  0  0  0  0  0  0  0  0  0
   60.2040   34.5780   48.8160 O   0  0  0  0  0  0  0  0  0  0  0  0
   59.1720   32.3570   49.8270 C   0  0  0  0  0  0  0  0  0  0  0  0
   58.7120   31.0450   49.6620 C   0  0  0  0  0  0  0  0  0  0  0  0
   57.8150   30.4940   50.5830 C   0  0  0  0  0  0  0  0  0  0  0  0
   57.3670   31.2450   51.6880 C   0  0  0  0  0  0  0  0  0  0  0  0
   56.3810   30.6580   52.6350 C   0  0  0  0  0  0  0  0  0  0  0  0
   56.5920   30.7380   53.8730 O   0  0  0  0  0  0  0  0  0  0  0  0
   55.2030   29.9680   52.1920 N   0  0  0  0  0  0  0  0  0  0  0  0
   53.8460   30.4080   52.3530 C   0  0  0  0  0  0  0  0  0  0  0  0
   53.1570   30.0630   53.5230 C   0  0  0  0  0  0  0  0  0  0  0  0
   51.8370   30.4840   53.7170 C   0  0  0  0  0  0  0  0  0  0  0  0
   51.2030   31.2680   52.7500 C   0  0  0  0  0  0  0  0  0  0  0  0
   51.8880   31.6420   51.5890 C   0  0  0  0  0  0  0  0  0  0  0  0
   51.2480   32.4390   50.6440 O   0  0  0  0  0  0  0  0  0  0  0  0
   53.2100   31.2160   51.3910 C   0  0  0  0  0  0  0  0  0  0  0  0
   57.8180   32.5700   51.8330 C   0  0  0  0  0  0  0  0  0  0  0  0
   58.7190   33.1160   50.9150 C   0  0  0  0  0  0  0  0  0  0  0  0
   60.0830   30.2570   47.1430 C   0  0  0  0  0  0  0  0  0  0  0  0
   58.9950   24.8620   46.2630 N   0  0  0  0  0  0  0  0  0  0  0  0
   57.8160   24.4960   45.7430 C   0  0  0  0  0  0  0  0  0  0  0  0
   57.5670   23.4120   44.9590 N   0  0  0  0  0  0  0  0  0  0  0  0
   58.6440   22.5000   44.5550 C   0  0  0  0  0  0  0  0  0  0  0  0
   56.2730   23.2090   44.5340 C   0  0  0  0  0  0  0  0  0  0  0  0
   56.0110   22.2160   43.7960 O   0  0  0  0  0  0  0  0  0  0  0  0
   53.2120   23.7568   45.3022 H   0  0  0  0  0  0  0  0  0  0  0  0
   53.5634   24.7217   43.8284 H   0  0  0  0  0  0  0  0  0  0  0  0
   53.8443   22.9475   43.8284 H   0  0  0  0  0  0  0  0  0  0  0  0
   59.7605   26.4728   48.8043 H   0  0  0  0  0  0  0  0  0  0  0  0
   61.4884   27.7179   47.4484 H   0  0  0  0  0  0  0  0  0  0  0  0
   58.9782   27.8217   45.0076 H   0  0  0  0  0  0  0  0  0  0  0  0
   57.9807   29.8200   43.8909 H   0  0  0  0  0  0  0  0  0  0  0  0
   58.3016   32.0908   44.8706 H   0  0  0  0  0  0  0  0  0  0  0  0
   59.0568   30.4462   48.8061 H   0  0  0  0  0  0  0  0  0  0  0  0
   57.4556   29.4638   50.4433 H   0  0  0  0  0  0  0  0  0  0  0  0
   53.6567   29.4576   54.2936 H   0  0  0  0  0  0  0  0  0  0  0  0
   51.2978   30.1974   54.6319 H   0  0  0  0  0  0  0  0  0  0  0  0
   50.1628   31.5920   52.9019 H   0  0  0  0  0  0  0  0  0  0  0  0
   50.2490   32.3860   50.4960 H   0  0  0  0  0  0  0  0  0  0  0  0
   53.7515   31.5142   50.4811 H   0  0  0  0  0  0  0  0  0  0  0  0
   57.4588   33.1802   52.6748 H   0  0  0  0  0  0  0  0  0  0  0  0
   59.0752   34.1483   51.0470 H   0  0  0  0  0  0  0  0  0  0  0  0
   60.6929   30.3809   48.0500 H   0  0  0  0  0  0  0  0  0  0  0  0
   59.1308   22.0878   45.4511 H   0  0  0  0  0  0  0  0  0  0  0  0
   58.2237   21.6790   43.9556 H   0  0  0  0  0  0  0  0  0  0  0  0
   59.3845   23.0498   43.9556 H   0  0  0  0  0  0  0  0  0  0  0  0
  1  2  1  0
  2  3  1  0
  3  4  2  0
  3  5  1  0
  5  6  1  0
  6  7  1  0
  7  8  1  0
  8  9  2  3
  9 10  1  0
 10 11  2  0
 11 12  1  0
 12 13  2  0
 13 14  1  0
 14 15  1  0
 15 16  1  0
 16 17  2  0
 16 18  2  0
 16 19  1  0
 19 20  2  0
 20 21  1  0
 21 22  2  0
 22 23  1  0
 23 24  2  0
 23 25  1  0
 25 26  1  0
 26 27  2  0
 27 28  1  0
 28 29  2  0
 29 30  1  0
 30 31  1  0
 30 32  2  0
 22 33  1  0
 33 34  2  0
 14 35  2  0
  7 36  2  0
 36 37  1  0
 37 38  1  0
 38 39  1  0
 38 40  1  0
 40 41  2  0
 40  2  1  0
 37  5  2  0
 35 10  1  0
 34 19  1  0
 32 26  1  0
  1 42  1  0
  1 43  1  0
  1 44  1  0
  8 45  1  0
  9 46  1  0
 11 47  1  0
 12 48  1  0
 13 49  1  0
 20 50  1  0
 21 51  1  0
 27 52  1  0
 28 53  1  0
 29 54  1  0
 31 55  1  0
 32 56  1  0
 33 57  1  0
 34 58  1  0
 35 59  1  0
 39 60  1  0
 39 61  1  0
 39 62  1  0
M  CHG  3   6  -1  15  -1  25  -1
M  END
>  <UniqueID>  (54) 
49

>  <SMILES>  (54) 
Cn1c(=O)c2[n-]c(C=Cc3cccc([N-]S(=O)(=O)c4ccc(C(=O)[N-]c5cccc(O)c5)cc4)c3)nc2n(C)c1=O

>  <Energy>  (54) 
120.19882968580161

>  <Genealogy>  (54) 
Cn1c(=O)c2[n-]c(C=Cc3cccc([N-]S(=O)(=O)c4ccc(C(=O)[N-]c5cccc(O)c5)cc4)c3)nc2n(C)c1=O (protonated)
Cn1c(=O)c2[n-]c(C=Cc3cccc([N-]S(=O)(=O)c4ccc(C(=O)[N-]c5cccc(O)c5)cc4)c3)nc2n(C)c1=O (3D coordinates assigned)
Cn1c(=O)c2[n-]c(C=Cc3cccc([N-]S(=O)(=O)c4ccc(C(=O)[N-]c5cccc(O)c5)cc4)c3)nc2n(C)c1=O (optimized conformer: 120.19882968580161 kcal/mol)

>  <smiles>  (54) 
Cn1c(=O)c2[nH]c(C=Cc3cccc(NS(=O)(=O)c4ccc(C(=O)Nc5cccc(O)c5)cc4)c3)nc2n(C)c1=O

>  <score_type>  (54) 
oracle

>  <origin>  (54) 
adg

>  <m_score__min__energy>  (54) 
-15.85

>  <m_primary>  (54) 
energy

$$$$
54:0
     RDKit          3D

 27 28  0  0  0  0  0  0  0  0999 V2000
   56.2890   31.5100   44.8570 O   0  0  0  0  0  0  0  0  0  0  0  0
   57.4200   31.3830   44.3140 C   0  0  0  0  0  0  0  0  0  0  0  0
   58.1180   32.5950   43.7780 C   0  0  0  0  0  0  0  0  0  0  0  0
   58.5550   33.4790   44.9140 C   0  0  0  0  0  0  0  0  0  0  0  0
   59.2090   34.6960   44.6560 C   0  0  0  0  0  0  0  0  0  0  0  0
   59.6460   35.4980   45.7140 C   0  0  0  0  0  0  0  0  0  0  0  0
   59.4430   35.0880   47.0340 C   0  0  0  0  0  0  0  0  0  0  0  0
   58.8050   33.8740   47.2990 C   0  0  0  0  0  0  0  0  0  0  0  0
   58.3650   33.0670   46.2440 C   0  0  0  0  0  0  0  0  0  0  0  0
   58.0410   30.0930   44.2090 N   0  0  0  0  0  0  0  0  0  0  0  0
   57.5940   28.9260   44.9240 C   0  0  0  0  0  0  0  0  0  0  0  0
   58.5010   28.0510   45.5410 C   0  0  0  0  0  0  0  0  0  0  0  0
   58.0480   26.9400   46.1800 N   0  0  0  0  0  0  0  0  0  0  0  0
   56.7220   26.6540   46.2280 C   0  0  0  0  0  0  0  0  0  0  0  0
   56.3240   25.6220   46.8290 O   0  0  0  0  0  0  0  0  0  0  0  0
   55.8260   27.4740   45.6230 N   0  0  0  0  0  0  0  0  0  0  0  0
   56.2310   28.5950   44.9690 C   0  0  0  0  0  0  0  0  0  0  0  0
   55.3730   29.3320   44.4170 O   0  0  0  0  0  0  0  0  0  0  0  0
   58.9997   32.2820   43.1995 H   0  0  0  0  0  0  0  0  0  0  0  0
   57.4268   33.1537   43.1298 H   0  0  0  0  0  0  0  0  0  0  0  0
   59.3775   35.0184   43.6179 H   0  0  0  0  0  0  0  0  0  0  0  0
   60.1505   36.4533   45.5070 H   0  0  0  0  0  0  0  0  0  0  0  0
   59.7858   35.7217   47.8652 H   0  0  0  0  0  0  0  0  0  0  0  0
   58.6482   33.5518   48.3390 H   0  0  0  0  0  0  0  0  0  0  0  0
   57.8694   32.1082   46.4561 H   0  0  0  0  0  0  0  0  0  0  0  0
   58.8310   29.9870   43.5340 H   0  0  0  0  0  0  0  0  0  0  0  0
   59.5796   28.2643   45.5076 H   0  0  0  0  0  0  0  0  0  0  0  0
  1  2  2  0
  2  3  1  0
  3  4  1  0
  4  5  2  0
  5  6  1  0
  6  7  2  0
  7  8  1  0
  8  9  2  0
  2 10  1  0
 10 11  1  0
 11 12  2  0
 12 13  1  0
 13 14  1  0
 14 15  2  0
 14 16  1  0
 16 17  1  0
 17 18  2  0
  9  4  1  0
 17 11  1  0
  3 19  1  0
  3 20  1  0
  5 21  1  0
  6 22  1  0
  7 23  1  0
  8 24  1  0
  9 25  1  0
 10 26  1  0
 12 27  1  0
M  CHG  2  13  -1  16  -1
M  END
>  <UniqueID>  (55) 
50

>  <SMILES>  (55) 
O=C(Cc1ccccc1)Nc1c[n-]c(=O)[n-]c1=O

>  <Energy>  (55) 
30.796452893631773

>  <Genealogy>  (55) 
O=C(Cc1ccccc1)Nc1c[n-]c(=O)[n-]c1=O (protonated)
O=C(Cc1ccccc1)Nc1c[n-]c(=O)[n-]c1=O (3D coordinates assigned)
O=C(Cc1ccccc1)Nc1c[n-]c(=O)[n-]c1=O (optimized conformer: 30.796452893631773 kcal/mol)

>  <smiles>  (55) 
O=C(Cc1ccccc1)Nc1c[nH]c(=O)[nH]c1=O

>  <score_type>  (55) 
oracle

>  <origin>  (55) 
adg

>  <m_score__min__energy>  (55) 
-11.41

>  <m_primary>  (55) 
energy

$$$$
55:0
     RDKit          3D

 34 36  0  0  0  0  0  0  0  0999 V2000
   53.2900   25.7350   46.0490 H   0  0  0  0  0  0  0  0  0  0  0  0
   53.1470   24.9520   45.3720 N   0  0  0  0  0  0  0  0  0  0  0  0
   53.9660   23.5730   46.0160 S   0  0  0  0  0  0  0  0  0  0  0  0
   54.1150   23.7070   47.5050 O   0  0  0  0  0  0  0  0  0  0  0  0
   53.1630   22.3380   45.7200 O   0  0  0  0  0  0  0  0  0  0  0  0
   55.5280   23.4150   45.2780 N   0  0  0  0  0  0  0  0  0  0  0  0
   56.6900   24.2100   45.5620 C   0  0  0  0  0  0  0  0  0  0  0  0
   57.9430   23.6230   45.3530 C   0  0  0  0  0  0  0  0  0  0  0  0
   58.0045   22.5916   44.9755 H   0  0  0  0  0  0  0  0  0  0  0  0
   59.1140   24.3310   45.6180 C   0  0  0  0  0  0  0  0  0  0  0  0
   60.0916   23.8597   45.4388 H   0  0  0  0  0  0  0  0  0  0  0  0
   59.0510   25.6360   46.1100 C   0  0  0  0  0  0  0  0  0  0  0  0
   60.5480   26.4880   46.4660 Cl  0  0  0  0  0  0  0  0  0  0  0  0
   57.8070   26.2460   46.3300 C   0  0  0  0  0  0  0  0  0  0  0  0
   57.7680   27.5840   46.8480 N   0  0  0  0  0  0  0  0  0  0  0  0
   57.5450   28.6420   46.1270 C   0  0  0  0  0  0  0  0  0  0  0  0
   58.3800   30.2230   46.3790 S   0  0  0  0  0  0  0  0  0  0  0  0
   57.4260   30.8850   44.9980 C   0  0  0  0  0  0  0  0  0  0  0  0
   57.4660   32.1550   44.5590 C   0  0  0  0  0  0  0  0  0  0  0  0
   56.9405   32.3811   43.6194 H   0  0  0  0  0  0  0  0  0  0  0  0
   58.1570   33.2710   45.2340 C   0  0  0  0  0  0  0  0  0  0  0  0
   58.9120   34.2010   44.6090 N   0  0  0  0  0  0  0  0  0  0  0  0
   59.3340   35.0010   45.6030 C   0  0  0  0  0  0  0  0  0  0  0  0
   59.9798   35.8829   45.4800 H   0  0  0  0  0  0  0  0  0  0  0  0
   58.8320   34.5440   46.7960 C   0  0  0  0  0  0  0  0  0  0  0  0
   59.0116   35.0011   47.7803 H   0  0  0  0  0  0  0  0  0  0  0  0
   58.0860   33.4490   46.5700 N   0  0  0  0  0  0  0  0  0  0  0  0
   56.5660   29.8640   44.3990 C   0  0  0  0  0  0  0  0  0  0  0  0
   55.8150   30.0700   43.4080 O   0  0  0  0  0  0  0  0  0  0  0  0
   56.6380   28.6030   45.0350 N   0  0  0  0  0  0  0  0  0  0  0  0
   56.0900   27.7620   44.7470 H   0  0  0  0  0  0  0  0  0  0  0  0
   56.6170   25.5510   46.0030 C   0  0  0  0  0  0  0  0  0  0  0  0
   55.3810   26.1970   46.0680 O   0  0  0  0  0  0  0  0  0  0  0  0
   54.5310   25.7350   46.3640 H   0  0  0  0  0  0  0  0  0  0  0  0
  1  2  1  0
  2  3  1  0
  3  4  2  0
  3  5  2  0
  3  6  1  0
  6  7  1  0
  7  8  2  0
  8  9  1  0
  8 10  1  0
 10 11  1  0
 10 12  2  0
 12 13  1  0
 12 14  1  0
 14 15  1  0
 15 16  2  3
 16 17  1  0
 17 18  1  0
 18 19  2  0
 19 20  1  0
 19 21  1  0
 21 22  2  0
 22 23  1  0
 23 24  1  0
 23 25  2  0
 25 26  1  0
 25 27  1  0
 18 28  1  0
 28 29  2  0
 28 30  1  0
 30 31  1  0
 14 32  2  0
 32 33  1  0
 33 34  1  0
 32  7  1  0
 30 16  1  0
 27 21  1  0
M  CHG  3   2  -1   6  -1  27  -1
M  END
>  <UniqueID>  (56) 
51

>  <SMILES>  (56) 
[NH-]S(=O)(=O)[N-]c1ccc(Cl)c(N=C2NC(=O)/C(=C/c3ncc[n-]3)S2)c1O

>  <Energy>  (56) 
97.07709695341067

>  <Genealogy>  (56) 
[NH-]S(=O)(=O)[N-]c1ccc(Cl)c(N=C2NC(=O)C(=Cc3ncc[n-]3)S2)c1O (protonated)
[NH-]S(=O)(=O)[N-]c1ccc(Cl)c(N=C2NC(=O)/C(=C/c3ncc[n-]3)S2)c1O (cis-trans isomerization)
[NH-]S(=O)(=O)[N-]c1ccc(Cl)c(N=C2NC(=O)/C(=C/c3ncc[n-]3)S2)c1O (3D coordinates assigned)
[NH-]S(=O)(=O)[N-]c1ccc(Cl)c(N=C2NC(=O)/C(=C/c3ncc[n-]3)S2)c1O (nonaromatic ring conformer: 97.07709695341067 kcal/mol)

>  <smiles>  (56) 
NS(=O)(=O)Nc1ccc(Cl)c(N=C2NC(=O)C(=Cc3ncc[nH]3)S2)c1O

>  <score_type>  (56) 
oracle

>  <origin>  (56) 
adg

>  <m_score__min__energy>  (56) 
-14.01

>  <m_primary>  (56) 
energy

$$$$
56:0
     RDKit          3D

 31 33  0  0  0  0  0  0  0  0999 V2000
   56.4990   29.5210   45.4430 O   0  0  0  0  0  0  0  0  0  0  0  0
   57.6770   29.1610   45.7110 C   0  0  0  0  0  0  0  0  0  0  0  0
   57.9540   27.8080   46.0940 N   0  0  0  0  0  0  0  0  0  0  0  0
   57.2650   26.6330   45.6430 C   0  0  0  0  0  0  0  0  0  0  0  0
   57.9010   25.7970   44.7160 C   0  0  0  0  0  0  0  0  0  0  0  0
   57.2640   24.6510   44.2340 C   0  0  0  0  0  0  0  0  0  0  0  0
   55.9650   24.3360   44.6630 C   0  0  0  0  0  0  0  0  0  0  0  0
   55.2740   23.1980   44.2100 C   0  0  0  0  0  0  0  0  0  0  0  0
   55.8060   22.3980   43.3940 O   0  0  0  0  0  0  0  0  0  0  0  0
   54.0140   22.9540   44.6550 N   0  0  0  0  0  0  0  0  0  0  0  0
   53.4010   23.7900   45.5330 C   0  0  0  0  0  0  0  0  0  0  0  0
   52.2330   23.5400   45.9270 O   0  0  0  0  0  0  0  0  0  0  0  0
   54.0470   24.8950   45.9860 N   0  0  0  0  0  0  0  0  0  0  0  0
   55.3090   25.1860   45.5770 C   0  0  0  0  0  0  0  0  0  0  0  0
   55.9540   26.3320   46.0570 C   0  0  0  0  0  0  0  0  0  0  0  0
   58.7570   30.1030   45.6490 N   0  0  0  0  0  0  0  0  0  0  0  0
   58.5880   31.5200   45.4720 C   0  0  0  0  0  0  0  0  0  0  0  0
   57.9270   31.9970   44.3290 C   0  0  0  0  0  0  0  0  0  0  0  0
   57.7690   33.3710   44.1250 C   0  0  0  0  0  0  0  0  0  0  0  0
   58.2830   34.2810   45.0520 C   0  0  0  0  0  0  0  0  0  0  0  0
   58.9640   33.8190   46.1810 C   0  0  0  0  0  0  0  0  0  0  0  0
   59.6330   34.9630   47.3310 Cl  0  0  0  0  0  0  0  0  0  0  0  0
   59.1230   32.4430   46.3900 C   0  0  0  0  0  0  0  0  0  0  0  0
   58.9130   26.0457   44.3639 H   0  0  0  0  0  0  0  0  0  0  0  0
   57.7806   23.9950   43.5179 H   0  0  0  0  0  0  0  0  0  0  0  0
   55.4344   26.9995   46.7601 H   0  0  0  0  0  0  0  0  0  0  0  0
   59.7280   29.7170   45.6370 H   0  0  0  0  0  0  0  0  0  0  0  0
   57.5310   31.2854   43.5895 H   0  0  0  0  0  0  0  0  0  0  0  0
   57.2390   33.7362   43.2330 H   0  0  0  0  0  0  0  0  0  0  0  0
   58.1515   35.3615   44.8930 H   0  0  0  0  0  0  0  0  0  0  0  0
   59.6680   32.0825   47.2749 H   0  0  0  0  0  0  0  0  0  0  0  0
  1  2  2  0
  2  3  1  0
  3  4  1  0
  4  5  2  0
  5  6  1  0
  6  7  2  0
  7  8  1  0
  8  9  2  0
  8 10  1  0
 10 11  1  0
 11 12  2  0
 11 13  1  0
 13 14  1  0
 14 15  2  0
  2 16  1  0
 16 17  1  0
 17 18  2  0
 18 19  1  0
 19 20  2  0
 20 21  1  0
 21 22  1  0
 21 23  2  0
 15  4  1  0
 23 17  1  0
 14  7  1  0
  5 24  1  0
  6 25  1  0
 15 26  1  0
 16 27  1  0
 18 28  1  0
 19 29  1  0
 20 30  1  0
 23 31  1  0
M  CHG  3   3  -1  10  -1  13  -1
M  END
>  <UniqueID>  (57) 
52

>  <SMILES>  (57) 
O=C([N-]c1ccc2c(=O)[n-]c(=O)[n-]c2c1)Nc1cccc(Cl)c1

>  <Energy>  (57) 
45.56651811353736

>  <Genealogy>  (57) 
O=C([N-]c1ccc2c(=O)[n-]c(=O)[n-]c2c1)Nc1cccc(Cl)c1 (protonated)
O=C([N-]c1ccc2c(=O)[n-]c(=O)[n-]c2c1)Nc1cccc(Cl)c1 (3D coordinates assigned)
O=C([N-]c1ccc2c(=O)[n-]c(=O)[n-]c2c1)Nc1cccc(Cl)c1 (optimized conformer: 45.56651811353736 kcal/mol)

>  <smiles>  (57) 
O=C(Nc1cccc(Cl)c1)Nc1ccc2c(=O)[nH]c(=O)[nH]c2c1

>  <score_type>  (57) 
oracle

>  <origin>  (57) 
adg

>  <m_score__min__energy>  (57) 
-12.69

>  <m_primary>  (57) 
energy

$$$$
57:0
     RDKit          3D

 32 33  0  0  0  0  0  0  0  0999 V2000
   54.5480   29.3910   45.6510 H   0  0  0  0  0  0  0  0  0  0  0  0
   55.1480   29.3560   44.7960 N   0  0  0  0  0  0  0  0  0  0  0  0
   56.5360   29.6670   44.8640 C   0  0  0  0  0  0  0  0  0  0  0  0
   57.3430   28.8060   45.3070 O   0  0  0  0  0  0  0  0  0  0  0  0
   56.9910   31.0130   44.4630 C   0  0  0  0  0  0  0  0  0  0  0  0
   57.4360   31.1151   43.4622 H   0  0  0  0  0  0  0  0  0  0  0  0
   56.9090   32.1230   45.2130 C   0  0  0  0  0  0  0  0  0  0  0  0
   55.9064   32.4510   45.5250 H   0  0  0  0  0  0  0  0  0  0  0  0
   58.0610   32.9400   45.6530 C   0  0  0  0  0  0  0  0  0  0  0  0
   58.4330   34.0400   44.8660 C   0  0  0  0  0  0  0  0  0  0  0  0
   57.8875   34.2550   43.9353 H   0  0  0  0  0  0  0  0  0  0  0  0
   59.4920   34.8650   45.2560 C   0  0  0  0  0  0  0  0  0  0  0  0
   59.7735   35.7287   44.6357 H   0  0  0  0  0  0  0  0  0  0  0  0
   60.1920   34.5930   46.4320 C   0  0  0  0  0  0  0  0  0  0  0  0
   61.0131   35.2535   46.7474 H   0  0  0  0  0  0  0  0  0  0  0  0
   59.8520   33.4840   47.2090 C   0  0  0  0  0  0  0  0  0  0  0  0
   60.4046   33.2776   48.1374 H   0  0  0  0  0  0  0  0  0  0  0  0
   58.8130   32.6330   46.8150 C   0  0  0  0  0  0  0  0  0  0  0  0
   58.5370   31.5110   47.6100 O   0  0  0  0  0  0  0  0  0  0  0  0
   59.0680   30.2300   47.4030 C   0  0  0  0  0  0  0  0  0  0  0  0
   59.7590   29.9850   46.2590 N   0  0  0  0  0  0  0  0  0  0  0  0
   60.2960   28.7910   45.9900 N   0  0  0  0  0  0  0  0  0  0  0  0
   61.0290   28.6170   44.7370 C   0  0  0  0  0  0  0  0  0  0  0  0
   62.0776   28.3681   44.9572 H   0  0  0  0  0  0  0  0  0  0  0  0
   60.5730   27.8021   44.1556 H   0  0  0  0  0  0  0  0  0  0  0  0
   60.9879   29.5499   44.1556 H   0  0  0  0  0  0  0  0  0  0  0  0
   60.1550   27.7520   46.8690 C   0  0  0  0  0  0  0  0  0  0  0  0
   60.6590   26.6230   46.6210 O   0  0  0  0  0  0  0  0  0  0  0  0
   59.4450   27.9430   48.0540 C   0  0  0  0  0  0  0  0  0  0  0  0
   59.3250   27.1157   48.7690 H   0  0  0  0  0  0  0  0  0  0  0  0
   58.8900   29.1900   48.3230 C   0  0  0  0  0  0  0  0  0  0  0  0
   58.3181   29.3568   49.2477 H   0  0  0  0  0  0  0  0  0  0  0  0
  1  2  1  0
  2  3  1  0
  3  4  2  0
  3  5  1  0
  5  6  1  0
  5  7  2  0
  7  8  1  0
  7  9  1  0
  9 10  2  0
 10 11  1  0
 10 12  1  0
 12 13  1  0
 12 14  2  0
 14 15  1  0
 14 16  1  0
 16 17  1  0
 16 18  2  0
 18 19  1  0
 19 20  1  0
 20 21  2  0
 21 22  1  0
 22 23  1  0
 23 24  1  0
 23 25  1  0
 23 26  1  0
 22 27  1  0
 27 28  2  0
 27 29  1  0
 29 30  1  0
 29 31  2  0
 31 32  1  0
 18  9  1  0
 31 20  1  0
M  CHG  1   2  -1
M  END
>  <UniqueID>  (58) 
53

>  <SMILES>  (58) 
Cn1nc(Oc2ccccc2/C=C\C([NH-])=O)ccc1=O

>  <Energy>  (58) 
48.27341180963331

>  <Genealogy>  (58) 
Cn1nc(Oc2ccccc2C=CC([NH-])=O)ccc1=O (protonated)
Cn1nc(Oc2ccccc2/C=C\C([NH-])=O)ccc1=O (cis-trans isomerization)
Cn1nc(Oc2ccccc2/C=C\C([NH-])=O)ccc1=O (3D coordinates assigned)
Cn1nc(Oc2ccccc2/C=C\C([NH-])=O)ccc1=O (optimized conformer: 48.27341180963331 kcal/mol)

>  <smiles>  (58) 
Cn1nc(Oc2ccccc2C=CC(N)=O)ccc1=O

>  <score_type>  (58) 
oracle

>  <origin>  (58) 
adg

>  <m_score__min__energy>  (58) 
-10.369999999999999

>  <m_primary>  (58) 
energy

$$$$
58:0
     RDKit          3D

 31 32  0  0  0  0  0  0  0  0999 V2000
   55.1830   29.3210   44.8650 N   0  0  0  0  0  0  0  0  0  0  0  0
   56.8540   29.6280   44.5480 S   0  0  0  0  0  0  0  0  0  0  0  0
   57.0210   29.7010   43.0560 O   0  0  0  0  0  0  0  0  0  0  0  0
   57.2630   30.9500   45.1340 O   0  0  0  0  0  0  0  0  0  0  0  0
   57.8690   28.3140   45.1870 C   0  0  0  0  0  0  0  0  0  0  0  0
   57.9560   27.1560   44.3950 C   0  0  0  0  0  0  0  0  0  0  0  0
   58.4170   25.9570   44.9290 C   0  0  0  0  0  0  0  0  0  0  0  0
   58.7760   25.9060   46.2690 C   0  0  0  0  0  0  0  0  0  0  0  0
   58.7510   27.0370   47.0190 N   0  0  0  0  0  0  0  0  0  0  0  0
   58.3700   28.2470   46.5270 C   0  0  0  0  0  0  0  0  0  0  0  0
   58.5230   29.2730   47.3200 N   0  0  0  0  0  0  0  0  0  0  0  0
   59.5300   30.2900   47.3220 C   0  0  0  0  0  0  0  0  0  0  0  0
   59.2430   31.5440   47.8760 C   0  0  0  0  0  0  0  0  0  0  0  0
   60.2440   32.5150   47.9780 C   0  0  0  0  0  0  0  0  0  0  0  0
   61.5490   32.2280   47.5590 C   0  0  0  0  0  0  0  0  0  0  0  0
   62.8130   33.4460   47.7010 S   0  0  0  0  0  0  0  0  0  0  0  0
   64.2930   32.6940   48.1870 N   0  0  0  0  0  0  0  0  0  0  0  0
   63.0100   34.1300   46.3780 O   0  0  0  0  0  0  0  0  0  0  0  0
   62.4150   34.4760   48.7210 O   0  0  0  0  0  0  0  0  0  0  0  0
   61.8530   30.9510   47.0680 C   0  0  0  0  0  0  0  0  0  0  0  0
   60.8510   29.9820   46.9640 C   0  0  0  0  0  0  0  0  0  0  0  0
   55.1430   28.6050   45.6240 H   0  0  0  0  0  0  0  0  0  0  0  0
   57.6552   27.1985   43.3378 H   0  0  0  0  0  0  0  0  0  0  0  0
   58.4961   25.0601   44.2970 H   0  0  0  0  0  0  0  0  0  0  0  0
   59.0801   24.9509   46.7221 H   0  0  0  0  0  0  0  0  0  0  0  0
   58.2262   31.7658   48.2322 H   0  0  0  0  0  0  0  0  0  0  0  0
   60.0056   33.5073   48.3886 H   0  0  0  0  0  0  0  0  0  0  0  0
   64.3570   31.7880   47.6730 H   0  0  0  0  0  0  0  0  0  0  0  0
   65.0710   33.2960   47.8330 H   0  0  0  0  0  0  0  0  0  0  0  0
   62.8824   30.7108   46.7638 H   0  0  0  0  0  0  0  0  0  0  0  0
   61.0992   28.9741   46.6001 H   0  0  0  0  0  0  0  0  0  0  0  0
  1  2  1  0
  2  3  2  0
  2  4  2  0
  2  5  1  0
  5  6  2  0
  6  7  1  0
  7  8  2  0
  8  9  1  0
  9 10  1  0
 10 11  2  3
 11 12  1  0
 12 13  2  0
 13 14  1  0
 14 15  2  0
 15 16  1  0
 16 17  1  0
 16 18  2  0
 16 19  2  0
 15 20  1  0
 20 21  2  0
 10  5  1  0
 21 12  1  0
  1 22  1  0
  6 23  1  0
  7 24  1  0
  8 25  1  0
 13 26  1  0
 14 27  1  0
 17 28  1  0
 17 29  1  0
 20 30  1  0
 21 31  1  0
M  CHG  2   1  -1   9  -1
M  END
>  <UniqueID>  (59) 
54

>  <SMILES>  (59) 
[NH-]S(=O)(=O)c1ccc[n-]c1=Nc1ccc(S(N)(=O)=O)cc1

>  <Energy>  (59) 
52.59721960044831

>  <Genealogy>  (59) 
[NH-]S(=O)(=O)c1ccc[n-]c1=Nc1ccc(S(N)(=O)=O)cc1 (protonated)
[NH-]S(=O)(=O)c1ccc[n-]c1=Nc1ccc(S(N)(=O)=O)cc1 (3D coordinates assigned)
[NH-]S(=O)(=O)c1ccc[n-]c1=Nc1ccc(S(N)(=O)=O)cc1 (optimized conformer: 52.59721960044831 kcal/mol)

>  <smiles>  (59) 
NS(=O)(=O)c1ccc(N=c2[nH]cccc2S(N)(=O)=O)cc1

>  <score_type>  (59) 
oracle

>  <origin>  (59) 
adg

>  <m_score__min__energy>  (59) 
-12.42

>  <m_primary>  (59) 
energy

$$$$
59:0
     RDKit          3D

 25 26  0  0  0  0  0  0  0  0999 V2000
   64.1760   32.4570   49.3260 O   0  0  0  0  0  0  0  0  0  0  0  0
   63.5320   32.9260   48.3330 C   0  0  0  0  0  0  0  0  0  0  0  0
   63.9290   33.0670   47.0640 N   0  0  0  0  0  0  0  0  0  0  0  0
   62.9650   33.6000   46.3220 N   0  0  0  0  0  0  0  0  0  0  0  0
   61.8700   33.8350   47.0880 C   0  0  0  0  0  0  0  0  0  0  0  0
   60.5650   34.4140   46.7010 C   0  0  0  0  0  0  0  0  0  0  0  0
   59.5810   33.4050   46.2620 C   0  0  0  0  0  0  0  0  0  0  0  0
   59.7210   32.0490   46.4770 C   0  0  0  0  0  0  0  0  0  0  0  0
   58.7570   31.1430   46.0360 C   0  0  0  0  0  0  0  0  0  0  0  0
   57.6320   31.6260   45.3630 C   0  0  0  0  0  0  0  0  0  0  0  0
   56.6560   30.7140   44.9170 O   0  0  0  0  0  0  0  0  0  0  0  0
   57.4750   32.9970   45.1370 C   0  0  0  0  0  0  0  0  0  0  0  0
   58.4540   33.8870   45.5870 C   0  0  0  0  0  0  0  0  0  0  0  0
   62.2350   33.4050   48.3670 C   0  0  0  0  0  0  0  0  0  0  0  0
   61.4710   33.4270   49.5260 O   0  0  0  0  0  0  0  0  0  0  0  0
   64.8920   32.7850   46.7130 H   0  0  0  0  0  0  0  0  0  0  0  0
   63.0350   33.8100   45.2870 H   0  0  0  0  0  0  0  0  0  0  0  0
   60.1511   34.9502   47.5677 H   0  0  0  0  0  0  0  0  0  0  0  0
   60.7476   35.0817   45.8461 H   0  0  0  0  0  0  0  0  0  0  0  0
   60.6100   31.6757   47.0064 H   0  0  0  0  0  0  0  0  0  0  0  0
   58.8804   30.0647   46.2152 H   0  0  0  0  0  0  0  0  0  0  0  0
   56.2410   30.1120   45.6200 H   0  0  0  0  0  0  0  0  0  0  0  0
   56.5865   33.3726   44.6083 H   0  0  0  0  0  0  0  0  0  0  0  0
   58.3386   34.9666   45.4106 H   0  0  0  0  0  0  0  0  0  0  0  0
   61.9190   33.0640   50.3760 H   0  0  0  0  0  0  0  0  0  0  0  0
  1  2  2  0
  2  3  1  0
  3  4  1  0
  4  5  1  0
  5  6  1  0
  6  7  1  0
  7  8  2  0
  8  9  1  0
  9 10  2  0
 10 11  1  0
 10 12  1  0
 12 13  2  0
  5 14  2  0
 14 15  1  0
 14  2  1  0
 13  7  1  0
  3 16  1  0
  4 17  1  0
  6 18  1  0
  6 19  1  0
  8 20  1  0
  9 21  1  0
 11 22  1  0
 12 23  1  0
 13 24  1  0
 15 25  1  0
M  END
>  <smiles>  (60) 
O=c1[nH][nH]c(Cc2ccc(O)cc2)c1O

>  <score_type>  (60) 
oracle

>  <origin>  (60) 
adg

>  <m_score__min__energy>  (60) 
-6.4299999999999997

>  <m_primary>  (60) 
energy

$$$$
60:0
     RDKit          3D

 36 38  0  0  0  0  0  0  0  0999 V2000
   57.2133   27.3680   45.6669 H   0  0  0  0  0  0  0  0  0  0  0  0
   56.7770   28.2220   45.1280 C   0  0  0  0  0  0  0  0  0  0  0  0
   55.5400   28.6520   45.2460 O   0  0  0  0  0  0  0  0  0  0  0  0
   55.3170   29.6810   44.4810 N   0  0  0  0  0  0  0  0  0  0  0  0
   56.4710   29.9350   43.8400 C   0  0  0  0  0  0  0  0  0  0  0  0
   56.5950   30.8910   42.9670 N   0  0  0  0  0  0  0  0  0  0  0  0
   57.5920   31.9230   42.9800 C   0  0  0  0  0  0  0  0  0  0  0  0
   58.1420   32.2430   41.8920 O   0  0  0  0  0  0  0  0  0  0  0  0
   57.9400   32.6650   44.2160 C   0  0  0  0  0  0  0  0  0  0  0  0
   57.3920   32.2930   45.4560 C   0  0  0  0  0  0  0  0  0  0  0  0
   56.6959   31.4431   45.5123 H   0  0  0  0  0  0  0  0  0  0  0  0
   57.7250   32.9950   46.6180 C   0  0  0  0  0  0  0  0  0  0  0  0
   57.2873   32.6979   47.5825 H   0  0  0  0  0  0  0  0  0  0  0  0
   58.6170   34.0790   46.5580 C   0  0  0  0  0  0  0  0  0  0  0  0
   58.9640   34.8340   47.7280 N   0  0  0  0  0  0  0  0  0  0  0  0
   60.0680   34.5660   48.6010 C   0  0  0  0  0  0  0  0  0  0  0  0
   59.8710   34.5540   49.8450 O   0  0  0  0  0  0  0  0  0  0  0  0
   61.3980   34.4160   48.0790 N   0  0  0  0  0  0  0  0  0  0  0  0
   61.6070   34.8500   47.1510 H   0  0  0  0  0  0  0  0  0  0  0  0
   62.4820   33.8080   48.8010 C   0  0  0  0  0  0  0  0  0  0  0  0
   62.8960   34.3660   50.0210 C   0  0  0  0  0  0  0  0  0  0  0  0
   62.3772   35.2497   50.4208 H   0  0  0  0  0  0  0  0  0  0  0  0
   63.9630   33.8070   50.7320 C   0  0  0  0  0  0  0  0  0  0  0  0
   64.2721   34.2440   51.6930 H   0  0  0  0  0  0  0  0  0  0  0  0
   64.6370   32.6930   50.2220 C   0  0  0  0  0  0  0  0  0  0  0  0
   65.9780   31.9950   51.1120 Cl  0  0  0  0  0  0  0  0  0  0  0  0
   64.2470   32.1430   48.9980 C   0  0  0  0  0  0  0  0  0  0  0  0
   64.7812   31.2707   48.5934 H   0  0  0  0  0  0  0  0  0  0  0  0
   63.1790   32.6990   48.2860 C   0  0  0  0  0  0  0  0  0  0  0  0
   62.8824   32.2673   47.3187 H   0  0  0  0  0  0  0  0  0  0  0  0
   59.1280   34.4790   45.3190 C   0  0  0  0  0  0  0  0  0  0  0  0
   59.7943   35.3522   45.2593 H   0  0  0  0  0  0  0  0  0  0  0  0
   58.7980   33.7770   44.1560 C   0  0  0  0  0  0  0  0  0  0  0  0
   59.2121   34.0966   43.1883 H   0  0  0  0  0  0  0  0  0  0  0  0
   57.4360   29.0190   44.2170 C   0  0  0  0  0  0  0  0  0  0  0  0
   58.4781   28.9445   43.8728 H   0  0  0  0  0  0  0  0  0  0  0  0
  1  2  1  0
  2  3  1  0
  3  4  1  0
  4  5  1  0
  5  6  2  0
  6  7  1  0
  7  8  2  0
  7  9  1  0
  9 10  2  0
 10 11  1  0
 10 12  1  0
 12 13  1  0
 12 14  2  0
 14 15  1  0
 15 16  1  0
 16 17  2  0
 16 18  1  0
 18 19  1  0
 18 20  1  0
 20 21  2  0
 21 22  1  0
 21 23  1  0
 23 24  1  0
 23 25  2  0
 25 26  1  0
 25 27  1  0
 27 28  1  0
 27 29  2  0
 29 30  1  0
 14 31  1  0
 31 32  1  0
 31 33  2  0
 33 34  1  0
  5 35  1  0
 35 36  1  0
 35  2  2  0
 33  9  1  0
 29 20  1  0
M  CHG  2   4  -1  15  -1
M  END
>  <UniqueID>  (61) 
55

>  <SMILES>  (61) 
O=C([N-]c1ccc(C(=O)/N=c2\cco[n-]2)cc1)Nc1ccc(Cl)cc1

>  <Energy>  (61) 
84.89020655946118

>  <Genealogy>  (61) 
O=C([N-]c1ccc(C(=O)N=c2cco[n-]2)cc1)Nc1ccc(Cl)cc1 (protonated)
O=C([N-]c1ccc(C(=O)/N=c2\cco[n-]2)cc1)Nc1ccc(Cl)cc1 (cis-trans isomerization)
O=C([N-]c1ccc(C(=O)/N=c2\cco[n-]2)cc1)Nc1ccc(Cl)cc1 (3D coordinates assigned)
O=C([N-]c1ccc(C(=O)/N=c2\cco[n-]2)cc1)Nc1ccc(Cl)cc1 (optimized conformer: 84.89020655946118 kcal/mol)

>  <smiles>  (61) 
O=C(Nc1ccc(Cl)cc1)Nc1ccc(C(=O)N=c2cco[nH]2)cc1

>  <score_type>  (61) 
oracle

>  <origin>  (61) 
adg

>  <m_score__min__energy>  (61) 
-11.550000000000001

>  <m_primary>  (61) 
energy

$$$$
61:0
     RDKit          3D

 47 49  0  0  0  0  0  0  0  0999 V2000
   54.6160   22.7770   45.5980 C   0  0  0  0  0  0  0  0  0  0  0  0
   56.0830   22.6390   45.2820 C   0  0  0  0  0  0  0  0  0  0  0  0
   56.4770   21.7990   44.2260 C   0  0  0  0  0  0  0  0  0  0  0  0
   57.8280   21.6240   43.9230 C   0  0  0  0  0  0  0  0  0  0  0  0
   58.8030   22.2850   44.6660 C   0  0  0  0  0  0  0  0  0  0  0  0
   58.4320   23.1180   45.7230 C   0  0  0  0  0  0  0  0  0  0  0  0
   57.0770   23.2980   46.0530 C   0  0  0  0  0  0  0  0  0  0  0  0
   56.7260   24.1590   47.2460 C   0  0  0  0  0  0  0  0  0  0  0  0
   57.2530   25.5180   47.0930 N   0  0  0  0  0  0  0  0  0  0  0  0
   56.5050   26.3540   45.7600 S   0  0  0  0  0  0  0  0  0  0  0  0
   56.6210   25.5180   44.5160 O   0  0  0  0  0  0  0  0  0  0  0  0
   55.0490   26.5590   46.0710 O   0  0  0  0  0  0  0  0  0  0  0  0
   57.2570   27.9380   45.5310 C   0  0  0  0  0  0  0  0  0  0  0  0
   58.6300   28.0750   45.7770 C   0  0  0  0  0  0  0  0  0  0  0  0
   59.2850   29.2980   45.5430 C   0  0  0  0  0  0  0  0  0  0  0  0
   60.7490   29.4140   45.7350 C   0  0  0  0  0  0  0  0  0  0  0  0
   61.5360   28.9770   44.8510 O   0  0  0  0  0  0  0  0  0  0  0  0
   61.2700   29.9580   46.9560 N   0  0  0  0  0  0  0  0  0  0  0  0
   61.6750   31.3130   47.1930 C   0  0  0  0  0  0  0  0  0  0  0  0
   63.0120   31.6590   47.4500 C   0  0  0  0  0  0  0  0  0  0  0  0
   63.3640   32.9950   47.6530 C   0  0  0  0  0  0  0  0  0  0  0  0
   62.3930   33.9970   47.5900 C   0  0  0  0  0  0  0  0  0  0  0  0
   61.0550   33.6720   47.3110 C   0  0  0  0  0  0  0  0  0  0  0  0
   60.0290   34.7350   47.2310 C   0  0  0  0  0  0  0  0  0  0  0  0
   59.2810   34.9800   48.2150 O   0  0  0  0  0  0  0  0  0  0  0  0
   59.8740   35.4780   46.0660 O   0  0  0  0  0  0  0  0  0  0  0  0
   60.7090   32.3240   47.1050 C   0  0  0  0  0  0  0  0  0  0  0  0
   58.5330   30.3980   45.0990 C   0  0  0  0  0  0  0  0  0  0  0  0
   57.1590   30.2760   44.8860 C   0  0  0  0  0  0  0  0  0  0  0  0
   56.5160   29.0530   45.1000 C   0  0  0  0  0  0  0  0  0  0  0  0
   55.1460   28.9630   44.8800 O   0  0  0  0  0  0  0  0  0  0  0  0
   54.4756   22.7902   46.6889 H   0  0  0  0  0  0  0  0  0  0  0  0
   54.2349   23.7150   45.1679 H   0  0  0  0  0  0  0  0  0  0  0  0
   54.0667   21.9266   45.1679 H   0  0  0  0  0  0  0  0  0  0  0  0
   55.7133   21.2747   43.6329 H   0  0  0  0  0  0  0  0  0  0  0  0
   58.1235   20.9624   43.0954 H   0  0  0  0  0  0  0  0  0  0  0  0
   59.8666   22.1506   44.4197 H   0  0  0  0  0  0  0  0  0  0  0  0
   59.2076   23.6389   46.3037 H   0  0  0  0  0  0  0  0  0  0  0  0
   55.6314   24.2076   47.3436 H   0  0  0  0  0  0  0  0  0  0  0  0
   57.1762   23.7101   48.1437 H   0  0  0  0  0  0  0  0  0  0  0  0
   59.2023   27.2161   46.1575 H   0  0  0  0  0  0  0  0  0  0  0  0
   63.7833   30.8758   47.4914 H   0  0  0  0  0  0  0  0  0  0  0  0
   64.4108   33.2595   47.8635 H   0  0  0  0  0  0  0  0  0  0  0  0
   62.6774   35.0460   47.7597 H   0  0  0  0  0  0  0  0  0  0  0  0
   59.6668   32.0604   46.8719 H   0  0  0  0  0  0  0  0  0  0  0  0
   59.0303   31.3623   44.9179 H   0  0  0  0  0  0  0  0  0  0  0  0
   56.5786   31.1471   44.5478 H   0  0  0  0  0  0  0  0  0  0  0  0
  1  2  1  0
  2  3  2  0
  3  4  1  0
  4  5  2  0
  5  6  1  0
  6  7  2  0
  7  8  1  0
  8  9  1  0
  9 10  1  0
 10 11  2  0
 10 12  2  0
 10 13  1  0
 13 14  2  0
 14 15  1  0
 15 16  1  0
 16 17  2  0
 16 18  1  0
 18 19  1  0
 19 20  2  0
 20 21  1  0
 21 22  2  0
 22 23  1  0
 23 24  1  0
 24 25  2  0
 24 26  1  0
 23 27  2  0
 15 28  2  0
 28 29  1  0
 29 30  2  0
 30 31  1  0
  7  2  1  0
 30 13  1  0
 27 19  1  0
  1 32  1  0
  1 33  1  0
  1 34  1  0
  3 35  1  0
  4 36  1  0
  5 37  1  0
  6 38  1  0
  8 39  1  0
  8 40  1  0
 14 41  1  0
 20 42  1  0
 21 43  1  0
 22 44  1  0
 27 45  1  0
 28 46  1  0
 29 47  1  0
M  CHG  4   9  -1  18  -1  26  -1  31  -1
M  END
>  <UniqueID>  (62) 
56

>  <SMILES>  (62) 
Cc1ccccc1C[N-]S(=O)(=O)c1cc(C(=O)[N-]c2cccc(C(=O)[O-])c2)ccc1[O-]

>  <Energy>  (62) 
50.59996076092331

>  <Genealogy>  (62) 
Cc1ccccc1C[N-]S(=O)(=O)c1cc(C(=O)[N-]c2cccc(C(=O)[O-])c2)ccc1[O-] (protonated)
Cc1ccccc1C[N-]S(=O)(=O)c1cc(C(=O)[N-]c2cccc(C(=O)[O-])c2)ccc1[O-] (3D coordinates assigned)
Cc1ccccc1C[N-]S(=O)(=O)c1cc(C(=O)[N-]c2cccc(C(=O)[O-])c2)ccc1[O-] (optimized conformer: 50.59996076092331 kcal/mol)

>  <smiles>  (62) 
Cc1ccccc1CNS(=O)(=O)c1cc(C(=O)Nc2cccc(C(=O)O)c2)ccc1O

>  <score_type>  (62) 
oracle

>  <origin>  (62) 
adg

>  <m_score__min__energy>  (62) 
-16.399999999999999

>  <m_primary>  (62) 
energy

$$$$
62:0
     RDKit          3D

 50 51  0  0  0  0  0  0  0  0999 V2000
   60.3330   30.4460   48.0290 C   0  0  0  0  0  0  0  0  0  0  0  0
   61.1360   31.3830   47.1210 C   0  0  0  0  0  0  0  0  0  0  0  0
   60.9450   32.8180   47.4130 N   0  0  0  0  0  0  0  0  0  0  0  0
   61.9700   33.6840   46.7990 C   0  0  0  0  0  0  0  0  0  0  0  0
   63.3670   33.2690   47.2510 C   0  0  0  0  0  0  0  0  0  0  0  0
   59.2970   33.3700   47.1510 S   0  0  0  0  0  0  0  0  0  0  0  0
   58.4540   33.0050   48.3420 O   0  0  0  0  0  0  0  0  0  0  0  0
   59.2980   34.8690   47.0450 O   0  0  0  0  0  0  0  0  0  0  0  0
   58.5340   32.7170   45.6930 C   0  0  0  0  0  0  0  0  0  0  0  0
   58.5360   33.4520   44.4970 C   0  0  0  0  0  0  0  0  0  0  0  0
   57.9550   32.9230   43.3430 C   0  0  0  0  0  0  0  0  0  0  0  0
   57.3840   31.6490   43.3660 C   0  0  0  0  0  0  0  0  0  0  0  0
   57.4060   30.8910   44.5430 C   0  0  0  0  0  0  0  0  0  0  0  0
   56.6690   29.2890   44.5660 S   0  0  0  0  0  0  0  0  0  0  0  0
   55.1760   29.4450   44.5000 O   0  0  0  0  0  0  0  0  0  0  0  0
   57.1130   28.4970   43.3680 O   0  0  0  0  0  0  0  0  0  0  0  0
   57.0810   28.4290   46.0240 N   0  0  0  0  0  0  0  0  0  0  0  0
   58.4850   28.0150   46.0290 C   0  0  0  0  0  0  0  0  0  0  0  0
   58.6700   26.7650   46.8300 C   0  0  0  0  0  0  0  0  0  0  0  0
   59.8290   26.3890   47.1460 O   0  0  0  0  0  0  0  0  0  0  0  0
   57.5300   25.9780   47.1890 N   0  0  0  0  0  0  0  0  0  0  0  0
   56.8480   25.1000   46.2860 C   0  0  0  0  0  0  0  0  0  0  0  0
   57.4820   23.9090   45.9080 C   0  0  0  0  0  0  0  0  0  0  0  0
   56.8330   22.9980   45.0700 C   0  0  0  0  0  0  0  0  0  0  0  0
   55.5520   23.2770   44.5910 C   0  0  0  0  0  0  0  0  0  0  0  0
   54.9230   24.4760   44.9340 C   0  0  0  0  0  0  0  0  0  0  0  0
   55.5690   25.4040   45.7620 C   0  0  0  0  0  0  0  0  0  0  0  0
   54.9330   26.6200   46.0140 O   0  0  0  0  0  0  0  0  0  0  0  0
   57.9890   31.4250   45.7020 C   0  0  0  0  0  0  0  0  0  0  0  0
   60.5408   30.6885   49.0816 H   0  0  0  0  0  0  0  0  0  0  0  0
   59.2589   30.5728   47.8286 H   0  0  0  0  0  0  0  0  0  0  0  0
   60.6228   29.4039   47.8286 H   0  0  0  0  0  0  0  0  0  0  0  0
   62.2037   31.1460   47.2384 H   0  0  0  0  0  0  0  0  0  0  0  0
   60.7735   31.2176   46.0957 H   0  0  0  0  0  0  0  0  0  0  0  0
   61.9049   33.6003   45.7041 H   0  0  0  0  0  0  0  0  0  0  0  0
   61.7903   34.7227   47.1134 H   0  0  0  0  0  0  0  0  0  0  0  0
   63.4082   33.2568   48.3502 H   0  0  0  0  0  0  0  0  0  0  0  0
   63.5942   32.2646   46.8643 H   0  0  0  0  0  0  0  0  0  0  0  0
   64.1057   33.9865   46.8643 H   0  0  0  0  0  0  0  0  0  0  0  0
   58.9978   34.4500   44.4689 H   0  0  0  0  0  0  0  0  0  0  0  0
   57.9470   33.5112   42.4135 H   0  0  0  0  0  0  0  0  0  0  0  0
   56.9162   31.2403   42.4582 H   0  0  0  0  0  0  0  0  0  0  0  0
   58.8100   27.8311   44.9943 H   0  0  0  0  0  0  0  0  0  0  0  0
   59.0861   28.8161   46.4838 H   0  0  0  0  0  0  0  0  0  0  0  0
   58.4963   23.6898   46.2729 H   0  0  0  0  0  0  0  0  0  0  0  0
   57.3326   22.0596   44.7875 H   0  0  0  0  0  0  0  0  0  0  0  0
   55.0375   22.5522   43.9430 H   0  0  0  0  0  0  0  0  0  0  0  0
   53.9146   24.6932   44.5520 H   0  0  0  0  0  0  0  0  0  0  0  0
   55.1480   27.4690   45.5070 H   0  0  0  0  0  0  0  0  0  0  0  0
   58.0188   30.8260   46.6242 H   0  0  0  0  0  0  0  0  0  0  0  0
  1  2  1  0
  2  3  1  0
  3  4  1  0
  4  5  1  0
  3  6  1  0
  6  7  2  0
  6  8  2  0
  6  9  1  0
  9 10  2  0
 10 11  1  0
 11 12  2  0
 12 13  1  0
 13 14  1  0
 14 15  2  0
 14 16  2  0
 14 17  1  0
 17 18  1  0
 18 19  1  0
 19 20  2  0
 19 21  1  0
 21 22  1  0
 22 23  2  0
 23 24  1  0
 24 25  2  0
 25 26  1  0
 26 27  2  0
 27 28  1  0
 13 29  2  0
 29  9  1  0
 27 22  1  0
  1 30  1  0
  1 31  1  0
  1 32  1  0
  2 33  1  0
  2 34  1  0
  4 35  1  0
  4 36  1  0
  5 37  1  0
  5 38  1  0
  5 39  1  0
 10 40  1  0
 11 41  1  0
 12 42  1  0
 18 43  1  0
 18 44  1  0
 23 45  1  0
 24 46  1  0
 25 47  1  0
 26 48  1  0
 28 49  1  0
 29 50  1  0
M  CHG  2  17  -1  21  -1
M  END
>  <UniqueID>  (63) 
57

>  <SMILES>  (63) 
CCN(CC)S(=O)(=O)c1cccc(S(=O)(=O)[N-]CC(=O)[N-]c2ccccc2O)c1

>  <Energy>  (63) 
54.27579194344158

>  <Genealogy>  (63) 
CCN(CC)S(=O)(=O)c1cccc(S(=O)(=O)[N-]CC(=O)[N-]c2ccccc2O)c1 (protonated)
CCN(CC)S(=O)(=O)c1cccc(S(=O)(=O)[N-]CC(=O)[N-]c2ccccc2O)c1 (3D coordinates assigned)
CCN(CC)S(=O)(=O)c1cccc(S(=O)(=O)[N-]CC(=O)[N-]c2ccccc2O)c1 (optimized conformer: 54.27579194344158 kcal/mol)

>  <smiles>  (63) 
CCN(CC)S(=O)(=O)c1cccc(S(=O)(=O)NCC(=O)Nc2ccccc2O)c1

>  <score_type>  (63) 
oracle

>  <origin>  (63) 
adg

>  <m_score__min__energy>  (63) 
-13.130000000000001

>  <m_primary>  (63) 
energy

$$$$
63:0
     RDKit          3D

 37 39  0  0  0  0  0  0  0  0999 V2000
   59.4120   24.3110   45.5130 O   0  0  0  0  0  0  0  0  0  0  0  0
   58.5630   25.2420   45.5430 C   0  0  0  0  0  0  0  0  0  0  0  0
   57.3930   25.1320   44.7220 N   0  0  0  0  0  0  0  0  0  0  0  0
   56.1280   24.6130   45.1510 C   0  0  0  0  0  0  0  0  0  0  0  0
   55.6570   23.3230   45.0180 C   0  0  0  0  0  0  0  0  0  0  0  0
   54.3700   23.3550   45.5260 C   0  0  0  0  0  0  0  0  0  0  0  0
   54.0720   24.5730   45.9290 O   0  0  0  0  0  0  0  0  0  0  0  0
   55.1080   25.3440   45.7060 C   0  0  0  0  0  0  0  0  0  0  0  0
   55.1470   26.7010   45.9980 O   0  0  0  0  0  0  0  0  0  0  0  0
   58.8260   26.4430   46.3700 C   0  0  0  0  0  0  0  0  0  0  0  0
   59.7590   26.3720   47.4160 C   0  0  0  0  0  0  0  0  0  0  0  0
   60.0250   27.4900   48.2040 C   0  0  0  0  0  0  0  0  0  0  0  0
   59.3610   28.6920   47.9620 C   0  0  0  0  0  0  0  0  0  0  0  0
   58.4150   28.7860   46.9280 C   0  0  0  0  0  0  0  0  0  0  0  0
   57.7340   30.0190   46.6450 N   0  0  0  0  0  0  0  0  0  0  0  0
   57.9150   30.9630   45.2000 S   0  0  0  0  0  0  0  0  0  0  0  0
   58.8860   30.2680   44.2880 O   0  0  0  0  0  0  0  0  0  0  0  0
   56.5830   31.0650   44.5120 O   0  0  0  0  0  0  0  0  0  0  0  0
   58.5390   32.5700   45.5730 C   0  0  0  0  0  0  0  0  0  0  0  0
   58.8000   32.9360   46.9040 C   0  0  0  0  0  0  0  0  0  0  0  0
   59.2700   34.2180   47.2000 C   0  0  0  0  0  0  0  0  0  0  0  0
   59.4950   35.1380   46.1730 C   0  0  0  0  0  0  0  0  0  0  0  0
   59.2560   34.7740   44.8460 C   0  0  0  0  0  0  0  0  0  0  0  0
   58.7770   33.4950   44.5420 C   0  0  0  0  0  0  0  0  0  0  0  0
   58.5380   33.1660   43.2480 F   0  0  0  0  0  0  0  0  0  0  0  0
   58.1420   27.6540   46.1320 C   0  0  0  0  0  0  0  0  0  0  0  0
   57.2150   27.7240   45.0900 O   0  0  0  0  0  0  0  0  0  0  0  0
   56.1893   22.4564   44.5988 H   0  0  0  0  0  0  0  0  0  0  0  0
   53.6942   22.4891   45.5847 H   0  0  0  0  0  0  0  0  0  0  0  0
   60.2844   25.4264   47.6153 H   0  0  0  0  0  0  0  0  0  0  0  0
   60.7607   27.4242   49.0191 H   0  0  0  0  0  0  0  0  0  0  0  0
   59.5794   29.5721   48.5847 H   0  0  0  0  0  0  0  0  0  0  0  0
   58.6339   32.2116   47.7150 H   0  0  0  0  0  0  0  0  0  0  0  0
   59.4634   34.5037   48.2445 H   0  0  0  0  0  0  0  0  0  0  0  0
   59.8601   36.1484   46.4094 H   0  0  0  0  0  0  0  0  0  0  0  0
   59.4450   35.4952   44.0372 H   0  0  0  0  0  0  0  0  0  0  0  0
   56.6590   26.9300   44.7990 H   0  0  0  0  0  0  0  0  0  0  0  0
  1  2  2  0
  2  3  1  0
  3  4  1  0
  4  5  1  0
  5  6  2  0
  6  7  1  0
  7  8  1  0
  8  9  1  0
  2 10  1  0
 10 11  2  0
 11 12  1  0
 12 13  2  0
 13 14  1  0
 14 15  1  0
 15 16  1  0
 16 17  2  0
 16 18  2  0
 16 19  1  0
 19 20  2  0
 20 21  1  0
 21 22  2  0
 22 23  1  0
 23 24  2  0
 24 25  1  0
 14 26  2  0
 26 27  1  0
  8  4  2  0
 26 10  1  0
 24 19  1  0
  5 28  1  0
  6 29  1  0
 11 30  1  0
 12 31  1  0
 13 32  1  0
 20 33  1  0
 21 34  1  0
 22 35  1  0
 23 36  1  0
 27 37  1  0
M  CHG  3   3  -1   9  -1  15  -1
M  END
>  <UniqueID>  (64) 
58

>  <SMILES>  (64) 
O=C([N-]c1ccoc1[O-])c1cccc([N-]S(=O)(=O)c2ccccc2F)c1O

>  <Energy>  (64) 
79.63950390829162

>  <Genealogy>  (64) 
O=C([N-]c1ccoc1[O-])c1cccc([N-]S(=O)(=O)c2ccccc2F)c1O (protonated)
O=C([N-]c1ccoc1[O-])c1cccc([N-]S(=O)(=O)c2ccccc2F)c1O (3D coordinates assigned)
O=C([N-]c1ccoc1[O-])c1cccc([N-]S(=O)(=O)c2ccccc2F)c1O (optimized conformer: 79.63950390829162 kcal/mol)

>  <smiles>  (64) 
O=C(Nc1ccoc1O)c1cccc(NS(=O)(=O)c2ccccc2F)c1O

>  <score_type>  (64) 
oracle

>  <origin>  (64) 
adg

>  <m_score__min__energy>  (64) 
-14.369999999999999

>  <m_primary>  (64) 
energy

$$$$
64:0
     RDKit          3D

 34 36  0  0  1  0  0  0  0  0999 V2000
   60.4850   27.4850   46.0760 C   0  0  0  0  0  0  0  0  0  0  0  0
   59.0110   27.1830   46.0520 C   0  0  0  0  0  0  0  0  0  0  0  0
   58.4920   26.0190   46.5640 C   0  0  0  0  0  0  0  0  0  0  0  0
   57.1420   25.7370   46.5440 C   0  0  0  0  0  0  0  0  0  0  0  0
   56.2570   26.6450   45.9940 C   0  0  0  0  0  0  0  0  0  0  0  0
   56.7430   27.8260   45.4710 C   0  0  0  0  0  0  0  0  0  0  0  0
   55.9070   28.8190   44.8850 N   0  0  0  0  0  0  0  0  0  0  0  0
   56.3850   29.8150   44.2190 C   0  0  0  0  0  0  0  0  0  0  0  0
   56.9560   30.8000   44.9360 N   0  0  0  0  0  0  0  0  0  0  0  0
   57.4960   31.9040   44.3400 C   0  0  0  0  0  0  0  0  0  0  0  0
   58.1120   32.9630   45.1300 C   0  0  0  0  0  0  0  0  0  0  0  0
   58.7780   34.0360   44.5800 C   0  0  0  0  0  0  0  0  0  0  0  0
   59.3420   35.0120   45.3950 C   0  0  0  0  0  0  0  0  0  0  0  0
   59.2420   34.9150   46.7490 N   0  0  0  0  0  0  0  0  0  0  0  0
   58.5850   33.8540   47.2940 C   0  0  0  0  0  0  0  0  0  0  0  0
   58.0230   32.8850   46.5040 C   0  0  0  0  0  0  0  0  0  0  0  0
   57.4120   31.9320   42.9640 C   0  0  0  0  0  0  0  0  0  0  0  0
   56.8170   30.9020   42.2460 C   0  0  0  0  0  0  0  0  0  0  0  0
   56.2970   29.8310   42.8780 N   0  0  0  0  0  0  0  0  0  0  0  0
   58.1180   28.0850   45.5050 C   0  0  0  0  0  0  0  0  0  0  0  0
   60.8280   27.5553   47.1188 H   0  0  0  0  0  0  0  0  0  0  0  0
   61.0325   26.6804   45.5634 H   0  0  0  0  0  0  0  0  0  0  0  0
   60.6720   28.4401   45.5634 H   0  0  0  0  0  0  0  0  0  0  0  0
   59.1794   25.2834   47.0070 H   0  0  0  0  0  0  0  0  0  0  0  0
   56.7704   24.7911   46.9650 H   0  0  0  0  0  0  0  0  0  0  0  0
   55.1786   26.4290   45.9734 H   0  0  0  0  0  0  0  0  0  0  0  0
   58.8646   34.1218   43.4868 H   0  0  0  0  0  0  0  0  0  0  0  0
   59.8704   35.8648   44.9439 H   0  0  0  0  0  0  0  0  0  0  0  0
   58.5038   33.7731   48.3880 H   0  0  0  0  0  0  0  0  0  0  0  0
   57.4969   32.0386   46.9696 H   0  0  0  0  0  0  0  0  0  0  0  0
   57.8273   32.7931   42.4200 H   0  0  0  0  0  0  0  0  0  0  0  0
   56.7697   30.9613   41.1486 H   0  0  0  0  0  0  0  0  0  0  0  0
   55.8440   29.0410   42.3740 H   0  0  0  0  0  0  0  0  0  0  0  0
   58.4970   29.0290   45.0864 H   0  0  0  0  0  0  0  0  0  0  0  0
  1  2  1  0
  2  3  2  0
  3  4  1  0
  4  5  2  0
  5  6  1  0
  6  7  1  0
  7  8  2  0
  8  9  1  0
  9 10  2  0
 10 11  1  0
 11 12  2  0
 12 13  1  0
 13 14  2  0
 14 15  1  0
 15 16  2  0
 10 17  1  0
 17 18  2  0
 18 19  1  0
  6 20  2  0
 20  2  1  0
 19  8  1  0
 16 11  1  0
  1 21  1  0
  1 22  1  0
  1 23  1  0
  3 24  1  0
  4 25  1  0
  5 26  1  0
 12 27  1  0
 13 28  1  0
 15 29  1  0
 16 30  1  0
 17 31  1  0
 18 32  1  0
 19 33  1  0
 20 34  1  0
M  END
>  <smiles>  (65) 
Cc1cccc(N=c2nc(-c3ccncc3)cc[nH]2)c1

>  <score_type>  (65) 
oracle

>  <origin>  (65) 
adg

>  <m_score__min__energy>  (65) 
-7.79

>  <m_primary>  (65) 
energy

$$$$
65:0
     RDKit          3D

 66 68  0  0  0  0  0  0  0  0999 V2000
   55.1570   26.3240   45.9820 N   0  0  0  0  0  0  0  0  0  0  0  0
   56.8810   26.4420   46.0300 S   0  0  0  0  0  0  0  0  0  0  0  0
   57.4560   25.4340   45.0800 O   0  0  0  0  0  0  0  0  0  0  0  0
   57.3370   26.1390   47.4270 O   0  0  0  0  0  0  0  0  0  0  0  0
   57.4180   28.0640   45.5550 C   0  0  0  0  0  0  0  0  0  0  0  0
   56.5190   28.8890   44.8590 C   0  0  0  0  0  0  0  0  0  0  0  0
   56.8890   30.1720   44.4640 C   0  0  0  0  0  0  0  0  0  0  0  0
   58.1660   30.6470   44.7400 C   0  0  0  0  0  0  0  0  0  0  0  0
   59.0830   29.8460   45.4230 C   0  0  0  0  0  0  0  0  0  0  0  0
   60.3390   30.3210   45.6040 F   0  0  0  0  0  0  0  0  0  0  0  0
   58.7180   28.5510   45.8600 C   0  0  0  0  0  0  0  0  0  0  0  0
   59.6970   27.6970   46.5800 C   0  0  0  0  0  0  0  0  0  0  0  0
   60.2080   28.0220   47.7750 C   0  0  0  0  0  0  0  0  0  0  0  0
   59.4530   28.7990   48.7810 C   0  0  0  0  0  0  0  0  0  0  0  0
   58.1930   28.7890   48.7260 O   0  0  0  0  0  0  0  0  0  0  0  0
   60.1130   29.5500   49.8190 N   0  0  0  0  0  0  0  0  0  0  0  0
   61.3390   30.3030   49.5160 C   0  0  0  0  0  0  0  0  0  0  0  0
   61.2490   31.7520   50.0130 C   0  0  0  0  0  0  0  0  0  0  0  0
   62.2580   32.5860   49.3420 N   0  0  0  0  0  0  0  0  0  0  0  0
   63.4840   31.9700   48.8100 C   0  0  0  0  0  0  0  0  0  0  0  0
   64.5930   32.0360   49.8280 C   0  0  0  0  0  0  0  0  0  0  0  0
   65.5830   33.0280   49.7310 C   0  0  0  0  0  0  0  0  0  0  0  0
   66.6370   33.0650   50.6450 C   0  0  0  0  0  0  0  0  0  0  0  0
   66.7130   32.1150   51.6670 C   0  0  0  0  0  0  0  0  0  0  0  0
   65.7320   31.1250   51.7730 C   0  0  0  0  0  0  0  0  0  0  0  0
   64.6740   31.0850   50.8600 C   0  0  0  0  0  0  0  0  0  0  0  0
   62.0590   34.0120   49.2470 C   0  0  0  0  0  0  0  0  0  0  0  0
   62.5530   34.7800   50.1170 O   0  0  0  0  0  0  0  0  0  0  0  0
   61.3080   34.5610   48.1580 N   0  0  0  0  0  0  0  0  0  0  0  0
   61.1820   33.9220   46.8530 C   0  0  0  0  0  0  0  0  0  0  0  0
   59.7280   33.8090   46.4790 C   0  0  0  0  0  0  0  0  0  0  0  0
   58.7960   33.3010   47.4000 C   0  0  0  0  0  0  0  0  0  0  0  0
   57.4430   33.2220   47.0610 C   0  0  0  0  0  0  0  0  0  0  0  0
   57.0070   33.6640   45.8110 C   0  0  0  0  0  0  0  0  0  0  0  0
   57.9240   34.1890   44.8960 C   0  0  0  0  0  0  0  0  0  0  0  0
   59.2810   34.2620   45.2270 C   0  0  0  0  0  0  0  0  0  0  0  0
   59.4640   29.6870   51.1310 C   0  0  0  0  0  0  0  0  0  0  0  0
   58.1850   30.4570   51.0280 C   0  0  0  0  0  0  0  0  0  0  0  0
   58.1300   31.5170   50.3500 O   0  0  0  0  0  0  0  0  0  0  0  0
   57.0340   29.9750   51.6420 O   0  0  0  0  0  0  0  0  0  0  0  0
   54.7810   27.0980   46.5750 H   0  0  0  0  0  0  0  0  0  0  0  0
   55.5109   28.5172   44.6233 H   0  0  0  0  0  0  0  0  0  0  0  0
   56.1690   30.8113   43.9322 H   0  0  0  0  0  0  0  0  0  0  0  0
   58.4552   31.6585   44.4188 H   0  0  0  0  0  0  0  0  0  0  0  0
   60.0170   26.7550   46.1107 H   0  0  0  0  0  0  0  0  0  0  0  0
   61.2307   27.6976   48.0175 H   0  0  0  0  0  0  0  0  0  0  0  0
   62.1913   29.8097   50.0062 H   0  0  0  0  0  0  0  0  0  0  0  0
   61.4707   30.3212   48.4241 H   0  0  0  0  0  0  0  0  0  0  0  0
   60.2467   32.1489   49.7944 H   0  0  0  0  0  0  0  0  0  0  0  0
   61.4336   31.7703   51.0972 H   0  0  0  0  0  0  0  0  0  0  0  0
   63.2821   30.9174   48.5625 H   0  0  0  0  0  0  0  0  0  0  0  0
   63.7954   32.5187   47.9089 H   0  0  0  0  0  0  0  0  0  0  0  0
   65.5271   33.7799   48.9300 H   0  0  0  0  0  0  0  0  0  0  0  0
   67.4095   33.8436   50.5608 H   0  0  0  0  0  0  0  0  0  0  0  0
   67.5439   32.1463   52.3872 H   0  0  0  0  0  0  0  0  0  0  0  0
   65.7925   30.3760   52.5763 H   0  0  0  0  0  0  0  0  0  0  0  0
   63.9021   30.3065   50.9495 H   0  0  0  0  0  0  0  0  0  0  0  0
   61.7073   34.5258   46.0984 H   0  0  0  0  0  0  0  0  0  0  0  0
   61.6251   32.9161   46.8967 H   0  0  0  0  0  0  0  0  0  0  0  0
   59.1330   32.9643   48.3915 H   0  0  0  0  0  0  0  0  0  0  0  0
   56.7199   32.8106   47.7807 H   0  0  0  0  0  0  0  0  0  0  0  0
   55.9414   33.5992   45.5458 H   0  0  0  0  0  0  0  0  0  0  0  0
   57.5780   34.5452   43.9144 H   0  0  0  0  0  0  0  0  0  0  0  0
   60.0002   34.6754   44.5046 H   0  0  0  0  0  0  0  0  0  0  0  0
   59.2477   28.6850   51.5300 H   0  0  0  0  0  0  0  0  0  0  0  0
   60.1452   30.2338   51.7995 H   0  0  0  0  0  0  0  0  0  0  0  0
  1  2  1  0
  2  3  2  0
  2  4  2  0
  2  5  1  0
  5  6  2  0
  6  7  1  0
  7  8  2  0
  8  9  1  0
  9 10  1  0
  9 11  2  0
 11 12  1  0
 12 13  2  3
 13 14  1  0
 14 15  2  0
 14 16  1  0
 16 17  1  0
 17 18  1  0
 18 19  1  0
 19 20  1  0
 20 21  1  0
 21 22  2  0
 22 23  1  0
 23 24  2  0
 24 25  1  0
 25 26  2  0
 19 27  1  0
 27 28  2  0
 27 29  1  0
 29 30  1  0
 30 31  1  0
 31 32  2  0
 32 33  1  0
 33 34  2  0
 34 35  1  0
 35 36  2  0
 16 37  1  0
 37 38  1  0
 38 39  2  0
 38 40  1  0
 11  5  1  0
 26 21  1  0
 36 31  1  0
  1 41  1  0
  6 42  1  0
  7 43  1  0
  8 44  1  0
 12 45  1  0
 13 46  1  0
 17 47  1  0
 17 48  1  0
 18 49  1  0
 18 50  1  0
 20 51  1  0
 20 52  1  0
 22 53  1  0
 23 54  1  0
 24 55  1  0
 25 56  1  0
 26 57  1  0
 30 58  1  0
 30 59  1  0
 32 60  1  0
 33 61  1  0
 34 62  1  0
 35 63  1  0
 36 64  1  0
 37 65  1  0
 37 66  1  0
M  CHG  3   1  -1  29  -1  40  -1
M  END
>  <UniqueID>  (66) 
59

>  <SMILES>  (66) 
[NH-]S(=O)(=O)c1cccc(F)c1C=CC(=O)N(CCN(Cc1ccccc1)C(=O)[N-]Cc1ccccc1)CC(=O)[O-]

>  <Energy>  (66) 
60.33277013885575

>  <Genealogy>  (66) 
[NH-]S(=O)(=O)c1cccc(F)c1C=CC(=O)N(CCN(Cc1ccccc1)C(=O)[N-]Cc1ccccc1)CC(=O)[O-] (protonated)
[NH-]S(=O)(=O)c1cccc(F)c1C=CC(=O)N(CCN(Cc1ccccc1)C(=O)[N-]Cc1ccccc1)CC(=O)[O-] (3D coordinates assigned)
[NH-]S(=O)(=O)c1cccc(F)c1C=CC(=O)N(CCN(Cc1ccccc1)C(=O)[N-]Cc1ccccc1)CC(=O)[O-] (optimized conformer: 60.33277013885575 kcal/mol)

>  <smiles>  (66) 
NS(=O)(=O)c1cccc(F)c1C=CC(=O)N(CCN(Cc1ccccc1)C(=O)NCc1ccccc1)CC(=O)O

>  <score_type>  (66) 
oracle

>  <origin>  (66) 
adg

>  <m_score__min__energy>  (66) 
-16.629999999999999

>  <m_primary>  (66) 
energy

$$$$
66:0
     RDKit          3D

 49 52  0  0  0  0  0  0  0  0999 V2000
   56.2630   24.1390   46.9980 C   0  0  0  0  0  0  0  0  0  0  0  0
   56.9280   25.0230   45.9810 C   0  0  0  0  0  0  0  0  0  0  0  0
   57.2540   26.3050   46.3210 N   0  0  0  0  0  0  0  0  0  0  0  0
   57.8110   27.1630   45.4250 C   0  0  0  0  0  0  0  0  0  0  0  0
   58.1190   28.4710   45.8320 O   0  0  0  0  0  0  0  0  0  0  0  0
   57.8410   29.6350   45.1010 C   0  0  0  0  0  0  0  0  0  0  0  0
   57.3910   29.5120   43.7830 C   0  0  0  0  0  0  0  0  0  0  0  0
   57.1120   30.6500   43.0230 C   0  0  0  0  0  0  0  0  0  0  0  0
   57.2880   31.9230   43.5710 C   0  0  0  0  0  0  0  0  0  0  0  0
   57.7540   32.0700   44.8890 C   0  0  0  0  0  0  0  0  0  0  0  0
   57.9550   33.4570   45.4770 C   0  0  0  0  0  0  0  0  0  0  0  0
   57.7820   33.4690   47.0200 C   0  0  0  0  0  0  0  0  0  0  0  0
   59.1080   33.7260   47.7500 C   0  0  0  0  0  0  0  0  0  0  0  0
   59.7250   34.9980   47.3330 N   0  0  0  0  0  0  0  0  0  0  0  0
   59.6530   35.2800   45.8830 C   0  0  0  0  0  0  0  0  0  0  0  0
   59.3090   34.0470   45.0360 C   0  0  0  0  0  0  0  0  0  0  0  0
   58.0460   30.9170   45.6420 C   0  0  0  0  0  0  0  0  0  0  0  0
   58.0980   26.7040   44.1320 C   0  0  0  0  0  0  0  0  0  0  0  0
   57.7990   25.4260   43.7960 N   0  0  0  0  0  0  0  0  0  0  0  0
   57.2270   24.5640   44.6790 C   0  0  0  0  0  0  0  0  0  0  0  0
   56.9500   23.2150   44.2620 N   0  0  0  0  0  0  0  0  0  0  0  0
   57.9640   22.1720   44.1130 C   0  0  0  0  0  0  0  0  0  0  0  0
   57.3710   21.1520   43.1120 C   0  0  0  0  0  0  0  0  0  0  0  0
   56.0990   21.6690   42.7490 O   0  0  0  0  0  0  0  0  0  0  0  0
   55.8830   22.8570   43.4060 C   0  0  0  0  0  0  0  0  0  0  0  0
   54.8420   23.5510   43.2550 O   0  0  0  0  0  0  0  0  0  0  0  0
   56.5227   24.4842   48.0096 H   0  0  0  0  0  0  0  0  0  0  0  0
   55.1720   24.1828   46.8644 H   0  0  0  0  0  0  0  0  0  0  0  0
   56.6075   23.1029   46.8644 H   0  0  0  0  0  0  0  0  0  0  0  0
   57.0560   26.6530   47.2860 H   0  0  0  0  0  0  0  0  0  0  0  0
   57.2559   28.5133   43.3422 H   0  0  0  0  0  0  0  0  0  0  0  0
   56.7523   30.5436   41.9889 H   0  0  0  0  0  0  0  0  0  0  0  0
   57.0608   32.8146   42.9682 H   0  0  0  0  0  0  0  0  0  0  0  0
   57.1636   34.1079   45.0771 H   0  0  0  0  0  0  0  0  0  0  0  0
   57.0692   34.2620   47.2904 H   0  0  0  0  0  0  0  0  0  0  0  0
   57.4141   32.4787   47.3264 H   0  0  0  0  0  0  0  0  0  0  0  0
   58.9174   33.7609   48.8328 H   0  0  0  0  0  0  0  0  0  0  0  0
   59.8014   32.9105   47.4966 H   0  0  0  0  0  0  0  0  0  0  0  0
   60.7310   34.9730   47.6220 H   0  0  0  0  0  0  0  0  0  0  0  0
   58.8802   36.0446   45.7149 H   0  0  0  0  0  0  0  0  0  0  0  0
   60.6511   35.6198   45.5694 H   0  0  0  0  0  0  0  0  0  0  0  0
   59.2502   34.3389   43.9771 H   0  0  0  0  0  0  0  0  0  0  0  0
   60.0927   33.2876   45.1741 H   0  0  0  0  0  0  0  0  0  0  0  0
   58.4387   31.0198   46.6644 H   0  0  0  0  0  0  0  0  0  0  0  0
   58.5625   27.3764   43.3957 H   0  0  0  0  0  0  0  0  0  0  0  0
   58.8979   22.5985   43.7181 H   0  0  0  0  0  0  0  0  0  0  0  0
   58.2068   21.7010   45.0769 H   0  0  0  0  0  0  0  0  0  0  0  0
   58.0167   21.0636   42.2259 H   0  0  0  0  0  0  0  0  0  0  0  0
   57.2915   20.1475   43.5533 H   0  0  0  0  0  0  0  0  0  0  0  0
  1  2  1  0
  2  3  2  0
  3  4  1  0
  4  5  1  0
  5  6  1  0
  6  7  2  0
  7  8  1  0
  8  9  2  0
  9 10  1  0
 10 11  1  0
 11 12  1  0
 12 13  1  0
 13 14  1  0
 14 15  1  0
 15 16  1  0
 10 17  2  0
  4 18  2  0
 18 19  1  0
 19 20  2  0
 20 21  1  0
 21 22  1  0
 22 23  1  0
 23 24  1  0
 24 25  1  0
 25 26  2  0
 20  2  1  0
 25 21  1  0
 17  6  1  0
 16 11  1  0
  1 27  1  0
  1 28  1  0
  1 29  1  0
  3 30  1  0
  7 31  1  0
  8 32  1  0
  9 33  1  0
 11 34  1  0
 12 35  1  0
 12 36  1  0
 13 37  1  0
 13 38  1  0
 14 39  1  0
 15 40  1  0
 15 41  1  0
 16 42  1  0
 16 43  1  0
 17 44  1  0
 18 45  1  0
 22 46  1  0
 22 47  1  0
 23 48  1  0
 23 49  1  0
M  CHG  1   3   1
M  END
>  <UniqueID>  (67) 
60

>  <SMILES>  (67) 
Cc1[nH+]c(Oc2cccc(C3CCNCC3)c2)cnc1N1CCOC1=O

>  <Energy>  (67) 
84.87014754709652

>  <Genealogy>  (67) 
Cc1[nH+]c(Oc2cccc(C3CCNCC3)c2)cnc1N1CCOC1=O (protonated)
Cc1[nH+]c(Oc2cccc(C3CCNCC3)c2)cnc1N1CCOC1=O (3D coordinates assigned)
Cc1[nH+]c(Oc2cccc(C3CCNCC3)c2)cnc1N1CCOC1=O (nonaromatic ring conformer: 84.87014754709652 kcal/mol)

>  <smiles>  (67) 
Cc1nc(Oc2cccc(C3CCNCC3)c2)cnc1N1CCOC1=O

>  <score_type>  (67) 
oracle

>  <origin>  (67) 
adg

>  <m_score__min__energy>  (67) 
-7.5300000000000002

>  <m_primary>  (67) 
energy

$$$$
67:0
     RDKit          3D

 34 35  0  0  0  0  0  0  0  0999 V2000
   64.6710   32.9090   49.6720 C   0  0  0  0  0  0  0  0  0  0  0  0
   63.5550   33.4730   48.9080 N   0  0  0  0  0  0  0  0  0  0  0  0
   63.7060   33.7840   47.4800 C   0  0  0  0  0  0  0  0  0  0  0  0
   62.4120   33.4670   46.7220 C   0  0  0  0  0  0  0  0  0  0  0  0
   61.2810   34.1870   47.3230 N   0  0  0  0  0  0  0  0  0  0  0  0
   60.3110   34.8950   46.4800 C   0  0  0  0  0  0  0  0  0  0  0  0
   59.2330   33.9470   46.0270 C   0  0  0  0  0  0  0  0  0  0  0  0
   59.1000   32.6920   46.6390 C   0  0  0  0  0  0  0  0  0  0  0  0
   58.1230   31.7940   46.2010 C   0  0  0  0  0  0  0  0  0  0  0  0
   57.2690   32.1310   45.1430 C   0  0  0  0  0  0  0  0  0  0  0  0
   56.3070   31.1890   44.7440 O   0  0  0  0  0  0  0  0  0  0  0  0
   56.5910   29.8890   44.2300 C   0  0  0  0  0  0  0  0  0  0  0  0
   55.7850   28.9680   44.8720 F   0  0  0  0  0  0  0  0  0  0  0  0
   56.3250   29.8440   42.8730 F   0  0  0  0  0  0  0  0  0  0  0  0
   57.9140   29.5630   44.4630 F   0  0  0  0  0  0  0  0  0  0  0  0
   57.4080   33.3880   44.5240 C   0  0  0  0  0  0  0  0  0  0  0  0
   58.3860   34.2870   44.9630 C   0  0  0  0  0  0  0  0  0  0  0  0
   61.1660   34.2100   48.7580 C   0  0  0  0  0  0  0  0  0  0  0  0
   60.1020   34.5950   49.3160 O   0  0  0  0  0  0  0  0  0  0  0  0
   62.3160   33.7900   49.5680 C   0  0  0  0  0  0  0  0  0  0  0  0
   62.2130   33.7030   50.8220 O   0  0  0  0  0  0  0  0  0  0  0  0
   64.4677   33.0118   50.7481 H   0  0  0  0  0  0  0  0  0  0  0  0
   64.7864   31.8443   49.4207 H   0  0  0  0  0  0  0  0  0  0  0  0
   65.5967   33.4475   49.4207 H   0  0  0  0  0  0  0  0  0  0  0  0
   63.9404   34.8526   47.3650 H   0  0  0  0  0  0  0  0  0  0  0  0
   64.5201   33.1706   47.0664 H   0  0  0  0  0  0  0  0  0  0  0  0
   62.5217   33.7750   45.6717 H   0  0  0  0  0  0  0  0  0  0  0  0
   62.2192   32.3855   46.7787 H   0  0  0  0  0  0  0  0  0  0  0  0
   59.8568   35.7141   47.0568 H   0  0  0  0  0  0  0  0  0  0  0  0
   60.8281   35.3013   45.5982 H   0  0  0  0  0  0  0  0  0  0  0  0
   59.7678   32.4134   47.4675 H   0  0  0  0  0  0  0  0  0  0  0  0
   58.0237   30.8143   46.6911 H   0  0  0  0  0  0  0  0  0  0  0  0
   56.7445   33.6645   43.6913 H   0  0  0  0  0  0  0  0  0  0  0  0
   58.4908   35.2652   44.4709 H   0  0  0  0  0  0  0  0  0  0  0  0
  1  2  1  0
  2  3  1  0
  3  4  1  0
  4  5  1  0
  5  6  1  0
  6  7  1  0
  7  8  2  0
  8  9  1  0
  9 10  2  0
 10 11  1  0
 11 12  1  0
 12 13  1  0
 12 14  1  0
 12 15  1  0
 10 16  1  0
 16 17  2  0
  5 18  1  0
 18 19  2  0
 18 20  1  0
 20 21  2  0
 20  2  1  0
 17  7  1  0
  1 22  1  0
  1 23  1  0
  1 24  1  0
  3 25  1  0
  3 26  1  0
  4 27  1  0
  4 28  1  0
  6 29  1  0
  6 30  1  0
  8 31  1  0
  9 32  1  0
 16 33  1  0
 17 34  1  0
M  END
>  <UniqueID>  (68) 
61

>  <SMILES>  (68) 
CN1CCN(Cc2ccc(OC(F)(F)F)cc2)C(=O)C1=O

>  <Energy>  (68) 
28.75350862242344

>  <Genealogy>  (68) 
CN1CCN(Cc2ccc(OC(F)(F)F)cc2)C(=O)C1=O (3D coordinates assigned)
CN1CCN(Cc2ccc(OC(F)(F)F)cc2)C(=O)C1=O (nonaromatic ring conformer: 28.75350862242344 kcal/mol)

>  <smiles>  (68) 
CN1CCN(Cc2ccc(OC(F)(F)F)cc2)C(=O)C1=O

>  <score_type>  (68) 
oracle

>  <origin>  (68) 
adg

>  <m_score__min__energy>  (68) 
-6.4000000000000004

>  <m_primary>  (68) 
energy

$$$$
68:0
     RDKit          3D

 36 38  0  0  1  0  0  0  0  0999 V2000
   62.0390   32.6400   47.5760 C   0  0  0  0  0  0  0  0  0  0  0  0
   60.9160   31.9840   48.1410 O   0  0  0  0  0  0  0  0  0  0  0  0
   60.6530   30.6740   47.7770 C   0  0  0  0  0  0  0  0  0  0  0  0
   60.1290   29.7360   48.6520 C   0  0  0  0  0  0  0  0  0  0  0  0
   59.8830   28.4420   48.2460 C   0  0  0  0  0  0  0  0  0  0  0  0
   60.1720   28.1000   46.9400 C   0  0  0  0  0  0  0  0  0  0  0  0
   59.8990   26.4590   46.2920 S   0  0  0  0  0  0  0  0  0  0  0  0
   58.1860   26.2210   45.8350 C   0  0  0  0  0  0  0  0  0  0  0  0
   57.3210   25.1000   46.6510 S   0  0  0  0  0  0  0  0  0  0  0  0
   57.5700   26.9810   44.7850 N   0  0  0  0  0  0  0  0  0  0  0  0
   57.2830   28.2280   44.9290 C   0  0  0  0  0  0  0  0  0  0  0  0
   56.0140   28.6770   44.9560 N   0  0  0  0  0  0  0  0  0  0  0  0
   56.0420   30.0030   45.1170 N   0  0  0  0  0  0  0  0  0  0  0  0
   57.3520   30.3570   45.1860 C   0  0  0  0  0  0  0  0  0  0  0  0
   57.7860   31.7390   45.3620 C   0  0  0  0  0  0  0  0  0  0  0  0
   57.9780   32.3100   46.6130 C   0  0  0  0  0  0  0  0  0  0  0  0
   58.3810   33.5950   46.8070 C   0  0  0  0  0  0  0  0  0  0  0  0
   58.6140   34.3810   45.6970 C   0  0  0  0  0  0  0  0  0  0  0  0
   58.4380   33.8610   44.4220 C   0  0  0  0  0  0  0  0  0  0  0  0
   58.0270   32.5530   44.2750 C   0  0  0  0  0  0  0  0  0  0  0  0
   57.7950   31.8660   42.6790 Cl  0  0  0  0  0  0  0  0  0  0  0  0
   58.0850   29.2650   45.0710 O   0  0  0  0  0  0  0  0  0  0  0  0
   60.6970   29.0390   46.0600 C   0  0  0  0  0  0  0  0  0  0  0  0
   60.9450   30.3330   46.4580 C   0  0  0  0  0  0  0  0  0  0  0  0
   62.6862   33.0181   48.3811 H   0  0  0  0  0  0  0  0  0  0  0  0
   62.6040   31.9299   46.9543 H   0  0  0  0  0  0  0  0  0  0  0  0
   61.6980   33.4809   46.9543 H   0  0  0  0  0  0  0  0  0  0  0  0
   59.9055   30.0291   49.6884 H   0  0  0  0  0  0  0  0  0  0  0  0
   59.4672   27.7009   48.9445 H   0  0  0  0  0  0  0  0  0  0  0  0
   55.1420   28.1340   44.8720 H   0  0  0  0  0  0  0  0  0  0  0  0
   57.7933   31.6863   47.5001 H   0  0  0  0  0  0  0  0  0  0  0  0
   58.5175   33.9967   47.8219 H   0  0  0  0  0  0  0  0  0  0  0  0
   58.9405   35.4238   45.8230 H   0  0  0  0  0  0  0  0  0  0  0  0
   58.6247   34.4868   43.5368 H   0  0  0  0  0  0  0  0  0  0  0  0
   60.9188   28.7419   45.0244 H   0  0  0  0  0  0  0  0  0  0  0  0
   61.3599   31.0733   45.7581 H   0  0  0  0  0  0  0  0  0  0  0  0
  1  2  1  0
  2  3  1  0
  3  4  2  0
  4  5  1  0
  5  6  2  0
  6  7  1  0
  7  8  1  0
  8  9  2  0
  8 10  1  0
 10 11  2  0
 11 12  1  0
 12 13  1  0
 13 14  2  0
 14 15  1  0
 15 16  2  0
 16 17  1  0
 17 18  2  0
 18 19  1  0
 19 20  2  0
 20 21  1  0
 14 22  1  0
  6 23  1  0
 23 24  2  0
 24  3  1  0
 22 11  1  0
 20 15  1  0
  1 25  1  0
  1 26  1  0
  1 27  1  0
  4 28  1  0
  5 29  1  0
 12 30  1  0
 16 31  1  0
 17 32  1  0
 18 33  1  0
 19 34  1  0
 23 35  1  0
 24 36  1  0
M  END
>  <smiles>  (69) 
COc1ccc(SC(=S)N=c2[nH]nc(-c3ccccc3Cl)o2)cc1

>  <score_type>  (69) 
oracle

>  <origin>  (69) 
adg

>  <m_score__min__energy>  (69) 
-8.4399999999999995

>  <m_primary>  (69) 
energy

$$$$
69:0
     RDKit          3D

 35 37  0  0  0  0  0  0  0  0999 V2000
   60.4330   27.2510   46.0440 C   0  0  0  0  0  0  0  0  0  0  0  0
   58.9400   27.0680   46.0130 C   0  0  0  0  0  0  0  0  0  0  0  0
   58.3900   25.7900   46.2020 C   0  0  0  0  0  0  0  0  0  0  0  0
   57.0050   25.6080   46.1990 C   0  0  0  0  0  0  0  0  0  0  0  0
   56.1560   26.6980   46.0010 C   0  0  0  0  0  0  0  0  0  0  0  0
   54.7780   26.5130   45.9980 O   0  0  0  0  0  0  0  0  0  0  0  0
   56.6900   27.9740   45.8070 C   0  0  0  0  0  0  0  0  0  0  0  0
   58.0790   28.1700   45.8110 C   0  0  0  0  0  0  0  0  0  0  0  0
   58.6080   29.4890   45.6280 N   0  0  0  0  0  0  0  0  0  0  0  0
   57.7210   30.6730   44.7300 S   0  0  0  0  0  0  0  0  0  0  0  0
   58.0810   30.5520   43.2760 O   0  0  0  0  0  0  0  0  0  0  0  0
   56.2430   30.4390   44.8680 O   0  0  0  0  0  0  0  0  0  0  0  0
   58.1440   32.2820   45.3260 C   0  0  0  0  0  0  0  0  0  0  0  0
   58.1390   33.3710   44.4420 C   0  0  0  0  0  0  0  0  0  0  0  0
   58.5160   34.6440   44.8790 C   0  0  0  0  0  0  0  0  0  0  0  0
   58.9130   34.8460   46.2020 C   0  0  0  0  0  0  0  0  0  0  0  0
   58.9340   33.7700   47.0980 C   0  0  0  0  0  0  0  0  0  0  0  0
   59.3430   33.9450   48.4270 C   0  0  0  0  0  0  0  0  0  0  0  0
   59.3630   32.8540   49.2980 C   0  0  0  0  0  0  0  0  0  0  0  0
   58.9710   31.5970   48.8330 C   0  0  0  0  0  0  0  0  0  0  0  0
   58.9840   30.6030   49.6070 O   0  0  0  0  0  0  0  0  0  0  0  0
   58.5740   31.4410   47.5430 N   0  0  0  0  0  0  0  0  0  0  0  0
   58.5450   32.4800   46.6630 C   0  0  0  0  0  0  0  0  0  0  0  0
   60.7757   27.2930   47.0884 H   0  0  0  0  0  0  0  0  0  0  0  0
   60.9167   26.4054   45.5331 H   0  0  0  0  0  0  0  0  0  0  0  0
   60.6982   28.1884   45.5331 H   0  0  0  0  0  0  0  0  0  0  0  0
   59.0542   24.9263   46.3534 H   0  0  0  0  0  0  0  0  0  0  0  0
   56.5828   24.6040   46.3529 H   0  0  0  0  0  0  0  0  0  0  0  0
   56.0174   28.8302   45.6502 H   0  0  0  0  0  0  0  0  0  0  0  0
   59.3310   29.8390   46.2940 H   0  0  0  0  0  0  0  0  0  0  0  0
   57.8356   33.2218   43.3952 H   0  0  0  0  0  0  0  0  0  0  0  0
   58.4998   35.4908   44.1770 H   0  0  0  0  0  0  0  0  0  0  0  0
   59.2092   35.8498   46.5405 H   0  0  0  0  0  0  0  0  0  0  0  0
   59.6477   34.9401   48.7832 H   0  0  0  0  0  0  0  0  0  0  0  0
   59.6849   32.9836   50.3418 H   0  0  0  0  0  0  0  0  0  0  0  0
  1  2  1  0
  2  3  2  0
  3  4  1  0
  4  5  2  0
  5  6  1  0
  5  7  1  0
  7  8  2  0
  8  9  1  0
  9 10  1  0
 10 11  2  0
 10 12  2  0
 10 13  1  0
 13 14  2  0
 14 15  1  0
 15 16  2  0
 16 17  1  0
 17 18  1  0
 18 19  2  0
 19 20  1  0
 20 21  2  0
 20 22  1  0
 22 23  1  0
  8  2  1  0
 23 13  1  0
 23 17  2  0
  1 24  1  0
  1 25  1  0
  1 26  1  0
  3 27  1  0
  4 28  1  0
  7 29  1  0
  9 30  1  0
 14 31  1  0
 15 32  1  0
 16 33  1  0
 18 34  1  0
 19 35  1  0
M  CHG  2   6  -1  22  -1
M  END
>  <UniqueID>  (70) 
62

>  <SMILES>  (70) 
Cc1ccc([O-])cc1NS(=O)(=O)c1cccc2ccc(=O)[n-]c12

>  <Energy>  (70) 
46.31142022349757

>  <Genealogy>  (70) 
Cc1ccc([O-])cc1NS(=O)(=O)c1cccc2ccc(=O)[n-]c12 (protonated)
Cc1ccc([O-])cc1NS(=O)(=O)c1cccc2ccc(=O)[n-]c12 (3D coordinates assigned)
Cc1ccc([O-])cc1NS(=O)(=O)c1cccc2ccc(=O)[n-]c12 (optimized conformer: 46.31142022349757 kcal/mol)

>  <smiles>  (70) 
Cc1ccc(O)cc1NS(=O)(=O)c1cccc2ccc(=O)[nH]c12

>  <score_type>  (70) 
oracle

>  <origin>  (70) 
adg

>  <m_score__min__energy>  (70) 
-13.550000000000001

>  <m_primary>  (70) 
energy

$$$$
70:0
     RDKit          3D

 50 52  0  0  0  0  0  0  0  0999 V2000
   55.1730   25.3070   45.6250 C   0  0  0  0  0  0  0  0  0  0  0  0
   55.3770   26.7100   45.9690 N   0  0  0  0  0  0  0  0  0  0  0  0
   57.0730   27.0840   45.9280 S   0  0  0  0  0  0  0  0  0  0  0  0
   57.6300   26.9970   47.3210 O   0  0  0  0  0  0  0  0  0  0  0  0
   57.7950   26.0870   45.0640 O   0  0  0  0  0  0  0  0  0  0  0  0
   57.3250   28.7150   45.3100 C   0  0  0  0  0  0  0  0  0  0  0  0
   56.4240   29.2860   44.4040 C   0  0  0  0  0  0  0  0  0  0  0  0
   56.6330   30.5840   43.9380 C   0  0  0  0  0  0  0  0  0  0  0  0
   57.7510   31.3050   44.3820 C   0  0  0  0  0  0  0  0  0  0  0  0
   58.0100   32.7120   43.8950 C   0  0  0  0  0  0  0  0  0  0  0  0
   57.5280   33.7660   44.8220 N   0  0  0  0  0  0  0  0  0  0  0  0
   57.2580   33.2420   46.1710 C   0  0  0  0  0  0  0  0  0  0  0  0
   58.4130   34.9480   44.8830 C   0  0  0  0  0  0  0  0  0  0  0  0
   59.5050   34.7430   45.8910 C   0  0  0  0  0  0  0  0  0  0  0  0
   59.8390   35.6970   46.6450 O   0  0  0  0  0  0  0  0  0  0  0  0
   60.1190   33.4520   46.0250 N   0  0  0  0  0  0  0  0  0  0  0  0
   61.2660   33.1850   46.8510 C   0  0  0  0  0  0  0  0  0  0  0  0
   62.4880   33.8290   46.5640 C   0  0  0  0  0  0  0  0  0  0  0  0
   63.6170   33.6060   47.3660 C   0  0  0  0  0  0  0  0  0  0  0  0
   63.5060   32.7460   48.4590 C   0  0  0  0  0  0  0  0  0  0  0  0
   62.3190   32.1320   48.7590 C   0  0  0  0  0  0  0  0  0  0  0  0
   61.1790   32.3380   47.9780 C   0  0  0  0  0  0  0  0  0  0  0  0
   62.4170   31.2890   49.9720 C   0  0  0  0  0  0  0  0  0  0  0  0
   63.8920   31.4210   50.4000 C   0  0  0  0  0  0  0  0  0  0  0  0
   64.5730   32.4010   49.4250 C   0  0  0  0  0  0  0  0  0  0  0  0
   58.6060   30.7330   45.2740 N   0  0  0  0  0  0  0  0  0  0  0  0
   58.4210   29.4710   45.7430 C   0  0  0  0  0  0  0  0  0  0  0  0
   55.0865   24.7124   46.5464 H   0  0  0  0  0  0  0  0  0  0  0  0
   54.2505   25.2046   45.0346 H   0  0  0  0  0  0  0  0  0  0  0  0
   56.0281   24.9461   45.0346 H   0  0  0  0  0  0  0  0  0  0  0  0
   55.5515   28.7115   44.0596 H   0  0  0  0  0  0  0  0  0  0  0  0
   55.9265   31.0385   43.2279 H   0  0  0  0  0  0  0  0  0  0  0  0
   59.0944   32.8381   43.7605 H   0  0  0  0  0  0  0  0  0  0  0  0
   57.4517   32.8330   42.9549 H   0  0  0  0  0  0  0  0  0  0  0  0
   57.6260   33.9563   46.9222 H   0  0  0  0  0  0  0  0  0  0  0  0
   56.1747   33.1005   46.2994 H   0  0  0  0  0  0  0  0  0  0  0  0
   57.7715   32.2777   46.2994 H   0  0  0  0  0  0  0  0  0  0  0  0
   58.8624   35.1138   43.8928 H   0  0  0  0  0  0  0  0  0  0  0  0
   57.8153   35.8215   45.1827 H   0  0  0  0  0  0  0  0  0  0  0  0
   59.6470   32.6400   45.5660 H   0  0  0  0  0  0  0  0  0  0  0  0
   62.5560   34.5117   45.7042 H   0  0  0  0  0  0  0  0  0  0  0  0
   64.5727   34.1003   47.1373 H   0  0  0  0  0  0  0  0  0  0  0  0
   60.2286   31.8483   48.2367 H   0  0  0  0  0  0  0  0  0  0  0  0
   61.7463   31.6598   50.7611 H   0  0  0  0  0  0  0  0  0  0  0  0
   62.1216   30.2456   49.7873 H   0  0  0  0  0  0  0  0  0  0  0  0
   63.9513   31.8112   51.4268 H   0  0  0  0  0  0  0  0  0  0  0  0
   64.3912   30.4411   50.3750 H   0  0  0  0  0  0  0  0  0  0  0  0
   64.9253   33.2982   49.9551 H   0  0  0  0  0  0  0  0  0  0  0  0
   65.4592   31.9668   48.9391 H   0  0  0  0  0  0  0  0  0  0  0  0
   59.1333   29.0429   46.4637 H   0  0  0  0  0  0  0  0  0  0  0  0
  1  2  1  0
  2  3  1  0
  3  4  2  0
  3  5  2  0
  3  6  1  0
  6  7  2  0
  7  8  1  0
  8  9  2  0
  9 10  1  0
 10 11  1  0
 11 12  1  0
 11 13  1  0
 13 14  1  0
 14 15  2  0
 14 16  1  0
 16 17  1  0
 17 18  2  0
 18 19  1  0
 19 20  2  0
 20 21  1  0
 21 22  2  0
 21 23  1  0
 23 24  1  0
 24 25  1  0
  9 26  1  0
 26 27  2  0
 27  6  1  0
 22 17  1  0
 25 20  1  0
  1 28  1  0
  1 29  1  0
  1 30  1  0
  7 31  1  0
  8 32  1  0
 10 33  1  0
 10 34  1  0
 12 35  1  0
 12 36  1  0
 12 37  1  0
 13 38  1  0
 13 39  1  0
 16 40  1  0
 18 41  1  0
 19 42  1  0
 22 43  1  0
 23 44  1  0
 23 45  1  0
 24 46  1  0
 24 47  1  0
 25 48  1  0
 25 49  1  0
 27 50  1  0
M  CHG  1   2  -1
M  END
>  <UniqueID>  (71) 
63

>  <SMILES>  (71) 
C[N-]S(=O)(=O)c1ccc(CN(C)CC(=O)Nc2ccc3c(c2)CCC3)nc1

>  <Energy>  (71) 
62.027391710707974

>  <Genealogy>  (71) 
C[N-]S(=O)(=O)c1ccc(CN(C)CC(=O)Nc2ccc3c(c2)CCC3)nc1 (protonated)
C[N-]S(=O)(=O)c1ccc(CN(C)CC(=O)Nc2ccc3c(c2)CCC3)nc1 (3D coordinates assigned)
C[N-]S(=O)(=O)c1ccc(CN(C)CC(=O)Nc2ccc3c(c2)CCC3)nc1 (nonaromatic ring conformer: 62.027391710707974 kcal/mol)

>  <smiles>  (71) 
CNS(=O)(=O)c1ccc(CN(C)CC(=O)Nc2ccc3c(c2)CCC3)nc1

>  <score_type>  (71) 
oracle

>  <origin>  (71) 
adg

>  <m_score__min__energy>  (71) 
-11.19

>  <m_primary>  (71) 
energy

$$$$
71:0
     RDKit          3D

 59 59  0  0  0  0  0  0  0  0999 V2000
   57.3203   26.6233   47.5673 H   0  0  0  0  0  0  0  0  0  0  0  0
   57.7790   26.1760   45.5650 C   0  0  0  0  0  0  0  0  0  0  0  0
   57.9600   26.8550   46.7030 C   0  0  0  0  0  0  0  0  0  0  0  0
   58.9980   27.9140   46.8400 C   0  0  0  0  0  0  0  0  0  0  0  0
   58.4899   26.3172   44.7376 H   0  0  0  0  0  0  0  0  0  0  0  0
   59.7660   28.3160   45.8080 C   0  0  0  0  0  0  0  0  0  0  0  0
   60.3962   27.5526   45.3283 H   0  0  0  0  0  0  0  0  0  0  0  0
   56.6530   25.2450   45.3920 C   0  0  0  0  0  0  0  0  0  0  0  0
   56.7460   23.9970   44.9810 O   0  0  0  0  0  0  0  0  0  0  0  0
   55.5240   23.5110   44.9840 C   0  0  0  0  0  0  0  0  0  0  0  0
   55.2470   22.3300   44.6540 O   0  0  0  0  0  0  0  0  0  0  0  0
   54.5990   24.4050   45.3870 N   0  0  0  0  0  0  0  0  0  0  0  0
   53.5670   24.2740   45.4800 H   0  0  0  0  0  0  0  0  0  0  0  0
   55.3220   25.5060   45.6460 C   0  0  0  0  0  0  0  0  0  0  0  0
   54.7870   26.7100   46.1010 O   0  0  0  0  0  0  0  0  0  0  0  0
   59.2350   28.5480   48.1900 C   0  0  0  0  0  0  0  0  0  0  0  0
   58.9679   27.8335   48.9826 H   0  0  0  0  0  0  0  0  0  0  0  0
   60.2961   28.8217   48.2854 H   0  0  0  0  0  0  0  0  0  0  0  0
   58.6136   29.4506   48.2854 H   0  0  0  0  0  0  0  0  0  0  0  0
   59.6650   35.3100   45.9380 C   0  0  0  0  0  0  0  0  0  0  0  0
   60.0314   35.9402   46.7617 H   0  0  0  0  0  0  0  0  0  0  0  0
   60.5145   34.9842   45.3198 H   0  0  0  0  0  0  0  0  0  0  0  0
   58.6010   30.4860   45.6170 C   0  0  0  0  0  0  0  0  0  0  0  0
   58.3859   30.6363   46.6852 H   0  0  0  0  0  0  0  0  0  0  0  0
   57.7350   31.0040   44.7180 C   0  0  0  0  0  0  0  0  0  0  0  0
   56.4070   30.3410   44.4280 C   0  0  0  0  0  0  0  0  0  0  0  0
   55.9071   30.0914   45.3755 H   0  0  0  0  0  0  0  0  0  0  0  0
   55.7728   31.0282   43.8488 H   0  0  0  0  0  0  0  0  0  0  0  0
   56.5752   29.4211   43.8488 H   0  0  0  0  0  0  0  0  0  0  0  0
   58.1070   32.2710   43.9750 C   0  0  0  0  0  0  0  0  0  0  0  0
   57.8026   32.1732   42.9225 H   0  0  0  0  0  0  0  0  0  0  0  0
   59.1950   32.4144   44.0500 H   0  0  0  0  0  0  0  0  0  0  0  0
   57.4080   33.4960   44.5890 C   0  0  0  0  0  0  0  0  0  0  0  0
   56.3194   33.3641   44.5023 H   0  0  0  0  0  0  0  0  0  0  0  0
   57.7456   34.3889   44.0425 H   0  0  0  0  0  0  0  0  0  0  0  0
   57.7620   33.6790   46.0440 C   0  0  0  0  0  0  0  0  0  0  0  0
   56.9836   33.4530   46.7876 H   0  0  0  0  0  0  0  0  0  0  0  0
   58.9610   34.0990   46.5050 C   0  0  0  0  0  0  0  0  0  0  0  0
   59.8420   29.7160   45.2490 C   0  0  0  0  0  0  0  0  0  0  0  0
   58.9616   35.8870   45.3198 H   0  0  0  0  0  0  0  0  0  0  0  0
   59.9285   29.6666   44.1535 H   0  0  0  0  0  0  0  0  0  0  0  0
   60.7211   30.2256   45.6702 H   0  0  0  0  0  0  0  0  0  0  0  0
   59.6370   33.3140   47.6120 C   0  0  0  0  0  0  0  0  0  0  0  0
   60.2713   32.5364   47.1616 H   0  0  0  0  0  0  0  0  0  0  0  0
   58.8546   32.8674   48.2431 H   0  0  0  0  0  0  0  0  0  0  0  0
   60.5090   34.2170   48.4970 C   0  0  0  0  0  0  0  0  0  0  0  0
   60.1330   34.1754   49.5299 H   0  0  0  0  0  0  0  0  0  0  0  0
   60.4561   35.2421   48.1015 H   0  0  0  0  0  0  0  0  0  0  0  0
   61.9550   33.7780   48.4830 C   0  0  0  0  0  0  0  0  0  0  0  0
   62.5853   34.0684   49.3364 H   0  0  0  0  0  0  0  0  0  0  0  0
   62.5280   33.0550   47.4980 C   0  0  0  0  0  0  0  0  0  0  0  0
   63.2380   33.7880   46.3870 C   0  0  0  0  0  0  0  0  0  0  0  0
   63.9420   34.5148   46.8185 H   0  0  0  0  0  0  0  0  0  0  0  0
   63.7900   33.0670   45.7662 H   0  0  0  0  0  0  0  0  0  0  0  0
   62.4997   34.3167   45.7662 H   0  0  0  0  0  0  0  0  0  0  0  0
   62.4710   31.5460   47.4760 C   0  0  0  0  0  0  0  0  0  0  0  0
   62.4566   31.1645   48.5076 H   0  0  0  0  0  0  0  0  0  0  0  0
   61.5599   31.2211   46.9522 H   0  0  0  0  0  0  0  0  0  0  0  0
   63.3550   31.1533   46.9522 H   0  0  0  0  0  0  0  0  0  0  0  0
  1  2  1  0
  2  3  2  0
  3  4  1  0
  4  5  1  0
  4  6  2  0
  6  7  1  0
  6  8  1  0
  8  9  1  0
  9 10  1  0
 10 11  2  0
 10 12  1  0
 12 13  1  0
 12 14  1  0
 14 15  1  0
  3 16  1  0
 16 17  1  0
 16 18  1  0
 16 19  1  0
  2 20  1  0
 20 21  1  0
 20 22  1  0
 20 23  1  0
 23 24  1  0
 23 25  2  3
 25 26  1  0
 26 27  1  0
 26 28  1  0
 26 29  1  0
 25 30  1  0
 30 31  1  0
 30 32  1  0
 30 33  1  0
 33 34  1  0
 33 35  1  0
 33 36  1  0
 36 37  1  0
 36 38  2  0
 38 39  1  0
 39 40  1  0
 39 41  1  0
 39 42  1  0
 38 43  1  0
 43 44  1  0
 43 45  1  0
 43 46  1  0
 46 47  1  0
 46 48  1  0
 46 49  1  0
 49 50  1  0
 49 51  2  3
 51 52  1  0
 52 53  1  0
 52 54  1  0
 52 55  1  0
 51 56  1  0
 56 57  1  0
 56 58  1  0
 56 59  1  0
 14  8  2  0
M  CHG  1  15  -1
M  END
>  <UniqueID>  (72) 
64

>  <SMILES>  (72) 
CC(C)=CCC/C(C)=C/CCC(C)=CCC=C(C)/C=C/c1oc(=O)[nH]c1[O-]

>  <Energy>  (72) 
75.48958729323839

>  <Genealogy>  (72) 
CC(C)=CCCC(C)=CCCC(C)=CCC=C(C)C=Cc1oc(=O)[nH]c1[O-] (protonated)
CC(C)=CCC/C(C)=C/CCC(C)=CCC=C(C)/C=C/c1oc(=O)[nH]c1[O-] (cis-trans isomerization)
CC(C)=CCC/C(C)=C/CCC(C)=CCC=C(C)/C=C/c1oc(=O)[nH]c1[O-] (3D coordinates assigned)
CC(C)=CCC/C(C)=C/CCC(C)=CCC=C(C)/C=C/c1oc(=O)[nH]c1[O-] (optimized conformer: 75.48958729323839 kcal/mol)

>  <smiles>  (72) 
CC(C)=CCCC(C)=CCCC(C)=CCC=C(C)C=Cc1oc(=O)[nH]c1O

>  <score_type>  (72) 
oracle

>  <origin>  (72) 
adg

>  <m_score__min__energy>  (72) 
-11.970000000000001

>  <m_primary>  (72) 
energy

$$$$
72:0
     RDKit          3D

 45 47  0  0  0  0  0  0  0  0999 V2000
   55.9170   22.7580   48.1400 C   0  0  0  0  0  0  0  0  0  0  0  0
   56.9160   23.0750   47.1760 O   0  0  0  0  0  0  0  0  0  0  0  0
   56.7730   22.9160   45.7870 C   0  0  0  0  0  0  0  0  0  0  0  0
   57.4870   21.9180   45.0930 C   0  0  0  0  0  0  0  0  0  0  0  0
   57.3220   21.7500   43.7180 C   0  0  0  0  0  0  0  0  0  0  0  0
   56.4430   22.5700   43.0160 C   0  0  0  0  0  0  0  0  0  0  0  0
   55.7320   23.5680   43.6830 C   0  0  0  0  0  0  0  0  0  0  0  0
   55.8890   23.7640   45.0690 C   0  0  0  0  0  0  0  0  0  0  0  0
   55.1200   24.8510   45.7380 C   0  0  0  0  0  0  0  0  0  0  0  0
   53.8650   24.8870   45.6230 O   0  0  0  0  0  0  0  0  0  0  0  0
   55.8000   25.8940   46.4510 N   0  0  0  0  0  0  0  0  0  0  0  0
   57.0080   26.5600   46.0590 C   0  0  0  0  0  0  0  0  0  0  0  0
   58.1630   25.8550   45.6890 C   0  0  0  0  0  0  0  0  0  0  0  0
   59.3130   26.5430   45.3000 C   0  0  0  0  0  0  0  0  0  0  0  0
   59.3320   27.9470   45.2620 C   0  0  0  0  0  0  0  0  0  0  0  0
   60.6150   28.6390   44.8810 C   0  0  0  0  0  0  0  0  0  0  0  0
   58.1470   28.6640   45.5670 C   0  0  0  0  0  0  0  0  0  0  0  0
   58.0690   30.1400   45.4790 C   0  0  0  0  0  0  0  0  0  0  0  0
   57.0360   30.6750   44.9920 O   0  0  0  0  0  0  0  0  0  0  0  0
   59.1920   30.9540   45.8540 N   0  0  0  0  0  0  0  0  0  0  0  0
   59.1060   32.3590   46.1460 C   0  0  0  0  0  0  0  0  0  0  0  0
   59.5430   32.8370   47.3900 C   0  0  0  0  0  0  0  0  0  0  0  0
   59.4450   34.1950   47.6930 C   0  0  0  0  0  0  0  0  0  0  0  0
   58.8970   35.0680   46.7520 C   0  0  0  0  0  0  0  0  0  0  0  0
   58.4540   34.5910   45.5600 N   0  0  0  0  0  0  0  0  0  0  0  0
   58.5410   33.2720   45.2380 C   0  0  0  0  0  0  0  0  0  0  0  0
   57.0040   27.9570   45.9770 C   0  0  0  0  0  0  0  0  0  0  0  0
   56.3290   22.8887   49.1515 H   0  0  0  0  0  0  0  0  0  0  0  0
   55.0535   23.4263   48.0066 H   0  0  0  0  0  0  0  0  0  0  0  0
   55.5968   21.7141   48.0066 H   0  0  0  0  0  0  0  0  0  0  0  0
   58.1816   21.2648   45.6415 H   0  0  0  0  0  0  0  0  0  0  0  0
   57.8869   20.9689   43.1881 H   0  0  0  0  0  0  0  0  0  0  0  0
   56.3087   22.4308   41.9331 H   0  0  0  0  0  0  0  0  0  0  0  0
   55.0396   24.2103   43.1190 H   0  0  0  0  0  0  0  0  0  0  0  0
   58.1621   24.7551   45.7056 H   0  0  0  0  0  0  0  0  0  0  0  0
   60.2151   25.9793   45.0199 H   0  0  0  0  0  0  0  0  0  0  0  0
   61.1580   28.9319   45.7917 H   0  0  0  0  0  0  0  0  0  0  0  0
   61.2382   27.9547   44.2866 H   0  0  0  0  0  0  0  0  0  0  0  0
   60.3855   29.5357   44.2866 H   0  0  0  0  0  0  0  0  0  0  0  0
   60.1390   30.5130   45.8330 H   0  0  0  0  0  0  0  0  0  0  0  0
   59.9641   32.1391   48.1287 H   0  0  0  0  0  0  0  0  0  0  0  0
   59.7962   34.5742   48.6640 H   0  0  0  0  0  0  0  0  0  0  0  0
   58.8239   36.1425   46.9758 H   0  0  0  0  0  0  0  0  0  0  0  0
   58.1685   32.9190   44.2651 H   0  0  0  0  0  0  0  0  0  0  0  0
   56.0903   28.5112   46.2380 H   0  0  0  0  0  0  0  0  0  0  0  0
  1  2  1  0
  2  3  1  0
  3  4  2  0
  4  5  1  0
  5  6  2  0
  6  7  1  0
  7  8  2  0
  8  9  1  0
  9 10  2  0
  9 11  1  0
 11 12  1  0
 12 13  2  0
 13 14  1  0
 14 15  2  0
 15 16  1  0
 15 17  1  0
 17 18  1  0
 18 19  2  0
 18 20  1  0
 20 21  1  0
 21 22  2  0
 22 23  1  0
 23 24  2  0
 24 25  1  0
 25 26  2  0
 17 27  2  0
  8  3  1  0
 27 12  1  0
 26 21  1  0
  1 28  1  0
  1 29  1  0
  1 30  1  0
  4 31  1  0
  5 32  1  0
  6 33  1  0
  7 34  1  0
 13 35  1  0
 14 36  1  0
 16 37  1  0
 16 38  1  0
 16 39  1  0
 20 40  1  0
 22 41  1  0
 23 42  1  0
 24 43  1  0
 26 44  1  0
 27 45  1  0
M  CHG  1  11  -1
M  END
>  <UniqueID>  (73) 
65

>  <SMILES>  (73) 
COc1ccccc1C(=O)[N-]c1ccc(C)c(C(=O)Nc2cccnc2)c1

>  <Energy>  (73) 
62.97480021561312

>  <Genealogy>  (73) 
COc1ccccc1C(=O)[N-]c1ccc(C)c(C(=O)Nc2cccnc2)c1 (protonated)
COc1ccccc1C(=O)[N-]c1ccc(C)c(C(=O)Nc2cccnc2)c1 (3D coordinates assigned)
COc1ccccc1C(=O)[N-]c1ccc(C)c(C(=O)Nc2cccnc2)c1 (optimized conformer: 62.97480021561312 kcal/mol)

>  <smiles>  (73) 
COc1ccccc1C(=O)Nc1ccc(C)c(C(=O)Nc2cccnc2)c1

>  <score_type>  (73) 
oracle

>  <origin>  (73) 
adg

>  <m_score__min__energy>  (73) 
-10.27

>  <m_primary>  (73) 
energy

$$$$
73:0
     RDKit          3D

 37 39  0  0  0  0  0  0  0  0999 V2000
   61.2130   26.3780   46.5480 O   0  0  0  0  0  0  0  0  0  0  0  0
   60.3310   26.8310   47.3240 C   0  0  0  0  0  0  0  0  0  0  0  0
   59.2230   25.9870   47.6700 N   0  0  0  0  0  0  0  0  0  0  0  0
   58.2060   25.4750   46.7950 C   0  0  0  0  0  0  0  0  0  0  0  0
   58.3990   24.3200   46.0150 C   0  0  0  0  0  0  0  0  0  0  0  0
   57.3710   23.8380   45.2020 C   0  0  0  0  0  0  0  0  0  0  0  0
   56.1380   24.4940   45.1680 C   0  0  0  0  0  0  0  0  0  0  0  0
   55.9280   25.6330   45.9570 C   0  0  0  0  0  0  0  0  0  0  0  0
   54.7010   26.2930   45.9390 O   0  0  0  0  0  0  0  0  0  0  0  0
   56.9590   26.1150   46.7710 C   0  0  0  0  0  0  0  0  0  0  0  0
   60.5090   28.1760   47.9180 C   0  0  0  0  0  0  0  0  0  0  0  0
   60.4040   28.3260   49.3130 C   0  0  0  0  0  0  0  0  0  0  0  0
   60.5550   29.5790   49.9070 C   0  0  0  0  0  0  0  0  0  0  0  0
   60.8200   30.6980   49.1180 C   0  0  0  0  0  0  0  0  0  0  0  0
   60.9340   30.5680   47.7340 C   0  0  0  0  0  0  0  0  0  0  0  0
   60.7800   29.3150   47.1220 C   0  0  0  0  0  0  0  0  0  0  0  0
   60.9100   29.2330   45.3270 S   0  0  0  0  0  0  0  0  0  0  0  0
   59.1330   29.2710   45.0810 C   0  0  0  0  0  0  0  0  0  0  0  0
   58.4170   30.4540   45.2960 C   0  0  0  0  0  0  0  0  0  0  0  0
   57.0290   30.4740   45.1230 C   0  0  0  0  0  0  0  0  0  0  0  0
   56.3550   29.3140   44.7250 C   0  0  0  0  0  0  0  0  0  0  0  0
   54.9760   29.3330   44.5590 O   0  0  0  0  0  0  0  0  0  0  0  0
   57.0720   28.1350   44.4930 C   0  0  0  0  0  0  0  0  0  0  0  0
   58.4590   28.1150   44.6650 C   0  0  0  0  0  0  0  0  0  0  0  0
   59.3646   23.7940   46.0458 H   0  0  0  0  0  0  0  0  0  0  0  0
   57.5323   22.9402   44.5873 H   0  0  0  0  0  0  0  0  0  0  0  0
   55.3319   24.1164   44.5218 H   0  0  0  0  0  0  0  0  0  0  0  0
   54.3140   26.7140   46.7760 H   0  0  0  0  0  0  0  0  0  0  0  0
   56.7896   27.0034   47.3972 H   0  0  0  0  0  0  0  0  0  0  0  0
   60.2008   27.4464   49.9415 H   0  0  0  0  0  0  0  0  0  0  0  0
   60.4650   29.6846   50.9982 H   0  0  0  0  0  0  0  0  0  0  0  0
   60.9394   31.6853   49.5882 H   0  0  0  0  0  0  0  0  0  0  0  0
   61.1462   31.4542   47.1179 H   0  0  0  0  0  0  0  0  0  0  0  0
   58.9460   31.3688   45.6013 H   0  0  0  0  0  0  0  0  0  0  0  0
   56.4667   31.4027   45.3000 H   0  0  0  0  0  0  0  0  0  0  0  0
   56.5441   27.2238   44.1752 H   0  0  0  0  0  0  0  0  0  0  0  0
   59.0226   27.1900   44.4734 H   0  0  0  0  0  0  0  0  0  0  0  0
  1  2  2  0
  2  3  1  0
  3  4  1  0
  4  5  2  0
  5  6  1  0
  6  7  2  0
  7  8  1  0
  8  9  1  0
  8 10  2  0
  2 11  1  0
 11 12  2  0
 12 13  1  0
 13 14  2  0
 14 15  1  0
 15 16  2  0
 16 17  1  0
 17 18  1  0
 18 19  2  0
 19 20  1  0
 20 21  2  0
 21 22  1  0
 21 23  1  0
 23 24  2  0
 10  4  1  0
 16 11  1  0
 24 18  1  0
  5 25  1  0
  6 26  1  0
  7 27  1  0
  9 28  1  0
 10 29  1  0
 12 30  1  0
 13 31  1  0
 14 32  1  0
 15 33  1  0
 19 34  1  0
 20 35  1  0
 23 36  1  0
 24 37  1  0
M  CHG  2   3  -1  22  -1
M  END
>  <UniqueID>  (74) 
66

>  <SMILES>  (74) 
O=C([N-]c1cccc(O)c1)c1ccccc1Sc1ccc([O-])cc1

>  <Energy>  (74) 
42.450186808331914

>  <Genealogy>  (74) 
O=C([N-]c1cccc(O)c1)c1ccccc1Sc1ccc([O-])cc1 (protonated)
O=C([N-]c1cccc(O)c1)c1ccccc1Sc1ccc([O-])cc1 (3D coordinates assigned)
O=C([N-]c1cccc(O)c1)c1ccccc1Sc1ccc([O-])cc1 (optimized conformer: 42.450186808331914 kcal/mol)

>  <smiles>  (74) 
O=C(Nc1cccc(O)c1)c1ccccc1Sc1ccc(O)cc1

>  <score_type>  (74) 
oracle

>  <origin>  (74) 
adg

>  <m_score__min__energy>  (74) 
-12.24

>  <m_primary>  (74) 
energy

$$$$
74:0
     RDKit          3D

 64 68  0  0  0  0  0  0  0  0999 V2000
   59.7780   29.0270   51.3880 O   0  0  0  0  0  0  0  0  0  0  0  0
   60.5600   28.7840   50.4260 C   0  0  0  0  0  0  0  0  0  0  0  0
   60.0940   27.9750   49.3420 N   0  0  0  0  0  0  0  0  0  0  0  0
   59.7830   28.4380   48.0190 C   0  0  0  0  0  0  0  0  0  0  0  0
   60.0650   27.6430   46.8960 C   0  0  0  0  0  0  0  0  0  0  0  0
   59.7450   28.0870   45.6120 C   0  0  0  0  0  0  0  0  0  0  0  0
   59.1200   29.3280   45.4300 C   0  0  0  0  0  0  0  0  0  0  0  0
   58.7700   29.8260   44.1310 N   0  0  0  0  0  0  0  0  0  0  0  0
   57.3000   30.6480   43.7230 S   0  0  0  0  0  0  0  0  0  0  0  0
   56.6940   29.9670   42.5270 O   0  0  0  0  0  0  0  0  0  0  0  0
   56.3270   30.5790   44.8690 O   0  0  0  0  0  0  0  0  0  0  0  0
   57.6590   32.3490   43.3100 C   0  0  0  0  0  0  0  0  0  0  0  0
   58.0880   33.1100   44.5340 C   0  0  0  0  0  0  0  0  0  0  0  0
   57.2810   33.1130   45.6830 C   0  0  0  0  0  0  0  0  0  0  0  0
   57.6640   33.8510   46.8100 C   0  0  0  0  0  0  0  0  0  0  0  0
   58.8480   34.5920   46.7940 C   0  0  0  0  0  0  0  0  0  0  0  0
   59.6500   34.6050   45.6480 C   0  0  0  0  0  0  0  0  0  0  0  0
   59.2710   33.8700   44.5180 C   0  0  0  0  0  0  0  0  0  0  0  0
   58.8150   30.1130   46.5470 C   0  0  0  0  0  0  0  0  0  0  0  0
   59.1340   29.6810   47.8500 C   0  0  0  0  0  0  0  0  0  0  0  0
   58.8130   30.4930   49.0040 N   0  0  0  0  0  0  0  0  0  0  0  0
   58.7510   31.9560   48.9930 C   0  0  0  0  0  0  0  0  0  0  0  0
   58.6500   32.4940   50.3970 C   0  0  0  0  0  0  0  0  0  0  0  0
   59.3460   33.6570   50.7690 C   0  0  0  0  0  0  0  0  0  0  0  0
   59.2610   34.1420   52.0780 C   0  0  0  0  0  0  0  0  0  0  0  0
   58.4630   33.4840   53.0180 C   0  0  0  0  0  0  0  0  0  0  0  0
   57.7550   32.3350   52.6510 C   0  0  0  0  0  0  0  0  0  0  0  0
   57.8400   31.8440   51.3460 C   0  0  0  0  0  0  0  0  0  0  0  0
   61.8790   29.3370   50.4110 N   0  0  0  0  0  0  0  0  0  0  0  0
   62.1600   30.7320   50.6000 C   0  0  0  0  0  0  0  0  0  0  0  0
   62.3900   31.1890   51.9040 C   0  0  0  0  0  0  0  0  0  0  0  0
   62.6250   32.5430   52.1540 C   0  0  0  0  0  0  0  0  0  0  0  0
   62.6470   33.4570   51.1020 C   0  0  0  0  0  0  0  0  0  0  0  0
   62.4580   33.0220   49.7820 C   0  0  0  0  0  0  0  0  0  0  0  0
   62.5120   33.9400   48.7230 C   0  0  0  0  0  0  0  0  0  0  0  0
   62.3750   33.5010   47.4040 C   0  0  0  0  0  0  0  0  0  0  0  0
   62.1980   32.1450   47.1310 C   0  0  0  0  0  0  0  0  0  0  0  0
   62.1310   31.2180   48.1750 C   0  0  0  0  0  0  0  0  0  0  0  0
   62.2320   31.6430   49.5160 C   0  0  0  0  0  0  0  0  0  0  0  0
   60.5426   26.6611   47.0297 H   0  0  0  0  0  0  0  0  0  0  0  0
   59.9842   27.4606   44.7400 H   0  0  0  0  0  0  0  0  0  0  0  0
   58.4673   32.3774   42.5645 H   0  0  0  0  0  0  0  0  0  0  0  0
   56.7499   32.8151   42.9023 H   0  0  0  0  0  0  0  0  0  0  0  0
   56.3457   32.5343   45.6980 H   0  0  0  0  0  0  0  0  0  0  0  0
   57.0311   33.8471   47.7097 H   0  0  0  0  0  0  0  0  0  0  0  0
   59.1498   35.1655   47.6828 H   0  0  0  0  0  0  0  0  0  0  0  0
   60.5794   35.1932   45.6345 H   0  0  0  0  0  0  0  0  0  0  0  0
   59.9001   33.8872   43.6158 H   0  0  0  0  0  0  0  0  0  0  0  0
   58.3177   31.0840   46.4059 H   0  0  0  0  0  0  0  0  0  0  0  0
   58.6620   30.0280   49.9280 H   0  0  0  0  0  0  0  0  0  0  0  0
   59.6607   32.3527   48.5186 H   0  0  0  0  0  0  0  0  0  0  0  0
   57.8599   32.2686   48.4289 H   0  0  0  0  0  0  0  0  0  0  0  0
   59.9604   34.1882   50.0272 H   0  0  0  0  0  0  0  0  0  0  0  0
   59.8227   35.0422   52.3680 H   0  0  0  0  0  0  0  0  0  0  0  0
   58.3918   33.8695   54.0458 H   0  0  0  0  0  0  0  0  0  0  0  0
   57.1293   31.8164   53.3923 H   0  0  0  0  0  0  0  0  0  0  0  0
   57.2720   30.9466   51.0596 H   0  0  0  0  0  0  0  0  0  0  0  0
   62.3855   30.4740   52.7399 H   0  0  0  0  0  0  0  0  0  0  0  0
   62.7933   32.8891   53.1845 H   0  0  0  0  0  0  0  0  0  0  0  0
   62.8134   34.5247   51.3079 H   0  0  0  0  0  0  0  0  0  0  0  0
   62.6628   35.0094   48.9318 H   0  0  0  0  0  0  0  0  0  0  0  0
   62.4068   34.2271   46.5783 H   0  0  0  0  0  0  0  0  0  0  0  0
   62.1107   31.8032   46.0891 H   0  0  0  0  0  0  0  0  0  0  0  0
   61.9986   30.1496   47.9491 H   0  0  0  0  0  0  0  0  0  0  0  0
  1  2  2  0
  2  3  1  0
  3  4  1  0
  4  5  2  0
  5  6  1  0
  6  7  2  0
  7  8  1  0
  8  9  1  0
  9 10  2  0
  9 11  2  0
  9 12  1  0
 12 13  1  0
 13 14  2  0
 14 15  1  0
 15 16  2  0
 16 17  1  0
 17 18  2  0
  7 19  1  0
 19 20  2  0
 20 21  1  0
 21 22  1  0
 22 23  1  0
 23 24  2  0
 24 25  1  0
 25 26  2  0
 26 27  1  0
 27 28  2  0
  2 29  1  0
 29 30  1  0
 30 31  2  0
 31 32  1  0
 32 33  2  0
 33 34  1  0
 34 35  2  0
 35 36  1  0
 36 37  2  0
 37 38  1  0
 38 39  2  0
 20  4  1  0
 28 23  1  0
 39 30  1  0
 18 13  1  0
 39 34  1  0
  5 40  1  0
  6 41  1  0
 12 42  1  0
 12 43  1  0
 14 44  1  0
 15 45  1  0
 16 46  1  0
 17 47  1  0
 18 48  1  0
 19 49  1  0
 21 50  1  0
 22 51  1  0
 22 52  1  0
 24 53  1  0
 25 54  1  0
 26 55  1  0
 27 56  1  0
 28 57  1  0
 31 58  1  0
 32 59  1  0
 33 60  1  0
 35 61  1  0
 36 62  1  0
 37 63  1  0
 38 64  1  0
M  CHG  3   3  -1   8  -1  29  -1
M  END
>  <UniqueID>  (75) 
67

>  <SMILES>  (75) 
O=C([N-]c1ccc([N-]S(=O)(=O)Cc2ccccc2)cc1NCc1ccccc1)[N-]c1cccc2ccccc12

>  <Energy>  (75) 
84.23557321409255

>  <Genealogy>  (75) 
O=C([N-]c1ccc([N-]S(=O)(=O)Cc2ccccc2)cc1NCc1ccccc1)[N-]c1cccc2ccccc12 (protonated)
O=C([N-]c1ccc([N-]S(=O)(=O)Cc2ccccc2)cc1NCc1ccccc1)[N-]c1cccc2ccccc12 (3D coordinates assigned)
O=C([N-]c1ccc([N-]S(=O)(=O)Cc2ccccc2)cc1NCc1ccccc1)[N-]c1cccc2ccccc12 (optimized conformer: 84.23557321409255 kcal/mol)

>  <smiles>  (75) 
O=C(Nc1ccc(NS(=O)(=O)Cc2ccccc2)cc1NCc1ccccc1)Nc1cccc2ccccc12

>  <score_type>  (75) 
oracle

>  <origin>  (75) 
adg

>  <m_score__min__energy>  (75) 
-14.279999999999999

>  <m_primary>  (75) 
energy

$$$$
75:0
     RDKit          3D

 57 60  0  0  0  0  0  0  0  0999 V2000
   61.0960   34.9460   48.7390 O   0  0  0  0  0  0  0  0  0  0  0  0
   60.9980   34.1930   47.7320 C   0  0  0  0  0  0  0  0  0  0  0  0
   59.9260   34.4160   46.8080 N   0  0  0  0  0  0  0  0  0  0  0  0
   59.1750   33.4000   46.1330 C   0  0  0  0  0  0  0  0  0  0  0  0
   58.7760   33.6180   44.8080 C   0  0  0  0  0  0  0  0  0  0  0  0
   58.0050   32.6660   44.1340 C   0  0  0  0  0  0  0  0  0  0  0  0
   57.6190   31.4840   44.7810 C   0  0  0  0  0  0  0  0  0  0  0  0
   56.6590   30.2730   43.9290 S   0  0  0  0  0  0  0  0  0  0  0  0
   56.7470   30.5250   42.4500 O   0  0  0  0  0  0  0  0  0  0  0  0
   55.2180   30.4080   44.3390 O   0  0  0  0  0  0  0  0  0  0  0  0
   57.1970   28.6500   44.2900 N   0  0  0  0  0  0  0  0  0  0  0  0
   56.7440   28.2340   45.6240 C   0  0  0  0  0  0  0  0  0  0  0  0
   57.0350   26.7330   45.8400 C   0  0  0  0  0  0  0  0  0  0  0  0
   58.1760   26.2350   45.0270 N   0  0  0  0  0  0  0  0  0  0  0  0
   57.7280   25.6340   43.7470 C   0  0  0  0  0  0  0  0  0  0  0  0
   57.5190   24.1470   43.8850 C   0  0  0  0  0  0  0  0  0  0  0  0
   56.6150   23.4740   43.0510 C   0  0  0  0  0  0  0  0  0  0  0  0
   56.4450   22.0910   43.1680 C   0  0  0  0  0  0  0  0  0  0  0  0
   57.1750   21.3750   44.1200 C   0  0  0  0  0  0  0  0  0  0  0  0
   58.0790   22.0370   44.9540 C   0  0  0  0  0  0  0  0  0  0  0  0
   58.2520   23.4190   44.8380 C   0  0  0  0  0  0  0  0  0  0  0  0
   59.2140   27.2780   44.8530 C   0  0  0  0  0  0  0  0  0  0  0  0
   58.6650   28.5530   44.1750 C   0  0  0  0  0  0  0  0  0  0  0  0
   58.0000   31.2720   46.1130 C   0  0  0  0  0  0  0  0  0  0  0  0
   58.7590   32.2280   46.7910 C   0  0  0  0  0  0  0  0  0  0  0  0
   61.9540   33.1430   47.5120 N   0  0  0  0  0  0  0  0  0  0  0  0
   62.9360   32.7590   48.4880 C   0  0  0  0  0  0  0  0  0  0  0  0
   64.1460   33.4690   48.5540 C   0  0  0  0  0  0  0  0  0  0  0  0
   65.1160   33.1240   49.4990 C   0  0  0  0  0  0  0  0  0  0  0  0
   64.8810   32.0780   50.3920 C   0  0  0  0  0  0  0  0  0  0  0  0
   63.6670   31.3820   50.3540 C   0  0  0  0  0  0  0  0  0  0  0  0
   63.3490   29.9770   51.6060 Br  0  0  0  0  0  0  0  0  0  0  0  0
   62.6890   31.7250   49.4110 C   0  0  0  0  0  0  0  0  0  0  0  0
   61.4890   31.0920   49.4310 F   0  0  0  0  0  0  0  0  0  0  0  0
   59.0713   34.5447   44.2942 H   0  0  0  0  0  0  0  0  0  0  0  0
   57.7003   32.8453   43.0924 H   0  0  0  0  0  0  0  0  0  0  0  0
   57.2750   28.8210   46.3878 H   0  0  0  0  0  0  0  0  0  0  0  0
   55.6606   28.4057   45.7057 H   0  0  0  0  0  0  0  0  0  0  0  0
   57.2662   26.5711   46.9032 H   0  0  0  0  0  0  0  0  0  0  0  0
   56.1402   26.1774   45.5227 H   0  0  0  0  0  0  0  0  0  0  0  0
   56.7803   26.1026   43.4431 H   0  0  0  0  0  0  0  0  0  0  0  0
   58.5072   25.8069   42.9901 H   0  0  0  0  0  0  0  0  0  0  0  0
   56.0375   24.0358   42.3021 H   0  0  0  0  0  0  0  0  0  0  0  0
   55.7362   21.5666   42.5102 H   0  0  0  0  0  0  0  0  0  0  0  0
   57.0376   20.2876   44.2130 H   0  0  0  0  0  0  0  0  0  0  0  0
   58.6543   21.4711   45.7015 H   0  0  0  0  0  0  0  0  0  0  0  0
   58.9646   23.9390   45.4951 H   0  0  0  0  0  0  0  0  0  0  0  0
   59.6117   27.5481   45.8424 H   0  0  0  0  0  0  0  0  0  0  0  0
   59.9973   26.8640   44.2010 H   0  0  0  0  0  0  0  0  0  0  0  0
   59.1180   29.4335   44.6541 H   0  0  0  0  0  0  0  0  0  0  0  0
   58.9205   28.5071   43.1061 H   0  0  0  0  0  0  0  0  0  0  0  0
   57.6994   30.3472   46.6272 H   0  0  0  0  0  0  0  0  0  0  0  0
   59.0328   32.0642   47.8437 H   0  0  0  0  0  0  0  0  0  0  0  0
   61.8380   32.5270   46.6760 H   0  0  0  0  0  0  0  0  0  0  0  0
   64.3311   34.3008   47.8584 H   0  0  0  0  0  0  0  0  0  0  0  0
   66.0657   33.6776   49.5389 H   0  0  0  0  0  0  0  0  0  0  0  0
   65.6508   31.7999   51.1269 H   0  0  0  0  0  0  0  0  0  0  0  0
  1  2  2  0
  2  3  1  0
  3  4  1  0
  4  5  2  0
  5  6  1  0
  6  7  2  0
  7  8  1  0
  8  9  2  0
  8 10  2  0
  8 11  1  0
 11 12  1  0
 12 13  1  0
 13 14  1  0
 14 15  1  0
 15 16  1  0
 16 17  2  0
 17 18  1  0
 18 19  2  0
 19 20  1  0
 20 21  2  0
 14 22  1  0
 22 23  1  0
  7 24  1  0
 24 25  2  0
  2 26  1  0
 26 27  1  0
 27 28  2  0
 28 29  1  0
 29 30  2  0
 30 31  1  0
 31 32  1  0
 31 33  2  0
 33 34  1  0
 25  4  1  0
 33 27  1  0
 23 11  1  0
 21 16  1  0
  5 35  1  0
  6 36  1  0
 12 37  1  0
 12 38  1  0
 13 39  1  0
 13 40  1  0
 15 41  1  0
 15 42  1  0
 17 43  1  0
 18 44  1  0
 19 45  1  0
 20 46  1  0
 21 47  1  0
 22 48  1  0
 22 49  1  0
 23 50  1  0
 23 51  1  0
 24 52  1  0
 25 53  1  0
 26 54  1  0
 28 55  1  0
 29 56  1  0
 30 57  1  0
M  CHG  1   3  -1
M  END
>  <UniqueID>  (76) 
68

>  <SMILES>  (76) 
O=C([N-]c1ccc(S(=O)(=O)N2CCN(Cc3ccccc3)CC2)cc1)Nc1cccc(Br)c1F

>  <Energy>  (76) 
80.2093052151087

>  <Genealogy>  (76) 
O=C([N-]c1ccc(S(=O)(=O)N2CCN(Cc3ccccc3)CC2)cc1)Nc1cccc(Br)c1F (protonated)
O=C([N-]c1ccc(S(=O)(=O)N2CCN(Cc3ccccc3)CC2)cc1)Nc1cccc(Br)c1F (3D coordinates assigned)
O=C([N-]c1ccc(S(=O)(=O)N2CCN(Cc3ccccc3)CC2)cc1)Nc1cccc(Br)c1F (nonaromatic ring conformer: 80.2093052151087 kcal/mol)

>  <smiles>  (76) 
O=C(Nc1ccc(S(=O)(=O)N2CCN(Cc3ccccc3)CC2)cc1)Nc1cccc(Br)c1F

>  <score_type>  (76) 
oracle

>  <origin>  (76) 
adg

>  <m_score__min__energy>  (76) 
-11.35

>  <m_primary>  (76) 
energy

$$$$
76:0
     RDKit          3D

 45 48  0  0  0  0  0  0  0  0999 V2000
   58.0880   29.3840   42.6280 H   0  0  0  0  0  0  0  0  0  0  0  0
   57.4850   29.8680   43.2800 O   0  0  0  0  0  0  0  0  0  0  0  0
   57.9510   30.5420   44.3980 N   0  0  0  0  0  0  0  0  0  0  0  0
   58.1710   31.9030   44.3640 C   0  0  0  0  0  0  0  0  0  0  0  0
   57.7650   32.7020   43.1430 C   0  0  0  0  0  0  0  0  0  0  0  0
   57.2880   33.6408   43.4611 H   0  0  0  0  0  0  0  0  0  0  0  0
   58.6568   32.9296   42.5406 H   0  0  0  0  0  0  0  0  0  0  0  0
   57.0554   32.1159   42.5406 H   0  0  0  0  0  0  0  0  0  0  0  0
   58.7650   32.5490   45.4790 C   0  0  0  0  0  0  0  0  0  0  0  0
   59.1560   33.9810   45.4300 C   0  0  0  0  0  0  0  0  0  0  0  0
   59.0195   34.5326   44.4882 H   0  0  0  0  0  0  0  0  0  0  0  0
   59.6680   34.6290   46.4850 C   0  0  0  0  0  0  0  0  0  0  0  0
   59.1739   35.5439   46.8440 H   0  0  0  0  0  0  0  0  0  0  0  0
   60.8830   34.1440   47.1800 C   0  0  0  0  0  0  0  0  0  0  0  0
   61.9760   33.8140   46.3730 C   0  0  0  0  0  0  0  0  0  0  0  0
   61.8798   33.8488   45.2778 H   0  0  0  0  0  0  0  0  0  0  0  0
   63.1810   33.4430   46.9500 C   0  0  0  0  0  0  0  0  0  0  0  0
   64.0332   33.1625   46.3135 H   0  0  0  0  0  0  0  0  0  0  0  0
   63.3110   33.4260   48.3370 C   0  0  0  0  0  0  0  0  0  0  0  0
   64.5460   33.1060   48.9220 C   0  0  0  0  0  0  0  0  0  0  0  0
   65.4044   32.8495   48.2838 H   0  0  0  0  0  0  0  0  0  0  0  0
   64.6890   33.1120   50.3080 C   0  0  0  0  0  0  0  0  0  0  0  0
   65.6574   32.8545   50.7617 H   0  0  0  0  0  0  0  0  0  0  0  0
   63.6060   33.4440   51.1200 C   0  0  0  0  0  0  0  0  0  0  0  0
   63.7259   33.4583   52.2133 H   0  0  0  0  0  0  0  0  0  0  0  0
   62.3680   33.7590   50.5520 C   0  0  0  0  0  0  0  0  0  0  0  0
   61.5232   34.0243   51.2046 H   0  0  0  0  0  0  0  0  0  0  0  0
   62.1870   33.7410   49.1460 C   0  0  0  0  0  0  0  0  0  0  0  0
   60.9680   34.0260   48.5560 N   0  0  0  0  0  0  0  0  0  0  0  0
   59.7560   34.1560   49.3900 C   0  0  0  0  0  0  0  0  0  0  0  0
   60.0374   34.1258   50.4530 H   0  0  0  0  0  0  0  0  0  0  0  0
   59.2598   35.1125   49.1691 H   0  0  0  0  0  0  0  0  0  0  0  0
   59.0682   33.3265   49.1691 H   0  0  0  0  0  0  0  0  0  0  0  0
   59.0470   31.7970   46.6260 C   0  0  0  0  0  0  0  0  0  0  0  0
   59.5045   32.2848   47.4993 H   0  0  0  0  0  0  0  0  0  0  0  0
   58.7530   30.4370   46.6700 C   0  0  0  0  0  0  0  0  0  0  0  0
   59.0230   29.6880   47.8270 C   0  0  0  0  0  0  0  0  0  0  0  0
   59.4552   30.1808   48.7104 H   0  0  0  0  0  0  0  0  0  0  0  0
   58.7450   28.3210   47.8600 C   0  0  0  0  0  0  0  0  0  0  0  0
   58.9559   27.7390   48.7693 H   0  0  0  0  0  0  0  0  0  0  0  0
   58.1990   27.6910   46.7390 C   0  0  0  0  0  0  0  0  0  0  0  0
   57.8230   25.8190   46.7880 Br  0  0  0  0  0  0  0  0  0  0  0  0
   57.9320   28.4270   45.5810 C   0  0  0  0  0  0  0  0  0  0  0  0
   57.5077   27.9228   44.7002 H   0  0  0  0  0  0  0  0  0  0  0  0
   58.2020   29.8110   45.5320 C   0  0  0  0  0  0  0  0  0  0  0  0
  1  2  1  0
  2  3  1  0
  3  4  2  0
  4  5  1  0
  5  6  1  0
  5  7  1  0
  5  8  1  0
  4  9  1  0
  9 10  1  0
 10 11  1  0
 10 12  2  0
 12 13  1  0
 12 14  1  0
 14 15  2  0
 15 16  1  0
 15 17  1  0
 17 18  1  0
 17 19  2  0
 19 20  1  0
 20 21  1  0
 20 22  2  0
 22 23  1  0
 22 24  1  0
 24 25  1  0
 24 26  2  0
 26 27  1  0
 26 28  1  0
 28 29  2  0
 29 30  1  0
 30 31  1  0
 30 32  1  0
 30 33  1  0
  9 34  2  0
 34 35  1  0
 34 36  1  0
 36 37  2  0
 37 38  1  0
 37 39  1  0
 39 40  1  0
 39 41  2  0
 41 42  1  0
 41 43  1  0
 43 44  1  0
 43 45  2  0
 45  3  1  0
 29 14  1  0
 45 36  1  0
 28 19  1  0
M  CHG  2   3   1  29   1
M  END
>  <UniqueID>  (77) 
69

>  <SMILES>  (77) 
Cc1c(/C=C/c2ccc3ccccc3[n+]2C)cc2ccc(Br)cc2[n+]1O

>  <Energy>  (77) 
78.70346960270848

>  <Genealogy>  (77) 
Cc1c(C=Cc2ccc3ccccc3[n+]2C)cc2ccc(Br)cc2[n+]1O (protonated)
Cc1c(/C=C/c2ccc3ccccc3[n+]2C)cc2ccc(Br)cc2[n+]1O (cis-trans isomerization)
Cc1c(/C=C/c2ccc3ccccc3[n+]2C)cc2ccc(Br)cc2[n+]1O (3D coordinates assigned)
Cc1c(/C=C/c2ccc3ccccc3[n+]2C)cc2ccc(Br)cc2[n+]1O (optimized conformer: 78.70346960270848 kcal/mol)

>  <smiles>  (77) 
Cc1c(C=Cc2ccc3ccccc3[n+]2C)cc2ccc(Br)cc2[n+]1[O-]

>  <score_type>  (77) 
oracle

>  <origin>  (77) 
adg

>  <m_score__min__energy>  (77) 
-6.8499999999999996

>  <m_primary>  (77) 
energy

$$$$
77:0
     RDKit          3D

 52 55  0  0  1  0  0  0  0  0999 V2000
   57.1780   28.9740   43.3750 N   0  0  0  0  0  0  0  0  0  0  0  0
   57.1980   29.8720   44.4700 C   0  0  0  0  0  0  0  0  0  0  0  0
   56.3410   30.7860   44.5030 O   0  0  0  0  0  0  0  0  0  0  0  0
   58.1710   29.7610   45.5380 C   0  0  0  0  0  0  0  0  0  0  0  0
   58.7230   30.8870   46.1010 C   0  0  0  0  0  0  0  0  0  0  0  0
   59.6370   30.8720   47.1040 C   0  0  0  0  0  0  0  0  0  0  0  0
   60.0620   29.6220   47.6170 C   0  0  0  0  0  0  0  0  0  0  0  0
   59.5050   28.5260   47.0430 C   0  0  0  0  0  0  0  0  0  0  0  0
   59.8690   27.2860   47.4930 C   0  0  0  0  0  0  0  0  0  0  0  0
   60.7690   27.1320   48.3210 N   0  0  0  0  0  0  0  0  0  0  0  0
   60.7840   26.7250   49.6310 C   0  0  0  0  0  0  0  0  0  0  0  0
   61.2760   27.7280   50.6380 C   0  0  0  0  0  0  0  0  0  0  0  0
   61.7300   27.3520   51.8930 C   0  0  0  0  0  0  0  0  0  0  0  0
   62.1850   28.2830   52.8230 C   0  0  0  0  0  0  0  0  0  0  0  0
   62.2010   29.6260   52.5300 C   0  0  0  0  0  0  0  0  0  0  0  0
   61.7540   30.0230   51.2910 C   0  0  0  0  0  0  0  0  0  0  0  0
   61.7590   31.4110   50.9590 N   0  0  0  0  0  0  0  0  0  0  0  0
   62.4500   31.9290   49.8240 C   0  0  0  0  0  0  0  0  0  0  0  0
   63.0900   31.1210   49.0760 O   0  0  0  0  0  0  0  0  0  0  0  0
   62.3840   33.3770   49.5830 C   0  0  0  0  0  0  0  0  0  0  0  0
   61.3900   33.7450   48.5480 C   0  0  0  0  0  0  0  0  0  0  0  0
   61.7120   33.8710   47.2070 C   0  0  0  0  0  0  0  0  0  0  0  0
   63.3760   33.5820   46.7090 Cl  0  0  0  0  0  0  0  0  0  0  0  0
   60.8140   34.2090   46.2350 C   0  0  0  0  0  0  0  0  0  0  0  0
   59.4980   34.4370   46.6370 C   0  0  0  0  0  0  0  0  0  0  0  0
   59.1140   34.3270   47.9480 C   0  0  0  0  0  0  0  0  0  0  0  0
   60.0680   33.9800   48.9040 C   0  0  0  0  0  0  0  0  0  0  0  0
   59.6070   33.8350   50.5910 Cl  0  0  0  0  0  0  0  0  0  0  0  0
   61.3080   29.0890   50.3820 C   0  0  0  0  0  0  0  0  0  0  0  0
   59.3040   26.1920   46.9340 N   0  0  0  0  0  0  0  0  0  0  0  0
   58.3960   26.2460   45.9450 C   0  0  0  0  0  0  0  0  0  0  0  0
   58.0290   27.4510   45.4830 N   0  0  0  0  0  0  0  0  0  0  0  0
   58.5740   28.5540   46.0240 C   0  0  0  0  0  0  0  0  0  0  0  0
   57.3530   29.3700   42.4060 H   0  0  0  0  0  0  0  0  0  0  0  0
   57.0020   27.9470   43.4610 H   0  0  0  0  0  0  0  0  0  0  0  0
   58.4026   31.8651   45.7128 H   0  0  0  0  0  0  0  0  0  0  0  0
   60.0396   31.8115   47.5104 H   0  0  0  0  0  0  0  0  0  0  0  0
   60.7982   29.5446   48.4306 H   0  0  0  0  0  0  0  0  0  0  0  0
   59.7555   26.4501   49.9077 H   0  0  0  0  0  0  0  0  0  0  0  0
   61.5042   25.8945   49.6704 H   0  0  0  0  0  0  0  0  0  0  0  0
   61.7307   26.2854   52.1622 H   0  0  0  0  0  0  0  0  0  0  0  0
   62.5369   27.9388   53.8067 H   0  0  0  0  0  0  0  0  0  0  0  0
   62.5606   30.3615   53.2646 H   0  0  0  0  0  0  0  0  0  0  0  0
   61.2120   32.0320   51.6150 H   0  0  0  0  0  0  0  0  0  0  0  0
   62.1122   33.8773   50.5242 H   0  0  0  0  0  0  0  0  0  0  0  0
   63.3720   33.6963   49.2198 H   0  0  0  0  0  0  0  0  0  0  0  0
   61.1155   34.2976   45.1809 H   0  0  0  0  0  0  0  0  0  0  0  0
   58.7479   34.7126   45.8811 H   0  0  0  0  0  0  0  0  0  0  0  0
   58.0697   34.5096   48.2415 H   0  0  0  0  0  0  0  0  0  0  0  0
   60.9587   29.4427   49.4007 H   0  0  0  0  0  0  0  0  0  0  0  0
   59.5590   25.2310   47.2620 H   0  0  0  0  0  0  0  0  0  0  0  0
   57.9645   25.3256   45.5248 H   0  0  0  0  0  0  0  0  0  0  0  0
  1  2  1  0
  2  3  2  0
  2  4  1  0
  4  5  2  0
  5  6  1  0
  6  7  2  0
  7  8  1  0
  8  9  1  0
  9 10  2  0
 10 11  1  0
 11 12  1  0
 12 13  2  0
 13 14  1  0
 14 15  2  0
 15 16  1  0
 16 17  1  0
 17 18  1  0
 18 19  2  0
 18 20  1  0
 20 21  1  0
 21 22  2  0
 22 23  1  0
 22 24  1  0
 24 25  2  0
 25 26  1  0
 26 27  2  0
 27 28  1  0
 16 29  2  0
  9 30  1  0
 30 31  1  0
 31 32  2  0
 32 33  1  0
 33  4  1  0
 33  8  2  0
 29 12  1  0
 27 21  1  0
  1 34  1  0
  1 35  1  0
  5 36  1  0
  6 37  1  0
  7 38  1  0
 11 39  1  0
 11 40  1  0
 13 41  1  0
 14 42  1  0
 15 43  1  0
 17 44  1  0
 20 45  1  0
 20 46  1  0
 24 47  1  0
 25 48  1  0
 26 49  1  0
 29 50  1  0
 30 51  1  0
 31 52  1  0
M  END
>  <smiles>  (78) 
NC(=O)c1cccc2c(=NCc3cccc(NC(=O)Cc4c(Cl)cccc4Cl)c3)[nH]cnc12

>  <score_type>  (78) 
oracle

>  <origin>  (78) 
adg

>  <m_score__min__energy>  (78) 
-9.6600000000000001

>  <m_primary>  (78) 
energy

$$$$
78:0
     RDKit          3D

 59 62  0  0  0  0  0  0  0  0999 V2000
   60.2810   27.5560   49.4390 O   0  0  0  0  0  0  0  0  0  0  0  0
   59.7830   28.7060   49.2930 C   0  0  0  0  0  0  0  0  0  0  0  0
   58.6970   28.9020   48.3770 N   0  0  0  0  0  0  0  0  0  0  0  0
   58.8330   29.0640   46.9590 C   0  0  0  0  0  0  0  0  0  0  0  0
   57.9610   29.9400   46.2990 C   0  0  0  0  0  0  0  0  0  0  0  0
   58.0460   30.1210   44.9130 C   0  0  0  0  0  0  0  0  0  0  0  0
   56.9180   31.2090   44.1080 S   0  0  0  0  0  0  0  0  0  0  0  0
   55.5190   30.8300   44.5050 O   0  0  0  0  0  0  0  0  0  0  0  0
   57.0480   31.0790   42.6150 O   0  0  0  0  0  0  0  0  0  0  0  0
   57.2500   32.8540   44.5900 N   0  0  0  0  0  0  0  0  0  0  0  0
   57.0350   33.0410   46.0420 C   0  0  0  0  0  0  0  0  0  0  0  0
   58.3580   33.1970   46.8120 C   0  0  0  0  0  0  0  0  0  0  0  0
   59.1440   34.2840   46.3470 O   0  0  0  0  0  0  0  0  0  0  0  0
   59.0980   34.4640   44.9370 C   0  0  0  0  0  0  0  0  0  0  0  0
   58.6050   33.2370   44.1530 C   0  0  0  0  0  0  0  0  0  0  0  0
   59.0310   29.4410   44.1850 C   0  0  0  0  0  0  0  0  0  0  0  0
   59.9290   28.5950   44.8400 C   0  0  0  0  0  0  0  0  0  0  0  0
   59.8470   28.4120   46.2290 C   0  0  0  0  0  0  0  0  0  0  0  0
   60.7840   27.6100   46.8790 O   0  0  0  0  0  0  0  0  0  0  0  0
   60.2750   29.8360   50.1150 C   0  0  0  0  0  0  0  0  0  0  0  0
   61.5790   29.8250   50.6400 C   0  0  0  0  0  0  0  0  0  0  0  0
   62.0580   30.9140   51.3720 C   0  0  0  0  0  0  0  0  0  0  0  0
   61.2460   32.0390   51.5830 C   0  0  0  0  0  0  0  0  0  0  0  0
   61.7860   33.2490   52.2990 C   0  0  0  0  0  0  0  0  0  0  0  0
   63.2480   33.2030   52.3770 N   0  0  0  0  0  0  0  0  0  0  0  0
   63.9860   34.0770   51.0630 S   0  0  0  0  0  0  0  0  0  0  0  0
   63.7680   35.5490   51.2750 O   0  0  0  0  0  0  0  0  0  0  0  0
   65.4660   33.8100   51.0440 O   0  0  0  0  0  0  0  0  0  0  0  0
   63.2570   33.6180   49.5250 C   0  0  0  0  0  0  0  0  0  0  0  0
   62.0530   34.2130   49.1240 C   0  0  0  0  0  0  0  0  0  0  0  0
   61.4280   33.8110   47.9390 C   0  0  0  0  0  0  0  0  0  0  0  0
   62.0050   32.8140   47.1460 C   0  0  0  0  0  0  0  0  0  0  0  0
   63.2120   32.2240   47.5350 C   0  0  0  0  0  0  0  0  0  0  0  0
   63.7700   31.2550   46.7690 F   0  0  0  0  0  0  0  0  0  0  0  0
   63.8410   32.6270   48.7200 C   0  0  0  0  0  0  0  0  0  0  0  0
   59.9290   32.0350   51.0980 C   0  0  0  0  0  0  0  0  0  0  0  0
   59.4500   30.9470   50.3650 C   0  0  0  0  0  0  0  0  0  0  0  0
   57.2026   30.4906   46.8749 H   0  0  0  0  0  0  0  0  0  0  0  0
   56.4271   33.9447   46.1963 H   0  0  0  0  0  0  0  0  0  0  0  0
   56.5258   32.1445   46.4254 H   0  0  0  0  0  0  0  0  0  0  0  0
   58.1280   33.3600   47.8753 H   0  0  0  0  0  0  0  0  0  0  0  0
   58.9412   32.2776   46.6551 H   0  0  0  0  0  0  0  0  0  0  0  0
   58.4224   35.3045   44.7199 H   0  0  0  0  0  0  0  0  0  0  0  0
   60.1325   34.6481   44.6114 H   0  0  0  0  0  0  0  0  0  0  0  0
   58.5845   33.4776   43.0798 H   0  0  0  0  0  0  0  0  0  0  0  0
   59.2897   32.3968   44.3408 H   0  0  0  0  0  0  0  0  0  0  0  0
   59.0974   29.5736   43.0950 H   0  0  0  0  0  0  0  0  0  0  0  0
   60.7047   28.0693   44.2639 H   0  0  0  0  0  0  0  0  0  0  0  0
   60.6870   27.3670   47.8580 H   0  0  0  0  0  0  0  0  0  0  0  0
   62.2272   28.9521   50.4731 H   0  0  0  0  0  0  0  0  0  0  0  0
   63.0771   30.8896   51.7853 H   0  0  0  0  0  0  0  0  0  0  0  0
   61.4831   34.1549   51.7535 H   0  0  0  0  0  0  0  0  0  0  0  0
   61.3804   33.2615   53.3214 H   0  0  0  0  0  0  0  0  0  0  0  0
   61.5977   34.9994   49.7438 H   0  0  0  0  0  0  0  0  0  0  0  0
   60.4818   34.2795   47.6305 H   0  0  0  0  0  0  0  0  0  0  0  0
   61.5100   32.4941   46.2172 H   0  0  0  0  0  0  0  0  0  0  0  0
   64.7937   32.1664   49.0202 H   0  0  0  0  0  0  0  0  0  0  0  0
   59.2705   32.8935   51.2963 H   0  0  0  0  0  0  0  0  0  0  0  0
   58.4195   30.9592   49.9803 H   0  0  0  0  0  0  0  0  0  0  0  0
  1  2  2  0
  2  3  1  0
  3  4  1  0
  4  5  2  0
  5  6  1  0
  6  7  1  0
  7  8  2  0
  7  9  2  0
  7 10  1  0
 10 11  1  0
 11 12  1  0
 12 13  1  0
 13 14  1  0
 14 15  1  0
  6 16  2  0
 16 17  1  0
 17 18  2  0
 18 19  1  0
  2 20  1  0
 20 21  2  0
 21 22  1  0
 22 23  2  0
 23 24  1  0
 24 25  1  0
 25 26  1  0
 26 27  2  0
 26 28  2  0
 26 29  1  0
 29 30  2  0
 30 31  1  0
 31 32  2  0
 32 33  1  0
 33 34  1  0
 33 35  2  0
 23 36  1  0
 36 37  2  0
 18  4  1  0
 37 20  1  0
 15 10  1  0
 35 29  1  0
  5 38  1  0
 11 39  1  0
 11 40  1  0
 12 41  1  0
 12 42  1  0
 14 43  1  0
 14 44  1  0
 15 45  1  0
 15 46  1  0
 16 47  1  0
 17 48  1  0
 19 49  1  0
 21 50  1  0
 22 51  1  0
 24 52  1  0
 24 53  1  0
 30 54  1  0
 31 55  1  0
 32 56  1  0
 35 57  1  0
 36 58  1  0
 37 59  1  0
M  CHG  2   3  -1  25  -1
M  END
>  <UniqueID>  (79) 
70

>  <SMILES>  (79) 
O=C([N-]c1cc(S(=O)(=O)N2CCOCC2)ccc1O)c1ccc(C[N-]S(=O)(=O)c2cccc(F)c2)cc1

>  <Energy>  (79) 
76.18787137548917

>  <Genealogy>  (79) 
O=C([N-]c1cc(S(=O)(=O)N2CCOCC2)ccc1O)c1ccc(C[N-]S(=O)(=O)c2cccc(F)c2)cc1 (protonated)
O=C([N-]c1cc(S(=O)(=O)N2CCOCC2)ccc1O)c1ccc(C[N-]S(=O)(=O)c2cccc(F)c2)cc1 (3D coordinates assigned)
O=C([N-]c1cc(S(=O)(=O)N2CCOCC2)ccc1O)c1ccc(C[N-]S(=O)(=O)c2cccc(F)c2)cc1 (nonaromatic ring conformer: 76.18787137548917 kcal/mol)

>  <smiles>  (79) 
O=C(Nc1cc(S(=O)(=O)N2CCOCC2)ccc1O)c1ccc(CNS(=O)(=O)c2cccc(F)c2)cc1

>  <score_type>  (79) 
oracle

>  <origin>  (79) 
adg

>  <m_score__min__energy>  (79) 
-13.08

>  <m_primary>  (79) 
energy

$$$$
79:0
     RDKit          3D

 25 26  0  0  0  0  0  0  0  0999 V2000
   61.8440   28.1960   44.1470 H   0  0  0  0  0  0  0  0  0  0  0  0
   61.2100   28.2130   44.9770 N   0  0  0  0  0  0  0  0  0  0  0  0
   59.9990   28.6600   44.8930 C   0  0  0  0  0  0  0  0  0  0  0  0
   59.7670   29.9400   44.4500 N   0  0  0  0  0  0  0  0  0  0  0  0
   58.5020   30.4470   44.3550 C   0  0  0  0  0  0  0  0  0  0  0  0
   58.2390   32.1300   43.7900 S   0  0  0  0  0  0  0  0  0  0  0  0
   57.5670   32.7190   45.3810 C   0  0  0  0  0  0  0  0  0  0  0  0
   56.4710   32.6266   45.3681 H   0  0  0  0  0  0  0  0  0  0  0  0
   57.9878   32.1093   46.1941 H   0  0  0  0  0  0  0  0  0  0  0  0
   57.9400   34.1560   45.6060 C   0  0  0  0  0  0  0  0  0  0  0  0
   57.1416   34.9037   45.7222 H   0  0  0  0  0  0  0  0  0  0  0  0
   59.2150   34.5520   45.6690 C   0  0  0  0  0  0  0  0  0  0  0  0
   59.4539   35.6128   45.8351 H   0  0  0  0  0  0  0  0  0  0  0  0
   60.0255   33.8171   45.5548 H   0  0  0  0  0  0  0  0  0  0  0  0
   57.4500   29.6130   44.7150 C   0  0  0  0  0  0  0  0  0  0  0  0
   56.0780   29.7320   44.7850 C   0  0  0  0  0  0  0  0  0  0  0  0
   55.4030   30.7510   44.4830 O   0  0  0  0  0  0  0  0  0  0  0  0
   55.5390   28.5770   45.2450 N   0  0  0  0  0  0  0  0  0  0  0  0
   56.5450   27.7310   45.4560 N   0  0  0  0  0  0  0  0  0  0  0  0
   56.3910   26.3940   46.0130 C   0  0  0  0  0  0  0  0  0  0  0  0
   56.3976   26.4514   47.1115 H   0  0  0  0  0  0  0  0  0  0  0  0
   55.4373   25.9632   45.6741 H   0  0  0  0  0  0  0  0  0  0  0  0
   57.2218   25.7577   45.6741 H   0  0  0  0  0  0  0  0  0  0  0  0
   57.6980   28.3510   45.1490 C   0  0  0  0  0  0  0  0  0  0  0  0
   58.9540   27.8530   45.2500 N   0  0  0  0  0  0  0  0  0  0  0  0
  1  2  1  0
  2  3  2  0
  3  4  1  0
  4  5  2  0
  5  6  1  0
  6  7  1  0
  7  8  1  0
  7  9  1  0
  7 10  1  0
 10 11  1  0
 10 12  2  0
 12 13  1  0
 12 14  1  0
  5 15  1  0
 15 16  1  0
 16 17  2  0
 16 18  1  0
 18 19  1  0
 19 20  1  0
 20 21  1  0
 20 22  1  0
 20 23  1  0
 19 24  1  0
 24 25  1  0
 25  3  1  0
 24 15  2  0
M  CHG  2  18  -1  25  -1
M  END
>  <UniqueID>  (80) 
71

>  <SMILES>  (80) 
[H]/N=c1\nc(SCC=C)c2c(=O)[n-]n(C)c2[n-]1

>  <Energy>  (80) 
62.14449403911154

>  <Genealogy>  (80) 
C=CCSc1nc(=N)[n-]c2c1c(=O)[n-]n2C (protonated)
[H]/N=c1\nc(SCC=C)c2c(=O)[n-]n(C)c2[n-]1 (cis-trans isomerization)
[H]/N=c1\nc(SCC=C)c2c(=O)[n-]n(C)c2[n-]1 (3D coordinates assigned)
[H]/N=c1\nc(SCC=C)c2c(=O)[n-]n(C)c2[n-]1 (optimized conformer: 62.14449403911154 kcal/mol)

>  <smiles>  (80) 
C=CCSc1nc(=N)[nH]c2c1c(=O)[nH]n2C

>  <score_type>  (80) 
oracle

>  <origin>  (80) 
adg

>  <m_score__min__energy>  (80) 
-8.8499999999999996

>  <m_primary>  (80) 
energy

$$$$
80:0
     RDKit          3D

 24 25  0  0  0  0  0  0  0  0999 V2000
   54.5757   30.5037   43.7566 H   0  0  0  0  0  0  0  0  0  0  0  0
   55.5290   30.0470   44.0610 C   0  0  0  0  0  0  0  0  0  0  0  0
   55.5320   28.9610   44.8780 N   0  0  0  0  0  0  0  0  0  0  0  0
   56.6910   28.3670   45.2860 C   0  0  0  0  0  0  0  0  0  0  0  0
   56.6740   27.3170   46.0570 N   0  0  0  0  0  0  0  0  0  0  0  0
   55.9730   26.0910   45.7990 C   0  0  0  0  0  0  0  0  0  0  0  0
   54.7280   26.0590   45.9870 O   0  0  0  0  0  0  0  0  0  0  0  0
   56.6540   24.8880   45.2620 C   0  0  0  0  0  0  0  0  0  0  0  0
   56.0500   24.1030   44.2630 C   0  0  0  0  0  0  0  0  0  0  0  0
   55.0645   24.3875   43.8658 H   0  0  0  0  0  0  0  0  0  0  0  0
   56.6940   22.9640   43.7720 C   0  0  0  0  0  0  0  0  0  0  0  0
   56.2191   22.3617   42.9835 H   0  0  0  0  0  0  0  0  0  0  0  0
   57.9400   22.5890   44.2810 C   0  0  0  0  0  0  0  0  0  0  0  0
   58.4463   21.6934   43.8917 H   0  0  0  0  0  0  0  0  0  0  0  0
   58.5430   23.3520   45.2850 C   0  0  0  0  0  0  0  0  0  0  0  0
   59.5227   23.0552   45.6876 H   0  0  0  0  0  0  0  0  0  0  0  0
   57.9010   24.4930   45.7780 C   0  0  0  0  0  0  0  0  0  0  0  0
   58.3749   25.0852   46.5747 H   0  0  0  0  0  0  0  0  0  0  0  0
   57.9180   28.8730   44.8410 C   0  0  0  0  0  0  0  0  0  0  0  0
   58.8598   28.3963   45.1505 H   0  0  0  0  0  0  0  0  0  0  0  0
   57.9360   29.9880   44.0010 C   0  0  0  0  0  0  0  0  0  0  0  0
   58.8946   30.3971   43.6493 H   0  0  0  0  0  0  0  0  0  0  0  0
   56.7360   30.5830   43.6080 C   0  0  0  0  0  0  0  0  0  0  0  0
   56.7412   31.4638   42.9491 H   0  0  0  0  0  0  0  0  0  0  0  0
  1  2  1  0
  2  3  1  0
  3  4  1  0
  4  5  2  0
  5  6  1  0
  6  7  2  0
  6  8  1  0
  8  9  2  0
  9 10  1  0
  9 11  1  0
 11 12  1  0
 11 13  2  0
 13 14  1  0
 13 15  1  0
 15 16  1  0
 15 17  2  0
 17 18  1  0
  4 19  1  0
 19 20  1  0
 19 21  2  0
 21 22  1  0
 21 23  1  0
 23 24  1  0
 23  2  2  0
 17  8  1  0
M  CHG  1   3  -1
M  END
>  <UniqueID>  (81) 
72

>  <SMILES>  (81) 
O=C(/N=c1/cccc[n-]1)c1ccccc1

>  <Energy>  (81) 
33.541754710740015

>  <Genealogy>  (81) 
O=C(N=c1cccc[n-]1)c1ccccc1 (protonated)
O=C(/N=c1/cccc[n-]1)c1ccccc1 (cis-trans isomerization)
O=C(/N=c1/cccc[n-]1)c1ccccc1 (3D coordinates assigned)
O=C(/N=c1/cccc[n-]1)c1ccccc1 (optimized conformer: 33.541754710740015 kcal/mol)

>  <smiles>  (81) 
O=C(N=c1cccc[nH]1)c1ccccc1

>  <score_type>  (81) 
oracle

>  <origin>  (81) 
adg

>  <m_score__min__energy>  (81) 
-8.1899999999999995

>  <m_primary>  (81) 
energy

$$$$
81:0
     RDKit          3D

 42 44  0  0  0  0  0  0  0  0999 V2000
   56.7280   31.5130   53.1150 C   0  0  0  0  0  0  0  0  0  0  0  0
   56.6380   30.2960   52.2420 C   0  0  0  0  0  0  0  0  0  0  0  0
   55.5100   29.7620   52.0740 O   0  0  0  0  0  0  0  0  0  0  0  0
   57.7780   29.7020   51.5920 N   0  0  0  0  0  0  0  0  0  0  0  0
   58.4720   30.1490   50.5840 C   0  0  0  0  0  0  0  0  0  0  0  0
   59.0680   29.2320   49.7080 C   0  0  0  0  0  0  0  0  0  0  0  0
   59.8100   29.6980   48.6210 C   0  0  0  0  0  0  0  0  0  0  0  0
   59.9500   31.0730   48.4130 C   0  0  0  0  0  0  0  0  0  0  0  0
   60.8860   31.6900   47.0140 S   0  0  0  0  0  0  0  0  0  0  0  0
   59.4350   32.4190   46.2540 C   0  0  0  0  0  0  0  0  0  0  0  0
   59.2930   33.8110   46.2100 C   0  0  0  0  0  0  0  0  0  0  0  0
   58.1580   34.3790   45.6280 C   0  0  0  0  0  0  0  0  0  0  0  0
   57.1690   33.5590   45.0760 C   0  0  0  0  0  0  0  0  0  0  0  0
   57.3130   32.1650   45.0900 C   0  0  0  0  0  0  0  0  0  0  0  0
   56.2700   31.3600   44.5210 N   0  0  0  0  0  0  0  0  0  0  0  0
   56.2050   29.9280   44.5240 C   0  0  0  0  0  0  0  0  0  0  0  0
   55.1570   29.3360   44.8960 O   0  0  0  0  0  0  0  0  0  0  0  0
   57.3520   29.1840   44.1010 N   0  0  0  0  0  0  0  0  0  0  0  0
   58.2050   28.3810   44.9290 C   0  0  0  0  0  0  0  0  0  0  0  0
   59.5990   28.5740   44.9780 C   0  0  0  0  0  0  0  0  0  0  0  0
   60.3950   27.7530   45.7820 C   0  0  0  0  0  0  0  0  0  0  0  0
   59.8130   26.7270   46.5310 C   0  0  0  0  0  0  0  0  0  0  0  0
   58.4330   26.5130   46.4680 C   0  0  0  0  0  0  0  0  0  0  0  0
   57.7030   25.2160   47.3970 Cl  0  0  0  0  0  0  0  0  0  0  0  0
   57.6340   27.3330   45.6640 C   0  0  0  0  0  0  0  0  0  0  0  0
   58.4410   31.5970   45.7090 C   0  0  0  0  0  0  0  0  0  0  0  0
   59.3470   31.9610   49.3060 C   0  0  0  0  0  0  0  0  0  0  0  0
   58.6290   31.4850   50.3570 N   0  0  0  0  0  0  0  0  0  0  0  0
   56.7055   31.2086   54.1718 H   0  0  0  0  0  0  0  0  0  0  0  0
   57.6679   32.0450   52.9066 H   0  0  0  0  0  0  0  0  0  0  0  0
   55.8765   32.1775   52.9066 H   0  0  0  0  0  0  0  0  0  0  0  0
   58.9519   28.1511   49.8758 H   0  0  0  0  0  0  0  0  0  0  0  0
   60.2832   28.9848   47.9300 H   0  0  0  0  0  0  0  0  0  0  0  0
   60.0756   34.4573   46.6340 H   0  0  0  0  0  0  0  0  0  0  0  0
   58.0417   35.4726   45.6037 H   0  0  0  0  0  0  0  0  0  0  0  0
   56.2719   34.0111   44.6278 H   0  0  0  0  0  0  0  0  0  0  0  0
   60.0631   29.3734   44.3817 H   0  0  0  0  0  0  0  0  0  0  0  0
   61.4821   27.9150   45.8251 H   0  0  0  0  0  0  0  0  0  0  0  0
   60.4404   26.0880   47.1699 H   0  0  0  0  0  0  0  0  0  0  0  0
   56.5501   27.1540   45.6083 H   0  0  0  0  0  0  0  0  0  0  0  0
   58.5427   30.5032   45.7652 H   0  0  0  0  0  0  0  0  0  0  0  0
   59.4531   33.0459   49.1588 H   0  0  0  0  0  0  0  0  0  0  0  0
  1  2  1  0
  2  3  2  0
  2  4  1  0
  4  5  2  3
  5  6  1  0
  6  7  2  0
  7  8  1  0
  8  9  1  0
  9 10  1  0
 10 11  2  0
 11 12  1  0
 12 13  2  0
 13 14  1  0
 14 15  1  0
 15 16  1  0
 16 17  2  0
 16 18  1  0
 18 19  1  0
 19 20  2  0
 20 21  1  0
 21 22  2  0
 22 23  1  0
 23 24  1  0
 23 25  2  0
 14 26  2  0
  8 27  2  0
 27 28  1  0
 28  5  1  0
 26 10  1  0
 25 19  1  0
  1 29  1  0
  1 30  1  0
  1 31  1  0
  6 32  1  0
  7 33  1  0
 11 34  1  0
 12 35  1  0
 13 36  1  0
 20 37  1  0
 21 38  1  0
 22 39  1  0
 25 40  1  0
 26 41  1  0
 27 42  1  0
M  CHG  3  15  -1  18  -1  28  -1
M  END
>  <UniqueID>  (82) 
73

>  <SMILES>  (82) 
CC(=O)N=c1ccc(Sc2cccc([N-]C(=O)[N-]c3cccc(Cl)c3)c2)c[n-]1

>  <Energy>  (82) 
50.24135035095481

>  <Genealogy>  (82) 
CC(=O)N=c1ccc(Sc2cccc([N-]C(=O)[N-]c3cccc(Cl)c3)c2)c[n-]1 (protonated)
CC(=O)N=c1ccc(Sc2cccc([N-]C(=O)[N-]c3cccc(Cl)c3)c2)c[n-]1 (3D coordinates assigned)
CC(=O)N=c1ccc(Sc2cccc([N-]C(=O)[N-]c3cccc(Cl)c3)c2)c[n-]1 (optimized conformer: 50.24135035095481 kcal/mol)

>  <smiles>  (82) 
CC(=O)N=c1ccc(Sc2cccc(NC(=O)Nc3cccc(Cl)c3)c2)c[nH]1

>  <score_type>  (82) 
oracle

>  <origin>  (82) 
adg

>  <m_score__min__energy>  (82) 
-13.09

>  <m_primary>  (82) 
energy

$$$$
82:0
     RDKit          3D

 37 40  0  0  0  0  0  0  0  0999 V2000
   58.2880   23.5600   46.3760 F   0  0  0  0  0  0  0  0  0  0  0  0
   58.3890   24.8840   46.1030 C   0  0  0  0  0  0  0  0  0  0  0  0
   58.7130   25.7830   47.1180 C   0  0  0  0  0  0  0  0  0  0  0  0
   58.8200   27.1470   46.8370 C   0  0  0  0  0  0  0  0  0  0  0  0
   58.6180   27.6370   45.5300 C   0  0  0  0  0  0  0  0  0  0  0  0
   58.7520   29.1420   45.3100 C   0  0  1  0  0  0  0  0  0  0  0  0
   57.4450   29.8020   44.9120 C   0  0  0  0  0  0  0  0  0  0  0  0
   56.3130   29.1200   44.5150 C   0  0  0  0  0  0  0  0  0  0  0  0
   55.3190   29.9940   44.2800 N   0  0  0  0  0  0  0  0  0  0  0  0
   55.7710   31.2180   44.5030 N   0  0  0  0  0  0  0  0  0  0  0  0
   57.0630   31.1430   44.8780 C   0  0  0  0  0  0  0  0  0  0  0  0
   57.8690   32.3430   45.1870 C   0  0  0  0  0  0  0  0  0  0  0  0
   58.4770   33.0710   44.1530 C   0  0  0  0  0  0  0  0  0  0  0  0
   59.2500   34.1920   44.4640 C   0  0  0  0  0  0  0  0  0  0  0  0
   59.4210   34.5700   45.7970 C   0  0  0  0  0  0  0  0  0  0  0  0
   58.8180   33.8140   46.8010 C   0  0  0  0  0  0  0  0  0  0  0  0
   58.0670   32.7260   46.4770 N   0  0  0  0  0  0  0  0  0  0  0  0
   59.3930   29.8640   46.4200 N   0  0  0  0  0  0  0  0  0  0  0  0
   60.6210   30.4090   46.4000 C   0  0  0  0  0  0  0  0  0  0  0  0
   60.8480   30.9990   47.6220 C   0  0  0  0  0  0  0  0  0  0  0  0
   59.7660   30.8330   48.4100 N   0  0  0  0  0  0  0  0  0  0  0  0
   58.8980   30.1380   47.6470 C   0  0  0  0  0  0  0  0  0  0  0  0
   58.2670   26.7130   44.5140 C   0  0  0  0  0  0  0  0  0  0  0  0
   58.0530   27.0980   43.2330 F   0  0  0  0  0  0  0  0  0  0  0  0
   58.1630   25.3490   44.8070 C   0  0  0  0  0  0  0  0  0  0  0  0
   58.8846   25.4178   48.1413 H   0  0  0  0  0  0  0  0  0  0  0  0
   59.0655   27.8495   47.6471 H   0  0  0  0  0  0  0  0  0  0  0  0
   59.4409   29.2224   44.4562 H   0  0  0  0  0  0  0  0  0  0  0  0
   56.2358   28.0280   44.4073 H   0  0  0  0  0  0  0  0  0  0  0  0
   58.3459   32.7613   43.1057 H   0  0  0  0  0  0  0  0  0  0  0  0
   59.7229   34.7757   43.6605 H   0  0  0  0  0  0  0  0  0  0  0  0
   60.0243   35.4538   46.0520 H   0  0  0  0  0  0  0  0  0  0  0  0
   58.9492   34.0969   47.8559 H   0  0  0  0  0  0  0  0  0  0  0  0
   61.3231   30.3872   45.5535 H   0  0  0  0  0  0  0  0  0  0  0  0
   61.7697   31.5249   47.9117 H   0  0  0  0  0  0  0  0  0  0  0  0
   57.8983   29.8286   47.9858 H   0  0  0  0  0  0  0  0  0  0  0  0
   57.9011   24.6378   44.0097 H   0  0  0  0  0  0  0  0  0  0  0  0
  1  2  1  0
  2  3  2  0
  3  4  1  0
  4  5  2  0
  5  6  1  0
  6  7  1  0
  7  8  2  0
  8  9  1  0
  9 10  1  0
 10 11  2  0
 11 12  1  0
 12 13  2  0
 13 14  1  0
 14 15  2  0
 15 16  1  0
 16 17  2  0
  6 18  1  0
 18 19  1  0
 19 20  2  0
 20 21  1  0
 21 22  2  0
  5 23  1  0
 23 24  1  0
 23 25  2  0
 25  2  1  0
 11  7  1  0
 17 12  1  0
 22 18  1  0
  3 26  1  0
  4 27  1  0
  6 28  1  6
  8 29  1  0
 13 30  1  0
 14 31  1  0
 15 32  1  0
 16 33  1  0
 19 34  1  0
 20 35  1  0
 22 36  1  0
 25 37  1  0
M  CHG  1   9  -1
M  END
>  <UniqueID>  (83) 
74

>  <SMILES>  (83) 
Fc1ccc([C@@H](c2c[n-]nc2-c2ccccn2)n2ccnc2)c(F)c1

>  <Energy>  (83) 
109.499287823667

>  <Genealogy>  (83) 
Fc1ccc(C(c2c[n-]nc2-c2ccccn2)n2ccnc2)c(F)c1 (protonated)
Fc1ccc([C@@H](c2c[n-]nc2-c2ccccn2)n2ccnc2)c(F)c1 (chirality)
Fc1ccc([C@@H](c2c[n-]nc2-c2ccccn2)n2ccnc2)c(F)c1 (3D coordinates assigned)
Fc1ccc([C@@H](c2c[n-]nc2-c2ccccn2)n2ccnc2)c(F)c1 (optimized conformer: 109.499287823667 kcal/mol)

>  <smiles>  (83) 
Fc1ccc(C(c2c[nH]nc2-c2ccccn2)n2ccnc2)c(F)c1

>  <score_type>  (83) 
oracle

>  <origin>  (83) 
adg

>  <m_score__min__energy>  (83) 
-8.8300000000000001

>  <m_primary>  (83) 
energy

$$$$
83:0
     RDKit          3D

 41 42  0  0  0  0  0  0  0  0999 V2000
   55.4790   24.2100   44.5420 C   0  0  0  0  0  0  0  0  0  0  0  0
   54.6010   24.8510   45.6120 C   0  0  0  0  0  0  0  0  0  0  0  0
   55.1360   26.1130   46.0160 O   0  0  0  0  0  0  0  0  0  0  0  0
   56.4880   26.4910   45.9480 C   0  0  0  0  0  0  0  0  0  0  0  0
   57.5360   25.6200   46.3100 C   0  0  0  0  0  0  0  0  0  0  0  0
   58.8650   26.0430   46.2340 C   0  0  0  0  0  0  0  0  0  0  0  0
   59.1630   27.3390   45.8120 C   0  0  0  0  0  0  0  0  0  0  0  0
   58.1360   28.2130   45.4560 C   0  0  0  0  0  0  0  0  0  0  0  0
   56.7940   27.7900   45.5020 C   0  0  0  0  0  0  0  0  0  0  0  0
   55.7180   28.6760   45.1590 N   0  0  0  0  0  0  0  0  0  0  0  0
   55.7570   29.7030   44.1630 C   0  0  0  0  0  0  0  0  0  0  0  0
   55.5460   29.3990   42.9590 O   0  0  0  0  0  0  0  0  0  0  0  0
   56.0890   31.0490   44.5160 N   0  0  0  0  0  0  0  0  0  0  0  0
   57.2260   31.7620   43.9520 C   0  0  0  0  0  0  0  0  0  0  0  0
   57.9770   32.4600   45.0560 C   0  0  0  0  0  0  0  0  0  0  0  0
   58.4910   33.7470   44.8230 C   0  0  0  0  0  0  0  0  0  0  0  0
   59.1790   34.4270   45.8280 C   0  0  0  0  0  0  0  0  0  0  0  0
   59.3570   33.8380   47.0790 C   0  0  0  0  0  0  0  0  0  0  0  0
   58.8390   32.5560   47.3400 C   0  0  0  0  0  0  0  0  0  0  0  0
   58.9900   31.9330   48.5900 O   0  0  0  0  0  0  0  0  0  0  0  0
   59.6490   30.6860   48.7960 C   0  0  0  0  0  0  0  0  0  0  0  0
   58.1440   31.8690   46.3320 C   0  0  0  0  0  0  0  0  0  0  0  0
   57.6280   30.6050   46.6300 O   0  0  0  0  0  0  0  0  0  0  0  0
   56.2776   23.6269   45.0239 H   0  0  0  0  0  0  0  0  0  0  0  0
   54.8667   23.5450   43.9152 H   0  0  0  0  0  0  0  0  0  0  0  0
   55.9259   24.9958   43.9152 H   0  0  0  0  0  0  0  0  0  0  0  0
   53.5894   25.0009   45.2067 H   0  0  0  0  0  0  0  0  0  0  0  0
   54.5672   24.1851   46.4869 H   0  0  0  0  0  0  0  0  0  0  0  0
   57.3055   24.6010   46.6544 H   0  0  0  0  0  0  0  0  0  0  0  0
   59.6775   25.3536   46.5071 H   0  0  0  0  0  0  0  0  0  0  0  0
   60.2100   27.6722   45.7599 H   0  0  0  0  0  0  0  0  0  0  0  0
   58.3759   29.2382   45.1376 H   0  0  0  0  0  0  0  0  0  0  0  0
   57.8940   31.0477   43.4485 H   0  0  0  0  0  0  0  0  0  0  0  0
   56.8690   32.5051   43.2237 H   0  0  0  0  0  0  0  0  0  0  0  0
   58.3497   34.2217   43.8408 H   0  0  0  0  0  0  0  0  0  0  0  0
   59.5825   35.4315   45.6328 H   0  0  0  0  0  0  0  0  0  0  0  0
   59.9048   34.3778   47.8655 H   0  0  0  0  0  0  0  0  0  0  0  0
   59.7485   30.4977   49.8752 H   0  0  0  0  0  0  0  0  0  0  0  0
   59.0595   29.8793   48.3359 H   0  0  0  0  0  0  0  0  0  0  0  0
   60.6476   30.7186   48.3359 H   0  0  0  0  0  0  0  0  0  0  0  0
   56.7790   30.2380   46.2210 H   0  0  0  0  0  0  0  0  0  0  0  0
  1  2  1  0
  2  3  1  0
  3  4  1  0
  4  5  2  0
  5  6  1  0
  6  7  2  0
  7  8  1  0
  8  9  2  0
  9 10  1  0
 10 11  1  0
 11 12  2  0
 11 13  1  0
 13 14  1  0
 14 15  1  0
 15 16  2  0
 16 17  1  0
 17 18  2  0
 18 19  1  0
 19 20  1  0
 20 21  1  0
 19 22  2  0
 22 23  1  0
  9  4  1  0
 22 15  1  0
  1 24  1  0
  1 25  1  0
  1 26  1  0
  2 27  1  0
  2 28  1  0
  5 29  1  0
  6 30  1  0
  7 31  1  0
  8 32  1  0
 14 33  1  0
 14 34  1  0
 16 35  1  0
 17 36  1  0
 18 37  1  0
 21 38  1  0
 21 39  1  0
 21 40  1  0
 23 41  1  0
M  CHG  2  10  -1  13  -1
M  END
>  <UniqueID>  (84) 
75

>  <SMILES>  (84) 
CCOc1ccccc1[N-]C(=O)[N-]Cc1cccc(OC)c1O

>  <Energy>  (84) 
40.789860917702676

>  <Genealogy>  (84) 
CCOc1ccccc1[N-]C(=O)[N-]Cc1cccc(OC)c1O (protonated)
CCOc1ccccc1[N-]C(=O)[N-]Cc1cccc(OC)c1O (3D coordinates assigned)
CCOc1ccccc1[N-]C(=O)[N-]Cc1cccc(OC)c1O (optimized conformer: 40.789860917702676 kcal/mol)

>  <smiles>  (84) 
CCOc1ccccc1NC(=O)NCc1cccc(OC)c1O

>  <score_type>  (84) 
oracle

>  <origin>  (84) 
adg

>  <m_score__min__energy>  (84) 
-11.199999999999999

>  <m_primary>  (84) 
energy

$$$$
84:0
     RDKit          3D

 48 50  0  0  0  0  0  0  0  0999 V2000
   56.0540   23.0040   43.1200 C   0  0  0  0  0  0  0  0  0  0  0  0
   55.1570   23.2340   44.3300 C   0  0  0  0  0  0  0  0  0  0  0  0
   55.5780   24.4620   45.0690 C   0  0  0  0  0  0  0  0  0  0  0  0
   54.7070   25.3330   45.6270 N   0  0  0  0  0  0  0  0  0  0  0  0
   55.3040   26.3220   46.2870 N   0  0  0  0  0  0  0  0  0  0  0  0
   56.6540   26.2270   46.2710 C   0  0  0  0  0  0  0  0  0  0  0  0
   57.4560   27.0810   46.8320 N   0  0  0  0  0  0  0  0  0  0  0  0
   58.5070   27.7970   46.1640 C   0  0  0  0  0  0  0  0  0  0  0  0
   59.5300   27.1610   45.7980 O   0  0  0  0  0  0  0  0  0  0  0  0
   58.4450   29.2610   45.9390 C   0  0  0  0  0  0  0  0  0  0  0  0
   59.3520   30.1230   46.5780 C   0  0  0  0  0  0  0  0  0  0  0  0
   59.2710   31.5060   46.3820 C   0  0  0  0  0  0  0  0  0  0  0  0
   58.2960   32.0430   45.5320 C   0  0  0  0  0  0  0  0  0  0  0  0
   58.1770   33.7900   45.3480 S   0  0  0  0  0  0  0  0  0  0  0  0
   59.0850   34.2250   44.2330 O   0  0  0  0  0  0  0  0  0  0  0  0
   56.7670   34.1880   45.0050 O   0  0  0  0  0  0  0  0  0  0  0  0
   58.6600   34.5690   46.8230 N   0  0  0  0  0  0  0  0  0  0  0  0
   60.0050   35.1260   46.6700 C   0  0  0  0  0  0  0  0  0  0  0  0
   61.0180   34.1770   47.2560 C   0  0  0  0  0  0  0  0  0  0  0  0
   62.1580   33.8410   46.5110 C   0  0  0  0  0  0  0  0  0  0  0  0
   63.1190   32.9780   47.0400 C   0  0  0  0  0  0  0  0  0  0  0  0
   62.9570   32.4510   48.3220 C   0  0  0  0  0  0  0  0  0  0  0  0
   61.8360   32.7900   49.0830 C   0  0  0  0  0  0  0  0  0  0  0  0
   60.8600   33.6640   48.5650 C   0  0  0  0  0  0  0  0  0  0  0  0
   59.7330   34.0420   49.3150 O   0  0  0  0  0  0  0  0  0  0  0  0
   59.3440   33.4460   50.5500 C   0  0  0  0  0  0  0  0  0  0  0  0
   57.4080   31.1870   44.8680 C   0  0  0  0  0  0  0  0  0  0  0  0
   57.4870   29.8030   45.0650 C   0  0  0  0  0  0  0  0  0  0  0  0
   57.1770   24.8880   45.4020 S   0  0  0  0  0  0  0  0  0  0  0  0
   57.0676   22.7441   43.4591 H   0  0  0  0  0  0  0  0  0  0  0  0
   55.6479   22.1809   42.5137 H   0  0  0  0  0  0  0  0  0  0  0  0
   56.0940   23.9209   42.5137 H   0  0  0  0  0  0  0  0  0  0  0  0
   54.1171   23.3539   43.9919 H   0  0  0  0  0  0  0  0  0  0  0  0
   55.2400   22.3682   45.0034 H   0  0  0  0  0  0  0  0  0  0  0  0
   60.1300   29.7084   47.2359 H   0  0  0  0  0  0  0  0  0  0  0  0
   59.9761   32.1744   46.8977 H   0  0  0  0  0  0  0  0  0  0  0  0
   58.6930   33.8260   47.5610 H   0  0  0  0  0  0  0  0  0  0  0  0
   60.2194   35.2754   45.6015 H   0  0  0  0  0  0  0  0  0  0  0  0
   60.0619   36.0900   47.1968 H   0  0  0  0  0  0  0  0  0  0  0  0
   62.2955   34.2603   45.5034 H   0  0  0  0  0  0  0  0  0  0  0  0
   64.0056   32.7128   46.4454 H   0  0  0  0  0  0  0  0  0  0  0  0
   63.7138   31.7672   48.7340 H   0  0  0  0  0  0  0  0  0  0  0  0
   61.7144   32.3719   50.0932 H   0  0  0  0  0  0  0  0  0  0  0  0
   59.7351   34.0452   51.3855 H   0  0  0  0  0  0  0  0  0  0  0  0
   58.2463   33.4073   50.6088 H   0  0  0  0  0  0  0  0  0  0  0  0
   59.7505   32.4256   50.6088 H   0  0  0  0  0  0  0  0  0  0  0  0
   56.6474   31.6027   44.1907 H   0  0  0  0  0  0  0  0  0  0  0  0
   56.7943   29.1351   44.5319 H   0  0  0  0  0  0  0  0  0  0  0  0
  1  2  1  0
  2  3  1  0
  3  4  2  0
  4  5  1  0
  5  6  1  0
  6  7  2  3
  7  8  1  0
  8  9  2  0
  8 10  1  0
 10 11  2  0
 11 12  1  0
 12 13  2  0
 13 14  1  0
 14 15  2  0
 14 16  2  0
 14 17  1  0
 17 18  1  0
 18 19  1  0
 19 20  2  0
 20 21  1  0
 21 22  2  0
 22 23  1  0
 23 24  2  0
 24 25  1  0
 25 26  1  0
 13 27  1  0
 27 28  2  0
  6 29  1  0
 29  3  1  0
 28 10  1  0
 24 19  1  0
  1 30  1  0
  1 31  1  0
  1 32  1  0
  2 33  1  0
  2 34  1  0
 11 35  1  0
 12 36  1  0
 17 37  1  0
 18 38  1  0
 18 39  1  0
 20 40  1  0
 21 41  1  0
 22 42  1  0
 23 43  1  0
 26 44  1  0
 26 45  1  0
 26 46  1  0
 27 47  1  0
 28 48  1  0
M  CHG  1   5  -1
M  END
>  <UniqueID>  (85) 
76

>  <SMILES>  (85) 
CCc1n[n-]c(=NC(=O)c2ccc(S(=O)(=O)NCc3ccccc3OC)cc2)s1

>  <Energy>  (85) 
84.2324027082269

>  <Genealogy>  (85) 
CCc1n[n-]c(=NC(=O)c2ccc(S(=O)(=O)NCc3ccccc3OC)cc2)s1 (protonated)
CCc1n[n-]c(=NC(=O)c2ccc(S(=O)(=O)NCc3ccccc3OC)cc2)s1 (3D coordinates assigned)
CCc1n[n-]c(=NC(=O)c2ccc(S(=O)(=O)NCc3ccccc3OC)cc2)s1 (optimized conformer: 84.2324027082269 kcal/mol)

>  <smiles>  (85) 
CCc1n[nH]c(=NC(=O)c2ccc(S(=O)(=O)NCc3ccccc3OC)cc2)s1

>  <score_type>  (85) 
oracle

>  <origin>  (85) 
adg

>  <m_score__min__energy>  (85) 
-10.66

>  <m_primary>  (85) 
energy

$$$$
85:0
     RDKit          3D

 47 49  0  0  0  0  0  0  0  0999 V2000
   56.0390   29.7550   44.1460 C   0  0  0  0  0  0  0  0  0  0  0  0
   55.5410   28.7030   44.9660 O   0  0  0  0  0  0  0  0  0  0  0  0
   56.3460   27.7440   45.6020 C   0  0  0  0  0  0  0  0  0  0  0  0
   57.7220   27.9490   45.8260 C   0  0  0  0  0  0  0  0  0  0  0  0
   58.4970   26.9630   46.4550 C   0  0  0  0  0  0  0  0  0  0  0  0
   59.9780   27.1740   46.6470 C   0  0  0  0  0  0  0  0  0  0  0  0
   60.2540   28.5000   47.2330 N   0  0  0  0  0  0  0  0  0  0  0  0
   60.6730   29.5880   46.3740 C   0  0  0  0  0  0  0  0  0  0  0  0
   61.2360   29.3450   45.2730 O   0  0  0  0  0  0  0  0  0  0  0  0
   60.4780   30.9980   46.7710 C   0  0  0  0  0  0  0  0  0  0  0  0
   61.5790   31.7510   47.2090 C   0  0  0  0  0  0  0  0  0  0  0  0
   61.4130   33.0760   47.6300 C   0  0  0  0  0  0  0  0  0  0  0  0
   62.8220   33.9580   48.2030 Cl  0  0  0  0  0  0  0  0  0  0  0  0
   60.1360   33.6660   47.5960 C   0  0  0  0  0  0  0  0  0  0  0  0
   59.9250   34.9820   48.0090 O   0  0  0  0  0  0  0  0  0  0  0  0
   59.0440   32.9230   47.1340 C   0  0  0  0  0  0  0  0  0  0  0  0
   59.2090   31.6000   46.7150 C   0  0  0  0  0  0  0  0  0  0  0  0
   58.1100   30.8980   46.2300 O   0  0  0  0  0  0  0  0  0  0  0  0
   60.0910   28.6870   48.6920 C   0  0  2  0  0  0  0  0  0  0  0  0
   58.7620   29.3820   49.0480 C   0  0  0  0  0  0  0  0  0  0  0  0
   58.8480   29.8640   50.4940 C   0  0  0  0  0  0  0  0  0  0  0  0
   60.5610   30.1950   50.7820 S   0  0  0  0  0  0  0  0  0  0  0  0
   61.0520   29.5130   52.0280 O   0  0  0  0  0  0  0  0  0  0  0  0
   60.8350   31.6710   50.8400 O   0  0  0  0  0  0  0  0  0  0  0  0
   61.2510   29.4660   49.3290 C   0  0  0  0  0  0  0  0  0  0  0  0
   57.8860   25.7710   46.8740 C   0  0  0  0  0  0  0  0  0  0  0  0
   56.5220   25.5630   46.6540 C   0  0  0  0  0  0  0  0  0  0  0  0
   55.7550   26.5430   46.0200 C   0  0  0  0  0  0  0  0  0  0  0  0
   54.3990   26.3210   45.8050 O   0  0  0  0  0  0  0  0  0  0  0  0
   56.4228   30.5658   44.7826 H   0  0  0  0  0  0  0  0  0  0  0  0
   56.8513   29.3717   43.5109 H   0  0  0  0  0  0  0  0  0  0  0  0
   55.2277   30.1403   43.5109 H   0  0  0  0  0  0  0  0  0  0  0  0
   58.1925   28.8900   45.5050 H   0  0  0  0  0  0  0  0  0  0  0  0
   60.3676   26.3957   47.3197 H   0  0  0  0  0  0  0  0  0  0  0  0
   60.4694   27.1170   45.6645 H   0  0  0  0  0  0  0  0  0  0  0  0
   62.5805   31.2962   47.2215 H   0  0  0  0  0  0  0  0  0  0  0  0
   59.6710   35.2250   48.9580 H   0  0  0  0  0  0  0  0  0  0  0  0
   58.0461   33.3847   47.1003 H   0  0  0  0  0  0  0  0  0  0  0  0
   60.0869   27.6688   49.1083 H   0  0  0  0  0  0  0  0  0  0  0  0
   58.5994   30.2396   48.3787 H   0  0  0  0  0  0  0  0  0  0  0  0
   57.9230   28.6803   48.9307 H   0  0  0  0  0  0  0  0  0  0  0  0
   58.2518   30.7783   50.6304 H   0  0  0  0  0  0  0  0  0  0  0  0
   58.4536   29.1157   51.1972 H   0  0  0  0  0  0  0  0  0  0  0  0
   61.6189   30.2431   48.6429 H   0  0  0  0  0  0  0  0  0  0  0  0
   62.1102   28.8182   49.5574 H   0  0  0  0  0  0  0  0  0  0  0  0
   58.4836   24.9971   47.3778 H   0  0  0  0  0  0  0  0  0  0  0  0
   56.0507   24.6244   46.9812 H   0  0  0  0  0  0  0  0  0  0  0  0
  1  2  1  0
  2  3  1  0
  3  4  2  0
  4  5  1  0
  5  6  1  0
  6  7  1  0
  7  8  1  0
  8  9  2  0
  8 10  1  0
 10 11  2  0
 11 12  1  0
 12 13  1  0
 12 14  2  0
 14 15  1  0
 14 16  1  0
 16 17  2  0
 17 18  1  0
  7 19  1  0
 19 20  1  0
 20 21  1  0
 21 22  1  0
 22 23  2  0
 22 24  2  0
 22 25  1  0
  5 26  2  0
 26 27  1  0
 27 28  2  0
 28 29  1  0
 28  3  1  0
 17 10  1  0
 25 19  1  0
  1 30  1  0
  1 31  1  0
  1 32  1  0
  4 33  1  0
  6 34  1  0
  6 35  1  0
 11 36  1  0
 15 37  1  0
 16 38  1  0
 19 39  1  1
 20 40  1  0
 20 41  1  0
 21 42  1  0
 21 43  1  0
 25 44  1  0
 25 45  1  0
 26 46  1  0
 27 47  1  0
M  CHG  2  18  -1  29  -1
M  END
>  <UniqueID>  (86) 
77

>  <SMILES>  (86) 
COc1cc(CN(C(=O)c2cc(Cl)c(O)cc2[O-])[C@@H]2CCS(=O)(=O)C2)ccc1[O-]

>  <Energy>  (86) 
51.959245806502764

>  <Genealogy>  (86) 
COc1cc(CN(C(=O)c2cc(Cl)c(O)cc2[O-])C2CCS(=O)(=O)C2)ccc1[O-] (protonated)
COc1cc(CN(C(=O)c2cc(Cl)c(O)cc2[O-])[C@@H]2CCS(=O)(=O)C2)ccc1[O-] (chirality)
COc1cc(CN(C(=O)c2cc(Cl)c(O)cc2[O-])[C@@H]2CCS(=O)(=O)C2)ccc1[O-] (3D coordinates assigned)
COc1cc(CN(C(=O)c2cc(Cl)c(O)cc2[O-])[C@@H]2CCS(=O)(=O)C2)ccc1[O-] (nonaromatic ring conformer: 51.959245806502764 kcal/mol)

>  <smiles>  (86) 
COc1cc(CN(C(=O)c2cc(Cl)c(O)cc2O)C2CCS(=O)(=O)C2)ccc1O

>  <score_type>  (86) 
oracle

>  <origin>  (86) 
adg

>  <m_score__min__energy>  (86) 
-12.609999999999999

>  <m_primary>  (86) 
energy

$$$$
86:0
     RDKit          3D

 38 40  0  0  0  0  0  0  0  0999 V2000
   60.0126   27.1503   45.7140 H   0  0  0  0  0  0  0  0  0  0  0  0
   58.9190   27.0510   45.7790 C   0  0  0  0  0  0  0  0  0  0  0  0
   58.1180   28.0540   45.3310 N   0  0  0  0  0  0  0  0  0  0  0  0
   56.7570   27.9790   45.3990 C   0  0  0  0  0  0  0  0  0  0  0  0
   56.0070   28.9470   44.9520 N   0  0  0  0  0  0  0  0  0  0  0  0
   56.4460   30.0490   44.1410 C   0  0  0  0  0  0  0  0  0  0  0  0
   56.1140   30.0740   42.9260 O   0  0  0  0  0  0  0  0  0  0  0  0
   57.2290   31.1740   44.7010 C   0  0  0  0  0  0  0  0  0  0  0  0
   57.4140   32.3480   43.9520 C   0  0  0  0  0  0  0  0  0  0  0  0
   56.9502   32.4425   42.9590 H   0  0  0  0  0  0  0  0  0  0  0  0
   58.1840   33.3960   44.4620 C   0  0  0  0  0  0  0  0  0  0  0  0
   58.3340   34.3069   43.8638 H   0  0  0  0  0  0  0  0  0  0  0  0
   58.7660   33.2920   45.7320 C   0  0  0  0  0  0  0  0  0  0  0  0
   59.7960   34.5900   46.3260 S   0  0  0  0  0  0  0  0  0  0  0  0
   59.6020   35.8000   45.4580 O   0  0  0  0  0  0  0  0  0  0  0  0
   59.4500   34.9480   47.7440 O   0  0  0  0  0  0  0  0  0  0  0  0
   61.4550   34.0900   46.2480 N   0  0  0  0  0  0  0  0  0  0  0  0
   62.1470   33.3680   47.2760 C   0  0  0  0  0  0  0  0  0  0  0  0
   63.4220   33.8050   47.6600 C   0  0  0  0  0  0  0  0  0  0  0  0
   63.8633   34.6913   47.1808 H   0  0  0  0  0  0  0  0  0  0  0  0
   64.1370   33.1210   48.6490 C   0  0  0  0  0  0  0  0  0  0  0  0
   65.1390   33.4681   48.9416 H   0  0  0  0  0  0  0  0  0  0  0  0
   63.5800   31.9970   49.2660 C   0  0  0  0  0  0  0  0  0  0  0  0
   64.2910   31.3180   50.2460 O   0  0  0  0  0  0  0  0  0  0  0  0
   62.3060   31.5580   48.8950 C   0  0  0  0  0  0  0  0  0  0  0  0
   61.8667   30.6746   49.3814 H   0  0  0  0  0  0  0  0  0  0  0  0
   61.5880   32.2400   47.9060 C   0  0  0  0  0  0  0  0  0  0  0  0
   60.5839   31.8936   47.6201 H   0  0  0  0  0  0  0  0  0  0  0  0
   58.5540   32.1370   46.4970 C   0  0  0  0  0  0  0  0  0  0  0  0
   58.9914   32.0584   47.5032 H   0  0  0  0  0  0  0  0  0  0  0  0
   57.7900   31.0860   45.9870 C   0  0  0  0  0  0  0  0  0  0  0  0
   57.6260   30.1839   46.5947 H   0  0  0  0  0  0  0  0  0  0  0  0
   56.1580   26.8260   45.9280 C   0  0  0  0  0  0  0  0  0  0  0  0
   54.7730   26.7110   45.9970 O   0  0  0  0  0  0  0  0  0  0  0  0
   56.9660   25.7840   46.3930 C   0  0  0  0  0  0  0  0  0  0  0  0
   56.5075   24.8775   46.8149 H   0  0  0  0  0  0  0  0  0  0  0  0
   58.3550   25.8960   46.3210 C   0  0  0  0  0  0  0  0  0  0  0  0
   58.9982   25.0824   46.6876 H   0  0  0  0  0  0  0  0  0  0  0  0
  1  2  1  0
  2  3  1  0
  3  4  1  0
  4  5  2  0
  5  6  1  0
  6  7  2  0
  6  8  1  0
  8  9  2  0
  9 10  1  0
  9 11  1  0
 11 12  1  0
 11 13  2  0
 13 14  1  0
 14 15  2  0
 14 16  2  0
 14 17  1  0
 17 18  1  0
 18 19  2  0
 19 20  1  0
 19 21  1  0
 21 22  1  0
 21 23  2  0
 23 24  1  0
 23 25  1  0
 25 26  1  0
 25 27  2  0
 27 28  1  0
 13 29  1  0
 29 30  1  0
 29 31  2  0
 31 32  1  0
  4 33  1  0
 33 34  1  0
 33 35  2  0
 35 36  1  0
 35 37  1  0
 37 38  1  0
 37  2  2  0
 31  8  1  0
 27 18  1  0
M  CHG  4   3  -1  17  -1  24  -1  34  -1
M  END
>  <UniqueID>  (87) 
78

>  <SMILES>  (87) 
O=C(/N=c1\[n-]cccc1[O-])c1ccc(S(=O)(=O)[N-]c2ccc([O-])cc2)cc1

>  <Energy>  (87) 
52.63539227452878

>  <Genealogy>  (87) 
O=C(N=c1[n-]cccc1[O-])c1ccc(S(=O)(=O)[N-]c2ccc([O-])cc2)cc1 (protonated)
O=C(/N=c1\[n-]cccc1[O-])c1ccc(S(=O)(=O)[N-]c2ccc([O-])cc2)cc1 (cis-trans isomerization)
O=C(/N=c1\[n-]cccc1[O-])c1ccc(S(=O)(=O)[N-]c2ccc([O-])cc2)cc1 (3D coordinates assigned)
O=C(/N=c1\[n-]cccc1[O-])c1ccc(S(=O)(=O)[N-]c2ccc([O-])cc2)cc1 (optimized conformer: 52.63539227452878 kcal/mol)

>  <smiles>  (87) 
O=C(N=c1[nH]cccc1O)c1ccc(S(=O)(=O)Nc2ccc(O)cc2)cc1

>  <score_type>  (87) 
oracle

>  <origin>  (87) 
adg

>  <m_score__min__energy>  (87) 
-15.699999999999999

>  <m_primary>  (87) 
energy

$$$$
87:0
     RDKit          3D

 55 57  0  0  0  0  0  0  0  0999 V2000
   60.0820   33.2450   49.9050 O   0  0  0  0  0  0  0  0  0  0  0  0
   59.9010   31.9980   49.9630 C   0  0  0  0  0  0  0  0  0  0  0  0
   58.5460   31.4370   49.6490 C   0  0  0  0  0  0  0  0  0  0  0  0
   58.5480   29.9770   49.7100 N   0  0  0  0  0  0  0  0  0  0  0  0
   59.3270   29.0930   48.8900 C   0  0  0  0  0  0  0  0  0  0  0  0
   60.1060   28.2790   49.4510 O   0  0  0  0  0  0  0  0  0  0  0  0
   59.2810   29.1370   47.4160 C   0  0  0  0  0  0  0  0  0  0  0  0
   60.3700   28.6510   46.6750 C   0  0  0  0  0  0  0  0  0  0  0  0
   60.3410   28.6830   45.2790 C   0  0  0  0  0  0  0  0  0  0  0  0
   59.2260   29.1930   44.6120 C   0  0  0  0  0  0  0  0  0  0  0  0
   58.1240   29.6600   45.3390 C   0  0  0  0  0  0  0  0  0  0  0  0
   56.6920   30.2420   44.4980 S   0  0  0  0  0  0  0  0  0  0  0  0
   56.9100   30.1010   43.0170 O   0  0  0  0  0  0  0  0  0  0  0  0
   55.5000   29.4100   44.8810 O   0  0  0  0  0  0  0  0  0  0  0  0
   56.3670   31.9060   44.8620 N   0  0  0  0  0  0  0  0  0  0  0  0
   57.3670   32.8120   45.3340 C   0  0  0  0  0  0  0  0  0  0  0  0
   57.4730   33.1240   46.6990 C   0  0  0  0  0  0  0  0  0  0  0  0
   58.4660   34.0010   47.1450 C   0  0  0  0  0  0  0  0  0  0  0  0
   59.3670   34.5590   46.2340 C   0  0  0  0  0  0  0  0  0  0  0  0
   59.2820   34.2320   44.8770 C   0  0  0  0  0  0  0  0  0  0  0  0
   58.2900   33.3530   44.4290 C   0  0  0  0  0  0  0  0  0  0  0  0
   58.2160   33.0420   43.1090 F   0  0  0  0  0  0  0  0  0  0  0  0
   58.1480   29.6170   46.7400 C   0  0  0  0  0  0  0  0  0  0  0  0
   60.9690   31.1270   50.3590 N   0  0  0  0  0  0  0  0  0  0  0  0
   62.2000   31.6240   50.9750 C   0  0  0  0  0  0  0  0  0  0  0  0
   63.4210   31.2480   50.1270 C   0  0  0  0  0  0  0  0  0  0  0  0
   63.4470   31.9810   48.8400 N   0  0  0  0  0  0  0  0  0  0  0  0
   62.3890   31.4980   47.9190 C   0  0  0  0  0  0  0  0  0  0  0  0
   62.0340   32.5460   46.8500 C   0  0  0  0  0  0  0  0  0  0  0  0
   63.1320   33.4010   46.6210 O   0  0  0  0  0  0  0  0  0  0  0  0
   63.3630   34.2120   47.7590 C   0  0  0  0  0  0  0  0  0  0  0  0
   63.2960   33.4270   49.0890 C   0  0  0  0  0  0  0  0  0  0  0  0
   57.8198   31.8250   50.3785 H   0  0  0  0  0  0  0  0  0  0  0  0
   58.2727   31.7412   48.6278 H   0  0  0  0  0  0  0  0  0  0  0  0
   61.2491   28.2436   47.1957 H   0  0  0  0  0  0  0  0  0  0  0  0
   61.1991   28.3053   44.7037 H   0  0  0  0  0  0  0  0  0  0  0  0
   59.2129   29.2282   43.5126 H   0  0  0  0  0  0  0  0  0  0  0  0
   56.7724   32.6769   47.4196 H   0  0  0  0  0  0  0  0  0  0  0  0
   58.5382   34.2520   48.2135 H   0  0  0  0  0  0  0  0  0  0  0  0
   60.1430   35.2554   46.5844 H   0  0  0  0  0  0  0  0  0  0  0  0
   59.9956   34.6662   44.1613 H   0  0  0  0  0  0  0  0  0  0  0  0
   57.2743   29.9612   47.3128 H   0  0  0  0  0  0  0  0  0  0  0  0
   60.7850   30.0980   50.3900 H   0  0  0  0  0  0  0  0  0  0  0  0
   62.1438   32.7192   51.0613 H   0  0  0  0  0  0  0  0  0  0  0  0
   62.3066   31.1675   51.9701 H   0  0  0  0  0  0  0  0  0  0  0  0
   64.3338   31.4886   50.6917 H   0  0  0  0  0  0  0  0  0  0  0  0
   63.3636   30.1721   49.9053 H   0  0  0  0  0  0  0  0  0  0  0  0
   62.7438   30.5854   47.4178 H   0  0  0  0  0  0  0  0  0  0  0  0
   61.4852   31.2992   48.5137 H   0  0  0  0  0  0  0  0  0  0  0  0
   61.7709   32.0339   45.9127 H   0  0  0  0  0  0  0  0  0  0  0  0
   61.1815   33.1444   47.2039 H   0  0  0  0  0  0  0  0  0  0  0  0
   64.3619   34.6639   47.6695 H   0  0  0  0  0  0  0  0  0  0  0  0
   62.5675   34.9712   47.7867 H   0  0  0  0  0  0  0  0  0  0  0  0
   64.1052   33.7672   49.7520 H   0  0  0  0  0  0  0  0  0  0  0  0
   62.3193   33.6079   49.5616 H   0  0  0  0  0  0  0  0  0  0  0  0
  1  2  2  0
  2  3  1  0
  3  4  1  0
  4  5  1  0
  5  6  2  0
  5  7  1  0
  7  8  2  0
  8  9  1  0
  9 10  2  0
 10 11  1  0
 11 12  1  0
 12 13  2  0
 12 14  2  0
 12 15  1  0
 15 16  1  0
 16 17  2  0
 17 18  1  0
 18 19  2  0
 19 20  1  0
 20 21  2  0
 21 22  1  0
 11 23  2  0
  2 24  1  0
 24 25  1  0
 25 26  1  0
 26 27  1  0
 27 28  1  0
 28 29  1  0
 29 30  1  0
 30 31  1  0
 31 32  1  0
 23  7  1  0
 32 27  1  0
 21 16  1  0
  3 33  1  0
  3 34  1  0
  8 35  1  0
  9 36  1  0
 10 37  1  0
 17 38  1  0
 18 39  1  0
 19 40  1  0
 20 41  1  0
 23 42  1  0
 24 43  1  0
 25 44  1  0
 25 45  1  0
 26 46  1  0
 26 47  1  0
 28 48  1  0
 28 49  1  0
 29 50  1  0
 29 51  1  0
 31 52  1  0
 31 53  1  0
 32 54  1  0
 32 55  1  0
M  CHG  2   4  -1  15  -1
M  END
>  <UniqueID>  (88) 
79

>  <SMILES>  (88) 
O=C(C[N-]C(=O)c1cccc(S(=O)(=O)[N-]c2ccccc2F)c1)NCCN1CCOCC1

>  <Energy>  (88) 
71.36399138914568

>  <Genealogy>  (88) 
O=C(C[N-]C(=O)c1cccc(S(=O)(=O)[N-]c2ccccc2F)c1)NCCN1CCOCC1 (protonated)
O=C(C[N-]C(=O)c1cccc(S(=O)(=O)[N-]c2ccccc2F)c1)NCCN1CCOCC1 (3D coordinates assigned)
O=C(C[N-]C(=O)c1cccc(S(=O)(=O)[N-]c2ccccc2F)c1)NCCN1CCOCC1 (nonaromatic ring conformer: 71.36399138914568 kcal/mol)

>  <smiles>  (88) 
O=C(CNC(=O)c1cccc(S(=O)(=O)Nc2ccccc2F)c1)NCCN1CCOCC1

>  <score_type>  (88) 
oracle

>  <origin>  (88) 
adg

>  <m_score__min__energy>  (88) 
-11.470000000000001

>  <m_primary>  (88) 
energy

$$$$
88:0
     RDKit          3D

 32 33  0  0  0  0  0  0  0  0999 V2000
   59.6175   32.0743   46.0193 H   0  0  0  0  0  0  0  0  0  0  0  0
   58.8960   31.2600   45.8570 C   0  0  0  0  0  0  0  0  0  0  0  0
   57.7290   31.4850   45.1190 C   0  0  0  0  0  0  0  0  0  0  0  0
   57.4440   32.8360   44.5440 C   0  0  0  0  0  0  0  0  0  0  0  0
   57.2918   33.5573   45.3604 H   0  0  0  0  0  0  0  0  0  0  0  0
   58.2941   33.1575   43.9243 H   0  0  0  0  0  0  0  0  0  0  0  0
   56.5365   32.7868   43.9243 H   0  0  0  0  0  0  0  0  0  0  0  0
   56.8460   30.4680   44.9280 N   0  0  0  0  0  0  0  0  0  0  0  0
   57.0500   29.2200   45.4340 C   0  0  0  0  0  0  0  0  0  0  0  0
   56.1940   28.2550   45.2470 N   0  0  0  0  0  0  0  0  0  0  0  0
   56.2740   26.8660   45.6200 C   0  0  0  0  0  0  0  0  0  0  0  0
   55.2460   26.3270   46.1130 O   0  0  0  0  0  0  0  0  0  0  0  0
   57.4980   26.0100   45.4300 C   0  0  0  0  0  0  0  0  0  0  0  0
   57.5088   25.6263   44.3992 H   0  0  0  0  0  0  0  0  0  0  0  0
   58.3853   26.6294   45.6278 H   0  0  0  0  0  0  0  0  0  0  0  0
   57.5170   24.5960   46.5900 S   0  0  0  0  0  0  0  0  0  0  0  0
   57.5930   23.3370   45.3060 C   0  0  0  0  0  0  0  0  0  0  0  0
   58.6300   22.4590   45.3320 N   0  0  0  0  0  0  0  0  0  0  0  0
   58.7410   21.4910   44.4250 N   0  0  0  0  0  0  0  0  0  0  0  0
   59.5500   20.8320   44.4750 H   0  0  0  0  0  0  0  0  0  0  0  0
   57.8190   21.3510   43.4440 C   0  0  0  0  0  0  0  0  0  0  0  0
   57.9123   20.5446   42.7016 H   0  0  0  0  0  0  0  0  0  0  0  0
   56.7500   22.2430   43.3880 C   0  0  0  0  0  0  0  0  0  0  0  0
   55.8920   22.1210   42.4720 O   0  0  0  0  0  0  0  0  0  0  0  0
   56.6450   23.2410   44.3200 N   0  0  0  0  0  0  0  0  0  0  0  0
   55.5740   24.1580   44.2480 N   0  0  0  0  0  0  0  0  0  0  0  0
   54.9170   24.1630   43.4360 H   0  0  0  0  0  0  0  0  0  0  0  0
   55.4090   24.8760   44.9850 H   0  0  0  0  0  0  0  0  0  0  0  0
   58.2100   28.9640   46.1740 C   0  0  0  0  0  0  0  0  0  0  0  0
   58.3929   27.9610   46.5869 H   0  0  0  0  0  0  0  0  0  0  0  0
   59.1340   29.9900   46.3850 C   0  0  0  0  0  0  0  0  0  0  0  0
   60.0478   29.7975   46.9663 H   0  0  0  0  0  0  0  0  0  0  0  0
  1  2  1  0
  2  3  2  0
  3  4  1  0
  4  5  1  0
  4  6  1  0
  4  7  1  0
  3  8  1  0
  8  9  1  0
  9 10  2  0
 10 11  1  0
 11 12  2  0
 11 13  1  0
 13 14  1  0
 13 15  1  0
 13 16  1  0
 16 17  1  0
 17 18  2  0
 18 19  1  0
 19 20  1  0
 19 21  2  0
 21 22  1  0
 21 23  1  0
 23 24  2  0
 23 25  1  0
 25 26  1  0
 26 27  1  0
 26 28  1  0
  9 29  1  0
 29 30  1  0
 29 31  2  0
 31 32  1  0
 31  2  1  0
 25 17  1  0
M  CHG  2   8  -1  19   1
M  END
>  <UniqueID>  (89) 
80

>  <SMILES>  (89) 
Cc1ccc/c(=N/C(=O)CSc2n[nH+]cc(=O)n2N)[n-]1

>  <Energy>  (89) 
35.03073001870495

>  <Genealogy>  (89) 
Cc1cccc(=NC(=O)CSc2n[nH+]cc(=O)n2N)[n-]1 (protonated)
Cc1ccc/c(=N/C(=O)CSc2n[nH+]cc(=O)n2N)[n-]1 (cis-trans isomerization)
Cc1ccc/c(=N/C(=O)CSc2n[nH+]cc(=O)n2N)[n-]1 (3D coordinates assigned)
Cc1ccc/c(=N/C(=O)CSc2n[nH+]cc(=O)n2N)[n-]1 (optimized conformer: 35.03073001870495 kcal/mol)

>  <smiles>  (89) 
Cc1cccc(=NC(=O)CSc2nncc(=O)n2N)[nH]1

>  <score_type>  (89) 
oracle

>  <origin>  (89) 
adg

>  <m_score__min__energy>  (89) 
-8.3000000000000007

>  <m_primary>  (89) 
energy

$$$$
89:0
     RDKit          3D

 47 50  0  0  0  0  0  0  0  0999 V2000
   55.1390   29.3450   44.8200 O   0  0  0  0  0  0  0  0  0  0  0  0
   56.0850   29.9100   44.2100 C   0  0  0  0  0  0  0  0  0  0  0  0
   56.9960   30.7740   44.8960 N   0  0  0  0  0  0  0  0  0  0  0  0
   58.0500   30.3560   45.7730 C   0  0  0  0  0  0  0  0  0  0  0  0
   59.0990   31.1960   46.0050 N   0  0  0  0  0  0  0  0  0  0  0  0
   60.1530   30.8610   46.8120 C   0  0  0  0  0  0  0  0  0  0  0  0
   61.2540   31.8360   47.0190 C   0  0  0  0  0  0  0  0  0  0  0  0
   61.1550   33.1660   46.5650 C   0  0  0  0  0  0  0  0  0  0  0  0
   62.2080   34.0640   46.7650 C   0  0  0  0  0  0  0  0  0  0  0  0
   63.3730   33.6470   47.4130 C   0  0  0  0  0  0  0  0  0  0  0  0
   63.4880   32.3290   47.8590 C   0  0  0  0  0  0  0  0  0  0  0  0
   62.4400   31.4270   47.6610 C   0  0  0  0  0  0  0  0  0  0  0  0
   60.1700   29.5810   47.4080 C   0  0  0  0  0  0  0  0  0  0  0  0
   59.1330   28.7480   47.1440 N   0  0  0  0  0  0  0  0  0  0  0  0
   58.9000   27.4820   47.5220 C   0  0  0  0  0  0  0  0  0  0  0  0
   59.6890   26.7390   48.3980 O   0  0  0  0  0  0  0  0  0  0  0  0
   57.7230   27.0690   46.9250 C   0  0  0  0  0  0  0  0  0  0  0  0
   57.0680   25.7620   47.0750 C   0  0  0  0  0  0  0  0  0  0  0  0
   57.5870   24.9070   47.8380 O   0  0  0  0  0  0  0  0  0  0  0  0
   55.8390   25.4420   46.4100 N   0  0  0  0  0  0  0  0  0  0  0  0
   55.7240   24.6650   45.1750 C   0  0  0  0  0  0  0  0  0  0  0  0
   57.0190   24.8110   44.3640 C   0  0  0  0  0  0  0  0  0  0  0  0
   56.9280   24.0790   43.0080 C   0  0  0  0  0  0  0  0  0  0  0  0
   55.9940   22.8530   43.0340 C   0  0  0  0  0  0  0  0  0  0  0  0
   55.9540   22.2020   44.4190 C   0  0  0  0  0  0  0  0  0  0  0  0
   55.4330   23.1780   45.4940 C   0  0  0  0  0  0  0  0  0  0  0  0
   57.2020   28.0840   46.1960 N   0  0  0  0  0  0  0  0  0  0  0  0
   58.0950   29.0850   46.3600 C   0  0  0  0  0  0  0  0  0  0  0  0
   56.2130   29.7362   43.1314 H   0  0  0  0  0  0  0  0  0  0  0  0
   60.2427   33.5005   46.0494 H   0  0  0  0  0  0  0  0  0  0  0  0
   62.1187   35.1017   46.4111 H   0  0  0  0  0  0  0  0  0  0  0  0
   64.1988   34.3561   47.5717 H   0  0  0  0  0  0  0  0  0  0  0  0
   64.4062   32.0001   48.3676 H   0  0  0  0  0  0  0  0  0  0  0  0
   62.5413   30.3885   48.0092 H   0  0  0  0  0  0  0  0  0  0  0  0
   60.9963   29.2701   48.0641 H   0  0  0  0  0  0  0  0  0  0  0  0
   59.4080   25.8230   48.7210 H   0  0  0  0  0  0  0  0  0  0  0  0
   54.8832   25.0478   44.5779 H   0  0  0  0  0  0  0  0  0  0  0  0
   57.2065   25.8793   44.1807 H   0  0  0  0  0  0  0  0  0  0  0  0
   57.8391   24.3609   44.9427 H   0  0  0  0  0  0  0  0  0  0  0  0
   56.5527   24.7870   42.2544 H   0  0  0  0  0  0  0  0  0  0  0  0
   57.9373   23.7125   42.7691 H   0  0  0  0  0  0  0  0  0  0  0  0
   54.9777   23.1731   42.7609 H   0  0  0  0  0  0  0  0  0  0  0  0
   56.3795   22.1125   42.3177 H   0  0  0  0  0  0  0  0  0  0  0  0
   55.2904   21.3255   44.3818 H   0  0  0  0  0  0  0  0  0  0  0  0
   56.9792   21.9094   44.6898 H   0  0  0  0  0  0  0  0  0  0  0  0
   54.3443   23.0481   45.5832 H   0  0  0  0  0  0  0  0  0  0  0  0
   55.9610   22.9395   46.4291 H   0  0  0  0  0  0  0  0  0  0  0  0
  1  2  2  0
  2  3  1  0
  3  4  1  0
  4  5  2  0
  5  6  1  0
  6  7  1  0
  7  8  2  0
  8  9  1  0
  9 10  2  0
 10 11  1  0
 11 12  2  0
  6 13  2  0
 13 14  1  0
 14 15  1  0
 15 16  1  0
 15 17  2  0
 17 18  1  0
 18 19  2  0
 18 20  1  0
 20 21  1  0
 21 22  1  0
 22 23  1  0
 23 24  1  0
 24 25  1  0
 25 26  1  0
 17 27  1  0
 27 28  2  0
 28  4  1  0
 12  7  1  0
 28 14  1  0
 26 21  1  0
  2 29  1  0
  8 30  1  0
  9 31  1  0
 10 32  1  0
 11 33  1  0
 12 34  1  0
 13 35  1  0
 16 36  1  0
 21 37  1  0
 22 38  1  0
 22 39  1  0
 23 40  1  0
 23 41  1  0
 24 42  1  0
 24 43  1  0
 25 44  1  0
 25 45  1  0
 26 46  1  0
 26 47  1  0
M  CHG  2   3  -1  20  -1
M  END
>  <UniqueID>  (90) 
81

>  <SMILES>  (90) 
O=C[N-]c1nc(-c2ccccc2)cn2c(O)c(C(=O)[N-]C3CCCCC3)nc12

>  <Energy>  (90) 
101.4002914786467

>  <Genealogy>  (90) 
O=C[N-]c1nc(-c2ccccc2)cn2c(O)c(C(=O)[N-]C3CCCCC3)nc12 (protonated)
O=C[N-]c1nc(-c2ccccc2)cn2c(O)c(C(=O)[N-]C3CCCCC3)nc12 (3D coordinates assigned)
O=C[N-]c1nc(-c2ccccc2)cn2c(O)c(C(=O)[N-]C3CCCCC3)nc12 (nonaromatic ring conformer: 101.4002914786467 kcal/mol)

>  <smiles>  (90) 
O=CNc1nc(-c2ccccc2)cn2c(O)c(C(=O)NC3CCCCC3)nc12

>  <score_type>  (90) 
oracle

>  <origin>  (90) 
adg

>  <m_score__min__energy>  (90) 
-11.32

>  <m_primary>  (90) 
energy

$$$$
90:0
     RDKit          3D

 54 57  0  0  0  0  0  0  0  0999 V2000
   59.6150   31.6550   47.7950 C   0  0  0  0  0  0  0  0  0  0  0  0
   59.0890   32.3440   46.5480 C   0  0  0  0  0  0  0  0  0  0  0  0
   58.4350   31.5770   45.5460 C   0  0  0  0  0  0  0  0  0  0  0  0
   58.0820   30.1480   45.7250 C   0  0  0  0  0  0  0  0  0  0  0  0
   56.9090   29.7580   45.4730 O   0  0  0  0  0  0  0  0  0  0  0  0
   59.0710   29.2140   46.1870 N   0  0  0  0  0  0  0  0  0  0  0  0
   58.9060   27.7870   46.1580 C   0  0  0  0  0  0  0  0  0  0  0  0
   60.0070   26.9200   46.2790 C   0  0  0  0  0  0  0  0  0  0  0  0
   59.8160   25.5350   46.2740 C   0  0  0  0  0  0  0  0  0  0  0  0
   58.5300   25.0030   46.1580 C   0  0  0  0  0  0  0  0  0  0  0  0
   57.4230   25.8570   46.0550 C   0  0  0  0  0  0  0  0  0  0  0  0
   55.7920   25.2020   45.9480 S   0  0  0  0  0  0  0  0  0  0  0  0
   55.5760   24.2390   47.0820 O   0  0  0  0  0  0  0  0  0  0  0  0
   54.7690   26.3000   46.0520 O   0  0  0  0  0  0  0  0  0  0  0  0
   55.5940   24.3640   44.4420 N   0  0  0  0  0  0  0  0  0  0  0  0
   56.2880   23.3240   44.0970 C   0  0  0  0  0  0  0  0  0  0  0  0
   55.9340   22.6230   42.9870 N   0  0  0  0  0  0  0  0  0  0  0  0
   56.6360   21.5280   42.5960 C   0  0  0  0  0  0  0  0  0  0  0  0
   57.7380   21.1060   43.3380 C   0  0  0  0  0  0  0  0  0  0  0  0
   58.0910   21.8360   44.4730 C   0  0  0  0  0  0  0  0  0  0  0  0
   57.3650   22.9250   44.8310 N   0  0  0  0  0  0  0  0  0  0  0  0
   57.6140   27.2450   46.0670 C   0  0  0  0  0  0  0  0  0  0  0  0
   58.0780   32.1960   44.3450 C   0  0  0  0  0  0  0  0  0  0  0  0
   58.3240   33.5450   44.1520 C   0  0  0  0  0  0  0  0  0  0  0  0
   58.9010   34.2950   45.1720 C   0  0  0  0  0  0  0  0  0  0  0  0
   59.0940   35.5280   44.9780 O   0  0  0  0  0  0  0  0  0  0  0  0
   59.2540   33.7080   46.3660 N   0  0  0  0  0  0  0  0  0  0  0  0
   59.8150   34.5730   47.4290 C   0  0  0  0  0  0  0  0  0  0  0  0
   61.2510   34.2210   47.7580 C   0  0  0  0  0  0  0  0  0  0  0  0
   61.6670   34.2190   49.1000 C   0  0  0  0  0  0  0  0  0  0  0  0
   62.9750   33.8610   49.4370 C   0  0  0  0  0  0  0  0  0  0  0  0
   63.8800   33.4920   48.4400 C   0  0  0  0  0  0  0  0  0  0  0  0
   63.4750   33.4740   47.1020 C   0  0  0  0  0  0  0  0  0  0  0  0
   62.1670   33.8290   46.7610 C   0  0  0  0  0  0  0  0  0  0  0  0
   59.2253   32.1655   48.6880 H   0  0  0  0  0  0  0  0  0  0  0  0
   59.2865   30.6052   47.8001 H   0  0  0  0  0  0  0  0  0  0  0  0
   60.7143   31.6952   47.8001 H   0  0  0  0  0  0  0  0  0  0  0  0
   59.9140   29.6000   46.6720 H   0  0  0  0  0  0  0  0  0  0  0  0
   61.0217   27.3331   46.3779 H   0  0  0  0  0  0  0  0  0  0  0  0
   60.6817   24.8620   46.3617 H   0  0  0  0  0  0  0  0  0  0  0  0
   58.3855   23.9126   46.1474 H   0  0  0  0  0  0  0  0  0  0  0  0
   56.3351   20.9745   41.6943 H   0  0  0  0  0  0  0  0  0  0  0  0
   58.3149   20.2194   43.0360 H   0  0  0  0  0  0  0  0  0  0  0  0
   58.9573   21.5291   45.0774 H   0  0  0  0  0  0  0  0  0  0  0  0
   56.7444   27.9157   46.0046 H   0  0  0  0  0  0  0  0  0  0  0  0
   57.5988   31.6082   43.5483 H   0  0  0  0  0  0  0  0  0  0  0  0
   58.0641   34.0220   43.1955 H   0  0  0  0  0  0  0  0  0  0  0  0
   59.7756   35.6192   47.0914 H   0  0  0  0  0  0  0  0  0  0  0  0
   59.2145   34.4216   48.3381 H   0  0  0  0  0  0  0  0  0  0  0  0
   60.9574   34.5015   49.8916 H   0  0  0  0  0  0  0  0  0  0  0  0
   63.2923   33.8699   50.4902 H   0  0  0  0  0  0  0  0  0  0  0  0
   64.9107   33.2157   48.7070 H   0  0  0  0  0  0  0  0  0  0  0  0
   64.1868   33.1800   46.3166 H   0  0  0  0  0  0  0  0  0  0  0  0
   61.8504   33.8023   45.7079 H   0  0  0  0  0  0  0  0  0  0  0  0
  1  2  1  0
  2  3  2  0
  3  4  1  0
  4  5  2  0
  4  6  1  0
  6  7  1  0
  7  8  2  0
  8  9  1  0
  9 10  2  0
 10 11  1  0
 11 12  1  0
 12 13  2  0
 12 14  2  0
 12 15  1  0
 15 16  2  3
 16 17  1  0
 17 18  2  0
 18 19  1  0
 19 20  2  0
 20 21  1  0
 11 22  2  0
  3 23  1  0
 23 24  2  0
 24 25  1  0
 25 26  2  0
 25 27  1  0
 27 28  1  0
 28 29  1  0
 29 30  2  0
 30 31  1  0
 31 32  2  0
 32 33  1  0
 33 34  2  0
 27  2  1  0
 34 29  1  0
 22  7  1  0
 21 16  1  0
  1 35  1  0
  1 36  1  0
  1 37  1  0
  6 38  1  0
  8 39  1  0
  9 40  1  0
 10 41  1  0
 18 42  1  0
 19 43  1  0
 20 44  1  0
 22 45  1  0
 23 46  1  0
 24 47  1  0
 28 48  1  0
 28 49  1  0
 30 50  1  0
 31 51  1  0
 32 52  1  0
 33 53  1  0
 34 54  1  0
M  CHG  1  21  -1
M  END
>  <UniqueID>  (91) 
82

>  <SMILES>  (91) 
Cc1c(C(=O)Nc2cccc(S(=O)(=O)N=c3nccc[n-]3)c2)ccc(=O)n1Cc1ccccc1

>  <Energy>  (91) 
79.66366159529693

>  <Genealogy>  (91) 
Cc1c(C(=O)Nc2cccc(S(=O)(=O)N=c3nccc[n-]3)c2)ccc(=O)n1Cc1ccccc1 (protonated)
Cc1c(C(=O)Nc2cccc(S(=O)(=O)N=c3nccc[n-]3)c2)ccc(=O)n1Cc1ccccc1 (3D coordinates assigned)
Cc1c(C(=O)Nc2cccc(S(=O)(=O)N=c3nccc[n-]3)c2)ccc(=O)n1Cc1ccccc1 (optimized conformer: 79.66366159529693 kcal/mol)

>  <smiles>  (91) 
Cc1c(C(=O)Nc2cccc(S(=O)(=O)N=c3nccc[nH]3)c2)ccc(=O)n1Cc1ccccc1

>  <score_type>  (91) 
oracle

>  <origin>  (91) 
adg

>  <m_score__min__energy>  (91) 
-12.630000000000001

>  <m_primary>  (91) 
energy

$$$$
91:0
     RDKit          3D

 51 53  0  0  0  0  0  0  0  0999 V2000
   57.1528   22.9448   43.1155 H   0  0  0  0  0  0  0  0  0  0  0  0
   56.4890   23.4660   43.8210 C   0  0  0  0  0  0  0  0  0  0  0  0
   55.2590   22.9570   44.0970 N   0  0  0  0  0  0  0  0  0  0  0  0
   54.3990   23.5650   44.9570 C   0  0  0  0  0  0  0  0  0  0  0  0
   53.2350   23.0170   45.1650 N   0  0  0  0  0  0  0  0  0  0  0  0
   51.9380   23.6740   45.0360 C   0  0  0  0  0  0  0  0  0  0  0  0
   51.5304   23.8805   46.0366 H   0  0  0  0  0  0  0  0  0  0  0  0
   52.0589   24.6195   44.4871 H   0  0  0  0  0  0  0  0  0  0  0  0
   51.2472   23.0171   44.4871 H   0  0  0  0  0  0  0  0  0  0  0  0
   54.7920   24.7640   45.5890 C   0  0  0  0  0  0  0  0  0  0  0  0
   54.1038   25.2769   46.2769 H   0  0  0  0  0  0  0  0  0  0  0  0
   56.0660   25.3000   45.3360 C   0  0  0  0  0  0  0  0  0  0  0  0
   56.4990   26.5300   45.9460 N   0  0  0  0  0  0  0  0  0  0  0  0
   55.7800   27.1190   46.4230 H   0  0  0  0  0  0  0  0  0  0  0  0
   57.8500   27.0210   45.8980 C   0  0  0  0  0  0  0  0  0  0  0  0
   58.8970   26.2450   46.4280 C   0  0  0  0  0  0  0  0  0  0  0  0
   58.6730   25.2796   46.9054 H   0  0  0  0  0  0  0  0  0  0  0  0
   60.2170   26.6900   46.3530 C   0  0  0  0  0  0  0  0  0  0  0  0
   61.0273   26.0810   46.7802 H   0  0  0  0  0  0  0  0  0  0  0  0
   60.5100   27.9060   45.7370 C   0  0  0  0  0  0  0  0  0  0  0  0
   61.5515   28.2552   45.6788 H   0  0  0  0  0  0  0  0  0  0  0  0
   59.4840   28.6810   45.1940 C   0  0  0  0  0  0  0  0  0  0  0  0
   59.7228   29.6365   44.7041 H   0  0  0  0  0  0  0  0  0  0  0  0
   58.1500   28.2510   45.2680 C   0  0  0  0  0  0  0  0  0  0  0  0
   56.8720   29.2660   44.5900 S   0  0  0  0  0  0  0  0  0  0  0  0
   55.5250   28.6960   44.9390 O   0  0  0  0  0  0  0  0  0  0  0  0
   57.0160   29.3110   43.0940 O   0  0  0  0  0  0  0  0  0  0  0  0
   57.0120   30.8600   45.2510 N   0  0  0  0  0  0  0  0  0  0  0  0
   57.7130   31.9410   44.6270 C   0  0  0  0  0  0  0  0  0  0  0  0
   57.9470   31.8750   43.3910 O   0  0  0  0  0  0  0  0  0  0  0  0
   58.1450   33.0880   45.3790 N   0  0  0  0  0  0  0  0  0  0  0  0
   57.8680   33.1940   46.3770 H   0  0  0  0  0  0  0  0  0  0  0  0
   58.9210   34.1690   44.7750 C   0  0  0  0  0  0  0  0  0  0  0  0
   59.7581   33.7391   44.2053 H   0  0  0  0  0  0  0  0  0  0  0  0
   58.2654   34.7475   44.1075 H   0  0  0  0  0  0  0  0  0  0  0  0
   59.4740   35.1020   45.8570 C   0  0  0  0  0  0  0  0  0  0  0  0
   60.0649   35.8979   45.3802 H   0  0  0  0  0  0  0  0  0  0  0  0
   58.6312   35.5354   46.4153 H   0  0  0  0  0  0  0  0  0  0  0  0
   60.3500   34.3430   46.8150 C   0  0  0  0  0  0  0  0  0  0  0  0
   59.9790   34.2130   48.1650 C   0  0  0  0  0  0  0  0  0  0  0  0
   59.0334   34.6502   48.5182 H   0  0  0  0  0  0  0  0  0  0  0  0
   60.8090   33.5290   49.0610 C   0  0  0  0  0  0  0  0  0  0  0  0
   60.5092   33.4203   50.1138 H   0  0  0  0  0  0  0  0  0  0  0  0
   62.0180   32.9840   48.6200 C   0  0  0  0  0  0  0  0  0  0  0  0
   62.6690   32.4471   49.3256 H   0  0  0  0  0  0  0  0  0  0  0  0
   62.4000   33.1210   47.2830 C   0  0  0  0  0  0  0  0  0  0  0  0
   63.3526   32.6932   46.9373 H   0  0  0  0  0  0  0  0  0  0  0  0
   61.5720   33.8020   46.3830 C   0  0  0  0  0  0  0  0  0  0  0  0
   61.8797   33.9139   45.3329 H   0  0  0  0  0  0  0  0  0  0  0  0
   56.9110   24.6470   44.4300 C   0  0  0  0  0  0  0  0  0  0  0  0
   57.9027   25.0638   44.2000 H   0  0  0  0  0  0  0  0  0  0  0  0
  1  2  1  0
  2  3  1  0
  3  4  1  0
  4  5  2  0
  5  6  1  0
  6  7  1  0
  6  8  1  0
  6  9  1  0
  4 10  1  0
 10 11  1  0
 10 12  2  0
 12 13  1  0
 13 14  1  0
 13 15  1  0
 15 16  2  0
 16 17  1  0
 16 18  1  0
 18 19  1  0
 18 20  2  0
 20 21  1  0
 20 22  1  0
 22 23  1  0
 22 24  2  0
 24 25  1  0
 25 26  2  0
 25 27  2  0
 25 28  1  0
 28 29  1  0
 29 30  2  0
 29 31  1  0
 31 32  1  0
 31 33  1  0
 33 34  1  0
 33 35  1  0
 33 36  1  0
 36 37  1  0
 36 38  1  0
 36 39  1  0
 39 40  2  0
 40 41  1  0
 40 42  1  0
 42 43  1  0
 42 44  2  0
 44 45  1  0
 44 46  1  0
 46 47  1  0
 46 48  2  0
 48 49  1  0
 12 50  1  0
 50 51  1  0
 50  2  2  0
 24 15  1  0
 48 39  1  0
M  CHG  2   3  -1  28  -1
M  END
>  <UniqueID>  (92) 
83

>  <SMILES>  (92) 
C/N=c1\cc(Nc2ccccc2S(=O)(=O)[N-]C(=O)NCCc2ccccc2)cc[n-]1

>  <Energy>  (92) 
59.58704446096615

>  <Genealogy>  (92) 
CN=c1cc(Nc2ccccc2S(=O)(=O)[N-]C(=O)NCCc2ccccc2)cc[n-]1 (protonated)
C/N=c1\cc(Nc2ccccc2S(=O)(=O)[N-]C(=O)NCCc2ccccc2)cc[n-]1 (cis-trans isomerization)
C/N=c1\cc(Nc2ccccc2S(=O)(=O)[N-]C(=O)NCCc2ccccc2)cc[n-]1 (3D coordinates assigned)
C/N=c1\cc(Nc2ccccc2S(=O)(=O)[N-]C(=O)NCCc2ccccc2)cc[n-]1 (optimized conformer: 59.58704446096615 kcal/mol)

>  <smiles>  (92) 
CN=c1cc(Nc2ccccc2S(=O)(=O)NC(=O)NCCc2ccccc2)cc[nH]1

>  <score_type>  (92) 
oracle

>  <origin>  (92) 
adg

>  <m_score__min__energy>  (92) 
-12.369999999999999

>  <m_primary>  (92) 
energy

$$$$
92:0
     RDKit          3D

 31 33  0  0  0  0  0  0  0  0999 V2000
   64.3300   33.3190   49.3580 C   0  0  0  0  0  0  0  0  0  0  0  0
   63.0930   33.5340   48.5380 C   0  0  0  0  0  0  0  0  0  0  0  0
   63.1560   33.4830   47.1370 C   0  0  0  0  0  0  0  0  0  0  0  0
   61.9970   33.6480   46.3720 C   0  0  0  0  0  0  0  0  0  0  0  0
   60.7610   33.8540   47.0010 C   0  0  0  0  0  0  0  0  0  0  0  0
   59.3000   34.0760   46.0480 S   0  0  0  0  0  0  0  0  0  0  0  0
   58.3290   34.9650   46.7750 O   0  0  0  0  0  0  0  0  0  0  0  0
   59.6650   34.7160   44.7380 O   0  0  0  0  0  0  0  0  0  0  0  0
   58.5490   32.5350   45.7740 N   0  0  0  0  0  0  0  0  0  0  0  0
   58.3000   31.5500   46.6710 C   0  0  0  0  0  0  0  0  0  0  0  0
   58.6180   31.6250   47.8870 O   0  0  0  0  0  0  0  0  0  0  0  0
   57.6700   30.4690   46.1450 N   0  0  0  0  0  0  0  0  0  0  0  0
   57.5270   30.8170   44.8500 C   0  0  0  0  0  0  0  0  0  0  0  0
   56.9300   30.0770   43.8340 C   0  0  0  0  0  0  0  0  0  0  0  0
   56.8820   30.6470   42.5480 C   0  0  0  0  0  0  0  0  0  0  0  0
   57.4260   31.9310   42.3110 C   0  0  0  0  0  0  0  0  0  0  0  0
   57.3540   32.6290   40.7050 Cl  0  0  0  0  0  0  0  0  0  0  0  0
   58.0240   32.6550   43.3620 C   0  0  0  0  0  0  0  0  0  0  0  0
   58.0530   32.0580   44.6220 C   0  0  0  0  0  0  0  0  0  0  0  0
   60.6930   33.8800   48.4010 C   0  0  0  0  0  0  0  0  0  0  0  0
   61.8520   33.7160   49.1650 C   0  0  0  0  0  0  0  0  0  0  0  0
   64.0737   33.3635   50.4268 H   0  0  0  0  0  0  0  0  0  0  0  0
   64.7580   32.3330   49.1243 H   0  0  0  0  0  0  0  0  0  0  0  0
   65.0656   34.1028   49.1243 H   0  0  0  0  0  0  0  0  0  0  0  0
   64.1215   33.3125   46.6383 H   0  0  0  0  0  0  0  0  0  0  0  0
   62.0552   33.6161   45.2740 H   0  0  0  0  0  0  0  0  0  0  0  0
   56.5095   29.0795   44.0294 H   0  0  0  0  0  0  0  0  0  0  0  0
   56.4179   30.0897   41.7209 H   0  0  0  0  0  0  0  0  0  0  0  0
   58.4522   33.6543   43.1946 H   0  0  0  0  0  0  0  0  0  0  0  0
   59.7242   34.0300   48.9000 H   0  0  0  0  0  0  0  0  0  0  0  0
   61.7903   33.7298   50.2632 H   0  0  0  0  0  0  0  0  0  0  0  0
  1  2  1  0
  2  3  2  0
  3  4  1  0
  4  5  2  0
  5  6  1  0
  6  7  2  0
  6  8  2  0
  6  9  1  0
  9 10  1  0
 10 11  2  0
 10 12  1  0
 12 13  1  0
 13 14  2  0
 14 15  1  0
 15 16  2  0
 16 17  1  0
 16 18  1  0
 18 19  2  0
  5 20  1  0
 20 21  2  0
 21  2  1  0
 19  9  1  0
 19 13  1  0
  1 22  1  0
  1 23  1  0
  1 24  1  0
  3 25  1  0
  4 26  1  0
 14 27  1  0
 15 28  1  0
 18 29  1  0
 20 30  1  0
 21 31  1  0
M  CHG  1  12  -1
M  END
>  <UniqueID>  (93) 
84

>  <SMILES>  (93) 
Cc1ccc(S(=O)(=O)n2c(=O)[n-]c3ccc(Cl)cc32)cc1

>  <Energy>  (93) 
73.03170049489697

>  <Genealogy>  (93) 
Cc1ccc(S(=O)(=O)n2c(=O)[n-]c3ccc(Cl)cc32)cc1 (protonated)
Cc1ccc(S(=O)(=O)n2c(=O)[n-]c3ccc(Cl)cc32)cc1 (3D coordinates assigned)
Cc1ccc(S(=O)(=O)n2c(=O)[n-]c3ccc(Cl)cc32)cc1 (optimized conformer: 73.03170049489697 kcal/mol)

>  <smiles>  (93) 
Cc1ccc(S(=O)(=O)n2c(=O)[nH]c3ccc(Cl)cc32)cc1

>  <score_type>  (93) 
oracle

>  <origin>  (93) 
adg

>  <m_score__min__energy>  (93) 
-9.3000000000000007

>  <m_primary>  (93) 
energy

$$$$
93:0
     RDKit          3D

 29 30  0  0  1  0  0  0  0  0999 V2000
   59.9890   34.5910   48.6780 C   0  0  0  0  0  0  0  0  0  0  0  0
   59.9630   34.5530   47.2750 O   0  0  0  0  0  0  0  0  0  0  0  0
   59.0910   33.7660   46.5200 C   0  0  0  0  0  0  0  0  0  0  0  0
   58.1710   34.3150   45.6480 C   0  0  0  0  0  0  0  0  0  0  0  0
   57.3200   33.4860   44.9140 C   0  0  0  0  0  0  0  0  0  0  0  0
   57.4350   32.1310   45.0920 C   0  0  0  0  0  0  0  0  0  0  0  0
   56.6060   31.2060   44.3830 N   0  0  0  0  0  0  0  0  0  0  0  0
   56.8980   29.9590   44.4740 C   0  0  0  0  0  0  0  0  0  0  0  0
   56.2510   29.2410   45.4170 N   0  0  0  0  0  0  0  0  0  0  0  0
   56.4940   27.9480   45.5770 N   0  0  0  0  0  0  0  0  0  0  0  0
   57.3990   27.3000   44.8030 C   0  0  0  0  0  0  0  0  0  0  0  0
   57.6940   25.8530   44.9580 C   0  0  0  0  0  0  0  0  0  0  0  0
   58.0620   28.0290   43.8400 C   0  0  0  0  0  0  0  0  0  0  0  0
   58.9020   27.4210   43.1240 O   0  0  0  0  0  0  0  0  0  0  0  0
   57.8070   29.3480   43.6840 N   0  0  0  0  0  0  0  0  0  0  0  0
   58.3540   31.5910   45.9630 C   0  0  0  0  0  0  0  0  0  0  0  0
   59.2110   32.3940   46.7040 C   0  0  0  0  0  0  0  0  0  0  0  0
   59.4105   33.7454   49.0785 H   0  0  0  0  0  0  0  0  0  0  0  0
   61.0297   34.5215   49.0275 H   0  0  0  0  0  0  0  0  0  0  0  0
   59.5472   35.5358   49.0275 H   0  0  0  0  0  0  0  0  0  0  0  0
   58.1086   35.4070   45.5316 H   0  0  0  0  0  0  0  0  0  0  0  0
   56.5813   33.9062   44.2156 H   0  0  0  0  0  0  0  0  0  0  0  0
   55.5380   29.7130   46.0390 H   0  0  0  0  0  0  0  0  0  0  0  0
   57.7452   25.6018   46.0277 H   0  0  0  0  0  0  0  0  0  0  0  0
   56.8976   25.2632   44.4806 H   0  0  0  0  0  0  0  0  0  0  0  0
   58.6577   25.6221   44.4806 H   0  0  0  0  0  0  0  0  0  0  0  0
   58.3070   29.9060   42.9550 H   0  0  0  0  0  0  0  0  0  0  0  0
   58.4108   30.4982   46.0746 H   0  0  0  0  0  0  0  0  0  0  0  0
   59.9469   31.9660   47.4007 H   0  0  0  0  0  0  0  0  0  0  0  0
  1  2  1  0
  2  3  1  0
  3  4  2  0
  4  5  1  0
  5  6  2  0
  6  7  1  0
  7  8  2  0
  8  9  1  0
  9 10  1  0
 10 11  2  0
 11 12  1  0
 11 13  1  0
 13 14  2  0
 13 15  1  0
  6 16  1  0
 16 17  2  0
 17  3  1  0
 15  8  1  0
  1 18  1  0
  1 19  1  0
  1 20  1  0
  4 21  1  0
  5 22  1  0
  9 23  1  0
 12 24  1  0
 12 25  1  0
 12 26  1  0
 15 27  1  0
 16 28  1  0
 17 29  1  0
M  END
>  <smiles>  (94) 
COc1ccc(N=c2[nH]nc(C)c(=O)[nH]2)cc1

>  <score_type>  (94) 
oracle

>  <origin>  (94) 
adg

>  <m_score__min__energy>  (94) 
-6.4400000000000004

>  <m_primary>  (94) 
energy

$$$$
94:0
     RDKit          3D

 49 52  0  0  0  0  0  0  0  0999 V2000
   58.4660   25.2040   47.7290 O   0  0  0  0  0  0  0  0  0  0  0  0
   58.4400   26.1800   46.9300 C   0  0  0  0  0  0  0  0  0  0  0  0
   59.5070   27.0820   46.9240 C   0  0  0  0  0  0  0  0  0  0  0  0
   59.4990   28.1510   46.0330 C   0  0  0  0  0  0  0  0  0  0  0  0
   58.4260   28.3180   45.1500 C   0  0  0  0  0  0  0  0  0  0  0  0
   58.4200   29.4440   44.1450 C   0  0  0  0  0  0  0  0  0  0  0  0
   57.1400   30.3180   44.2400 C   0  0  2  0  0  0  0  0  0  0  0  0
   56.5350   30.6300   42.8560 C   0  0  0  0  0  0  0  0  0  0  0  0
   57.4130   31.5960   42.0480 C   0  0  0  0  0  0  0  0  0  0  0  0
   58.1460   32.6170   42.9380 C   0  0  0  0  0  0  0  0  0  0  0  0
   57.4020   32.8690   44.1880 N   0  0  0  0  0  0  0  0  0  0  0  0
   58.0800   33.8890   45.0140 C   0  0  0  0  0  0  0  0  0  0  0  0
   58.5750   33.2250   46.2970 C   0  0  0  0  0  0  0  0  0  0  0  0
   58.4420   31.7410   46.0450 C   0  0  0  0  0  0  0  0  0  0  0  0
   57.3040   31.6620   45.0350 C   0  0  2  0  0  0  0  0  0  0  0  0
   57.3690   27.3960   45.1910 C   0  0  0  0  0  0  0  0  0  0  0  0
   57.3850   26.3520   46.0720 N   0  0  0  0  0  0  0  0  0  0  0  0
   56.0720   25.2060   46.0550 S   0  0  0  0  0  0  0  0  0  0  0  0
   55.8870   24.6500   47.4400 O   0  0  0  0  0  0  0  0  0  0  0  0
   54.7920   25.8730   45.6320 O   0  0  0  0  0  0  0  0  0  0  0  0
   56.4460   23.9120   44.9230 C   0  0  0  0  0  0  0  0  0  0  0  0
   57.6320   23.1820   45.0550 C   0  0  0  0  0  0  0  0  0  0  0  0
   57.9240   22.1560   44.1530 C   0  0  0  0  0  0  0  0  0  0  0  0
   57.0220   21.8770   43.1230 C   0  0  0  0  0  0  0  0  0  0  0  0
   55.8760   22.5990   43.0050 N   0  0  0  0  0  0  0  0  0  0  0  0
   55.5700   23.6000   43.8730 C   0  0  0  0  0  0  0  0  0  0  0  0
   60.3486   26.9479   47.6196 H   0  0  0  0  0  0  0  0  0  0  0  0
   60.3360   28.8647   46.0227 H   0  0  0  0  0  0  0  0  0  0  0  0
   59.2974   30.0825   44.3251 H   0  0  0  0  0  0  0  0  0  0  0  0
   58.4455   28.9961   43.1406 H   0  0  0  0  0  0  0  0  0  0  0  0
   56.4529   29.6835   44.8191 H   0  0  0  0  0  0  0  0  0  0  0  0
   56.4312   29.6901   42.2940 H   0  0  0  0  0  0  0  0  0  0  0  0
   55.5579   31.1102   43.0132 H   0  0  0  0  0  0  0  0  0  0  0  0
   58.1614   31.0112   41.4931 H   0  0  0  0  0  0  0  0  0  0  0  0
   56.7531   32.1581   41.3708 H   0  0  0  0  0  0  0  0  0  0  0  0
   59.1431   32.2249   43.1871 H   0  0  0  0  0  0  0  0  0  0  0  0
   58.2280   33.5645   42.3852 H   0  0  0  0  0  0  0  0  0  0  0  0
   58.9333   34.3074   44.4600 H   0  0  0  0  0  0  0  0  0  0  0  0
   57.3803   34.7022   45.2570 H   0  0  0  0  0  0  0  0  0  0  0  0
   59.6244   33.4919   46.4905 H   0  0  0  0  0  0  0  0  0  0  0  0
   58.0006   33.5479   47.1778 H   0  0  0  0  0  0  0  0  0  0  0  0
   59.3710   31.3269   45.6262 H   0  0  0  0  0  0  0  0  0  0  0  0
   58.2482   31.1629   46.9605 H   0  0  0  0  0  0  0  0  0  0  0  0
   56.3558   31.6451   45.5923 H   0  0  0  0  0  0  0  0  0  0  0  0
   56.5171   27.5153   44.5054 H   0  0  0  0  0  0  0  0  0  0  0  0
   58.3343   23.4158   45.8687 H   0  0  0  0  0  0  0  0  0  0  0  0
   58.8527   21.5749   44.2524 H   0  0  0  0  0  0  0  0  0  0  0  0
   57.2395   21.0715   42.4061 H   0  0  0  0  0  0  0  0  0  0  0  0
   54.6344   24.1657   43.7515 H   0  0  0  0  0  0  0  0  0  0  0  0
  1  2  2  0
  2  3  1  0
  3  4  2  0
  4  5  1  0
  5  6  1  0
  6  7  1  0
  7  8  1  0
  8  9  1  0
  9 10  1  0
 10 11  1  0
 11 12  1  0
 12 13  1  0
 13 14  1  0
 14 15  1  0
  5 16  2  0
 16 17  1  0
 17 18  1  0
 18 19  2  0
 18 20  2  0
 18 21  1  0
 21 22  2  0
 22 23  1  0
 23 24  2  0
 24 25  1  0
 25 26  2  0
 17  2  1  0
 26 21  1  0
 15  7  1  0
 15 11  1  0
  3 27  1  0
  4 28  1  0
  6 29  1  0
  6 30  1  0
  7 31  1  1
  8 32  1  0
  8 33  1  0
  9 34  1  0
  9 35  1  0
 10 36  1  0
 10 37  1  0
 12 38  1  0
 12 39  1  0
 13 40  1  0
 13 41  1  0
 14 42  1  0
 14 43  1  0
 15 44  1  1
 16 45  1  0
 22 46  1  0
 23 47  1  0
 24 48  1  0
 26 49  1  0
M  END
>  <UniqueID>  (95) 
85

>  <SMILES>  (95) 
O=c1ccc(C[C@@H]2CCCN3CCC[C@H]23)cn1S(=O)(=O)c1cccnc1

>  <Energy>  (95) 
67.7727534921197

>  <Genealogy>  (95) 
O=c1ccc(C[C@@H]2CCCN3CCC[C@H]23)cn1S(=O)(=O)c1cccnc1 (chirality)
O=c1ccc(C[C@@H]2CCCN3CCC[C@H]23)cn1S(=O)(=O)c1cccnc1 (3D coordinates assigned)
O=c1ccc(C[C@@H]2CCCN3CCC[C@H]23)cn1S(=O)(=O)c1cccnc1 (nonaromatic ring conformer: 67.7727534921197 kcal/mol)

>  <smiles>  (95) 
O=c1ccc(CC2CCCN3CCCC23)cn1S(=O)(=O)c1cccnc1

>  <score_type>  (95) 
oracle

>  <origin>  (95) 
adg

>  <m_score__min__energy>  (95) 
-10.08

>  <m_primary>  (95) 
energy

$$$$
95:0
     RDKit          3D

 42 45  0  0  0  0  0  0  0  0999 V2000
   56.1090   31.0853   41.3771 H   0  0  0  0  0  0  0  0  0  0  0  0
   56.6450   30.9300   42.3250 C   0  0  0  0  0  0  0  0  0  0  0  0
   57.4910   31.9210   42.8200 C   0  0  0  0  0  0  0  0  0  0  0  0
   57.6201   32.8663   42.2725 H   0  0  0  0  0  0  0  0  0  0  0  0
   58.1720   31.7010   44.0170 C   0  0  0  0  0  0  0  0  0  0  0  0
   58.8492   32.4731   44.4110 H   0  0  0  0  0  0  0  0  0  0  0  0
   58.0030   30.5350   44.7010 N   0  0  0  0  0  0  0  0  0  0  0  0
   58.5800   30.3990   45.5570 H   0  0  0  0  0  0  0  0  0  0  0  0
   57.1550   29.5570   44.2490 C   0  0  0  0  0  0  0  0  0  0  0  0
   56.9820   28.4360   44.8910 N   0  0  0  0  0  0  0  0  0  0  0  0
   57.9820   27.6280   45.5240 C   0  0  0  0  0  0  0  0  0  0  0  0
   58.0090   26.3230   45.9930 C   0  0  0  0  0  0  0  0  0  0  0  0
   57.0630   25.1840   45.9790 C   0  0  0  0  0  0  0  0  0  0  0  0
   57.5520   23.8430   45.9520 C   0  0  0  0  0  0  0  0  0  0  0  0
   58.9390   23.6240   45.9670 O   0  0  0  0  0  0  0  0  0  0  0  0
   59.6170   22.6710   45.1540 C   0  0  0  0  0  0  0  0  0  0  0  0
   60.1347   21.9433   45.7963 H   0  0  0  0  0  0  0  0  0  0  0  0
   58.8881   22.1462   44.5189 H   0  0  0  0  0  0  0  0  0  0  0  0
   60.3518   23.1875   44.5189 H   0  0  0  0  0  0  0  0  0  0  0  0
   56.6380   22.7610   45.9320 C   0  0  0  0  0  0  0  0  0  0  0  0
   56.9959   21.7212   45.9060 H   0  0  0  0  0  0  0  0  0  0  0  0
   55.2770   23.0460   45.9460 C   0  0  0  0  0  0  0  0  0  0  0  0
   54.1710   22.2220   45.9350 C   0  0  0  0  0  0  0  0  0  0  0  0
   54.1520   20.7260   45.9770 C   0  0  0  0  0  0  0  0  0  0  0  0
   54.1477   20.3886   47.0240 H   0  0  0  0  0  0  0  0  0  0  0  0
   53.2491   20.3564   45.4689 H   0  0  0  0  0  0  0  0  0  0  0  0
   55.0452   20.3335   45.4689 H   0  0  0  0  0  0  0  0  0  0  0  0
   53.0820   23.0900   45.9910 C   0  0  0  0  0  0  0  0  0  0  0  0
   51.6420   22.6930   46.0270 C   0  0  0  0  0  0  0  0  0  0  0  0
   51.3127   22.6022   47.0726 H   0  0  0  0  0  0  0  0  0  0  0  0
   51.0379   23.4581   45.5174 H   0  0  0  0  0  0  0  0  0  0  0  0
   51.5153   21.7264   45.5174 H   0  0  0  0  0  0  0  0  0  0  0  0
   53.4950   24.3440   46.0080 O   0  0  0  0  0  0  0  0  0  0  0  0
   54.8070   24.3290   45.9830 C   0  0  0  0  0  0  0  0  0  0  0  0
   55.6660   25.4230   45.9950 C   0  0  0  0  0  0  0  0  0  0  0  0
   55.1420   26.7110   45.9970 O   0  0  0  0  0  0  0  0  0  0  0  0
   59.2930   26.5270   46.4690 C   0  0  0  0  0  0  0  0  0  0  0  0
   60.1520   25.8190   47.0590 O   0  0  0  0  0  0  0  0  0  0  0  0
   59.2490   27.8370   46.0450 C   0  0  0  0  0  0  0  0  0  0  0  0
   60.0340   28.8170   46.1220 O   0  0  0  0  0  0  0  0  0  0  0  0
   56.4800   29.7410   43.0350 C   0  0  0  0  0  0  0  0  0  0  0  0
   55.8225   28.9508   42.6435 H   0  0  0  0  0  0  0  0  0  0  0  0
  1  2  1  0
  2  3  1  0
  3  4  1  0
  3  5  2  0
  5  6  1  0
  5  7  1  0
  7  8  1  0
  7  9  1  0
  9 10  2  0
 10 11  1  0
 11 12  2  0
 12 13  1  0
 13 14  2  0
 14 15  1  0
 15 16  1  0
 16 17  1  0
 16 18  1  0
 16 19  1  0
 14 20  1  0
 20 21  1  0
 20 22  2  0
 22 23  1  0
 23 24  1  0
 24 25  1  0
 24 26  1  0
 24 27  1  0
 23 28  2  0
 28 29  1  0
 29 30  1  0
 29 31  1  0
 29 32  1  0
 28 33  1  0
 33 34  1  0
 34 35  2  0
 35 36  1  0
 12 37  1  0
 37 38  2  0
 37 39  1  0
 39 40  2  0
  9 41  1  0
 41 42  1  0
 41  2  2  0
 39 11  1  0
 35 13  1  0
 34 22  1  0
M  CHG  1  36  -1
M  END
>  <UniqueID>  (96) 
86

>  <SMILES>  (96) 
COc1cc2c(C)c(C)oc2c([O-])c1-c1c(/N=c2/cccc[nH]2)c(=O)c1=O

>  <Energy>  (96) 
80.06220782757794

>  <Genealogy>  (96) 
COc1cc2c(C)c(C)oc2c([O-])c1-c1c(N=c2cccc[nH]2)c(=O)c1=O (protonated)
COc1cc2c(C)c(C)oc2c([O-])c1-c1c(/N=c2/cccc[nH]2)c(=O)c1=O (cis-trans isomerization)
COc1cc2c(C)c(C)oc2c([O-])c1-c1c(/N=c2/cccc[nH]2)c(=O)c1=O (3D coordinates assigned)
COc1cc2c(C)c(C)oc2c([O-])c1-c1c(/N=c2/cccc[nH]2)c(=O)c1=O (optimized conformer: 80.06220782757794 kcal/mol)

>  <smiles>  (96) 
COc1cc2c(C)c(C)oc2c(O)c1-c1c(N=c2cccc[nH]2)c(=O)c1=O

>  <score_type>  (96) 
oracle

>  <origin>  (96) 
adg

>  <m_score__min__energy>  (96) 
-11.59

>  <m_primary>  (96) 
energy

$$$$
96:0
     RDKit          3D

 37 38  0  0  0  0  0  0  0  0999 V2000
   56.2694   23.7701   46.6094 H   0  0  0  0  0  0  0  0  0  0  0  0
   56.2960   24.5930   45.8800 C   0  0  0  0  0  0  0  0  0  0  0  0
   57.3700   24.7180   45.1520 N   0  0  0  0  0  0  0  0  0  0  0  0
   57.7190   25.7930   44.2630 C   0  0  0  0  0  0  0  0  0  0  0  0
   57.5880   25.6510   43.0150 O   0  0  0  0  0  0  0  0  0  0  0  0
   58.3250   27.0330   44.8020 C   0  0  0  0  0  0  0  0  0  0  0  0
   59.4880   26.9750   45.5850 C   0  0  0  0  0  0  0  0  0  0  0  0
   59.9523   26.0016   45.8016 H   0  0  0  0  0  0  0  0  0  0  0  0
   60.0600   28.1430   46.0910 C   0  0  0  0  0  0  0  0  0  0  0  0
   60.9714   28.0801   46.7037 H   0  0  0  0  0  0  0  0  0  0  0  0
   59.4870   29.3970   45.8280 C   0  0  0  0  0  0  0  0  0  0  0  0
   60.1380   30.6270   46.4020 C   0  0  0  0  0  0  0  0  0  0  0  0
   60.1116   30.5771   47.5005 H   0  0  0  0  0  0  0  0  0  0  0  0
   61.1829   30.6812   46.0624 H   0  0  0  0  0  0  0  0  0  0  0  0
   59.5952   31.5215   46.0624 H   0  0  0  0  0  0  0  0  0  0  0  0
   58.2970   29.4660   45.0650 C   0  0  0  0  0  0  0  0  0  0  0  0
   57.4870   31.0080   44.7270 S   0  0  0  0  0  0  0  0  0  0  0  0
   58.1040   31.6880   43.5380 O   0  0  0  0  0  0  0  0  0  0  0  0
   56.0370   30.7380   44.4410 O   0  0  0  0  0  0  0  0  0  0  0  0
   57.5950   32.0760   46.0920 N   0  0  0  0  0  0  0  0  0  0  0  0
   57.0540   31.8070   46.9450 H   0  0  0  0  0  0  0  0  0  0  0  0
   58.3820   33.2810   46.1180 C   0  0  0  0  0  0  0  0  0  0  0  0
   59.0040   33.7430   47.2950 C   0  0  0  0  0  0  0  0  0  0  0  0
   58.9047   33.1684   48.2277 H   0  0  0  0  0  0  0  0  0  0  0  0
   59.7470   34.9280   47.2840 C   0  0  0  0  0  0  0  0  0  0  0  0
   60.2270   35.2831   48.2079 H   0  0  0  0  0  0  0  0  0  0  0  0
   59.8810   35.6610   46.1040 C   0  0  0  0  0  0  0  0  0  0  0  0
   60.4673   36.5917   46.0980 H   0  0  0  0  0  0  0  0  0  0  0  0
   59.2700   35.2120   44.9300 C   0  0  0  0  0  0  0  0  0  0  0  0
   59.3753   35.7898   43.9999 H   0  0  0  0  0  0  0  0  0  0  0  0
   58.5250   34.0290   44.9370 C   0  0  0  0  0  0  0  0  0  0  0  0
   58.0465   33.6806   44.0098 H   0  0  0  0  0  0  0  0  0  0  0  0
   57.7450   28.2850   44.5420 C   0  0  0  0  0  0  0  0  0  0  0  0
   56.8415   28.3420   43.9171 H   0  0  0  0  0  0  0  0  0  0  0  0
   55.1140   25.4710   45.8000 C   0  0  0  0  0  0  0  0  0  0  0  0
   55.2080   26.7170   45.9550 O   0  0  0  0  0  0  0  0  0  0  0  0
   53.8570   24.9020   45.6410 O   0  0  0  0  0  0  0  0  0  0  0  0
  1  2  1  0
  2  3  2  0
  3  4  1  0
  4  5  2  0
  4  6  1  0
  6  7  2  0
  7  8  1  0
  7  9  1  0
  9 10  1  0
  9 11  2  0
 11 12  1  0
 12 13  1  0
 12 14  1  0
 12 15  1  0
 11 16  1  0
 16 17  1  0
 17 18  2  0
 17 19  2  0
 17 20  1  0
 20 21  1  0
 20 22  1  0
 22 23  2  0
 23 24  1  0
 23 25  1  0
 25 26  1  0
 25 27  2  0
 27 28  1  0
 27 29  1  0
 29 30  1  0
 29 31  2  0
 31 32  1  0
 16 33  2  0
 33 34  1  0
  2 35  1  0
 35 36  2  0
 35 37  1  0
 33  6  1  0
 31 22  1  0
M  CHG  1  37  -1
M  END
>  <UniqueID>  (97) 
87

>  <SMILES>  (97) 
Cc1ccc(C(=O)/N=C\C(=O)[O-])cc1S(=O)(=O)Nc1ccccc1

>  <Energy>  (97) 
49.75675151183877

>  <Genealogy>  (97) 
Cc1ccc(C(=O)N=CC(=O)[O-])cc1S(=O)(=O)Nc1ccccc1 (protonated)
Cc1ccc(C(=O)/N=C\C(=O)[O-])cc1S(=O)(=O)Nc1ccccc1 (cis-trans isomerization)
Cc1ccc(C(=O)/N=C\C(=O)[O-])cc1S(=O)(=O)Nc1ccccc1 (3D coordinates assigned)
Cc1ccc(C(=O)/N=C\C(=O)[O-])cc1S(=O)(=O)Nc1ccccc1 (optimized conformer: 49.75675151183877 kcal/mol)

>  <smiles>  (97) 
Cc1ccc(C(=O)N=CC(=O)O)cc1S(=O)(=O)Nc1ccccc1

>  <score_type>  (97) 
oracle

>  <origin>  (97) 
adg

>  <m_score__min__energy>  (97) 
-11.08

>  <m_primary>  (97) 
energy

$$$$
