0:0
     RDKit          3D

 43 46  0  0  1  0  0  0  0  0999 V2000
   56.0530   30.6700   44.5070 O   0  0  0  0  0  0  0  0  0  0  0  0
   57.2460   30.9010   44.1590 C   0  0  0  0  0  0  0  0  0  0  0  0
   57.6320   32.2740   43.6830 C   0  0  0  0  0  0  0  0  0  0  0  0
   58.1300   33.1000   44.7950 C   0  0  0  0  0  0  0  0  0  0  0  0
   59.2500   33.8960   44.7330 C   0  0  0  0  0  0  0  0  0  0  0  0
   59.6400   34.6410   45.8430 C   0  0  0  0  0  0  0  0  0  0  0  0
   58.9180   34.6000   47.0190 C   0  0  0  0  0  0  0  0  0  0  0  0
   57.7990   33.8120   47.0940 C   0  0  0  0  0  0  0  0  0  0  0  0
   57.4290   33.0860   45.9980 C   0  0  0  0  0  0  0  0  0  0  0  0
   58.2680   29.9100   44.1960 N   0  0  0  0  0  0  0  0  0  0  0  0
   58.9550   29.6440   45.2410 C   0  0  0  0  0  0  0  0  0  0  0  0
   60.0360   28.9200   45.4930 N   0  0  0  0  0  0  0  0  0  0  0  0
   60.4020   28.9270   46.7330 N   0  0  0  0  0  0  0  0  0  0  0  0
   59.9960   29.4190   47.6550 C   0  0  0  0  0  0  0  0  0  0  0  0
   60.3060   29.5720   49.3770 S   0  0  0  0  0  0  0  0  0  0  0  0
   59.0140   29.3000   50.0570 O   0  0  0  0  0  0  0  0  0  0  0  0
   61.3070   28.5330   49.7960 O   0  0  0  0  0  0  0  0  0  0  0  0
   60.8940   31.1670   49.6530 N   0  0  0  0  0  0  0  0  0  0  0  0
   60.5490   31.9540   50.8140 C   0  0  0  0  0  0  0  0  0  0  0  0
   60.7020   33.3730   50.3300 C   0  0  0  0  0  0  0  0  0  0  0  0
   61.6820   33.2450   49.1970 C   0  0  0  0  0  0  0  0  0  0  0  0
   62.4350   34.2170   48.5490 C   0  0  0  0  0  0  0  0  0  0  0  0
   63.2870   33.8360   47.5080 C   0  0  0  0  0  0  0  0  0  0  0  0
   63.3730   32.4960   47.1320 C   0  0  0  0  0  0  0  0  0  0  0  0
   62.6120   31.5650   47.7970 C   0  0  0  0  0  0  0  0  0  0  0  0
   61.7710   31.9230   48.8220 C   0  0  0  0  0  0  0  0  0  0  0  0
   58.4840   30.3470   46.9190 S   0  0  0  0  0  0  0  0  0  0  0  0
   58.4213   32.1818   42.9224 H   0  0  0  0  0  0  0  0  0  0  0  0
   56.7410   32.7599   43.2587 H   0  0  0  0  0  0  0  0  0  0  0  0
   59.8387   33.9442   43.8050 H   0  0  0  0  0  0  0  0  0  0  0  0
   60.5384   35.2727   45.7818 H   0  0  0  0  0  0  0  0  0  0  0  0
   59.2378   35.1942   47.8877 H   0  0  0  0  0  0  0  0  0  0  0  0
   57.2090   33.7652   48.0212 H   0  0  0  0  0  0  0  0  0  0  0  0
   56.5295   32.4568   46.0694 H   0  0  0  0  0  0  0  0  0  0  0  0
   60.5480   28.3880   44.7390 H   0  0  0  0  0  0  0  0  0  0  0  0
   59.5146   31.7554   51.1313 H   0  0  0  0  0  0  0  0  0  0  0  0
   61.1764   31.7279   51.6888 H   0  0  0  0  0  0  0  0  0  0  0  0
   59.7410   33.7752   49.9769 H   0  0  0  0  0  0  0  0  0  0  0  0
   61.0397   34.0634   51.1169 H   0  0  0  0  0  0  0  0  0  0  0  0
   62.3616   35.2721   48.8512 H   0  0  0  0  0  0  0  0  0  0  0  0
   63.8896   34.5935   46.9855 H   0  0  0  0  0  0  0  0  0  0  0  0
   64.0411   32.1884   46.3140 H   0  0  0  0  0  0  0  0  0  0  0  0
   62.6780   30.5076   47.5013 H   0  0  0  0  0  0  0  0  0  0  0  0
  1  2  2  0
  2  3  1  0
  3  4  1  0
  4  5  2  0
  5  6  1  0
  6  7  2  0
  7  8  1  0
  8  9  2  0
  2 10  1  0
 10 11  2  0
 11 12  1  0
 12 13  1  0
 13 14  2  0
 14 15  1  0
 15 16  2  0
 15 17  2  0
 15 18  1  0
 18 19  1  0
 19 20  1  0
 20 21  1  0
 21 22  2  0
 22 23  1  0
 23 24  2  0
 24 25  1  0
 25 26  2  0
 14 27  1  0
  9  4  1  0
 27 11  1  0
 26 18  1  0
 26 21  1  0
  3 28  1  0
  3 29  1  0
  5 30  1  0
  6 31  1  0
  7 32  1  0
  8 33  1  0
  9 34  1  0
 12 35  1  0
 19 36  1  0
 19 37  1  0
 20 38  1  0
 20 39  1  0
 22 40  1  0
 23 41  1  0
 24 42  1  0
 25 43  1  0
M  END
>  <smiles>  (1) 
O=C(Cc1ccccc1)N=c1[nH]nc(S(=O)(=O)N2CCc3ccccc32)s1

>  <score_type>  (1) 
oracle

>  <origin>  (1) 
adg

>  <m_score__min__energy>  (1) 
-9.8399999999999999

>  <m_primary>  (1) 
energy

$$$$
1:0
     RDKit          3D

 42 44  0  0  0  0  0  0  0  0999 V2000
   55.3850   25.2440   46.0180 N   0  0  0  0  0  0  0  0  0  0  0  0
   56.2340   26.0300   46.0680 C   0  0  0  0  0  0  0  0  0  0  0  0
   57.2890   27.0070   46.1320 C   0  0  0  0  0  0  0  0  0  0  0  0
   57.5090   27.8730   45.0550 C   0  0  0  0  0  0  0  0  0  0  0  0
   58.5340   28.8230   45.1130 C   0  0  0  0  0  0  0  0  0  0  0  0
   59.3490   28.9190   46.2610 C   0  0  0  0  0  0  0  0  0  0  0  0
   60.3950   29.8490   46.3930 O   0  0  0  0  0  0  0  0  0  0  0  0
   60.4060   31.0390   47.1950 C   0  0  2  0  0  0  0  0  0  0  0  0
   59.3200   31.9900   46.7130 C   0  0  0  0  0  0  0  0  0  0  0  0
   58.9080   31.9690   45.3640 C   0  0  0  0  0  0  0  0  0  0  0  0
   57.9360   32.8590   44.9020 C   0  0  0  0  0  0  0  0  0  0  0  0
   57.3670   33.7890   45.7710 C   0  0  0  0  0  0  0  0  0  0  0  0
   57.7740   33.8380   47.1040 C   0  0  0  0  0  0  0  0  0  0  0  0
   58.7490   32.9530   47.5820 C   0  0  0  0  0  0  0  0  0  0  0  0
   59.2320   33.0960   49.2710 Cl  0  0  0  0  0  0  0  0  0  0  0  0
   61.7930   31.7420   47.1460 C   0  0  0  0  0  0  0  0  0  0  0  0
   61.6890   33.2190   46.7330 C   0  0  0  0  0  0  0  0  0  0  0  0
   63.0900   33.8480   46.5520 C   0  0  0  0  0  0  0  0  0  0  0  0
   64.1430   33.1920   47.3510 N   0  0  0  0  0  0  0  0  0  0  0  0
   63.6380   32.7210   48.6460 C   0  0  0  0  0  0  0  0  0  0  0  0
   62.5780   31.6140   48.4760 C   0  0  0  0  0  0  0  0  0  0  0  0
   59.1250   28.0400   47.3280 C   0  0  0  0  0  0  0  0  0  0  0  0
   58.1010   27.0910   47.2680 C   0  0  0  0  0  0  0  0  0  0  0  0
   56.8736   27.8064   44.1596 H   0  0  0  0  0  0  0  0  0  0  0  0
   58.7053   29.4974   44.2610 H   0  0  0  0  0  0  0  0  0  0  0  0
   60.2100   30.7540   48.2392 H   0  0  0  0  0  0  0  0  0  0  0  0
   59.3569   31.2442   44.6689 H   0  0  0  0  0  0  0  0  0  0  0  0
   57.6184   32.8262   43.8494 H   0  0  0  0  0  0  0  0  0  0  0  0
   56.5970   34.4842   45.4052 H   0  0  0  0  0  0  0  0  0  0  0  0
   57.3262   34.5768   47.7849 H   0  0  0  0  0  0  0  0  0  0  0  0
   62.3595   31.2083   46.3687 H   0  0  0  0  0  0  0  0  0  0  0  0
   61.1390   33.2882   45.7829 H   0  0  0  0  0  0  0  0  0  0  0  0
   61.1607   33.7668   47.5272 H   0  0  0  0  0  0  0  0  0  0  0  0
   63.3668   33.7793   45.4896 H   0  0  0  0  0  0  0  0  0  0  0  0
   63.0226   34.8887   46.9020 H   0  0  0  0  0  0  0  0  0  0  0  0
   64.5210   32.3730   46.8180 H   0  0  0  0  0  0  0  0  0  0  0  0
   64.4787   32.3226   49.2330 H   0  0  0  0  0  0  0  0  0  0  0  0
   63.1665   33.5714   49.1602 H   0  0  0  0  0  0  0  0  0  0  0  0
   63.0826   30.6367   48.4950 H   0  0  0  0  0  0  0  0  0  0  0  0
   61.8565   31.7132   49.3004 H   0  0  0  0  0  0  0  0  0  0  0  0
   59.7620   28.0972   48.2230 H   0  0  0  0  0  0  0  0  0  0  0  0
   57.9333   26.4094   48.1149 H   0  0  0  0  0  0  0  0  0  0  0  0
  1  2  3  0
  2  3  1  0
  3  4  2  0
  4  5  1  0
  5  6  2  0
  6  7  1  0
  7  8  1  0
  8  9  1  0
  9 10  2  0
 10 11  1  0
 11 12  2  0
 12 13  1  0
 13 14  2  0
 14 15  1  0
  8 16  1  0
 16 17  1  0
 17 18  1  0
 18 19  1  0
 19 20  1  0
 20 21  1  0
  6 22  1  0
 22 23  2  0
 23  3  1  0
 14  9  1  0
 21 16  1  0
  4 24  1  0
  5 25  1  0
  8 26  1  1
 10 27  1  0
 11 28  1  0
 12 29  1  0
 13 30  1  0
 16 31  1  0
 17 32  1  0
 17 33  1  0
 18 34  1  0
 18 35  1  0
 19 36  1  0
 20 37  1  0
 20 38  1  0
 21 39  1  0
 21 40  1  0
 22 41  1  0
 23 42  1  0
M  END
>  <UniqueID>  (2) 
1

>  <SMILES>  (2) 
N#Cc1ccc(O[C@H](c2ccccc2Cl)C2CCNCC2)cc1

>  <Energy>  (2) 
51.22201055182513

>  <Genealogy>  (2) 
N#Cc1ccc(O[C@H](c2ccccc2Cl)C2CCNCC2)cc1 (chirality)
N#Cc1ccc(O[C@H](c2ccccc2Cl)C2CCNCC2)cc1 (3D coordinates assigned)
N#Cc1ccc(O[C@H](c2ccccc2Cl)C2CCNCC2)cc1 (nonaromatic ring conformer: 51.22201055182513 kcal/mol)

>  <smiles>  (2) 
N#Cc1ccc(OC(c2ccccc2Cl)C2CCNCC2)cc1

>  <score_type>  (2) 
oracle

>  <origin>  (2) 
adg

>  <m_score__min__energy>  (2) 
-8.1199999999999992

>  <m_primary>  (2) 
energy

$$$$
2:0
     RDKit          3D

 37 40  0  0  0  0  0  0  0  0999 V2000
   59.1620   32.7530   49.6730 C   0  0  0  0  0  0  0  0  0  0  0  0
   59.8530   33.8800   49.1460 O   0  0  0  0  0  0  0  0  0  0  0  0
   61.0860   33.8190   48.4750 C   0  0  0  0  0  0  0  0  0  0  0  0
   62.3100   33.7800   49.1750 C   0  0  0  0  0  0  0  0  0  0  0  0
   63.5210   33.7700   48.4800 C   0  0  0  0  0  0  0  0  0  0  0  0
   63.5300   33.8020   47.0860 C   0  0  0  0  0  0  0  0  0  0  0  0
   62.3260   33.8310   46.3790 C   0  0  0  0  0  0  0  0  0  0  0  0
   61.1000   33.8190   47.0640 C   0  0  0  0  0  0  0  0  0  0  0  0
   59.8420   33.8370   46.2880 C   0  0  0  0  0  0  0  0  0  0  0  0
   59.2770   34.9430   45.6710 C   0  0  0  0  0  0  0  0  0  0  0  0
   58.1230   34.5880   45.0540 N   0  0  0  0  0  0  0  0  0  0  0  0
   58.0280   33.2670   45.3080 C   0  0  0  0  0  0  0  0  0  0  0  0
   57.0230   32.4170   44.8600 C   0  0  0  0  0  0  0  0  0  0  0  0
   57.1110   31.0950   45.1830 N   0  0  0  0  0  0  0  0  0  0  0  0
   58.1500   30.5890   45.9180 C   0  0  0  0  0  0  0  0  0  0  0  0
   58.1870   29.1370   46.2300 C   0  0  0  0  0  0  0  0  0  0  0  0
   57.3630   28.2190   45.5530 C   0  0  0  0  0  0  0  0  0  0  0  0
   57.4340   26.8600   45.8690 C   0  0  0  0  0  0  0  0  0  0  0  0
   58.3010   26.4240   46.8210 N   0  0  0  0  0  0  0  0  0  0  0  0
   59.1160   27.2840   47.4850 C   0  0  0  0  0  0  0  0  0  0  0  0
   59.0790   28.6510   47.2000 C   0  0  0  0  0  0  0  0  0  0  0  0
   59.1700   31.4660   46.3440 C   0  0  0  0  0  0  0  0  0  0  0  0
   59.0430   32.7840   46.0380 N   0  0  0  0  0  0  0  0  0  0  0  0
   59.1847   32.7900   50.7721 H   0  0  0  0  0  0  0  0  0  0  0  0
   58.1179   32.7684   49.3271 H   0  0  0  0  0  0  0  0  0  0  0  0
   59.6493   31.8295   49.3271 H   0  0  0  0  0  0  0  0  0  0  0  0
   62.3105   33.7573   50.2748 H   0  0  0  0  0  0  0  0  0  0  0  0
   64.4708   33.7368   49.0339 H   0  0  0  0  0  0  0  0  0  0  0  0
   64.4864   33.8044   46.5426 H   0  0  0  0  0  0  0  0  0  0  0  0
   62.3380   33.8634   45.2795 H   0  0  0  0  0  0  0  0  0  0  0  0
   59.7019   35.9576   45.6807 H   0  0  0  0  0  0  0  0  0  0  0  0
   56.1821   32.7994   44.2629 H   0  0  0  0  0  0  0  0  0  0  0  0
   56.6657   28.5700   44.7780 H   0  0  0  0  0  0  0  0  0  0  0  0
   56.7866   26.1408   45.3460 H   0  0  0  0  0  0  0  0  0  0  0  0
   59.8080   26.9025   48.2503 H   0  0  0  0  0  0  0  0  0  0  0  0
   59.7460   29.3443   47.7333 H   0  0  0  0  0  0  0  0  0  0  0  0
   60.0399   31.0948   46.9057 H   0  0  0  0  0  0  0  0  0  0  0  0
  1  2  1  0
  2  3  1  0
  3  4  2  0
  4  5  1  0
  5  6  2  0
  6  7  1  0
  7  8  2  0
  8  9  1  0
  9 10  2  0
 10 11  1  0
 11 12  2  0
 12 13  1  0
 13 14  2  0
 14 15  1  0
 15 16  1  0
 16 17  2  0
 17 18  1  0
 18 19  2  0
 19 20  1  0
 20 21  2  0
 15 22  2  0
 22 23  1  0
  8  3  1  0
 23  9  1  0
 23 12  1  0
 21 16  1  0
  1 24  1  0
  1 25  1  0
  1 26  1  0
  4 27  1  0
  5 28  1  0
  6 29  1  0
  7 30  1  0
 10 31  1  0
 13 32  1  0
 17 33  1  0
 18 34  1  0
 20 35  1  0
 21 36  1  0
 22 37  1  0
M  END
>  <UniqueID>  (3) 
2

>  <SMILES>  (3) 
COc1ccccc1-c1cnc2cnc(-c3ccncc3)cn12

>  <Energy>  (3) 
88.10264221459136

>  <Genealogy>  (3) 
COc1ccccc1-c1cnc2cnc(-c3ccncc3)cn12 (3D coordinates assigned)
COc1ccccc1-c1cnc2cnc(-c3ccncc3)cn12 (optimized conformer: 88.10264221459136 kcal/mol)

>  <smiles>  (3) 
COc1ccccc1-c1cnc2cnc(-c3ccncc3)cn12

>  <score_type>  (3) 
oracle

>  <origin>  (3) 
adg

>  <m_score__min__energy>  (3) 
-7.6900000000000004

>  <m_primary>  (3) 
energy

$$$$
3:0
     RDKit          3D

 81 85  0  0  0  0  0  0  0  0999 V2000
   55.2050   26.3370   46.0080 N   0  0  0  0  0  0  0  0  0  0  0  0
   56.2450   25.9600   46.3460 C   0  0  0  0  0  0  0  0  0  0  0  0
   57.5640   25.4810   46.7720 C   0  0  0  0  0  0  0  0  0  0  0  0
   58.6160   26.2100   46.0740 N   0  0  0  0  0  0  0  0  0  0  0  0
   59.6100   27.0430   46.6890 C   0  0  0  0  0  0  0  0  0  0  0  0
   59.7910   26.9490   47.9330 O   0  0  0  0  0  0  0  0  0  0  0  0
   60.4000   28.0690   45.9090 C   0  0  1  0  0  0  0  0  0  0  0  0
   59.8060   28.2200   44.4970 C   0  0  0  0  0  0  0  0  0  0  0  0
   58.6140   29.1440   44.4990 C   0  0  0  0  0  0  0  0  0  0  0  0
   58.7920   30.5370   44.4480 C   0  0  0  0  0  0  0  0  0  0  0  0
   57.6830   31.3880   44.4010 C   0  0  0  0  0  0  0  0  0  0  0  0
   56.3910   30.8550   44.4160 C   0  0  0  0  0  0  0  0  0  0  0  0
   56.2080   29.4720   44.4770 C   0  0  0  0  0  0  0  0  0  0  0  0
   57.3130   28.6160   44.5080 C   0  0  0  0  0  0  0  0  0  0  0  0
   60.3950   29.3530   46.6190 N   0  0  0  0  0  0  0  0  0  0  0  0
   59.3530   29.6800   47.5520 C   0  0  0  0  0  0  0  0  0  0  0  0
   58.1930   29.2150   47.3730 O   0  0  0  0  0  0  0  0  0  0  0  0
   59.6530   30.5790   48.7500 C   0  0  1  0  0  0  0  0  0  0  0  0
   59.7640   32.0630   48.2640 C   0  0  0  0  0  0  0  0  0  0  0  0
   61.1840   32.5910   48.2130 C   0  0  0  0  0  0  0  0  0  0  0  0
   61.6560   33.4500   49.2210 C   0  0  0  0  0  0  0  0  0  0  0  0
   62.9810   33.9000   49.2050 C   0  0  0  0  0  0  0  0  0  0  0  0
   63.8450   33.4920   48.1870 C   0  0  0  0  0  0  0  0  0  0  0  0
   63.3810   32.6540   47.1700 C   0  0  0  0  0  0  0  0  0  0  0  0
   62.0540   32.2140   47.1780 C   0  0  0  0  0  0  0  0  0  0  0  0
   58.5280   30.4290   49.8200 C   0  0  0  0  0  0  0  0  0  0  0  0
   58.8080   31.1890   51.1340 C   0  0  0  0  0  0  0  0  0  0  0  0
   60.2940   31.1780   51.5410 C   0  0  0  0  0  0  0  0  0  0  0  0
   61.0060   30.1170   50.8390 N   0  0  0  0  0  0  0  0  0  0  0  0
   61.6990   29.0950   51.5720 C   0  0  0  0  0  0  0  0  0  0  0  0
   61.0590   28.1350   52.0810 O   0  0  0  0  0  0  0  0  0  0  0  0
   63.1690   29.1380   51.6860 C   0  0  0  0  0  0  0  0  0  0  0  0
   63.8960   27.9980   52.0500 C   0  0  0  0  0  0  0  0  0  0  0  0
   65.2800   28.0840   52.2300 C   0  0  0  0  0  0  0  0  0  0  0  0
   65.9440   29.3020   52.0340 C   0  0  0  0  0  0  0  0  0  0  0  0
   65.2340   30.4480   51.6250 C   0  0  0  0  0  0  0  0  0  0  0  0
   65.9140   31.7030   51.3750 N   0  0  0  0  0  0  0  0  0  0  0  0
   65.2890   33.0110   51.5310 C   0  0  0  0  0  0  0  0  0  0  0  0
   66.3800   34.0370   51.2490 C   0  0  0  0  0  0  0  0  0  0  0  0
   67.4710   33.2750   50.5060 C   0  0  0  0  0  0  0  0  0  0  0  0
   67.2800   31.8090   50.8760 C   0  0  0  0  0  0  0  0  0  0  0  0
   63.8400   30.3450   51.4530 C   0  0  0  0  0  0  0  0  0  0  0  0
   61.0170   30.1060   49.3690 C   0  0  0  0  0  0  0  0  0  0  0  0
   57.6734   25.6348   47.8557 H   0  0  0  0  0  0  0  0  0  0  0  0
   57.6507   24.4108   46.5329 H   0  0  0  0  0  0  0  0  0  0  0  0
   61.4429   27.7322   45.8146 H   0  0  0  0  0  0  0  0  0  0  0  0
   60.5758   28.6298   43.8266 H   0  0  0  0  0  0  0  0  0  0  0  0
   59.4761   27.2291   44.1517 H   0  0  0  0  0  0  0  0  0  0  0  0
   59.8075   30.9598   44.4450 H   0  0  0  0  0  0  0  0  0  0  0  0
   57.8277   32.4773   44.3522 H   0  0  0  0  0  0  0  0  0  0  0  0
   55.5190   31.5245   44.3798 H   0  0  0  0  0  0  0  0  0  0  0  0
   55.1906   29.0544   44.5008 H   0  0  0  0  0  0  0  0  0  0  0  0
   57.1629   27.5267   44.5395 H   0  0  0  0  0  0  0  0  0  0  0  0
   61.2250   29.9790   46.5650 H   0  0  0  0  0  0  0  0  0  0  0  0
   59.3340   32.1291   47.2537 H   0  0  0  0  0  0  0  0  0  0  0  0
   59.2218   32.6790   48.9965 H   0  0  0  0  0  0  0  0  0  0  0  0
   60.9796   33.7703   50.0272 H   0  0  0  0  0  0  0  0  0  0  0  0
   63.3419   34.5754   49.9947 H   0  0  0  0  0  0  0  0  0  0  0  0
   64.8916   33.8305   48.1857 H   0  0  0  0  0  0  0  0  0  0  0  0
   64.0596   32.3404   46.3631 H   0  0  0  0  0  0  0  0  0  0  0  0
   61.6888   31.5672   46.3667 H   0  0  0  0  0  0  0  0  0  0  0  0
   57.5898   30.8118   49.3919 H   0  0  0  0  0  0  0  0  0  0  0  0
   58.4713   29.3606   50.0754 H   0  0  0  0  0  0  0  0  0  0  0  0
   58.4886   32.2340   51.0075 H   0  0  0  0  0  0  0  0  0  0  0  0
   58.2486   30.6775   51.9312 H   0  0  0  0  0  0  0  0  0  0  0  0
   60.7465   32.1478   51.2867 H   0  0  0  0  0  0  0  0  0  0  0  0
   60.3657   30.9995   52.6240 H   0  0  0  0  0  0  0  0  0  0  0  0
   63.3798   27.0374   52.1940 H   0  0  0  0  0  0  0  0  0  0  0  0
   65.8500   27.1913   52.5268 H   0  0  0  0  0  0  0  0  0  0  0  0
   67.0295   29.3641   52.2010 H   0  0  0  0  0  0  0  0  0  0  0  0
   64.4619   33.1267   50.8151 H   0  0  0  0  0  0  0  0  0  0  0  0
   64.8690   33.1380   52.5397 H   0  0  0  0  0  0  0  0  0  0  0  0
   65.9880   34.8537   50.6250 H   0  0  0  0  0  0  0  0  0  0  0  0
   66.7592   34.4953   52.1743 H   0  0  0  0  0  0  0  0  0  0  0  0
   67.3629   33.4131   49.4201 H   0  0  0  0  0  0  0  0  0  0  0  0
   68.4739   33.6342   50.7803 H   0  0  0  0  0  0  0  0  0  0  0  0
   67.4160   31.1693   49.9915 H   0  0  0  0  0  0  0  0  0  0  0  0
   68.0134   31.4809   51.6273 H   0  0  0  0  0  0  0  0  0  0  0  0
   63.2685   31.2277   51.1301 H   0  0  0  0  0  0  0  0  0  0  0  0
   61.8146   30.7772   49.0178 H   0  0  0  0  0  0  0  0  0  0  0  0
   61.1872   29.0686   49.0454 H   0  0  0  0  0  0  0  0  0  0  0  0
  1  2  3  0
  2  3  1  0
  3  4  1  0
  4  5  1  0
  5  6  2  0
  5  7  1  0
  7  8  1  0
  8  9  1  0
  9 10  2  0
 10 11  1  0
 11 12  2  0
 12 13  1  0
 13 14  2  0
  7 15  1  0
 15 16  1  0
 16 17  2  0
 16 18  1  0
 18 19  1  6
 19 20  1  0
 20 21  2  0
 21 22  1  0
 22 23  2  0
 23 24  1  0
 24 25  2  0
 18 26  1  0
 26 27  1  0
 27 28  1  0
 28 29  1  0
 29 30  1  0
 30 31  2  0
 30 32  1  0
 32 33  2  0
 33 34  1  0
 34 35  2  0
 35 36  1  0
 36 37  1  0
 37 38  1  0
 38 39  1  0
 39 40  1  0
 40 41  1  0
 36 42  2  0
 29 43  1  0
 14  9  1  0
 43 18  1  0
 25 20  1  0
 42 32  1  0
 41 37  1  0
  3 44  1  0
  3 45  1  0
  7 46  1  6
  8 47  1  0
  8 48  1  0
 10 49  1  0
 11 50  1  0
 12 51  1  0
 13 52  1  0
 14 53  1  0
 15 54  1  0
 19 55  1  0
 19 56  1  0
 21 57  1  0
 22 58  1  0
 23 59  1  0
 24 60  1  0
 25 61  1  0
 26 62  1  0
 26 63  1  0
 27 64  1  0
 27 65  1  0
 28 66  1  0
 28 67  1  0
 33 68  1  0
 34 69  1  0
 35 70  1  0
 38 71  1  0
 38 72  1  0
 39 73  1  0
 39 74  1  0
 40 75  1  0
 40 76  1  0
 41 77  1  0
 41 78  1  0
 42 79  1  0
 43 80  1  0
 43 81  1  0
M  CHG  1   4  -1
M  END
>  <UniqueID>  (4) 
3

>  <SMILES>  (4) 
N#CC[N-]C(=O)[C@@H](Cc1ccccc1)NC(=O)[C@@]1(Cc2ccccc2)CCCN(C(=O)c2cccc(N3CCCC3)c2)C1

>  <Energy>  (4) 
89.69896507976038

>  <Genealogy>  (4) 
N#CC[N-]C(=O)C(Cc1ccccc1)NC(=O)C1(Cc2ccccc2)CCCN(C(=O)c2cccc(N3CCCC3)c2)C1 (protonated)
N#CC[N-]C(=O)[C@@H](Cc1ccccc1)NC(=O)[C@@]1(Cc2ccccc2)CCCN(C(=O)c2cccc(N3CCCC3)c2)C1 (chirality)
N#CC[N-]C(=O)[C@@H](Cc1ccccc1)NC(=O)[C@@]1(Cc2ccccc2)CCCN(C(=O)c2cccc(N3CCCC3)c2)C1 (3D coordinates assigned)
N#CC[N-]C(=O)[C@@H](Cc1ccccc1)NC(=O)[C@@]1(Cc2ccccc2)CCCN(C(=O)c2cccc(N3CCCC3)c2)C1 (nonaromatic ring conformer: 89.69896507976038 kcal/mol)

>  <smiles>  (4) 
N#CCNC(=O)C(Cc1ccccc1)NC(=O)C1(Cc2ccccc2)CCCN(C(=O)c2cccc(N3CCCC3)c2)C1

>  <score_type>  (4) 
oracle

>  <origin>  (4) 
adg

>  <m_score__min__energy>  (4) 
-12.23

>  <m_primary>  (4) 
energy

$$$$
4:0
     RDKit          3D

 52 55  0  0  0  0  0  0  0  0999 V2000
   67.9970   34.3890   51.0410 C   0  0  0  0  0  0  0  0  0  0  0  0
   67.7360   33.1580   50.3730 O   0  0  0  0  0  0  0  0  0  0  0  0
   67.1910   32.0160   50.9850 C   0  0  0  0  0  0  0  0  0  0  0  0
   67.8940   31.2980   51.9730 C   0  0  0  0  0  0  0  0  0  0  0  0
   67.3030   30.2000   52.6040 C   0  0  0  0  0  0  0  0  0  0  0  0
   66.0060   29.8120   52.2640 C   0  0  0  0  0  0  0  0  0  0  0  0
   65.3030   30.5090   51.2790 C   0  0  0  0  0  0  0  0  0  0  0  0
   65.8940   31.5950   50.6180 C   0  0  0  0  0  0  0  0  0  0  0  0
   65.1410   32.2920   49.6120 N   0  0  0  0  0  0  0  0  0  0  0  0
   64.1200   33.2540   49.9330 C   0  0  0  0  0  0  0  0  0  0  0  0
   64.0780   33.7410   51.0970 O   0  0  0  0  0  0  0  0  0  0  0  0
   63.1560   33.6770   48.9430 N   0  0  0  0  0  0  0  0  0  0  0  0
   63.2940   33.2390   47.5410 C   0  0  0  0  0  0  0  0  0  0  0  0
   62.1980   33.8270   46.6450 C   0  0  0  0  0  0  0  0  0  0  0  0
   60.8960   33.7070   47.3070 N   0  0  0  0  0  0  0  0  0  0  0  0
   59.7680   33.1970   46.5830 C   0  0  0  0  0  0  0  0  0  0  0  0
   58.8130   34.0930   46.0900 C   0  0  0  0  0  0  0  0  0  0  0  0
   57.6910   33.6110   45.4060 C   0  0  0  0  0  0  0  0  0  0  0  0
   56.6640   34.5610   44.8780 C   0  0  0  0  0  0  0  0  0  0  0  0
   57.5360   32.2730   45.2190 N   0  0  0  0  0  0  0  0  0  0  0  0
   58.4440   31.3710   45.6770 C   0  0  0  0  0  0  0  0  0  0  0  0
   58.2390   30.0040   45.4570 C   0  0  0  0  0  0  0  0  0  0  0  0
   59.1710   29.0720   45.9180 C   0  0  0  0  0  0  0  0  0  0  0  0
   60.3140   29.5000   46.5980 C   0  0  0  0  0  0  0  0  0  0  0  0
   60.5300   30.8630   46.8250 C   0  0  0  0  0  0  0  0  0  0  0  0
   59.5940   31.8120   46.3740 C   0  0  0  0  0  0  0  0  0  0  0  0
   60.7340   34.0760   48.7180 C   0  0  0  0  0  0  0  0  0  0  0  0
   62.0520   34.5780   49.3150 C   0  0  0  0  0  0  0  0  0  0  0  0
   67.9633   34.2301   52.1289 H   0  0  0  0  0  0  0  0  0  0  0  0
   68.9932   34.7574   50.7549 H   0  0  0  0  0  0  0  0  0  0  0  0
   67.2360   35.1300   50.7549 H   0  0  0  0  0  0  0  0  0  0  0  0
   68.9140   31.6036   52.2492 H   0  0  0  0  0  0  0  0  0  0  0  0
   67.8607   29.6408   53.3697 H   0  0  0  0  0  0  0  0  0  0  0  0
   65.5372   28.9565   52.7723 H   0  0  0  0  0  0  0  0  0  0  0  0
   64.2784   30.2038   51.0199 H   0  0  0  0  0  0  0  0  0  0  0  0
   65.4560   32.1910   48.6220 H   0  0  0  0  0  0  0  0  0  0  0  0
   64.2744   33.5637   47.1624 H   0  0  0  0  0  0  0  0  0  0  0  0
   63.2011   32.1432   47.5167 H   0  0  0  0  0  0  0  0  0  0  0  0
   62.4136   34.8886   46.4536 H   0  0  0  0  0  0  0  0  0  0  0  0
   62.1731   33.2757   45.6935 H   0  0  0  0  0  0  0  0  0  0  0  0
   58.9439   35.1749   46.2398 H   0  0  0  0  0  0  0  0  0  0  0  0
   56.1434   35.0426   45.7188 H   0  0  0  0  0  0  0  0  0  0  0  0
   57.1565   35.3289   44.2634 H   0  0  0  0  0  0  0  0  0  0  0  0
   55.9367   34.0103   44.2634 H   0  0  0  0  0  0  0  0  0  0  0  0
   57.3417   29.6631   44.9197 H   0  0  0  0  0  0  0  0  0  0  0  0
   59.0049   27.9984   45.7454 H   0  0  0  0  0  0  0  0  0  0  0  0
   61.0469   28.7621   46.9562 H   0  0  0  0  0  0  0  0  0  0  0  0
   61.4338   31.1940   47.3574 H   0  0  0  0  0  0  0  0  0  0  0  0
   59.9787   34.8719   48.7961 H   0  0  0  0  0  0  0  0  0  0  0  0
   60.4166   33.1833   49.2768 H   0  0  0  0  0  0  0  0  0  0  0  0
   62.2627   35.5876   48.9325 H   0  0  0  0  0  0  0  0  0  0  0  0
   61.9628   34.6021   50.4111 H   0  0  0  0  0  0  0  0  0  0  0  0
  1  2  1  0
  2  3  1  0
  3  4  2  0
  4  5  1  0
  5  6  2  0
  6  7  1  0
  7  8  2  0
  8  9  1  0
  9 10  1  0
 10 11  2  0
 10 12  1  0
 12 13  1  0
 13 14  1  0
 14 15  1  0
 15 16  1  0
 16 17  2  0
 17 18  1  0
 18 19  1  0
 18 20  2  0
 20 21  1  0
 21 22  2  0
 22 23  1  0
 23 24  2  0
 24 25  1  0
 25 26  2  0
 15 27  1  0
 27 28  1  0
  8  3  1  0
 28 12  1  0
 26 16  1  0
 26 21  1  0
  1 29  1  0
  1 30  1  0
  1 31  1  0
  4 32  1  0
  5 33  1  0
  6 34  1  0
  7 35  1  0
  9 36  1  0
 13 37  1  0
 13 38  1  0
 14 39  1  0
 14 40  1  0
 17 41  1  0
 19 42  1  0
 19 43  1  0
 19 44  1  0
 22 45  1  0
 23 46  1  0
 24 47  1  0
 25 48  1  0
 27 49  1  0
 27 50  1  0
 28 51  1  0
 28 52  1  0
M  END
>  <UniqueID>  (5) 
4

>  <SMILES>  (5) 
COc1ccccc1NC(=O)N1CCN(c2cc(C)nc3ccccc23)CC1

>  <Energy>  (5) 
68.38884922338981

>  <Genealogy>  (5) 
COc1ccccc1NC(=O)N1CCN(c2cc(C)nc3ccccc23)CC1 (3D coordinates assigned)
COc1ccccc1NC(=O)N1CCN(c2cc(C)nc3ccccc23)CC1 (nonaromatic ring conformer: 68.38884922338981 kcal/mol)

>  <smiles>  (5) 
COc1ccccc1NC(=O)N1CCN(c2cc(C)nc3ccccc23)CC1

>  <score_type>  (5) 
oracle

>  <origin>  (5) 
adg

>  <m_score__min__energy>  (5) 
-7.8399999999999999

>  <m_primary>  (5) 
energy

$$$$
5:0
     RDKit          3D

 30 31  0  0  0  0  0  0  0  0999 V2000
   57.4360   26.1290   46.9320 C   0  0  0  0  0  0  0  0  0  0  0  0
   57.3960   27.2980   46.0010 C   0  0  0  0  0  0  0  0  0  0  0  0
   58.5840   27.8490   45.5090 C   0  0  0  0  0  0  0  0  0  0  0  0
   58.5160   28.9360   44.6370 C   0  0  0  0  0  0  0  0  0  0  0  0
   59.5810   29.4100   44.1580 O   0  0  0  0  0  0  0  0  0  0  0  0
   57.2610   29.4670   44.2870 C   0  0  0  0  0  0  0  0  0  0  0  0
   57.1280   30.6200   43.3680 C   0  0  0  0  0  0  0  0  0  0  0  0
   56.4200   30.4920   42.3330 O   0  0  0  0  0  0  0  0  0  0  0  0
   57.8340   31.8950   43.6470 C   0  0  0  0  0  0  0  0  0  0  0  0
   57.4280   32.8380   44.5120 C   0  0  0  0  0  0  0  0  0  0  0  0
   58.2250   33.3700   45.6360 C   0  0  0  0  0  0  0  0  0  0  0  0
   58.9100   34.5930   45.5260 C   0  0  0  0  0  0  0  0  0  0  0  0
   59.6190   35.1040   46.6180 C   0  0  0  0  0  0  0  0  0  0  0  0
   59.6300   34.4110   47.8320 C   0  0  0  0  0  0  0  0  0  0  0  0
   58.9240   33.2100   47.9590 C   0  0  0  0  0  0  0  0  0  0  0  0
   58.9230   32.2750   49.6240 Br  0  0  0  0  0  0  0  0  0  0  0  0
   58.2150   32.6970   46.8670 C   0  0  0  0  0  0  0  0  0  0  0  0
   56.1130   28.8480   44.8150 C   0  0  0  0  0  0  0  0  0  0  0  0
   54.8450   29.3240   44.4970 O   0  0  0  0  0  0  0  0  0  0  0  0
   56.2240   27.8100   45.6380 O   0  0  0  0  0  0  0  0  0  0  0  0
   57.4237   26.4878   47.9718 H   0  0  0  0  0  0  0  0  0  0  0  0
   56.5592   25.4888   46.7546 H   0  0  0  0  0  0  0  0  0  0  0  0
   58.3545   25.5503   46.7546 H   0  0  0  0  0  0  0  0  0  0  0  0
   59.5575   27.4313   45.8053 H   0  0  0  0  0  0  0  0  0  0  0  0
   58.7689   32.0834   43.0988 H   0  0  0  0  0  0  0  0  0  0  0  0
   56.4173   33.2488   44.3720 H   0  0  0  0  0  0  0  0  0  0  0  0
   58.8882   35.1499   44.5777 H   0  0  0  0  0  0  0  0  0  0  0  0
   60.1684   36.0520   46.5215 H   0  0  0  0  0  0  0  0  0  0  0  0
   60.1941   34.8102   48.6878 H   0  0  0  0  0  0  0  0  0  0  0  0
   57.6469   31.7612   46.9743 H   0  0  0  0  0  0  0  0  0  0  0  0
  1  2  1  0
  2  3  2  0
  3  4  1  0
  4  5  2  0
  4  6  1  0
  6  7  1  0
  7  8  2  0
  7  9  1  0
  9 10  2  3
 10 11  1  0
 11 12  2  0
 12 13  1  0
 13 14  2  0
 14 15  1  0
 15 16  1  0
 15 17  2  0
  6 18  2  0
 18 19  1  0
 18 20  1  0
 20  2  1  0
 17 11  1  0
  1 21  1  0
  1 22  1  0
  1 23  1  0
  3 24  1  0
  9 25  1  0
 10 26  1  0
 12 27  1  0
 13 28  1  0
 14 29  1  0
 17 30  1  0
M  CHG  1  19  -1
M  END
>  <UniqueID>  (6) 
5

>  <SMILES>  (6) 
Cc1cc(=O)c(C(=O)C=Cc2cccc(Br)c2)c([O-])o1

>  <Energy>  (6) 
45.59191388601923

>  <Genealogy>  (6) 
Cc1cc(=O)c(C(=O)C=Cc2cccc(Br)c2)c([O-])o1 (protonated)
Cc1cc(=O)c(C(=O)C=Cc2cccc(Br)c2)c([O-])o1 (3D coordinates assigned)
Cc1cc(=O)c(C(=O)C=Cc2cccc(Br)c2)c([O-])o1 (optimized conformer: 45.59191388601923 kcal/mol)

>  <smiles>  (6) 
Cc1cc(=O)c(C(=O)C=Cc2cccc(Br)c2)c(O)o1

>  <score_type>  (6) 
oracle

>  <origin>  (6) 
adg

>  <m_score__min__energy>  (6) 
-10.4

>  <m_primary>  (6) 
energy

$$$$
6:0
     RDKit          3D

 51 54  0  0  0  0  0  0  0  0999 V2000
   61.5260   31.4770   50.8390 O   0  0  0  0  0  0  0  0  0  0  0  0
   62.6190   31.4270   50.1750 C   0  0  0  0  0  0  0  0  0  0  0  0
   63.5880   30.6060   50.6690 O   0  0  0  0  0  0  0  0  0  0  0  0
   62.7050   32.2420   48.9760 C   0  0  0  0  0  0  0  0  0  0  0  0
   63.6260   33.2820   48.9150 C   0  0  0  0  0  0  0  0  0  0  0  0
   63.7400   34.1240   47.8370 C   0  0  0  0  0  0  0  0  0  0  0  0
   62.9260   33.9720   46.7440 C   0  0  0  0  0  0  0  0  0  0  0  0
   62.0050   32.9500   46.7770 C   0  0  0  0  0  0  0  0  0  0  0  0
   61.8900   32.0890   47.8780 C   0  0  0  0  0  0  0  0  0  0  0  0
   60.9250   31.0340   47.7720 C   0  0  0  0  0  0  0  0  0  0  0  0
   59.7700   30.9290   48.5170 C   0  0  0  0  0  0  0  0  0  0  0  0
   58.8610   29.9020   48.3710 C   0  0  0  0  0  0  0  0  0  0  0  0
   59.1030   28.9050   47.4250 C   0  0  0  0  0  0  0  0  0  0  0  0
   58.1280   27.8160   47.2770 C   0  0  0  0  0  0  0  0  0  0  0  0
   57.8140   27.4950   45.8140 C   0  0  0  0  0  0  0  0  0  0  0  0
   57.2180   28.6820   45.1560 C   0  0  0  0  0  0  0  0  0  0  0  0
   57.8980   29.8120   44.8150 N   0  0  0  0  0  0  0  0  0  0  0  0
   57.0600   30.6990   44.2340 C   0  0  0  0  0  0  0  0  0  0  0  0
   57.4840   32.0240   43.7480 C   0  0  0  0  0  0  0  0  0  0  0  0
   57.9600   32.8760   44.8700 C   0  0  0  0  0  0  0  0  0  0  0  0
   57.5990   32.6610   46.1830 C   0  0  0  0  0  0  0  0  0  0  0  0
   58.1040   33.5190   47.1380 C   0  0  0  0  0  0  0  0  0  0  0  0
   58.9420   34.5680   46.8340 C   0  0  0  0  0  0  0  0  0  0  0  0
   59.3040   34.7820   45.5160 C   0  0  0  0  0  0  0  0  0  0  0  0
   58.8090   33.9360   44.5520 C   0  0  0  0  0  0  0  0  0  0  0  0
   55.8090   30.1050   44.2100 C   0  0  0  0  0  0  0  0  0  0  0  0
   55.9360   28.8890   44.7730 N   0  0  0  0  0  0  0  0  0  0  0  0
   60.2680   28.9890   46.6580 C   0  0  0  0  0  0  0  0  0  0  0  0
   61.1500   30.0370   46.8400 C   0  0  0  0  0  0  0  0  0  0  0  0
   63.4360   30.0880   51.5230 H   0  0  0  0  0  0  0  0  0  0  0  0
   64.2964   33.4376   49.7731 H   0  0  0  0  0  0  0  0  0  0  0  0
   64.4909   34.9277   47.8500 H   0  0  0  0  0  0  0  0  0  0  0  0
   63.0061   34.6410   45.8745 H   0  0  0  0  0  0  0  0  0  0  0  0
   61.3390   32.8040   45.9138 H   0  0  0  0  0  0  0  0  0  0  0  0
   59.5622   31.7056   49.2679 H   0  0  0  0  0  0  0  0  0  0  0  0
   57.9548   29.8691   48.9937 H   0  0  0  0  0  0  0  0  0  0  0  0
   58.5348   26.9128   47.7554 H   0  0  0  0  0  0  0  0  0  0  0  0
   57.1916   28.1434   47.7523 H   0  0  0  0  0  0  0  0  0  0  0  0
   58.7425   27.2169   45.2938 H   0  0  0  0  0  0  0  0  0  0  0  0
   57.1001   26.6592   45.7708 H   0  0  0  0  0  0  0  0  0  0  0  0
   58.3003   31.8965   43.0218 H   0  0  0  0  0  0  0  0  0  0  0  0
   56.6213   32.5165   43.2756 H   0  0  0  0  0  0  0  0  0  0  0  0
   56.9304   31.8327   46.4601 H   0  0  0  0  0  0  0  0  0  0  0  0
   57.8245   33.3577   48.1896 H   0  0  0  0  0  0  0  0  0  0  0  0
   59.3191   35.2279   47.6292 H   0  0  0  0  0  0  0  0  0  0  0  0
   59.9737   35.6115   45.2451 H   0  0  0  0  0  0  0  0  0  0  0  0
   59.0902   34.0995   43.5012 H   0  0  0  0  0  0  0  0  0  0  0  0
   54.8849   30.5446   43.8065 H   0  0  0  0  0  0  0  0  0  0  0  0
   55.1440   28.1940   44.8980 H   0  0  0  0  0  0  0  0  0  0  0  0
   60.4842   28.2166   45.9052 H   0  0  0  0  0  0  0  0  0  0  0  0
   62.0603   30.0798   46.2239 H   0  0  0  0  0  0  0  0  0  0  0  0
  1  2  2  0
  2  3  1  0
  2  4  1  0
  4  5  2  0
  5  6  1  0
  6  7  2  0
  7  8  1  0
  8  9  2  0
  9 10  1  0
 10 11  2  0
 11 12  1  0
 12 13  2  0
 13 14  1  0
 14 15  1  0
 15 16  1  0
 16 17  2  0
 17 18  1  0
 18 19  1  0
 19 20  1  0
 20 21  2  0
 21 22  1  0
 22 23  2  0
 23 24  1  0
 24 25  2  0
 18 26  2  0
 26 27  1  0
 13 28  1  0
 28 29  2  0
  9  4  1  0
 29 10  1  0
 27 16  1  0
 25 20  1  0
  3 30  1  0
  5 31  1  0
  6 32  1  0
  7 33  1  0
  8 34  1  0
 11 35  1  0
 12 36  1  0
 14 37  1  0
 14 38  1  0
 15 39  1  0
 15 40  1  0
 19 41  1  0
 19 42  1  0
 21 43  1  0
 22 44  1  0
 23 45  1  0
 24 46  1  0
 25 47  1  0
 26 48  1  0
 27 49  1  0
 28 50  1  0
 29 51  1  0
M  END
>  <smiles>  (7) 
O=C(O)c1ccccc1-c1ccc(CCc2nc(Cc3ccccc3)c[nH]2)cc1

>  <score_type>  (7) 
oracle

>  <origin>  (7) 
adg

>  <m_score__min__energy>  (7) 
-9.4600000000000009

>  <m_primary>  (7) 
energy

$$$$
7:0
     RDKit          3D

 52 54  0  0  0  0  0  0  0  0999 V2000
   60.9850   28.5820   45.0500 C   0  0  0  0  0  0  0  0  0  0  0  0
   60.4790   27.4940   45.9890 C   0  0  0  0  0  0  0  0  0  0  0  0
   59.9530   28.0810   47.2190 N   0  0  0  0  0  0  0  0  0  0  0  0
   58.8680   29.0150   47.2900 C   0  0  0  0  0  0  0  0  0  0  0  0
   58.5190   29.4580   48.4150 O   0  0  0  0  0  0  0  0  0  0  0  0
   58.1270   29.4480   46.0830 C   0  0  0  0  0  0  0  0  0  0  0  0
   57.0900   28.6310   45.6110 C   0  0  0  0  0  0  0  0  0  0  0  0
   56.7990   27.4370   46.2960 O   0  0  0  0  0  0  0  0  0  0  0  0
   57.3560   26.1650   45.9790 C   0  0  0  0  0  0  0  0  0  0  0  0
   56.3810   29.0170   44.4710 C   0  0  0  0  0  0  0  0  0  0  0  0
   56.7100   30.1960   43.8060 C   0  0  0  0  0  0  0  0  0  0  0  0
   56.0490   30.5090   42.7790 O   0  0  0  0  0  0  0  0  0  0  0  0
   57.7280   30.9990   44.2630 N   0  0  0  0  0  0  0  0  0  0  0  0
   58.4250   30.6600   45.4050 C   0  0  0  0  0  0  0  0  0  0  0  0
   59.4300   31.6520   45.9850 C   0  0  0  0  0  0  0  0  0  0  0  0
   58.7950   32.8670   46.5600 N   0  0  0  0  0  0  0  0  0  0  0  0
   58.5120   32.7180   48.0080 C   0  0  0  0  0  0  0  0  0  0  0  0
   59.6420   33.3270   48.8500 C   0  0  0  0  0  0  0  0  0  0  0  0
   61.0040   32.9790   48.3130 C   0  0  0  0  0  0  0  0  0  0  0  0
   61.6800   31.8370   48.7690 C   0  0  0  0  0  0  0  0  0  0  0  0
   62.9700   31.5700   48.3040 C   0  0  0  0  0  0  0  0  0  0  0  0
   63.5650   32.4140   47.4190 N   0  0  0  0  0  0  0  0  0  0  0  0
   62.9340   33.5280   46.9620 C   0  0  0  0  0  0  0  0  0  0  0  0
   61.6430   33.8320   47.4000 C   0  0  0  0  0  0  0  0  0  0  0  0
   57.5900   33.3370   45.8340 C   0  0  0  0  0  0  0  0  0  0  0  0
   57.8220   33.5250   44.3260 C   0  0  0  0  0  0  0  0  0  0  0  0
   58.0900   32.2300   43.5230 C   0  0  0  0  0  0  0  0  0  0  0  0
   61.3763   29.4234   45.6408 H   0  0  0  0  0  0  0  0  0  0  0  0
   61.7864   28.1753   44.4157 H   0  0  0  0  0  0  0  0  0  0  0  0
   60.1576   28.9328   44.4157 H   0  0  0  0  0  0  0  0  0  0  0  0
   59.6802   26.9271   45.4885 H   0  0  0  0  0  0  0  0  0  0  0  0
   61.3161   26.8274   46.2436 H   0  0  0  0  0  0  0  0  0  0  0  0
   57.5920   25.6261   46.9085 H   0  0  0  0  0  0  0  0  0  0  0  0
   56.6304   25.5830   45.3919 H   0  0  0  0  0  0  0  0  0  0  0  0
   58.2758   26.3035   45.3919 H   0  0  0  0  0  0  0  0  0  0  0  0
   55.5599   28.3877   44.0971 H   0  0  0  0  0  0  0  0  0  0  0  0
   59.9997   31.1472   46.7791 H   0  0  0  0  0  0  0  0  0  0  0  0
   60.0745   31.9830   45.1573 H   0  0  0  0  0  0  0  0  0  0  0  0
   57.5685   33.2311   48.2457 H   0  0  0  0  0  0  0  0  0  0  0  0
   58.4351   31.6463   48.2437 H   0  0  0  0  0  0  0  0  0  0  0  0
   59.5314   34.4214   48.8522 H   0  0  0  0  0  0  0  0  0  0  0  0
   59.5649   32.9140   49.8666 H   0  0  0  0  0  0  0  0  0  0  0  0
   61.1979   31.1573   49.4870 H   0  0  0  0  0  0  0  0  0  0  0  0
   63.5056   30.6753   48.6544 H   0  0  0  0  0  0  0  0  0  0  0  0
   63.4411   34.1913   46.2459 H   0  0  0  0  0  0  0  0  0  0  0  0
   61.1309   34.7333   47.0320 H   0  0  0  0  0  0  0  0  0  0  0  0
   56.7877   32.5976   45.9741 H   0  0  0  0  0  0  0  0  0  0  0  0
   57.3244   34.3211   46.2474 H   0  0  0  0  0  0  0  0  0  0  0  0
   56.9274   34.0058   43.9036 H   0  0  0  0  0  0  0  0  0  0  0  0
   58.7369   34.1290   44.2359 H   0  0  0  0  0  0  0  0  0  0  0  0
   57.5008   32.2660   42.5948 H   0  0  0  0  0  0  0  0  0  0  0  0
   59.1711   32.1862   43.3248 H   0  0  0  0  0  0  0  0  0  0  0  0
  1  2  1  0
  2  3  1  0
  3  4  1  0
  4  5  2  0
  4  6  1  0
  6  7  1  0
  7  8  1  0
  8  9  1  0
  7 10  2  0
 10 11  1  0
 11 12  2  0
 11 13  1  0
 13 14  1  0
 14 15  1  0
 15 16  1  0
 16 17  1  0
 17 18  1  0
 18 19  1  0
 19 20  2  0
 20 21  1  0
 21 22  2  0
 22 23  1  0
 23 24  2  0
 16 25  1  0
 25 26  1  0
 26 27  1  0
 14  6  2  0
 24 19  1  0
 27 13  1  0
  1 28  1  0
  1 29  1  0
  1 30  1  0
  2 31  1  0
  2 32  1  0
  9 33  1  0
  9 34  1  0
  9 35  1  0
 10 36  1  0
 15 37  1  0
 15 38  1  0
 17 39  1  0
 17 40  1  0
 18 41  1  0
 18 42  1  0
 20 43  1  0
 21 44  1  0
 23 45  1  0
 24 46  1  0
 25 47  1  0
 25 48  1  0
 26 49  1  0
 26 50  1  0
 27 51  1  0
 27 52  1  0
M  CHG  1   3  -1
M  END
>  <UniqueID>  (8) 
6

>  <SMILES>  (8) 
CC[N-]C(=O)c1c(OC)cc(=O)n2c1CN(CCc1ccncc1)CCC2

>  <Energy>  (8) 
73.0233671845466

>  <Genealogy>  (8) 
CC[N-]C(=O)c1c(OC)cc(=O)n2c1CN(CCc1ccncc1)CCC2 (protonated)
CC[N-]C(=O)c1c(OC)cc(=O)n2c1CN(CCc1ccncc1)CCC2 (3D coordinates assigned)
CC[N-]C(=O)c1c(OC)cc(=O)n2c1CN(CCc1ccncc1)CCC2 (nonaromatic ring conformer: 73.0233671845466 kcal/mol)

>  <smiles>  (8) 
CCNC(=O)c1c(OC)cc(=O)n2c1CN(CCc1ccncc1)CCC2

>  <score_type>  (8) 
oracle

>  <origin>  (8) 
adg

>  <m_score__min__energy>  (8) 
-7.04

>  <m_primary>  (8) 
energy

$$$$
8:0
     RDKit          3D

 35 37  0  0  0  0  0  0  0  0999 V2000
   61.0258   28.0016   46.5734 H   0  0  0  0  0  0  0  0  0  0  0  0
   60.3750   28.8560   46.8110 C   0  0  0  0  0  0  0  0  0  0  0  0
   60.4630   30.0480   46.2670 O   0  0  0  0  0  0  0  0  0  0  0  0
   59.5410   30.8220   46.7950 C   0  0  0  0  0  0  0  0  0  0  0  0
   59.3220   32.2240   46.3860 C   0  0  0  0  0  0  0  0  0  0  0  0
   59.7990   33.2280   47.2460 C   0  0  0  0  0  0  0  0  0  0  0  0
   60.2745   32.9484   48.1977 H   0  0  0  0  0  0  0  0  0  0  0  0
   59.6760   34.5750   46.9060 C   0  0  0  0  0  0  0  0  0  0  0  0
   60.0596   35.3502   47.5856 H   0  0  0  0  0  0  0  0  0  0  0  0
   59.0680   34.9400   45.7070 C   0  0  0  0  0  0  0  0  0  0  0  0
   58.9877   36.0022   45.4327 H   0  0  0  0  0  0  0  0  0  0  0  0
   58.5610   33.9600   44.8540 C   0  0  0  0  0  0  0  0  0  0  0  0
   58.0768   34.2575   43.9122 H   0  0  0  0  0  0  0  0  0  0  0  0
   58.6610   32.5950   45.1830 C   0  0  0  0  0  0  0  0  0  0  0  0
   57.9810   31.6020   44.2640 C   0  0  0  0  0  0  0  0  0  0  0  0
   58.6699   30.7703   44.0549 H   0  0  0  0  0  0  0  0  0  0  0  0
   57.7083   32.1100   43.3272 H   0  0  0  0  0  0  0  0  0  0  0  0
   56.7710   31.0790   44.8900 N   0  0  0  0  0  0  0  0  0  0  0  0
   56.0660   29.9350   44.3990 C   0  0  0  0  0  0  0  0  0  0  0  0
   55.5490   29.9850   43.2530 O   0  0  0  0  0  0  0  0  0  0  0  0
   55.8890   28.7860   45.2450 N   0  0  0  0  0  0  0  0  0  0  0  0
   56.6460   27.7340   45.3790 C   0  0  0  0  0  0  0  0  0  0  0  0
   56.1180   26.6410   45.9970 N   0  0  0  0  0  0  0  0  0  0  0  0
   56.8290   25.5010   46.2010 C   0  0  0  0  0  0  0  0  0  0  0  0
   56.0050   24.0210   47.0770 Br  0  0  0  0  0  0  0  0  0  0  0  0
   58.1540   25.4210   45.7750 C   0  0  0  0  0  0  0  0  0  0  0  0
   58.7336   24.4991   45.9302 H   0  0  0  0  0  0  0  0  0  0  0  0
   58.7360   26.5230   45.1500 C   0  0  0  0  0  0  0  0  0  0  0  0
   59.7819   26.4751   44.8128 H   0  0  0  0  0  0  0  0  0  0  0  0
   57.9910   27.6880   44.9520 C   0  0  0  0  0  0  0  0  0  0  0  0
   58.4487   28.5628   44.4671 H   0  0  0  0  0  0  0  0  0  0  0  0
   58.7960   30.1030   47.7120 C   0  0  0  0  0  0  0  0  0  0  0  0
   57.9446   30.4657   48.3066 H   0  0  0  0  0  0  0  0  0  0  0  0
   59.3420   28.8380   47.7260 C   0  0  0  0  0  0  0  0  0  0  0  0
   59.0196   27.9857   48.3422 H   0  0  0  0  0  0  0  0  0  0  0  0
  1  2  1  0
  2  3  1  0
  3  4  1  0
  4  5  1  0
  5  6  2  0
  6  7  1  0
  6  8  1  0
  8  9  1  0
  8 10  2  0
 10 11  1  0
 10 12  1  0
 12 13  1  0
 12 14  2  0
 14 15  1  0
 15 16  1  0
 15 17  1  0
 15 18  1  0
 18 19  1  0
 19 20  2  0
 19 21  1  0
 21 22  2  0
 22 23  1  0
 23 24  1  0
 24 25  1  0
 24 26  2  0
 26 27  1  0
 26 28  1  0
 28 29  1  0
 28 30  2  0
 30 31  1  0
  4 32  2  0
 32 33  1  0
 32 34  1  0
 34 35  1  0
 34  2  2  0
 14  5  1  0
 30 22  1  0
M  CHG  2  18  -1  23  -1
M  END
>  <UniqueID>  (9) 
7

>  <SMILES>  (9) 
O=C(/N=c1\cccc(Br)[n-]1)[N-]Cc1ccccc1-c1ccco1

>  <Energy>  (9) 
74.99708430324146

>  <Genealogy>  (9) 
O=C(N=c1cccc(Br)[n-]1)[N-]Cc1ccccc1-c1ccco1 (protonated)
O=C(/N=c1\cccc(Br)[n-]1)[N-]Cc1ccccc1-c1ccco1 (cis-trans isomerization)
O=C(/N=c1\cccc(Br)[n-]1)[N-]Cc1ccccc1-c1ccco1 (3D coordinates assigned)
O=C(/N=c1\cccc(Br)[n-]1)[N-]Cc1ccccc1-c1ccco1 (optimized conformer: 74.99708430324146 kcal/mol)

>  <smiles>  (9) 
O=C(N=c1cccc(Br)[nH]1)NCc1ccccc1-c1ccco1

>  <score_type>  (9) 
oracle

>  <origin>  (9) 
adg

>  <m_score__min__energy>  (9) 
-10.380000000000001

>  <m_primary>  (9) 
energy

$$$$
9:0
     RDKit          3D

 36 38  0  0  1  0  0  0  0  0999 V2000
   55.3280   26.1400   46.2010 O   0  0  0  0  0  0  0  0  0  0  0  0
   56.3370   25.6990   45.5620 C   0  0  0  0  0  0  0  0  0  0  0  0
   57.4150   26.6090   45.3400 N   0  0  0  0  0  0  0  0  0  0  0  0
   57.1630   27.8710   45.1070 C   0  0  0  0  0  0  0  0  0  0  0  0
   56.0930   28.6080   45.1950 N   0  0  0  0  0  0  0  0  0  0  0  0
   56.2220   29.8490   44.8720 N   0  0  0  0  0  0  0  0  0  0  0  0
   57.1340   30.4570   44.5080 C   0  0  0  0  0  0  0  0  0  0  0  0
   57.6020   31.8130   44.0770 C   0  0  0  0  0  0  0  0  0  0  0  0
   57.0740   32.9190   44.9460 C   0  0  0  0  0  0  0  0  0  0  0  0
   58.0610   33.4630   45.8730 C   0  0  0  0  0  0  0  0  0  0  0  0
   58.2680   33.0040   47.1580 C   0  0  0  0  0  0  0  0  0  0  0  0
   59.2120   33.5360   48.0100 C   0  0  0  0  0  0  0  0  0  0  0  0
   59.9880   34.5790   47.5580 C   0  0  0  0  0  0  0  0  0  0  0  0
   59.8200   35.0780   46.2760 C   0  0  0  0  0  0  0  0  0  0  0  0
   58.8640   34.5240   45.4380 C   0  0  0  0  0  0  0  0  0  0  0  0
   58.4520   29.0460   44.5190 S   0  0  0  0  0  0  0  0  0  0  0  0
   56.3190   24.3310   45.1140 C   0  0  0  0  0  0  0  0  0  0  0  0
   56.1110   23.9420   43.8450 N   0  0  0  0  0  0  0  0  0  0  0  0
   56.1000   22.6630   43.4490 C   0  0  0  0  0  0  0  0  0  0  0  0
   55.9010   22.3400   42.2530 O   0  0  0  0  0  0  0  0  0  0  0  0
   56.3050   21.6510   44.3400 N   0  0  0  0  0  0  0  0  0  0  0  0
   56.5230   21.9750   45.6480 C   0  0  0  0  0  0  0  0  0  0  0  0
   56.5320   23.3070   46.0380 C   0  0  0  0  0  0  0  0  0  0  0  0
   56.8150   23.7020   47.7200 Cl  0  0  0  0  0  0  0  0  0  0  0  0
   55.1500   28.2000   45.5200 H   0  0  0  0  0  0  0  0  0  0  0  0
   58.7012   31.8326   44.1136 H   0  0  0  0  0  0  0  0  0  0  0  0
   57.2224   31.9843   43.0589 H   0  0  0  0  0  0  0  0  0  0  0  0
   56.7235   33.7338   44.2954 H   0  0  0  0  0  0  0  0  0  0  0  0
   56.2656   32.4889   45.5555 H   0  0  0  0  0  0  0  0  0  0  0  0
   57.6479   32.1710   47.5208 H   0  0  0  0  0  0  0  0  0  0  0  0
   59.3420   33.1366   49.0266 H   0  0  0  0  0  0  0  0  0  0  0  0
   60.7479   35.0202   48.2198 H   0  0  0  0  0  0  0  0  0  0  0  0
   60.4442   35.9124   45.9236 H   0  0  0  0  0  0  0  0  0  0  0  0
   58.7353   34.9224   44.4208 H   0  0  0  0  0  0  0  0  0  0  0  0
   55.9480   24.6670   43.1150 H   0  0  0  0  0  0  0  0  0  0  0  0
   56.6912   21.1820   46.3915 H   0  0  0  0  0  0  0  0  0  0  0  0
  1  2  2  0
  2  3  1  0
  3  4  2  0
  4  5  1  0
  5  6  1  0
  6  7  2  0
  7  8  1  0
  8  9  1  0
  9 10  1  0
 10 11  2  0
 11 12  1  0
 12 13  2  0
 13 14  1  0
 14 15  2  0
  7 16  1  0
  2 17  1  0
 17 18  1  0
 18 19  1  0
 19 20  2  0
 19 21  1  0
 21 22  2  0
 22 23  1  0
 23 24  1  0
 16  4  1  0
 23 17  2  0
 15 10  1  0
  5 25  1  0
  8 26  1  0
  8 27  1  0
  9 28  1  0
  9 29  1  0
 11 30  1  0
 12 31  1  0
 13 32  1  0
 14 33  1  0
 15 34  1  0
 18 35  1  0
 22 36  1  0
M  END
>  <smiles>  (10) 
O=C(N=c1[nH]nc(CCc2ccccc2)s1)c1[nH]c(=O)ncc1Cl

>  <score_type>  (10) 
oracle

>  <origin>  (10) 
adg

>  <m_score__min__energy>  (10) 
-9.8399999999999999

>  <m_primary>  (10) 
energy

$$$$
10:0
     RDKit          3D

 32 33  0  0  0  0  0  0  0  0999 V2000
   58.1250   28.4140   44.8690 O   0  0  0  0  0  0  0  0  0  0  0  0
   56.9870   28.0440   45.2690 C   0  0  0  0  0  0  0  0  0  0  0  0
   56.8020   26.6690   45.8290 C   0  0  0  0  0  0  0  0  0  0  0  0
   55.3830   26.3460   45.9940 N   0  0  0  0  0  0  0  0  0  0  0  0
   55.1160   24.6280   46.1250 S   0  0  0  0  0  0  0  0  0  0  0  0
   53.6520   24.3390   45.9440 O   0  0  0  0  0  0  0  0  0  0  0  0
   55.5250   24.1730   47.4970 O   0  0  0  0  0  0  0  0  0  0  0  0
   56.0420   23.7240   44.9370 C   0  0  0  0  0  0  0  0  0  0  0  0
   57.3180   23.2110   45.1190 C   0  0  0  0  0  0  0  0  0  0  0  0
   57.7910   22.5160   44.0010 C   0  0  0  0  0  0  0  0  0  0  0  0
   56.8900   22.4860   42.9430 C   0  0  0  0  0  0  0  0  0  0  0  0
   55.5030   23.3230   43.3980 S   0  0  0  0  0  0  0  0  0  0  0  0
   55.8760   28.9400   45.2270 N   0  0  0  0  0  0  0  0  0  0  0  0
   55.5170   29.7140   44.0480 C   0  0  0  0  0  0  0  0  0  0  0  0
   56.5650   30.7630   43.8140 C   0  0  0  0  0  0  0  0  0  0  0  0
   57.0450   31.5380   44.8820 C   0  0  0  0  0  0  0  0  0  0  0  0
   57.9760   32.5550   44.6510 C   0  0  0  0  0  0  0  0  0  0  0  0
   58.4270   32.8100   43.3530 C   0  0  0  0  0  0  0  0  0  0  0  0
   57.9450   32.0500   42.2840 C   0  0  0  0  0  0  0  0  0  0  0  0
   57.0130   31.0320   42.5110 C   0  0  0  0  0  0  0  0  0  0  0  0
   57.2579   25.9391   45.1439 H   0  0  0  0  0  0  0  0  0  0  0  0
   57.2833   26.6299   46.8173 H   0  0  0  0  0  0  0  0  0  0  0  0
   57.8972   23.3375   46.0455 H   0  0  0  0  0  0  0  0  0  0  0  0
   58.7814   22.0388   43.9628 H   0  0  0  0  0  0  0  0  0  0  0  0
   57.0558   21.9973   41.9716 H   0  0  0  0  0  0  0  0  0  0  0  0
   55.4593   29.0489   43.1737 H   0  0  0  0  0  0  0  0  0  0  0  0
   54.5391   30.1936   44.2020 H   0  0  0  0  0  0  0  0  0  0  0  0
   56.6872   31.3442   45.9040 H   0  0  0  0  0  0  0  0  0  0  0  0
   58.3540   33.1552   45.4918 H   0  0  0  0  0  0  0  0  0  0  0  0
   59.1614   33.6089   43.1729 H   0  0  0  0  0  0  0  0  0  0  0  0
   58.2991   32.2526   41.2624 H   0  0  0  0  0  0  0  0  0  0  0  0
   56.6300   30.4406   41.6663 H   0  0  0  0  0  0  0  0  0  0  0  0
  1  2  2  0
  2  3  1  0
  3  4  1  0
  4  5  1  0
  5  6  2  0
  5  7  2  0
  5  8  1  0
  8  9  2  0
  9 10  1  0
 10 11  2  0
 11 12  1  0
  2 13  1  0
 13 14  1  0
 14 15  1  0
 15 16  2  0
 16 17  1  0
 17 18  2  0
 18 19  1  0
 19 20  2  0
 12  8  1  0
 20 15  1  0
  3 21  1  0
  3 22  1  0
  9 23  1  0
 10 24  1  0
 11 25  1  0
 14 26  1  0
 14 27  1  0
 16 28  1  0
 17 29  1  0
 18 30  1  0
 19 31  1  0
 20 32  1  0
M  CHG  2   4  -1  13  -1
M  END
>  <UniqueID>  (11) 
8

>  <SMILES>  (11) 
O=C(C[N-]S(=O)(=O)c1cccs1)[N-]Cc1ccccc1

>  <Energy>  (11) 
51.96349893643444

>  <Genealogy>  (11) 
O=C(C[N-]S(=O)(=O)c1cccs1)[N-]Cc1ccccc1 (protonated)
O=C(C[N-]S(=O)(=O)c1cccs1)[N-]Cc1ccccc1 (3D coordinates assigned)
O=C(C[N-]S(=O)(=O)c1cccs1)[N-]Cc1ccccc1 (optimized conformer: 51.96349893643444 kcal/mol)

>  <smiles>  (11) 
O=C(CNS(=O)(=O)c1cccs1)NCc1ccccc1

>  <score_type>  (11) 
oracle

>  <origin>  (11) 
adg

>  <m_score__min__energy>  (11) 
-11.02

>  <m_primary>  (11) 
energy

$$$$
11:0
     RDKit          3D

 41 45  0  0  0  0  0  0  0  0999 V2000
   57.7890   33.4190   44.1120 C   0  0  0  0  0  0  0  0  0  0  0  0
   58.2780   34.4790   44.8820 C   0  0  0  0  0  0  0  0  0  0  0  0
   58.7980   34.2360   46.1580 C   0  0  0  0  0  0  0  0  0  0  0  0
   58.8390   32.9280   46.6670 C   0  0  0  0  0  0  0  0  0  0  0  0
   59.3770   32.6650   48.0220 C   0  0  0  0  0  0  0  0  0  0  0  0
   58.5010   32.2090   49.0100 C   0  0  0  0  0  0  0  0  0  0  0  0
   58.9660   31.9710   50.3100 C   0  0  0  0  0  0  0  0  0  0  0  0
   58.0550   31.4740   51.3700 C   0  0  0  0  0  0  0  0  0  0  0  0
   57.7620   32.0840   52.5800 C   0  0  0  0  0  0  0  0  0  0  0  0
   56.8720   31.2460   53.2170 C   0  0  0  0  0  0  0  0  0  0  0  0
   56.6720   30.1800   52.3670 C   0  0  0  0  0  0  0  0  0  0  0  0
   57.3870   30.3440   51.2790 O   0  0  0  0  0  0  0  0  0  0  0  0
   60.2790   32.2010   50.6050 N   0  0  0  0  0  0  0  0  0  0  0  0
   61.1690   32.6590   49.6720 C   0  0  0  0  0  0  0  0  0  0  0  0
   60.7400   32.8600   48.3400 C   0  0  0  0  0  0  0  0  0  0  0  0
   61.7340   33.3300   47.2960 C   0  0  0  0  0  0  0  0  0  0  0  0
   63.0700   32.9660   47.6340 O   0  0  0  0  0  0  0  0  0  0  0  0
   63.5260   32.9790   48.9520 C   0  0  0  0  0  0  0  0  0  0  0  0
   64.8970   33.0860   49.2090 C   0  0  0  0  0  0  0  0  0  0  0  0
   65.3590   33.1440   50.5240 C   0  0  0  0  0  0  0  0  0  0  0  0
   64.4530   33.1000   51.5850 C   0  0  0  0  0  0  0  0  0  0  0  0
   63.0820   32.9700   51.3350 C   0  0  0  0  0  0  0  0  0  0  0  0
   62.6070   32.8790   50.0110 C   0  0  0  0  0  0  0  0  0  0  0  0
   58.3350   31.8700   45.8920 C   0  0  0  0  0  0  0  0  0  0  0  0
   57.8160   32.1170   44.6180 C   0  0  0  0  0  0  0  0  0  0  0  0
   57.3830   33.6104   43.1077 H   0  0  0  0  0  0  0  0  0  0  0  0
   58.2538   35.5043   44.4843 H   0  0  0  0  0  0  0  0  0  0  0  0
   59.1759   35.0723   46.7644 H   0  0  0  0  0  0  0  0  0  0  0  0
   57.4423   32.0362   48.7664 H   0  0  0  0  0  0  0  0  0  0  0  0
   58.1580   33.0395   52.9544 H   0  0  0  0  0  0  0  0  0  0  0  0
   56.4135   31.3977   54.2053 H   0  0  0  0  0  0  0  0  0  0  0  0
   56.0135   29.3225   52.5696 H   0  0  0  0  0  0  0  0  0  0  0  0
   60.6060   31.9830   51.5700 H   0  0  0  0  0  0  0  0  0  0  0  0
   61.4753   32.8755   46.3283 H   0  0  0  0  0  0  0  0  0  0  0  0
   61.6818   34.4276   47.2445 H   0  0  0  0  0  0  0  0  0  0  0  0
   65.6114   33.1244   48.3734 H   0  0  0  0  0  0  0  0  0  0  0  0
   66.4375   33.2244   50.7249 H   0  0  0  0  0  0  0  0  0  0  0  0
   64.8176   33.1677   52.6206 H   0  0  0  0  0  0  0  0  0  0  0  0
   62.3725   32.9387   52.1750 H   0  0  0  0  0  0  0  0  0  0  0  0
   58.3489   30.8443   46.2891 H   0  0  0  0  0  0  0  0  0  0  0  0
   57.4280   31.2846   44.0125 H   0  0  0  0  0  0  0  0  0  0  0  0
  1  2  2  0
  2  3  1  0
  3  4  2  0
  4  5  1  0
  5  6  2  0
  6  7  1  0
  7  8  1  0
  8  9  2  0
  9 10  1  0
 10 11  2  0
 11 12  1  0
  7 13  2  0
 13 14  1  0
 14 15  2  0
 15 16  1  0
 16 17  1  0
 17 18  1  0
 18 19  2  0
 19 20  1  0
 20 21  2  0
 21 22  1  0
 22 23  2  0
  4 24  1  0
 24 25  2  0
 25  1  1  0
 15  5  1  0
 23 18  1  0
 12  8  1  0
 23 14  1  0
  1 26  1  0
  2 27  1  0
  3 28  1  0
  6 29  1  0
  9 30  1  0
 10 31  1  0
 11 32  1  0
 13 33  1  0
 16 34  1  0
 16 35  1  0
 19 36  1  0
 20 37  1  0
 21 38  1  0
 22 39  1  0
 24 40  1  0
 25 41  1  0
M  CHG  1  13   1
M  END
>  <UniqueID>  (12) 
9

>  <SMILES>  (12) 
c1ccc(-c2cc(-c3ccco3)[nH+]c3c2COc2ccccc2-3)cc1

>  <Energy>  (12) 
90.143715413203

>  <Genealogy>  (12) 
c1ccc(-c2cc(-c3ccco3)[nH+]c3c2COc2ccccc2-3)cc1 (protonated)
c1ccc(-c2cc(-c3ccco3)[nH+]c3c2COc2ccccc2-3)cc1 (3D coordinates assigned)
c1ccc(-c2cc(-c3ccco3)[nH+]c3c2COc2ccccc2-3)cc1 (nonaromatic ring conformer: 90.143715413203 kcal/mol)

>  <smiles>  (12) 
c1ccc(-c2cc(-c3ccco3)nc3c2COc2ccccc2-3)cc1

>  <score_type>  (12) 
oracle

>  <origin>  (12) 
adg

>  <m_score__min__energy>  (12) 
-6.2800000000000002

>  <m_primary>  (12) 
energy

$$$$
12:0
     RDKit          3D

 44 46  0  0  0  0  0  0  0  0999 V2000
   58.7510   33.7190   52.0680 C   0  0  0  0  0  0  0  0  0  0  0  0
   59.2780   34.0960   50.8000 O   0  0  0  0  0  0  0  0  0  0  0  0
   60.5910   33.8380   50.3740 C   0  0  0  0  0  0  0  0  0  0  0  0
   61.5700   33.3350   51.2550 C   0  0  0  0  0  0  0  0  0  0  0  0
   62.8690   33.0960   50.8080 C   0  0  0  0  0  0  0  0  0  0  0  0
   63.2080   33.3480   49.4800 C   0  0  0  0  0  0  0  0  0  0  0  0
   62.2500   33.8420   48.5940 C   0  0  0  0  0  0  0  0  0  0  0  0
   60.9350   34.0980   49.0290 C   0  0  0  0  0  0  0  0  0  0  0  0
   59.9370   34.6100   48.1240 N   0  0  0  0  0  0  0  0  0  0  0  0
   60.0590   34.5010   46.3950 S   0  0  0  0  0  0  0  0  0  0  0  0
   59.6460   35.8130   45.7900 O   0  0  0  0  0  0  0  0  0  0  0  0
   61.4840   34.2140   46.0170 O   0  0  0  0  0  0  0  0  0  0  0  0
   59.0430   33.1920   45.7980 C   0  0  0  0  0  0  0  0  0  0  0  0
   58.4370   33.2840   44.5390 C   0  0  0  0  0  0  0  0  0  0  0  0
   57.6300   32.2440   44.0680 C   0  0  0  0  0  0  0  0  0  0  0  0
   57.4210   31.0930   44.8510 C   0  0  0  0  0  0  0  0  0  0  0  0
   56.5700   29.9870   44.3540 C   0  0  0  0  0  0  0  0  0  0  0  0
   55.4560   29.7530   44.8970 O   0  0  0  0  0  0  0  0  0  0  0  0
   57.0080   29.1770   43.2560 N   0  0  0  0  0  0  0  0  0  0  0  0
   57.7850   27.9530   43.4140 C   0  0  0  0  0  0  0  0  0  0  0  0
   58.5550   27.9860   44.6960 C   0  0  0  0  0  0  0  0  0  0  0  0
   59.8470   28.4670   44.8580 C   0  0  0  0  0  0  0  0  0  0  0  0
   60.3040   28.3810   46.1790 C   0  0  0  0  0  0  0  0  0  0  0  0
   59.3760   27.8370   47.0570 C   0  0  0  0  0  0  0  0  0  0  0  0
   57.9840   27.4640   46.1890 S   0  0  0  0  0  0  0  0  0  0  0  0
   58.0360   31.0080   46.1140 C   0  0  0  0  0  0  0  0  0  0  0  0
   58.8430   32.0500   46.5800 C   0  0  0  0  0  0  0  0  0  0  0  0
   59.3664   34.1592   52.8664 H   0  0  0  0  0  0  0  0  0  0  0  0
   57.7172   34.0837   52.1585 H   0  0  0  0  0  0  0  0  0  0  0  0
   58.7623   32.6228   52.1585 H   0  0  0  0  0  0  0  0  0  0  0  0
   61.3071   33.1295   52.3032 H   0  0  0  0  0  0  0  0  0  0  0  0
   63.6270   32.7081   51.5044 H   0  0  0  0  0  0  0  0  0  0  0  0
   64.2330   33.1571   49.1295 H   0  0  0  0  0  0  0  0  0  0  0  0
   62.5242   34.0333   47.5461 H   0  0  0  0  0  0  0  0  0  0  0  0
   59.1350   35.1620   48.4990 H   0  0  0  0  0  0  0  0  0  0  0  0
   58.5965   34.1779   43.9182 H   0  0  0  0  0  0  0  0  0  0  0  0
   57.1553   32.3257   43.0791 H   0  0  0  0  0  0  0  0  0  0  0  0
   57.1035   27.0896   43.4227 H   0  0  0  0  0  0  0  0  0  0  0  0
   58.4917   27.8682   42.5754 H   0  0  0  0  0  0  0  0  0  0  0  0
   60.4502   28.8741   44.0331 H   0  0  0  0  0  0  0  0  0  0  0  0
   61.3048   28.7134   46.4919 H   0  0  0  0  0  0  0  0  0  0  0  0
   59.5254   27.6773   48.1351 H   0  0  0  0  0  0  0  0  0  0  0  0
   57.8807   30.1159   46.7385 H   0  0  0  0  0  0  0  0  0  0  0  0
   59.3230   31.9713   47.5666 H   0  0  0  0  0  0  0  0  0  0  0  0
  1  2  1  0
  2  3  1  0
  3  4  2  0
  4  5  1  0
  5  6  2  0
  6  7  1  0
  7  8  2  0
  8  9  1  0
  9 10  1  0
 10 11  2  0
 10 12  2  0
 10 13  1  0
 13 14  2  0
 14 15  1  0
 15 16  2  0
 16 17  1  0
 17 18  2  0
 17 19  1  0
 19 20  1  0
 20 21  1  0
 21 22  2  0
 22 23  1  0
 23 24  2  0
 24 25  1  0
 16 26  1  0
 26 27  2  0
  8  3  1  0
 27 13  1  0
 25 21  1  0
  1 28  1  0
  1 29  1  0
  1 30  1  0
  4 31  1  0
  5 32  1  0
  6 33  1  0
  7 34  1  0
  9 35  1  0
 14 36  1  0
 15 37  1  0
 20 38  1  0
 20 39  1  0
 22 40  1  0
 23 41  1  0
 24 42  1  0
 26 43  1  0
 27 44  1  0
M  CHG  1  19  -1
M  END
>  <UniqueID>  (13) 
10

>  <SMILES>  (13) 
COc1ccccc1NS(=O)(=O)c1ccc(C(=O)[N-]Cc2cccs2)cc1

>  <Energy>  (13) 
72.91357627412027

>  <Genealogy>  (13) 
COc1ccccc1NS(=O)(=O)c1ccc(C(=O)[N-]Cc2cccs2)cc1 (protonated)
COc1ccccc1NS(=O)(=O)c1ccc(C(=O)[N-]Cc2cccs2)cc1 (3D coordinates assigned)
COc1ccccc1NS(=O)(=O)c1ccc(C(=O)[N-]Cc2cccs2)cc1 (optimized conformer: 72.91357627412027 kcal/mol)

>  <smiles>  (13) 
COc1ccccc1NS(=O)(=O)c1ccc(C(=O)NCc2cccs2)cc1

>  <score_type>  (13) 
oracle

>  <origin>  (13) 
adg

>  <m_score__min__energy>  (13) 
-10.109999999999999

>  <m_primary>  (13) 
energy

$$$$
13:0
     RDKit          3D

 39 41  0  0  0  0  0  0  0  0999 V2000
   57.8410   34.1170   45.5370 C   0  0  0  0  0  0  0  0  0  0  0  0
   58.1340   32.4340   45.0390 S   0  0  0  0  0  0  0  0  0  0  0  0
   57.0380   31.5610   45.5800 O   0  0  0  0  0  0  0  0  0  0  0  0
   58.1300   32.3350   43.5390 O   0  0  0  0  0  0  0  0  0  0  0  0
   59.6510   31.8870   45.6760 N   0  0  0  0  0  0  0  0  0  0  0  0
   59.8640   31.3700   46.9980 C   0  0  0  0  0  0  0  0  0  0  0  0
   60.2720   30.0320   47.1350 C   0  0  0  0  0  0  0  0  0  0  0  0
   60.5190   28.9860   45.6930 S   0  0  0  0  0  0  0  0  0  0  0  0
   58.8650   28.3000   45.7890 C   0  0  0  0  0  0  0  0  0  0  0  0
   58.6250   27.1450   46.5440 C   0  0  0  0  0  0  0  0  0  0  0  0
   57.3350   26.6080   46.6130 C   0  0  0  0  0  0  0  0  0  0  0  0
   56.2820   27.2260   45.9300 C   0  0  0  0  0  0  0  0  0  0  0  0
   55.0010   26.6910   45.9970 O   0  0  0  0  0  0  0  0  0  0  0  0
   56.5190   28.3830   45.1800 C   0  0  0  0  0  0  0  0  0  0  0  0
   57.8080   28.9210   45.1120 C   0  0  0  0  0  0  0  0  0  0  0  0
   60.5270   29.5040   48.4020 C   0  0  0  0  0  0  0  0  0  0  0  0
   60.3530   30.2910   49.5380 C   0  0  0  0  0  0  0  0  0  0  0  0
   59.8860   31.6030   49.4310 C   0  0  0  0  0  0  0  0  0  0  0  0
   59.6180   32.1510   48.1510 C   0  0  0  0  0  0  0  0  0  0  0  0
   59.1430   33.4570   47.9890 O   0  0  0  0  0  0  0  0  0  0  0  0
   59.6640   34.5960   48.6640 C   0  0  0  0  0  0  0  0  0  0  0  0
   60.8540   34.2330   49.5400 C   0  0  0  0  0  0  0  0  0  0  0  0
   60.3980   33.5950   50.8430 C   0  0  0  0  0  0  0  0  0  0  0  0
   59.7700   32.3410   50.6140 O   0  0  0  0  0  0  0  0  0  0  0  0
   57.8304   34.1779   46.6353 H   0  0  0  0  0  0  0  0  0  0  0  0
   58.6406   34.7608   45.1418 H   0  0  0  0  0  0  0  0  0  0  0  0
   56.8709   34.4527   45.1418 H   0  0  0  0  0  0  0  0  0  0  0  0
   59.4517   26.6596   47.0833 H   0  0  0  0  0  0  0  0  0  0  0  0
   57.1486   25.6995   47.2045 H   0  0  0  0  0  0  0  0  0  0  0  0
   55.6911   28.8697   44.6436 H   0  0  0  0  0  0  0  0  0  0  0  0
   57.9920   29.8334   44.5258 H   0  0  0  0  0  0  0  0  0  0  0  0
   60.8666   28.4627   48.5035 H   0  0  0  0  0  0  0  0  0  0  0  0
   60.5857   29.8751   50.5294 H   0  0  0  0  0  0  0  0  0  0  0  0
   59.9836   35.3380   47.9175 H   0  0  0  0  0  0  0  0  0  0  0  0
   58.8731   35.0041   49.3104 H   0  0  0  0  0  0  0  0  0  0  0  0
   61.4965   33.5236   48.9978 H   0  0  0  0  0  0  0  0  0  0  0  0
   61.4087   35.1531   49.7760 H   0  0  0  0  0  0  0  0  0  0  0  0
   61.2725   33.4440   51.4929 H   0  0  0  0  0  0  0  0  0  0  0  0
   59.6684   34.2657   51.3203 H   0  0  0  0  0  0  0  0  0  0  0  0
  1  2  1  0
  2  3  2  0
  2  4  2  0
  2  5  1  0
  5  6  1  0
  6  7  2  0
  7  8  1  0
  8  9  1  0
  9 10  2  0
 10 11  1  0
 11 12  2  0
 12 13  1  0
 12 14  1  0
 14 15  2  0
  7 16  1  0
 16 17  2  0
 17 18  1  0
 18 19  2  0
 19 20  1  0
 20 21  1  0
 21 22  1  0
 22 23  1  0
 23 24  1  0
 19  6  1  0
 15  9  1  0
 24 18  1  0
  1 25  1  0
  1 26  1  0
  1 27  1  0
 10 28  1  0
 11 29  1  0
 14 30  1  0
 15 31  1  0
 16 32  1  0
 17 33  1  0
 21 34  1  0
 21 35  1  0
 22 36  1  0
 22 37  1  0
 23 38  1  0
 23 39  1  0
M  CHG  2   5  -1  13  -1
M  END
>  <UniqueID>  (14) 
11

>  <SMILES>  (14) 
CS(=O)(=O)[N-]c1c(Sc2ccc([O-])cc2)ccc2c1OCCCO2

>  <Energy>  (14) 
47.88038627458933

>  <Genealogy>  (14) 
CS(=O)(=O)[N-]c1c(Sc2ccc([O-])cc2)ccc2c1OCCCO2 (protonated)
CS(=O)(=O)[N-]c1c(Sc2ccc([O-])cc2)ccc2c1OCCCO2 (3D coordinates assigned)
CS(=O)(=O)[N-]c1c(Sc2ccc([O-])cc2)ccc2c1OCCCO2 (nonaromatic ring conformer: 47.88038627458933 kcal/mol)

>  <smiles>  (14) 
CS(=O)(=O)Nc1c(Sc2ccc(O)cc2)ccc2c1OCCCO2

>  <score_type>  (14) 
oracle

>  <origin>  (14) 
adg

>  <m_score__min__energy>  (14) 
-10.42

>  <m_primary>  (14) 
energy

$$$$
14:0
     RDKit          3D

 48 50  0  0  0  0  0  0  0  0999 V2000
   58.1090   27.2750   44.1440 C   0  0  0  0  0  0  0  0  0  0  0  0
   57.3090   27.8860   45.6100 S   0  0  0  0  0  0  0  0  0  0  0  0
   56.2120   28.8380   45.2250 O   0  0  0  0  0  0  0  0  0  0  0  0
   56.7060   26.7370   46.3690 O   0  0  0  0  0  0  0  0  0  0  0  0
   58.4920   28.7120   46.6180 C   0  0  0  0  0  0  0  0  0  0  0  0
   58.4950   28.5150   48.0060 C   0  0  0  0  0  0  0  0  0  0  0  0
   59.4200   29.1890   48.8080 C   0  0  0  0  0  0  0  0  0  0  0  0
   60.3410   30.0790   48.2320 C   0  0  0  0  0  0  0  0  0  0  0  0
   61.3000   30.8090   49.0860 C   0  0  0  0  0  0  0  0  0  0  0  0
   62.0780   30.0960   50.0100 C   0  0  0  0  0  0  0  0  0  0  0  0
   62.9820   30.7410   50.7940 N   0  0  0  0  0  0  0  0  0  0  0  0
   63.1550   32.0860   50.7200 C   0  0  0  0  0  0  0  0  0  0  0  0
   62.3960   32.8480   49.8280 C   0  0  0  0  0  0  0  0  0  0  0  0
   62.6030   34.5950   49.8060 Cl  0  0  0  0  0  0  0  0  0  0  0  0
   61.4590   32.2100   48.9970 C   0  0  0  0  0  0  0  0  0  0  0  0
   60.6300   32.9950   48.1210 N   0  0  0  0  0  0  0  0  0  0  0  0
   59.3000   33.4320   48.5570 C   0  0  0  0  0  0  0  0  0  0  0  0
   58.2380   33.2020   47.4590 C   0  0  0  0  0  0  0  0  0  0  0  0
   58.8270   33.0130   46.1150 N   0  0  0  0  0  0  0  0  0  0  0  0
   57.6300   33.2990   44.8750 S   0  0  0  0  0  0  0  0  0  0  0  0
   58.1820   32.7330   43.2750 C   0  0  0  0  0  0  0  0  0  0  0  0
   56.3670   32.5690   45.2360 O   0  0  0  0  0  0  0  0  0  0  0  0
   57.3300   34.7700   44.7950 O   0  0  0  0  0  0  0  0  0  0  0  0
   59.9990   33.8740   45.9080 C   0  0  0  0  0  0  0  0  0  0  0  0
   61.1370   33.3730   46.7960 C   0  0  0  0  0  0  0  0  0  0  0  0
   60.3420   30.2640   46.8420 C   0  0  0  0  0  0  0  0  0  0  0  0
   59.4180   29.5900   46.0400 C   0  0  0  0  0  0  0  0  0  0  0  0
   58.9534   26.6301   44.4288 H   0  0  0  0  0  0  0  0  0  0  0  0
   57.3891   26.6947   43.5482 H   0  0  0  0  0  0  0  0  0  0  0  0
   58.4794   28.1223   43.5482 H   0  0  0  0  0  0  0  0  0  0  0  0
   57.7680   27.8287   48.4647 H   0  0  0  0  0  0  0  0  0  0  0  0
   59.4267   29.0216   49.8952 H   0  0  0  0  0  0  0  0  0  0  0  0
   61.9557   29.0066   50.1009 H   0  0  0  0  0  0  0  0  0  0  0  0
   63.5550   30.1900   51.4710 H   0  0  0  0  0  0  0  0  0  0  0  0
   63.8969   32.5783   51.3660 H   0  0  0  0  0  0  0  0  0  0  0  0
   59.0141   32.8643   49.4548 H   0  0  0  0  0  0  0  0  0  0  0  0
   59.3451   34.5099   48.7719 H   0  0  0  0  0  0  0  0  0  0  0  0
   57.6567   32.3043   47.7163 H   0  0  0  0  0  0  0  0  0  0  0  0
   57.6071   34.1022   47.4179 H   0  0  0  0  0  0  0  0  0  0  0  0
   58.9446   31.9511   43.4057 H   0  0  0  0  0  0  0  0  0  0  0  0
   57.3278   32.3224   42.7166 H   0  0  0  0  0  0  0  0  0  0  0  0
   58.6138   33.5766   42.7166 H   0  0  0  0  0  0  0  0  0  0  0  0
   60.3070   33.8327   44.8528 H   0  0  0  0  0  0  0  0  0  0  0  0
   59.7510   34.9139   46.1672 H   0  0  0  0  0  0  0  0  0  0  0  0
   61.6047   32.4963   46.3242 H   0  0  0  0  0  0  0  0  0  0  0  0
   61.8752   34.1797   46.9155 H   0  0  0  0  0  0  0  0  0  0  0  0
   61.0741   30.9433   46.3809 H   0  0  0  0  0  0  0  0  0  0  0  0
   59.4175   29.7491   44.9516 H   0  0  0  0  0  0  0  0  0  0  0  0
  1  2  1  0
  2  3  2  0
  2  4  2  0
  2  5  1  0
  5  6  2  0
  6  7  1  0
  7  8  2  0
  8  9  1  0
  9 10  2  0
 10 11  1  0
 11 12  2  0
 12 13  1  0
 13 14  1  0
 13 15  2  0
 15 16  1  0
 16 17  1  0
 17 18  1  0
 18 19  1  0
 19 20  1  0
 20 21  1  0
 20 22  2  0
 20 23  2  0
 19 24  1  0
 24 25  1  0
  8 26  1  0
 26 27  2  0
 27  5  1  0
 15  9  1  0
 25 16  1  0
  1 28  1  0
  1 29  1  0
  1 30  1  0
  6 31  1  0
  7 32  1  0
 10 33  1  0
 11 34  1  0
 12 35  1  0
 17 36  1  0
 17 37  1  0
 18 38  1  0
 18 39  1  0
 21 40  1  0
 21 41  1  0
 21 42  1  0
 24 43  1  0
 24 44  1  0
 25 45  1  0
 25 46  1  0
 26 47  1  0
 27 48  1  0
M  CHG  1  11   1
M  END
>  <UniqueID>  (15) 
12

>  <SMILES>  (15) 
CS(=O)(=O)c1ccc(-c2c[nH+]cc(Cl)c2N2CCN(S(C)(=O)=O)CC2)cc1

>  <Energy>  (15) 
57.1006823220826

>  <Genealogy>  (15) 
CS(=O)(=O)c1ccc(-c2c[nH+]cc(Cl)c2N2CCN(S(C)(=O)=O)CC2)cc1 (protonated)
CS(=O)(=O)c1ccc(-c2c[nH+]cc(Cl)c2N2CCN(S(C)(=O)=O)CC2)cc1 (3D coordinates assigned)
CS(=O)(=O)c1ccc(-c2c[nH+]cc(Cl)c2N2CCN(S(C)(=O)=O)CC2)cc1 (nonaromatic ring conformer: 57.1006823220826 kcal/mol)

>  <smiles>  (15) 
CS(=O)(=O)c1ccc(-c2cncc(Cl)c2N2CCN(S(C)(=O)=O)CC2)cc1

>  <score_type>  (15) 
oracle

>  <origin>  (15) 
adg

>  <m_score__min__energy>  (15) 
-7.2800000000000002

>  <m_primary>  (15) 
energy

$$$$
15:0
     RDKit          3D

 43 45  0  0  0  0  0  0  0  0999 V2000
   57.4150   31.3480   43.3510 C   0  0  0  0  0  0  0  0  0  0  0  0
   57.8450   31.3310   44.7840 C   0  0  0  0  0  0  0  0  0  0  0  0
   58.3840   30.2160   45.3490 N   0  0  0  0  0  0  0  0  0  0  0  0
   58.7090   30.4000   46.6500 C   0  0  0  0  0  0  0  0  0  0  0  0
   59.3160   29.3460   47.4960 C   0  0  0  0  0  0  0  0  0  0  0  0
   59.2990   28.0030   47.0730 C   0  0  0  0  0  0  0  0  0  0  0  0
   59.8690   27.0030   47.8660 C   0  0  0  0  0  0  0  0  0  0  0  0
   60.4630   27.3300   49.0870 C   0  0  0  0  0  0  0  0  0  0  0  0
   61.0170   26.3590   49.8540 F   0  0  0  0  0  0  0  0  0  0  0  0
   60.4880   28.6590   49.5170 C   0  0  0  0  0  0  0  0  0  0  0  0
   59.9180   29.6630   48.7280 C   0  0  0  0  0  0  0  0  0  0  0  0
   58.3350   31.9680   47.1460 S   0  0  0  0  0  0  0  0  0  0  0  0
   57.7220   32.4210   45.6480 C   0  0  0  0  0  0  0  0  0  0  0  0
   57.2280   33.7960   45.3080 C   0  0  0  0  0  0  0  0  0  0  0  0
   58.3870   34.6880   44.8610 C   0  0  0  0  0  0  0  0  0  0  0  0
   59.6400   34.2400   45.4650 N   0  0  0  0  0  0  0  0  0  0  0  0
   60.0320   34.6120   46.7950 C   0  0  0  0  0  0  0  0  0  0  0  0
   59.2760   35.3420   47.4930 O   0  0  0  0  0  0  0  0  0  0  0  0
   61.3010   34.1120   47.3680 C   0  0  0  0  0  0  0  0  0  0  0  0
   62.3690   33.8250   46.5000 C   0  0  0  0  0  0  0  0  0  0  0  0
   63.5630   33.2950   46.9930 C   0  0  0  0  0  0  0  0  0  0  0  0
   63.7050   33.0440   48.3570 C   0  0  0  0  0  0  0  0  0  0  0  0
   62.6590   33.3310   49.2340 C   0  0  0  0  0  0  0  0  0  0  0  0
   61.4550   33.8740   48.7580 C   0  0  0  0  0  0  0  0  0  0  0  0
   60.4320   34.2200   49.7020 N   0  0  0  0  0  0  0  0  0  0  0  0
   56.3171   31.3914   43.2981 H   0  0  0  0  0  0  0  0  0  0  0  0
   57.8414   32.2300   42.8507 H   0  0  0  0  0  0  0  0  0  0  0  0
   57.7704   30.4351   42.8507 H   0  0  0  0  0  0  0  0  0  0  0  0
   58.8339   27.7390   46.1118 H   0  0  0  0  0  0  0  0  0  0  0  0
   59.8497   25.9565   47.5278 H   0  0  0  0  0  0  0  0  0  0  0  0
   60.9570   28.9162   50.4782 H   0  0  0  0  0  0  0  0  0  0  0  0
   59.9403   30.7074   49.0725 H   0  0  0  0  0  0  0  0  0  0  0  0
   56.4916   33.7247   44.4939 H   0  0  0  0  0  0  0  0  0  0  0  0
   56.7643   34.2379   46.2023 H   0  0  0  0  0  0  0  0  0  0  0  0
   58.4768   34.6431   43.7656 H   0  0  0  0  0  0  0  0  0  0  0  0
   58.1860   35.7205   45.1829 H   0  0  0  0  0  0  0  0  0  0  0  0
   60.2610   33.6150   44.9020 H   0  0  0  0  0  0  0  0  0  0  0  0
   62.2630   34.0198   45.4226 H   0  0  0  0  0  0  0  0  0  0  0  0
   64.3923   33.0753   46.3046 H   0  0  0  0  0  0  0  0  0  0  0  0
   64.6435   32.6189   48.7423 H   0  0  0  0  0  0  0  0  0  0  0  0
   62.7786   33.1300   50.3088 H   0  0  0  0  0  0  0  0  0  0  0  0
   60.2530   33.6530   50.5590 H   0  0  0  0  0  0  0  0  0  0  0  0
   59.7720   35.0040   49.5030 H   0  0  0  0  0  0  0  0  0  0  0  0
  1  2  1  0
  2  3  1  0
  3  4  2  0
  4  5  1  0
  5  6  2  0
  6  7  1  0
  7  8  2  0
  8  9  1  0
  8 10  1  0
 10 11  2  0
  4 12  1  0
 12 13  1  0
 13 14  1  0
 14 15  1  0
 15 16  1  0
 16 17  1  0
 17 18  2  0
 17 19  1  0
 19 20  2  0
 20 21  1  0
 21 22  2  0
 22 23  1  0
 23 24  2  0
 24 25  1  0
 13  2  2  0
 24 19  1  0
 11  5  1  0
  1 26  1  0
  1 27  1  0
  1 28  1  0
  6 29  1  0
  7 30  1  0
 10 31  1  0
 11 32  1  0
 14 33  1  0
 14 34  1  0
 15 35  1  0
 15 36  1  0
 16 37  1  0
 20 38  1  0
 21 39  1  0
 22 40  1  0
 23 41  1  0
 25 42  1  0
 25 43  1  0
M  END
>  <UniqueID>  (16) 
13

>  <SMILES>  (16) 
Cc1nc(-c2ccc(F)cc2)sc1CCNC(=O)c1ccccc1N

>  <Energy>  (16) 
74.90716559835032

>  <Genealogy>  (16) 
Cc1nc(-c2ccc(F)cc2)sc1CCNC(=O)c1ccccc1N (3D coordinates assigned)
Cc1nc(-c2ccc(F)cc2)sc1CCNC(=O)c1ccccc1N (optimized conformer: 74.90716559835032 kcal/mol)

>  <smiles>  (16) 
Cc1nc(-c2ccc(F)cc2)sc1CCNC(=O)c1ccccc1N

>  <score_type>  (16) 
oracle

>  <origin>  (16) 
adg

>  <m_score__min__energy>  (16) 
-8.8599999999999994

>  <m_primary>  (16) 
energy

$$$$
16:0
     RDKit          3D

 62 66  0  0  1  0  0  0  0  0999 V2000
   59.2360   33.5980   51.6780 C   0  0  0  0  0  0  0  0  0  0  0  0
   59.6440   34.2170   50.4750 O   0  0  0  0  0  0  0  0  0  0  0  0
   60.0780   33.4190   49.4260 C   0  0  0  0  0  0  0  0  0  0  0  0
   59.2840   32.4680   48.8210 C   0  0  0  0  0  0  0  0  0  0  0  0
   59.7460   31.6960   47.7870 C   0  0  0  0  0  0  0  0  0  0  0  0
   58.9600   30.6860   47.1000 C   0  0  0  0  0  0  0  0  0  0  0  0
   58.8960   29.3680   47.5450 C   0  0  0  0  0  0  0  0  0  0  0  0
   58.0740   28.6970   46.7210 N   0  0  0  0  0  0  0  0  0  0  0  0
   57.7760   27.2840   46.8890 C   0  0  2  0  0  0  0  0  0  0  0  0
   59.0280   26.4590   47.0120 C   0  0  0  0  0  0  0  0  0  0  0  0
   58.9320   25.4810   45.8630 C   0  0  0  0  0  0  0  0  0  0  0  0
   57.5810   25.4510   45.4060 N   0  0  0  0  0  0  0  0  0  0  0  0
   57.4060   25.1860   44.0090 C   0  0  0  0  0  0  0  0  0  0  0  0
   57.1760   23.7600   43.7560 C   0  0  0  0  0  0  0  0  0  0  0  0
   58.0290   22.8020   44.2980 C   0  0  0  0  0  0  0  0  0  0  0  0
   57.7880   21.4510   44.0440 C   0  0  0  0  0  0  0  0  0  0  0  0
   56.7380   21.0110   43.2760 C   0  0  0  0  0  0  0  0  0  0  0  0
   55.9290   21.9630   42.7630 N   0  0  0  0  0  0  0  0  0  0  0  0
   56.1340   23.2620   42.9880 C   0  0  0  0  0  0  0  0  0  0  0  0
   56.9570   26.6970   45.7910 C   0  0  0  0  0  0  0  0  0  0  0  0
   57.5950   29.5030   45.7550 C   0  0  0  0  0  0  0  0  0  0  0  0
   56.7710   29.3540   44.7080 N   0  0  0  0  0  0  0  0  0  0  0  0
   56.5100   30.4120   43.9240 C   0  0  0  0  0  0  0  0  0  0  0  0
   57.0230   31.6350   44.1140 N   0  0  0  0  0  0  0  0  0  0  0  0
   57.8590   31.8010   45.1680 C   0  0  0  0  0  0  0  0  0  0  0  0
   58.3620   32.9490   45.3550 N   0  0  0  0  0  0  0  0  0  0  0  0
   58.1550   30.7560   45.9950 C   0  0  0  0  0  0  0  0  0  0  0  0
   61.0590   31.8800   47.3330 C   0  0  0  0  0  0  0  0  0  0  0  0
   61.8250   32.8400   47.9590 C   0  0  0  0  0  0  0  0  0  0  0  0
   63.1640   33.0880   47.5560 O   0  0  0  0  0  0  0  0  0  0  0  0
   63.3930   33.8340   46.3650 C   0  0  0  0  0  0  0  0  0  0  0  0
   61.3820   33.6250   48.9980 C   0  0  0  0  0  0  0  0  0  0  0  0
   62.1920   34.5800   49.5970 O   0  0  0  0  0  0  0  0  0  0  0  0
   63.1400   34.1240   50.5420 C   0  0  0  0  0  0  0  0  0  0  0  0
   59.6160   34.1746   52.5342 H   0  0  0  0  0  0  0  0  0  0  0  0
   58.1373   33.5631   51.7181 H   0  0  0  0  0  0  0  0  0  0  0  0
   59.6371   32.5745   51.7181 H   0  0  0  0  0  0  0  0  0  0  0  0
   58.2532   32.3251   49.1773 H   0  0  0  0  0  0  0  0  0  0  0  0
   59.4239   28.9510   48.4153 H   0  0  0  0  0  0  0  0  0  0  0  0
   57.1881   27.2483   47.8180 H   0  0  0  0  0  0  0  0  0  0  0  0
   59.9238   27.0900   46.9153 H   0  0  0  0  0  0  0  0  0  0  0  0
   59.1134   25.9599   47.9885 H   0  0  0  0  0  0  0  0  0  0  0  0
   59.5933   25.8032   45.0452 H   0  0  0  0  0  0  0  0  0  0  0  0
   59.2401   24.4784   46.1946 H   0  0  0  0  0  0  0  0  0  0  0  0
   56.5407   25.7579   43.6426 H   0  0  0  0  0  0  0  0  0  0  0  0
   58.3249   25.4854   43.4837 H   0  0  0  0  0  0  0  0  0  0  0  0
   58.8837   23.1068   44.9197 H   0  0  0  0  0  0  0  0  0  0  0  0
   58.4698   20.7051   44.4785 H   0  0  0  0  0  0  0  0  0  0  0  0
   56.5652   19.9409   43.0888 H   0  0  0  0  0  0  0  0  0  0  0  0
   55.4345   23.9813   42.5372 H   0  0  0  0  0  0  0  0  0  0  0  0
   56.9298   27.3849   44.9331 H   0  0  0  0  0  0  0  0  0  0  0  0
   55.9230   26.5269   46.1256 H   0  0  0  0  0  0  0  0  0  0  0  0
   55.8314   30.2654   43.0708 H   0  0  0  0  0  0  0  0  0  0  0  0
   56.7800   32.4350   43.4600 H   0  0  0  0  0  0  0  0  0  0  0  0
   59.3430   33.2440   45.3080 H   0  0  0  0  0  0  0  0  0  0  0  0
   61.4644   31.2791   46.5056 H   0  0  0  0  0  0  0  0  0  0  0  0
   63.7065   34.8554   46.6267 H   0  0  0  0  0  0  0  0  0  0  0  0
   64.1833   33.3479   45.7741 H   0  0  0  0  0  0  0  0  0  0  0  0
   62.4661   33.8750   45.7741 H   0  0  0  0  0  0  0  0  0  0  0  0
   62.7612   34.3062   51.5585 H   0  0  0  0  0  0  0  0  0  0  0  0
   63.3088   33.0462   50.4013 H   0  0  0  0  0  0  0  0  0  0  0  0
   64.0874   34.6649   50.4013 H   0  0  0  0  0  0  0  0  0  0  0  0
  1  2  1  0
  2  3  1  0
  3  4  2  0
  4  5  1  0
  5  6  1  0
  6  7  2  0
  7  8  1  0
  8  9  1  0
  9 10  1  0
 10 11  1  0
 11 12  1  0
 12 13  1  0
 13 14  1  0
 14 15  2  0
 15 16  1  0
 16 17  2  0
 17 18  1  0
 18 19  2  0
 12 20  1  0
  8 21  1  0
 21 22  1  0
 22 23  2  0
 23 24  1  0
 24 25  1  0
 25 26  2  3
 25 27  1  0
  5 28  2  0
 28 29  1  0
 29 30  1  0
 30 31  1  0
 29 32  2  0
 32 33  1  0
 33 34  1  0
 32  3  1  0
 27  6  1  0
 20  9  1  0
 27 21  2  0
 19 14  1  0
  1 35  1  0
  1 36  1  0
  1 37  1  0
  4 38  1  0
  7 39  1  0
  9 40  1  1
 10 41  1  0
 10 42  1  0
 11 43  1  0
 11 44  1  0
 13 45  1  0
 13 46  1  0
 15 47  1  0
 16 48  1  0
 17 49  1  0
 19 50  1  0
 20 51  1  0
 20 52  1  0
 23 53  1  0
 24 54  1  0
 26 55  1  0
 28 56  1  0
 31 57  1  0
 31 58  1  0
 31 59  1  0
 34 60  1  0
 34 61  1  0
 34 62  1  0
M  END
>  <smiles>  (17) 
COc1cc(-c2cn(C3CCN(Cc4cccnc4)C3)c3nc[nH]c(=N)c23)cc(OC)c1OC

>  <score_type>  (17) 
oracle

>  <origin>  (17) 
adg

>  <m_score__min__energy>  (17) 
-8.2899999999999991

>  <m_primary>  (17) 
energy

$$$$
17:0
     RDKit          3D

 53 55  0  0  0  0  0  0  0  0999 V2000
   67.9110   27.8330   49.9720 C   0  0  0  0  0  0  0  0  0  0  0  0
   67.5570   28.8530   51.0490 C   0  0  0  0  0  0  0  0  0  0  0  0
   66.1970   28.5690   51.6250 C   0  0  0  0  0  0  0  0  0  0  0  0
   65.7650   27.3760   52.1910 C   0  0  0  0  0  0  0  0  0  0  0  0
   66.5130   26.0820   52.2100 C   0  0  0  0  0  0  0  0  0  0  0  0
   64.5900   27.5670   52.8260 N   0  0  0  0  0  0  0  0  0  0  0  0
   64.2550   28.8370   52.6730 N   0  0  0  0  0  0  0  0  0  0  0  0
   63.0850   29.4460   53.2920 C   0  0  0  0  0  0  0  0  0  0  0  0
   65.2080   29.4770   51.9720 C   0  0  0  0  0  0  0  0  0  0  0  0
   65.1980   30.8550   51.7300 O   0  0  0  0  0  0  0  0  0  0  0  0
   64.5130   31.4690   50.6720 C   0  0  0  0  0  0  0  0  0  0  0  0
   65.1790   32.4380   49.9140 C   0  0  0  0  0  0  0  0  0  0  0  0
   64.5240   33.0920   48.8660 C   0  0  0  0  0  0  0  0  0  0  0  0
   63.1810   32.7950   48.5680 C   0  0  0  0  0  0  0  0  0  0  0  0
   62.4710   33.4780   47.4600 C   0  0  0  0  0  0  0  0  0  0  0  0
   63.0660   33.6550   46.3610 O   0  0  0  0  0  0  0  0  0  0  0  0
   61.1110   33.9230   47.6130 N   0  0  0  0  0  0  0  0  0  0  0  0
   60.3890   34.6240   46.5520 C   0  0  0  0  0  0  0  0  0  0  0  0
   59.2750   33.7560   46.0370 C   0  0  0  0  0  0  0  0  0  0  0  0
   59.0980   32.4590   46.5390 C   0  0  0  0  0  0  0  0  0  0  0  0
   58.0870   31.6390   46.0330 C   0  0  0  0  0  0  0  0  0  0  0  0
   57.2490   32.0890   45.0060 C   0  0  0  0  0  0  0  0  0  0  0  0
   56.2550   31.2180   44.5330 O   0  0  0  0  0  0  0  0  0  0  0  0
   56.4810   29.8960   44.0500 C   0  0  0  0  0  0  0  0  0  0  0  0
   57.7880   29.5200   44.2900 F   0  0  0  0  0  0  0  0  0  0  0  0
   56.2130   29.8290   42.6950 F   0  0  0  0  0  0  0  0  0  0  0  0
   55.6390   29.0260   44.7130 F   0  0  0  0  0  0  0  0  0  0  0  0
   57.4330   33.3880   44.4930 C   0  0  0  0  0  0  0  0  0  0  0  0
   58.4390   34.2130   45.0060 C   0  0  0  0  0  0  0  0  0  0  0  0
   62.5160   31.8180   49.3310 C   0  0  0  0  0  0  0  0  0  0  0  0
   63.1720   31.1680   50.3800 C   0  0  0  0  0  0  0  0  0  0  0  0
   68.2363   26.8958   50.4473 H   0  0  0  0  0  0  0  0  0  0  0  0
   67.0276   27.6392   49.3459 H   0  0  0  0  0  0  0  0  0  0  0  0
   68.7245   28.2282   49.3459 H   0  0  0  0  0  0  0  0  0  0  0  0
   68.3066   28.8043   51.8525 H   0  0  0  0  0  0  0  0  0  0  0  0
   67.5466   29.8555   50.5963 H   0  0  0  0  0  0  0  0  0  0  0  0
   66.6899   25.7760   53.2517 H   0  0  0  0  0  0  0  0  0  0  0  0
   65.9222   25.3094   51.6962 H   0  0  0  0  0  0  0  0  0  0  0  0
   67.4774   26.2084   51.6962 H   0  0  0  0  0  0  0  0  0  0  0  0
   63.1814   29.3958   54.3866 H   0  0  0  0  0  0  0  0  0  0  0  0
   63.0098   30.4977   52.9784 H   0  0  0  0  0  0  0  0  0  0  0  0
   62.1805   28.9043   52.9784 H   0  0  0  0  0  0  0  0  0  0  0  0
   66.2254   32.6872   50.1441 H   0  0  0  0  0  0  0  0  0  0  0  0
   65.0622   33.8439   48.2702 H   0  0  0  0  0  0  0  0  0  0  0  0
   60.5550   33.6040   48.4370 H   0  0  0  0  0  0  0  0  0  0  0  0
   59.9690   35.5588   46.9517 H   0  0  0  0  0  0  0  0  0  0  0  0
   61.0826   34.8522   45.7293 H   0  0  0  0  0  0  0  0  0  0  0  0
   59.7586   32.0854   47.3353 H   0  0  0  0  0  0  0  0  0  0  0  0
   57.9478   30.6290   46.4458 H   0  0  0  0  0  0  0  0  0  0  0  0
   56.7826   33.7550   43.6854 H   0  0  0  0  0  0  0  0  0  0  0  0
   58.5760   35.2258   44.5993 H   0  0  0  0  0  0  0  0  0  0  0  0
   61.4710   31.5635   49.1001 H   0  0  0  0  0  0  0  0  0  0  0  0
   62.6361   30.4175   50.9796 H   0  0  0  0  0  0  0  0  0  0  0  0
  1  2  1  0
  2  3  1  0
  3  4  1  0
  4  5  1  0
  4  6  2  0
  6  7  1  0
  7  8  1  0
  7  9  1  0
  9 10  1  0
 10 11  1  0
 11 12  2  0
 12 13  1  0
 13 14  2  0
 14 15  1  0
 15 16  2  0
 15 17  1  0
 17 18  1  0
 18 19  1  0
 19 20  2  0
 20 21  1  0
 21 22  2  0
 22 23  1  0
 23 24  1  0
 24 25  1  0
 24 26  1  0
 24 27  1  0
 22 28  1  0
 28 29  2  0
 14 30  1  0
 30 31  2  0
  9  3  2  0
 31 11  1  0
 29 19  1  0
  1 32  1  0
  1 33  1  0
  1 34  1  0
  2 35  1  0
  2 36  1  0
  5 37  1  0
  5 38  1  0
  5 39  1  0
  8 40  1  0
  8 41  1  0
  8 42  1  0
 12 43  1  0
 13 44  1  0
 17 45  1  0
 18 46  1  0
 18 47  1  0
 20 48  1  0
 21 49  1  0
 28 50  1  0
 29 51  1  0
 30 52  1  0
 31 53  1  0
M  END
>  <UniqueID>  (18) 
14

>  <SMILES>  (18) 
CCc1c(C)nn(C)c1Oc1ccc(C(=O)NCc2ccc(OC(F)(F)F)cc2)cc1

>  <Energy>  (18) 
87.64835525323791

>  <Genealogy>  (18) 
CCc1c(C)nn(C)c1Oc1ccc(C(=O)NCc2ccc(OC(F)(F)F)cc2)cc1 (3D coordinates assigned)
CCc1c(C)nn(C)c1Oc1ccc(C(=O)NCc2ccc(OC(F)(F)F)cc2)cc1 (optimized conformer: 87.64835525323791 kcal/mol)

>  <smiles>  (18) 
CCc1c(C)nn(C)c1Oc1ccc(C(=O)NCc2ccc(OC(F)(F)F)cc2)cc1

>  <score_type>  (18) 
oracle

>  <origin>  (18) 
adg

>  <m_score__min__energy>  (18) 
-7.1600000000000001

>  <m_primary>  (18) 
energy

$$$$
18:0
     RDKit          3D

 29 30  0  0  0  0  0  0  0  0999 V2000
   59.2400   34.5870   53.8630 C   0  0  0  0  0  0  0  0  0  0  0  0
   58.4830   34.0860   52.7670 O   0  0  0  0  0  0  0  0  0  0  0  0
   57.8750   32.8220   52.7380 C   0  0  0  0  0  0  0  0  0  0  0  0
   57.7310   32.0240   53.8890 C   0  0  0  0  0  0  0  0  0  0  0  0
   57.1200   30.7700   53.8070 C   0  0  0  0  0  0  0  0  0  0  0  0
   56.6520   30.2870   52.5710 C   0  0  0  0  0  0  0  0  0  0  0  0
   56.0210   29.0400   52.4410 O   0  0  0  0  0  0  0  0  0  0  0  0
   54.6700   28.7810   52.7140 C   0  0  0  0  0  0  0  0  0  0  0  0
   54.3140   27.6550   53.1590 O   0  0  0  0  0  0  0  0  0  0  0  0
   53.6540   29.8150   52.4220 C   0  0  0  0  0  0  0  0  0  0  0  0
   52.7990   30.2770   53.4330 C   0  0  0  0  0  0  0  0  0  0  0  0
   51.8440   31.2530   53.1400 C   0  0  0  0  0  0  0  0  0  0  0  0
   51.7390   31.7580   51.8800 N   0  0  0  0  0  0  0  0  0  0  0  0
   50.7920   32.7190   51.6130 O   0  0  0  0  0  0  0  0  0  0  0  0
   52.5560   31.3270   50.8800 C   0  0  0  0  0  0  0  0  0  0  0  0
   53.5240   30.3520   51.1300 C   0  0  0  0  0  0  0  0  0  0  0  0
   56.7790   31.0910   51.4320 C   0  0  0  0  0  0  0  0  0  0  0  0
   57.3910   32.3440   51.5140 C   0  0  0  0  0  0  0  0  0  0  0  0
   58.7690   34.2753   54.8069 H   0  0  0  0  0  0  0  0  0  0  0  0
   60.2638   34.1875   53.8146 H   0  0  0  0  0  0  0  0  0  0  0  0
   59.2724   35.6855   53.8146 H   0  0  0  0  0  0  0  0  0  0  0  0
   58.1015   32.3897   54.8580 H   0  0  0  0  0  0  0  0  0  0  0  0
   57.0043   30.1573   54.7132 H   0  0  0  0  0  0  0  0  0  0  0  0
   52.8802   29.8723   54.4526 H   0  0  0  0  0  0  0  0  0  0  0  0
   51.1725   31.6159   53.9321 H   0  0  0  0  0  0  0  0  0  0  0  0
   52.4531   31.7491   49.8694 H   0  0  0  0  0  0  0  0  0  0  0  0
   54.1818   30.0059   50.3191 H   0  0  0  0  0  0  0  0  0  0  0  0
   56.3941   30.7335   50.4655 H   0  0  0  0  0  0  0  0  0  0  0  0
   57.4937   32.9607   50.6090 H   0  0  0  0  0  0  0  0  0  0  0  0
  1  2  1  0
  2  3  1  0
  3  4  2  0
  4  5  1  0
  5  6  2  0
  6  7  1  0
  7  8  1  0
  8  9  2  0
  8 10  1  0
 10 11  2  0
 11 12  1  0
 12 13  2  0
 13 14  1  0
 13 15  1  0
 15 16  2  0
  6 17  1  0
 17 18  2  0
 18  3  1  0
 16 10  1  0
  1 19  1  0
  1 20  1  0
  1 21  1  0
  4 22  1  0
  5 23  1  0
 11 24  1  0
 12 25  1  0
 15 26  1  0
 16 27  1  0
 17 28  1  0
 18 29  1  0
M  CHG  2  13   1  14  -1
M  END
>  <UniqueID>  (19) 
15

>  <SMILES>  (19) 
COc1ccc(OC(=O)c2cc[n+]([O-])cc2)cc1

>  <Energy>  (19) 
34.251231243377504

>  <Genealogy>  (19) 
COc1ccc(OC(=O)c2cc[n+]([O-])cc2)cc1 (3D coordinates assigned)
COc1ccc(OC(=O)c2cc[n+]([O-])cc2)cc1 (optimized conformer: 34.251231243377504 kcal/mol)

>  <smiles>  (19) 
COc1ccc(OC(=O)c2cc[n+]([O-])cc2)cc1

>  <score_type>  (19) 
oracle

>  <origin>  (19) 
adg

>  <m_score__min__energy>  (19) 
-6.2599999999999998

>  <m_primary>  (19) 
energy

$$$$
19:0
     RDKit          3D

 47 49  0  0  0  0  0  0  0  0999 V2000
   57.9409   28.3893   43.4141 H   0  0  0  0  0  0  0  0  0  0  0  0
   57.1960   28.9270   44.0190 C   0  0  0  0  0  0  0  0  0  0  0  0
   56.4490   30.0400   43.4050 C   0  0  0  0  0  0  0  0  0  0  0  0
   55.1870   30.0250   43.3850 O   0  0  0  0  0  0  0  0  0  0  0  0
   57.1980   31.1380   42.7550 C   0  0  0  0  0  0  0  0  0  0  0  0
   57.3283   31.0833   41.6641 H   0  0  0  0  0  0  0  0  0  0  0  0
   57.7320   32.1960   43.3870 C   0  0  0  0  0  0  0  0  0  0  0  0
   58.0050   33.0663   42.7722 H   0  0  0  0  0  0  0  0  0  0  0  0
   57.9830   32.2870   44.8410 C   0  0  0  0  0  0  0  0  0  0  0  0
   57.4040   33.3330   45.5730 C   0  0  0  0  0  0  0  0  0  0  0  0
   56.7443   34.0540   45.0681 H   0  0  0  0  0  0  0  0  0  0  0  0
   57.6600   33.4650   46.9400 C   0  0  0  0  0  0  0  0  0  0  0  0
   57.1855   34.2792   47.5074 H   0  0  0  0  0  0  0  0  0  0  0  0
   58.5190   32.5660   47.5970 C   0  0  0  0  0  0  0  0  0  0  0  0
   58.7900   32.7040   49.0510 C   0  0  0  0  0  0  0  0  0  0  0  0
   59.6930   33.6730   49.5170 C   0  0  0  0  0  0  0  0  0  0  0  0
   60.2018   34.3353   48.8011 H   0  0  0  0  0  0  0  0  0  0  0  0
   59.9490   33.8010   50.8830 C   0  0  0  0  0  0  0  0  0  0  0  0
   60.6580   34.5630   51.2389 H   0  0  0  0  0  0  0  0  0  0  0  0
   59.3080   32.9650   51.7990 C   0  0  0  0  0  0  0  0  0  0  0  0
   59.5166   33.0729   52.8736 H   0  0  0  0  0  0  0  0  0  0  0  0
   58.3980   31.9860   51.3610 C   0  0  0  0  0  0  0  0  0  0  0  0
   57.7210   31.1050   52.3530 C   0  0  0  0  0  0  0  0  0  0  0  0
   57.0760   30.0970   51.9560 O   0  0  0  0  0  0  0  0  0  0  0  0
   57.7820   31.3760   53.8260 C   0  0  0  0  0  0  0  0  0  0  0  0
   57.5731   30.4480   54.3785 H   0  0  0  0  0  0  0  0  0  0  0  0
   58.7850   31.7422   54.0902 H   0  0  0  0  0  0  0  0  0  0  0  0
   57.0326   32.1366   54.0902 H   0  0  0  0  0  0  0  0  0  0  0  0
   58.1470   31.8650   49.9800 C   0  0  0  0  0  0  0  0  0  0  0  0
   57.4381   31.1036   49.6227 H   0  0  0  0  0  0  0  0  0  0  0  0
   59.1240   31.5380   46.8520 C   0  0  0  0  0  0  0  0  0  0  0  0
   59.8047   30.8315   47.3495 H   0  0  0  0  0  0  0  0  0  0  0  0
   58.8670   31.4070   45.4840 C   0  0  0  0  0  0  0  0  0  0  0  0
   59.3604   30.6098   44.9086 H   0  0  0  0  0  0  0  0  0  0  0  0
   56.9980   28.5480   45.2900 C   0  0  0  0  0  0  0  0  0  0  0  0
   56.6601   29.3015   46.0167 H   0  0  0  0  0  0  0  0  0  0  0  0
   57.2140   27.1610   45.7580 C   0  0  0  0  0  0  0  0  0  0  0  0
   58.5360   26.7130   45.9280 C   0  0  0  0  0  0  0  0  0  0  0  0
   59.3743   27.3920   45.7132 H   0  0  0  0  0  0  0  0  0  0  0  0
   58.7930   25.4110   46.3680 C   0  0  0  0  0  0  0  0  0  0  0  0
   59.8309   25.0665   46.4865 H   0  0  0  0  0  0  0  0  0  0  0  0
   57.7360   24.5480   46.6570 C   0  0  0  0  0  0  0  0  0  0  0  0
   57.9411   23.5211   46.9938 H   0  0  0  0  0  0  0  0  0  0  0  0
   56.4170   24.9870   46.5190 C   0  0  0  0  0  0  0  0  0  0  0  0
   55.5858   24.3055   46.7530 H   0  0  0  0  0  0  0  0  0  0  0  0
   56.1480   26.2910   46.0840 C   0  0  0  0  0  0  0  0  0  0  0  0
   54.8260   26.7150   46.0140 O   0  0  0  0  0  0  0  0  0  0  0  0
  1  2  1  0
  2  3  1  0
  3  4  2  0
  3  5  1  0
  5  6  1  0
  5  7  2  0
  7  8  1  0
  7  9  1  0
  9 10  2  0
 10 11  1  0
 10 12  1  0
 12 13  1  0
 12 14  2  0
 14 15  1  0
 15 16  2  0
 16 17  1  0
 16 18  1  0
 18 19  1  0
 18 20  2  0
 20 21  1  0
 20 22  1  0
 22 23  1  0
 23 24  2  0
 23 25  1  0
 25 26  1  0
 25 27  1  0
 25 28  1  0
 22 29  2  0
 29 30  1  0
 14 31  1  0
 31 32  1  0
 31 33  2  0
 33 34  1  0
  2 35  2  3
 35 36  1  0
 35 37  1  0
 37 38  2  0
 38 39  1  0
 38 40  1  0
 40 41  1  0
 40 42  2  0
 42 43  1  0
 42 44  1  0
 44 45  1  0
 44 46  2  0
 46 47  1  0
 33  9  1  0
 46 37  1  0
 29 15  1  0
M  CHG  1  47  -1
M  END
>  <UniqueID>  (20) 
16

>  <SMILES>  (20) 
CC(=O)c1cccc(-c2ccc(/C=C\C(=O)C=Cc3ccccc3[O-])cc2)c1

>  <Energy>  (20) 
66.85466255289417

>  <Genealogy>  (20) 
CC(=O)c1cccc(-c2ccc(C=CC(=O)C=Cc3ccccc3[O-])cc2)c1 (protonated)
CC(=O)c1cccc(-c2ccc(/C=C\C(=O)C=Cc3ccccc3[O-])cc2)c1 (cis-trans isomerization)
CC(=O)c1cccc(-c2ccc(/C=C\C(=O)C=Cc3ccccc3[O-])cc2)c1 (3D coordinates assigned)
CC(=O)c1cccc(-c2ccc(/C=C\C(=O)C=Cc3ccccc3[O-])cc2)c1 (optimized conformer: 66.85466255289417 kcal/mol)

>  <smiles>  (20) 
CC(=O)c1cccc(-c2ccc(C=CC(=O)C=Cc3ccccc3O)cc2)c1

>  <score_type>  (20) 
oracle

>  <origin>  (20) 
adg

>  <m_score__min__energy>  (20) 
-13.75

>  <m_primary>  (20) 
energy

$$$$
20:0
     RDKit          3D

 40 42  0  0  1  0  0  0  0  0999 V2000
   62.9650   32.0890   47.5060 C   0  0  0  0  0  0  0  0  0  0  0  0
   61.3420   31.2970   47.3450 S   0  0  0  0  0  0  0  0  0  0  0  0
   60.0650   32.4960   46.9630 C   0  0  0  0  0  0  0  0  0  0  0  0
   59.9540   33.6960   47.6340 C   0  0  0  0  0  0  0  0  0  0  0  0
   58.9700   34.6140   47.3350 C   0  0  0  0  0  0  0  0  0  0  0  0
   58.0590   34.3420   46.3380 C   0  0  0  0  0  0  0  0  0  0  0  0
   58.1690   33.1270   45.6580 C   0  0  0  0  0  0  0  0  0  0  0  0
   59.1570   32.2170   45.9650 C   0  0  0  0  0  0  0  0  0  0  0  0
   59.2080   30.9860   45.2210 N   0  0  0  0  0  0  0  0  0  0  0  0
   58.1800   30.1920   45.1540 C   0  0  0  0  0  0  0  0  0  0  0  0
   57.0700   30.6250   44.4210 C   0  0  0  0  0  0  0  0  0  0  0  0
   55.9550   29.7930   44.3330 C   0  0  0  0  0  0  0  0  0  0  0  0
   55.9740   28.6060   44.9500 N   0  0  0  0  0  0  0  0  0  0  0  0
   57.0610   28.2000   45.6600 C   0  0  0  0  0  0  0  0  0  0  0  0
   57.0750   27.0700   46.2460 N   0  0  0  0  0  0  0  0  0  0  0  0
   56.8210   25.8410   45.5730 C   0  0  0  0  0  0  0  0  0  0  0  0
   55.8310   24.9560   45.9950 C   0  0  0  0  0  0  0  0  0  0  0  0
   55.6220   23.7790   45.3120 C   0  0  0  0  0  0  0  0  0  0  0  0
   56.3750   23.4290   44.1930 C   0  0  0  0  0  0  0  0  0  0  0  0
   56.1300   22.2040   43.5140 N   0  0  0  0  0  0  0  0  0  0  0  0
   55.8360   22.2340   42.2960 O   0  0  0  0  0  0  0  0  0  0  0  0
   56.2170   21.0290   44.1900 O   0  0  0  0  0  0  0  0  0  0  0  0
   57.3370   24.3050   43.7960 C   0  0  0  0  0  0  0  0  0  0  0  0
   57.5770   25.4910   44.4500 C   0  0  0  0  0  0  0  0  0  0  0  0
   58.1640   28.9860   45.7650 N   0  0  0  0  0  0  0  0  0  0  0  0
   63.2105   32.2088   48.5716 H   0  0  0  0  0  0  0  0  0  0  0  0
   63.7285   31.4622   47.0221 H   0  0  0  0  0  0  0  0  0  0  0  0
   62.9407   33.0765   47.0221 H   0  0  0  0  0  0  0  0  0  0  0  0
   60.6735   33.9278   48.4331 H   0  0  0  0  0  0  0  0  0  0  0  0
   58.9124   35.5613   47.8911 H   0  0  0  0  0  0  0  0  0  0  0  0
   57.2668   35.0619   46.0845 H   0  0  0  0  0  0  0  0  0  0  0  0
   57.4505   32.8912   44.8592 H   0  0  0  0  0  0  0  0  0  0  0  0
   57.0769   31.6055   43.9225 H   0  0  0  0  0  0  0  0  0  0  0  0
   55.0692   30.1089   43.7625 H   0  0  0  0  0  0  0  0  0  0  0  0
   55.1540   27.9770   44.8950 H   0  0  0  0  0  0  0  0  0  0  0  0
   55.2160   25.1979   46.8744 H   0  0  0  0  0  0  0  0  0  0  0  0
   54.8358   23.0932   45.6607 H   0  0  0  0  0  0  0  0  0  0  0  0
   57.9479   24.0547   42.9161 H   0  0  0  0  0  0  0  0  0  0  0  0
   58.3663   26.1664   44.0884 H   0  0  0  0  0  0  0  0  0  0  0  0
   58.9960   28.6670   46.3110 H   0  0  0  0  0  0  0  0  0  0  0  0
  1  2  1  0
  2  3  1  0
  3  4  2  0
  4  5  1  0
  5  6  2  0
  6  7  1  0
  7  8  2  0
  8  9  1  0
  9 10  2  0
 10 11  1  0
 11 12  2  0
 12 13  1  0
 13 14  1  0
 14 15  2  0
 15 16  1  0
 16 17  2  0
 17 18  1  0
 18 19  2  0
 19 20  1  0
 20 21  2  0
 20 22  1  0
 19 23  1  0
 23 24  2  0
 14 25  1  0
  8  3  1  0
 25 10  1  0
 24 16  1  0
  1 26  1  0
  1 27  1  0
  1 28  1  0
  4 29  1  0
  5 30  1  0
  6 31  1  0
  7 32  1  0
 11 33  1  0
 12 34  1  0
 13 35  1  0
 17 36  1  0
 18 37  1  0
 23 38  1  0
 24 39  1  0
 25 40  1  0
M  CHG  2  20   1  22  -1
M  END
>  <smiles>  (21) 
CSc1ccccc1N=c1cc[nH]c(=Nc2ccc([N+](=O)[O-])cc2)[nH]1

>  <score_type>  (21) 
oracle

>  <origin>  (21) 
adg

>  <m_score__min__energy>  (21) 
-8.2699999999999996

>  <m_primary>  (21) 
energy

$$$$
21:0
     RDKit          3D

 48 51  0  0  0  0  0  0  0  0999 V2000
   57.3960   31.8220   42.0040 C   0  0  0  0  0  0  0  0  0  0  0  0
   56.4840   30.2940   42.3860 S   0  0  0  0  0  0  0  0  0  0  0  0
   57.4650   29.9320   43.8440 C   0  0  0  0  0  0  0  0  0  0  0  0
   58.1820   28.7320   43.9220 C   0  0  0  0  0  0  0  0  0  0  0  0
   58.9470   28.4430   45.0540 C   0  0  0  0  0  0  0  0  0  0  0  0
   58.9970   29.3510   46.1180 C   0  0  0  0  0  0  0  0  0  0  0  0
   59.7490   29.0670   47.2130 N   0  0  0  0  0  0  0  0  0  0  0  0
   59.8280   29.9140   48.2700 C   0  0  0  0  0  0  0  0  0  0  0  0
   59.1140   31.1220   48.2710 C   0  0  0  0  0  0  0  0  0  0  0  0
   59.2210   32.0240   49.4440 C   0  0  0  0  0  0  0  0  0  0  0  0
   60.0320   32.9890   49.3910 O   0  0  0  0  0  0  0  0  0  0  0  0
   58.4270   31.8150   50.6800 C   0  0  0  0  0  0  0  0  0  0  0  0
   58.2600   32.8530   51.6140 C   0  0  0  0  0  0  0  0  0  0  0  0
   57.4940   32.6520   52.7650 C   0  0  0  0  0  0  0  0  0  0  0  0
   56.8770   31.4200   52.9900 C   0  0  0  0  0  0  0  0  0  0  0  0
   57.0180   30.3770   52.0680 C   0  0  0  0  0  0  0  0  0  0  0  0
   56.3600   29.1320   52.3380 N   0  0  0  0  0  0  0  0  0  0  0  0
   54.9110   28.9450   53.2700 S   0  0  0  0  0  0  0  0  0  0  0  0
   55.1750   29.3680   54.6880 O   0  0  0  0  0  0  0  0  0  0  0  0
   54.4610   27.5120   53.2450 O   0  0  0  0  0  0  0  0  0  0  0  0
   53.6500   29.9500   52.5640 C   0  0  0  0  0  0  0  0  0  0  0  0
   52.9980   30.9280   53.3280 C   0  0  0  0  0  0  0  0  0  0  0  0
   51.9970   31.7160   52.7510 C   0  0  0  0  0  0  0  0  0  0  0  0
   51.6420   31.5330   51.4100 C   0  0  0  0  0  0  0  0  0  0  0  0
   50.6450   32.3250   50.8500 O   0  0  0  0  0  0  0  0  0  0  0  0
   52.2930   30.5550   50.6390 C   0  0  0  0  0  0  0  0  0  0  0  0
   51.9580   30.3490   49.3020 O   0  0  0  0  0  0  0  0  0  0  0  0
   53.2940   29.7680   51.2200 C   0  0  0  0  0  0  0  0  0  0  0  0
   57.7930   30.5800   50.9110 C   0  0  0  0  0  0  0  0  0  0  0  0
   58.3440   31.4580   47.1380 C   0  0  0  0  0  0  0  0  0  0  0  0
   57.7380   32.5640   47.0890 O   0  0  0  0  0  0  0  0  0  0  0  0
   58.2720   30.5630   46.0530 C   0  0  0  0  0  0  0  0  0  0  0  0
   57.5050   30.8440   44.9060 C   0  0  0  0  0  0  0  0  0  0  0  0
   57.6913   32.3167   42.9410 H   0  0  0  0  0  0  0  0  0  0  0  0
   58.2952   31.5761   41.4200 H   0  0  0  0  0  0  0  0  0  0  0  0
   56.7527   32.4967   41.4200 H   0  0  0  0  0  0  0  0  0  0  0  0
   58.1426   28.0146   43.0890 H   0  0  0  0  0  0  0  0  0  0  0  0
   59.5111   27.5003   45.1096 H   0  0  0  0  0  0  0  0  0  0  0  0
   60.4570   29.6515   49.1334 H   0  0  0  0  0  0  0  0  0  0  0  0
   58.7354   33.8291   51.4373 H   0  0  0  0  0  0  0  0  0  0  0  0
   57.3768   33.4661   53.4954 H   0  0  0  0  0  0  0  0  0  0  0  0
   56.2758   31.2682   53.8985 H   0  0  0  0  0  0  0  0  0  0  0  0
   53.2740   31.0758   54.3825 H   0  0  0  0  0  0  0  0  0  0  0  0
   51.4871   32.4822   53.3534 H   0  0  0  0  0  0  0  0  0  0  0  0
   51.5640   31.0840   48.7260 H   0  0  0  0  0  0  0  0  0  0  0  0
   53.8048   29.0017   50.6184 H   0  0  0  0  0  0  0  0  0  0  0  0
   57.9043   29.7655   50.1801 H   0  0  0  0  0  0  0  0  0  0  0  0
   56.9354   31.7830   44.8440 H   0  0  0  0  0  0  0  0  0  0  0  0
  1  2  1  0
  2  3  1  0
  3  4  2  0
  4  5  1  0
  5  6  2  0
  6  7  1  0
  7  8  1  0
  8  9  2  0
  9 10  1  0
 10 11  2  0
 10 12  1  0
 12 13  2  0
 13 14  1  0
 14 15  2  0
 15 16  1  0
 16 17  1  0
 17 18  1  0
 18 19  2  0
 18 20  2  0
 18 21  1  0
 21 22  2  0
 22 23  1  0
 23 24  2  0
 24 25  1  0
 24 26  1  0
 26 27  1  0
 26 28  2  0
 16 29  2  0
  9 30  1  0
 30 31  2  0
 30 32  1  0
 32 33  2  0
 33  3  1  0
 32  6  1  0
 29 12  1  0
 28 21  1  0
  1 34  1  0
  1 35  1  0
  1 36  1  0
  4 37  1  0
  5 38  1  0
  8 39  1  0
 13 40  1  0
 14 41  1  0
 15 42  1  0
 22 43  1  0
 23 44  1  0
 27 45  1  0
 28 46  1  0
 29 47  1  0
 33 48  1  0
M  CHG  3   7  -1  17  -1  25  -1
M  END
>  <UniqueID>  (22) 
17

>  <SMILES>  (22) 
CSc1ccc2[n-]cc(C(=O)c3cccc([N-]S(=O)(=O)c4ccc([O-])c(O)c4)c3)c(=O)c2c1

>  <Energy>  (22) 
65.70339058991148

>  <Genealogy>  (22) 
CSc1ccc2[n-]cc(C(=O)c3cccc([N-]S(=O)(=O)c4ccc([O-])c(O)c4)c3)c(=O)c2c1 (protonated)
CSc1ccc2[n-]cc(C(=O)c3cccc([N-]S(=O)(=O)c4ccc([O-])c(O)c4)c3)c(=O)c2c1 (3D coordinates assigned)
CSc1ccc2[n-]cc(C(=O)c3cccc([N-]S(=O)(=O)c4ccc([O-])c(O)c4)c3)c(=O)c2c1 (optimized conformer: 65.70339058991148 kcal/mol)

>  <smiles>  (22) 
CSc1ccc2[nH]cc(C(=O)c3cccc(NS(=O)(=O)c4ccc(O)c(O)c4)c3)c(=O)c2c1

>  <score_type>  (22) 
oracle

>  <origin>  (22) 
adg

>  <m_score__min__energy>  (22) 
-14.93

>  <m_primary>  (22) 
energy

$$$$
22:0
     RDKit          3D

 41 43  0  0  1  0  0  0  0  0999 V2000
   57.3950   31.4680   42.8290 C   0  0  0  0  0  0  0  0  0  0  0  0
   56.6410   30.2440   43.2710 C   0  0  0  0  0  0  0  0  0  0  0  0
   57.1950   29.6810   44.5450 C   0  0  0  0  0  0  0  0  0  0  0  0
   57.9700   30.4300   45.3670 N   0  0  0  0  0  0  0  0  0  0  0  0
   58.4700   29.9070   46.5260 C   0  0  0  0  0  0  0  0  0  0  0  0
   59.1960   30.6430   47.2720 N   0  0  0  0  0  0  0  0  0  0  0  0
   58.6760   31.8360   47.8940 C   0  0  0  0  0  0  0  0  0  0  0  0
   58.6090   32.9060   46.8380 C   0  0  0  0  0  0  0  0  0  0  0  0
   57.4310   33.1980   46.1740 C   0  0  0  0  0  0  0  0  0  0  0  0
   57.3630   34.1810   45.1990 C   0  0  0  0  0  0  0  0  0  0  0  0
   58.5030   34.8900   44.8770 C   0  0  0  0  0  0  0  0  0  0  0  0
   59.6760   34.5950   45.5420 C   0  0  0  0  0  0  0  0  0  0  0  0
   59.7550   33.6210   46.5140 C   0  0  0  0  0  0  0  0  0  0  0  0
   61.0210   33.3300   47.2060 C   0  0  0  0  0  0  0  0  0  0  0  0
   58.1510   28.5970   46.8120 C   0  0  0  0  0  0  0  0  0  0  0  0
   57.3590   27.8350   45.9710 C   0  0  0  0  0  0  0  0  0  0  0  0
   57.0430   26.4570   46.3070 C   0  0  0  0  0  0  0  0  0  0  0  0
   57.9430   25.4570   46.6190 C   0  0  0  0  0  0  0  0  0  0  0  0
   57.1600   24.3340   46.8610 C   0  0  0  0  0  0  0  0  0  0  0  0
   55.8560   24.6340   46.7040 N   0  0  0  0  0  0  0  0  0  0  0  0
   55.8230   25.9050   46.3740 N   0  0  0  0  0  0  0  0  0  0  0  0
   56.8920   28.3980   44.8420 N   0  0  0  0  0  0  0  0  0  0  0  0
   57.7387   32.0259   43.7125 H   0  0  0  0  0  0  0  0  0  0  0  0
   58.2636   31.1656   42.2256 H   0  0  0  0  0  0  0  0  0  0  0  0
   56.7342   32.1077   42.2256 H   0  0  0  0  0  0  0  0  0  0  0  0
   55.5862   30.5130   43.4292 H   0  0  0  0  0  0  0  0  0  0  0  0
   56.7396   29.4790   42.4868 H   0  0  0  0  0  0  0  0  0  0  0  0
   57.6706   31.6420   48.2960 H   0  0  0  0  0  0  0  0  0  0  0  0
   59.3234   32.1526   48.7250 H   0  0  0  0  0  0  0  0  0  0  0  0
   56.5215   32.6335   46.4272 H   0  0  0  0  0  0  0  0  0  0  0  0
   56.4123   34.3935   44.6881 H   0  0  0  0  0  0  0  0  0  0  0  0
   58.4770   35.6742   44.1060 H   0  0  0  0  0  0  0  0  0  0  0  0
   60.5844   35.1600   45.2859 H   0  0  0  0  0  0  0  0  0  0  0  0
   60.8612   33.3667   48.2937 H   0  0  0  0  0  0  0  0  0  0  0  0
   61.3728   32.3276   46.9207 H   0  0  0  0  0  0  0  0  0  0  0  0
   61.7752   34.0782   46.9207 H   0  0  0  0  0  0  0  0  0  0  0  0
   58.5376   28.1435   47.7366 H   0  0  0  0  0  0  0  0  0  0  0  0
   59.0394   25.5325   46.6658 H   0  0  0  0  0  0  0  0  0  0  0  0
   57.5489   23.3437   47.1403 H   0  0  0  0  0  0  0  0  0  0  0  0
   55.0650   23.9610   46.8280 H   0  0  0  0  0  0  0  0  0  0  0  0
   56.2920   27.8440   44.1900 H   0  0  0  0  0  0  0  0  0  0  0  0
  1  2  1  0
  2  3  1  0
  3  4  2  0
  4  5  1  0
  5  6  2  0
  6  7  1  0
  7  8  1  0
  8  9  2  0
  9 10  1  0
 10 11  2  0
 11 12  1  0
 12 13  2  0
 13 14  1  0
  5 15  1  0
 15 16  2  0
 16 17  1  0
 17 18  1  0
 18 19  2  0
 19 20  1  0
 20 21  1  0
 16 22  1  0
 22  3  1  0
 13  8  1  0
 21 17  2  0
  1 23  1  0
  1 24  1  0
  1 25  1  0
  2 26  1  0
  2 27  1  0
  7 28  1  0
  7 29  1  0
  9 30  1  0
 10 31  1  0
 11 32  1  0
 12 33  1  0
 14 34  1  0
 14 35  1  0
 14 36  1  0
 15 37  1  0
 18 38  1  0
 19 39  1  0
 20 40  1  0
 22 41  1  0
M  END
>  <smiles>  (23) 
CCc1nc(=NCc2ccccc2C)cc(-c2cc[nH]n2)[nH]1

>  <score_type>  (23) 
oracle

>  <origin>  (23) 
adg

>  <m_score__min__energy>  (23) 
-7.7400000000000002

>  <m_primary>  (23) 
energy

$$$$
23:0
     RDKit          3D

 30 31  0  0  0  0  0  0  0  0999 V2000
   56.3230   29.7420   43.4830 C   0  0  0  0  0  0  0  0  0  0  0  0
   56.4950   30.1570   44.8340 O   0  0  0  0  0  0  0  0  0  0  0  0
   57.3970   31.1490   45.2480 C   0  0  0  0  0  0  0  0  0  0  0  0
   57.1240   32.4780   44.9100 C   0  0  0  0  0  0  0  0  0  0  0  0
   57.9900   33.5050   45.2990 C   0  0  0  0  0  0  0  0  0  0  0  0
   59.1520   33.2170   46.0390 C   0  0  0  0  0  0  0  0  0  0  0  0
   60.0550   34.2700   46.4470 N   0  0  0  0  0  0  0  0  0  0  0  0
   59.6440   35.6750   46.3580 C   0  0  0  0  0  0  0  0  0  0  0  0
   61.2900   33.9420   47.1140 C   0  0  0  0  0  0  0  0  0  0  0  0
   61.3340   33.8110   48.5100 C   0  0  0  0  0  0  0  0  0  0  0  0
   62.5450   33.5010   49.1350 C   0  0  0  0  0  0  0  0  0  0  0  0
   63.6720   33.3310   48.3930 N   0  0  0  0  0  0  0  0  0  0  0  0
   63.6600   33.4550   47.0400 C   0  0  0  0  0  0  0  0  0  0  0  0
   62.4700   33.7640   46.3750 C   0  0  0  0  0  0  0  0  0  0  0  0
   59.4250   31.8800   46.3750 C   0  0  0  0  0  0  0  0  0  0  0  0
   58.5580   30.8540   45.9860 C   0  0  0  0  0  0  0  0  0  0  0  0
   55.9019   28.7260   43.4623 H   0  0  0  0  0  0  0  0  0  0  0  0
   55.6374   30.4336   42.9714 H   0  0  0  0  0  0  0  0  0  0  0  0
   57.2968   29.7458   42.9714 H   0  0  0  0  0  0  0  0  0  0  0  0
   56.2192   32.7182   44.3324 H   0  0  0  0  0  0  0  0  0  0  0  0
   57.7613   34.5454   45.0246 H   0  0  0  0  0  0  0  0  0  0  0  0
   59.5236   36.0867   47.3709 H   0  0  0  0  0  0  0  0  0  0  0  0
   60.4121   36.2482   45.8182 H   0  0  0  0  0  0  0  0  0  0  0  0
   58.6881   35.7439   45.8182 H   0  0  0  0  0  0  0  0  0  0  0  0
   60.4218   33.9513   49.1085 H   0  0  0  0  0  0  0  0  0  0  0  0
   62.5867   33.3943   50.2290 H   0  0  0  0  0  0  0  0  0  0  0  0
   64.5881   33.3120   46.4671 H   0  0  0  0  0  0  0  0  0  0  0  0
   62.4583   33.8670   45.2799 H   0  0  0  0  0  0  0  0  0  0  0  0
   60.3307   31.6378   46.9504 H   0  0  0  0  0  0  0  0  0  0  0  0
   58.7846   29.8125   46.2580 H   0  0  0  0  0  0  0  0  0  0  0  0
  1  2  1  0
  2  3  1  0
  3  4  2  0
  4  5  1  0
  5  6  2  0
  6  7  1  0
  7  8  1  0
  7  9  1  0
  9 10  2  0
 10 11  1  0
 11 12  2  0
 12 13  1  0
 13 14  2  0
  6 15  1  0
 15 16  2  0
 16  3  1  0
 14  9  1  0
  1 17  1  0
  1 18  1  0
  1 19  1  0
  4 20  1  0
  5 21  1  0
  8 22  1  0
  8 23  1  0
  8 24  1  0
 10 25  1  0
 11 26  1  0
 13 27  1  0
 14 28  1  0
 15 29  1  0
 16 30  1  0
M  END
>  <UniqueID>  (24) 
18

>  <SMILES>  (24) 
COc1ccc(N(C)c2ccncc2)cc1

>  <Energy>  (24) 
39.15754742490484

>  <Genealogy>  (24) 
COc1ccc(N(C)c2ccncc2)cc1 (3D coordinates assigned)
COc1ccc(N(C)c2ccncc2)cc1 (optimized conformer: 39.15754742490484 kcal/mol)

>  <smiles>  (24) 
COc1ccc(N(C)c2ccncc2)cc1

>  <score_type>  (24) 
oracle

>  <origin>  (24) 
adg

>  <m_score__min__energy>  (24) 
-5.7400000000000002

>  <m_primary>  (24) 
energy

$$$$
24:0
     RDKit          3D

 34 35  0  0  0  0  0  0  0  0999 V2000
   57.0570   31.1620   42.6500 C   0  0  0  0  0  0  0  0  0  0  0  0
   56.4390   30.8850   43.9470 N   0  0  0  0  0  0  0  0  0  0  0  0
   56.5590   31.7990   44.9530 O   0  0  0  0  0  0  0  0  0  0  0  0
   57.7980   31.5790   45.5990 C   0  0  0  0  0  0  0  0  0  0  0  0
   58.4630   32.8880   45.9240 C   0  0  0  0  0  0  0  0  0  0  0  0
   58.8480   33.1710   47.2450 C   0  0  0  0  0  0  0  0  0  0  0  0
   59.4430   34.3970   47.5560 C   0  0  0  0  0  0  0  0  0  0  0  0
   59.6520   35.3500   46.5550 C   0  0  0  0  0  0  0  0  0  0  0  0
   59.2670   35.0770   45.2400 C   0  0  0  0  0  0  0  0  0  0  0  0
   58.6720   33.8520   44.9230 C   0  0  0  0  0  0  0  0  0  0  0  0
   55.6650   29.6910   44.1680 C   0  0  0  0  0  0  0  0  0  0  0  0
   54.6780   29.4420   43.4250 O   0  0  0  0  0  0  0  0  0  0  0  0
   55.9580   28.7970   45.2470 N   0  0  0  0  0  0  0  0  0  0  0  0
   57.2490   28.2320   45.5140 C   0  0  0  0  0  0  0  0  0  0  0  0
   58.3070   28.5160   44.6420 C   0  0  0  0  0  0  0  0  0  0  0  0
   59.5820   27.9940   44.8850 C   0  0  0  0  0  0  0  0  0  0  0  0
   59.8090   27.1950   46.0100 C   0  0  0  0  0  0  0  0  0  0  0  0
   61.0450   26.6900   46.2440 F   0  0  0  0  0  0  0  0  0  0  0  0
   58.7610   26.9200   46.8930 C   0  0  0  0  0  0  0  0  0  0  0  0
   57.4860   27.4400   46.6530 C   0  0  0  0  0  0  0  0  0  0  0  0
   58.0508   31.6074   42.8050 H   0  0  0  0  0  0  0  0  0  0  0  0
   57.1598   30.2238   42.0850 H   0  0  0  0  0  0  0  0  0  0  0  0
   56.4251   31.8630   42.0850 H   0  0  0  0  0  0  0  0  0  0  0  0
   57.6262   31.0193   46.5303 H   0  0  0  0  0  0  0  0  0  0  0  0
   58.4525   31.0051   44.9265 H   0  0  0  0  0  0  0  0  0  0  0  0
   58.6808   32.4259   48.0367 H   0  0  0  0  0  0  0  0  0  0  0  0
   59.7475   34.6123   48.5909 H   0  0  0  0  0  0  0  0  0  0  0  0
   60.1194   36.3145   46.8025 H   0  0  0  0  0  0  0  0  0  0  0  0
   59.4323   35.8271   44.4526 H   0  0  0  0  0  0  0  0  0  0  0  0
   58.3667   33.6423   43.8872 H   0  0  0  0  0  0  0  0  0  0  0  0
   58.1349   29.1526   43.7616 H   0  0  0  0  0  0  0  0  0  0  0  0
   60.4067   28.2122   44.1905 H   0  0  0  0  0  0  0  0  0  0  0  0
   58.9401   26.2929   47.7788 H   0  0  0  0  0  0  0  0  0  0  0  0
   56.6662   27.2298   47.3557 H   0  0  0  0  0  0  0  0  0  0  0  0
  1  2  1  0
  2  3  1  0
  3  4  1  0
  4  5  1  0
  5  6  2  0
  6  7  1  0
  7  8  2  0
  8  9  1  0
  9 10  2  0
  2 11  1  0
 11 12  2  0
 11 13  1  0
 13 14  1  0
 14 15  2  0
 15 16  1  0
 16 17  2  0
 17 18  1  0
 17 19  1  0
 19 20  2  0
 10  5  1  0
 20 14  1  0
  1 21  1  0
  1 22  1  0
  1 23  1  0
  4 24  1  0
  4 25  1  0
  6 26  1  0
  7 27  1  0
  8 28  1  0
  9 29  1  0
 10 30  1  0
 15 31  1  0
 16 32  1  0
 19 33  1  0
 20 34  1  0
M  CHG  1  13  -1
M  END
>  <UniqueID>  (25) 
19

>  <SMILES>  (25) 
CN(OCc1ccccc1)C(=O)[N-]c1ccc(F)cc1

>  <Energy>  (25) 
39.009741944941794

>  <Genealogy>  (25) 
CN(OCc1ccccc1)C(=O)[N-]c1ccc(F)cc1 (protonated)
CN(OCc1ccccc1)C(=O)[N-]c1ccc(F)cc1 (3D coordinates assigned)
CN(OCc1ccccc1)C(=O)[N-]c1ccc(F)cc1 (optimized conformer: 39.009741944941794 kcal/mol)

>  <smiles>  (25) 
CN(OCc1ccccc1)C(=O)Nc1ccc(F)cc1

>  <score_type>  (25) 
oracle

>  <origin>  (25) 
adg

>  <m_score__min__energy>  (25) 
-8.5

>  <m_primary>  (25) 
energy

$$$$
25:0
     RDKit          3D

 74 77  0  0  1  0  0  0  0  0999 V2000
   63.7120   31.8440   52.6230 C   0  0  0  0  0  0  0  0  0  0  0  0
   63.9640   30.5770   51.9730 N   0  0  0  0  0  0  0  0  0  0  0  0
   62.8470   30.0820   51.2180 C   0  0  0  0  0  0  0  0  0  0  0  0
   65.2060   30.5380   51.2660 C   0  0  0  0  0  0  0  0  0  0  0  0
   65.9610   31.8200   51.5720 C   0  0  0  0  0  0  0  0  0  0  0  0
   66.2540   32.5990   50.3080 C   0  0  0  0  0  0  0  0  0  0  0  0
   65.1900   33.4740   49.9140 N   0  0  0  0  0  0  0  0  0  0  0  0
   64.1330   33.1190   49.2660 C   0  0  0  0  0  0  0  0  0  0  0  0
   62.9060   33.0510   49.8460 N   0  0  0  0  0  0  0  0  0  0  0  0
   61.8210   32.6750   49.1360 C   0  0  0  0  0  0  0  0  0  0  0  0
   60.4850   32.5890   49.7200 C   0  0  0  0  0  0  0  0  0  0  0  0
   60.2270   32.1500   50.9690 N   0  0  0  0  0  0  0  0  0  0  0  0
   58.8980   32.1970   51.1940 C   0  0  0  0  0  0  0  0  0  0  0  0
   58.2350   31.7960   52.4440 C   0  0  0  0  0  0  0  0  0  0  0  0
   56.7490   31.6040   52.2880 C   0  0  0  0  0  0  0  0  0  0  0  0
   58.8620   30.5080   52.9310 C   0  0  0  0  0  0  0  0  0  0  0  0
   58.5430   32.8640   53.4880 C   0  0  0  0  0  0  0  0  0  0  0  0
   58.3290   32.6680   50.0720 N   0  0  0  0  0  0  0  0  0  0  0  0
   59.2820   32.9260   49.1320 C   0  0  0  0  0  0  0  0  0  0  0  0
   59.0790   33.4470   47.7820 C   0  0  0  0  0  0  0  0  0  0  0  0
   59.7690   34.5750   47.3880 C   0  0  0  0  0  0  0  0  0  0  0  0
   59.5700   35.0600   46.1080 C   0  0  0  0  0  0  0  0  0  0  0  0
   58.6900   34.3990   45.2760 C   0  0  0  0  0  0  0  0  0  0  0  0
   57.9870   33.2820   45.6240 C   0  0  0  0  0  0  0  0  0  0  0  0
   57.0900   32.5680   44.8160 N   0  0  0  0  0  0  0  0  0  0  0  0
   57.1570   30.9250   44.4110 S   0  0  0  0  0  0  0  0  0  0  0  0
   57.3550   30.7140   42.9170 O   0  0  0  0  0  0  0  0  0  0  0  0
   55.8560   30.2530   44.8150 O   0  0  0  0  0  0  0  0  0  0  0  0
   58.4350   30.0260   45.1850 C   0  0  0  0  0  0  0  0  0  0  0  0
   59.4520   29.3990   44.4980 C   0  0  0  0  0  0  0  0  0  0  0  0
   60.4160   28.7120   45.2090 C   0  0  0  0  0  0  0  0  0  0  0  0
   60.4120   28.6220   46.5860 C   0  0  0  0  0  0  0  0  0  0  0  0
   59.4010   29.2470   47.2630 C   0  0  0  0  0  0  0  0  0  0  0  0
   59.3750   29.1670   48.7070 C   0  0  0  0  0  0  0  0  0  0  0  0
   59.3650   29.0870   49.8710 N   0  0  0  0  0  0  0  0  0  0  0  0
   58.4450   29.9260   46.5620 C   0  0  0  0  0  0  0  0  0  0  0  0
   58.1930   32.7960   46.9190 C   0  0  0  0  0  0  0  0  0  0  0  0
   61.9730   32.3540   47.7870 C   0  0  0  0  0  0  0  0  0  0  0  0
   63.2210   32.4220   47.1930 C   0  0  0  0  0  0  0  0  0  0  0  0
   64.2630   32.8050   47.9640 N   0  0  0  0  0  0  0  0  0  0  0  0
   63.7390   31.7081   53.7142 H   0  0  0  0  0  0  0  0  0  0  0  0
   64.4835   32.5690   52.3246 H   0  0  0  0  0  0  0  0  0  0  0  0
   62.7218   32.2186   52.3246 H   0  0  0  0  0  0  0  0  0  0  0  0
   62.0634   29.7347   51.9075 H   0  0  0  0  0  0  0  0  0  0  0  0
   62.4472   30.8872   50.5841 H   0  0  0  0  0  0  0  0  0  0  0  0
   63.1749   29.2449   50.5841 H   0  0  0  0  0  0  0  0  0  0  0  0
   65.7958   29.6698   51.5952 H   0  0  0  0  0  0  0  0  0  0  0  0
   65.0272   30.4488   50.1843 H   0  0  0  0  0  0  0  0  0  0  0  0
   65.3524   32.4428   52.2441 H   0  0  0  0  0  0  0  0  0  0  0  0
   66.9172   31.5555   52.0471 H   0  0  0  0  0  0  0  0  0  0  0  0
   67.1580   33.2034   50.4736 H   0  0  0  0  0  0  0  0  0  0  0  0
   66.3841   31.8647   49.4993 H   0  0  0  0  0  0  0  0  0  0  0  0
   60.9690   31.8290   51.6390 H   0  0  0  0  0  0  0  0  0  0  0  0
   56.2808   31.5435   53.2815 H   0  0  0  0  0  0  0  0  0  0  0  0
   56.3255   32.4549   51.7343 H   0  0  0  0  0  0  0  0  0  0  0  0
   56.5557   30.6734   51.7343 H   0  0  0  0  0  0  0  0  0  0  0  0
   58.8678   30.4960   54.0309 H   0  0  0  0  0  0  0  0  0  0  0  0
   58.2795   29.6527   52.5581 H   0  0  0  0  0  0  0  0  0  0  0  0
   59.8945   30.4389   52.5581 H   0  0  0  0  0  0  0  0  0  0  0  0
   58.4203   32.4386   54.4950 H   0  0  0  0  0  0  0  0  0  0  0  0
   59.5784   33.2130   53.3611 H   0  0  0  0  0  0  0  0  0  0  0  0
   57.8525   33.7108   53.3611 H   0  0  0  0  0  0  0  0  0  0  0  0
   60.4629   35.0781   48.0775 H   0  0  0  0  0  0  0  0  0  0  0  0
   60.1037   35.9566   45.7597 H   0  0  0  0  0  0  0  0  0  0  0  0
   58.5449   34.8000   44.2620 H   0  0  0  0  0  0  0  0  0  0  0  0
   56.2780   33.1450   44.4210 H   0  0  0  0  0  0  0  0  0  0  0  0
   59.4951   29.4451   43.3998 H   0  0  0  0  0  0  0  0  0  0  0  0
   61.2237   28.2139   44.6526 H   0  0  0  0  0  0  0  0  0  0  0  0
   61.1958   28.0661   47.1214 H   0  0  0  0  0  0  0  0  0  0  0  0
   57.6395   30.4199   47.1252 H   0  0  0  0  0  0  0  0  0  0  0  0
   57.6560   31.8984   47.2596 H   0  0  0  0  0  0  0  0  0  0  0  0
   61.0990   32.0462   47.1942 H   0  0  0  0  0  0  0  0  0  0  0  0
   63.3601   32.1731   46.1306 H   0  0  0  0  0  0  0  0  0  0  0  0
   65.1900   32.8470   47.4870 H   0  0  0  0  0  0  0  0  0  0  0  0
  1  2  1  0
  2  3  1  0
  2  4  1  0
  4  5  1  0
  5  6  1  0
  6  7  1  0
  7  8  2  0
  8  9  1  0
  9 10  2  0
 10 11  1  0
 11 12  1  0
 12 13  1  0
 13 14  1  0
 14 15  1  0
 14 16  1  0
 14 17  1  0
 13 18  2  0
 18 19  1  0
 19 20  1  0
 20 21  2  0
 21 22  1  0
 22 23  2  0
 23 24  1  0
 24 25  1  0
 25 26  1  0
 26 27  2  0
 26 28  2  0
 26 29  1  0
 29 30  2  0
 30 31  1  0
 31 32  2  0
 32 33  1  0
 33 34  1  0
 34 35  3  0
 33 36  2  0
 24 37  2  0
 10 38  1  0
 38 39  2  0
 39 40  1  0
 40  8  1  0
 19 11  2  0
 37 20  1  0
 36 29  1  0
  1 41  1  0
  1 42  1  0
  1 43  1  0
  3 44  1  0
  3 45  1  0
  3 46  1  0
  4 47  1  0
  4 48  1  0
  5 49  1  0
  5 50  1  0
  6 51  1  0
  6 52  1  0
 12 53  1  0
 15 54  1  0
 15 55  1  0
 15 56  1  0
 16 57  1  0
 16 58  1  0
 16 59  1  0
 17 60  1  0
 17 61  1  0
 17 62  1  0
 21 63  1  0
 22 64  1  0
 23 65  1  0
 25 66  1  0
 30 67  1  0
 31 68  1  0
 32 69  1  0
 36 70  1  0
 37 71  1  0
 38 72  1  0
 39 73  1  0
 40 74  1  0
M  END
>  <smiles>  (26) 
CN(C)CCCN=c1nc(-c2[nH]c(C(C)(C)C)nc2-c2cccc(NS(=O)(=O)c3cccc(C#N)c3)c2)cc[nH]1

>  <score_type>  (26) 
oracle

>  <origin>  (26) 
adg

>  <m_score__min__energy>  (26) 
-10.44

>  <m_primary>  (26) 
energy

$$$$
26:0
     RDKit          3D

 28 30  0  0  0  0  0  0  0  0999 V2000
   59.1740   27.8590   44.1440 C   0  0  0  0  0  0  0  0  0  0  0  0
   58.7200   29.2020   44.6130 C   0  0  0  0  0  0  0  0  0  0  0  0
   57.4770   29.7730   44.3550 C   0  0  0  0  0  0  0  0  0  0  0  0
   57.5970   31.0340   44.8970 C   0  0  0  0  0  0  0  0  0  0  0  0
   56.6860   32.0360   44.8730 N   0  0  0  0  0  0  0  0  0  0  0  0
   57.0200   33.2410   45.4190 C   0  0  0  0  0  0  0  0  0  0  0  0
   58.2910   33.4400   45.9890 C   0  0  0  0  0  0  0  0  0  0  0  0
   59.2120   32.3750   45.9970 C   0  0  0  0  0  0  0  0  0  0  0  0
   60.5450   32.5390   46.6160 C   0  0  0  0  0  0  0  0  0  0  0  0
   61.3100   33.6930   46.3650 C   0  0  0  0  0  0  0  0  0  0  0  0
   62.5770   33.8370   46.9370 C   0  0  0  0  0  0  0  0  0  0  0  0
   63.0960   32.8310   47.7550 C   0  0  0  0  0  0  0  0  0  0  0  0
   64.3260   32.9720   48.3080 F   0  0  0  0  0  0  0  0  0  0  0  0
   62.3480   31.6740   47.9990 C   0  0  0  0  0  0  0  0  0  0  0  0
   61.0810   31.5260   47.4290 C   0  0  0  0  0  0  0  0  0  0  0  0
   58.8140   31.1990   45.4340 N   0  0  0  0  0  0  0  0  0  0  0  0
   59.5150   30.0910   45.2520 N   0  0  0  0  0  0  0  0  0  0  0  0
   59.3898   27.2206   45.0134 H   0  0  0  0  0  0  0  0  0  0  0  0
   58.3825   27.3959   43.5365 H   0  0  0  0  0  0  0  0  0  0  0  0
   60.0842   27.9711   43.5365 H   0  0  0  0  0  0  0  0  0  0  0  0
   56.6112   29.3269   43.8438 H   0  0  0  0  0  0  0  0  0  0  0  0
   56.2897   34.0636   45.4135 H   0  0  0  0  0  0  0  0  0  0  0  0
   58.5614   34.4142   46.4224 H   0  0  0  0  0  0  0  0  0  0  0  0
   60.9091   34.4853   45.7157 H   0  0  0  0  0  0  0  0  0  0  0  0
   63.1669   34.7449   46.7425 H   0  0  0  0  0  0  0  0  0  0  0  0
   62.7580   30.8799   48.6404 H   0  0  0  0  0  0  0  0  0  0  0  0
   60.4998   30.6113   47.6177 H   0  0  0  0  0  0  0  0  0  0  0  0
   60.5180   29.9500   45.5100 H   0  0  0  0  0  0  0  0  0  0  0  0
  1  2  1  0
  2  3  1  0
  3  4  2  0
  4  5  1  0
  5  6  2  0
  6  7  1  0
  7  8  2  0
  8  9  1  0
  9 10  2  0
 10 11  1  0
 11 12  2  0
 12 13  1  0
 12 14  1  0
 14 15  2  0
  8 16  1  0
 16 17  1  0
 17  2  2  0
 16  4  1  0
 15  9  1  0
  1 18  1  0
  1 19  1  0
  1 20  1  0
  3 21  1  0
  6 22  1  0
  7 23  1  0
 10 24  1  0
 11 25  1  0
 14 26  1  0
 15 27  1  0
 17 28  1  0
M  CHG  1  17   1
M  END
>  <UniqueID>  (27) 
20

>  <SMILES>  (27) 
Cc1cc2nccc(-c3ccc(F)cc3)n2[nH+]1

>  <Energy>  (27) 
73.2215024132794

>  <Genealogy>  (27) 
Cc1cc2nccc(-c3ccc(F)cc3)n2[nH+]1 (protonated)
Cc1cc2nccc(-c3ccc(F)cc3)n2[nH+]1 (3D coordinates assigned)
Cc1cc2nccc(-c3ccc(F)cc3)n2[nH+]1 (optimized conformer: 73.2215024132794 kcal/mol)

>  <smiles>  (27) 
Cc1cc2nccc(-c3ccc(F)cc3)n2n1

>  <score_type>  (27) 
oracle

>  <origin>  (27) 
adg

>  <m_score__min__energy>  (27) 
-4.7199999999999998

>  <m_primary>  (27) 
energy

$$$$
27:0
     RDKit          3D

 34 35  0  0  0  0  0  0  0  0999 V2000
   57.6910   31.5350   43.7630 C   0  0  0  0  0  0  0  0  0  0  0  0
   57.0380   30.3470   44.3890 C   0  0  0  0  0  0  0  0  0  0  0  0
   55.7200   30.0800   44.2850 N   0  0  0  0  0  0  0  0  0  0  0  0
   55.5190   28.9260   44.8550 O   0  0  0  0  0  0  0  0  0  0  0  0
   56.6390   28.4210   45.3180 C   0  0  0  0  0  0  0  0  0  0  0  0
   56.7420   27.0880   45.9830 C   0  0  0  0  0  0  0  0  0  0  0  0
   57.6680   29.3050   45.0460 C   0  0  0  0  0  0  0  0  0  0  0  0
   59.1420   29.1070   45.2630 C   0  0  0  0  0  0  0  0  0  0  0  0
   59.5700   29.8450   46.4910 C   0  0  0  0  0  0  0  0  0  0  0  0
   58.9240   29.7030   47.5640 O   0  0  0  0  0  0  0  0  0  0  0  0
   60.6510   30.7830   46.4210 N   0  0  0  0  0  0  0  0  0  0  0  0
   60.6000   32.0480   47.1460 C   0  0  0  0  0  0  0  0  0  0  0  0
   59.4800   32.8920   46.6010 C   0  0  0  0  0  0  0  0  0  0  0  0
   58.1630   32.7070   47.0550 C   0  0  0  0  0  0  0  0  0  0  0  0
   57.1120   33.4260   46.4790 C   0  0  0  0  0  0  0  0  0  0  0  0
   57.3650   34.3270   45.4420 C   0  0  0  0  0  0  0  0  0  0  0  0
   56.3430   35.0170   44.8780 F   0  0  0  0  0  0  0  0  0  0  0  0
   58.6710   34.5110   44.9790 C   0  0  0  0  0  0  0  0  0  0  0  0
   59.7250   33.7930   45.5520 C   0  0  0  0  0  0  0  0  0  0  0  0
   58.0608   32.2077   44.5508 H   0  0  0  0  0  0  0  0  0  0  0  0
   58.5337   31.2036   43.1385 H   0  0  0  0  0  0  0  0  0  0  0  0
   56.9596   32.0688   43.1385 H   0  0  0  0  0  0  0  0  0  0  0  0
   56.7317   27.2212   47.0749 H   0  0  0  0  0  0  0  0  0  0  0  0
   55.8896   26.4612   45.6820 H   0  0  0  0  0  0  0  0  0  0  0  0
   57.6806   26.5996   45.6820 H   0  0  0  0  0  0  0  0  0  0  0  0
   59.3532   28.0347   45.3877 H   0  0  0  0  0  0  0  0  0  0  0  0
   59.6950   29.4917   44.3934 H   0  0  0  0  0  0  0  0  0  0  0  0
   61.3590   30.6790   45.6610 H   0  0  0  0  0  0  0  0  0  0  0  0
   60.4254   31.8519   48.2142 H   0  0  0  0  0  0  0  0  0  0  0  0
   61.5546   32.5806   47.0229 H   0  0  0  0  0  0  0  0  0  0  0  0
   57.9585   31.9935   47.8669 H   0  0  0  0  0  0  0  0  0  0  0  0
   56.0839   33.2821   46.8429 H   0  0  0  0  0  0  0  0  0  0  0  0
   58.8697   35.2214   44.1630 H   0  0  0  0  0  0  0  0  0  0  0  0
   60.7504   33.9344   45.1796 H   0  0  0  0  0  0  0  0  0  0  0  0
  1  2  1  0
  2  3  2  0
  3  4  1  0
  4  5  1  0
  5  6  1  0
  5  7  2  0
  7  8  1  0
  8  9  1  0
  9 10  2  0
  9 11  1  0
 11 12  1  0
 12 13  1  0
 13 14  2  0
 14 15  1  0
 15 16  2  0
 16 17  1  0
 16 18  1  0
 18 19  2  0
  7  2  1  0
 19 13  1  0
  1 20  1  0
  1 21  1  0
  1 22  1  0
  6 23  1  0
  6 24  1  0
  6 25  1  0
  8 26  1  0
  8 27  1  0
 11 28  1  0
 12 29  1  0
 12 30  1  0
 14 31  1  0
 15 32  1  0
 18 33  1  0
 19 34  1  0
M  END
>  <UniqueID>  (28) 
21

>  <SMILES>  (28) 
Cc1noc(C)c1CC(=O)NCc1ccc(F)cc1

>  <Energy>  (28) 
54.77687852716446

>  <Genealogy>  (28) 
Cc1noc(C)c1CC(=O)NCc1ccc(F)cc1 (3D coordinates assigned)
Cc1noc(C)c1CC(=O)NCc1ccc(F)cc1 (optimized conformer: 54.77687852716446 kcal/mol)

>  <smiles>  (28) 
Cc1noc(C)c1CC(=O)NCc1ccc(F)cc1

>  <score_type>  (28) 
oracle

>  <origin>  (28) 
adg

>  <m_score__min__energy>  (28) 
-6.8099999999999996

>  <m_primary>  (28) 
energy

$$$$
28:0
     RDKit          3D

 30 32  0  0  0  0  0  0  0  0999 V2000
   62.4571   32.2746   48.7050 H   0  0  0  0  0  0  0  0  0  0  0  0
   61.6680   32.2540   47.9390 C   0  0  0  0  0  0  0  0  0  0  0  0
   61.2770   33.3940   47.3670 C   0  0  0  0  0  0  0  0  0  0  0  0
   61.8073   34.3271   47.6078 H   0  0  0  0  0  0  0  0  0  0  0  0
   60.1430   33.4290   46.4140 C   0  0  0  0  0  0  0  0  0  0  0  0
   59.6310   34.6680   46.0020 C   0  0  0  0  0  0  0  0  0  0  0  0
   60.1446   35.5965   46.2919 H   0  0  0  0  0  0  0  0  0  0  0  0
   58.4730   34.7280   45.2260 C   0  0  0  0  0  0  0  0  0  0  0  0
   58.0914   35.7007   44.8822 H   0  0  0  0  0  0  0  0  0  0  0  0
   57.7990   33.5550   44.8860 C   0  0  0  0  0  0  0  0  0  0  0  0
   56.8670   33.6066   44.3040 H   0  0  0  0  0  0  0  0  0  0  0  0
   58.3050   32.3150   45.2830 C   0  0  0  0  0  0  0  0  0  0  0  0
   57.7484   31.3971   45.0428 H   0  0  0  0  0  0  0  0  0  0  0  0
   59.5230   32.2290   45.9890 C   0  0  0  0  0  0  0  0  0  0  0  0
   60.1210   30.9200   46.4110 C   0  0  0  0  0  0  0  0  0  0  0  0
   59.9400   29.7440   45.7670 C   0  0  0  0  0  0  0  0  0  0  0  0
   60.7833   29.3635   45.1720 H   0  0  0  0  0  0  0  0  0  0  0  0
   58.7110   28.9260   45.7920 C   0  0  0  0  0  0  0  0  0  0  0  0
   58.5980   27.8060   46.6350 C   0  0  0  0  0  0  0  0  0  0  0  0
   59.4465   27.5100   47.2694 H   0  0  0  0  0  0  0  0  0  0  0  0
   57.4110   27.0670   46.6700 C   0  0  0  0  0  0  0  0  0  0  0  0
   57.3346   26.1808   47.3171 H   0  0  0  0  0  0  0  0  0  0  0  0
   56.3220   27.4530   45.8840 C   0  0  0  0  0  0  0  0  0  0  0  0
   55.1440   26.7180   45.9190 O   0  0  0  0  0  0  0  0  0  0  0  0
   56.4160   28.5840   45.0670 C   0  0  0  0  0  0  0  0  0  0  0  0
   55.5563   28.8921   44.4538 H   0  0  0  0  0  0  0  0  0  0  0  0
   57.6030   29.3240   45.0290 C   0  0  0  0  0  0  0  0  0  0  0  0
   57.6677   30.2224   44.3976 H   0  0  0  0  0  0  0  0  0  0  0  0
   61.0590   30.9700   47.5600 C   0  0  0  0  0  0  0  0  0  0  0  0
   61.3840   29.9240   48.1850 O   0  0  0  0  0  0  0  0  0  0  0  0
  1  2  1  0
  2  3  2  0
  3  4  1  0
  3  5  1  0
  5  6  2  0
  6  7  1  0
  6  8  1  0
  8  9  1  0
  8 10  2  0
 10 11  1  0
 10 12  1  0
 12 13  1  0
 12 14  2  0
 14 15  1  0
 15 16  2  0
 16 17  1  0
 16 18  1  0
 18 19  2  0
 19 20  1  0
 19 21  1  0
 21 22  1  0
 21 23  2  0
 23 24  1  0
 23 25  1  0
 25 26  1  0
 25 27  2  0
 27 28  1  0
 15 29  1  0
 29 30  2  0
 29  2  1  0
 14  5  1  0
 27 18  1  0
M  CHG  1  24  -1
M  END
>  <UniqueID>  (29) 
22

>  <SMILES>  (29) 
O=C1C=Cc2ccccc2/C1=C\c1ccc([O-])cc1

>  <Energy>  (29) 
48.67745251486629

>  <Genealogy>  (29) 
O=C1C=Cc2ccccc2C1=Cc1ccc([O-])cc1 (protonated)
O=C1C=Cc2ccccc2/C1=C\c1ccc([O-])cc1 (cis-trans isomerization)
O=C1C=Cc2ccccc2/C1=C\c1ccc([O-])cc1 (3D coordinates assigned)
O=C1C=Cc2ccccc2/C1=C\c1ccc([O-])cc1 (nonaromatic ring conformer: 48.67745251486629 kcal/mol)

>  <smiles>  (29) 
O=C1C=Cc2ccccc2C1=Cc1ccc(O)cc1

>  <score_type>  (29) 
oracle

>  <origin>  (29) 
adg

>  <m_score__min__energy>  (29) 
-10.58

>  <m_primary>  (29) 
energy

$$$$
29:0
     RDKit          3D

 36 37  0  0  0  0  0  0  0  0999 V2000
   58.1950   33.6740   47.0920 C   0  0  0  0  0  0  0  0  0  0  0  0
   58.5860   33.9750   45.6490 C   0  0  0  0  0  0  0  0  0  0  0  0
   58.0230   32.9360   44.7170 C   0  0  0  0  0  0  0  0  0  0  0  0
   58.2500   33.0280   43.3350 C   0  0  0  0  0  0  0  0  0  0  0  0
   57.7630   32.0400   42.4760 C   0  0  0  0  0  0  0  0  0  0  0  0
   57.0450   30.9550   42.9860 C   0  0  0  0  0  0  0  0  0  0  0  0
   56.8000   30.8560   44.3680 C   0  0  0  0  0  0  0  0  0  0  0  0
   56.0960   29.7430   44.9380 N   0  0  0  0  0  0  0  0  0  0  0  0
   56.6510   28.4660   45.2850 C   0  0  0  0  0  0  0  0  0  0  0  0
   55.8890   27.5120   45.6020 O   0  0  0  0  0  0  0  0  0  0  0  0
   58.0810   28.2830   45.3000 N   0  0  0  0  0  0  0  0  0  0  0  0
   58.6740   27.1600   44.5680 C   0  0  0  0  0  0  0  0  0  0  0  0
   58.9150   29.1030   46.1430 C   0  0  0  0  0  0  0  0  0  0  0  0
   58.5470   29.3590   47.4760 C   0  0  0  0  0  0  0  0  0  0  0  0
   59.3610   30.1480   48.2930 C   0  0  0  0  0  0  0  0  0  0  0  0
   60.5510   30.6840   47.7920 C   0  0  0  0  0  0  0  0  0  0  0  0
   61.6620   31.7610   48.9110 Br  0  0  0  0  0  0  0  0  0  0  0  0
   60.9270   30.4290   46.4690 C   0  0  0  0  0  0  0  0  0  0  0  0
   60.1150   29.6410   45.6490 C   0  0  0  0  0  0  0  0  0  0  0  0
   57.3130   31.8370   45.2270 C   0  0  0  0  0  0  0  0  0  0  0  0
   58.8786   34.2002   47.7745 H   0  0  0  0  0  0  0  0  0  0  0  0
   57.1643   34.0140   47.2712 H   0  0  0  0  0  0  0  0  0  0  0  0
   58.2601   32.5906   47.2712 H   0  0  0  0  0  0  0  0  0  0  0  0
   58.1936   34.9633   45.3673 H   0  0  0  0  0  0  0  0  0  0  0  0
   59.6831   33.9631   45.5703 H   0  0  0  0  0  0  0  0  0  0  0  0
   58.8130   33.8805   42.9272 H   0  0  0  0  0  0  0  0  0  0  0  0
   57.9454   32.1163   41.3939 H   0  0  0  0  0  0  0  0  0  0  0  0
   56.6704   30.1763   42.3053 H   0  0  0  0  0  0  0  0  0  0  0  0
   59.0642   26.4211   45.2834 H   0  0  0  0  0  0  0  0  0  0  0  0
   57.9072   26.6887   43.9356 H   0  0  0  0  0  0  0  0  0  0  0  0
   59.4956   27.5275   43.9356 H   0  0  0  0  0  0  0  0  0  0  0  0
   57.6142   28.9362   47.8773 H   0  0  0  0  0  0  0  0  0  0  0  0
   59.0646   30.3479   49.3333 H   0  0  0  0  0  0  0  0  0  0  0  0
   61.8634   30.8495   46.0735 H   0  0  0  0  0  0  0  0  0  0  0  0
   60.4173   29.4408   44.6105 H   0  0  0  0  0  0  0  0  0  0  0  0
   57.1579   31.7453   46.3122 H   0  0  0  0  0  0  0  0  0  0  0  0
  1  2  1  0
  2  3  1  0
  3  4  2  0
  4  5  1  0
  5  6  2  0
  6  7  1  0
  7  8  1  0
  8  9  1  0
  9 10  2  0
  9 11  1  0
 11 12  1  0
 11 13  1  0
 13 14  2  0
 14 15  1  0
 15 16  2  0
 16 17  1  0
 16 18  1  0
 18 19  2  0
  7 20  2  0
 20  3  1  0
 19 13  1  0
  1 21  1  0
  1 22  1  0
  1 23  1  0
  2 24  1  0
  2 25  1  0
  4 26  1  0
  5 27  1  0
  6 28  1  0
 12 29  1  0
 12 30  1  0
 12 31  1  0
 14 32  1  0
 15 33  1  0
 18 34  1  0
 19 35  1  0
 20 36  1  0
M  CHG  1   8  -1
M  END
>  <UniqueID>  (30) 
23

>  <SMILES>  (30) 
CCc1cccc([N-]C(=O)N(C)c2ccc(Br)cc2)c1

>  <Energy>  (30) 
41.144348690629585

>  <Genealogy>  (30) 
CCc1cccc([N-]C(=O)N(C)c2ccc(Br)cc2)c1 (protonated)
CCc1cccc([N-]C(=O)N(C)c2ccc(Br)cc2)c1 (3D coordinates assigned)
CCc1cccc([N-]C(=O)N(C)c2ccc(Br)cc2)c1 (optimized conformer: 41.144348690629585 kcal/mol)

>  <smiles>  (30) 
CCc1cccc(NC(=O)N(C)c2ccc(Br)cc2)c1

>  <score_type>  (30) 
oracle

>  <origin>  (30) 
adg

>  <m_score__min__energy>  (30) 
-8.7300000000000004

>  <m_primary>  (30) 
energy

$$$$
30:0
     RDKit          3D

 26 27  0  0  0  0  0  0  0  0999 V2000
   53.8710   25.1480   45.6190 O   0  0  0  0  0  0  0  0  0  0  0  0
   55.1180   25.3230   45.6430 C   0  0  0  0  0  0  0  0  0  0  0  0
   55.6280   26.5390   46.2090 N   0  0  0  0  0  0  0  0  0  0  0  0
   56.8060   27.2420   45.7880 C   0  0  0  0  0  0  0  0  0  0  0  0
   58.0940   26.7130   45.9970 C   0  0  0  0  0  0  0  0  0  0  0  0
   59.2220   27.4150   45.5600 C   0  0  0  0  0  0  0  0  0  0  0  0
   59.0740   28.6380   44.9000 C   0  0  0  0  0  0  0  0  0  0  0  0
   60.1680   29.3160   44.4760 F   0  0  0  0  0  0  0  0  0  0  0  0
   57.7970   29.1570   44.6680 C   0  0  0  0  0  0  0  0  0  0  0  0
   56.6650   28.4580   45.1040 C   0  0  0  0  0  0  0  0  0  0  0  0
   55.4320   28.9710   44.8720 F   0  0  0  0  0  0  0  0  0  0  0  0
   56.0130   24.2540   45.1420 C   0  0  0  0  0  0  0  0  0  0  0  0
   57.1400   23.8490   45.8720 C   0  0  0  0  0  0  0  0  0  0  0  0
   57.9630   22.8360   45.3820 C   0  0  0  0  0  0  0  0  0  0  0  0
   57.6490   22.2250   44.1680 C   0  0  0  0  0  0  0  0  0  0  0  0
   56.5460   22.6090   43.4680 N   0  0  0  0  0  0  0  0  0  0  0  0
   56.2640   21.9790   42.2740 O   0  0  0  0  0  0  0  0  0  0  0  0
   55.7280   23.5990   43.9320 C   0  0  0  0  0  0  0  0  0  0  0  0
   58.2134   25.7449   46.5054 H   0  0  0  0  0  0  0  0  0  0  0  0
   60.2270   27.0040   45.7360 H   0  0  0  0  0  0  0  0  0  0  0  0
   57.6813   30.1161   44.1420 H   0  0  0  0  0  0  0  0  0  0  0  0
   57.3748   24.3312   46.8324 H   0  0  0  0  0  0  0  0  0  0  0  0
   58.8523   22.5213   45.9478 H   0  0  0  0  0  0  0  0  0  0  0  0
   58.2965   21.4280   43.7737 H   0  0  0  0  0  0  0  0  0  0  0  0
   56.7310   22.2410   41.4140 H   0  0  0  0  0  0  0  0  0  0  0  0
   54.8378   23.8864   43.3533 H   0  0  0  0  0  0  0  0  0  0  0  0
  1  2  2  0
  2  3  1  0
  3  4  1  0
  4  5  2  0
  5  6  1  0
  6  7  2  0
  7  8  1  0
  7  9  1  0
  9 10  2  0
 10 11  1  0
  2 12  1  0
 12 13  2  0
 13 14  1  0
 14 15  2  0
 15 16  1  0
 16 17  1  0
 16 18  2  0
 10  4  1  0
 18 12  1  0
  5 19  1  0
  6 20  1  0
  9 21  1  0
 13 22  1  0
 14 23  1  0
 15 24  1  0
 17 25  1  0
 18 26  1  0
M  CHG  2   3  -1  16   1
M  END
>  <UniqueID>  (31) 
24

>  <SMILES>  (31) 
O=C([N-]c1ccc(F)cc1F)c1ccc[n+](O)c1

>  <Energy>  (31) 
33.94457622667892

>  <Genealogy>  (31) 
O=C([N-]c1ccc(F)cc1F)c1ccc[n+](O)c1 (protonated)
O=C([N-]c1ccc(F)cc1F)c1ccc[n+](O)c1 (3D coordinates assigned)
O=C([N-]c1ccc(F)cc1F)c1ccc[n+](O)c1 (optimized conformer: 33.94457622667892 kcal/mol)

>  <smiles>  (31) 
O=C(Nc1ccc(F)cc1F)c1ccc[n+]([O-])c1

>  <score_type>  (31) 
oracle

>  <origin>  (31) 
adg

>  <m_score__min__energy>  (31) 
-7.0499999999999998

>  <m_primary>  (31) 
energy

$$$$
31:0
     RDKit          3D

 30 31  0  0  0  0  0  0  0  0999 V2000
   62.5880   33.7970   46.3670 C   0  0  0  0  0  0  0  0  0  0  0  0
   62.1500   33.7880   47.8120 C   0  0  0  0  0  0  0  0  0  0  0  0
   63.0550   34.2160   48.7940 C   0  0  0  0  0  0  0  0  0  0  0  0
   62.6750   34.2160   50.1330 C   0  0  0  0  0  0  0  0  0  0  0  0
   63.4830   34.6010   51.0200 O   0  0  0  0  0  0  0  0  0  0  0  0
   61.3980   33.7920   50.4900 C   0  0  0  0  0  0  0  0  0  0  0  0
   60.5020   33.3660   49.4980 C   0  0  0  0  0  0  0  0  0  0  0  0
   59.1230   32.9100   49.9110 C   0  0  0  0  0  0  0  0  0  0  0  0
   60.8890   33.3690   48.1750 N   0  0  0  0  0  0  0  0  0  0  0  0
   59.9650   32.9310   47.1620 C   0  0  0  0  0  0  0  0  0  0  0  0
   59.1290   33.8550   46.5230 C   0  0  0  0  0  0  0  0  0  0  0  0
   58.2320   33.4300   45.5400 C   0  0  0  0  0  0  0  0  0  0  0  0
   58.1580   32.0710   45.1800 C   0  0  0  0  0  0  0  0  0  0  0  0
   57.2350   31.6280   44.1680 N   0  0  0  0  0  0  0  0  0  0  0  0
   57.4040   31.9400   42.9710 O   0  0  0  0  0  0  0  0  0  0  0  0
   56.1500   30.8510   44.5030 O   0  0  0  0  0  0  0  0  0  0  0  0
   59.0010   31.1490   45.8260 C   0  0  0  0  0  0  0  0  0  0  0  0
   59.8980   31.5770   46.8090 C   0  0  0  0  0  0  0  0  0  0  0  0
   63.6866   33.8196   46.3170 H   0  0  0  0  0  0  0  0  0  0  0  0
   62.2167   32.8910   45.8657 H   0  0  0  0  0  0  0  0  0  0  0  0
   62.1798   34.6869   45.8657 H   0  0  0  0  0  0  0  0  0  0  0  0
   64.0627   34.5509   48.5068 H   0  0  0  0  0  0  0  0  0  0  0  0
   61.0924   33.7910   51.5467 H   0  0  0  0  0  0  0  0  0  0  0  0
   59.0575   32.8883   51.0088 H   0  0  0  0  0  0  0  0  0  0  0  0
   58.3715   33.6075   49.5125 H   0  0  0  0  0  0  0  0  0  0  0  0
   58.9355   31.9020   49.5125 H   0  0  0  0  0  0  0  0  0  0  0  0
   59.1788   34.9194   46.7961 H   0  0  0  0  0  0  0  0  0  0  0  0
   57.5787   34.1626   45.0436 H   0  0  0  0  0  0  0  0  0  0  0  0
   58.9542   30.0837   45.5559 H   0  0  0  0  0  0  0  0  0  0  0  0
   60.5538   30.8478   47.3072 H   0  0  0  0  0  0  0  0  0  0  0  0
  1  2  1  0
  2  3  2  0
  3  4  1  0
  4  5  2  0
  4  6  1  0
  6  7  2  0
  7  8  1  0
  7  9  1  0
  9 10  1  0
 10 11  2  0
 11 12  1  0
 12 13  2  0
 13 14  1  0
 14 15  2  0
 14 16  1  0
 13 17  1  0
 17 18  2  0
  9  2  1  0
 18 10  1  0
  1 19  1  0
  1 20  1  0
  1 21  1  0
  3 22  1  0
  6 23  1  0
  8 24  1  0
  8 25  1  0
  8 26  1  0
 11 27  1  0
 12 28  1  0
 17 29  1  0
 18 30  1  0
M  CHG  2  14   1  16  -1
M  END
>  <UniqueID>  (32) 
25

>  <SMILES>  (32) 
Cc1cc(=O)cc(C)n1-c1ccc([N+](=O)[O-])cc1

>  <Energy>  (32) 
42.07331705341343

>  <Genealogy>  (32) 
Cc1cc(=O)cc(C)n1-c1ccc([N+](=O)[O-])cc1 (3D coordinates assigned)
Cc1cc(=O)cc(C)n1-c1ccc([N+](=O)[O-])cc1 (optimized conformer: 42.07331705341343 kcal/mol)

>  <smiles>  (32) 
Cc1cc(=O)cc(C)n1-c1ccc([N+](=O)[O-])cc1

>  <score_type>  (32) 
oracle

>  <origin>  (32) 
adg

>  <m_score__min__energy>  (32) 
-6.1799999999999997

>  <m_primary>  (32) 
energy

$$$$
32:0
     RDKit          3D

 28 29  0  0  0  0  0  0  0  0999 V2000
   60.5180   34.5950   48.5480 C   0  0  0  0  0  0  0  0  0  0  0  0
   59.7060   34.8780   47.4130 O   0  0  0  0  0  0  0  0  0  0  0  0
   58.9460   33.9210   46.7240 C   0  0  0  0  0  0  0  0  0  0  0  0
   58.1930   34.3370   45.6210 C   0  0  0  0  0  0  0  0  0  0  0  0
   57.4210   33.4210   44.9010 C   0  0  0  0  0  0  0  0  0  0  0  0
   57.4050   32.0680   45.2620 C   0  0  0  0  0  0  0  0  0  0  0  0
   56.5830   31.1650   44.5090 N   0  0  0  0  0  0  0  0  0  0  0  0
   56.3400   29.7820   44.8010 C   0  0  0  0  0  0  0  0  0  0  0  0
   55.1580   29.3460   44.8610 O   0  0  0  0  0  0  0  0  0  0  0  0
   57.4760   28.8750   45.0860 C   0  0  0  0  0  0  0  0  0  0  0  0
   58.7320   29.0870   44.4920 C   0  0  0  0  0  0  0  0  0  0  0  0
   59.7950   28.2260   44.7700 C   0  0  0  0  0  0  0  0  0  0  0  0
   59.5970   27.1550   45.6410 C   0  0  0  0  0  0  0  0  0  0  0  0
   58.3800   26.9580   46.2100 N   0  0  0  0  0  0  0  0  0  0  0  0
   57.3280   27.7810   45.9570 C   0  0  0  0  0  0  0  0  0  0  0  0
   58.1420   31.6490   46.3830 C   0  0  0  0  0  0  0  0  0  0  0  0
   58.9130   32.5660   47.1050 C   0  0  0  0  0  0  0  0  0  0  0  0
   59.9465   34.7942   49.4665 H   0  0  0  0  0  0  0  0  0  0  0  0
   60.8218   33.5380   48.5271 H   0  0  0  0  0  0  0  0  0  0  0  0
   61.4130   35.2342   48.5271 H   0  0  0  0  0  0  0  0  0  0  0  0
   58.2086   35.3942   45.3176 H   0  0  0  0  0  0  0  0  0  0  0  0
   56.8219   33.7651   44.0450 H   0  0  0  0  0  0  0  0  0  0  0  0
   58.8778   29.9342   43.8057 H   0  0  0  0  0  0  0  0  0  0  0  0
   60.7790   28.3906   44.3067 H   0  0  0  0  0  0  0  0  0  0  0  0
   60.4271   26.4696   45.8671 H   0  0  0  0  0  0  0  0  0  0  0  0
   56.3563   27.5902   46.4359 H   0  0  0  0  0  0  0  0  0  0  0  0
   58.1123   30.5944   46.6942 H   0  0  0  0  0  0  0  0  0  0  0  0
   59.4960   32.2271   47.9741 H   0  0  0  0  0  0  0  0  0  0  0  0
  1  2  1  0
  2  3  1  0
  3  4  2  0
  4  5  1  0
  5  6  2  0
  6  7  1  0
  7  8  1  0
  8  9  2  0
  8 10  1  0
 10 11  2  0
 11 12  1  0
 12 13  2  0
 13 14  1  0
 14 15  2  0
  6 16  1  0
 16 17  2  0
 17  3  1  0
 15 10  1  0
  1 18  1  0
  1 19  1  0
  1 20  1  0
  4 21  1  0
  5 22  1  0
 11 23  1  0
 12 24  1  0
 13 25  1  0
 15 26  1  0
 16 27  1  0
 17 28  1  0
M  CHG  1   7  -1
M  END
>  <UniqueID>  (33) 
26

>  <SMILES>  (33) 
COc1ccc([N-]C(=O)c2cccnc2)cc1

>  <Energy>  (33) 
33.20846042940296

>  <Genealogy>  (33) 
COc1ccc([N-]C(=O)c2cccnc2)cc1 (protonated)
COc1ccc([N-]C(=O)c2cccnc2)cc1 (3D coordinates assigned)
COc1ccc([N-]C(=O)c2cccnc2)cc1 (optimized conformer: 33.20846042940296 kcal/mol)

>  <smiles>  (33) 
COc1ccc(NC(=O)c2cccnc2)cc1

>  <score_type>  (33) 
oracle

>  <origin>  (33) 
adg

>  <m_score__min__energy>  (33) 
-7.4500000000000002

>  <m_primary>  (33) 
energy

$$$$
33:0
     RDKit          3D

 39 42  0  0  0  0  0  0  0  0999 V2000
   60.0580   34.2430   47.8750 C   0  0  0  0  0  0  0  0  0  0  0  0
   58.9360   33.4690   48.1100 C   0  0  0  0  0  0  0  0  0  0  0  0
   57.9960   33.3340   47.1200 C   0  0  0  0  0  0  0  0  0  0  0  0
   58.1710   33.9650   45.9060 C   0  0  0  0  0  0  0  0  0  0  0  0
   57.0870   33.7590   44.8810 C   0  0  0  0  0  0  0  0  0  0  0  0
   57.5590   32.7810   43.9830 O   0  0  0  0  0  0  0  0  0  0  0  0
   57.4000   31.4420   44.2990 C   0  0  0  0  0  0  0  0  0  0  0  0
   58.5000   30.7970   44.8390 C   0  0  0  0  0  0  0  0  0  0  0  0
   58.4270   29.4630   45.1810 C   0  0  0  0  0  0  0  0  0  0  0  0
   57.2820   28.7100   45.0100 C   0  0  0  0  0  0  0  0  0  0  0  0
   57.2110   27.2990   45.3750 C   0  0  0  0  0  0  0  0  0  0  0  0
   57.8680   26.3310   44.7170 N   0  0  0  0  0  0  0  0  0  0  0  0
   57.6200   25.1320   45.2690 C   0  0  0  0  0  0  0  0  0  0  0  0
   58.0520   23.8710   44.9590 C   0  0  0  0  0  0  0  0  0  0  0  0
   57.5820   22.8350   45.7640 C   0  0  0  0  0  0  0  0  0  0  0  0
   56.7260   23.0780   46.8180 C   0  0  0  0  0  0  0  0  0  0  0  0
   56.2940   24.3700   47.1230 C   0  0  0  0  0  0  0  0  0  0  0  0
   56.7650   25.3800   46.3200 C   0  0  0  0  0  0  0  0  0  0  0  0
   56.5230   26.7080   46.3740 N   0  0  0  0  0  0  0  0  0  0  0  0
   56.1900   29.3710   44.4680 C   0  0  0  0  0  0  0  0  0  0  0  0
   56.2590   30.7250   44.1190 C   0  0  0  0  0  0  0  0  0  0  0  0
   59.2750   34.7390   45.6450 C   0  0  0  0  0  0  0  0  0  0  0  0
   60.2170   34.8720   46.6400 C   0  0  0  0  0  0  0  0  0  0  0  0
   60.8212   34.3620   48.6581 H   0  0  0  0  0  0  0  0  0  0  0  0
   58.7990   32.9676   49.0794 H   0  0  0  0  0  0  0  0  0  0  0  0
   57.0998   32.7206   47.2949 H   0  0  0  0  0  0  0  0  0  0  0  0
   56.1646   33.4116   45.3694 H   0  0  0  0  0  0  0  0  0  0  0  0
   56.8545   34.6978   44.3570 H   0  0  0  0  0  0  0  0  0  0  0  0
   59.4369   31.3516   44.9960 H   0  0  0  0  0  0  0  0  0  0  0  0
   59.3177   28.9786   45.6077 H   0  0  0  0  0  0  0  0  0  0  0  0
   58.7353   23.6846   44.1174 H   0  0  0  0  0  0  0  0  0  0  0  0
   57.9000   21.8030   45.5547 H   0  0  0  0  0  0  0  0  0  0  0  0
   56.3760   22.2350   47.4319 H   0  0  0  0  0  0  0  0  0  0  0  0
   55.6119   24.5689   47.9627 H   0  0  0  0  0  0  0  0  0  0  0  0
   55.9220   27.2220   47.0480 H   0  0  0  0  0  0  0  0  0  0  0  0
   55.2510   28.8205   44.3092 H   0  0  0  0  0  0  0  0  0  0  0  0
   55.3736   31.2179   43.6912 H   0  0  0  0  0  0  0  0  0  0  0  0
   59.4025   35.2366   44.6723 H   0  0  0  0  0  0  0  0  0  0  0  0
   61.1116   35.4856   46.4579 H   0  0  0  0  0  0  0  0  0  0  0  0
  1  2  2  0
  2  3  1  0
  3  4  2  0
  4  5  1  0
  5  6  1  0
  6  7  1  0
  7  8  2  0
  8  9  1  0
  9 10  2  0
 10 11  1  0
 11 12  2  0
 12 13  1  0
 13 14  2  0
 14 15  1  0
 15 16  2  0
 16 17  1  0
 17 18  2  0
 18 19  1  0
 10 20  1  0
 20 21  2  0
  4 22  1  0
 22 23  2  0
 23  1  1  0
 21  7  1  0
 19 11  1  0
 18 13  1  0
  1 24  1  0
  2 25  1  0
  3 26  1  0
  5 27  1  0
  5 28  1  0
  8 29  1  0
  9 30  1  0
 14 31  1  0
 15 32  1  0
 16 33  1  0
 17 34  1  0
 19 35  1  0
 20 36  1  0
 21 37  1  0
 22 38  1  0
 23 39  1  0
M  END
>  <smiles>  (34) 
c1ccc(COc2ccc(-c3nc4ccccc4[nH]3)cc2)cc1

>  <score_type>  (34) 
oracle

>  <origin>  (34) 
adg

>  <m_score__min__energy>  (34) 
-7.5099999999999998

>  <m_primary>  (34) 
energy

$$$$
34:0
     RDKit          3D

 44 45  0  0  0  0  0  0  0  0999 V2000
   57.1880   34.1440   44.8960 C   0  0  0  0  0  0  0  0  0  0  0  0
   58.6960   34.2930   45.0620 C   0  0  0  0  0  0  0  0  0  0  0  0
   59.0690   34.1210   46.4300 O   0  0  0  0  0  0  0  0  0  0  0  0
   58.7740   32.9720   47.1730 C   0  0  0  0  0  0  0  0  0  0  0  0
   58.4620   33.0560   48.3910 O   0  0  0  0  0  0  0  0  0  0  0  0
   58.8250   31.6580   46.5240 C   0  0  0  0  0  0  0  0  0  0  0  0
   59.9280   30.8250   46.4650 C   0  0  0  0  0  0  0  0  0  0  0  0
   59.5000   29.7540   45.7070 C   0  0  0  0  0  0  0  0  0  0  0  0
   60.3520   28.6000   45.2740 C   0  0  0  0  0  0  0  0  0  0  0  0
   58.2150   29.9600   45.3430 N   0  0  0  0  0  0  0  0  0  0  0  0
   57.4300   29.1800   44.3870 C   0  0  0  0  0  0  0  0  0  0  0  0
   56.1030   28.8640   44.9960 C   0  0  0  0  0  0  0  0  0  0  0  0
   55.1450   29.6730   44.8810 O   0  0  0  0  0  0  0  0  0  0  0  0
   55.9080   27.5900   45.6210 N   0  0  0  0  0  0  0  0  0  0  0  0
   57.0120   26.7440   46.0550 C   0  0  0  0  0  0  0  0  0  0  0  0
   56.9140   25.3970   45.3820 C   0  0  0  0  0  0  0  0  0  0  0  0
   57.4110   25.2530   44.0750 C   0  0  0  0  0  0  0  0  0  0  0  0
   57.2790   24.0410   43.3950 C   0  0  0  0  0  0  0  0  0  0  0  0
   56.6510   22.9590   44.0130 C   0  0  0  0  0  0  0  0  0  0  0  0
   56.1500   23.0850   45.3100 C   0  0  0  0  0  0  0  0  0  0  0  0
   56.2720   24.3040   46.0070 C   0  0  0  0  0  0  0  0  0  0  0  0
   55.7690   24.4610   47.3100 O   0  0  0  0  0  0  0  0  0  0  0  0
   55.4670   23.3850   48.1970 C   0  0  0  0  0  0  0  0  0  0  0  0
   57.8030   31.1210   45.8290 N   0  0  0  0  0  0  0  0  0  0  0  0
   56.7129   34.0971   45.8870 H   0  0  0  0  0  0  0  0  0  0  0  0
   56.7932   35.0075   44.3406 H   0  0  0  0  0  0  0  0  0  0  0  0
   56.9698   33.2199   44.3406 H   0  0  0  0  0  0  0  0  0  0  0  0
   59.2042   33.5332   44.4501 H   0  0  0  0  0  0  0  0  0  0  0  0
   58.9913   35.3016   44.7373 H   0  0  0  0  0  0  0  0  0  0  0  0
   60.9183   30.9805   46.9180 H   0  0  0  0  0  0  0  0  0  0  0  0
   60.7385   28.0765   46.1609 H   0  0  0  0  0  0  0  0  0  0  0  0
   59.7489   27.9047   44.6716 H   0  0  0  0  0  0  0  0  0  0  0  0
   61.1940   28.9716   44.6716 H   0  0  0  0  0  0  0  0  0  0  0  0
   57.2843   29.7631   43.4657 H   0  0  0  0  0  0  0  0  0  0  0  0
   57.9597   28.2476   44.1420 H   0  0  0  0  0  0  0  0  0  0  0  0
   57.9660   27.2198   45.7840 H   0  0  0  0  0  0  0  0  0  0  0  0
   56.9628   26.6112   47.1458 H   0  0  0  0  0  0  0  0  0  0  0  0
   57.9081   26.1025   43.5839 H   0  0  0  0  0  0  0  0  0  0  0  0
   57.6701   23.9389   42.3719 H   0  0  0  0  0  0  0  0  0  0  0  0
   56.5504   22.0039   43.4767 H   0  0  0  0  0  0  0  0  0  0  0  0
   55.6569   22.2274   45.7911 H   0  0  0  0  0  0  0  0  0  0  0  0
   55.5636   23.7292   49.2373 H   0  0  0  0  0  0  0  0  0  0  0  0
   54.4375   23.0408   48.0188 H   0  0  0  0  0  0  0  0  0  0  0  0
   56.1670   22.5554   48.0188 H   0  0  0  0  0  0  0  0  0  0  0  0
  1  2  1  0
  2  3  1  0
  3  4  1  0
  4  5  2  0
  4  6  1  0
  6  7  1  0
  7  8  2  0
  8  9  1  0
  8 10  1  0
 10 11  1  0
 11 12  1  0
 12 13  2  0
 12 14  1  0
 14 15  1  0
 15 16  1  0
 16 17  2  0
 17 18  1  0
 18 19  2  0
 19 20  1  0
 20 21  2  0
 21 22  1  0
 22 23  1  0
 10 24  1  0
 24  6  2  0
 21 16  1  0
  1 25  1  0
  1 26  1  0
  1 27  1  0
  2 28  1  0
  2 29  1  0
  7 30  1  0
  9 31  1  0
  9 32  1  0
  9 33  1  0
 11 34  1  0
 11 35  1  0
 15 36  1  0
 15 37  1  0
 17 38  1  0
 18 39  1  0
 19 40  1  0
 20 41  1  0
 23 42  1  0
 23 43  1  0
 23 44  1  0
M  CHG  1  14  -1
M  END
>  <UniqueID>  (35) 
27

>  <SMILES>  (35) 
CCOC(=O)c1cc(C)n(CC(=O)[N-]Cc2ccccc2OC)n1

>  <Energy>  (35) 
60.549456445191844

>  <Genealogy>  (35) 
CCOC(=O)c1cc(C)n(CC(=O)[N-]Cc2ccccc2OC)n1 (protonated)
CCOC(=O)c1cc(C)n(CC(=O)[N-]Cc2ccccc2OC)n1 (3D coordinates assigned)
CCOC(=O)c1cc(C)n(CC(=O)[N-]Cc2ccccc2OC)n1 (optimized conformer: 60.549456445191844 kcal/mol)

>  <smiles>  (35) 
CCOC(=O)c1cc(C)n(CC(=O)NCc2ccccc2OC)n1

>  <score_type>  (35) 
oracle

>  <origin>  (35) 
adg

>  <m_score__min__energy>  (35) 
-9.0299999999999994

>  <m_primary>  (35) 
energy

$$$$
35:0
     RDKit          3D

 38 40  0  0  0  0  0  0  0  0999 V2000
   63.9900   33.1450   48.8790 C   0  0  0  0  0  0  0  0  0  0  0  0
   62.6920   33.6480   49.1780 O   0  0  0  0  0  0  0  0  0  0  0  0
   61.6280   33.6870   48.2650 C   0  0  0  0  0  0  0  0  0  0  0  0
   60.3230   33.5700   48.7580 C   0  0  0  0  0  0  0  0  0  0  0  0
   59.2290   33.6010   47.8880 C   0  0  0  0  0  0  0  0  0  0  0  0
   59.4310   33.7460   46.5100 C   0  0  0  0  0  0  0  0  0  0  0  0
   58.0570   33.7710   45.4090 S   0  0  0  0  0  0  0  0  0  0  0  0
   56.7640   33.7910   46.1760 O   0  0  0  0  0  0  0  0  0  0  0  0
   58.1400   35.0040   44.5550 O   0  0  0  0  0  0  0  0  0  0  0  0
   58.0850   32.3710   44.3860 N   0  0  0  0  0  0  0  0  0  0  0  0
   57.7880   31.0330   44.8080 C   0  0  0  0  0  0  0  0  0  0  0  0
   56.6240   30.3460   44.3720 C   0  0  0  0  0  0  0  0  0  0  0  0
   56.3570   29.0370   44.8100 C   0  0  0  0  0  0  0  0  0  0  0  0
   57.2670   28.4430   45.6810 C   0  0  0  0  0  0  0  0  0  0  0  0
   57.2800   27.1950   46.2700 C   0  0  0  0  0  0  0  0  0  0  0  0
   56.3050   26.1510   46.1180 C   0  0  0  0  0  0  0  0  0  0  0  0
   55.5190   25.3100   45.9950 N   0  0  0  0  0  0  0  0  0  0  0  0
   58.4340   27.1410   47.0400 C   0  0  0  0  0  0  0  0  0  0  0  0
   59.1110   28.3110   46.9390 N   0  0  0  0  0  0  0  0  0  0  0  0
   60.3780   28.6360   47.5850 C   0  0  0  0  0  0  0  0  0  0  0  0
   58.3950   29.0960   46.1070 C   0  0  0  0  0  0  0  0  0  0  0  0
   58.6870   30.3950   45.6860 C   0  0  0  0  0  0  0  0  0  0  0  0
   60.7330   33.8690   46.0100 C   0  0  0  0  0  0  0  0  0  0  0  0
   61.8270   33.8390   46.8790 C   0  0  0  0  0  0  0  0  0  0  0  0
   64.5273   32.9368   49.8160 H   0  0  0  0  0  0  0  0  0  0  0  0
   63.8982   32.2173   48.2950 H   0  0  0  0  0  0  0  0  0  0  0  0
   64.5473   33.8923   48.2950 H   0  0  0  0  0  0  0  0  0  0  0  0
   60.1569   33.4527   49.8390 H   0  0  0  0  0  0  0  0  0  0  0  0
   58.2077   33.5113   48.2867 H   0  0  0  0  0  0  0  0  0  0  0  0
   55.9240   30.8433   43.6844 H   0  0  0  0  0  0  0  0  0  0  0  0
   55.4578   28.4990   44.4753 H   0  0  0  0  0  0  0  0  0  0  0  0
   58.7517   26.2772   47.6425 H   0  0  0  0  0  0  0  0  0  0  0  0
   60.2516   28.6036   48.6772 H   0  0  0  0  0  0  0  0  0  0  0  0
   61.1420   27.9048   47.2824 H   0  0  0  0  0  0  0  0  0  0  0  0
   60.6957   29.6447   47.2824 H   0  0  0  0  0  0  0  0  0  0  0  0
   59.5968   30.9079   46.0313 H   0  0  0  0  0  0  0  0  0  0  0  0
   60.8954   33.9897   44.9288 H   0  0  0  0  0  0  0  0  0  0  0  0
   62.8473   33.9344   46.4791 H   0  0  0  0  0  0  0  0  0  0  0  0
  1  2  1  0
  2  3  1  0
  3  4  2  0
  4  5  1  0
  5  6  2  0
  6  7  1  0
  7  8  2  0
  7  9  2  0
  7 10  1  0
 10 11  1  0
 11 12  2  0
 12 13  1  0
 13 14  2  0
 14 15  1  0
 15 16  1  0
 16 17  3  0
 15 18  2  0
 18 19  1  0
 19 20  1  0
 19 21  1  0
 21 22  2  0
  6 23  1  0
 23 24  2  0
 24  3  1  0
 22 11  1  0
 21 14  1  0
  1 25  1  0
  1 26  1  0
  1 27  1  0
  4 28  1  0
  5 29  1  0
 12 30  1  0
 13 31  1  0
 18 32  1  0
 20 33  1  0
 20 34  1  0
 20 35  1  0
 22 36  1  0
 23 37  1  0
 24 38  1  0
M  CHG  1  10  -1
M  END
>  <UniqueID>  (36) 
28

>  <SMILES>  (36) 
COc1ccc(S(=O)(=O)[N-]c2ccc3c(C#N)cn(C)c3c2)cc1

>  <Energy>  (36) 
75.60437771258448

>  <Genealogy>  (36) 
COc1ccc(S(=O)(=O)[N-]c2ccc3c(C#N)cn(C)c3c2)cc1 (protonated)
COc1ccc(S(=O)(=O)[N-]c2ccc3c(C#N)cn(C)c3c2)cc1 (3D coordinates assigned)
COc1ccc(S(=O)(=O)[N-]c2ccc3c(C#N)cn(C)c3c2)cc1 (optimized conformer: 75.60437771258448 kcal/mol)

>  <smiles>  (36) 
COc1ccc(S(=O)(=O)Nc2ccc3c(C#N)cn(C)c3c2)cc1

>  <score_type>  (36) 
oracle

>  <origin>  (36) 
adg

>  <m_score__min__energy>  (36) 
-8.6400000000000006

>  <m_primary>  (36) 
energy

$$$$
36:0
     RDKit          3D

 52 55  0  0  0  0  0  0  0  0999 V2000
   61.5980   28.4340   44.4940 H   0  0  0  0  0  0  0  0  0  0  0  0
   60.7560   28.9650   44.6800 O   0  0  0  0  0  0  0  0  0  0  0  0
   60.2070   29.0350   45.9590 C   0  0  0  0  0  0  0  0  0  0  0  0
   59.0990   28.2510   46.3060 C   0  0  0  0  0  0  0  0  0  0  0  0
   58.6563   27.5693   45.5649 H   0  0  0  0  0  0  0  0  0  0  0  0
   53.6860   29.5920   52.0500 C   0  0  0  0  0  0  0  0  0  0  0  0
   54.3400   28.7676   52.3704 H   0  0  0  0  0  0  0  0  0  0  0  0
   54.1370   30.9230   52.1420 C   0  0  0  0  0  0  0  0  0  0  0  0
   55.4550   31.2500   52.6150 N   0  0  0  0  0  0  0  0  0  0  0  0
   56.5380   31.3450   51.9010 C   0  0  0  0  0  0  0  0  0  0  0  0
   57.1920   32.5290   51.7620 N   0  0  0  0  0  0  0  0  0  0  0  0
   58.3070   32.6140   50.9960 C   0  0  0  0  0  0  0  0  0  0  0  0
   58.9160   33.7570   50.8810 N   0  0  0  0  0  0  0  0  0  0  0  0
   60.0740   34.0070   50.0220 C   0  0  0  0  0  0  0  0  0  0  0  0
   60.6692   34.8250   50.4539 H   0  0  0  0  0  0  0  0  0  0  0  0
   60.6650   33.0812   49.9622 H   0  0  0  0  0  0  0  0  0  0  0  0
   59.6460   34.3990   48.5960 C   0  0  0  0  0  0  0  0  0  0  0  0
   58.6005   34.7400   48.6202 H   0  0  0  0  0  0  0  0  0  0  0  0
   60.3172   35.1977   48.2474 H   0  0  0  0  0  0  0  0  0  0  0  0
   59.7570   33.2620   47.6500 N   0  0  0  0  0  0  0  0  0  0  0  0
   58.4620   32.6060   47.3720 C   0  0  0  0  0  0  0  0  0  0  0  0
   58.6478   31.6702   46.8246 H   0  0  0  0  0  0  0  0  0  0  0  0
   57.9654   32.4111   48.3340 H   0  0  0  0  0  0  0  0  0  0  0  0
   57.5300   33.5040   46.5250 C   0  0  0  0  0  0  0  0  0  0  0  0
   57.0582   32.8845   45.7481 H   0  0  0  0  0  0  0  0  0  0  0  0
   56.7883   33.9435   47.2082 H   0  0  0  0  0  0  0  0  0  0  0  0
   58.2120   34.5760   45.8950 O   0  0  0  0  0  0  0  0  0  0  0  0
   59.4060   34.1090   45.3030 C   0  0  0  0  0  0  0  0  0  0  0  0
   59.1732   33.2584   44.6455 H   0  0  0  0  0  0  0  0  0  0  0  0
   59.8559   34.9297   44.7251 H   0  0  0  0  0  0  0  0  0  0  0  0
   60.4140   33.6540   46.3800 C   0  0  0  0  0  0  0  0  0  0  0  0
   60.9761   32.7910   45.9936 H   0  0  0  0  0  0  0  0  0  0  0  0
   61.0750   34.5060   46.5973 H   0  0  0  0  0  0  0  0  0  0  0  0
   58.7670   31.5060   50.3570 N   0  0  0  0  0  0  0  0  0  0  0  0
   58.1190   30.3180   50.4850 C   0  0  0  0  0  0  0  0  0  0  0  0
   58.5270   29.2560   49.8550 N   0  0  0  0  0  0  0  0  0  0  0  0
   59.0970   29.2130   48.5360 C   0  0  0  0  0  0  0  0  0  0  0  0
   58.5540   28.3320   47.5910 C   0  0  0  0  0  0  0  0  0  0  0  0
   57.6946   27.7010   47.8616 H   0  0  0  0  0  0  0  0  0  0  0  0
   52.4080   29.3160   51.5520 C   0  0  0  0  0  0  0  0  0  0  0  0
   52.0537   28.2761   51.4967 H   0  0  0  0  0  0  0  0  0  0  0  0
   51.5810   30.3570   51.1250 C   0  0  0  0  0  0  0  0  0  0  0  0
   50.5734   30.1374   50.7423 H   0  0  0  0  0  0  0  0  0  0  0  0
   52.0340   31.6790   51.1840 C   0  0  0  0  0  0  0  0  0  0  0  0
   51.2170   32.7140   50.7460 O   0  0  0  0  0  0  0  0  0  0  0  0
   60.2300   29.9740   48.1930 C   0  0  0  0  0  0  0  0  0  0  0  0
   60.6906   30.6369   48.9403 H   0  0  0  0  0  0  0  0  0  0  0  0
   56.9990   30.2480   51.2480 N   0  0  0  0  0  0  0  0  0  0  0  0
   53.3120   31.9580   51.6820 C   0  0  0  0  0  0  0  0  0  0  0  0
   53.6713   32.9972   51.7125 H   0  0  0  0  0  0  0  0  0  0  0  0
   60.7730   29.8920   46.9080 C   0  0  0  0  0  0  0  0  0  0  0  0
   61.6481   30.5033   46.6423 H   0  0  0  0  0  0  0  0  0  0  0  0
  1  2  1  0
  2  3  1  0
  3  4  2  0
  4  5  1  0
  4  6  1  0
  6  7  1  0
  6  8  2  0
  8  9  1  0
  9 10  2  0
 10 11  1  0
 11 12  1  0
 12 13  2  3
 13 14  1  0
 14 15  1  0
 14 16  1  0
 14 17  1  0
 17 18  1  0
 17 19  1  0
 17 20  1  0
 20 21  1  0
 21 22  1  0
 21 23  1  0
 21 24  1  0
 24 25  1  0
 24 26  1  0
 24 27  1  0
 27 28  1  0
 28 29  1  0
 28 30  1  0
 28 31  1  0
 31 32  1  0
 31 33  1  0
 12 34  1  0
 34 35  1  0
 35 36  2  0
 36 37  1  0
 37 38  2  0
 38 39  1  0
 38 40  1  0
 40 41  1  0
 40 42  2  0
 42 43  1  0
 42 44  1  0
 44 45  1  0
 44 46  2  0
 46 47  1  0
 35 48  1  0
  8 49  1  0
 49 50  1  0
 49 51  2  0
 51 52  1  0
 51  3  1  0
 48 10  1  0
 31 20  1  0
 46 37  1  0
M  CHG  4  11  -1  34  -1  45  -1  48  -1
M  END
>  <UniqueID>  (37) 
29

>  <SMILES>  (37) 
[O-]c1cccc(/N=c2\[n-]c(=NCCN3CCOCC3)[n-]/c(=N\c3ccc(O)cc3)[n-]2)c1

>  <Energy>  (37) 
79.36727923377369

>  <Genealogy>  (37) 
[O-]c1cccc(N=c2[n-]c(=NCCN3CCOCC3)[n-]c(=Nc3ccc(O)cc3)[n-]2)c1 (protonated)
[O-]c1cccc(/N=c2\[n-]c(=NCCN3CCOCC3)[n-]/c(=N\c3ccc(O)cc3)[n-]2)c1 (cis-trans isomerization)
[O-]c1cccc(/N=c2\[n-]c(=NCCN3CCOCC3)[n-]/c(=N\c3ccc(O)cc3)[n-]2)c1 (3D coordinates assigned)
[O-]c1cccc(/N=c2\[n-]c(=NCCN3CCOCC3)[n-]/c(=N\c3ccc(O)cc3)[n-]2)c1 (nonaromatic ring conformer: 79.36727923377369 kcal/mol)

>  <smiles>  (37) 
Oc1ccc(N=c2[nH]c(=NCCN3CCOCC3)[nH]c(=Nc3cccc(O)c3)[nH]2)cc1

>  <score_type>  (37) 
oracle

>  <origin>  (37) 
adg

>  <m_score__min__energy>  (37) 
-14.34

>  <m_primary>  (37) 
energy

$$$$
37:0
     RDKit          3D

 71 74  0  0  1  0  0  0  0  0999 V2000
   63.0110   33.2370   47.3280 C   0  0  0  0  0  0  0  0  0  0  0  0
   62.3580   32.1670   47.7400 C   0  0  0  0  0  0  0  0  0  0  0  0
   61.5070   31.3310   46.8060 C   0  0  0  0  0  0  0  0  0  0  0  0
   60.7670   30.3820   47.6460 C   0  0  0  0  0  0  0  0  0  0  0  0
   61.1380   30.3290   48.9970 C   0  0  0  0  0  0  0  0  0  0  0  0
   60.6050   29.4420   49.8870 C   0  0  0  0  0  0  0  0  0  0  0  0
   59.6590   28.5570   49.4260 C   0  0  0  0  0  0  0  0  0  0  0  0
   59.2780   28.5880   48.1090 C   0  0  0  0  0  0  0  0  0  0  0  0
   59.8210   29.5010   47.1870 C   0  0  0  0  0  0  0  0  0  0  0  0
   59.3350   29.4090   45.9150 O   0  0  0  0  0  0  0  0  0  0  0  0
   58.0970   29.6100   45.4130 C   0  0  0  0  0  0  0  0  0  0  0  0
   57.0850   28.6730   45.4010 C   0  0  0  0  0  0  0  0  0  0  0  0
   57.4020   27.4280   45.9690 O   0  0  0  0  0  0  0  0  0  0  0  0
   58.3430   26.6320   45.2800 C   0  0  0  0  0  0  0  0  0  0  0  0
   59.0200   25.6360   46.1880 C   0  0  0  0  0  0  0  0  0  0  0  0
   58.1100   25.3020   47.2150 O   0  0  0  0  0  0  0  0  0  0  0  0
   57.0680   24.4290   47.0920 C   0  0  0  0  0  0  0  0  0  0  0  0
   55.9480   24.8720   46.4630 N   0  0  0  0  0  0  0  0  0  0  0  0
   54.8610   24.1000   46.2860 C   0  0  0  0  0  0  0  0  0  0  0  0
   54.8490   22.8020   46.7470 C   0  0  0  0  0  0  0  0  0  0  0  0
   53.3020   21.7230   46.4880 Br  0  0  0  0  0  0  0  0  0  0  0  0
   55.9850   22.3480   47.3860 C   0  0  0  0  0  0  0  0  0  0  0  0
   57.0550   23.1620   47.5430 N   0  0  0  0  0  0  0  0  0  0  0  0
   55.8760   28.9370   44.8770 N   0  0  0  0  0  0  0  0  0  0  0  0
   55.6640   30.1550   44.3550 C   0  0  0  0  0  0  0  0  0  0  0  0
   56.5860   31.1300   44.3260 N   0  0  0  0  0  0  0  0  0  0  0  0
   57.8050   30.8410   44.8660 C   0  0  0  0  0  0  0  0  0  0  0  0
   58.6070   31.8200   44.9870 N   0  0  0  0  0  0  0  0  0  0  0  0
   58.2090   33.3940   45.4220 S   0  0  0  0  0  0  0  0  0  0  0  0
   56.7970   33.7870   45.5220 O   0  0  0  0  0  0  0  0  0  0  0  0
   59.1160   34.4860   44.9200 O   0  0  0  0  0  0  0  0  0  0  0  0
   58.6700   33.3750   47.1700 C   0  0  0  0  0  0  0  0  0  0  0  0
   59.4980   34.3140   47.6880 C   0  0  0  0  0  0  0  0  0  0  0  0
   59.8900   34.3250   49.0190 C   0  0  0  0  0  0  0  0  0  0  0  0
   59.3880   33.3150   49.8110 C   0  0  0  0  0  0  0  0  0  0  0  0
   59.7410   33.2340   51.2420 C   0  0  0  0  0  0  0  0  0  0  0  0
   58.9260   34.2400   52.0650 C   0  0  0  0  0  0  0  0  0  0  0  0
   61.2020   33.4540   51.5270 C   0  0  0  0  0  0  0  0  0  0  0  0
   59.3900   31.8760   51.8300 C   0  0  0  0  0  0  0  0  0  0  0  0
   58.5450   32.3550   49.2960 C   0  0  0  0  0  0  0  0  0  0  0  0
   58.1750   32.3730   47.9700 C   0  0  0  0  0  0  0  0  0  0  0  0
   63.6186   33.8177   48.0377 H   0  0  0  0  0  0  0  0  0  0  0  0
   62.9478   33.5483   46.2749 H   0  0  0  0  0  0  0  0  0  0  0  0
   62.4340   31.8721   48.7970 H   0  0  0  0  0  0  0  0  0  0  0  0
   60.8065   31.9744   46.2533 H   0  0  0  0  0  0  0  0  0  0  0  0
   62.1298   30.8042   46.0680 H   0  0  0  0  0  0  0  0  0  0  0  0
   61.8973   31.0383   49.3581 H   0  0  0  0  0  0  0  0  0  0  0  0
   60.9223   29.4353   50.9402 H   0  0  0  0  0  0  0  0  0  0  0  0
   59.2085   27.8252   50.1126 H   0  0  0  0  0  0  0  0  0  0  0  0
   58.5192   27.8719   47.7605 H   0  0  0  0  0  0  0  0  0  0  0  0
   57.8251   26.0854   44.4781 H   0  0  0  0  0  0  0  0  0  0  0  0
   59.1173   27.2996   44.8740 H   0  0  0  0  0  0  0  0  0  0  0  0
   59.2902   24.7341   45.6192 H   0  0  0  0  0  0  0  0  0  0  0  0
   59.9392   26.0655   46.6130 H   0  0  0  0  0  0  0  0  0  0  0  0
   53.9781   24.5067   45.7711 H   0  0  0  0  0  0  0  0  0  0  0  0
   56.0211   21.3179   47.7702 H   0  0  0  0  0  0  0  0  0  0  0  0
   55.1460   28.1830   44.8970 H   0  0  0  0  0  0  0  0  0  0  0  0
   54.6742   30.3673   43.9246 H   0  0  0  0  0  0  0  0  0  0  0  0
   59.8769   35.1039   47.0228 H   0  0  0  0  0  0  0  0  0  0  0  0
   60.5638   35.0967   49.4196 H   0  0  0  0  0  0  0  0  0  0  0  0
   59.0814   34.0481   53.1369 H   0  0  0  0  0  0  0  0  0  0  0  0
   59.2540   35.2620   51.8241 H   0  0  0  0  0  0  0  0  0  0  0  0
   57.8582   34.1312   51.8241 H   0  0  0  0  0  0  0  0  0  0  0  0
   61.3638   33.4784   52.6148 H   0  0  0  0  0  0  0  0  0  0  0  0
   61.7889   32.6341   51.0873 H   0  0  0  0  0  0  0  0  0  0  0  0
   61.5214   34.4104   51.0873 H   0  0  0  0  0  0  0  0  0  0  0  0
   59.4057   31.9368   52.9282 H   0  0  0  0  0  0  0  0  0  0  0  0
   58.3856   31.5793   51.4935 H   0  0  0  0  0  0  0  0  0  0  0  0
   60.1248   31.1297   51.4935 H   0  0  0  0  0  0  0  0  0  0  0  0
   58.1615   31.5617   49.9544 H   0  0  0  0  0  0  0  0  0  0  0  0
   57.5009   31.6056   47.5616 H   0  0  0  0  0  0  0  0  0  0  0  0
  1  2  2  0
  2  3  1  0
  3  4  1  0
  4  5  2  0
  5  6  1  0
  6  7  2  0
  7  8  1  0
  8  9  2  0
  9 10  1  0
 10 11  1  0
 11 12  2  0
 12 13  1  0
 13 14  1  0
 14 15  1  0
 15 16  1  0
 16 17  1  0
 17 18  2  0
 18 19  1  0
 19 20  2  0
 20 21  1  0
 20 22  1  0
 22 23  2  0
 12 24  1  0
 24 25  1  0
 25 26  2  0
 26 27  1  0
 27 28  2  0
 28 29  1  0
 29 30  2  0
 29 31  2  0
 29 32  1  0
 32 33  2  0
 33 34  1  0
 34 35  2  0
 35 36  1  0
 36 37  1  0
 36 38  1  0
 36 39  1  0
 35 40  1  0
 40 41  2  0
  9  4  1  0
 27 11  1  0
 41 32  1  0
 23 17  1  0
  1 42  1  0
  1 43  1  0
  2 44  1  0
  3 45  1  0
  3 46  1  0
  5 47  1  0
  6 48  1  0
  7 49  1  0
  8 50  1  0
 14 51  1  0
 14 52  1  0
 15 53  1  0
 15 54  1  0
 19 55  1  0
 22 56  1  0
 24 57  1  0
 25 58  1  0
 33 59  1  0
 34 60  1  0
 37 61  1  0
 37 62  1  0
 37 63  1  0
 38 64  1  0
 38 65  1  0
 38 66  1  0
 39 67  1  0
 39 68  1  0
 39 69  1  0
 40 70  1  0
 41 71  1  0
M  END
>  <smiles>  (38) 
C=CCc1ccccc1Oc1c(OCCOc2ncc(Br)cn2)[nH]cnc1=NS(=O)(=O)c1ccc(C(C)(C)C)cc1

>  <score_type>  (38) 
oracle

>  <origin>  (38) 
adg

>  <m_score__min__energy>  (38) 
-9.7799999999999994

>  <m_primary>  (38) 
energy

$$$$
38:0
     RDKit          3D

 34 35  0  0  0  0  0  0  0  0999 V2000
   59.6428   35.5917   45.3176 H   0  0  0  0  0  0  0  0  0  0  0  0
   59.6450   34.7710   46.0500 C   0  0  0  0  0  0  0  0  0  0  0  0
   60.3350   34.9590   47.1860 C   0  0  0  0  0  0  0  0  0  0  0  0
   59.9956   35.7613   47.8576 H   0  0  0  0  0  0  0  0  0  0  0  0
   61.5170   34.1720   47.6070 C   0  0  0  0  0  0  0  0  0  0  0  0
   62.5120   33.8200   46.6760 C   0  0  0  0  0  0  0  0  0  0  0  0
   62.4021   34.1155   45.6222 H   0  0  0  0  0  0  0  0  0  0  0  0
   63.6370   33.0990   47.0790 C   0  0  0  0  0  0  0  0  0  0  0  0
   64.4012   32.8139   46.3410 H   0  0  0  0  0  0  0  0  0  0  0  0
   63.7920   32.7400   48.4180 C   0  0  0  0  0  0  0  0  0  0  0  0
   64.6765   32.1672   48.7336 H   0  0  0  0  0  0  0  0  0  0  0  0
   62.8270   33.1060   49.3590 C   0  0  0  0  0  0  0  0  0  0  0  0
   62.9598   32.8275   50.4148 H   0  0  0  0  0  0  0  0  0  0  0  0
   61.6840   33.8300   48.9640 C   0  0  0  0  0  0  0  0  0  0  0  0
   60.6960   34.2140   49.8870 O   0  0  0  0  0  0  0  0  0  0  0  0
   59.6340   33.3760   50.3310 C   0  0  0  0  0  0  0  0  0  0  0  0
   59.6144   33.3605   51.4307 H   0  0  0  0  0  0  0  0  0  0  0  0
   58.6772   33.7651   49.9527 H   0  0  0  0  0  0  0  0  0  0  0  0
   59.7899   32.3549   49.9527 H   0  0  0  0  0  0  0  0  0  0  0  0
   58.8870   33.5480   45.7040 C   0  0  0  0  0  0  0  0  0  0  0  0
   58.8390   32.4420   46.5700 C   0  0  0  0  0  0  0  0  0  0  0  0
   59.3900   32.4673   47.5217 H   0  0  0  0  0  0  0  0  0  0  0  0
   58.0940   31.3100   46.2270 C   0  0  0  0  0  0  0  0  0  0  0  0
   58.0767   30.4431   46.9039 H   0  0  0  0  0  0  0  0  0  0  0  0
   57.3700   31.2700   45.0300 C   0  0  0  0  0  0  0  0  0  0  0  0
   56.6410   30.1100   44.7300 O   0  0  0  0  0  0  0  0  0  0  0  0
   56.3010   29.6930   43.4120 C   0  0  0  0  0  0  0  0  0  0  0  0
   55.6067   28.8414   43.4645 H   0  0  0  0  0  0  0  0  0  0  0  0
   55.8207   30.5252   42.8765 H   0  0  0  0  0  0  0  0  0  0  0  0
   57.2129   29.3901   42.8765 H   0  0  0  0  0  0  0  0  0  0  0  0
   57.3930   32.3890   44.1760 C   0  0  0  0  0  0  0  0  0  0  0  0
   56.8223   32.3728   43.2358 H   0  0  0  0  0  0  0  0  0  0  0  0
   58.1390   33.5210   44.5190 C   0  0  0  0  0  0  0  0  0  0  0  0
   58.1388   34.3970   43.8537 H   0  0  0  0  0  0  0  0  0  0  0  0
  1  2  1  0
  2  3  2  0
  3  4  1  0
  3  5  1  0
  5  6  2  0
  6  7  1  0
  6  8  1  0
  8  9  1  0
  8 10  2  0
 10 11  1  0
 10 12  1  0
 12 13  1  0
 12 14  2  0
 14 15  1  0
 15 16  1  0
 16 17  1  0
 16 18  1  0
 16 19  1  0
  2 20  1  0
 20 21  2  0
 21 22  1  0
 21 23  1  0
 23 24  1  0
 23 25  2  0
 25 26  1  0
 26 27  1  0
 27 28  1  0
 27 29  1  0
 27 30  1  0
 25 31  1  0
 31 32  1  0
 31 33  2  0
 33 34  1  0
 14  5  1  0
 33 20  1  0
M  END
>  <UniqueID>  (39) 
30

>  <SMILES>  (39) 
COc1ccc(/C=C\c2ccccc2OC)cc1

>  <Energy>  (39) 
43.19019409209891

>  <Genealogy>  (39) 
COc1ccc(/C=C\c2ccccc2OC)cc1 (cis-trans isomerization)
COc1ccc(/C=C\c2ccccc2OC)cc1 (3D coordinates assigned)
COc1ccc(/C=C\c2ccccc2OC)cc1 (optimized conformer: 43.19019409209891 kcal/mol)

>  <smiles>  (39) 
COc1ccc(C=Cc2ccccc2OC)cc1

>  <score_type>  (39) 
oracle

>  <origin>  (39) 
adg

>  <m_score__min__energy>  (39) 
-6.3099999999999996

>  <m_primary>  (39) 
energy

$$$$
39:0
     RDKit          3D

 45 47  0  0  1  0  0  0  0  0999 V2000
   56.5490   30.1330   42.3450 C   0  0  0  0  0  0  0  0  0  0  0  0
   56.2140   29.7200   44.0280 S   0  0  0  0  0  0  0  0  0  0  0  0
   54.7690   29.3410   44.1260 O   0  0  0  0  0  0  0  0  0  0  0  0
   56.4130   30.9410   44.8710 O   0  0  0  0  0  0  0  0  0  0  0  0
   57.2160   28.3930   44.5630 N   0  0  0  0  0  0  0  0  0  0  0  0
   58.2840   28.6870   45.4590 C   0  0  0  0  0  0  0  0  0  0  0  0
   59.5180   29.0730   44.9270 C   0  0  0  0  0  0  0  0  0  0  0  0
   60.5820   29.3670   45.7500 C   0  0  0  0  0  0  0  0  0  0  0  0
   60.4840   29.2980   47.1250 C   0  0  0  0  0  0  0  0  0  0  0  0
   59.2630   28.9160   47.6450 C   0  0  0  0  0  0  0  0  0  0  0  0
   59.0280   28.8050   49.0540 N   0  0  0  0  0  0  0  0  0  0  0  0
   58.7140   29.8470   49.7530 C   0  0  0  0  0  0  0  0  0  0  0  0
   59.1730   31.0810   49.3100 C   0  0  0  0  0  0  0  0  0  0  0  0
   58.8730   32.2330   50.0090 C   0  0  0  0  0  0  0  0  0  0  0  0
   59.3750   33.4530   49.4990 N   0  0  0  0  0  0  0  0  0  0  0  0
   60.1140   33.4130   48.2610 C   0  0  0  0  0  0  0  0  0  0  0  0
   59.2720   33.6850   47.0760 C   0  0  0  0  0  0  0  0  0  0  0  0
   59.7450   34.3290   45.9430 C   0  0  0  0  0  0  0  0  0  0  0  0
   58.8800   34.5370   44.8870 C   0  0  0  0  0  0  0  0  0  0  0  0
   57.5800   34.1120   44.9620 C   0  0  0  0  0  0  0  0  0  0  0  0
   57.0670   33.4630   46.0810 C   0  0  0  0  0  0  0  0  0  0  0  0
   57.9530   33.2670   47.1250 C   0  0  0  0  0  0  0  0  0  0  0  0
   58.1250   32.1450   51.1310 N   0  0  0  0  0  0  0  0  0  0  0  0
   57.6750   30.9340   51.5660 C   0  0  0  0  0  0  0  0  0  0  0  0
   57.9770   29.8010   50.8680 N   0  0  0  0  0  0  0  0  0  0  0  0
   58.1800   28.6160   46.8220 C   0  0  0  0  0  0  0  0  0  0  0  0
   57.2416   30.9868   42.3078 H   0  0  0  0  0  0  0  0  0  0  0  0
   57.0046   29.2690   41.8391 H   0  0  0  0  0  0  0  0  0  0  0  0
   55.6096   30.4006   41.8391 H   0  0  0  0  0  0  0  0  0  0  0  0
   57.0560   27.4180   44.2520 H   0  0  0  0  0  0  0  0  0  0  0  0
   59.6405   29.1428   43.8361 H   0  0  0  0  0  0  0  0  0  0  0  0
   61.5392   29.6660   45.2979 H   0  0  0  0  0  0  0  0  0  0  0  0
   61.3382   29.5361   47.7759 H   0  0  0  0  0  0  0  0  0  0  0  0
   59.7804   31.1407   48.3949 H   0  0  0  0  0  0  0  0  0  0  0  0
   59.1880   34.3330   50.0410 H   0  0  0  0  0  0  0  0  0  0  0  0
   60.9122   34.1687   48.3047 H   0  0  0  0  0  0  0  0  0  0  0  0
   60.5172   32.3955   48.1514 H   0  0  0  0  0  0  0  0  0  0  0  0
   60.7899   34.6680   45.8864 H   0  0  0  0  0  0  0  0  0  0  0  0
   59.2370   35.0470   43.9801 H   0  0  0  0  0  0  0  0  0  0  0  0
   56.9154   34.2907   44.1039 H   0  0  0  0  0  0  0  0  0  0  0  0
   56.0210   33.1265   46.1322 H   0  0  0  0  0  0  0  0  0  0  0  0
   57.5947   32.7579   48.0319 H   0  0  0  0  0  0  0  0  0  0  0  0
   57.9110   33.0290   51.6440 H   0  0  0  0  0  0  0  0  0  0  0  0
   57.0676   30.8700   52.4809 H   0  0  0  0  0  0  0  0  0  0  0  0
   57.2237   28.3166   47.2757 H   0  0  0  0  0  0  0  0  0  0  0  0
  1  2  1  0
  2  3  2  0
  2  4  2  0
  2  5  1  0
  5  6  1  0
  6  7  2  0
  7  8  1  0
  8  9  2  0
  9 10  1  0
 10 11  1  0
 11 12  2  0
 12 13  1  0
 13 14  2  0
 14 15  1  0
 15 16  1  0
 16 17  1  0
 17 18  2  0
 18 19  1  0
 19 20  2  0
 20 21  1  0
 21 22  2  0
 14 23  1  0
 23 24  1  0
 24 25  2  0
 10 26  2  0
 26  6  1  0
 25 12  1  0
 22 17  1  0
  1 27  1  0
  1 28  1  0
  1 29  1  0
  5 30  1  0
  7 31  1  0
  8 32  1  0
  9 33  1  0
 13 34  1  0
 15 35  1  0
 16 36  1  0
 16 37  1  0
 18 38  1  0
 19 39  1  0
 20 40  1  0
 21 41  1  0
 22 42  1  0
 23 43  1  0
 24 44  1  0
 26 45  1  0
M  END
>  <smiles>  (40) 
CS(=O)(=O)Nc1cccc(N=c2cc(NCc3ccccc3)[nH]cn2)c1

>  <score_type>  (40) 
oracle

>  <origin>  (40) 
adg

>  <m_score__min__energy>  (40) 
-8.8200000000000003

>  <m_primary>  (40) 
energy

$$$$
40:0
     RDKit          3D

 25 25  0  0  0  0  0  0  0  0999 V2000
   59.5450   29.1900   45.9880 C   0  0  0  0  0  0  0  0  0  0  0  0
   58.2730   28.8820   45.7210 C   0  0  0  0  0  0  0  0  0  0  0  0
   57.8910   28.0720   44.5110 C   0  0  0  0  0  0  0  0  0  0  0  0
   57.0730   28.8640   43.5810 N   0  0  0  0  0  0  0  0  0  0  0  0
   56.1760   29.7190   44.3190 C   0  0  0  0  0  0  0  0  0  0  0  0
   55.1430   29.2220   44.8430 O   0  0  0  0  0  0  0  0  0  0  0  0
   56.4270   31.1190   44.5000 N   0  0  0  0  0  0  0  0  0  0  0  0
   57.7930   31.9980   43.8930 S   0  0  0  0  0  0  0  0  0  0  0  0
   58.8960   31.0350   43.5560 O   0  0  0  0  0  0  0  0  0  0  0  0
   57.3890   32.7280   42.6440 O   0  0  0  0  0  0  0  0  0  0  0  0
   58.3450   33.1680   45.0760 C   0  0  0  0  0  0  0  0  0  0  0  0
   59.2010   34.2280   44.8250 C   0  0  0  0  0  0  0  0  0  0  0  0
   59.4760   34.9870   45.9680 C   0  0  0  0  0  0  0  0  0  0  0  0
   58.8490   34.5150   47.1150 C   0  0  0  0  0  0  0  0  0  0  0  0
   57.9480   33.1530   46.7070 S   0  0  0  0  0  0  0  0  0  0  0  0
   59.7914   29.7837   46.8806 H   0  0  0  0  0  0  0  0  0  0  0  0
   60.3461   28.8499   45.3152 H   0  0  0  0  0  0  0  0  0  0  0  0
   57.4835   29.2295   46.4036 H   0  0  0  0  0  0  0  0  0  0  0  0
   58.8054   27.7436   43.9951 H   0  0  0  0  0  0  0  0  0  0  0  0
   57.3018   27.2044   44.8429 H   0  0  0  0  0  0  0  0  0  0  0  0
   57.6900   29.4210   42.9510 H   0  0  0  0  0  0  0  0  0  0  0  0
   56.4990   28.2200   42.9890 H   0  0  0  0  0  0  0  0  0  0  0  0
   59.6201   34.4495   43.8324 H   0  0  0  0  0  0  0  0  0  0  0  0
   60.1270   35.8736   45.9595 H   0  0  0  0  0  0  0  0  0  0  0  0
   58.9281   34.9567   48.1193 H   0  0  0  0  0  0  0  0  0  0  0  0
  1  2  2  0
  2  3  1  0
  3  4  1  0
  4  5  1  0
  5  6  2  0
  5  7  1  0
  7  8  1  0
  8  9  2  0
  8 10  2  0
  8 11  1  0
 11 12  2  0
 12 13  1  0
 13 14  2  0
 14 15  1  0
 15 11  1  0
  1 16  1  0
  1 17  1  0
  2 18  1  0
  3 19  1  0
  3 20  1  0
  4 21  1  0
  4 22  1  0
 12 23  1  0
 13 24  1  0
 14 25  1  0
M  CHG  2   4   1   7  -1
M  END
>  <UniqueID>  (41) 
31

>  <SMILES>  (41) 
C=CC[NH2+]C(=O)[N-]S(=O)(=O)c1cccs1

>  <Energy>  (41) 
47.51058678853136

>  <Genealogy>  (41) 
C=CC[NH2+]C(=O)[N-]S(=O)(=O)c1cccs1 (protonated)
C=CC[NH2+]C(=O)[N-]S(=O)(=O)c1cccs1 (3D coordinates assigned)
C=CC[NH2+]C(=O)[N-]S(=O)(=O)c1cccs1 (optimized conformer: 47.51058678853136 kcal/mol)

>  <smiles>  (41) 
C=CCNC(=O)NS(=O)(=O)c1cccs1

>  <score_type>  (41) 
oracle

>  <origin>  (41) 
adg

>  <m_score__min__energy>  (41) 
-6.3200000000000003

>  <m_primary>  (41) 
energy

$$$$
41:0
     RDKit          3D

 34 36  0  0  0  0  0  0  0  0999 V2000
   58.2970   25.4320   46.3560 C   0  0  0  0  0  0  0  0  0  0  0  0
   58.3990   26.8840   45.9910 C   0  0  0  0  0  0  0  0  0  0  0  0
   59.6330   27.5460   46.0770 C   0  0  0  0  0  0  0  0  0  0  0  0
   59.7430   28.8870   45.7030 C   0  0  0  0  0  0  0  0  0  0  0  0
   58.6240   29.5780   45.2270 C   0  0  0  0  0  0  0  0  0  0  0  0
   58.7390   30.8810   44.8570 N   0  0  0  0  0  0  0  0  0  0  0  0
   57.6820   31.5940   44.3830 C   0  0  0  0  0  0  0  0  0  0  0  0
   57.8910   33.0090   43.9350 C   0  0  0  0  0  0  0  0  0  0  0  0
   57.0780   34.1780   45.0790 S   0  0  0  0  0  0  0  0  0  0  0  0
   58.0980   33.7420   46.4930 C   0  0  0  0  0  0  0  0  0  0  0  0
   57.7630   32.7620   47.3580 N   0  0  0  0  0  0  0  0  0  0  0  0
   58.7780   32.7490   48.2460 C   0  0  0  0  0  0  0  0  0  0  0  0
   59.7070   33.7060   47.9040 C   0  0  0  0  0  0  0  0  0  0  0  0
   59.2670   34.3390   46.8050 N   0  0  0  0  0  0  0  0  0  0  0  0
   60.0010   35.3410   46.0390 C   0  0  0  0  0  0  0  0  0  0  0  0
   56.4300   30.9790   44.2580 C   0  0  0  0  0  0  0  0  0  0  0  0
   56.2740   29.6390   44.6240 C   0  0  0  0  0  0  0  0  0  0  0  0
   55.1440   29.0920   44.5020 O   0  0  0  0  0  0  0  0  0  0  0  0
   57.3780   28.9190   45.1170 C   0  0  0  0  0  0  0  0  0  0  0  0
   57.2770   27.5670   45.4960 C   0  0  0  0  0  0  0  0  0  0  0  0
   58.2898   25.3289   47.4511 H   0  0  0  0  0  0  0  0  0  0  0  0
   57.3673   25.0143   45.9422 H   0  0  0  0  0  0  0  0  0  0  0  0
   59.1592   24.8885   45.9422 H   0  0  0  0  0  0  0  0  0  0  0  0
   60.5191   27.0055   46.4412 H   0  0  0  0  0  0  0  0  0  0  0  0
   60.7122   29.4011   45.7830 H   0  0  0  0  0  0  0  0  0  0  0  0
   58.9696   33.2229   43.9071 H   0  0  0  0  0  0  0  0  0  0  0  0
   57.4506   33.1308   42.9344 H   0  0  0  0  0  0  0  0  0  0  0  0
   58.8524   32.0756   49.1126 H   0  0  0  0  0  0  0  0  0  0  0  0
   60.6457   33.9153   48.4380 H   0  0  0  0  0  0  0  0  0  0  0  0
   60.5071   36.0319   46.7293 H   0  0  0  0  0  0  0  0  0  0  0  0
   60.7491   34.8424   45.4052 H   0  0  0  0  0  0  0  0  0  0  0  0
   59.3000   35.9039   45.4052 H   0  0  0  0  0  0  0  0  0  0  0  0
   55.5716   31.5490   43.8728 H   0  0  0  0  0  0  0  0  0  0  0  0
   56.3141   27.0432   45.4038 H   0  0  0  0  0  0  0  0  0  0  0  0
  1  2  1  0
  2  3  2  0
  3  4  1  0
  4  5  2  0
  5  6  1  0
  6  7  1  0
  7  8  1  0
  8  9  1  0
  9 10  1  0
 10 11  2  0
 11 12  1  0
 12 13  2  0
 13 14  1  0
 14 15  1  0
  7 16  2  0
 16 17  1  0
 17 18  2  0
 17 19  1  0
 19 20  2  0
 20  2  1  0
 19  5  1  0
 14 10  1  0
  1 21  1  0
  1 22  1  0
  1 23  1  0
  3 24  1  0
  4 25  1  0
  8 26  1  0
  8 27  1  0
 12 28  1  0
 13 29  1  0
 15 30  1  0
 15 31  1  0
 15 32  1  0
 16 33  1  0
 20 34  1  0
M  CHG  1   6  -1
M  END
>  <UniqueID>  (42) 
32

>  <SMILES>  (42) 
Cc1ccc2[n-]c(CSc3nccn3C)cc(=O)c2c1

>  <Energy>  (42) 
62.40388267016004

>  <Genealogy>  (42) 
Cc1ccc2[n-]c(CSc3nccn3C)cc(=O)c2c1 (protonated)
Cc1ccc2[n-]c(CSc3nccn3C)cc(=O)c2c1 (3D coordinates assigned)
Cc1ccc2[n-]c(CSc3nccn3C)cc(=O)c2c1 (optimized conformer: 62.40388267016004 kcal/mol)

>  <smiles>  (42) 
Cc1ccc2[nH]c(CSc3nccn3C)cc(=O)c2c1

>  <score_type>  (42) 
oracle

>  <origin>  (42) 
adg

>  <m_score__min__energy>  (42) 
-8.0999999999999996

>  <m_primary>  (42) 
energy

$$$$
42:0
     RDKit          3D

 42 44  0  0  0  0  0  0  0  0999 V2000
   60.9777   28.6164   48.8046 H   0  0  0  0  0  0  0  0  0  0  0  0
   60.7210   29.6300   48.4630 C   0  0  0  0  0  0  0  0  0  0  0  0
   59.5120   29.7670   47.6220 C   0  0  0  0  0  0  0  0  0  0  0  0
   58.3890   29.5270   48.1360 O   0  0  0  0  0  0  0  0  0  0  0  0
   59.5960   30.1710   46.2510 N   0  0  0  0  0  0  0  0  0  0  0  0
   58.5700   29.9830   45.2740 C   0  0  0  0  0  0  0  0  0  0  0  0
   58.4260   28.7080   44.7060 C   0  0  0  0  0  0  0  0  0  0  0  0
   59.0880   27.8897   45.0255 H   0  0  0  0  0  0  0  0  0  0  0  0
   57.4480   28.4710   43.7380 C   0  0  0  0  0  0  0  0  0  0  0  0
   57.3341   27.4657   43.3063 H   0  0  0  0  0  0  0  0  0  0  0  0
   56.6150   29.5090   43.3180 C   0  0  0  0  0  0  0  0  0  0  0  0
   55.8348   29.3176   42.5665 H   0  0  0  0  0  0  0  0  0  0  0  0
   56.7710   30.7910   43.8510 C   0  0  0  0  0  0  0  0  0  0  0  0
   56.1196   31.6074   43.5057 H   0  0  0  0  0  0  0  0  0  0  0  0
   57.7530   31.0480   44.8250 C   0  0  0  0  0  0  0  0  0  0  0  0
   57.9870   32.4070   45.2500 N   0  0  0  0  0  0  0  0  0  0  0  0
   58.5150   33.3720   44.2680 C   0  0  0  0  0  0  0  0  0  0  0  0
   59.4612   32.9819   43.8648 H   0  0  0  0  0  0  0  0  0  0  0  0
   57.7569   33.4934   43.4803 H   0  0  0  0  0  0  0  0  0  0  0  0
   58.7760   34.7620   44.8820 C   0  0  0  0  0  0  0  0  0  0  0  0
   59.5366   35.2796   44.2791 H   0  0  0  0  0  0  0  0  0  0  0  0
   57.8259   35.3164   44.8847 H   0  0  0  0  0  0  0  0  0  0  0  0
   59.2300   34.6740   46.2050 O   0  0  0  0  0  0  0  0  0  0  0  0
   58.1910   34.1680   47.0000 C   0  0  0  0  0  0  0  0  0  0  0  0
   58.4635   34.2741   48.0604 H   0  0  0  0  0  0  0  0  0  0  0  0
   57.2727   34.7334   46.7830 H   0  0  0  0  0  0  0  0  0  0  0  0
   57.9420   32.6860   46.6900 C   0  0  0  0  0  0  0  0  0  0  0  0
   58.7140   32.0843   47.1920 H   0  0  0  0  0  0  0  0  0  0  0  0
   56.9360   32.4289   47.0531 H   0  0  0  0  0  0  0  0  0  0  0  0
   61.5350   30.6260   48.8490 C   0  0  0  0  0  0  0  0  0  0  0  0
   61.8749   30.6192   49.8951 H   0  0  0  0  0  0  0  0  0  0  0  0
   62.0140   31.7300   47.9920 C   0  0  0  0  0  0  0  0  0  0  0  0
   63.3820   31.9480   47.7690 C   0  0  0  0  0  0  0  0  0  0  0  0
   64.1264   31.2916   48.2433 H   0  0  0  0  0  0  0  0  0  0  0  0
   63.8000   32.9930   46.9490 C   0  0  0  0  0  0  0  0  0  0  0  0
   64.8702   33.1503   46.7492 H   0  0  0  0  0  0  0  0  0  0  0  0
   62.8510   33.8320   46.3880 C   0  0  0  0  0  0  0  0  0  0  0  0
   63.1650   34.6564   45.7309 H   0  0  0  0  0  0  0  0  0  0  0  0
   61.5310   33.6360   46.6500 N   0  0  0  0  0  0  0  0  0  0  0  0
   60.8350   34.2680   46.2250 H   0  0  0  0  0  0  0  0  0  0  0  0
   61.0990   32.6190   47.4380 C   0  0  0  0  0  0  0  0  0  0  0  0
   60.0243   32.4977   47.6387 H   0  0  0  0  0  0  0  0  0  0  0  0
  1  2  1  0
  2  3  1  0
  3  4  2  0
  3  5  1  0
  5  6  1  0
  6  7  2  0
  7  8  1  0
  7  9  1  0
  9 10  1  0
  9 11  2  0
 11 12  1  0
 11 13  1  0
 13 14  1  0
 13 15  2  0
 15 16  1  0
 16 17  1  0
 17 18  1  0
 17 19  1  0
 17 20  1  0
 20 21  1  0
 20 22  1  0
 20 23  1  0
 23 24  1  0
 24 25  1  0
 24 26  1  0
 24 27  1  0
 27 28  1  0
 27 29  1  0
  2 30  2  0
 30 31  1  0
 30 32  1  0
 32 33  2  0
 33 34  1  0
 33 35  1  0
 35 36  1  0
 35 37  2  0
 37 38  1  0
 37 39  1  0
 39 40  1  0
 39 41  2  0
 41 42  1  0
 15  6  1  0
 27 16  1  0
 41 32  1  0
M  CHG  2   5  -1  39   1
M  END
>  <UniqueID>  (43) 
33

>  <SMILES>  (43) 
O=C(/C=C\c1ccc[nH+]c1)[N-]c1ccccc1N1CCOCC1

>  <Energy>  (43) 
64.6531904330683

>  <Genealogy>  (43) 
O=C(C=Cc1ccc[nH+]c1)[N-]c1ccccc1N1CCOCC1 (protonated)
O=C(/C=C\c1ccc[nH+]c1)[N-]c1ccccc1N1CCOCC1 (cis-trans isomerization)
O=C(/C=C\c1ccc[nH+]c1)[N-]c1ccccc1N1CCOCC1 (3D coordinates assigned)
O=C(/C=C\c1ccc[nH+]c1)[N-]c1ccccc1N1CCOCC1 (nonaromatic ring conformer: 64.6531904330683 kcal/mol)

>  <smiles>  (43) 
O=C(C=Cc1cccnc1)Nc1ccccc1N1CCOCC1

>  <score_type>  (43) 
oracle

>  <origin>  (43) 
adg

>  <m_score__min__energy>  (43) 
-8.5299999999999994

>  <m_primary>  (43) 
energy

$$$$
43:0
     RDKit          3D

 51 53  0  0  0  0  0  0  0  0999 V2000
   63.1650   33.5600   49.8540 C   0  0  0  0  0  0  0  0  0  0  0  0
   61.7420   33.5580   49.8910 O   0  0  0  0  0  0  0  0  0  0  0  0
   60.9210   33.4920   48.7560 C   0  0  0  0  0  0  0  0  0  0  0  0
   59.5940   33.0730   48.9170 C   0  0  0  0  0  0  0  0  0  0  0  0
   58.7370   32.9880   47.8160 C   0  0  0  0  0  0  0  0  0  0  0  0
   59.1970   33.3250   46.5380 C   0  0  0  0  0  0  0  0  0  0  0  0
   58.1070   33.1960   45.1600 S   0  0  0  0  0  0  0  0  0  0  0  0
   58.4890   34.1920   44.0990 O   0  0  0  0  0  0  0  0  0  0  0  0
   56.7090   33.4950   45.6250 O   0  0  0  0  0  0  0  0  0  0  0  0
   58.1860   31.5780   44.5050 N   0  0  0  0  0  0  0  0  0  0  0  0
   58.1070   31.5970   43.0220 C   0  0  0  0  0  0  0  0  0  0  0  0
   56.7210   31.2050   42.4920 C   0  0  0  0  0  0  0  0  0  0  0  0
   56.3220   29.7980   42.9670 C   0  0  0  0  0  0  0  0  0  0  0  0
   56.9050   29.4460   44.3560 C   0  0  2  0  0  0  0  0  0  0  0  0
   55.9810   28.5920   45.1020 N   0  0  0  0  0  0  0  0  0  0  0  0
   56.2680   27.2900   45.6300 C   0  0  0  0  0  0  0  0  0  0  0  0
   55.3050   26.5670   45.9970 O   0  0  0  0  0  0  0  0  0  0  0  0
   57.6720   26.7400   45.6830 C   0  0  0  0  0  0  0  0  0  0  0  0
   58.6560   27.7810   46.1470 C   0  0  0  0  0  0  0  0  0  0  0  0
   59.6950   28.1980   45.2990 C   0  0  0  0  0  0  0  0  0  0  0  0
   60.5940   29.1850   45.7170 C   0  0  0  0  0  0  0  0  0  0  0  0
   60.4550   29.7720   46.9820 C   0  0  0  0  0  0  0  0  0  0  0  0
   61.3440   30.7560   47.4100 O   0  0  0  0  0  0  0  0  0  0  0  0
   59.4130   29.3700   47.8240 C   0  0  0  0  0  0  0  0  0  0  0  0
   58.5140   28.3830   47.4090 C   0  0  0  0  0  0  0  0  0  0  0  0
   57.1740   30.7230   45.1650 C   0  0  0  0  0  0  0  0  0  0  0  0
   60.5240   33.7450   46.3670 C   0  0  0  0  0  0  0  0  0  0  0  0
   61.3820   33.8290   47.4680 C   0  0  0  0  0  0  0  0  0  0  0  0
   63.5585   33.5606   50.8812 H   0  0  0  0  0  0  0  0  0  0  0  0
   63.5193   32.6624   49.3261 H   0  0  0  0  0  0  0  0  0  0  0  0
   63.5168   34.4586   49.3261 H   0  0  0  0  0  0  0  0  0  0  0  0
   59.2233   32.8086   49.9183 H   0  0  0  0  0  0  0  0  0  0  0  0
   57.6978   32.6552   47.9546 H   0  0  0  0  0  0  0  0  0  0  0  0
   58.3425   32.6126   42.6711 H   0  0  0  0  0  0  0  0  0  0  0  0
   58.8264   30.8558   42.6439 H   0  0  0  0  0  0  0  0  0  0  0  0
   55.9790   31.9307   42.8565 H   0  0  0  0  0  0  0  0  0  0  0  0
   56.7556   31.2049   41.3925 H   0  0  0  0  0  0  0  0  0  0  0  0
   55.2247   29.7439   43.0225 H   0  0  0  0  0  0  0  0  0  0  0  0
   56.7303   29.0764   42.2441 H   0  0  0  0  0  0  0  0  0  0  0  0
   57.8506   28.9066   44.1983 H   0  0  0  0  0  0  0  0  0  0  0  0
   57.6965   25.8894   46.3800 H   0  0  0  0  0  0  0  0  0  0  0  0
   57.9570   26.4239   44.6687 H   0  0  0  0  0  0  0  0  0  0  0  0
   59.8024   27.7465   44.3017 H   0  0  0  0  0  0  0  0  0  0  0  0
   61.4112   29.5008   45.0518 H   0  0  0  0  0  0  0  0  0  0  0  0
   61.4480   30.9850   48.3920 H   0  0  0  0  0  0  0  0  0  0  0  0
   59.3005   29.8319   48.8160 H   0  0  0  0  0  0  0  0  0  0  0  0
   57.6923   28.0764   48.0729 H   0  0  0  0  0  0  0  0  0  0  0  0
   56.2359   31.2891   45.2623 H   0  0  0  0  0  0  0  0  0  0  0  0
   57.5588   30.4317   46.1535 H   0  0  0  0  0  0  0  0  0  0  0  0
   60.8909   34.0091   45.3642 H   0  0  0  0  0  0  0  0  0  0  0  0
   62.4217   34.1597   47.3278 H   0  0  0  0  0  0  0  0  0  0  0  0
  1  2  1  0
  2  3  1  0
  3  4  2  0
  4  5  1  0
  5  6  2  0
  6  7  1  0
  7  8  2  0
  7  9  2  0
  7 10  1  0
 10 11  1  0
 11 12  1  0
 12 13  1  0
 13 14  1  0
 14 15  1  0
 15 16  1  0
 16 17  2  0
 16 18  1  0
 18 19  1  0
 19 20  2  0
 20 21  1  0
 21 22  2  0
 22 23  1  0
 22 24  1  0
 24 25  2  0
 14 26  1  0
  6 27  1  0
 27 28  2  0
 28  3  1  0
 26 10  1  0
 25 19  1  0
  1 29  1  0
  1 30  1  0
  1 31  1  0
  4 32  1  0
  5 33  1  0
 11 34  1  0
 11 35  1  0
 12 36  1  0
 12 37  1  0
 13 38  1  0
 13 39  1  0
 14 40  1  6
 18 41  1  0
 18 42  1  0
 20 43  1  0
 21 44  1  0
 23 45  1  0
 24 46  1  0
 25 47  1  0
 26 48  1  0
 26 49  1  0
 27 50  1  0
 28 51  1  0
M  CHG  1  15  -1
M  END
>  <UniqueID>  (44) 
34

>  <SMILES>  (44) 
COc1ccc(S(=O)(=O)N2CCC[C@H]([N-]C(=O)Cc3ccc(O)cc3)C2)cc1

>  <Energy>  (44) 
55.54121637381257

>  <Genealogy>  (44) 
COc1ccc(S(=O)(=O)N2CCCC([N-]C(=O)Cc3ccc(O)cc3)C2)cc1 (protonated)
COc1ccc(S(=O)(=O)N2CCC[C@H]([N-]C(=O)Cc3ccc(O)cc3)C2)cc1 (chirality)
COc1ccc(S(=O)(=O)N2CCC[C@H]([N-]C(=O)Cc3ccc(O)cc3)C2)cc1 (3D coordinates assigned)
COc1ccc(S(=O)(=O)N2CCC[C@H]([N-]C(=O)Cc3ccc(O)cc3)C2)cc1 (nonaromatic ring conformer: 55.54121637381257 kcal/mol)

>  <smiles>  (44) 
COc1ccc(S(=O)(=O)N2CCCC(NC(=O)Cc3ccc(O)cc3)C2)cc1

>  <score_type>  (44) 
oracle

>  <origin>  (44) 
adg

>  <m_score__min__energy>  (44) 
-11.75

>  <m_primary>  (44) 
energy

$$$$
44:0
     RDKit          3D

 37 39  0  0  0  0  0  0  0  0999 V2000
   61.2360   33.2460   48.2230 C   0  0  0  0  0  0  0  0  0  0  0  0
   60.3130   34.1720   47.5490 N   0  0  0  0  0  0  0  0  0  0  0  0
   58.8980   33.8650   47.8830 C   0  0  0  0  0  0  0  0  0  0  0  0
   58.1690   33.1460   46.7390 C   0  0  0  0  0  0  0  0  0  0  0  0
   58.1660   33.9760   45.5140 N   0  0  0  0  0  0  0  0  0  0  0  0
   57.7360   33.2220   44.3180 C   0  0  0  0  0  0  0  0  0  0  0  0
   57.4750   31.7690   44.6030 C   0  0  0  0  0  0  0  0  0  0  0  0
   56.2610   31.1900   44.5320 N   0  0  0  0  0  0  0  0  0  0  0  0
   56.4360   29.9240   44.8730 N   0  0  0  0  0  0  0  0  0  0  0  0
   57.7490   29.7780   45.1400 C   0  0  0  0  0  0  0  0  0  0  0  0
   58.3820   28.5170   45.5700 C   0  0  0  0  0  0  0  0  0  0  0  0
   57.5870   27.4090   45.9080 C   0  0  0  0  0  0  0  0  0  0  0  0
   58.1820   26.2100   46.3130 C   0  0  0  0  0  0  0  0  0  0  0  0
   59.5740   26.1070   46.3820 C   0  0  0  0  0  0  0  0  0  0  0  0
   60.3720   27.2030   46.0470 C   0  0  0  0  0  0  0  0  0  0  0  0
   59.7820   28.4050   45.6410 C   0  0  0  0  0  0  0  0  0  0  0  0
   58.3910   30.9090   44.9720 O   0  0  0  0  0  0  0  0  0  0  0  0
   59.4010   34.7740   45.3090 C   0  0  0  0  0  0  0  0  0  0  0  0
   60.5920   34.2070   46.0950 C   0  0  0  0  0  0  0  0  0  0  0  0
   61.1306   33.3517   49.3128 H   0  0  0  0  0  0  0  0  0  0  0  0
   60.9977   32.2128   47.9301 H   0  0  0  0  0  0  0  0  0  0  0  0
   62.2699   33.4809   47.9301 H   0  0  0  0  0  0  0  0  0  0  0  0
   58.8772   33.2213   48.7748 H   0  0  0  0  0  0  0  0  0  0  0  0
   58.3812   34.8193   48.0624 H   0  0  0  0  0  0  0  0  0  0  0  0
   58.6787   32.1942   46.5285 H   0  0  0  0  0  0  0  0  0  0  0  0
   57.1279   32.9637   47.0439 H   0  0  0  0  0  0  0  0  0  0  0  0
   56.8112   33.6752   43.9315 H   0  0  0  0  0  0  0  0  0  0  0  0
   58.5547   33.2720   43.5851 H   0  0  0  0  0  0  0  0  0  0  0  0
   56.4910   27.4850   45.8538 H   0  0  0  0  0  0  0  0  0  0  0  0
   57.5535   25.3468   46.5776 H   0  0  0  0  0  0  0  0  0  0  0  0
   60.0409   25.1631   46.7000 H   0  0  0  0  0  0  0  0  0  0  0  0
   61.4675   27.1211   46.1025 H   0  0  0  0  0  0  0  0  0  0  0  0
   60.4151   29.2648   45.3766 H   0  0  0  0  0  0  0  0  0  0  0  0
   59.6502   34.7730   44.2376 H   0  0  0  0  0  0  0  0  0  0  0  0
   59.2095   35.7942   45.6732 H   0  0  0  0  0  0  0  0  0  0  0  0
   60.7973   33.1845   45.7453 H   0  0  0  0  0  0  0  0  0  0  0  0
   61.4610   34.8597   45.9251 H   0  0  0  0  0  0  0  0  0  0  0  0
  1  2  1  0
  2  3  1  0
  3  4  1  0
  4  5  1  0
  5  6  1  0
  6  7  1  0
  7  8  2  0
  8  9  1  0
  9 10  2  0
 10 11  1  0
 11 12  2  0
 12 13  1  0
 13 14  2  0
 14 15  1  0
 15 16  2  0
 10 17  1  0
  5 18  1  0
 18 19  1  0
 19  2  1  0
 17  7  1  0
 16 11  1  0
  1 20  1  0
  1 21  1  0
  1 22  1  0
  3 23  1  0
  3 24  1  0
  4 25  1  0
  4 26  1  0
  6 27  1  0
  6 28  1  0
 12 29  1  0
 13 30  1  0
 14 31  1  0
 15 32  1  0
 16 33  1  0
 18 34  1  0
 18 35  1  0
 19 36  1  0
 19 37  1  0
M  END
>  <UniqueID>  (45) 
35

>  <SMILES>  (45) 
CN1CCN(Cc2nnc(-c3ccccc3)o2)CC1

>  <Energy>  (45) 
84.99588709877908

>  <Genealogy>  (45) 
CN1CCN(Cc2nnc(-c3ccccc3)o2)CC1 (3D coordinates assigned)
CN1CCN(Cc2nnc(-c3ccccc3)o2)CC1 (nonaromatic ring conformer: 84.99588709877908 kcal/mol)

>  <smiles>  (45) 
CN1CCN(Cc2nnc(-c3ccccc3)o2)CC1

>  <score_type>  (45) 
oracle

>  <origin>  (45) 
adg

>  <m_score__min__energy>  (45) 
-7.1600000000000001

>  <m_primary>  (45) 
energy

$$$$
45:0
     RDKit          3D

 27 28  0  0  0  0  0  0  0  0999 V2000
   57.3570   26.2530   46.4430 O   0  0  0  0  0  0  0  0  0  0  0  0
   56.5110   27.0870   46.0240 C   0  0  0  0  0  0  0  0  0  0  0  0
   55.1690   26.7230   45.9860 O   0  0  0  0  0  0  0  0  0  0  0  0
   56.9370   28.4310   45.5780 C   0  0  0  0  0  0  0  0  0  0  0  0
   56.1940   29.1360   44.6150 C   0  0  0  0  0  0  0  0  0  0  0  0
   56.6000   30.4080   44.2000 C   0  0  0  0  0  0  0  0  0  0  0  0
   57.7410   31.0020   44.7460 C   0  0  0  0  0  0  0  0  0  0  0  0
   58.1340   32.3040   44.2880 N   0  0  0  0  0  0  0  0  0  0  0  0
   58.1730   33.5030   45.0760 C   0  0  0  0  0  0  0  0  0  0  0  0
   57.3490   34.4210   44.8170 O   0  0  0  0  0  0  0  0  0  0  0  0
   59.1110   33.6690   46.2110 C   0  0  0  0  0  0  0  0  0  0  0  0
   58.6160   33.8110   47.5200 C   0  0  0  0  0  0  0  0  0  0  0  0
   59.4950   33.9680   48.5950 C   0  0  0  0  0  0  0  0  0  0  0  0
   60.8740   33.9760   48.3780 C   0  0  0  0  0  0  0  0  0  0  0  0
   61.3800   33.8190   47.0830 C   0  0  0  0  0  0  0  0  0  0  0  0
   63.1120   33.8180   46.8120 Cl  0  0  0  0  0  0  0  0  0  0  0  0
   60.5030   33.6600   46.0050 C   0  0  0  0  0  0  0  0  0  0  0  0
   58.5020   30.2910   45.6910 C   0  0  0  0  0  0  0  0  0  0  0  0
   58.0970   29.0200   46.1080 C   0  0  0  0  0  0  0  0  0  0  0  0
   55.2877   28.6842   44.1854 H   0  0  0  0  0  0  0  0  0  0  0  0
   56.0167   30.9453   43.4378 H   0  0  0  0  0  0  0  0  0  0  0  0
   57.5307   33.7984   47.6985 H   0  0  0  0  0  0  0  0  0  0  0  0
   59.0993   34.0856   49.6146 H   0  0  0  0  0  0  0  0  0  0  0  0
   61.5631   34.1058   49.2255 H   0  0  0  0  0  0  0  0  0  0  0  0
   60.9041   33.5270   44.9894 H   0  0  0  0  0  0  0  0  0  0  0  0
   59.4192   30.7367   46.1034 H   0  0  0  0  0  0  0  0  0  0  0  0
   58.6913   28.4765   46.8572 H   0  0  0  0  0  0  0  0  0  0  0  0
  1  2  2  0
  2  3  1  0
  2  4  1  0
  4  5  2  0
  5  6  1  0
  6  7  2  0
  7  8  1  0
  8  9  1  0
  9 10  2  0
  9 11  1  0
 11 12  2  0
 12 13  1  0
 13 14  2  0
 14 15  1  0
 15 16  1  0
 15 17  2  0
  7 18  1  0
 18 19  2  0
 19  4  1  0
 17 11  1  0
  5 20  1  0
  6 21  1  0
 12 22  1  0
 13 23  1  0
 14 24  1  0
 17 25  1  0
 18 26  1  0
 19 27  1  0
M  CHG  2   3  -1   8  -1
M  END
>  <UniqueID>  (46) 
36

>  <SMILES>  (46) 
O=C([O-])c1ccc([N-]C(=O)c2cccc(Cl)c2)cc1

>  <Energy>  (46) 
35.20307594772979

>  <Genealogy>  (46) 
O=C([O-])c1ccc([N-]C(=O)c2cccc(Cl)c2)cc1 (protonated)
O=C([O-])c1ccc([N-]C(=O)c2cccc(Cl)c2)cc1 (3D coordinates assigned)
O=C([O-])c1ccc([N-]C(=O)c2cccc(Cl)c2)cc1 (optimized conformer: 35.20307594772979 kcal/mol)

>  <smiles>  (46) 
O=C(O)c1ccc(NC(=O)c2cccc(Cl)c2)cc1

>  <score_type>  (46) 
oracle

>  <origin>  (46) 
adg

>  <m_score__min__energy>  (46) 
-10.48

>  <m_primary>  (46) 
energy

$$$$
46:0
     RDKit          3D

 65 69  0  0  0  0  0  0  0  0999 V2000
   57.8660   25.7500   47.1040 C   0  0  0  0  0  0  0  0  0  0  0  0
   57.8930   26.4180   45.7290 C   0  0  0  0  0  0  0  0  0  0  0  0
   57.7780   25.6910   44.6110 C   0  0  0  0  0  0  0  0  0  0  0  0
   57.6430   24.2720   44.2890 C   0  0  0  0  0  0  0  0  0  0  0  0
   56.7490   23.7480   43.4100 C   0  0  0  0  0  0  0  0  0  0  0  0
   56.6810   22.3800   43.0990 C   0  0  0  0  0  0  0  0  0  0  0  0
   57.5550   21.5220   43.7090 C   0  0  0  0  0  0  0  0  0  0  0  0
   58.4730   21.9990   44.6040 C   0  0  0  0  0  0  0  0  0  0  0  0
   58.5150   23.3420   44.8860 C   0  0  0  0  0  0  0  0  0  0  0  0
   57.7920   26.8690   43.2850 S   0  0  0  0  0  0  0  0  0  0  0  0
   57.9590   28.2900   44.3460 C   0  0  0  0  0  0  0  0  0  0  0  0
   58.0470   29.6000   44.0420 N   0  0  0  0  0  0  0  0  0  0  0  0
   58.1770   30.5090   45.0290 C   0  0  0  0  0  0  0  0  0  0  0  0
   58.2690   31.9400   44.6320 C   0  0  0  0  0  0  0  0  0  0  0  0
   57.7770   32.7410   45.8070 C   0  0  0  0  0  0  0  0  0  0  0  0
   58.4080   34.0820   45.8310 C   0  0  0  0  0  0  0  0  0  0  0  0
   59.7290   34.0230   46.4820 C   0  0  0  0  0  0  0  0  0  0  0  0
   60.4650   34.9810   46.7540 O   0  0  0  0  0  0  0  0  0  0  0  0
   60.2220   32.7150   46.8430 N   0  0  0  0  0  0  0  0  0  0  0  0
   61.4940   32.6880   47.4660 C   0  0  0  0  0  0  0  0  0  0  0  0
   62.5430   33.2080   46.6970 C   0  0  0  0  0  0  0  0  0  0  0  0
   63.8260   33.2270   47.1650 C   0  0  0  0  0  0  0  0  0  0  0  0
   64.0530   32.7160   48.4220 C   0  0  0  0  0  0  0  0  0  0  0  0
   63.0110   32.1980   49.1900 C   0  0  0  0  0  0  0  0  0  0  0  0
   61.7020   32.1710   48.7270 C   0  0  0  0  0  0  0  0  0  0  0  0
   60.6750   31.6560   49.5520 N   0  0  0  0  0  0  0  0  0  0  0  0
   60.4360   32.2780   50.8530 C   0  0  0  0  0  0  0  0  0  0  0  0
   59.1270   32.9910   50.7830 C   0  0  0  0  0  0  0  0  0  0  0  0
   58.1430   32.1670   50.0140 C   0  0  0  0  0  0  0  0  0  0  0  0
   58.5170   30.7220   50.0410 C   0  0  0  0  0  0  0  0  0  0  0  0
   59.8020   30.5590   49.2050 C   0  0  0  0  0  0  0  0  0  0  0  0
   58.2130   30.0590   46.2660 N   0  0  0  0  0  0  0  0  0  0  0  0
   58.1300   28.7730   46.6110 C   0  0  0  0  0  0  0  0  0  0  0  0
   58.1830   28.5190   47.8350 O   0  0  0  0  0  0  0  0  0  0  0  0
   57.9900   27.7690   45.6240 C   0  0  0  0  0  0  0  0  0  0  0  0
   57.8972   26.5217   47.8872 H   0  0  0  0  0  0  0  0  0  0  0  0
   56.9433   25.1601   47.2070 H   0  0  0  0  0  0  0  0  0  0  0  0
   58.7381   25.0876   47.2070 H   0  0  0  0  0  0  0  0  0  0  0  0
   56.0418   24.4307   42.9163 H   0  0  0  0  0  0  0  0  0  0  0  0
   55.9390   22.0054   42.3785 H   0  0  0  0  0  0  0  0  0  0  0  0
   57.5194   20.4468   43.4793 H   0  0  0  0  0  0  0  0  0  0  0  0
   59.1747   21.3093   45.0958 H   0  0  0  0  0  0  0  0  0  0  0  0
   59.2606   23.7063   45.6081 H   0  0  0  0  0  0  0  0  0  0  0  0
   58.0140   29.8990   43.0620 H   0  0  0  0  0  0  0  0  0  0  0  0
   59.3116   32.2043   44.4015 H   0  0  0  0  0  0  0  0  0  0  0  0
   57.6691   32.1430   43.7326 H   0  0  0  0  0  0  0  0  0  0  0  0
   56.6857   32.8572   45.7327 H   0  0  0  0  0  0  0  0  0  0  0  0
   58.0433   32.2094   46.7325 H   0  0  0  0  0  0  0  0  0  0  0  0
   58.5295   34.4427   44.7990 H   0  0  0  0  0  0  0  0  0  0  0  0
   57.7627   34.7671   46.4004 H   0  0  0  0  0  0  0  0  0  0  0  0
   59.6340   31.8820   46.6460 H   0  0  0  0  0  0  0  0  0  0  0  0
   62.3290   33.6094   45.6954 H   0  0  0  0  0  0  0  0  0  0  0  0
   64.6479   33.6360   46.5590 H   0  0  0  0  0  0  0  0  0  0  0  0
   65.0751   32.7161   48.8285 H   0  0  0  0  0  0  0  0  0  0  0  0
   63.2320   31.7994   50.1911 H   0  0  0  0  0  0  0  0  0  0  0  0
   60.4006   31.5063   51.6361 H   0  0  0  0  0  0  0  0  0  0  0  0
   61.2450   32.9822   51.0971 H   0  0  0  0  0  0  0  0  0  0  0  0
   58.7468   33.1578   51.8016 H   0  0  0  0  0  0  0  0  0  0  0  0
   59.2660   33.9578   50.2770 H   0  0  0  0  0  0  0  0  0  0  0  0
   57.1453   32.2886   50.4609 H   0  0  0  0  0  0  0  0  0  0  0  0
   58.1417   32.5087   48.9684 H   0  0  0  0  0  0  0  0  0  0  0  0
   58.7000   30.4009   51.0771 H   0  0  0  0  0  0  0  0  0  0  0  0
   57.7057   30.1045   49.6280 H   0  0  0  0  0  0  0  0  0  0  0  0
   60.2874   29.6007   49.4418 H   0  0  0  0  0  0  0  0  0  0  0  0
   59.5731   30.5653   48.1291 H   0  0  0  0  0  0  0  0  0  0  0  0
  1  2  1  0
  2  3  2  0
  3  4  1  0
  4  5  2  0
  5  6  1  0
  6  7  2  0
  7  8  1  0
  8  9  2  0
  3 10  1  0
 10 11  1  0
 11 12  1  0
 12 13  1  0
 13 14  1  0
 14 15  1  0
 15 16  1  0
 16 17  1  0
 17 18  2  0
 17 19  1  0
 19 20  1  0
 20 21  2  0
 21 22  1  0
 22 23  2  0
 23 24  1  0
 24 25  2  0
 25 26  1  0
 26 27  1  0
 27 28  1  0
 28 29  1  0
 29 30  1  0
 30 31  1  0
 13 32  2  0
 32 33  1  0
 33 34  2  0
 33 35  1  0
 35  2  1  0
  9  4  1  0
 35 11  2  0
 25 20  1  0
 31 26  1  0
  1 36  1  0
  1 37  1  0
  1 38  1  0
  5 39  1  0
  6 40  1  0
  7 41  1  0
  8 42  1  0
  9 43  1  0
 12 44  1  0
 14 45  1  0
 14 46  1  0
 15 47  1  0
 15 48  1  0
 16 49  1  0
 16 50  1  0
 19 51  1  0
 21 52  1  0
 22 53  1  0
 23 54  1  0
 24 55  1  0
 27 56  1  0
 27 57  1  0
 28 58  1  0
 28 59  1  0
 29 60  1  0
 29 61  1  0
 30 62  1  0
 30 63  1  0
 31 64  1  0
 31 65  1  0
M  END
>  <smiles>  (47) 
Cc1c(-c2ccccc2)sc2[nH]c(CCCC(=O)Nc3ccccc3N3CCCCC3)nc(=O)c12

>  <score_type>  (47) 
oracle

>  <origin>  (47) 
adg

>  <m_score__min__energy>  (47) 
-10.300000000000001

>  <m_primary>  (47) 
energy

$$$$
47:0
     RDKit          3D

 54 57  0  0  0  0  0  0  0  0999 V2000
   56.2760   30.2180   42.9570 C   0  0  0  0  0  0  0  0  0  0  0  0
   56.2680   29.5230   44.2870 C   0  0  0  0  0  0  0  0  0  0  0  0
   55.1610   29.3440   44.8620 O   0  0  0  0  0  0  0  0  0  0  0  0
   57.5210   29.0460   44.9300 C   0  0  0  0  0  0  0  0  0  0  0  0
   58.1690   27.8950   44.4450 C   0  0  0  0  0  0  0  0  0  0  0  0
   59.3700   27.4640   45.0130 C   0  0  0  0  0  0  0  0  0  0  0  0
   59.9450   28.1750   46.0670 C   0  0  0  0  0  0  0  0  0  0  0  0
   59.3100   29.3150   46.5810 C   0  0  0  0  0  0  0  0  0  0  0  0
   59.9310   30.0890   47.6310 N   0  0  0  0  0  0  0  0  0  0  0  0
   60.8580   31.0960   47.0840 C   0  0  0  0  0  0  0  0  0  0  0  0
   61.8270   31.5940   48.1300 C   0  0  0  0  0  0  0  0  0  0  0  0
   63.1580   31.9050   47.8590 C   0  0  0  0  0  0  0  0  0  0  0  0
   63.6390   32.4760   49.0140 C   0  0  0  0  0  0  0  0  0  0  0  0
   64.8970   33.0010   49.2960 C   0  0  0  0  0  0  0  0  0  0  0  0
   65.1060   33.5570   50.5700 C   0  0  0  0  0  0  0  0  0  0  0  0
   64.0610   33.5840   51.5170 C   0  0  0  0  0  0  0  0  0  0  0  0
   62.7970   33.0550   51.2010 C   0  0  0  0  0  0  0  0  0  0  0  0
   62.6170   32.4950   49.9300 C   0  0  0  0  0  0  0  0  0  0  0  0
   61.4960   31.9550   49.4000 N   0  0  0  0  0  0  0  0  0  0  0  0
   60.2180   31.7140   50.0840 C   0  0  0  0  0  0  0  0  0  0  0  0
   59.2140   32.8290   49.7670 C   0  0  0  0  0  0  0  0  0  0  0  0
   58.4840   32.5500   48.5730 O   0  0  0  0  0  0  0  0  0  0  0  0
   58.5840   33.2620   47.3670 C   0  0  0  0  0  0  0  0  0  0  0  0
   59.5700   34.2440   47.1380 C   0  0  0  0  0  0  0  0  0  0  0  0
   59.6070   34.9330   45.9220 C   0  0  0  0  0  0  0  0  0  0  0  0
   58.6700   34.6490   44.9260 C   0  0  0  0  0  0  0  0  0  0  0  0
   57.6960   33.6730   45.1430 C   0  0  0  0  0  0  0  0  0  0  0  0
   57.6550   32.9810   46.3560 C   0  0  0  0  0  0  0  0  0  0  0  0
   58.0930   29.7390   46.0140 C   0  0  0  0  0  0  0  0  0  0  0  0
   56.2885   31.3069   43.1124 H   0  0  0  0  0  0  0  0  0  0  0  0
   57.1708   29.9179   42.3919 H   0  0  0  0  0  0  0  0  0  0  0  0
   55.3746   29.9386   42.3919 H   0  0  0  0  0  0  0  0  0  0  0  0
   57.7260   27.3300   43.6116 H   0  0  0  0  0  0  0  0  0  0  0  0
   59.8647   26.5602   44.6278 H   0  0  0  0  0  0  0  0  0  0  0  0
   60.9006   27.8399   46.4967 H   0  0  0  0  0  0  0  0  0  0  0  0
   59.2000   30.5530   48.2180 H   0  0  0  0  0  0  0  0  0  0  0  0
   60.4670   29.4470   48.2610 H   0  0  0  0  0  0  0  0  0  0  0  0
   61.4270   30.6445   46.2579 H   0  0  0  0  0  0  0  0  0  0  0  0
   60.2637   31.9527   46.7333 H   0  0  0  0  0  0  0  0  0  0  0  0
   63.7067   31.7310   46.9216 H   0  0  0  0  0  0  0  0  0  0  0  0
   65.7015   32.9814   48.5461 H   0  0  0  0  0  0  0  0  0  0  0  0
   66.0903   33.9735   50.8300 H   0  0  0  0  0  0  0  0  0  0  0  0
   64.2362   34.0223   52.5106 H   0  0  0  0  0  0  0  0  0  0  0  0
   61.9740   33.0803   51.9304 H   0  0  0  0  0  0  0  0  0  0  0  0
   59.8054   30.7508   49.7492 H   0  0  0  0  0  0  0  0  0  0  0  0
   60.3959   31.6968   51.1694 H   0  0  0  0  0  0  0  0  0  0  0  0
   58.5072   32.9226   50.6047 H   0  0  0  0  0  0  0  0  0  0  0  0
   59.7723   33.7653   49.6199 H   0  0  0  0  0  0  0  0  0  0  0  0
   60.3121   34.4685   47.9183 H   0  0  0  0  0  0  0  0  0  0  0  0
   60.3758   35.7005   45.7493 H   0  0  0  0  0  0  0  0  0  0  0  0
   58.6996   35.1942   43.9711 H   0  0  0  0  0  0  0  0  0  0  0  0
   56.9594   33.4483   44.3576 H   0  0  0  0  0  0  0  0  0  0  0  0
   56.8877   32.2098   46.5188 H   0  0  0  0  0  0  0  0  0  0  0  0
   57.5824   30.6232   46.4232 H   0  0  0  0  0  0  0  0  0  0  0  0
  1  2  1  0
  2  3  2  0
  2  4  1  0
  4  5  2  0
  5  6  1  0
  6  7  2  0
  7  8  1  0
  8  9  1  0
  9 10  1  0
 10 11  1  0
 11 12  2  0
 12 13  1  0
 13 14  2  0
 14 15  1  0
 15 16  2  0
 16 17  1  0
 17 18  2  0
 18 19  1  0
 19 20  1  0
 20 21  1  0
 21 22  1  0
 22 23  1  0
 23 24  2  0
 24 25  1  0
 25 26  2  0
 26 27  1  0
 27 28  2  0
  8 29  2  0
 29  4  1  0
 19 11  1  0
 28 23  1  0
 18 13  1  0
  1 30  1  0
  1 31  1  0
  1 32  1  0
  5 33  1  0
  6 34  1  0
  7 35  1  0
  9 36  1  0
  9 37  1  0
 10 38  1  0
 10 39  1  0
 12 40  1  0
 14 41  1  0
 15 42  1  0
 16 43  1  0
 17 44  1  0
 20 45  1  0
 20 46  1  0
 21 47  1  0
 21 48  1  0
 24 49  1  0
 25 50  1  0
 26 51  1  0
 27 52  1  0
 28 53  1  0
 29 54  1  0
M  CHG  1   9   1
M  END
>  <UniqueID>  (48) 
37

>  <SMILES>  (48) 
CC(=O)c1cccc([NH2+]Cc2cc3ccccc3n2CCOc2ccccc2)c1

>  <Energy>  (48) 
87.3975041825216

>  <Genealogy>  (48) 
CC(=O)c1cccc([NH2+]Cc2cc3ccccc3n2CCOc2ccccc2)c1 (protonated)
CC(=O)c1cccc([NH2+]Cc2cc3ccccc3n2CCOc2ccccc2)c1 (3D coordinates assigned)
CC(=O)c1cccc([NH2+]Cc2cc3ccccc3n2CCOc2ccccc2)c1 (optimized conformer: 87.3975041825216 kcal/mol)

>  <smiles>  (48) 
CC(=O)c1cccc(NCc2cc3ccccc3n2CCOc2ccccc2)c1

>  <score_type>  (48) 
oracle

>  <origin>  (48) 
adg

>  <m_score__min__energy>  (48) 
-7.2000000000000002

>  <m_primary>  (48) 
energy

$$$$
48:0
     RDKit          3D

 44 46  0  0  0  0  0  0  0  0999 V2000
   55.1680   30.2180   52.4610 C   0  0  0  0  0  0  0  0  0  0  0  0
   56.4470   29.6900   52.1150 O   0  0  0  0  0  0  0  0  0  0  0  0
   57.5120   30.4520   51.6100 C   0  0  0  0  0  0  0  0  0  0  0  0
   58.6390   29.7810   51.1210 C   0  0  0  0  0  0  0  0  0  0  0  0
   59.7210   30.4990   50.5960 C   0  0  0  0  0  0  0  0  0  0  0  0
   59.6890   31.8990   50.5460 C   0  0  0  0  0  0  0  0  0  0  0  0
   60.8280   32.5910   50.0090 N   0  0  0  0  0  0  0  0  0  0  0  0
   60.8930   33.4750   48.5160 S   0  0  0  0  0  0  0  0  0  0  0  0
   62.2600   33.2990   47.9120 O   0  0  0  0  0  0  0  0  0  0  0  0
   60.6880   34.9440   48.7610 O   0  0  0  0  0  0  0  0  0  0  0  0
   59.6870   32.8540   47.3920 C   0  0  0  0  0  0  0  0  0  0  0  0
   59.2460   33.6520   46.3280 C   0  0  0  0  0  0  0  0  0  0  0  0
   58.2750   33.1750   45.4420 C   0  0  0  0  0  0  0  0  0  0  0  0
   57.7540   31.8850   45.5910 C   0  0  0  0  0  0  0  0  0  0  0  0
   56.7660   31.4310   44.6550 N   0  0  0  0  0  0  0  0  0  0  0  0
   56.4550   29.7680   44.2640 S   0  0  0  0  0  0  0  0  0  0  0  0
   56.4160   29.6180   42.7700 O   0  0  0  0  0  0  0  0  0  0  0  0
   55.1250   29.3630   44.8300 O   0  0  0  0  0  0  0  0  0  0  0  0
   57.7390   28.7500   44.9050 C   0  0  0  0  0  0  0  0  0  0  0  0
   57.4380   27.7000   45.7850 C   0  0  0  0  0  0  0  0  0  0  0  0
   58.4580   26.8680   46.2610 C   0  0  0  0  0  0  0  0  0  0  0  0
   59.7810   27.0800   45.8590 C   0  0  0  0  0  0  0  0  0  0  0  0
   60.7660   26.2660   46.3130 F   0  0  0  0  0  0  0  0  0  0  0  0
   60.0880   28.1310   44.9870 C   0  0  0  0  0  0  0  0  0  0  0  0
   59.0690   28.9600   44.5090 C   0  0  0  0  0  0  0  0  0  0  0  0
   58.2020   31.0800   46.6540 C   0  0  0  0  0  0  0  0  0  0  0  0
   59.1530   31.5680   47.5560 C   0  0  0  0  0  0  0  0  0  0  0  0
   58.5590   32.5750   51.0400 C   0  0  0  0  0  0  0  0  0  0  0  0
   57.4800   31.8610   51.5710 C   0  0  0  0  0  0  0  0  0  0  0  0
   55.0717   30.2577   53.5561 H   0  0  0  0  0  0  0  0  0  0  0  0
   55.0656   31.2319   52.0469 H   0  0  0  0  0  0  0  0  0  0  0  0
   54.3802   29.5716   52.0469 H   0  0  0  0  0  0  0  0  0  0  0  0
   58.6751   28.6820   51.1492 H   0  0  0  0  0  0  0  0  0  0  0  0
   60.6028   29.9596   50.2200 H   0  0  0  0  0  0  0  0  0  0  0  0
   59.6659   34.6591   46.1889 H   0  0  0  0  0  0  0  0  0  0  0  0
   57.9188   33.8175   44.6233 H   0  0  0  0  0  0  0  0  0  0  0  0
   56.3984   27.5301   46.1016 H   0  0  0  0  0  0  0  0  0  0  0  0
   58.2189   26.0463   46.9521 H   0  0  0  0  0  0  0  0  0  0  0  0
   61.1295   28.3043   44.6783 H   0  0  0  0  0  0  0  0  0  0  0  0
   59.3109   29.7815   43.8186 H   0  0  0  0  0  0  0  0  0  0  0  0
   57.8027   30.0624   46.7764 H   0  0  0  0  0  0  0  0  0  0  0  0
   59.4832   30.9406   48.3971 H   0  0  0  0  0  0  0  0  0  0  0  0
   58.5235   33.6740   51.0085 H   0  0  0  0  0  0  0  0  0  0  0  0
   56.6036   32.4004   51.9595 H   0  0  0  0  0  0  0  0  0  0  0  0
  1  2  1  0
  2  3  1  0
  3  4  2  0
  4  5  1  0
  5  6  2  0
  6  7  1  0
  7  8  1  0
  8  9  2  0
  8 10  2  0
  8 11  1  0
 11 12  2  0
 12 13  1  0
 13 14  2  0
 14 15  1  0
 15 16  1  0
 16 17  2  0
 16 18  2  0
 16 19  1  0
 19 20  2  0
 20 21  1  0
 21 22  2  0
 22 23  1  0
 22 24  1  0
 24 25  2  0
 14 26  1  0
 26 27  2  0
  6 28  1  0
 28 29  2  0
 29  3  1  0
 27 11  1  0
 25 19  1  0
  1 30  1  0
  1 31  1  0
  1 32  1  0
  4 33  1  0
  5 34  1  0
 12 35  1  0
 13 36  1  0
 20 37  1  0
 21 38  1  0
 24 39  1  0
 25 40  1  0
 26 41  1  0
 27 42  1  0
 28 43  1  0
 29 44  1  0
M  CHG  2   7  -1  15  -1
M  END
>  <UniqueID>  (49) 
38

>  <SMILES>  (49) 
COc1ccc([N-]S(=O)(=O)c2ccc([N-]S(=O)(=O)c3ccc(F)cc3)cc2)cc1

>  <Energy>  (49) 
53.827616095519026

>  <Genealogy>  (49) 
COc1ccc([N-]S(=O)(=O)c2ccc([N-]S(=O)(=O)c3ccc(F)cc3)cc2)cc1 (protonated)
COc1ccc([N-]S(=O)(=O)c2ccc([N-]S(=O)(=O)c3ccc(F)cc3)cc2)cc1 (3D coordinates assigned)
COc1ccc([N-]S(=O)(=O)c2ccc([N-]S(=O)(=O)c3ccc(F)cc3)cc2)cc1 (optimized conformer: 53.827616095519026 kcal/mol)

>  <smiles>  (49) 
COc1ccc(NS(=O)(=O)c2ccc(NS(=O)(=O)c3ccc(F)cc3)cc2)cc1

>  <score_type>  (49) 
oracle

>  <origin>  (49) 
adg

>  <m_score__min__energy>  (49) 
-10.75

>  <m_primary>  (49) 
energy

$$$$
49:0
     RDKit          3D

 55 58  0  0  1  0  0  0  0  0999 V2000
   54.1280   24.8840   45.6210 C   0  0  0  0  0  0  0  0  0  0  0  0
   54.8080   26.0790   45.9540 O   0  0  0  0  0  0  0  0  0  0  0  0
   56.1920   26.0130   46.0800 C   0  0  0  0  0  0  0  0  0  0  0  0
   56.8160   24.8100   46.2690 C   0  0  0  0  0  0  0  0  0  0  0  0
   58.1960   24.8280   46.3860 C   0  0  0  0  0  0  0  0  0  0  0  0
   58.9380   25.9910   46.3190 C   0  0  0  0  0  0  0  0  0  0  0  0
   58.3060   27.2020   46.1290 C   0  0  0  0  0  0  0  0  0  0  0  0
   59.0310   28.4840   46.0480 C   0  0  0  0  0  0  0  0  0  0  0  0
   58.2500   29.6000   46.6040 N   0  0  0  0  0  0  0  0  0  0  0  0
   58.0070   30.6240   45.8530 C   0  0  0  0  0  0  0  0  0  0  0  0
   57.0300   30.4900   44.9230 N   0  0  0  0  0  0  0  0  0  0  0  0
   56.7490   31.5350   44.1240 C   0  0  0  0  0  0  0  0  0  0  0  0
   57.3890   32.7170   44.1970 N   0  0  0  0  0  0  0  0  0  0  0  0
   58.3560   32.8390   45.1210 C   0  0  0  0  0  0  0  0  0  0  0  0
   59.0070   34.0620   45.1860 C   0  0  0  0  0  0  0  0  0  0  0  0
   60.0170   34.2160   46.1410 C   0  0  0  0  0  0  0  0  0  0  0  0
   60.3360   33.1670   46.9780 C   0  0  0  0  0  0  0  0  0  0  0  0
   61.4050   33.3980   47.9600 C   0  0  0  0  0  0  0  0  0  0  0  0
   61.0550   33.5630   49.2960 C   0  0  0  0  0  0  0  0  0  0  0  0
   62.0030   33.7830   50.2830 C   0  0  0  0  0  0  0  0  0  0  0  0
   63.3430   33.8370   49.9030 C   0  0  0  0  0  0  0  0  0  0  0  0
   64.4160   34.0600   50.8730 C   0  0  0  0  0  0  0  0  0  0  0  0
   64.2620   35.0890   51.6170 O   0  0  0  0  0  0  0  0  0  0  0  0
   65.5430   33.2210   50.9950 N   0  0  0  0  0  0  0  0  0  0  0  0
   65.7730   32.0410   50.1830 C   0  0  0  0  0  0  0  0  0  0  0  0
   66.5410   33.5490   51.9940 C   0  0  0  0  0  0  0  0  0  0  0  0
   63.6860   33.6710   48.5630 C   0  0  0  0  0  0  0  0  0  0  0  0
   62.7370   33.4520   47.5820 C   0  0  0  0  0  0  0  0  0  0  0  0
   59.6910   31.9420   46.9210 C   0  0  0  0  0  0  0  0  0  0  0  0
   58.6980   31.8110   45.9740 C   0  0  0  0  0  0  0  0  0  0  0  0
   56.9130   27.2010   46.0090 C   0  0  0  0  0  0  0  0  0  0  0  0
   53.8310   24.3621   46.5426 H   0  0  0  0  0  0  0  0  0  0  0  0
   53.2315   25.1246   45.0307 H   0  0  0  0  0  0  0  0  0  0  0  0
   54.7927   24.2362   45.0307 H   0  0  0  0  0  0  0  0  0  0  0  0
   56.2469   23.8703   46.3255 H   0  0  0  0  0  0  0  0  0  0  0  0
   58.7237   23.8750   46.5389 H   0  0  0  0  0  0  0  0  0  0  0  0
   60.0329   25.9514   46.4172 H   0  0  0  0  0  0  0  0  0  0  0  0
   59.9719   28.3951   46.6108 H   0  0  0  0  0  0  0  0  0  0  0  0
   59.2188   28.6993   44.9858 H   0  0  0  0  0  0  0  0  0  0  0  0
   55.9550   31.4176   43.3719 H   0  0  0  0  0  0  0  0  0  0  0  0
   57.1350   33.5110   43.5500 H   0  0  0  0  0  0  0  0  0  0  0  0
   58.7374   34.8849   44.5077 H   0  0  0  0  0  0  0  0  0  0  0  0
   60.5558   35.1714   46.2245 H   0  0  0  0  0  0  0  0  0  0  0  0
   59.9928   33.5175   49.5781 H   0  0  0  0  0  0  0  0  0  0  0  0
   61.7067   33.9111   51.3346 H   0  0  0  0  0  0  0  0  0  0  0  0
   65.9422   31.1730   50.8372 H   0  0  0  0  0  0  0  0  0  0  0  0
   64.8941   31.8558   49.5481 H   0  0  0  0  0  0  0  0  0  0  0  0
   66.6572   32.1995   49.5481 H   0  0  0  0  0  0  0  0  0  0  0  0
   66.1145   33.4088   52.9982 H   0  0  0  0  0  0  0  0  0  0  0  0
   67.4133   32.8903   51.8709 H   0  0  0  0  0  0  0  0  0  0  0  0
   66.8525   34.5968   51.8709 H   0  0  0  0  0  0  0  0  0  0  0  0
   64.7470   33.7157   48.2761 H   0  0  0  0  0  0  0  0  0  0  0  0
   63.0313   33.3241   46.5298 H   0  0  0  0  0  0  0  0  0  0  0  0
   59.9578   31.1162   47.5970 H   0  0  0  0  0  0  0  0  0  0  0  0
   56.3803   28.1513   45.8565 H   0  0  0  0  0  0  0  0  0  0  0  0
  1  2  1  0
  2  3  1  0
  3  4  2  0
  4  5  1  0
  5  6  2  0
  6  7  1  0
  7  8  1  0
  8  9  1  0
  9 10  2  0
 10 11  1  0
 11 12  2  0
 12 13  1  0
 13 14  1  0
 14 15  2  0
 15 16  1  0
 16 17  2  0
 17 18  1  0
 18 19  2  0
 19 20  1  0
 20 21  2  0
 21 22  1  0
 22 23  2  0
 22 24  1  0
 24 25  1  0
 24 26  1  0
 21 27  1  0
 27 28  2  0
 17 29  1  0
 29 30  2  0
  7 31  2  0
 31  3  1  0
 30 10  1  0
 30 14  1  0
 28 18  1  0
  1 32  1  0
  1 33  1  0
  1 34  1  0
  4 35  1  0
  5 36  1  0
  6 37  1  0
  8 38  1  0
  8 39  1  0
 12 40  1  0
 13 41  1  0
 15 42  1  0
 16 43  1  0
 19 44  1  0
 20 45  1  0
 25 46  1  0
 25 47  1  0
 25 48  1  0
 26 49  1  0
 26 50  1  0
 26 51  1  0
 27 52  1  0
 28 53  1  0
 29 54  1  0
 31 55  1  0
M  END
>  <smiles>  (50) 
COc1cccc(CN=c2nc[nH]c3ccc(-c4ccc(C(=O)N(C)C)cc4)cc23)c1

>  <score_type>  (50) 
oracle

>  <origin>  (50) 
adg

>  <m_score__min__energy>  (50) 
-9.4700000000000006

>  <m_primary>  (50) 
energy

$$$$
50:0
     RDKit          3D

 32 33  0  0  0  0  0  0  0  0999 V2000
   56.9450   27.4140   45.6620 C   0  0  0  0  0  0  0  0  0  0  0  0
   55.9180   28.3430   45.2150 N   0  0  0  0  0  0  0  0  0  0  0  0
   56.2130   29.6700   44.7770 C   0  0  0  0  0  0  0  0  0  0  0  0
   55.3210   30.3620   44.2150 O   0  0  0  0  0  0  0  0  0  0  0  0
   57.4820   30.2020   45.0340 O   0  0  0  0  0  0  0  0  0  0  0  0
   57.7590   31.5540   45.2890 C   0  0  0  0  0  0  0  0  0  0  0  0
   57.4570   32.4950   44.2980 C   0  0  0  0  0  0  0  0  0  0  0  0
   57.7030   33.8520   44.5120 C   0  0  0  0  0  0  0  0  0  0  0  0
   58.2460   34.2850   45.7240 C   0  0  0  0  0  0  0  0  0  0  0  0
   58.5430   33.3590   46.7350 C   0  0  0  0  0  0  0  0  0  0  0  0
   59.0750   33.8340   48.0610 C   0  0  0  0  0  0  0  0  0  0  0  0
   60.5390   33.6840   48.1070 N   0  0  0  0  0  0  0  0  0  0  0  0
   61.2290   33.5390   46.9360 C   0  0  0  0  0  0  0  0  0  0  0  0
   62.6170   33.4240   46.9420 C   0  0  0  0  0  0  0  0  0  0  0  0
   63.2850   33.4680   48.1610 C   0  0  0  0  0  0  0  0  0  0  0  0
   64.5400   33.3670   48.1960 O   0  0  0  0  0  0  0  0  0  0  0  0
   62.5800   33.6210   49.3130 N   0  0  0  0  0  0  0  0  0  0  0  0
   61.2220   33.7320   49.2970 C   0  0  0  0  0  0  0  0  0  0  0  0
   60.6040   33.8790   50.3870 O   0  0  0  0  0  0  0  0  0  0  0  0
   58.2870   31.9940   46.5190 C   0  0  0  0  0  0  0  0  0  0  0  0
   56.9675   27.3936   46.7616 H   0  0  0  0  0  0  0  0  0  0  0  0
   56.7194   26.4070   45.2812 H   0  0  0  0  0  0  0  0  0  0  0  0
   57.9244   27.7391   45.2812 H   0  0  0  0  0  0  0  0  0  0  0  0
   57.0226   32.1626   43.3436 H   0  0  0  0  0  0  0  0  0  0  0  0
   57.4686   34.5828   43.7239 H   0  0  0  0  0  0  0  0  0  0  0  0
   58.4413   35.3553   45.8861 H   0  0  0  0  0  0  0  0  0  0  0  0
   58.8142   34.8938   48.1981 H   0  0  0  0  0  0  0  0  0  0  0  0
   58.6277   33.2292   48.8636 H   0  0  0  0  0  0  0  0  0  0  0  0
   60.6836   33.5129   45.9811 H   0  0  0  0  0  0  0  0  0  0  0  0
   63.1738   33.3008   46.0013 H   0  0  0  0  0  0  0  0  0  0  0  0
   63.0890   33.6560   50.2270 H   0  0  0  0  0  0  0  0  0  0  0  0
   58.5001   31.2650   47.3147 H   0  0  0  0  0  0  0  0  0  0  0  0
  1  2  1  0
  2  3  1  0
  3  4  2  0
  3  5  1  0
  5  6  1  0
  6  7  2  0
  7  8  1  0
  8  9  2  0
  9 10  1  0
 10 11  1  0
 11 12  1  0
 12 13  1  0
 13 14  2  0
 14 15  1  0
 15 16  2  0
 15 17  1  0
 17 18  1  0
 18 19  2  0
 10 20  2  0
 20  6  1  0
 18 12  1  0
  1 21  1  0
  1 22  1  0
  1 23  1  0
  7 24  1  0
  8 25  1  0
  9 26  1  0
 11 27  1  0
 11 28  1  0
 13 29  1  0
 14 30  1  0
 17 31  1  0
 20 32  1  0
M  CHG  1   2  -1
M  END
>  <UniqueID>  (51) 
39

>  <SMILES>  (51) 
C[N-]C(=O)Oc1cccc(Cn2ccc(=O)[nH]c2=O)c1

>  <Energy>  (51) 
35.73208423925047

>  <Genealogy>  (51) 
C[N-]C(=O)Oc1cccc(Cn2ccc(=O)[nH]c2=O)c1 (protonated)
C[N-]C(=O)Oc1cccc(Cn2ccc(=O)[nH]c2=O)c1 (3D coordinates assigned)
C[N-]C(=O)Oc1cccc(Cn2ccc(=O)[nH]c2=O)c1 (optimized conformer: 35.73208423925047 kcal/mol)

>  <smiles>  (51) 
CNC(=O)Oc1cccc(Cn2ccc(=O)[nH]c2=O)c1

>  <score_type>  (51) 
oracle

>  <origin>  (51) 
adg

>  <m_score__min__energy>  (51) 
-8.5899999999999999

>  <m_primary>  (51) 
energy

$$$$
51:0
     RDKit          3D

 40 42  0  0  0  0  0  0  0  0999 V2000
   55.2676   27.9855   53.3265 H   0  0  0  0  0  0  0  0  0  0  0  0
   54.9800   29.0470   53.3060 C   0  0  0  0  0  0  0  0  0  0  0  0
   53.6950   29.3800   53.4850 C   0  0  0  0  0  0  0  0  0  0  0  0
   53.1986   29.0525   54.4104 H   0  0  0  0  0  0  0  0  0  0  0  0
   52.9030   30.1650   52.5070 C   0  0  0  0  0  0  0  0  0  0  0  0
   52.9150   29.7680   51.1630 C   0  0  0  0  0  0  0  0  0  0  0  0
   53.5103   28.8943   50.8591 H   0  0  0  0  0  0  0  0  0  0  0  0
   52.1800   30.4690   50.2060 C   0  0  0  0  0  0  0  0  0  0  0  0
   52.2070   30.1489   49.1539 H   0  0  0  0  0  0  0  0  0  0  0  0
   51.4050   31.5820   50.5780 C   0  0  0  0  0  0  0  0  0  0  0  0
   50.6560   32.3140   49.6440 O   0  0  0  0  0  0  0  0  0  0  0  0
   50.5290   31.9730   48.2670 C   0  0  0  0  0  0  0  0  0  0  0  0
   50.1464   30.9456   48.1775 H   0  0  0  0  0  0  0  0  0  0  0  0
   49.8296   32.6685   47.7800 H   0  0  0  0  0  0  0  0  0  0  0  0
   51.5129   32.0416   47.7800 H   0  0  0  0  0  0  0  0  0  0  0  0
   51.3680   31.9810   51.9220 C   0  0  0  0  0  0  0  0  0  0  0  0
   50.5760   33.0900   52.2640 O   0  0  0  0  0  0  0  0  0  0  0  0
   50.2320   33.4580   53.5960 C   0  0  0  0  0  0  0  0  0  0  0  0
   50.8059   32.8441   54.3058 H   0  0  0  0  0  0  0  0  0  0  0  0
   50.4683   34.5204   53.7555 H   0  0  0  0  0  0  0  0  0  0  0  0
   49.1561   33.2937   53.7555 H   0  0  0  0  0  0  0  0  0  0  0  0
   52.1130   31.2690   52.8840 C   0  0  0  0  0  0  0  0  0  0  0  0
   52.0772   31.5783   53.9390 H   0  0  0  0  0  0  0  0  0  0  0  0
   56.0140   30.0660   53.0830 C   0  0  0  0  0  0  0  0  0  0  0  0
   56.5450   30.3370   51.8710 N   0  0  0  0  0  0  0  0  0  0  0  0
   57.4270   31.3180   52.1650 C   0  0  0  0  0  0  0  0  0  0  0  0
   58.2880   31.9750   51.1500 C   0  0  0  0  0  0  0  0  0  0  0  0
   58.8890   33.2250   51.3960 C   0  0  0  0  0  0  0  0  0  0  0  0
   58.7228   33.7316   52.3581 H   0  0  0  0  0  0  0  0  0  0  0  0
   59.6960   33.8260   50.4240 C   0  0  0  0  0  0  0  0  0  0  0  0
   60.1610   34.8025   50.6246 H   0  0  0  0  0  0  0  0  0  0  0  0
   59.9130   33.1900   49.2000 C   0  0  0  0  0  0  0  0  0  0  0  0
   60.5481   33.6651   48.4379 H   0  0  0  0  0  0  0  0  0  0  0  0
   59.3230   31.9500   48.9440 C   0  0  0  0  0  0  0  0  0  0  0  0
   59.4942   31.4484   47.9801 H   0  0  0  0  0  0  0  0  0  0  0  0
   58.5150   31.3460   49.9120 C   0  0  0  0  0  0  0  0  0  0  0  0
   58.0524   30.3699   49.7038 H   0  0  0  0  0  0  0  0  0  0  0  0
   57.4150   31.6090   53.4820 N   0  0  0  0  0  0  0  0  0  0  0  0
   57.9780   32.3130   54.0040 H   0  0  0  0  0  0  0  0  0  0  0  0
   56.5360   30.8220   54.0180 O   0  0  0  0  0  0  0  0  0  0  0  0
  1  2  1  0
  2  3  2  0
  3  4  1  0
  3  5  1  0
  5  6  2  0
  6  7  1  0
  6  8  1  0
  8  9  1  0
  8 10  2  0
 10 11  1  0
 11 12  1  0
 12 13  1  0
 12 14  1  0
 12 15  1  0
 10 16  1  0
 16 17  1  0
 17 18  1  0
 18 19  1  0
 18 20  1  0
 18 21  1  0
 16 22  2  0
 22 23  1  0
  2 24  1  0
 24 25  2  0
 25 26  1  0
 26 27  1  0
 27 28  2  0
 28 29  1  0
 28 30  1  0
 30 31  1  0
 30 32  2  0
 32 33  1  0
 32 34  1  0
 34 35  1  0
 34 36  2  0
 36 37  1  0
 26 38  2  0
 38 39  1  0
 38 40  1  0
 22  5  1  0
 40 24  1  0
 36 27  1  0
M  CHG  1  38   1
M  END
>  <UniqueID>  (52) 
40

>  <SMILES>  (52) 
COc1ccc(/C=C/c2nc(-c3ccccc3)[nH+]o2)cc1OC

>  <Energy>  (52) 
77.99418457974467

>  <Genealogy>  (52) 
COc1ccc(C=Cc2nc(-c3ccccc3)[nH+]o2)cc1OC (protonated)
COc1ccc(/C=C/c2nc(-c3ccccc3)[nH+]o2)cc1OC (cis-trans isomerization)
COc1ccc(/C=C/c2nc(-c3ccccc3)[nH+]o2)cc1OC (3D coordinates assigned)
COc1ccc(/C=C/c2nc(-c3ccccc3)[nH+]o2)cc1OC (optimized conformer: 77.99418457974467 kcal/mol)

>  <smiles>  (52) 
COc1ccc(C=Cc2nc(-c3ccccc3)no2)cc1OC

>  <score_type>  (52) 
oracle

>  <origin>  (52) 
adg

>  <m_score__min__energy>  (52) 
-6.8399999999999999

>  <m_primary>  (52) 
energy

$$$$
52:0
     RDKit          3D

 38 40  0  0  0  0  0  0  0  0999 V2000
   59.9334   29.2269   44.2900 H   0  0  0  0  0  0  0  0  0  0  0  0
   59.2230   28.6120   44.8620 C   0  0  0  0  0  0  0  0  0  0  0  0
   58.0540   28.3140   44.2570 C   0  0  0  0  0  0  0  0  0  0  0  0
   57.9740   27.3700   43.1660 C   0  0  0  0  0  0  0  0  0  0  0  0
   57.9160   26.6200   42.2850 N   0  0  0  0  0  0  0  0  0  0  0  0
   56.7860   28.9240   44.7280 C   0  0  0  0  0  0  0  0  0  0  0  0
   55.9000   28.1920   45.2470 O   0  0  0  0  0  0  0  0  0  0  0  0
   56.5400   30.3260   44.5440 N   0  0  0  0  0  0  0  0  0  0  0  0
   57.3450   31.4080   45.0330 C   0  0  0  0  0  0  0  0  0  0  0  0
   58.1400   31.2850   46.1880 C   0  0  0  0  0  0  0  0  0  0  0  0
   58.1410   30.3421   46.7544 H   0  0  0  0  0  0  0  0  0  0  0  0
   58.9280   32.3560   46.6180 C   0  0  0  0  0  0  0  0  0  0  0  0
   59.5409   32.2558   47.5259 H   0  0  0  0  0  0  0  0  0  0  0  0
   58.9400   33.5580   45.8960 C   0  0  0  0  0  0  0  0  0  0  0  0
   59.9240   34.9130   46.4400 S   0  0  0  0  0  0  0  0  0  0  0  0
   59.6980   36.1160   45.5680 O   0  0  0  0  0  0  0  0  0  0  0  0
   59.5410   35.2550   47.8520 O   0  0  0  0  0  0  0  0  0  0  0  0
   61.6050   34.4880   46.3950 N   0  0  0  0  0  0  0  0  0  0  0  0
   62.2140   33.7870   47.3030 C   0  0  0  0  0  0  0  0  0  0  0  0
   63.6610   32.9810   47.0340 S   0  0  0  0  0  0  0  0  0  0  0  0
   63.7410   32.3850   48.6080 C   0  0  0  0  0  0  0  0  0  0  0  0
   64.5383   31.7468   49.0167 H   0  0  0  0  0  0  0  0  0  0  0  0
   62.6240   32.8400   49.3010 C   0  0  0  0  0  0  0  0  0  0  0  0
   62.4390   32.5901   50.3561 H   0  0  0  0  0  0  0  0  0  0  0  0
   61.7790   33.6170   48.5740 N   0  0  0  0  0  0  0  0  0  0  0  0
   60.9030   34.0200   48.9720 H   0  0  0  0  0  0  0  0  0  0  0  0
   58.1730   33.6720   44.7300 C   0  0  0  0  0  0  0  0  0  0  0  0
   58.1899   34.6073   44.1512 H   0  0  0  0  0  0  0  0  0  0  0  0
   57.3860   32.6000   44.3000 C   0  0  0  0  0  0  0  0  0  0  0  0
   56.7938   32.6937   43.3778 H   0  0  0  0  0  0  0  0  0  0  0  0
   59.6460   28.1940   46.2200 C   0  0  0  0  0  0  0  0  0  0  0  0
   60.2800   29.1420   47.4640 S   0  0  0  0  0  0  0  0  0  0  0  0
   60.3900   27.9230   48.6120 C   0  0  0  0  0  0  0  0  0  0  0  0
   60.7684   28.0344   49.6388 H   0  0  0  0  0  0  0  0  0  0  0  0
   59.9200   26.7500   48.0390 C   0  0  0  0  0  0  0  0  0  0  0  0
   59.8817   25.7912   48.5768 H   0  0  0  0  0  0  0  0  0  0  0  0
   59.4990   26.9010   46.7120 C   0  0  0  0  0  0  0  0  0  0  0  0
   59.0898   26.0736   46.1138 H   0  0  0  0  0  0  0  0  0  0  0  0
  1  2  1  0
  2  3  2  3
  3  4  1  0
  4  5  3  0
  3  6  1  0
  6  7  2  0
  6  8  1  0
  8  9  1  0
  9 10  2  0
 10 11  1  0
 10 12  1  0
 12 13  1  0
 12 14  2  0
 14 15  1  0
 15 16  2  0
 15 17  2  0
 15 18  1  0
 18 19  2  0
 19 20  1  0
 20 21  1  0
 21 22  1  0
 21 23  2  0
 23 24  1  0
 23 25  1  0
 25 26  1  0
 14 27  1  0
 27 28  1  0
 27 29  2  0
 29 30  1  0
  2 31  1  0
 31 32  1  0
 32 33  1  0
 33 34  1  0
 33 35  2  0
 35 36  1  0
 35 37  1  0
 37 38  1  0
 29  9  1  0
 37 31  2  0
 25 19  1  0
M  CHG  1   8  -1
M  END
>  <UniqueID>  (53) 
41

>  <SMILES>  (53) 
N#CC(=Cc1cccs1)C(=O)[N-]c1ccc(S(=O)(=O)/N=c2\[nH]ccs2)cc1

>  <Energy>  (53) 
106.65712609981465

>  <Genealogy>  (53) 
N#CC(=Cc1cccs1)C(=O)[N-]c1ccc(S(=O)(=O)N=c2[nH]ccs2)cc1 (protonated)
N#CC(=Cc1cccs1)C(=O)[N-]c1ccc(S(=O)(=O)/N=c2\[nH]ccs2)cc1 (cis-trans isomerization)
N#CC(=Cc1cccs1)C(=O)[N-]c1ccc(S(=O)(=O)/N=c2\[nH]ccs2)cc1 (3D coordinates assigned)
N#CC(=Cc1cccs1)C(=O)[N-]c1ccc(S(=O)(=O)/N=c2\[nH]ccs2)cc1 (optimized conformer: 106.65712609981465 kcal/mol)

>  <smiles>  (53) 
N#CC(=Cc1cccs1)C(=O)Nc1ccc(S(=O)(=O)N=c2[nH]ccs2)cc1

>  <score_type>  (53) 
oracle

>  <origin>  (53) 
adg

>  <m_score__min__energy>  (53) 
-9.6799999999999997

>  <m_primary>  (53) 
energy

$$$$
53:0
     RDKit          3D

 31 33  0  0  0  0  0  0  0  0999 V2000
   55.1480   29.3460   44.4310 N   0  0  0  0  0  0  0  0  0  0  0  0
   55.9830   30.0870   44.1300 C   0  0  0  0  0  0  0  0  0  0  0  0
   57.0410   31.0300   43.7490 C   0  0  0  0  0  0  0  0  0  0  0  0
   58.0010   31.2320   44.8990 C   0  0  0  0  0  0  0  0  0  0  0  0
   58.4110   30.1080   45.6340 C   0  0  0  0  0  0  0  0  0  0  0  0
   59.3030   30.2470   46.7090 C   0  0  0  0  0  0  0  0  0  0  0  0
   59.7490   29.0770   47.5090 C   0  0  0  0  0  0  0  0  0  0  0  0
   59.9140   27.8260   46.8860 C   0  0  0  0  0  0  0  0  0  0  0  0
   60.3410   26.7160   47.6220 C   0  0  0  0  0  0  0  0  0  0  0  0
   60.6150   26.8430   48.9850 C   0  0  0  0  0  0  0  0  0  0  0  0
   60.4680   28.0810   49.6140 C   0  0  0  0  0  0  0  0  0  0  0  0
   60.0410   29.1950   48.8830 C   0  0  0  0  0  0  0  0  0  0  0  0
   59.7880   31.4800   47.0140 N   0  0  0  0  0  0  0  0  0  0  0  0
   59.4340   32.5950   46.3240 C   0  0  0  0  0  0  0  0  0  0  0  0
   59.9770   33.8320   46.6910 C   0  0  0  0  0  0  0  0  0  0  0  0
   59.6320   34.9860   45.9880 C   0  0  0  0  0  0  0  0  0  0  0  0
   58.7460   34.9120   44.9120 C   0  0  0  0  0  0  0  0  0  0  0  0
   58.1970   33.6830   44.5340 C   0  0  0  0  0  0  0  0  0  0  0  0
   58.5280   32.5050   45.2380 C   0  0  0  0  0  0  0  0  0  0  0  0
   57.5899   30.6297   42.8838 H   0  0  0  0  0  0  0  0  0  0  0  0
   56.5836   31.9963   43.4901 H   0  0  0  0  0  0  0  0  0  0  0  0
   58.0305   29.1114   45.3655 H   0  0  0  0  0  0  0  0  0  0  0  0
   59.7054   27.7203   45.8112 H   0  0  0  0  0  0  0  0  0  0  0  0
   60.4611   25.7415   47.1262 H   0  0  0  0  0  0  0  0  0  0  0  0
   60.9466   25.9680   49.5633 H   0  0  0  0  0  0  0  0  0  0  0  0
   60.6885   28.1807   50.6871 H   0  0  0  0  0  0  0  0  0  0  0  0
   59.9325   30.1686   49.3834 H   0  0  0  0  0  0  0  0  0  0  0  0
   60.6780   33.8940   47.5365 H   0  0  0  0  0  0  0  0  0  0  0  0
   60.0589   35.9562   46.2820 H   0  0  0  0  0  0  0  0  0  0  0  0
   58.4786   35.8245   44.3591 H   0  0  0  0  0  0  0  0  0  0  0  0
   57.5025   33.6336   43.6824 H   0  0  0  0  0  0  0  0  0  0  0  0
  1  2  3  0
  2  3  1  0
  3  4  1  0
  4  5  2  0
  5  6  1  0
  6  7  1  0
  7  8  2  0
  8  9  1  0
  9 10  2  0
 10 11  1  0
 11 12  2  0
  6 13  2  0
 13 14  1  0
 14 15  2  0
 15 16  1  0
 16 17  2  0
 17 18  1  0
 18 19  2  0
 19  4  1  0
 12  7  1  0
 19 14  1  0
  3 20  1  0
  3 21  1  0
  5 22  1  0
  8 23  1  0
  9 24  1  0
 10 25  1  0
 11 26  1  0
 12 27  1  0
 15 28  1  0
 16 29  1  0
 17 30  1  0
 18 31  1  0
M  END
>  <UniqueID>  (54) 
42

>  <SMILES>  (54) 
N#CCc1cc(-c2ccccc2)nc2ccccc12

>  <Energy>  (54) 
41.6077570950513

>  <Genealogy>  (54) 
N#CCc1cc(-c2ccccc2)nc2ccccc12 (3D coordinates assigned)
N#CCc1cc(-c2ccccc2)nc2ccccc12 (optimized conformer: 41.6077570950513 kcal/mol)

>  <smiles>  (54) 
N#CCc1cc(-c2ccccc2)nc2ccccc12

>  <score_type>  (54) 
oracle

>  <origin>  (54) 
adg

>  <m_score__min__energy>  (54) 
-6.8300000000000001

>  <m_primary>  (54) 
energy

$$$$
54:0
     RDKit          3D

 39 41  0  0  0  0  0  0  0  0999 V2000
   57.1950   27.2015   44.1207 H   0  0  0  0  0  0  0  0  0  0  0  0
   57.6100   27.0970   45.1340 C   0  0  0  0  0  0  0  0  0  0  0  0
   58.4190   28.0260   45.5620 N   0  0  0  0  0  0  0  0  0  0  0  0
   58.2060   29.4470   45.5410 C   0  0  0  0  0  0  0  0  0  0  0  0
   57.9750   30.0780   44.3130 C   0  0  0  0  0  0  0  0  0  0  0  0
   57.9380   29.4806   43.3901 H   0  0  0  0  0  0  0  0  0  0  0  0
   57.7910   31.4630   44.2520 C   0  0  0  0  0  0  0  0  0  0  0  0
   57.5999   31.9478   43.2833 H   0  0  0  0  0  0  0  0  0  0  0  0
   57.8490   32.2370   45.4210 C   0  0  0  0  0  0  0  0  0  0  0  0
   57.6850   33.7310   45.3510 C   0  0  0  0  0  0  0  0  0  0  0  0
   57.0315   33.9838   44.5030 H   0  0  0  0  0  0  0  0  0  0  0  0
   57.2392   34.0838   46.2927 H   0  0  0  0  0  0  0  0  0  0  0  0
   59.0430   34.4130   45.1610 C   0  0  0  0  0  0  0  0  0  0  0  0
   59.5836   33.9199   44.3397 H   0  0  0  0  0  0  0  0  0  0  0  0
   58.8772   35.4742   44.9238 H   0  0  0  0  0  0  0  0  0  0  0  0
   59.8630   34.3190   46.4200 C   0  0  0  0  0  0  0  0  0  0  0  0
   61.1880   33.8560   46.3700 C   0  0  0  0  0  0  0  0  0  0  0  0
   61.6374   33.5844   45.4034 H   0  0  0  0  0  0  0  0  0  0  0  0
   61.9380   33.7390   47.5440 C   0  0  0  0  0  0  0  0  0  0  0  0
   62.9782   33.3843   47.4981 H   0  0  0  0  0  0  0  0  0  0  0  0
   61.3680   34.0720   48.7760 C   0  0  0  0  0  0  0  0  0  0  0  0
   62.0960   33.9560   49.9140 F   0  0  0  0  0  0  0  0  0  0  0  0
   60.0440   34.5210   48.8360 C   0  0  0  0  0  0  0  0  0  0  0  0
   59.5950   34.7805   49.8061 H   0  0  0  0  0  0  0  0  0  0  0  0
   59.2910   34.6400   47.6630 C   0  0  0  0  0  0  0  0  0  0  0  0
   58.2480   34.9859   47.7137 H   0  0  0  0  0  0  0  0  0  0  0  0
   58.1290   31.6120   46.6460 C   0  0  0  0  0  0  0  0  0  0  0  0
   58.2040   32.2141   47.5635 H   0  0  0  0  0  0  0  0  0  0  0  0
   58.3130   30.2270   46.7050 C   0  0  0  0  0  0  0  0  0  0  0  0
   58.5426   29.7458   47.6672 H   0  0  0  0  0  0  0  0  0  0  0  0
   57.2150   25.9100   45.9270 C   0  0  0  0  0  0  0  0  0  0  0  0
   55.8850   25.7590   46.3450 C   0  0  0  0  0  0  0  0  0  0  0  0
   54.9210   26.7000   46.0000 O   0  0  0  0  0  0  0  0  0  0  0  0
   55.5230   24.6780   47.0830 N   0  0  0  0  0  0  0  0  0  0  0  0
   56.4350   23.7370   47.4410 C   0  0  0  0  0  0  0  0  0  0  0  0
   55.9710   22.4460   48.3250 S   0  0  0  0  0  0  0  0  0  0  0  0
   57.7350   23.8770   47.0760 N   0  0  0  0  0  0  0  0  0  0  0  0
   58.1470   24.9410   46.3400 C   0  0  0  0  0  0  0  0  0  0  0  0
   59.3690   25.0530   46.0520 O   0  0  0  0  0  0  0  0  0  0  0  0
  1  2  1  0
  2  3  2  0
  3  4  1  0
  4  5  2  0
  5  6  1  0
  5  7  1  0
  7  8  1  0
  7  9  2  0
  9 10  1  0
 10 11  1  0
 10 12  1  0
 10 13  1  0
 13 14  1  0
 13 15  1  0
 13 16  1  0
 16 17  2  0
 17 18  1  0
 17 19  1  0
 19 20  1  0
 19 21  2  0
 21 22  1  0
 21 23  1  0
 23 24  1  0
 23 25  2  0
 25 26  1  0
  9 27  1  0
 27 28  1  0
 27 29  2  0
 29 30  1  0
  2 31  1  0
 31 32  2  0
 32 33  1  0
 32 34  1  0
 34 35  1  0
 35 36  2  0
 35 37  1  0
 37 38  1  0
 38 39  2  0
 29  4  1  0
 38 31  1  0
 25 16  1  0
M  CHG  3  33  -1  34  -1  37  -1
M  END
>  <UniqueID>  (55) 
43

>  <SMILES>  (55) 
O=c1[n-]c(=S)[n-]c([O-])c1/C=N\c1ccc(CCc2ccc(F)cc2)cc1

>  <Energy>  (55) 
52.69457135787491

>  <Genealogy>  (55) 
O=c1[n-]c(=S)[n-]c([O-])c1C=Nc1ccc(CCc2ccc(F)cc2)cc1 (protonated)
O=c1[n-]c(=S)[n-]c([O-])c1/C=N\c1ccc(CCc2ccc(F)cc2)cc1 (cis-trans isomerization)
O=c1[n-]c(=S)[n-]c([O-])c1/C=N\c1ccc(CCc2ccc(F)cc2)cc1 (3D coordinates assigned)
O=c1[n-]c(=S)[n-]c([O-])c1/C=N\c1ccc(CCc2ccc(F)cc2)cc1 (optimized conformer: 52.69457135787491 kcal/mol)

>  <smiles>  (55) 
O=c1[nH]c(=S)[nH]c(O)c1C=Nc1ccc(CCc2ccc(F)cc2)cc1

>  <score_type>  (55) 
oracle

>  <origin>  (55) 
adg

>  <m_score__min__energy>  (55) 
-15.619999999999999

>  <m_primary>  (55) 
energy

$$$$
55:0
     RDKit          3D

 37 38  0  0  0  0  0  0  0  0999 V2000
   55.8860   30.0630   43.4300 C   0  0  0  0  0  0  0  0  0  0  0  0
   56.0320   29.8050   44.8230 O   0  0  0  0  0  0  0  0  0  0  0  0
   57.1550   29.1950   45.4030 C   0  0  0  0  0  0  0  0  0  0  0  0
   58.3710   29.8810   45.5930 C   0  0  0  0  0  0  0  0  0  0  0  0
   59.4710   29.2360   46.1840 C   0  0  0  0  0  0  0  0  0  0  0  0
   60.7610   29.9920   46.4090 C   0  0  0  0  0  0  0  0  0  0  0  0
   60.6590   30.9550   47.5220 N   0  0  0  0  0  0  0  0  0  0  0  0
   61.5900   32.0980   47.4280 C   0  0  0  0  0  0  0  0  0  0  0  0
   60.9230   33.4710   47.6430 C   0  0  0  0  0  0  0  0  0  0  0  0
   59.6790   33.6380   46.8190 C   0  0  0  0  0  0  0  0  0  0  0  0
   59.6940   34.4080   45.6470 C   0  0  0  0  0  0  0  0  0  0  0  0
   58.5280   34.5210   44.8860 C   0  0  0  0  0  0  0  0  0  0  0  0
   57.3660   33.8650   45.2950 C   0  0  0  0  0  0  0  0  0  0  0  0
   57.3890   33.1020   46.4660 C   0  0  0  0  0  0  0  0  0  0  0  0
   58.5330   33.0030   47.1930 N   0  0  0  0  0  0  0  0  0  0  0  0
   59.3490   27.8940   46.5830 C   0  0  0  0  0  0  0  0  0  0  0  0
   60.3950   27.2460   47.1560 F   0  0  0  0  0  0  0  0  0  0  0  0
   58.1460   27.2120   46.3910 C   0  0  0  0  0  0  0  0  0  0  0  0
   57.0550   27.8580   45.8040 C   0  0  0  0  0  0  0  0  0  0  0  0
   55.8930   27.1810   45.6270 F   0  0  0  0  0  0  0  0  0  0  0  0
   55.3488   31.0122   43.2872 H   0  0  0  0  0  0  0  0  0  0  0  0
   56.8799   30.1304   42.9634 H   0  0  0  0  0  0  0  0  0  0  0  0
   55.3165   29.2457   42.9634 H   0  0  0  0  0  0  0  0  0  0  0  0
   58.4602   30.9306   45.2760 H   0  0  0  0  0  0  0  0  0  0  0  0
   61.5588   29.2701   46.6379 H   0  0  0  0  0  0  0  0  0  0  0  0
   60.9829   30.5589   45.4928 H   0  0  0  0  0  0  0  0  0  0  0  0
   59.6820   31.3310   47.5540 H   0  0  0  0  0  0  0  0  0  0  0  0
   60.8130   30.4470   48.4230 H   0  0  0  0  0  0  0  0  0  0  0  0
   62.3721   31.9704   48.1909 H   0  0  0  0  0  0  0  0  0  0  0  0
   61.9919   32.0969   46.4041 H   0  0  0  0  0  0  0  0  0  0  0  0
   60.6590   33.5730   48.7060 H   0  0  0  0  0  0  0  0  0  0  0  0
   61.6393   34.2448   47.3297 H   0  0  0  0  0  0  0  0  0  0  0  0
   60.6154   34.9183   45.3299 H   0  0  0  0  0  0  0  0  0  0  0  0
   58.5257   35.1254   43.9669 H   0  0  0  0  0  0  0  0  0  0  0  0
   56.4427   33.9474   44.7027 H   0  0  0  0  0  0  0  0  0  0  0  0
   56.4796   32.5808   46.7997 H   0  0  0  0  0  0  0  0  0  0  0  0
   58.0567   26.1611   46.7033 H   0  0  0  0  0  0  0  0  0  0  0  0
  1  2  1  0
  2  3  1  0
  3  4  2  0
  4  5  1  0
  5  6  1  0
  6  7  1  0
  7  8  1  0
  8  9  1  0
  9 10  1  0
 10 11  2  0
 11 12  1  0
 12 13  2  0
 13 14  1  0
 14 15  2  0
  5 16  2  0
 16 17  1  0
 16 18  1  0
 18 19  2  0
 19 20  1  0
 19  3  1  0
 15 10  1  0
  1 21  1  0
  1 22  1  0
  1 23  1  0
  4 24  1  0
  6 25  1  0
  6 26  1  0
  7 27  1  0
  7 28  1  0
  8 29  1  0
  8 30  1  0
  9 31  1  0
  9 32  1  0
 11 33  1  0
 12 34  1  0
 13 35  1  0
 14 36  1  0
 18 37  1  0
M  CHG  1   7   1
M  END
>  <UniqueID>  (56) 
44

>  <SMILES>  (56) 
COc1cc(C[NH2+]CCc2ccccn2)c(F)cc1F

>  <Energy>  (56) 
36.61973803213102

>  <Genealogy>  (56) 
COc1cc(C[NH2+]CCc2ccccn2)c(F)cc1F (protonated)
COc1cc(C[NH2+]CCc2ccccn2)c(F)cc1F (3D coordinates assigned)
COc1cc(C[NH2+]CCc2ccccn2)c(F)cc1F (optimized conformer: 36.61973803213102 kcal/mol)

>  <smiles>  (56) 
COc1cc(CNCCc2ccccn2)c(F)cc1F

>  <score_type>  (56) 
oracle

>  <origin>  (56) 
adg

>  <m_score__min__energy>  (56) 
-4.6399999999999997

>  <m_primary>  (56) 
energy

$$$$
56:0
     RDKit          3D

 44 47  0  0  0  0  0  0  0  0999 V2000
   55.2180   22.6040   48.5210 C   0  0  0  0  0  0  0  0  0  0  0  0
   56.7130   22.5430   48.4530 C   0  0  0  0  0  0  0  0  0  0  0  0
   57.3960   23.0860   49.3600 O   0  0  0  0  0  0  0  0  0  0  0  0
   57.3850   21.8790   47.3770 N   0  0  0  0  0  0  0  0  0  0  0  0
   57.3370   22.3260   45.9910 C   0  0  0  0  0  0  0  0  0  0  0  0
   57.3880   23.8250   45.9500 C   0  0  0  0  0  0  0  0  0  0  0  0
   58.6140   24.4860   45.7990 C   0  0  0  0  0  0  0  0  0  0  0  0
   58.6610   25.8800   45.7270 C   0  0  0  0  0  0  0  0  0  0  0  0
   57.4800   26.6430   45.7920 C   0  0  0  0  0  0  0  0  0  0  0  0
   57.5490   28.1240   45.7060 C   0  0  0  0  0  0  0  0  0  0  0  0
   58.2980   28.9590   46.5600 C   0  0  0  0  0  0  0  0  0  0  0  0
   58.1740   30.2570   46.2150 N   0  0  0  0  0  0  0  0  0  0  0  0
   58.6240   31.4370   46.6480 C   0  0  0  0  0  0  0  0  0  0  0  0
   58.0670   32.3860   45.7850 C   0  0  0  0  0  0  0  0  0  0  0  0
   58.2640   33.8430   45.8880 C   0  0  0  0  0  0  0  0  0  0  0  0
   57.8610   34.5880   44.9550 O   0  0  0  0  0  0  0  0  0  0  0  0
   58.9660   34.4340   46.9890 N   0  0  0  0  0  0  0  0  0  0  0  0
   60.3330   34.1910   47.3490 C   0  0  0  0  0  0  0  0  0  0  0  0
   61.2980   33.8530   46.3820 C   0  0  0  0  0  0  0  0  0  0  0  0
   62.6180   33.5940   46.7650 C   0  0  0  0  0  0  0  0  0  0  0  0
   62.9800   33.6530   48.1130 C   0  0  0  0  0  0  0  0  0  0  0  0
   62.0210   33.9630   49.0810 C   0  0  0  0  0  0  0  0  0  0  0  0
   60.7000   34.2220   48.7030 C   0  0  0  0  0  0  0  0  0  0  0  0
   59.7770   34.5160   49.6520 F   0  0  0  0  0  0  0  0  0  0  0  0
   57.2770   31.7900   44.8460 N   0  0  0  0  0  0  0  0  0  0  0  0
   57.4020   30.4920   45.1770 C   0  0  0  0  0  0  0  0  0  0  0  0
   56.7510   29.0940   44.5280 S   0  0  0  0  0  0  0  0  0  0  0  0
   56.2470   25.9730   45.9280 C   0  0  0  0  0  0  0  0  0  0  0  0
   55.0810   26.6590   46.0230 F   0  0  0  0  0  0  0  0  0  0  0  0
   56.2060   24.5770   46.0010 C   0  0  0  0  0  0  0  0  0  0  0  0
   54.8991   22.6170   49.5737 H   0  0  0  0  0  0  0  0  0  0  0  0
   54.8651   23.5173   48.0196 H   0  0  0  0  0  0  0  0  0  0  0  0
   54.7919   21.7225   48.0196 H   0  0  0  0  0  0  0  0  0  0  0  0
   58.1969   21.9142   45.4424 H   0  0  0  0  0  0  0  0  0  0  0  0
   56.4044   21.9767   45.5238 H   0  0  0  0  0  0  0  0  0  0  0  0
   59.5451   23.9036   45.7368 H   0  0  0  0  0  0  0  0  0  0  0  0
   59.6312   26.3869   45.6184 H   0  0  0  0  0  0  0  0  0  0  0  0
   58.9069   28.5974   47.4017 H   0  0  0  0  0  0  0  0  0  0  0  0
   59.2914   31.6233   47.5024 H   0  0  0  0  0  0  0  0  0  0  0  0
   61.0131   33.7923   45.3213 H   0  0  0  0  0  0  0  0  0  0  0  0
   63.3719   33.3436   46.0041 H   0  0  0  0  0  0  0  0  0  0  0  0
   64.0199   33.4554   48.4124 H   0  0  0  0  0  0  0  0  0  0  0  0
   62.3060   34.0034   50.1427 H   0  0  0  0  0  0  0  0  0  0  0  0
   55.2377   24.0645   46.0993 H   0  0  0  0  0  0  0  0  0  0  0  0
  1  2  1  0
  2  3  2  0
  2  4  1  0
  4  5  1  0
  5  6  1  0
  6  7  2  0
  7  8  1  0
  8  9  2  0
  9 10  1  0
 10 11  2  0
 11 12  1  0
 12 13  1  0
 13 14  2  0
 14 15  1  0
 15 16  2  0
 15 17  1  0
 17 18  1  0
 18 19  2  0
 19 20  1  0
 20 21  2  0
 21 22  1  0
 22 23  2  0
 23 24  1  0
 14 25  1  0
 25 26  2  0
 26 27  1  0
  9 28  1  0
 28 29  1  0
 28 30  2  0
 30  6  1  0
 27 10  1  0
 26 12  1  0
 23 18  1  0
  1 31  1  0
  1 32  1  0
  1 33  1  0
  5 34  1  0
  5 35  1  0
  7 36  1  0
  8 37  1  0
 11 38  1  0
 13 39  1  0
 19 40  1  0
 20 41  1  0
 21 42  1  0
 22 43  1  0
 30 44  1  0
M  CHG  2   4  -1  17  -1
M  END
>  <UniqueID>  (57) 
45

>  <SMILES>  (57) 
CC(=O)[N-]Cc1ccc(-c2cn3cc(C(=O)[N-]c4ccccc4F)nc3s2)c(F)c1

>  <Energy>  (57) 
131.19601003549198

>  <Genealogy>  (57) 
CC(=O)[N-]Cc1ccc(-c2cn3cc(C(=O)[N-]c4ccccc4F)nc3s2)c(F)c1 (protonated)
CC(=O)[N-]Cc1ccc(-c2cn3cc(C(=O)[N-]c4ccccc4F)nc3s2)c(F)c1 (3D coordinates assigned)
CC(=O)[N-]Cc1ccc(-c2cn3cc(C(=O)[N-]c4ccccc4F)nc3s2)c(F)c1 (optimized conformer: 131.19601003549198 kcal/mol)

>  <smiles>  (57) 
CC(=O)NCc1ccc(-c2cn3cc(C(=O)Nc4ccccc4F)nc3s2)c(F)c1

>  <score_type>  (57) 
oracle

>  <origin>  (57) 
adg

>  <m_score__min__energy>  (57) 
-10.960000000000001

>  <m_primary>  (57) 
energy

$$$$
57:0
     RDKit          3D

 39 41  0  0  0  0  0  0  0  0999 V2000
   55.5180   24.7400   45.8720 C   0  0  0  0  0  0  0  0  0  0  0  0
   55.8500   25.9310   46.5780 O   0  0  0  0  0  0  0  0  0  0  0  0
   56.9820   26.7170   46.3190 C   0  0  0  0  0  0  0  0  0  0  0  0
   58.1740   26.5930   47.0580 C   0  0  0  0  0  0  0  0  0  0  0  0
   59.2800   27.3870   46.7450 C   0  0  0  0  0  0  0  0  0  0  0  0
   59.2080   28.3130   45.7020 C   0  0  0  0  0  0  0  0  0  0  0  0
   58.0180   28.4620   44.9680 C   0  0  0  0  0  0  0  0  0  0  0  0
   57.8930   29.4100   43.9010 N   0  0  0  0  0  0  0  0  0  0  0  0
   57.0570   30.9270   44.0070 S   0  0  0  0  0  0  0  0  0  0  0  0
   55.6540   30.6840   44.4900 O   0  0  0  0  0  0  0  0  0  0  0  0
   57.0030   31.5580   42.6430 O   0  0  0  0  0  0  0  0  0  0  0  0
   57.8750   31.9850   45.1510 C   0  0  0  0  0  0  0  0  0  0  0  0
   57.3940   33.2770   45.3890 C   0  0  0  0  0  0  0  0  0  0  0  0
   58.0580   34.1240   46.2780 C   0  0  0  0  0  0  0  0  0  0  0  0
   59.2150   33.6900   46.9420 C   0  0  0  0  0  0  0  0  0  0  0  0
   59.8600   34.5260   47.8050 N   0  0  0  0  0  0  0  0  0  0  0  0
   60.9850   34.1380   48.4640 C   0  0  0  0  0  0  0  0  0  0  0  0
   61.5580   34.9360   49.2530 O   0  0  0  0  0  0  0  0  0  0  0  0
   61.5100   32.8590   48.2720 C   0  0  0  0  0  0  0  0  0  0  0  0
   60.8790   31.9650   47.3960 C   0  0  0  0  0  0  0  0  0  0  0  0
   61.4700   30.5910   47.2050 C   0  0  0  0  0  0  0  0  0  0  0  0
   59.7080   32.3790   46.7150 C   0  0  0  0  0  0  0  0  0  0  0  0
   59.0220   31.5360   45.8180 C   0  0  0  0  0  0  0  0  0  0  0  0
   56.9170   27.6550   45.2810 C   0  0  0  0  0  0  0  0  0  0  0  0
   55.2944   23.9379   46.5908 H   0  0  0  0  0  0  0  0  0  0  0  0
   54.6364   24.9221   45.2399 H   0  0  0  0  0  0  0  0  0  0  0  0
   56.3667   24.4398   45.2399 H   0  0  0  0  0  0  0  0  0  0  0  0
   58.2346   25.8690   47.8840 H   0  0  0  0  0  0  0  0  0  0  0  0
   60.2107   27.2825   47.3220 H   0  0  0  0  0  0  0  0  0  0  0  0
   60.0855   28.9281   45.4538 H   0  0  0  0  0  0  0  0  0  0  0  0
   56.4879   33.6272   44.8729 H   0  0  0  0  0  0  0  0  0  0  0  0
   57.6716   35.1379   46.4590 H   0  0  0  0  0  0  0  0  0  0  0  0
   59.4900   35.4910   47.9680 H   0  0  0  0  0  0  0  0  0  0  0  0
   62.4199   32.5523   48.8087 H   0  0  0  0  0  0  0  0  0  0  0  0
   61.6656   30.1362   48.1873 H   0  0  0  0  0  0  0  0  0  0  0  0
   60.7627   29.9623   46.6442 H   0  0  0  0  0  0  0  0  0  0  0  0
   62.4128   30.6721   46.6442 H   0  0  0  0  0  0  0  0  0  0  0  0
   59.3909   30.5151   45.6398 H   0  0  0  0  0  0  0  0  0  0  0  0
   55.9871   27.7595   44.7028 H   0  0  0  0  0  0  0  0  0  0  0  0
  1  2  1  0
  2  3  1  0
  3  4  2  0
  4  5  1  0
  5  6  2  0
  6  7  1  0
  7  8  1  0
  8  9  1  0
  9 10  2  0
  9 11  2  0
  9 12  1  0
 12 13  2  0
 13 14  1  0
 14 15  2  0
 15 16  1  0
 16 17  1  0
 17 18  2  0
 17 19  1  0
 19 20  2  0
 20 21  1  0
 20 22  1  0
 22 23  2  0
  7 24  2  0
 24  3  1  0
 23 12  1  0
 22 15  1  0
  1 25  1  0
  1 26  1  0
  1 27  1  0
  4 28  1  0
  5 29  1  0
  6 30  1  0
 13 31  1  0
 14 32  1  0
 16 33  1  0
 19 34  1  0
 21 35  1  0
 21 36  1  0
 21 37  1  0
 23 38  1  0
 24 39  1  0
M  CHG  1   8  -1
M  END
>  <UniqueID>  (58) 
46

>  <SMILES>  (58) 
COc1cccc([N-]S(=O)(=O)c2ccc3[nH]c(=O)cc(C)c3c2)c1

>  <Energy>  (58) 
48.57872346304717

>  <Genealogy>  (58) 
COc1cccc([N-]S(=O)(=O)c2ccc3[nH]c(=O)cc(C)c3c2)c1 (protonated)
COc1cccc([N-]S(=O)(=O)c2ccc3[nH]c(=O)cc(C)c3c2)c1 (3D coordinates assigned)
COc1cccc([N-]S(=O)(=O)c2ccc3[nH]c(=O)cc(C)c3c2)c1 (optimized conformer: 48.57872346304717 kcal/mol)

>  <smiles>  (58) 
COc1cccc(NS(=O)(=O)c2ccc3[nH]c(=O)cc(C)c3c2)c1

>  <score_type>  (58) 
oracle

>  <origin>  (58) 
adg

>  <m_score__min__energy>  (58) 
-9.4700000000000006

>  <m_primary>  (58) 
energy

$$$$
58:0
     RDKit          3D

 38 40  0  0  0  0  0  0  0  0999 V2000
   54.8450   25.2360   45.6280 C   0  0  0  0  0  0  0  0  0  0  0  0
   55.2910   26.5500   45.9460 O   0  0  0  0  0  0  0  0  0  0  0  0
   56.6390   26.9250   46.0670 C   0  0  0  0  0  0  0  0  0  0  0  0
   57.5860   26.1080   46.7140 C   0  0  0  0  0  0  0  0  0  0  0  0
   58.9190   26.5150   46.8110 C   0  0  0  0  0  0  0  0  0  0  0  0
   59.3180   27.7370   46.2690 C   0  0  0  0  0  0  0  0  0  0  0  0
   58.3880   28.5560   45.6260 C   0  0  0  0  0  0  0  0  0  0  0  0
   57.0410   28.1530   45.5160 C   0  0  0  0  0  0  0  0  0  0  0  0
   56.0720   28.9420   44.8700 O   0  0  0  0  0  0  0  0  0  0  0  0
   56.2800   29.6980   43.6780 C   0  0  0  0  0  0  0  0  0  0  0  0
   57.0380   30.9520   43.9810 C   0  0  0  0  0  0  0  0  0  0  0  0
   57.3060   31.3850   45.2460 N   0  0  0  0  0  0  0  0  0  0  0  0
   58.0220   32.4970   45.1980 N   0  0  0  0  0  0  0  0  0  0  0  0
   58.6560   33.3000   46.0600 C   0  0  0  0  0  0  0  0  0  0  0  0
   58.6810   33.1750   47.5600 C   0  0  0  0  0  0  0  0  0  0  0  0
   59.6170   34.2150   48.1830 C   0  0  0  0  0  0  0  0  0  0  0  0
   59.0520   31.7540   47.9910 C   0  0  0  0  0  0  0  0  0  0  0  0
   59.3470   34.2370   45.3560 N   0  0  0  0  0  0  0  0  0  0  0  0
   59.1490   34.0110   44.0530 N   0  0  0  0  0  0  0  0  0  0  0  0
   58.3330   32.9450   44.0110 C   0  0  0  0  0  0  0  0  0  0  0  0
   57.7330   31.9780   42.7790 S   0  0  0  0  0  0  0  0  0  0  0  0
   54.6557   24.6782   46.5570 H   0  0  0  0  0  0  0  0  0  0  0  0
   53.9169   25.2959   45.0406 H   0  0  0  0  0  0  0  0  0  0  0  0
   55.6178   24.7186   45.0406 H   0  0  0  0  0  0  0  0  0  0  0  0
   57.2748   25.1450   47.1450 H   0  0  0  0  0  0  0  0  0  0  0  0
   59.6547   25.8712   47.3153 H   0  0  0  0  0  0  0  0  0  0  0  0
   60.3677   28.0560   46.3484 H   0  0  0  0  0  0  0  0  0  0  0  0
   58.7073   29.5200   45.2033 H   0  0  0  0  0  0  0  0  0  0  0  0
   56.8530   29.0926   42.9603 H   0  0  0  0  0  0  0  0  0  0  0  0
   55.3026   29.9664   43.2507 H   0  0  0  0  0  0  0  0  0  0  0  0
   57.0150   30.9040   46.1230 H   0  0  0  0  0  0  0  0  0  0  0  0
   57.6662   33.3767   47.9335 H   0  0  0  0  0  0  0  0  0  0  0  0
   59.5589   34.1504   49.2796 H   0  0  0  0  0  0  0  0  0  0  0  0
   60.6498   34.0199   47.8584 H   0  0  0  0  0  0  0  0  0  0  0  0
   59.3146   35.2216   47.8584 H   0  0  0  0  0  0  0  0  0  0  0  0
   59.0671   31.6962   49.0894 H   0  0  0  0  0  0  0  0  0  0  0  0
   58.3087   31.0454   47.5967 H   0  0  0  0  0  0  0  0  0  0  0  0
   60.0468   31.4992   47.5967 H   0  0  0  0  0  0  0  0  0  0  0  0
  1  2  1  0
  2  3  1  0
  3  4  2  0
  4  5  1  0
  5  6  2  0
  6  7  1  0
  7  8  2  0
  8  9  1  0
  9 10  1  0
 10 11  1  0
 11 12  2  0
 12 13  1  0
 13 14  1  0
 14 15  1  0
 15 16  1  0
 15 17  1  0
 14 18  2  0
 18 19  1  0
 19 20  2  0
 20 21  1  0
  8  3  1  0
 21 11  1  0
 20 13  1  0
  1 22  1  0
  1 23  1  0
  1 24  1  0
  4 25  1  0
  5 26  1  0
  6 27  1  0
  7 28  1  0
 10 29  1  0
 10 30  1  0
 12 31  1  0
 15 32  1  0
 16 33  1  0
 16 34  1  0
 16 35  1  0
 17 36  1  0
 17 37  1  0
 17 38  1  0
M  CHG  1  12   1
M  END
>  <UniqueID>  (59) 
47

>  <SMILES>  (59) 
COc1ccccc1OCc1[nH+]n2c(C(C)C)nnc2s1

>  <Energy>  (59) 
126.29463259683362

>  <Genealogy>  (59) 
COc1ccccc1OCc1[nH+]n2c(C(C)C)nnc2s1 (protonated)
COc1ccccc1OCc1[nH+]n2c(C(C)C)nnc2s1 (3D coordinates assigned)
COc1ccccc1OCc1[nH+]n2c(C(C)C)nnc2s1 (optimized conformer: 126.29463259683362 kcal/mol)

>  <smiles>  (59) 
COc1ccccc1OCc1nn2c(C(C)C)nnc2s1

>  <score_type>  (59) 
oracle

>  <origin>  (59) 
adg

>  <m_score__min__energy>  (59) 
-6.9000000000000004

>  <m_primary>  (59) 
energy

$$$$
59:0
     RDKit          3D

 36 38  0  0  0  0  0  0  0  0999 V2000
   58.9810   34.9780   44.8770 C   0  0  0  0  0  0  0  0  0  0  0  0
   58.8840   33.8860   45.8440 N   0  0  0  0  0  0  0  0  0  0  0  0
   59.4320   33.8240   47.0830 C   0  0  0  0  0  0  0  0  0  0  0  0
   60.0780   34.7710   47.6080 O   0  0  0  0  0  0  0  0  0  0  0  0
   59.2280   32.6290   47.6940 N   0  0  0  0  0  0  0  0  0  0  0  0
   59.7430   32.1850   48.9860 C   0  0  0  0  0  0  0  0  0  0  0  0
   58.5600   31.9010   46.7760 C   0  0  0  0  0  0  0  0  0  0  0  0
   58.1450   30.5710   46.8490 C   0  0  0  0  0  0  0  0  0  0  0  0
   57.4900   30.0130   45.7290 C   0  0  0  0  0  0  0  0  0  0  0  0
   57.0510   28.6420   45.7870 N   0  0  0  0  0  0  0  0  0  0  0  0
   57.9430   27.5290   45.9430 C   0  0  0  0  0  0  0  0  0  0  0  0
   59.3180   27.7510   45.7880 C   0  0  0  0  0  0  0  0  0  0  0  0
   60.2310   26.7150   45.9870 C   0  0  0  0  0  0  0  0  0  0  0  0
   59.7780   25.4440   46.3380 C   0  0  0  0  0  0  0  0  0  0  0  0
   58.4090   25.2000   46.4720 C   0  0  0  0  0  0  0  0  0  0  0  0
   57.4710   26.2270   46.2590 C   0  0  0  0  0  0  0  0  0  0  0  0
   56.0260   25.9000   46.3370 C   0  0  0  0  0  0  0  0  0  0  0  0
   55.1530   26.7320   45.9720 O   0  0  0  0  0  0  0  0  0  0  0  0
   55.6150   24.6490   46.7830 O   0  0  0  0  0  0  0  0  0  0  0  0
   57.2720   30.8150   44.5730 C   0  0  0  0  0  0  0  0  0  0  0  0
   57.7120   32.1490   44.5290 C   0  0  0  0  0  0  0  0  0  0  0  0
   58.3530   32.6610   45.6560 C   0  0  0  0  0  0  0  0  0  0  0  0
   59.0660   35.9352   45.4122 H   0  0  0  0  0  0  0  0  0  0  0  0
   59.8696   34.8308   44.2456 H   0  0  0  0  0  0  0  0  0  0  0  0
   58.0804   34.9897   44.2456 H   0  0  0  0  0  0  0  0  0  0  0  0
   59.1772   32.6728   49.7935 H   0  0  0  0  0  0  0  0  0  0  0  0
   59.6334   31.0936   49.0690 H   0  0  0  0  0  0  0  0  0  0  0  0
   60.8063   32.4541   49.0690 H   0  0  0  0  0  0  0  0  0  0  0  0
   58.3232   29.9728   47.7548 H   0  0  0  0  0  0  0  0  0  0  0  0
   56.0520   28.4320   45.5610 H   0  0  0  0  0  0  0  0  0  0  0  0
   59.6806   28.7508   45.5070 H   0  0  0  0  0  0  0  0  0  0  0  0
   61.3085   26.9010   45.8669 H   0  0  0  0  0  0  0  0  0  0  0  0
   60.4998   24.6319   46.5097 H   0  0  0  0  0  0  0  0  0  0  0  0
   58.0604   24.1936   46.7471 H   0  0  0  0  0  0  0  0  0  0  0  0
   56.7528   30.3852   43.7037 H   0  0  0  0  0  0  0  0  0  0  0  0
   57.5556   32.7691   43.6340 H   0  0  0  0  0  0  0  0  0  0  0  0
  1  2  1  0
  2  3  1  0
  3  4  2  0
  3  5  1  0
  5  6  1  0
  5  7  1  0
  7  8  2  0
  8  9  1  0
  9 10  1  0
 10 11  1  0
 11 12  2  0
 12 13  1  0
 13 14  2  0
 14 15  1  0
 15 16  2  0
 16 17  1  0
 17 18  2  0
 17 19  1  0
  9 20  2  0
 20 21  1  0
 21 22  2  0
 22  2  1  0
 22  7  1  0
 16 11  1  0
  1 23  1  0
  1 24  1  0
  1 25  1  0
  6 26  1  0
  6 27  1  0
  6 28  1  0
  8 29  1  0
 10 30  1  0
 12 31  1  0
 13 32  1  0
 14 33  1  0
 15 34  1  0
 20 35  1  0
 21 36  1  0
M  CHG  1  19  -1
M  END
>  <UniqueID>  (60) 
48

>  <SMILES>  (60) 
Cn1c(=O)n(C)c2cc(Nc3ccccc3C(=O)[O-])ccc21

>  <Energy>  (60) 
89.02646293651887

>  <Genealogy>  (60) 
Cn1c(=O)n(C)c2cc(Nc3ccccc3C(=O)[O-])ccc21 (protonated)
Cn1c(=O)n(C)c2cc(Nc3ccccc3C(=O)[O-])ccc21 (3D coordinates assigned)
Cn1c(=O)n(C)c2cc(Nc3ccccc3C(=O)[O-])ccc21 (optimized conformer: 89.02646293651887 kcal/mol)

>  <smiles>  (60) 
Cn1c(=O)n(C)c2cc(Nc3ccccc3C(=O)O)ccc21

>  <score_type>  (60) 
oracle

>  <origin>  (60) 
adg

>  <m_score__min__energy>  (60) 
-10.130000000000001

>  <m_primary>  (60) 
energy

$$$$
60:0
     RDKit          3D

 35 37  0  0  0  0  0  0  0  0999 V2000
   60.0970   36.0498   45.8658 H   0  0  0  0  0  0  0  0  0  0  0  0
   59.9670   34.9870   46.1180 C   0  0  0  0  0  0  0  0  0  0  0  0
   61.0760   34.2100   46.4590 C   0  0  0  0  0  0  0  0  0  0  0  0
   62.0784   34.6626   46.4760 H   0  0  0  0  0  0  0  0  0  0  0  0
   60.9160   32.8580   46.7790 C   0  0  0  0  0  0  0  0  0  0  0  0
   62.0070   32.1330   47.1380 F   0  0  0  0  0  0  0  0  0  0  0  0
   59.6360   32.2710   46.7600 C   0  0  0  0  0  0  0  0  0  0  0  0
   59.4580   30.8390   47.0960 C   0  0  0  0  0  0  0  0  0  0  0  0
   58.5330   30.0460   46.3830 C   0  0  0  0  0  0  0  0  0  0  0  0
   57.9427   30.4814   45.5633 H   0  0  0  0  0  0  0  0  0  0  0  0
   58.3750   28.6950   46.7320 C   0  0  0  0  0  0  0  0  0  0  0  0
   57.5520   27.6770   46.1440 C   0  0  0  0  0  0  0  0  0  0  0  0
   56.6160   27.8570   45.2550 N   0  0  0  0  0  0  0  0  0  0  0  0
   56.2180   29.0700   44.6090 C   0  0  0  0  0  0  0  0  0  0  0  0
   55.1430   29.6430   44.9390 O   0  0  0  0  0  0  0  0  0  0  0  0
   56.9900   29.5710   43.4280 C   0  0  0  0  0  0  0  0  0  0  0  0
   56.7542   28.9492   42.5518 H   0  0  0  0  0  0  0  0  0  0  0  0
   58.0645   29.5144   43.6567 H   0  0  0  0  0  0  0  0  0  0  0  0
   56.6410   30.9670   43.1370 N   0  0  0  0  0  0  0  0  0  0  0  0
   55.9730   31.2870   43.8770 H   0  0  0  0  0  0  0  0  0  0  0  0
   57.8180   31.8370   43.2140 C   0  0  0  0  0  0  0  0  0  0  0  0
   58.0686   32.0223   44.2689 H   0  0  0  0  0  0  0  0  0  0  0  0
   58.6682   31.3486   42.7154 H   0  0  0  0  0  0  0  0  0  0  0  0
   57.6005   32.7931   42.7154 H   0  0  0  0  0  0  0  0  0  0  0  0
   57.7960   26.4140   46.5970 N   0  0  0  0  0  0  0  0  0  0  0  0
   58.9710   26.5380   47.7710 S   0  0  0  0  0  0  0  0  0  0  0  0
   59.2070   28.1780   47.7100 C   0  0  0  0  0  0  0  0  0  0  0  0
   60.1110   28.9180   48.3960 N   0  0  0  0  0  0  0  0  0  0  0  0
   60.7210   28.4730   49.1170 H   0  0  0  0  0  0  0  0  0  0  0  0
   60.2330   30.2460   48.1180 C   0  0  0  0  0  0  0  0  0  0  0  0
   60.9402   30.8614   48.6935 H   0  0  0  0  0  0  0  0  0  0  0  0
   58.5230   33.0650   46.4170 C   0  0  0  0  0  0  0  0  0  0  0  0
   57.2780   32.5270   46.3620 F   0  0  0  0  0  0  0  0  0  0  0  0
   58.6940   34.4160   46.0970 C   0  0  0  0  0  0  0  0  0  0  0  0
   57.8220   35.0302   45.8279 H   0  0  0  0  0  0  0  0  0  0  0  0
  1  2  1  0
  2  3  2  0
  3  4  1  0
  3  5  1  0
  5  6  1  0
  5  7  2  0
  7  8  1  0
  8  9  2  0
  9 10  1  0
  9 11  1  0
 11 12  1  0
 12 13  2  0
 13 14  1  0
 14 15  2  0
 14 16  1  0
 16 17  1  0
 16 18  1  0
 16 19  1  0
 19 20  1  0
 19 21  1  0
 21 22  1  0
 21 23  1  0
 21 24  1  0
 12 25  1  0
 25 26  1  0
 26 27  1  0
 27 28  1  0
 28 29  1  0
 28 30  2  0
 30 31  1  0
  7 32  1  0
 32 33  1  0
 32 34  2  0
 34 35  1  0
 34  2  1  0
 30  8  1  0
 27 11  2  0
M  CHG  2  25  -1  28   1
M  END
>  <UniqueID>  (61) 
49

>  <SMILES>  (61) 
CNCC(=O)/N=c1/[n-]sc2[nH+]cc(-c3c(F)cccc3F)cc12

>  <Energy>  (61) 
94.91930704564608

>  <Genealogy>  (61) 
CNCC(=O)N=c1[n-]sc2[nH+]cc(-c3c(F)cccc3F)cc12 (protonated)
CNCC(=O)/N=c1/[n-]sc2[nH+]cc(-c3c(F)cccc3F)cc12 (cis-trans isomerization)
CNCC(=O)/N=c1/[n-]sc2[nH+]cc(-c3c(F)cccc3F)cc12 (3D coordinates assigned)
CNCC(=O)/N=c1/[n-]sc2[nH+]cc(-c3c(F)cccc3F)cc12 (optimized conformer: 94.91930704564608 kcal/mol)

>  <smiles>  (61) 
CNCC(=O)N=c1[nH]sc2ncc(-c3c(F)cccc3F)cc12

>  <score_type>  (61) 
oracle

>  <origin>  (61) 
adg

>  <m_score__min__energy>  (61) 
-7.3499999999999996

>  <m_primary>  (61) 
energy

$$$$
61:0
     RDKit          3D

 53 56  0  0  0  0  0  0  0  0999 V2000
   56.9530   34.5920   45.2320 C   0  0  0  0  0  0  0  0  0  0  0  0
   57.9490   33.5660   45.5900 N   0  0  0  0  0  0  0  0  0  0  0  0
   57.7220   32.2510   45.2810 C   0  0  0  0  0  0  0  0  0  0  0  0
   56.6730   31.9150   44.6640 O   0  0  0  0  0  0  0  0  0  0  0  0
   58.6600   31.2760   45.6600 C   0  0  0  0  0  0  0  0  0  0  0  0
   58.4900   29.8290   45.3700 C   0  0  0  0  0  0  0  0  0  0  0  0
   57.6140   29.4450   44.5470 O   0  0  0  0  0  0  0  0  0  0  0  0
   59.3460   28.8620   46.0030 N   0  0  0  0  0  0  0  0  0  0  0  0
   59.0700   27.4510   46.0430 C   0  0  0  0  0  0  0  0  0  0  0  0
   60.1090   26.5040   46.0950 C   0  0  0  0  0  0  0  0  0  0  0  0
   59.8160   25.1370   46.1100 C   0  0  0  0  0  0  0  0  0  0  0  0
   58.4890   24.7030   46.0580 C   0  0  0  0  0  0  0  0  0  0  0  0
   57.4460   25.6350   45.9770 C   0  0  0  0  0  0  0  0  0  0  0  0
   55.7780   25.0810   45.9120 S   0  0  0  0  0  0  0  0  0  0  0  0
   54.8590   26.2670   45.9970 O   0  0  0  0  0  0  0  0  0  0  0  0
   55.5060   24.1600   47.0690 O   0  0  0  0  0  0  0  0  0  0  0  0
   55.5270   24.2390   44.4160 N   0  0  0  0  0  0  0  0  0  0  0  0
   56.0610   23.0920   44.1250 C   0  0  0  0  0  0  0  0  0  0  0  0
   56.4110   22.6210   42.7630 C   0  0  0  0  0  0  0  0  0  0  0  0
   56.9860   21.2170   43.0040 C   0  0  0  0  0  0  0  0  0  0  0  0
   56.9600   20.9620   44.5230 C   0  0  0  0  0  0  0  0  0  0  0  0
   56.3740   22.1440   45.1210 N   0  0  0  0  0  0  0  0  0  0  0  0
   57.7410   27.0060   45.9690 C   0  0  0  0  0  0  0  0  0  0  0  0
   59.7640   31.6800   46.3340 N   0  0  0  0  0  0  0  0  0  0  0  0
   59.9830   32.9570   46.6480 N   0  0  0  0  0  0  0  0  0  0  0  0
   61.1870   33.2770   47.3710 C   0  0  0  0  0  0  0  0  0  0  0  0
   61.1190   33.6030   48.7370 C   0  0  0  0  0  0  0  0  0  0  0  0
   62.2840   33.8920   49.4540 C   0  0  0  0  0  0  0  0  0  0  0  0
   63.5280   33.8470   48.8180 C   0  0  0  0  0  0  0  0  0  0  0  0
   63.6080   33.5070   47.4660 C   0  0  0  0  0  0  0  0  0  0  0  0
   62.4460   33.2180   46.7440 C   0  0  0  0  0  0  0  0  0  0  0  0
   59.0650   33.9140   46.3060 C   0  0  0  0  0  0  0  0  0  0  0  0
   59.2360   35.1120   46.6700 O   0  0  0  0  0  0  0  0  0  0  0  0
   56.5298   35.0279   46.1490 H   0  0  0  0  0  0  0  0  0  0  0  0
   57.4374   35.3824   44.6399 H   0  0  0  0  0  0  0  0  0  0  0  0
   56.1485   34.1313   44.6399 H   0  0  0  0  0  0  0  0  0  0  0  0
   60.2640   29.1880   46.3830 H   0  0  0  0  0  0  0  0  0  0  0  0
   61.1559   26.8403   46.1240 H   0  0  0  0  0  0  0  0  0  0  0  0
   60.6322   24.4014   46.1629 H   0  0  0  0  0  0  0  0  0  0  0  0
   58.2625   23.6268   46.0807 H   0  0  0  0  0  0  0  0  0  0  0  0
   55.5185   22.5753   42.1216 H   0  0  0  0  0  0  0  0  0  0  0  0
   57.1162   23.2894   42.2473 H   0  0  0  0  0  0  0  0  0  0  0  0
   56.3720   20.4654   42.4862 H   0  0  0  0  0  0  0  0  0  0  0  0
   58.0130   21.1465   42.6163 H   0  0  0  0  0  0  0  0  0  0  0  0
   56.3486   20.0764   44.7506 H   0  0  0  0  0  0  0  0  0  0  0  0
   57.9702   20.7731   44.9152 H   0  0  0  0  0  0  0  0  0  0  0  0
   56.2180   22.2770   46.1440 H   0  0  0  0  0  0  0  0  0  0  0  0
   56.9235   27.7391   45.9042 H   0  0  0  0  0  0  0  0  0  0  0  0
   60.1435   33.6308   49.2446 H   0  0  0  0  0  0  0  0  0  0  0  0
   62.2216   34.1552   50.5202 H   0  0  0  0  0  0  0  0  0  0  0  0
   64.4433   34.0793   49.3822 H   0  0  0  0  0  0  0  0  0  0  0  0
   64.5878   33.4664   46.9676 H   0  0  0  0  0  0  0  0  0  0  0  0
   62.5160   32.9433   45.6812 H   0  0  0  0  0  0  0  0  0  0  0  0
  1  2  1  0
  2  3  1  0
  3  4  2  0
  3  5  1  0
  5  6  1  0
  6  7  2  0
  6  8  1  0
  8  9  1  0
  9 10  2  0
 10 11  1  0
 11 12  2  0
 12 13  1  0
 13 14  1  0
 14 15  2  0
 14 16  2  0
 14 17  1  0
 17 18  2  3
 18 19  1  0
 19 20  1  0
 20 21  1  0
 21 22  1  0
 13 23  2  0
  5 24  2  0
 24 25  1  0
 25 26  1  0
 26 27  2  0
 27 28  1  0
 28 29  2  0
 29 30  1  0
 30 31  2  0
 25 32  1  0
 32 33  2  0
 32  2  1  0
 23  9  1  0
 31 26  1  0
 22 18  1  0
  1 34  1  0
  1 35  1  0
  1 36  1  0
  8 37  1  0
 10 38  1  0
 11 39  1  0
 12 40  1  0
 19 41  1  0
 19 42  1  0
 20 43  1  0
 20 44  1  0
 21 45  1  0
 21 46  1  0
 22 47  1  0
 23 48  1  0
 27 49  1  0
 28 50  1  0
 29 51  1  0
 30 52  1  0
 31 53  1  0
M  END
>  <UniqueID>  (62) 
50

>  <SMILES>  (62) 
Cn1c(=O)c(C(=O)Nc2cccc(S(=O)(=O)N=C3CCCN3)c2)nn(-c2ccccc2)c1=O

>  <Energy>  (62) 
82.55839517687191

>  <Genealogy>  (62) 
Cn1c(=O)c(C(=O)Nc2cccc(S(=O)(=O)N=C3CCCN3)c2)nn(-c2ccccc2)c1=O (3D coordinates assigned)
Cn1c(=O)c(C(=O)Nc2cccc(S(=O)(=O)N=C3CCCN3)c2)nn(-c2ccccc2)c1=O (nonaromatic ring conformer: 82.55839517687191 kcal/mol)

>  <smiles>  (62) 
Cn1c(=O)c(C(=O)Nc2cccc(S(=O)(=O)N=C3CCCN3)c2)nn(-c2ccccc2)c1=O

>  <score_type>  (62) 
oracle

>  <origin>  (62) 
adg

>  <m_score__min__energy>  (62) 
-10.140000000000001

>  <m_primary>  (62) 
energy

$$$$
62:0
     RDKit          3D

 50 52  0  0  0  0  0  0  0  0999 V2000
   60.6170   26.6790   46.5860 C   0  0  0  0  0  0  0  0  0  0  0  0
   60.1090   27.4260   47.8200 C   0  0  0  0  0  0  0  0  0  0  0  0
   60.2520   28.9550   47.6870 C   0  0  0  0  0  0  0  0  0  0  0  0
   58.9220   29.7160   47.8090 C   0  0  0  0  0  0  0  0  0  0  0  0
   58.5900   30.4640   46.5890 N   0  0  0  0  0  0  0  0  0  0  0  0
   58.1590   29.9730   45.4030 C   0  0  0  0  0  0  0  0  0  0  0  0
   57.9550   28.5520   45.1040 C   0  0  0  0  0  0  0  0  0  0  0  0
   57.3660   27.7120   46.0580 C   0  0  0  0  0  0  0  0  0  0  0  0
   57.1660   26.3580   45.7720 C   0  0  0  0  0  0  0  0  0  0  0  0
   57.5600   25.8250   44.5320 C   0  0  0  0  0  0  0  0  0  0  0  0
   57.3530   24.3880   44.2270 C   0  0  0  0  0  0  0  0  0  0  0  0
   56.3660   23.9870   43.3110 C   0  0  0  0  0  0  0  0  0  0  0  0
   56.1840   22.6330   43.0120 C   0  0  0  0  0  0  0  0  0  0  0  0
   56.9860   21.6670   43.6270 C   0  0  0  0  0  0  0  0  0  0  0  0
   57.9660   22.0530   44.5420 C   0  0  0  0  0  0  0  0  0  0  0  0
   58.1540   23.4060   44.8410 C   0  0  0  0  0  0  0  0  0  0  0  0
   58.1440   26.6780   43.5780 C   0  0  0  0  0  0  0  0  0  0  0  0
   58.3310   28.0340   43.8600 C   0  0  0  0  0  0  0  0  0  0  0  0
   57.8850   30.9570   44.5210 N   0  0  0  0  0  0  0  0  0  0  0  0
   58.1650   32.0960   45.1380 N   0  0  0  0  0  0  0  0  0  0  0  0
   57.9140   33.4250   44.5670 C   0  0  0  0  0  0  0  0  0  0  0  0
   56.8570   34.1790   45.3840 C   0  0  0  0  0  0  0  0  0  0  0  0
   59.2220   34.2180   44.5050 C   0  0  0  0  0  0  0  0  0  0  0  0
   58.5750   31.8000   46.3930 C   0  0  0  0  0  0  0  0  0  0  0  0
   58.9510   32.9160   47.5410 S   0  0  0  0  0  0  0  0  0  0  0  0
   61.2094   25.8079   46.9027 H   0  0  0  0  0  0  0  0  0  0  0  0
   59.7608   26.3408   45.9838 H   0  0  0  0  0  0  0  0  0  0  0  0
   61.2462   27.3510   45.9838 H   0  0  0  0  0  0  0  0  0  0  0  0
   59.0463   27.1828   47.9665 H   0  0  0  0  0  0  0  0  0  0  0  0
   60.7197   27.1073   48.6776 H   0  0  0  0  0  0  0  0  0  0  0  0
   60.9285   29.3101   48.4784 H   0  0  0  0  0  0  0  0  0  0  0  0
   60.6430   29.1534   46.6782 H   0  0  0  0  0  0  0  0  0  0  0  0
   58.1182   28.9923   48.0092 H   0  0  0  0  0  0  0  0  0  0  0  0
   59.0252   30.4416   48.6293 H   0  0  0  0  0  0  0  0  0  0  0  0
   57.0604   28.1182   47.0335 H   0  0  0  0  0  0  0  0  0  0  0  0
   56.6969   25.7050   46.5227 H   0  0  0  0  0  0  0  0  0  0  0  0
   55.7319   24.7435   42.8255 H   0  0  0  0  0  0  0  0  0  0  0  0
   55.4096   22.3280   42.2928 H   0  0  0  0  0  0  0  0  0  0  0  0
   56.8443   20.6023   43.3894 H   0  0  0  0  0  0  0  0  0  0  0  0
   58.5922   21.2912   45.0293 H   0  0  0  0  0  0  0  0  0  0  0  0
   58.9315   23.7047   45.5595 H   0  0  0  0  0  0  0  0  0  0  0  0
   58.4557   26.2749   42.6031 H   0  0  0  0  0  0  0  0  0  0  0  0
   58.7750   28.6958   43.1018 H   0  0  0  0  0  0  0  0  0  0  0  0
   57.5240   33.3041   43.5456 H   0  0  0  0  0  0  0  0  0  0  0  0
   57.0540   34.0385   46.4570 H   0  0  0  0  0  0  0  0  0  0  0  0
   56.9011   35.2508   45.1404 H   0  0  0  0  0  0  0  0  0  0  0  0
   55.8579   33.7884   45.1404 H   0  0  0  0  0  0  0  0  0  0  0  0
   59.5712   34.4297   45.5264 H   0  0  0  0  0  0  0  0  0  0  0  0
   59.9830   33.6290   43.9720 H   0  0  0  0  0  0  0  0  0  0  0  0
   59.0517   35.1651   43.9720 H   0  0  0  0  0  0  0  0  0  0  0  0
  1  2  1  0
  2  3  1  0
  3  4  1  0
  4  5  1  0
  5  6  1  0
  6  7  1  0
  7  8  2  0
  8  9  1  0
  9 10  2  0
 10 11  1  0
 11 12  2  0
 12 13  1  0
 13 14  2  0
 14 15  1  0
 15 16  2  0
 10 17  1  0
 17 18  2  0
  6 19  2  0
 19 20  1  0
 20 21  1  0
 21 22  1  0
 21 23  1  0
 20 24  1  0
 24 25  2  0
 24  5  1  0
 18  7  1  0
 16 11  1  0
  1 26  1  0
  1 27  1  0
  1 28  1  0
  2 29  1  0
  2 30  1  0
  3 31  1  0
  3 32  1  0
  4 33  1  0
  4 34  1  0
  8 35  1  0
  9 36  1  0
 12 37  1  0
 13 38  1  0
 14 39  1  0
 15 40  1  0
 16 41  1  0
 17 42  1  0
 18 43  1  0
 21 44  1  0
 22 45  1  0
 22 46  1  0
 22 47  1  0
 23 48  1  0
 23 49  1  0
 23 50  1  0
M  END
>  <UniqueID>  (63) 
51

>  <SMILES>  (63) 
CCCCn1c(-c2ccc(-c3ccccc3)cc2)nn(C(C)C)c1=S

>  <Energy>  (63) 
91.91153485779722

>  <Genealogy>  (63) 
CCCCn1c(-c2ccc(-c3ccccc3)cc2)nn(C(C)C)c1=S (3D coordinates assigned)
CCCCn1c(-c2ccc(-c3ccccc3)cc2)nn(C(C)C)c1=S (optimized conformer: 91.91153485779722 kcal/mol)

>  <smiles>  (63) 
CCCCn1c(-c2ccc(-c3ccccc3)cc2)nn(C(C)C)c1=S

>  <score_type>  (63) 
oracle

>  <origin>  (63) 
adg

>  <m_score__min__energy>  (63) 
-8.3100000000000005

>  <m_primary>  (63) 
energy

$$$$
63:0
     RDKit          3D

 46 49  0  0  0  0  0  0  0  0999 V2000
   60.2240   33.6690   51.4210 C   0  0  0  0  0  0  0  0  0  0  0  0
   61.6180   33.4790   50.9110 C   0  0  0  0  0  0  0  0  0  0  0  0
   62.7770   33.4730   51.6750 C   0  0  0  0  0  0  0  0  0  0  0  0
   62.8460   33.5530   53.0270 F   0  0  0  0  0  0  0  0  0  0  0  0
   63.8560   33.4280   50.8100 C   0  0  0  0  0  0  0  0  0  0  0  0
   63.3930   33.4190   49.5480 N   0  0  0  0  0  0  0  0  0  0  0  0
   64.0970   33.4280   48.3870 C   0  0  0  0  0  0  0  0  0  0  0  0
   63.3900   33.4640   47.1770 C   0  0  0  0  0  0  0  0  0  0  0  0
   61.9810   33.4750   47.1900 C   0  0  0  0  0  0  0  0  0  0  0  0
   61.2920   33.5050   45.9720 O   0  0  0  0  0  0  0  0  0  0  0  0
   59.8960   33.4780   45.8740 C   0  0  0  0  0  0  0  0  0  0  0  0
   59.2380   34.5650   45.2880 C   0  0  0  0  0  0  0  0  0  0  0  0
   57.8470   34.5690   45.1750 C   0  0  0  0  0  0  0  0  0  0  0  0
   57.1070   33.4780   45.6320 C   0  0  0  0  0  0  0  0  0  0  0  0
   57.7550   32.3730   46.1910 C   0  0  0  0  0  0  0  0  0  0  0  0
   59.1600   32.3600   46.3190 C   0  0  0  0  0  0  0  0  0  0  0  0
   59.8650   31.2610   46.8400 O   0  0  0  0  0  0  0  0  0  0  0  0
   60.0590   29.9930   46.2090 C   0  0  0  0  0  0  0  0  0  0  0  0
   59.0540   29.7770   45.0730 C   0  0  0  0  0  0  0  0  0  0  0  0
   58.1190   28.6830   45.3790 N   0  0  0  0  0  0  0  0  0  0  0  0
   58.6140   27.4840   45.8090 C   0  0  0  0  0  0  0  0  0  0  0  0
   57.7530   26.4390   46.1410 C   0  0  0  0  0  0  0  0  0  0  0  0
   56.3820   26.6440   46.0180 C   0  0  0  0  0  0  0  0  0  0  0  0
   55.5750   25.7230   46.3110 O   0  0  0  0  0  0  0  0  0  0  0  0
   55.9150   27.8400   45.5830 N   0  0  0  0  0  0  0  0  0  0  0  0
   56.7620   28.8550   45.2650 C   0  0  0  0  0  0  0  0  0  0  0  0
   56.2820   29.9530   44.8720 O   0  0  0  0  0  0  0  0  0  0  0  0
   61.2920   33.4810   48.4200 C   0  0  0  0  0  0  0  0  0  0  0  0
   62.0470   33.4520   49.5940 C   0  0  0  0  0  0  0  0  0  0  0  0
   60.2326   33.6678   52.5210 H   0  0  0  0  0  0  0  0  0  0  0  0
   59.8286   34.6293   51.0585 H   0  0  0  0  0  0  0  0  0  0  0  0
   59.5860   32.8495   51.0585 H   0  0  0  0  0  0  0  0  0  0  0  0
   64.9153   33.4037   51.1055 H   0  0  0  0  0  0  0  0  0  0  0  0
   65.1968   33.4075   48.3957 H   0  0  0  0  0  0  0  0  0  0  0  0
   63.9333   33.4836   46.2207 H   0  0  0  0  0  0  0  0  0  0  0  0
   59.8199   35.4205   44.9146 H   0  0  0  0  0  0  0  0  0  0  0  0
   57.3341   35.4322   44.7257 H   0  0  0  0  0  0  0  0  0  0  0  0
   56.0099   33.4876   45.5521 H   0  0  0  0  0  0  0  0  0  0  0  0
   57.1665   31.5089   46.5330 H   0  0  0  0  0  0  0  0  0  0  0  0
   61.0786   29.9493   45.7985 H   0  0  0  0  0  0  0  0  0  0  0  0
   59.9080   29.2043   46.9608 H   0  0  0  0  0  0  0  0  0  0  0  0
   58.4817   30.7041   44.9214 H   0  0  0  0  0  0  0  0  0  0  0  0
   59.6133   29.5082   44.1647 H   0  0  0  0  0  0  0  0  0  0  0  0
   59.7015   27.3422   45.8939 H   0  0  0  0  0  0  0  0  0  0  0  0
   58.1483   25.4744   46.4922 H   0  0  0  0  0  0  0  0  0  0  0  0
   60.1928   33.5077   48.4537 H   0  0  0  0  0  0  0  0  0  0  0  0
  1  2  1  0
  2  3  1  0
  3  4  1  0
  3  5  2  0
  5  6  1  0
  6  7  1  0
  7  8  2  0
  8  9  1  0
  9 10  1  0
 10 11  1  0
 11 12  2  0
 12 13  1  0
 13 14  2  0
 14 15  1  0
 15 16  2  0
 16 17  1  0
 17 18  1  0
 18 19  1  0
 19 20  1  0
 20 21  1  0
 21 22  2  0
 22 23  1  0
 23 24  2  0
 23 25  1  0
 25 26  1  0
 26 27  2  0
  9 28  2  0
 28 29  1  0
 29  2  2  0
 29  6  1  0
 16 11  1  0
 26 20  1  0
  1 30  1  0
  1 31  1  0
  1 32  1  0
  5 33  1  0
  7 34  1  0
  8 35  1  0
 12 36  1  0
 13 37  1  0
 14 38  1  0
 15 39  1  0
 18 40  1  0
 18 41  1  0
 19 42  1  0
 19 43  1  0
 21 44  1  0
 22 45  1  0
 28 46  1  0
M  CHG  1  25  -1
M  END
>  <UniqueID>  (64) 
52

>  <SMILES>  (64) 
Cc1c(F)cn2ccc(Oc3ccccc3OCCn3ccc(=O)[n-]c3=O)cc12

>  <Energy>  (64) 
89.08810458155496

>  <Genealogy>  (64) 
Cc1c(F)cn2ccc(Oc3ccccc3OCCn3ccc(=O)[n-]c3=O)cc12 (protonated)
Cc1c(F)cn2ccc(Oc3ccccc3OCCn3ccc(=O)[n-]c3=O)cc12 (3D coordinates assigned)
Cc1c(F)cn2ccc(Oc3ccccc3OCCn3ccc(=O)[n-]c3=O)cc12 (optimized conformer: 89.08810458155496 kcal/mol)

>  <smiles>  (64) 
Cc1c(F)cn2ccc(Oc3ccccc3OCCn3ccc(=O)[nH]c3=O)cc12

>  <score_type>  (64) 
oracle

>  <origin>  (64) 
adg

>  <m_score__min__energy>  (64) 
-10.24

>  <m_primary>  (64) 
energy

$$$$
64:0
     RDKit          3D

 27 28  0  0  0  0  0  0  0  0999 V2000
   63.6730   33.1700   46.9530 C   0  0  0  0  0  0  0  0  0  0  0  0
   62.3010   33.6250   47.3510 C   0  0  0  0  0  0  0  0  0  0  0  0
   61.9890   33.8350   48.7030 C   0  0  0  0  0  0  0  0  0  0  0  0
   60.6990   34.2160   49.0780 C   0  0  0  0  0  0  0  0  0  0  0  0
   59.7070   34.3800   48.1090 C   0  0  0  0  0  0  0  0  0  0  0  0
   60.0010   34.1710   46.7520 C   0  0  0  0  0  0  0  0  0  0  0  0
   58.9240   34.3030   45.7150 C   0  0  0  0  0  0  0  0  0  0  0  0
   57.4120   33.4700   46.2980 S   0  0  0  0  0  0  0  0  0  0  0  0
   57.2890   32.4300   44.8470 C   0  0  0  0  0  0  0  0  0  0  0  0
   57.8380   32.8370   43.6710 N   0  0  0  0  0  0  0  0  0  0  0  0
   57.7560   32.0610   42.5590 C   0  0  0  0  0  0  0  0  0  0  0  0
   57.0990   30.8320   42.6160 C   0  0  0  0  0  0  0  0  0  0  0  0
   56.5390   30.4330   43.8300 C   0  0  0  0  0  0  0  0  0  0  0  0
   56.6430   31.2370   44.9200 N   0  0  0  0  0  0  0  0  0  0  0  0
   61.2960   33.7740   46.3810 C   0  0  0  0  0  0  0  0  0  0  0  0
   64.2699   32.9721   47.8555 H   0  0  0  0  0  0  0  0  0  0  0  0
   63.5952   32.2496   46.3557 H   0  0  0  0  0  0  0  0  0  0  0  0
   64.1606   33.9545   46.3557 H   0  0  0  0  0  0  0  0  0  0  0  0
   62.7645   33.6988   49.4712 H   0  0  0  0  0  0  0  0  0  0  0  0
   60.4638   34.3873   50.1388 H   0  0  0  0  0  0  0  0  0  0  0  0
   58.6907   34.6742   48.4101 H   0  0  0  0  0  0  0  0  0  0  0  0
   58.7116   35.3682   45.5408 H   0  0  0  0  0  0  0  0  0  0  0  0
   59.2600   33.8373   44.7768 H   0  0  0  0  0  0  0  0  0  0  0  0
   58.2070   32.4014   41.6152 H   0  0  0  0  0  0  0  0  0  0  0  0
   57.0241   30.1921   41.7244 H   0  0  0  0  0  0  0  0  0  0  0  0
   56.0142   29.4691   43.9044 H   0  0  0  0  0  0  0  0  0  0  0  0
   61.5250   33.5783   45.3231 H   0  0  0  0  0  0  0  0  0  0  0  0
  1  2  1  0
  2  3  2  0
  3  4  1  0
  4  5  2  0
  5  6  1  0
  6  7  1  0
  7  8  1  0
  8  9  1  0
  9 10  2  0
 10 11  1  0
 11 12  2  0
 12 13  1  0
 13 14  2  0
  6 15  2  0
 15  2  1  0
 14  9  1  0
  1 16  1  0
  1 17  1  0
  1 18  1  0
  3 19  1  0
  4 20  1  0
  5 21  1  0
  7 22  1  0
  7 23  1  0
 11 24  1  0
 12 25  1  0
 13 26  1  0
 15 27  1  0
M  END
>  <UniqueID>  (65) 
53

>  <SMILES>  (65) 
Cc1cccc(CSc2ncccn2)c1

>  <Energy>  (65) 
23.306061380521946

>  <Genealogy>  (65) 
Cc1cccc(CSc2ncccn2)c1 (3D coordinates assigned)
Cc1cccc(CSc2ncccn2)c1 (optimized conformer: 23.306061380521946 kcal/mol)

>  <smiles>  (65) 
Cc1cccc(CSc2ncccn2)c1

>  <score_type>  (65) 
oracle

>  <origin>  (65) 
adg

>  <m_score__min__energy>  (65) 
-6.5899999999999999

>  <m_primary>  (65) 
energy

$$$$
65:0
     RDKit          3D

 55 57  0  0  0  0  0  0  0  0999 V2000
   57.4010   21.4920   43.3490 C   0  0  0  0  0  0  0  0  0  0  0  0
   57.8920   22.5630   44.3190 C   0  0  0  0  0  0  0  0  0  0  0  0
   57.0950   23.7920   44.1820 N   0  0  0  0  0  0  0  0  0  0  0  0
   55.6910   23.7030   43.7570 C   0  0  0  0  0  0  0  0  0  0  0  0
   54.7470   24.0070   44.9170 C   0  0  0  0  0  0  0  0  0  0  0  0
   57.6930   25.0810   44.4330 C   0  0  0  0  0  0  0  0  0  0  0  0
   57.7760   26.0420   43.4110 C   0  0  0  0  0  0  0  0  0  0  0  0
   58.3740   27.2820   43.6530 C   0  0  0  0  0  0  0  0  0  0  0  0
   58.9160   27.5690   44.9110 C   0  0  0  0  0  0  0  0  0  0  0  0
   59.5330   28.8760   45.1670 C   0  0  0  0  0  0  0  0  0  0  0  0
   59.1150   29.7470   46.1030 C   0  0  0  0  0  0  0  0  0  0  0  0
   58.1460   30.7900   45.7090 C   0  0  0  0  0  0  0  0  0  0  0  0
   57.0370   30.4470   45.2180 O   0  0  0  0  0  0  0  0  0  0  0  0
   58.4560   32.2260   45.8620 C   0  0  0  0  0  0  0  0  0  0  0  0
   58.8710   32.9770   44.7500 C   0  0  0  0  0  0  0  0  0  0  0  0
   59.1740   34.3350   44.8920 C   0  0  0  0  0  0  0  0  0  0  0  0
   59.0520   34.9540   46.1370 C   0  0  0  0  0  0  0  0  0  0  0  0
   58.6170   34.2180   47.2440 C   0  0  0  0  0  0  0  0  0  0  0  0
   58.3130   32.8600   47.1060 C   0  0  0  0  0  0  0  0  0  0  0  0
   59.7180   29.7650   47.7780 S   0  0  0  0  0  0  0  0  0  0  0  0
   58.6070   29.9120   48.7810 O   0  0  0  0  0  0  0  0  0  0  0  0
   60.3950   28.4470   48.0430 O   0  0  0  0  0  0  0  0  0  0  0  0
   60.8680   31.0790   48.0150 C   0  0  0  0  0  0  0  0  0  0  0  0
   61.9540   31.2480   47.1390 C   0  0  0  0  0  0  0  0  0  0  0  0
   62.8370   32.3180   47.3140 C   0  0  0  0  0  0  0  0  0  0  0  0
   62.6460   33.2180   48.3680 C   0  0  0  0  0  0  0  0  0  0  0  0
   61.5730   33.0480   49.2480 C   0  0  0  0  0  0  0  0  0  0  0  0
   60.6880   31.9800   49.0730 C   0  0  0  0  0  0  0  0  0  0  0  0
   58.8030   26.6320   45.9440 C   0  0  0  0  0  0  0  0  0  0  0  0
   58.2010   25.3940   45.7060 C   0  0  0  0  0  0  0  0  0  0  0  0
   57.0083   20.6355   43.9166 H   0  0  0  0  0  0  0  0  0  0  0  0
   56.6039   21.9086   42.7156 H   0  0  0  0  0  0  0  0  0  0  0  0
   58.2368   21.1600   42.7156 H   0  0  0  0  0  0  0  0  0  0  0  0
   57.8016   22.1867   45.3487 H   0  0  0  0  0  0  0  0  0  0  0  0
   58.9424   22.7946   44.0887 H   0  0  0  0  0  0  0  0  0  0  0  0
   55.5132   24.4282   42.9493 H   0  0  0  0  0  0  0  0  0  0  0  0
   55.4958   22.6789   43.4060 H   0  0  0  0  0  0  0  0  0  0  0  0
   55.2705   23.8384   45.8696 H   0  0  0  0  0  0  0  0  0  0  0  0
   54.4203   25.0558   44.8587 H   0  0  0  0  0  0  0  0  0  0  0  0
   53.8697   23.3459   44.8587 H   0  0  0  0  0  0  0  0  0  0  0  0
   57.3679   25.8170   42.4146 H   0  0  0  0  0  0  0  0  0  0  0  0
   58.4188   28.0347   42.8521 H   0  0  0  0  0  0  0  0  0  0  0  0
   60.3975   29.1633   44.5504 H   0  0  0  0  0  0  0  0  0  0  0  0
   58.9579   32.4958   43.7647 H   0  0  0  0  0  0  0  0  0  0  0  0
   59.5092   34.9165   44.0205 H   0  0  0  0  0  0  0  0  0  0  0  0
   59.2979   36.0204   46.2476 H   0  0  0  0  0  0  0  0  0  0  0  0
   58.5140   34.7076   48.2236 H   0  0  0  0  0  0  0  0  0  0  0  0
   57.9604   32.2864   47.9759 H   0  0  0  0  0  0  0  0  0  0  0  0
   62.1096   30.5371   46.3141 H   0  0  0  0  0  0  0  0  0  0  0  0
   63.6821   32.4522   46.6227 H   0  0  0  0  0  0  0  0  0  0  0  0
   63.3406   34.0600   48.5044 H   0  0  0  0  0  0  0  0  0  0  0  0
   61.4251   33.7545   50.0780 H   0  0  0  0  0  0  0  0  0  0  0  0
   59.8467   31.8464   49.7689 H   0  0  0  0  0  0  0  0  0  0  0  0
   59.1891   26.8707   46.9460 H   0  0  0  0  0  0  0  0  0  0  0  0
   58.1239   24.6588   46.5205 H   0  0  0  0  0  0  0  0  0  0  0  0
  1  2  1  0
  2  3  1  0
  3  4  1  0
  4  5  1  0
  3  6  1  0
  6  7  2  0
  7  8  1  0
  8  9  2  0
  9 10  1  0
 10 11  2  3
 11 12  1  0
 12 13  2  0
 12 14  1  0
 14 15  2  0
 15 16  1  0
 16 17  2  0
 17 18  1  0
 18 19  2  0
 11 20  1  0
 20 21  2  0
 20 22  2  0
 20 23  1  0
 23 24  2  0
 24 25  1  0
 25 26  2  0
 26 27  1  0
 27 28  2  0
  9 29  1  0
 29 30  2  0
 30  6  1  0
 19 14  1  0
 28 23  1  0
  1 31  1  0
  1 32  1  0
  1 33  1  0
  2 34  1  0
  2 35  1  0
  4 36  1  0
  4 37  1  0
  5 38  1  0
  5 39  1  0
  5 40  1  0
  7 41  1  0
  8 42  1  0
 10 43  1  0
 15 44  1  0
 16 45  1  0
 17 46  1  0
 18 47  1  0
 19 48  1  0
 24 49  1  0
 25 50  1  0
 26 51  1  0
 27 52  1  0
 28 53  1  0
 29 54  1  0
 30 55  1  0
M  END
>  <UniqueID>  (66) 
54

>  <SMILES>  (66) 
CCN(CC)c1ccc(C=C(C(=O)c2ccccc2)S(=O)(=O)c2ccccc2)cc1

>  <Energy>  (66) 
71.01086141762971

>  <Genealogy>  (66) 
CCN(CC)c1ccc(C=C(C(=O)c2ccccc2)S(=O)(=O)c2ccccc2)cc1 (3D coordinates assigned)
CCN(CC)c1ccc(C=C(C(=O)c2ccccc2)S(=O)(=O)c2ccccc2)cc1 (optimized conformer: 71.01086141762971 kcal/mol)

>  <smiles>  (66) 
CCN(CC)c1ccc(C=C(C(=O)c2ccccc2)S(=O)(=O)c2ccccc2)cc1

>  <score_type>  (66) 
oracle

>  <origin>  (66) 
adg

>  <m_score__min__energy>  (66) 
-9

>  <m_primary>  (66) 
energy

$$$$
66:0
     RDKit          3D

 45 48  0  0  0  0  0  0  0  0999 V2000
   55.4260   29.0660   44.8190 O   0  0  0  0  0  0  0  0  0  0  0  0
   56.6130   29.3330   45.1400 C   0  0  0  0  0  0  0  0  0  0  0  0
   56.9860   30.6350   45.2700 N   0  0  0  0  0  0  0  0  0  0  0  0
   58.2460   31.0010   45.6320 C   0  0  0  0  0  0  0  0  0  0  0  0
   58.5730   32.4400   45.7640 C   0  0  0  0  0  0  0  0  0  0  0  0
   58.8960   33.1710   44.6080 C   0  0  0  0  0  0  0  0  0  0  0  0
   59.2100   34.5290   44.6910 C   0  0  0  0  0  0  0  0  0  0  0  0
   59.2120   35.1700   45.9280 C   0  0  0  0  0  0  0  0  0  0  0  0
   58.9120   34.4550   47.0890 C   0  0  0  0  0  0  0  0  0  0  0  0
   58.6030   33.0820   47.0240 C   0  0  0  0  0  0  0  0  0  0  0  0
   58.3470   32.3250   48.1810 O   0  0  0  0  0  0  0  0  0  0  0  0
   59.3120   31.9660   49.1710 C   0  0  0  0  0  0  0  0  0  0  0  0
   60.6980   32.3550   48.7300 C   0  0  0  0  0  0  0  0  0  0  0  0
   61.4320   31.5260   47.8650 C   0  0  0  0  0  0  0  0  0  0  0  0
   62.7150   31.8990   47.4540 C   0  0  0  0  0  0  0  0  0  0  0  0
   63.2700   33.1040   47.8940 C   0  0  0  0  0  0  0  0  0  0  0  0
   64.5150   33.4630   47.4950 F   0  0  0  0  0  0  0  0  0  0  0  0
   62.5400   33.9390   48.7450 C   0  0  0  0  0  0  0  0  0  0  0  0
   61.2570   33.5700   49.1580 C   0  0  0  0  0  0  0  0  0  0  0  0
   59.1940   30.0070   45.9150 C   0  0  0  0  0  0  0  0  0  0  0  0
   58.8410   28.6640   45.7880 C   0  0  0  0  0  0  0  0  0  0  0  0
   57.5460   28.3050   45.3870 C   0  0  0  0  0  0  0  0  0  0  0  0
   57.1860   26.8720   45.2430 C   0  0  0  0  0  0  0  0  0  0  0  0
   56.2330   26.2900   46.1010 C   0  0  0  0  0  0  0  0  0  0  0  0
   55.8990   24.9380   45.9730 C   0  0  0  0  0  0  0  0  0  0  0  0
   56.5140   24.1540   44.9940 C   0  0  0  0  0  0  0  0  0  0  0  0
   57.4670   24.7190   44.1420 C   0  0  0  0  0  0  0  0  0  0  0  0
   57.8030   26.0710   44.2660 C   0  0  0  0  0  0  0  0  0  0  0  0
   58.9015   32.6690   43.6293 H   0  0  0  0  0  0  0  0  0  0  0  0
   59.4559   35.0931   43.7792 H   0  0  0  0  0  0  0  0  0  0  0  0
   59.4505   36.2420   45.9901 H   0  0  0  0  0  0  0  0  0  0  0  0
   58.9169   34.9677   48.0622 H   0  0  0  0  0  0  0  0  0  0  0  0
   59.0739   32.4840   50.1117 H   0  0  0  0  0  0  0  0  0  0  0  0
   59.2804   30.8761   49.3164 H   0  0  0  0  0  0  0  0  0  0  0  0
   60.9957   30.5806   47.5102 H   0  0  0  0  0  0  0  0  0  0  0  0
   63.2889   31.2429   46.7830 H   0  0  0  0  0  0  0  0  0  0  0  0
   62.9762   34.8880   49.0901 H   0  0  0  0  0  0  0  0  0  0  0  0
   60.6827   34.2339   49.8209 H   0  0  0  0  0  0  0  0  0  0  0  0
   60.2091   30.2849   46.2350 H   0  0  0  0  0  0  0  0  0  0  0  0
   59.5830   27.8812   46.0037 H   0  0  0  0  0  0  0  0  0  0  0  0
   55.7487   26.9021   46.8761 H   0  0  0  0  0  0  0  0  0  0  0  0
   55.1508   24.4913   46.6443 H   0  0  0  0  0  0  0  0  0  0  0  0
   56.2481   23.0914   44.8936 H   0  0  0  0  0  0  0  0  0  0  0  0
   57.9531   24.1000   43.3735 H   0  0  0  0  0  0  0  0  0  0  0  0
   58.5552   26.5107   43.5945 H   0  0  0  0  0  0  0  0  0  0  0  0
  1  2  2  0
  2  3  1  0
  3  4  1  0
  4  5  1  0
  5  6  2  0
  6  7  1  0
  7  8  2  0
  8  9  1  0
  9 10  2  0
 10 11  1  0
 11 12  1  0
 12 13  1  0
 13 14  2  0
 14 15  1  0
 15 16  2  0
 16 17  1  0
 16 18  1  0
 18 19  2  0
  4 20  2  0
 20 21  1  0
 21 22  2  0
 22 23  1  0
 23 24  2  0
 24 25  1  0
 25 26  2  0
 26 27  1  0
 27 28  2  0
 22  2  1  0
 28 23  1  0
 10  5  1  0
 19 13  1  0
  6 29  1  0
  7 30  1  0
  8 31  1  0
  9 32  1  0
 12 33  1  0
 12 34  1  0
 14 35  1  0
 15 36  1  0
 18 37  1  0
 19 38  1  0
 20 39  1  0
 21 40  1  0
 24 41  1  0
 25 42  1  0
 26 43  1  0
 27 44  1  0
 28 45  1  0
M  CHG  1   3  -1
M  END
>  <UniqueID>  (67) 
55

>  <SMILES>  (67) 
O=c1[n-]c(-c2ccccc2OCc2ccc(F)cc2)ccc1-c1ccccc1

>  <Energy>  (67) 
63.05356274901841

>  <Genealogy>  (67) 
O=c1[n-]c(-c2ccccc2OCc2ccc(F)cc2)ccc1-c1ccccc1 (protonated)
O=c1[n-]c(-c2ccccc2OCc2ccc(F)cc2)ccc1-c1ccccc1 (3D coordinates assigned)
O=c1[n-]c(-c2ccccc2OCc2ccc(F)cc2)ccc1-c1ccccc1 (optimized conformer: 63.05356274901841 kcal/mol)

>  <smiles>  (67) 
O=c1[nH]c(-c2ccccc2OCc2ccc(F)cc2)ccc1-c1ccccc1

>  <score_type>  (67) 
oracle

>  <origin>  (67) 
adg

>  <m_score__min__energy>  (67) 
-10.550000000000001

>  <m_primary>  (67) 
energy

$$$$
67:0
     RDKit          3D

 32 34  0  0  0  0  0  0  0  0999 V2000
   53.8100   26.3000   45.9680 H   0  0  0  0  0  0  0  0  0  0  0  0
   54.7630   25.8980   45.8240 N   0  0  0  0  0  0  0  0  0  0  0  0
   55.8260   26.6120   46.0010 C   0  0  0  0  0  0  0  0  0  0  0  0
   56.9360   26.1230   46.5880 N   0  0  0  0  0  0  0  0  0  0  0  0
   57.7850   27.1660   46.5750 C   0  0  0  0  0  0  0  0  0  0  0  0
   58.8104   27.1578   46.9732 H   0  0  0  0  0  0  0  0  0  0  0  0
   57.1640   28.2520   45.9810 C   0  0  0  0  0  0  0  0  0  0  0  0
   57.7360   29.6040   45.7620 C   0  0  0  0  0  0  0  0  0  0  0  0
   58.7690   30.0700   46.5960 C   0  0  0  0  0  0  0  0  0  0  0  0
   59.1461   29.4291   47.4066 H   0  0  0  0  0  0  0  0  0  0  0  0
   59.3200   31.3390   46.4040 C   0  0  0  0  0  0  0  0  0  0  0  0
   60.1167   31.6966   47.0729 H   0  0  0  0  0  0  0  0  0  0  0  0
   58.8620   32.1610   45.3610 C   0  0  0  0  0  0  0  0  0  0  0  0
   59.3980   33.4740   45.1440 N   0  0  0  0  0  0  0  0  0  0  0  0
   59.8760   34.3720   46.1550 C   0  0  0  0  0  0  0  0  0  0  0  0
   59.3010   35.4830   46.2930 O   0  0  0  0  0  0  0  0  0  0  0  0
   61.0530   34.0530   46.9980 C   0  0  0  0  0  0  0  0  0  0  0  0
   60.9290   34.0200   48.3990 C   0  0  0  0  0  0  0  0  0  0  0  0
   59.9555   34.2283   48.8669 H   0  0  0  0  0  0  0  0  0  0  0  0
   62.0360   33.7240   49.2000 C   0  0  0  0  0  0  0  0  0  0  0  0
   61.9295   33.6942   50.2944 H   0  0  0  0  0  0  0  0  0  0  0  0
   63.2770   33.4660   48.6130 C   0  0  0  0  0  0  0  0  0  0  0  0
   64.1454   33.2274   49.2447 H   0  0  0  0  0  0  0  0  0  0  0  0
   63.4150   33.5110   47.2240 C   0  0  0  0  0  0  0  0  0  0  0  0
   64.3938   33.3125   46.7629 H   0  0  0  0  0  0  0  0  0  0  0  0
   62.3110   33.8080   46.4180 C   0  0  0  0  0  0  0  0  0  0  0  0
   62.4271   33.8502   45.3250 H   0  0  0  0  0  0  0  0  0  0  0  0
   57.8190   31.7120   44.5450 C   0  0  0  0  0  0  0  0  0  0  0  0
   57.4324   32.3622   43.7464 H   0  0  0  0  0  0  0  0  0  0  0  0
   57.2640   30.4440   44.7360 C   0  0  0  0  0  0  0  0  0  0  0  0
   56.4516   30.0995   44.0792 H   0  0  0  0  0  0  0  0  0  0  0  0
   55.9160   27.9000   45.6160 N   0  0  0  0  0  0  0  0  0  0  0  0
  1  2  1  0
  2  3  2  0
  3  4  1  0
  4  5  1  0
  5  6  1  0
  5  7  2  0
  7  8  1  0
  8  9  2  0
  9 10  1  0
  9 11  1  0
 11 12  1  0
 11 13  2  0
 13 14  1  0
 14 15  1  0
 15 16  2  0
 15 17  1  0
 17 18  2  0
 18 19  1  0
 18 20  1  0
 20 21  1  0
 20 22  2  0
 22 23  1  0
 22 24  1  0
 24 25  1  0
 24 26  2  0
 26 27  1  0
 13 28  1  0
 28 29  1  0
 28 30  2  0
 30 31  1  0
  7 32  1  0
 32  3  1  0
 30  8  1  0
 26 17  1  0
M  CHG  3   4  -1  14  -1  32  -1
M  END
>  <UniqueID>  (68) 
56

>  <SMILES>  (68) 
[H]/N=c1/[n-]cc(-c2ccc([N-]C(=O)c3ccccc3)cc2)[n-]1

>  <Energy>  (68) 
70.87725304527589

>  <Genealogy>  (68) 
N=c1[n-]cc(-c2ccc([N-]C(=O)c3ccccc3)cc2)[n-]1 (protonated)
[H]/N=c1/[n-]cc(-c2ccc([N-]C(=O)c3ccccc3)cc2)[n-]1 (cis-trans isomerization)
[H]/N=c1/[n-]cc(-c2ccc([N-]C(=O)c3ccccc3)cc2)[n-]1 (3D coordinates assigned)
[H]/N=c1/[n-]cc(-c2ccc([N-]C(=O)c3ccccc3)cc2)[n-]1 (optimized conformer: 70.87725304527589 kcal/mol)

>  <smiles>  (68) 
N=c1[nH]cc(-c2ccc(NC(=O)c3ccccc3)cc2)[nH]1

>  <score_type>  (68) 
oracle

>  <origin>  (68) 
adg

>  <m_score__min__energy>  (68) 
-12.279999999999999

>  <m_primary>  (68) 
energy

$$$$
68:0
     RDKit          3D

 30 32  0  0  0  0  0  0  0  0999 V2000
   57.2980   25.9330   46.7580 C   0  0  0  0  0  0  0  0  0  0  0  0
   56.7700   27.0210   46.0100 O   0  0  0  0  0  0  0  0  0  0  0  0
   57.4260   27.5580   44.8980 C   0  0  0  0  0  0  0  0  0  0  0  0
   57.8030   26.8130   43.9530 O   0  0  0  0  0  0  0  0  0  0  0  0
   57.6760   29.0020   44.8350 C   0  0  0  0  0  0  0  0  0  0  0  0
   57.5160   29.7380   43.7120 N   0  0  0  0  0  0  0  0  0  0  0  0
   57.8340   30.9720   44.0620 N   0  0  0  0  0  0  0  0  0  0  0  0
   57.8300   32.0790   43.2710 C   0  0  0  0  0  0  0  0  0  0  0  0
   57.4040   31.9990   41.8350 C   0  0  0  0  0  0  0  0  0  0  0  0
   58.1830   33.3100   43.8560 C   0  0  0  0  0  0  0  0  0  0  0  0
   58.5500   33.3590   45.2200 C   0  0  0  0  0  0  0  0  0  0  0  0
   58.9130   34.5760   45.8160 C   0  0  0  0  0  0  0  0  0  0  0  0
   59.2750   34.6170   47.1650 C   0  0  0  0  0  0  0  0  0  0  0  0
   59.2750   33.4480   47.9330 C   0  0  0  0  0  0  0  0  0  0  0  0
   59.7710   33.5210   49.7760 Br  0  0  0  0  0  0  0  0  0  0  0  0
   58.9150   32.2260   47.3550 C   0  0  0  0  0  0  0  0  0  0  0  0
   58.5510   32.1720   46.0000 C   0  0  0  0  0  0  0  0  0  0  0  0
   58.1750   30.9840   45.3590 C   0  0  0  0  0  0  0  0  0  0  0  0
   58.0880   29.7490   45.8880 N   0  0  0  0  0  0  0  0  0  0  0  0
   57.1960   26.1433   47.8329 H   0  0  0  0  0  0  0  0  0  0  0  0
   56.7452   25.0149   46.5099 H   0  0  0  0  0  0  0  0  0  0  0  0
   58.3613   25.7992   46.5099 H   0  0  0  0  0  0  0  0  0  0  0  0
   56.3241   31.7962   41.7837 H   0  0  0  0  0  0  0  0  0  0  0  0
   57.6220   32.9538   41.3341 H   0  0  0  0  0  0  0  0  0  0  0  0
   57.9535   31.1884   41.3341 H   0  0  0  0  0  0  0  0  0  0  0  0
   58.1732   34.2304   43.2536 H   0  0  0  0  0  0  0  0  0  0  0  0
   58.9127   35.5004   45.2198 H   0  0  0  0  0  0  0  0  0  0  0  0
   59.5616   35.5740   47.6255 H   0  0  0  0  0  0  0  0  0  0  0  0
   58.9171   31.3083   47.9615 H   0  0  0  0  0  0  0  0  0  0  0  0
   58.2840   29.4320   46.8630 H   0  0  0  0  0  0  0  0  0  0  0  0
  1  2  1  0
  2  3  1  0
  3  4  2  0
  3  5  1  0
  5  6  2  0
  6  7  1  0
  7  8  1  0
  8  9  1  0
  8 10  2  0
 10 11  1  0
 11 12  2  0
 12 13  1  0
 13 14  2  0
 14 15  1  0
 14 16  1  0
 16 17  2  0
 17 18  1  0
 18 19  2  0
 19  5  1  0
 18  7  1  0
 17 11  1  0
  1 20  1  0
  1 21  1  0
  1 22  1  0
  9 23  1  0
  9 24  1  0
  9 25  1  0
 10 26  1  0
 12 27  1  0
 13 28  1  0
 16 29  1  0
 19 30  1  0
M  CHG  1  19   1
M  END
>  <UniqueID>  (69) 
57

>  <SMILES>  (69) 
COC(=O)c1nn2c(C)cc3ccc(Br)cc3c2[nH+]1

>  <Energy>  (69) 
71.71273049357829

>  <Genealogy>  (69) 
COC(=O)c1nn2c(C)cc3ccc(Br)cc3c2[nH+]1 (protonated)
COC(=O)c1nn2c(C)cc3ccc(Br)cc3c2[nH+]1 (3D coordinates assigned)
COC(=O)c1nn2c(C)cc3ccc(Br)cc3c2[nH+]1 (optimized conformer: 71.71273049357829 kcal/mol)

>  <smiles>  (69) 
COC(=O)c1nc2c3cc(Br)ccc3cc(C)n2n1

>  <score_type>  (69) 
oracle

>  <origin>  (69) 
adg

>  <m_score__min__energy>  (69) 
-5.5999999999999996

>  <m_primary>  (69) 
energy

$$$$
69:0
     RDKit          3D

 55 58  0  0  0  0  0  0  0  0999 V2000
   61.2160   29.4260   45.3210 O   0  0  0  0  0  0  0  0  0  0  0  0
   60.2130   29.5510   46.0750 C   0  0  0  0  0  0  0  0  0  0  0  0
   60.0690   30.7370   46.8760 N   0  0  0  0  0  0  0  0  0  0  0  0
   61.1400   31.6690   47.0970 C   0  0  0  0  0  0  0  0  0  0  0  0
   62.3990   31.2150   47.5290 C   0  0  0  0  0  0  0  0  0  0  0  0
   63.4200   32.1240   47.8190 C   0  0  0  0  0  0  0  0  0  0  0  0
   63.1920   33.4950   47.6900 C   0  0  0  0  0  0  0  0  0  0  0  0
   61.9460   33.9600   47.2690 C   0  0  0  0  0  0  0  0  0  0  0  0
   60.9150   33.0590   46.9660 C   0  0  0  0  0  0  0  0  0  0  0  0
   59.6590   33.5680   46.4940 N   0  0  0  0  0  0  0  0  0  0  0  0
   59.5800   34.2150   45.1840 C   0  0  0  0  0  0  0  0  0  0  0  0
   58.1990   33.9630   44.5700 C   0  0  0  0  0  0  0  0  0  0  0  0
   57.1710   34.3100   45.4800 O   0  0  0  0  0  0  0  0  0  0  0  0
   57.2190   33.4560   46.6080 C   0  0  0  0  0  0  0  0  0  0  0  0
   58.5120   33.6720   47.3980 C   0  0  0  0  0  0  0  0  0  0  0  0
   59.1720   28.4960   46.0820 C   0  0  0  0  0  0  0  0  0  0  0  0
   59.2750   27.3790   46.9320 C   0  0  0  0  0  0  0  0  0  0  0  0
   58.2810   26.3950   46.9360 C   0  0  0  0  0  0  0  0  0  0  0  0
   57.1750   26.5060   46.0840 C   0  0  0  0  0  0  0  0  0  0  0  0
   55.8960   25.2950   46.1100 S   0  0  0  0  0  0  0  0  0  0  0  0
   54.5600   25.9600   45.9240 O   0  0  0  0  0  0  0  0  0  0  0  0
   55.9070   24.6250   47.4550 O   0  0  0  0  0  0  0  0  0  0  0  0
   56.1600   24.0900   44.8640 N   0  0  0  0  0  0  0  0  0  0  0  0
   55.5950   22.7800   45.2330 C   0  0  0  0  0  0  0  0  0  0  0  0
   56.4300   22.0700   46.3250 C   0  0  0  0  0  0  0  0  0  0  0  0
   57.7530   22.5670   46.4430 O   0  0  0  0  0  0  0  0  0  0  0  0
   58.3020   22.8070   45.1670 C   0  0  0  0  0  0  0  0  0  0  0  0
   57.5900   23.9940   44.4930 C   0  0  0  0  0  0  0  0  0  0  0  0
   57.0710   27.6080   45.2270 C   0  0  0  0  0  0  0  0  0  0  0  0
   58.0630   28.5920   45.2210 C   0  0  0  0  0  0  0  0  0  0  0  0
   59.1210   30.9890   47.2320 H   0  0  0  0  0  0  0  0  0  0  0  0
   62.5815   30.1359   47.6395 H   0  0  0  0  0  0  0  0  0  0  0  0
   64.4038   31.7589   48.1491 H   0  0  0  0  0  0  0  0  0  0  0  0
   63.9958   34.2096   47.9206 H   0  0  0  0  0  0  0  0  0  0  0  0
   61.7708   35.0418   47.1740 H   0  0  0  0  0  0  0  0  0  0  0  0
   59.7373   35.2975   45.3000 H   0  0  0  0  0  0  0  0  0  0  0  0
   60.3553   33.7995   44.5235 H   0  0  0  0  0  0  0  0  0  0  0  0
   58.0936   34.5702   43.6588 H   0  0  0  0  0  0  0  0  0  0  0  0
   58.1105   32.8930   44.3307 H   0  0  0  0  0  0  0  0  0  0  0  0
   56.3585   33.6697   47.2591 H   0  0  0  0  0  0  0  0  0  0  0  0
   57.1872   32.4123   46.2620 H   0  0  0  0  0  0  0  0  0  0  0  0
   58.4977   34.6707   47.8589 H   0  0  0  0  0  0  0  0  0  0  0  0
   58.5938   32.9068   48.1840 H   0  0  0  0  0  0  0  0  0  0  0  0
   60.1443   27.2790   47.5986 H   0  0  0  0  0  0  0  0  0  0  0  0
   58.3683   25.5307   47.6108 H   0  0  0  0  0  0  0  0  0  0  0  0
   54.5723   22.9287   45.6098 H   0  0  0  0  0  0  0  0  0  0  0  0
   55.6024   22.1441   44.3354 H   0  0  0  0  0  0  0  0  0  0  0  0
   55.9218   22.2019   47.2916 H   0  0  0  0  0  0  0  0  0  0  0  0
   56.5083   21.0122   46.0334 H   0  0  0  0  0  0  0  0  0  0  0  0
   59.3727   23.0373   45.2702 H   0  0  0  0  0  0  0  0  0  0  0  0
   58.1675   21.9096   44.5453 H   0  0  0  0  0  0  0  0  0  0  0  0
   58.0946   24.9238   44.7943 H   0  0  0  0  0  0  0  0  0  0  0  0
   57.6405   23.8368   43.4055 H   0  0  0  0  0  0  0  0  0  0  0  0
   56.2046   27.6997   44.5554 H   0  0  0  0  0  0  0  0  0  0  0  0
   57.9763   29.4493   44.5372 H   0  0  0  0  0  0  0  0  0  0  0  0
  1  2  2  0
  2  3  1  0
  3  4  1  0
  4  5  2  0
  5  6  1  0
  6  7  2  0
  7  8  1  0
  8  9  2  0
  9 10  1  0
 10 11  1  0
 11 12  1  0
 12 13  1  0
 13 14  1  0
 14 15  1  0
  2 16  1  0
 16 17  2  0
 17 18  1  0
 18 19  2  0
 19 20  1  0
 20 21  2  0
 20 22  2  0
 20 23  1  0
 23 24  1  0
 24 25  1  0
 25 26  1  0
 26 27  1  0
 27 28  1  0
 19 29  1  0
 29 30  2  0
  9  4  1  0
 15 10  1  0
 30 16  1  0
 28 23  1  0
  3 31  1  0
  5 32  1  0
  6 33  1  0
  7 34  1  0
  8 35  1  0
 11 36  1  0
 11 37  1  0
 12 38  1  0
 12 39  1  0
 14 40  1  0
 14 41  1  0
 15 42  1  0
 15 43  1  0
 17 44  1  0
 18 45  1  0
 24 46  1  0
 24 47  1  0
 25 48  1  0
 25 49  1  0
 27 50  1  0
 27 51  1  0
 28 52  1  0
 28 53  1  0
 29 54  1  0
 30 55  1  0
M  END
>  <UniqueID>  (70) 
58

>  <SMILES>  (70) 
O=C(Nc1ccccc1N1CCOCC1)c1ccc(S(=O)(=O)N2CCOCC2)cc1

>  <Energy>  (70) 
80.41627109680364

>  <Genealogy>  (70) 
O=C(Nc1ccccc1N1CCOCC1)c1ccc(S(=O)(=O)N2CCOCC2)cc1 (3D coordinates assigned)
O=C(Nc1ccccc1N1CCOCC1)c1ccc(S(=O)(=O)N2CCOCC2)cc1 (nonaromatic ring conformer: 80.41627109680364 kcal/mol)

>  <smiles>  (70) 
O=C(Nc1ccccc1N1CCOCC1)c1ccc(S(=O)(=O)N2CCOCC2)cc1

>  <score_type>  (70) 
oracle

>  <origin>  (70) 
adg

>  <m_score__min__energy>  (70) 
-9.1799999999999997

>  <m_primary>  (70) 
energy

$$$$
70:0
     RDKit          3D

 55 57  0  0  0  0  0  0  0  0999 V2000
   56.2850   29.6840   45.4820 H   0  0  0  0  0  0  0  0  0  0  0  0
   55.7880   28.7960   45.2440 N   0  0  0  0  0  0  0  0  0  0  0  0
   56.2840   27.6380   45.5430 C   0  0  0  0  0  0  0  0  0  0  0  0
   55.4690   26.6720   46.0540 N   0  0  0  0  0  0  0  0  0  0  0  0
   55.9330   25.4390   46.3870 C   0  0  0  0  0  0  0  0  0  0  0  0
   55.2440   24.6845   46.7944 H   0  0  0  0  0  0  0  0  0  0  0  0
   57.2810   25.1290   46.2130 C   0  0  0  0  0  0  0  0  0  0  0  0
   57.6612   24.1327   46.4830 H   0  0  0  0  0  0  0  0  0  0  0  0
   58.1430   26.0950   45.6930 C   0  0  0  0  0  0  0  0  0  0  0  0
   59.2087   25.8602   45.5542 H   0  0  0  0  0  0  0  0  0  0  0  0
   57.6560   27.3660   45.3460 C   0  0  0  0  0  0  0  0  0  0  0  0
   58.6120   28.4130   44.8200 C   0  0  0  0  0  0  0  0  0  0  0  0
   59.5497   27.9261   44.5140 H   0  0  0  0  0  0  0  0  0  0  0  0
   58.1489   28.9178   43.9593 H   0  0  0  0  0  0  0  0  0  0  0  0
   58.9100   29.4400   45.8870 C   0  0  0  0  0  0  0  0  0  0  0  0
   59.6470   29.0340   47.0110 C   0  0  0  0  0  0  0  0  0  0  0  0
   60.1024   28.0328   47.0268 H   0  0  0  0  0  0  0  0  0  0  0  0
   59.8110   29.8800   48.1080 C   0  0  0  0  0  0  0  0  0  0  0  0
   60.5520   29.4250   49.2090 O   0  0  0  0  0  0  0  0  0  0  0  0
   60.0500   29.2750   50.5090 C   0  0  0  0  0  0  0  0  0  0  0  0
   60.7430   28.4600   51.4120 C   0  0  0  0  0  0  0  0  0  0  0  0
   61.6677   27.9555   51.0952 H   0  0  0  0  0  0  0  0  0  0  0  0
   60.2660   28.2840   52.7140 C   0  0  0  0  0  0  0  0  0  0  0  0
   60.8233   27.6541   53.4230 H   0  0  0  0  0  0  0  0  0  0  0  0
   59.0810   28.9080   53.1160 C   0  0  0  0  0  0  0  0  0  0  0  0
   58.7094   28.7727   54.1424 H   0  0  0  0  0  0  0  0  0  0  0  0
   58.3680   29.7040   52.2140 C   0  0  0  0  0  0  0  0  0  0  0  0
   56.8710   30.4720   52.7110 Cl  0  0  0  0  0  0  0  0  0  0  0  0
   58.8470   29.8860   50.9120 C   0  0  0  0  0  0  0  0  0  0  0  0
   58.2825   30.5078   50.2016 H   0  0  0  0  0  0  0  0  0  0  0  0
   59.2560   31.1660   48.0750 C   0  0  0  0  0  0  0  0  0  0  0  0
   59.3894   31.8375   48.9360 H   0  0  0  0  0  0  0  0  0  0  0  0
   58.5320   31.6080   46.9570 C   0  0  0  0  0  0  0  0  0  0  0  0
   57.9120   32.9920   46.9830 C   0  0  0  0  0  0  0  0  0  0  0  0
   56.8211   32.8874   47.0779 H   0  0  0  0  0  0  0  0  0  0  0  0
   58.3440   33.5341   47.8371 H   0  0  0  0  0  0  0  0  0  0  0  0
   58.2090   33.7740   45.7590 N   0  0  0  0  0  0  0  0  0  0  0  0
   58.5750   33.1370   45.0170 H   0  0  0  0  0  0  0  0  0  0  0  0
   56.9720   34.3910   45.2470 C   0  0  0  0  0  0  0  0  0  0  0  0
   56.3420   34.7052   46.0922 H   0  0  0  0  0  0  0  0  0  0  0  0
   57.2264   35.2678   44.6334 H   0  0  0  0  0  0  0  0  0  0  0  0
   56.4246   33.6604   44.6334 H   0  0  0  0  0  0  0  0  0  0  0  0
   59.2160   34.8230   46.0100 C   0  0  0  0  0  0  0  0  0  0  0  0
   59.3441   34.9564   47.0943 H   0  0  0  0  0  0  0  0  0  0  0  0
   60.1752   34.5253   45.5614 H   0  0  0  0  0  0  0  0  0  0  0  0
   58.8794   35.7693   45.5614 H   0  0  0  0  0  0  0  0  0  0  0  0
   58.3760   30.7510   45.8450 C   0  0  0  0  0  0  0  0  0  0  0  0
   57.6600   31.2040   44.7310 O   0  0  0  0  0  0  0  0  0  0  0  0
   58.1540   31.0820   43.3970 C   0  0  0  0  0  0  0  0  0  0  0  0
   59.2498   30.9888   43.4182 H   0  0  0  0  0  0  0  0  0  0  0  0
   57.7209   30.1882   42.9242 H   0  0  0  0  0  0  0  0  0  0  0  0
   57.7650   32.3170   42.6020 C   0  0  0  0  0  0  0  0  0  0  0  0
   57.5081   33.1326   43.2940 H   0  0  0  0  0  0  0  0  0  0  0  0
   58.6093   32.6261   41.9682 H   0  0  0  0  0  0  0  0  0  0  0  0
   56.8960   32.0864   41.9682 H   0  0  0  0  0  0  0  0  0  0  0  0
  1  2  1  0
  2  3  2  0
  3  4  1  0
  4  5  1  0
  5  6  1  0
  5  7  2  0
  7  8  1  0
  7  9  1  0
  9 10  1  0
  9 11  2  0
 11 12  1  0
 12 13  1  0
 12 14  1  0
 12 15  1  0
 15 16  2  0
 16 17  1  0
 16 18  1  0
 18 19  1  0
 19 20  1  0
 20 21  2  0
 21 22  1  0
 21 23  1  0
 23 24  1  0
 23 25  2  0
 25 26  1  0
 25 27  1  0
 27 28  1  0
 27 29  2  0
 29 30  1  0
 18 31  2  0
 31 32  1  0
 31 33  1  0
 33 34  1  0
 34 35  1  0
 34 36  1  0
 34 37  1  0
 37 38  1  0
 37 39  1  0
 39 40  1  0
 39 41  1  0
 39 42  1  0
 37 43  1  0
 43 44  1  0
 43 45  1  0
 43 46  1  0
 33 47  2  0
 47 48  1  0
 48 49  1  0
 49 50  1  0
 49 51  1  0
 49 52  1  0
 52 53  1  0
 52 54  1  0
 52 55  1  0
 11  3  1  0
 47 15  1  0
 29 20  1  0
M  CHG  2   4  -1  37   1
M  END
>  <UniqueID>  (71) 
59

>  <SMILES>  (71) 
[H]/N=c1\[n-]cccc1Cc1cc(Oc2cccc(Cl)c2)cc(C[NH+](C)C)c1OCC

>  <Energy>  (71) 
69.42820684745868

>  <Genealogy>  (71) 
CCOc1c(Cc2ccc[n-]c2=N)cc(Oc2cccc(Cl)c2)cc1C[NH+](C)C (protonated)
[H]/N=c1\[n-]cccc1Cc1cc(Oc2cccc(Cl)c2)cc(C[NH+](C)C)c1OCC (cis-trans isomerization)
[H]/N=c1\[n-]cccc1Cc1cc(Oc2cccc(Cl)c2)cc(C[NH+](C)C)c1OCC (3D coordinates assigned)
[H]/N=c1\[n-]cccc1Cc1cc(Oc2cccc(Cl)c2)cc(C[NH+](C)C)c1OCC (optimized conformer: 69.42820684745868 kcal/mol)

>  <smiles>  (71) 
CCOc1c(Cc2ccc[nH]c2=N)cc(Oc2cccc(Cl)c2)cc1CN(C)C

>  <score_type>  (71) 
oracle

>  <origin>  (71) 
adg

>  <m_score__min__energy>  (71) 
-9.2899999999999991

>  <m_primary>  (71) 
energy

$$$$
71:0
     RDKit          3D

 36 37  0  0  0  0  0  0  0  0999 V2000
   55.0840   26.3840   45.9940 N   0  0  0  0  0  0  0  0  0  0  0  0
   56.7000   25.8690   46.3240 S   0  0  0  0  0  0  0  0  0  0  0  0
   56.7060   24.9800   47.5360 O   0  0  0  0  0  0  0  0  0  0  0  0
   57.2250   25.0870   45.1520 O   0  0  0  0  0  0  0  0  0  0  0  0
   57.7190   27.2760   46.6080 C   0  0  0  0  0  0  0  0  0  0  0  0
   58.5730   27.3140   47.7180 C   0  0  0  0  0  0  0  0  0  0  0  0
   59.3870   28.4260   47.9390 C   0  0  0  0  0  0  0  0  0  0  0  0
   59.3410   29.5140   47.0630 C   0  0  0  0  0  0  0  0  0  0  0  0
   58.4680   29.5050   45.9650 C   0  0  0  0  0  0  0  0  0  0  0  0
   58.4520   30.6310   45.0700 N   0  0  0  0  0  0  0  0  0  0  0  0
   57.3170   31.0120   44.2770 C   0  0  0  0  0  0  0  0  0  0  0  0
   56.1870   30.4900   44.4760 O   0  0  0  0  0  0  0  0  0  0  0  0
   57.4550   32.0970   43.2530 C   0  0  0  0  0  0  0  0  0  0  0  0
   58.3100   33.1630   43.7620 N   0  0  0  0  0  0  0  0  0  0  0  0
   58.0350   33.8970   44.9620 C   0  0  0  0  0  0  0  0  0  0  0  0
   56.9800   34.5840   45.0470 O   0  0  0  0  0  0  0  0  0  0  0  0
   58.9860   33.8540   46.0960 C   0  0  0  0  0  0  0  0  0  0  0  0
   60.3760   33.8810   45.8690 C   0  0  0  0  0  0  0  0  0  0  0  0
   61.2700   33.8380   46.9440 C   0  0  0  0  0  0  0  0  0  0  0  0
   60.7910   33.7670   48.2530 C   0  0  0  0  0  0  0  0  0  0  0  0
   59.4150   33.7380   48.4910 C   0  0  0  0  0  0  0  0  0  0  0  0
   58.5160   33.7800   47.4220 C   0  0  0  0  0  0  0  0  0  0  0  0
   57.6680   28.3710   45.7330 C   0  0  0  0  0  0  0  0  0  0  0  0
   55.1400   27.0890   45.2260 H   0  0  0  0  0  0  0  0  0  0  0  0
   58.6020   26.4652   48.4171 H   0  0  0  0  0  0  0  0  0  0  0  0
   60.0660   28.4461   48.8042 H   0  0  0  0  0  0  0  0  0  0  0  0
   59.9934   30.3827   47.2356 H   0  0  0  0  0  0  0  0  0  0  0  0
   59.2830   31.2650   45.0640 H   0  0  0  0  0  0  0  0  0  0  0  0
   57.9007   31.6790   42.3383 H   0  0  0  0  0  0  0  0  0  0  0  0
   56.4599   32.5098   43.0306 H   0  0  0  0  0  0  0  0  0  0  0  0
   60.7608   33.9362   44.8400 H   0  0  0  0  0  0  0  0  0  0  0  0
   62.3538   33.8602   46.7571 H   0  0  0  0  0  0  0  0  0  0  0  0
   61.4964   33.7339   49.0964 H   0  0  0  0  0  0  0  0  0  0  0  0
   59.0379   33.6819   49.5228 H   0  0  0  0  0  0  0  0  0  0  0  0
   57.4338   33.7551   47.6172 H   0  0  0  0  0  0  0  0  0  0  0  0
   56.9988   28.3431   44.8604 H   0  0  0  0  0  0  0  0  0  0  0  0
  1  2  1  0
  2  3  2  0
  2  4  2  0
  2  5  1  0
  5  6  2  0
  6  7  1  0
  7  8  2  0
  8  9  1  0
  9 10  1  0
 10 11  1  0
 11 12  2  0
 11 13  1  0
 13 14  1  0
 14 15  1  0
 15 16  2  0
 15 17  1  0
 17 18  2  0
 18 19  1  0
 19 20  2  0
 20 21  1  0
 21 22  2  0
  9 23  2  0
 23  5  1  0
 22 17  1  0
  1 24  1  0
  6 25  1  0
  7 26  1  0
  8 27  1  0
 10 28  1  0
 13 29  1  0
 13 30  1  0
 18 31  1  0
 19 32  1  0
 20 33  1  0
 21 34  1  0
 22 35  1  0
 23 36  1  0
M  CHG  2   1  -1  14  -1
M  END
>  <UniqueID>  (72) 
60

>  <SMILES>  (72) 
[NH-]S(=O)(=O)c1cccc(NC(=O)C[N-]C(=O)c2ccccc2)c1

>  <Energy>  (72) 
37.182675497594545

>  <Genealogy>  (72) 
[NH-]S(=O)(=O)c1cccc(NC(=O)C[N-]C(=O)c2ccccc2)c1 (protonated)
[NH-]S(=O)(=O)c1cccc(NC(=O)C[N-]C(=O)c2ccccc2)c1 (3D coordinates assigned)
[NH-]S(=O)(=O)c1cccc(NC(=O)C[N-]C(=O)c2ccccc2)c1 (optimized conformer: 37.182675497594545 kcal/mol)

>  <smiles>  (72) 
NS(=O)(=O)c1cccc(NC(=O)CNC(=O)c2ccccc2)c1

>  <score_type>  (72) 
oracle

>  <origin>  (72) 
adg

>  <m_score__min__energy>  (72) 
-12.800000000000001

>  <m_primary>  (72) 
energy

$$$$
72:0
     RDKit          3D

 35 37  0  0  0  0  0  0  0  0999 V2000
   59.1200   33.9400   48.1330 C   0  0  0  0  0  0  0  0  0  0  0  0
   59.7150   33.2630   46.9680 N   0  0  0  0  0  0  0  0  0  0  0  0
   60.3590   34.1810   46.0160 C   0  0  0  0  0  0  0  0  0  0  0  0
   59.3690   35.0860   45.2680 C   0  0  0  0  0  0  0  0  0  0  0  0
   57.9410   34.5250   45.1360 C   0  0  0  0  0  0  0  0  0  0  0  0
   57.7910   32.9980   45.3220 C   0  0  1  0  0  0  0  0  0  0  0  0
   57.6590   32.0880   43.7240 S   0  0  0  0  0  0  0  0  0  0  0  0
   57.1960   30.4750   44.3630 C   0  0  0  0  0  0  0  0  0  0  0  0
   55.9170   29.9290   44.3940 C   0  0  0  0  0  0  0  0  0  0  0  0
   55.9560   28.6650   44.8700 N   0  0  0  0  0  0  0  0  0  0  0  0
   57.2520   28.3980   45.1110 C   0  0  0  0  0  0  0  0  0  0  0  0
   57.7950   27.2040   45.5820 C   0  0  0  0  0  0  0  0  0  0  0  0
   59.1930   27.1290   45.7230 C   0  0  0  0  0  0  0  0  0  0  0  0
   60.0070   28.2320   45.3840 C   0  0  0  0  0  0  0  0  0  0  0  0
   59.4310   29.4230   44.9070 C   0  0  0  0  0  0  0  0  0  0  0  0
   58.0410   29.4750   44.7960 C   0  0  0  0  0  0  0  0  0  0  0  0
   58.7940   32.3280   46.2980 C   0  0  0  0  0  0  0  0  0  0  0  0
   59.5134   33.4924   49.0576 H   0  0  0  0  0  0  0  0  0  0  0  0
   59.3758   35.0095   48.1057 H   0  0  0  0  0  0  0  0  0  0  0  0
   58.0265   33.8237   48.1057 H   0  0  0  0  0  0  0  0  0  0  0  0
   61.0628   34.8192   46.5704 H   0  0  0  0  0  0  0  0  0  0  0  0
   60.8627   33.5604   45.2602 H   0  0  0  0  0  0  0  0  0  0  0  0
   59.3102   36.0439   45.8055 H   0  0  0  0  0  0  0  0  0  0  0  0
   59.7562   35.1813   44.2428 H   0  0  0  0  0  0  0  0  0  0  0  0
   57.3144   35.0190   45.8932 H   0  0  0  0  0  0  0  0  0  0  0  0
   57.6385   34.7276   44.0980 H   0  0  0  0  0  0  0  0  0  0  0  0
   56.8235   32.9079   45.8376 H   0  0  0  0  0  0  0  0  0  0  0  0
   55.0031   30.4522   44.0760 H   0  0  0  0  0  0  0  0  0  0  0  0
   55.1450   28.0190   44.9990 H   0  0  0  0  0  0  0  0  0  0  0  0
   57.1518   26.3483   45.8352 H   0  0  0  0  0  0  0  0  0  0  0  0
   59.6551   26.2047   46.0999 H   0  0  0  0  0  0  0  0  0  0  0  0
   61.0991   28.1591   45.4938 H   0  0  0  0  0  0  0  0  0  0  0  0
   60.0556   30.2852   44.6305 H   0  0  0  0  0  0  0  0  0  0  0  0
   58.2184   31.7994   47.0721 H   0  0  0  0  0  0  0  0  0  0  0  0
   59.4186   31.6562   45.6909 H   0  0  0  0  0  0  0  0  0  0  0  0
  1  2  1  0
  2  3  1  0
  3  4  1  0
  4  5  1  0
  5  6  1  0
  6  7  1  0
  7  8  1  0
  8  9  2  0
  9 10  1  0
 10 11  1  0
 11 12  2  0
 12 13  1  0
 13 14  2  0
 14 15  1  0
 15 16  2  0
  6 17  1  0
 17  2  1  0
 16  8  1  0
 16 11  1  0
  1 18  1  0
  1 19  1  0
  1 20  1  0
  3 21  1  0
  3 22  1  0
  4 23  1  0
  4 24  1  0
  5 25  1  0
  5 26  1  0
  6 27  1  1
  9 28  1  0
 10 29  1  0
 12 30  1  0
 13 31  1  0
 14 32  1  0
 15 33  1  0
 17 34  1  0
 17 35  1  0
M  END
>  <UniqueID>  (73) 
61

>  <SMILES>  (73) 
CN1CCC[C@@H](Sc2c[nH]c3ccccc23)C1

>  <Energy>  (73) 
80.01688734732853

>  <Genealogy>  (73) 
CN1CCC[C@@H](Sc2c[nH]c3ccccc23)C1 (chirality)
CN1CCC[C@@H](Sc2c[nH]c3ccccc23)C1 (3D coordinates assigned)
CN1CCC[C@@H](Sc2c[nH]c3ccccc23)C1 (nonaromatic ring conformer: 80.01688734732853 kcal/mol)

>  <smiles>  (73) 
CN1CCCC(Sc2c[nH]c3ccccc23)C1

>  <score_type>  (73) 
oracle

>  <origin>  (73) 
adg

>  <m_score__min__energy>  (73) 
-7.6799999999999997

>  <m_primary>  (73) 
energy

$$$$
73:0
     RDKit          3D

 33 35  0  0  0  0  0  0  0  0999 V2000
   57.5269   32.2468   42.5901 H   0  0  0  0  0  0  0  0  0  0  0  0
   57.2540   31.5080   43.3580 C   0  0  0  0  0  0  0  0  0  0  0  0
   56.4750   30.0430   43.0840 S   0  0  0  0  0  0  0  0  0  0  0  0
   56.4610   29.6250   44.7160 C   0  0  0  0  0  0  0  0  0  0  0  0
   56.0100   28.5160   45.2250 N   0  0  0  0  0  0  0  0  0  0  0  0
   56.7980   27.4360   45.7520 C   0  0  0  0  0  0  0  0  0  0  0  0
   58.1990   27.5340   45.8390 C   0  0  0  0  0  0  0  0  0  0  0  0
   58.7034   28.4617   45.5309 H   0  0  0  0  0  0  0  0  0  0  0  0
   58.9520   26.4580   46.3150 C   0  0  0  0  0  0  0  0  0  0  0  0
   60.0454   26.5461   46.3966 H   0  0  0  0  0  0  0  0  0  0  0  0
   58.3190   25.2720   46.6870 C   0  0  0  0  0  0  0  0  0  0  0  0
   58.9129   24.4293   47.0706 H   0  0  0  0  0  0  0  0  0  0  0  0
   56.9320   25.1530   46.5730 C   0  0  0  0  0  0  0  0  0  0  0  0
   56.4387   24.2121   46.8581 H   0  0  0  0  0  0  0  0  0  0  0  0
   56.1610   26.2310   46.0950 C   0  0  0  0  0  0  0  0  0  0  0  0
   54.7660   26.1460   45.9560 O   0  0  0  0  0  0  0  0  0  0  0  0
   54.0610   24.9560   45.6210 C   0  0  0  0  0  0  0  0  0  0  0  0
   53.7549   24.4394   46.5426 H   0  0  0  0  0  0  0  0  0  0  0  0
   53.1689   25.2122   45.0307 H   0  0  0  0  0  0  0  0  0  0  0  0
   54.7143   24.2966   45.0307 H   0  0  0  0  0  0  0  0  0  0  0  0
   57.0530   30.5710   45.4730 N   0  0  0  0  0  0  0  0  0  0  0  0
   57.4950   31.6250   44.7310 C   0  0  0  0  0  0  0  0  0  0  0  0
   58.1670   32.7900   45.3630 C   0  0  0  0  0  0  0  0  0  0  0  0
   58.6240   33.8510   44.5600 C   0  0  0  0  0  0  0  0  0  0  0  0
   58.4832   33.8187   43.4695 H   0  0  0  0  0  0  0  0  0  0  0  0
   59.2570   34.9450   45.1530 C   0  0  0  0  0  0  0  0  0  0  0  0
   59.6197   35.7763   44.5306 H   0  0  0  0  0  0  0  0  0  0  0  0
   59.4280   34.9810   46.5350 C   0  0  0  0  0  0  0  0  0  0  0  0
   59.9278   35.8375   47.0109 H   0  0  0  0  0  0  0  0  0  0  0  0
   58.9590   33.9200   47.3090 C   0  0  0  0  0  0  0  0  0  0  0  0
   59.0865   33.9411   48.4014 H   0  0  0  0  0  0  0  0  0  0  0  0
   58.3440   32.8580   46.7190 N   0  0  0  0  0  0  0  0  0  0  0  0
   57.9930   32.1000   47.3430 H   0  0  0  0  0  0  0  0  0  0  0  0
  1  2  1  0
  2  3  1  0
  3  4  1  0
  4  5  2  0
  5  6  1  0
  6  7  2  0
  7  8  1  0
  7  9  1  0
  9 10  1  0
  9 11  2  0
 11 12  1  0
 11 13  1  0
 13 14  1  0
 13 15  2  0
 15 16  1  0
 16 17  1  0
 17 18  1  0
 17 19  1  0
 17 20  1  0
  4 21  1  0
 21 22  1  0
 22 23  1  0
 23 24  2  0
 24 25  1  0
 24 26  1  0
 26 27  1  0
 26 28  2  0
 28 29  1  0
 28 30  1  0
 30 31  1  0
 30 32  2  0
 32 33  1  0
 22  2  2  0
 32 23  1  0
 15  6  1  0
M  CHG  2  21  -1  32   1
M  END
>  <UniqueID>  (74) 
62

>  <SMILES>  (74) 
COc1ccccc1/N=c1/[n-]c(-c2cccc[nH+]2)cs1

>  <Energy>  (74) 
74.87845405412187

>  <Genealogy>  (74) 
COc1ccccc1N=c1[n-]c(-c2cccc[nH+]2)cs1 (protonated)
COc1ccccc1/N=c1/[n-]c(-c2cccc[nH+]2)cs1 (cis-trans isomerization)
COc1ccccc1/N=c1/[n-]c(-c2cccc[nH+]2)cs1 (3D coordinates assigned)
COc1ccccc1/N=c1/[n-]c(-c2cccc[nH+]2)cs1 (optimized conformer: 74.87845405412187 kcal/mol)

>  <smiles>  (74) 
COc1ccccc1N=c1[nH]c(-c2ccccn2)cs1

>  <score_type>  (74) 
oracle

>  <origin>  (74) 
adg

>  <m_score__min__energy>  (74) 
-8.6699999999999999

>  <m_primary>  (74) 
energy

$$$$
74:0
     RDKit          3D

 44 46  0  0  1  0  0  0  0  0999 V2000
   57.0850   21.0800   42.9800 C   0  0  0  0  0  0  0  0  0  0  0  0
   55.8940   21.8600   43.1260 O   0  0  0  0  0  0  0  0  0  0  0  0
   55.9570   22.9960   43.9110 C   0  0  0  0  0  0  0  0  0  0  0  0
   54.9720   23.2540   44.8480 C   0  0  0  0  0  0  0  0  0  0  0  0
   55.0600   24.4010   45.6170 C   0  0  0  0  0  0  0  0  0  0  0  0
   56.0960   25.2760   45.4640 C   0  0  0  0  0  0  0  0  0  0  0  0
   57.0690   24.9890   44.5170 C   0  0  0  0  0  0  0  0  0  0  0  0
   58.1590   25.9190   44.3810 N   0  0  0  0  0  0  0  0  0  0  0  0
   58.1270   27.0190   45.0950 C   0  0  0  0  0  0  0  0  0  0  0  0
   58.8440   27.0230   46.2310 N   0  0  0  0  0  0  0  0  0  0  0  0
   58.8690   28.0980   47.0570 C   0  0  0  0  0  0  0  0  0  0  0  0
   58.1200   29.1790   46.6620 C   0  0  0  0  0  0  0  0  0  0  0  0
   57.3900   29.1560   45.4880 C   0  0  0  0  0  0  0  0  0  0  0  0
   56.7190   30.2130   45.2010 N   0  0  0  0  0  0  0  0  0  0  0  0
   57.0370   31.0000   44.0690 C   0  0  0  0  0  0  0  0  0  0  0  0
   57.6300   32.2420   43.9770 C   0  0  0  0  0  0  0  0  0  0  0  0
   58.0600   33.0750   45.0480 N   0  0  0  0  0  0  0  0  0  0  0  0
   57.3900   33.1010   46.3320 C   0  0  0  0  0  0  0  0  0  0  0  0
   59.2430   33.9450   44.8880 C   0  0  0  0  0  0  0  0  0  0  0  0
   57.7420   32.5820   42.6550 N   0  0  0  0  0  0  0  0  0  0  0  0
   57.2370   31.5950   41.9200 N   0  0  0  0  0  0  0  0  0  0  0  0
   56.8010   30.6150   42.7460 C   0  0  0  0  0  0  0  0  0  0  0  0
   56.2690   29.5340   42.3740 O   0  0  0  0  0  0  0  0  0  0  0  0
   57.3900   28.0750   44.7010 N   0  0  0  0  0  0  0  0  0  0  0  0
   57.0150   23.8590   43.7350 C   0  0  0  0  0  0  0  0  0  0  0  0
   57.4786   20.8222   43.9743 H   0  0  0  0  0  0  0  0  0  0  0  0
   56.8538   20.1578   42.4268 H   0  0  0  0  0  0  0  0  0  0  0  0
   57.8380   21.6605   42.4268 H   0  0  0  0  0  0  0  0  0  0  0  0
   54.1310   22.5572   44.9797 H   0  0  0  0  0  0  0  0  0  0  0  0
   54.2812   24.6112   46.3648 H   0  0  0  0  0  0  0  0  0  0  0  0
   56.1584   26.1873   46.0769 H   0  0  0  0  0  0  0  0  0  0  0  0
   59.4310   26.2030   46.5410 H   0  0  0  0  0  0  0  0  0  0  0  0
   59.4545   28.1038   47.9882 H   0  0  0  0  0  0  0  0  0  0  0  0
   58.1004   30.0807   47.2918 H   0  0  0  0  0  0  0  0  0  0  0  0
   58.1390   33.0719   47.1371 H   0  0  0  0  0  0  0  0  0  0  0  0
   56.7959   34.0229   46.4170 H   0  0  0  0  0  0  0  0  0  0  0  0
   56.7263   32.2279   46.4170 H   0  0  0  0  0  0  0  0  0  0  0  0
   59.6271   34.2275   45.8793 H   0  0  0  0  0  0  0  0  0  0  0  0
   60.0235   33.4041   44.3328 H   0  0  0  0  0  0  0  0  0  0  0  0
   58.9593   34.8512   44.3328 H   0  0  0  0  0  0  0  0  0  0  0  0
   58.1450   33.4660   42.2550 H   0  0  0  0  0  0  0  0  0  0  0  0
   57.2030   31.6030   40.8640 H   0  0  0  0  0  0  0  0  0  0  0  0
   56.8500   28.0810   43.8380 H   0  0  0  0  0  0  0  0  0  0  0  0
   57.7961   23.6504   42.9891 H   0  0  0  0  0  0  0  0  0  0  0  0
  1  2  1  0
  2  3  1  0
  3  4  2  0
  4  5  1  0
  5  6  2  0
  6  7  1  0
  7  8  1  0
  8  9  2  0
  9 10  1  0
 10 11  1  0
 11 12  2  0
 12 13  1  0
 13 14  2  0
 14 15  1  0
 15 16  2  0
 16 17  1  0
 17 18  1  0
 17 19  1  0
 16 20  1  0
 20 21  1  0
 21 22  1  0
 22 23  2  0
 13 24  1  0
  7 25  2  0
 25  3  1  0
 24  9  1  0
 22 15  1  0
  1 26  1  0
  1 27  1  0
  1 28  1  0
  4 29  1  0
  5 30  1  0
  6 31  1  0
 10 32  1  0
 11 33  1  0
 12 34  1  0
 18 35  1  0
 18 36  1  0
 18 37  1  0
 19 38  1  0
 19 39  1  0
 19 40  1  0
 20 41  1  0
 21 42  1  0
 24 43  1  0
 25 44  1  0
M  END
>  <smiles>  (75) 
COc1cccc(N=c2[nH]ccc(=Nc3c(N(C)C)[nH][nH]c3=O)[nH]2)c1

>  <score_type>  (75) 
oracle

>  <origin>  (75) 
adg

>  <m_score__min__energy>  (75) 
-7.46

>  <m_primary>  (75) 
energy

$$$$
75:0
     RDKit          3D

 40 43  0  0  0  0  0  0  0  0999 V2000
   57.5150   26.3490   46.6820 O   0  0  0  0  0  0  0  0  0  0  0  0
   56.6400   27.0910   46.1620 C   0  0  0  0  0  0  0  0  0  0  0  0
   55.2860   26.6290   45.9950 N   0  0  0  0  0  0  0  0  0  0  0  0
   54.7510   25.3130   45.6180 C   0  0  0  0  0  0  0  0  0  0  0  0
   55.6990   24.3860   44.8770 C   0  0  0  0  0  0  0  0  0  0  0  0
   55.3430   24.1140   46.3380 C   0  0  0  0  0  0  0  0  0  0  0  0
   57.0100   28.4550   45.7150 C   0  0  0  0  0  0  0  0  0  0  0  0
   58.0210   29.1750   46.3790 C   0  0  0  0  0  0  0  0  0  0  0  0
   58.3710   30.4610   45.9560 C   0  0  0  0  0  0  0  0  0  0  0  0
   57.7220   31.0530   44.8680 C   0  0  0  0  0  0  0  0  0  0  0  0
   58.1170   32.3720   44.4700 N   0  0  0  0  0  0  0  0  0  0  0  0
   58.0170   33.7900   45.4630 S   0  0  0  0  0  0  0  0  0  0  0  0
   56.7570   33.7540   46.2840 O   0  0  0  0  0  0  0  0  0  0  0  0
   58.0220   35.0090   44.5830 O   0  0  0  0  0  0  0  0  0  0  0  0
   59.4030   33.8380   46.5440 C   0  0  0  0  0  0  0  0  0  0  0  0
   59.2090   34.0370   47.9330 C   0  0  0  0  0  0  0  0  0  0  0  0
   60.3070   34.0850   48.8110 C   0  0  0  0  0  0  0  0  0  0  0  0
   61.5790   33.9330   48.2680 C   0  0  0  0  0  0  0  0  0  0  0  0
   62.8190   33.9350   48.8690 C   0  0  0  0  0  0  0  0  0  0  0  0
   63.7270   33.7420   47.8310 C   0  0  0  0  0  0  0  0  0  0  0  0
   63.0840   33.6280   46.6460 N   0  0  0  0  0  0  0  0  0  0  0  0
   61.7750   33.7460   46.9250 C   0  0  0  0  0  0  0  0  0  0  0  0
   60.7090   33.6950   46.0290 C   0  0  0  0  0  0  0  0  0  0  0  0
   56.7120   30.3400   44.2010 C   0  0  0  0  0  0  0  0  0  0  0  0
   56.3600   29.0540   44.6200 C   0  0  0  0  0  0  0  0  0  0  0  0
   53.7319   25.6861   45.4385 H   0  0  0  0  0  0  0  0  0  0  0  0
   55.3163   23.7256   44.0849 H   0  0  0  0  0  0  0  0  0  0  0  0
   56.6353   24.5166   44.3146 H   0  0  0  0  0  0  0  0  0  0  0  0
   54.7038   23.2576   46.5987 H   0  0  0  0  0  0  0  0  0  0  0  0
   55.9164   23.9672   47.2652 H   0  0  0  0  0  0  0  0  0  0  0  0
   58.5396   28.7226   47.2371 H   0  0  0  0  0  0  0  0  0  0  0  0
   59.1637   31.0117   46.4836 H   0  0  0  0  0  0  0  0  0  0  0  0
   58.1896   34.1552   48.3290 H   0  0  0  0  0  0  0  0  0  0  0  0
   60.1647   34.2376   49.8910 H   0  0  0  0  0  0  0  0  0  0  0  0
   63.0433   34.0618   49.9384 H   0  0  0  0  0  0  0  0  0  0  0  0
   64.8185   33.6894   47.9573 H   0  0  0  0  0  0  0  0  0  0  0  0
   63.5190   33.4780   45.7100 H   0  0  0  0  0  0  0  0  0  0  0  0
   60.8804   33.5477   44.9525 H   0  0  0  0  0  0  0  0  0  0  0  0
   56.1952   30.7965   43.3440 H   0  0  0  0  0  0  0  0  0  0  0  0
   55.5680   28.5053   44.0893 H   0  0  0  0  0  0  0  0  0  0  0  0
  1  2  2  0
  2  3  1  0
  3  4  1  0
  4  5  1  0
  5  6  1  0
  2  7  1  0
  7  8  2  0
  8  9  1  0
  9 10  2  0
 10 11  1  0
 11 12  1  0
 12 13  2  0
 12 14  2  0
 12 15  1  0
 15 16  2  0
 16 17  1  0
 17 18  2  0
 18 19  1  0
 19 20  2  0
 20 21  1  0
 21 22  1  0
 22 23  2  0
 10 24  1  0
 24 25  2  0
  6  4  1  0
 25  7  1  0
 23 15  1  0
 22 18  1  0
  4 26  1  0
  5 27  1  0
  5 28  1  0
  6 29  1  0
  6 30  1  0
  8 31  1  0
  9 32  1  0
 16 33  1  0
 17 34  1  0
 19 35  1  0
 20 36  1  0
 21 37  1  0
 23 38  1  0
 24 39  1  0
 25 40  1  0
M  CHG  2   3  -1  11  -1
M  END
>  <UniqueID>  (76) 
63

>  <SMILES>  (76) 
O=C([N-]C1CC1)c1ccc([N-]S(=O)(=O)c2ccc3cc[nH]c3c2)cc1

>  <Energy>  (76) 
351.4103723391245

>  <Genealogy>  (76) 
O=C([N-]C1CC1)c1ccc([N-]S(=O)(=O)c2ccc3cc[nH]c3c2)cc1 (protonated)
O=C([N-]C1CC1)c1ccc([N-]S(=O)(=O)c2ccc3cc[nH]c3c2)cc1 (3D coordinates assigned)
O=C([N-]C1CC1)c1ccc([N-]S(=O)(=O)c2ccc3cc[nH]c3c2)cc1 (nonaromatic ring conformer: 351.4103723391245 kcal/mol)

>  <smiles>  (76) 
O=C(NC1CC1)c1ccc(NS(=O)(=O)c2ccc3cc[nH]c3c2)cc1

>  <score_type>  (76) 
oracle

>  <origin>  (76) 
adg

>  <m_score__min__energy>  (76) 
-11.449999999999999

>  <m_primary>  (76) 
energy

$$$$
76:0
     RDKit          3D

 46 48  0  0  1  0  0  0  0  0999 V2000
   59.9920   35.6140   46.1380 C   0  0  0  0  0  0  0  0  0  0  0  0
   59.0960   34.8380   46.6970 C   0  0  0  0  0  0  0  0  0  0  0  0
   58.5660   33.6220   46.0600 C   0  0  0  0  0  0  0  0  0  0  0  0
   58.4340   32.6170   46.7970 O   0  0  0  0  0  0  0  0  0  0  0  0
   58.2220   33.5640   44.7120 N   0  0  0  0  0  0  0  0  0  0  0  0
   57.7100   32.4660   43.9950 C   0  0  0  0  0  0  0  0  0  0  0  0
   57.6240   32.3700   42.6290 C   0  0  0  0  0  0  0  0  0  0  0  0
   57.1000   31.2420   41.9860 C   0  0  0  0  0  0  0  0  0  0  0  0
   56.6410   30.1590   42.7060 C   0  0  0  0  0  0  0  0  0  0  0  0
   56.7240   30.2460   44.0780 C   0  0  0  0  0  0  0  0  0  0  0  0
   56.2630   29.1550   44.8640 N   0  0  0  0  0  0  0  0  0  0  0  0
   57.1060   28.4590   45.5470 C   0  0  0  0  0  0  0  0  0  0  0  0
   57.9840   29.0080   46.4600 C   0  0  0  0  0  0  0  0  0  0  0  0
   58.8540   28.1900   47.1470 C   0  0  0  0  0  0  0  0  0  0  0  0
   59.7770   28.7010   48.0960 N   0  0  0  0  0  0  0  0  0  0  0  0
   60.4840   29.9030   47.8720 C   0  0  0  0  0  0  0  0  0  0  0  0
   60.2900   30.5400   46.7970 O   0  0  0  0  0  0  0  0  0  0  0  0
   61.4090   30.4450   48.7860 N   0  0  0  0  0  0  0  0  0  0  0  0
   62.0580   31.6660   48.4430 C   0  0  0  0  0  0  0  0  0  0  0  0
   61.7840   32.8700   49.0410 C   0  0  0  0  0  0  0  0  0  0  0  0
   62.4780   33.9710   48.6200 C   0  0  0  0  0  0  0  0  0  0  0  0
   63.4360   33.9080   47.6230 C   0  0  0  0  0  0  0  0  0  0  0  0
   63.7130   32.7070   47.0220 C   0  0  0  0  0  0  0  0  0  0  0  0
   63.0200   31.5790   47.4340 C   0  0  0  0  0  0  0  0  0  0  0  0
   58.8050   26.8760   46.8920 N   0  0  0  0  0  0  0  0  0  0  0  0
   57.9580   26.3120   46.0080 C   0  0  0  0  0  0  0  0  0  0  0  0
   57.1060   27.1230   45.3350 N   0  0  0  0  0  0  0  0  0  0  0  0
   57.2400   31.3590   44.7080 C   0  0  0  0  0  0  0  0  0  0  0  0
   60.3492   36.5106   46.6658 H   0  0  0  0  0  0  0  0  0  0  0  0
   60.3869   35.3688   45.1410 H   0  0  0  0  0  0  0  0  0  0  0  0
   58.7205   35.1099   47.6945 H   0  0  0  0  0  0  0  0  0  0  0  0
   58.3640   34.4620   44.1520 H   0  0  0  0  0  0  0  0  0  0  0  0
   57.9802   33.2110   42.0159 H   0  0  0  0  0  0  0  0  0  0  0  0
   57.0536   31.2192   40.8872 H   0  0  0  0  0  0  0  0  0  0  0  0
   56.2286   29.2688   42.2086 H   0  0  0  0  0  0  0  0  0  0  0  0
   57.9889   30.0935   46.6381 H   0  0  0  0  0  0  0  0  0  0  0  0
   59.9280   28.1620   48.9810 H   0  0  0  0  0  0  0  0  0  0  0  0
   61.5950   29.9470   49.6840 H   0  0  0  0  0  0  0  0  0  0  0  0
   61.0279   32.9477   49.8362 H   0  0  0  0  0  0  0  0  0  0  0  0
   62.2669   34.9423   49.0912 H   0  0  0  0  0  0  0  0  0  0  0  0
   63.9727   34.8172   47.3142 H   0  0  0  0  0  0  0  0  0  0  0  0
   64.4710   32.6397   46.2277 H   0  0  0  0  0  0  0  0  0  0  0  0
   63.2295   30.6076   46.9624 H   0  0  0  0  0  0  0  0  0  0  0  0
   57.9584   25.2252   45.8378 H   0  0  0  0  0  0  0  0  0  0  0  0
   56.4500   26.7030   44.6510 H   0  0  0  0  0  0  0  0  0  0  0  0
   57.2832   31.3763   45.8070 H   0  0  0  0  0  0  0  0  0  0  0  0
  1  2  2  0
  2  3  1  0
  3  4  2  0
  3  5  1  0
  5  6  1  0
  6  7  2  0
  7  8  1  0
  8  9  2  0
  9 10  1  0
 10 11  1  0
 11 12  2  0
 12 13  1  0
 13 14  2  0
 14 15  1  0
 15 16  1  0
 16 17  2  0
 16 18  1  0
 18 19  1  0
 19 20  2  0
 20 21  1  0
 21 22  2  0
 22 23  1  0
 23 24  2  0
 14 25  1  0
 25 26  2  0
 26 27  1  0
 10 28  2  0
 28  6  1  0
 27 12  1  0
 24 19  1  0
  1 29  1  0
  1 30  1  0
  2 31  1  0
  5 32  1  0
  7 33  1  0
  8 34  1  0
  9 35  1  0
 13 36  1  0
 15 37  1  0
 18 38  1  0
 20 39  1  0
 21 40  1  0
 22 41  1  0
 23 42  1  0
 24 43  1  0
 26 44  1  0
 27 45  1  0
 28 46  1  0
M  END
>  <smiles>  (77) 
C=CC(=O)Nc1cccc(N=c2cc(NC(=O)Nc3ccccc3)nc[nH]2)c1

>  <score_type>  (77) 
oracle

>  <origin>  (77) 
adg

>  <m_score__min__energy>  (77) 
-8.5500000000000007

>  <m_primary>  (77) 
energy

$$$$
77:0
     RDKit          3D

 46 49  0  0  0  0  0  0  0  0999 V2000
   58.5150   34.6120   44.9080 C   0  0  0  0  0  0  0  0  0  0  0  0
   57.4100   33.6320   45.2890 C   0  0  0  0  0  0  0  0  0  0  0  0
   57.9900   32.3550   45.7530 N   0  0  0  0  0  0  0  0  0  0  0  0
   58.4190   31.3960   44.8420 C   0  0  0  0  0  0  0  0  0  0  0  0
   58.2090   31.5970   43.0590 S   0  0  0  0  0  0  0  0  0  0  0  0
   56.5380   30.8560   42.9960 C   0  0  0  0  0  0  0  0  0  0  0  0
   56.4490   29.6550   43.8860 C   0  0  0  0  0  0  0  0  0  0  0  0
   55.6250   29.6600   44.8400 O   0  0  0  0  0  0  0  0  0  0  0  0
   57.3560   28.5560   43.7010 N   0  0  0  0  0  0  0  0  0  0  0  0
   57.4350   27.4200   44.5790 C   0  0  0  0  0  0  0  0  0  0  0  0
   57.8030   26.1710   44.0540 C   0  0  0  0  0  0  0  0  0  0  0  0
   57.8790   25.0490   44.8840 C   0  0  0  0  0  0  0  0  0  0  0  0
   57.5710   25.1600   46.2420 C   0  0  0  0  0  0  0  0  0  0  0  0
   57.1780   26.3930   46.7690 C   0  0  0  0  0  0  0  0  0  0  0  0
   57.1030   27.5190   45.9430 C   0  0  0  0  0  0  0  0  0  0  0  0
   59.0430   30.2130   45.2840 C   0  0  0  0  0  0  0  0  0  0  0  0
   59.1850   30.0340   46.6490 C   0  0  0  0  0  0  0  0  0  0  0  0
   58.7580   30.9750   47.5470 C   0  0  0  0  0  0  0  0  0  0  0  0
   59.0020   30.5940   48.8230 N   0  0  0  0  0  0  0  0  0  0  0  0
   59.5920   29.3850   48.7110 C   0  0  0  0  0  0  0  0  0  0  0  0
   60.0390   28.5660   49.7470 C   0  0  0  0  0  0  0  0  0  0  0  0
   60.6310   27.3350   49.4050 C   0  0  0  0  0  0  0  0  0  0  0  0
   60.7630   26.9520   48.0510 C   0  0  0  0  0  0  0  0  0  0  0  0
   60.3040   27.7950   47.0220 C   0  0  0  0  0  0  0  0  0  0  0  0
   59.7230   29.0070   47.3910 C   0  0  0  0  0  0  0  0  0  0  0  0
   58.1650   32.1550   47.1090 C   0  0  0  0  0  0  0  0  0  0  0  0
   57.8020   33.0220   47.9510 O   0  0  0  0  0  0  0  0  0  0  0  0
   58.9744   35.0195   45.8206 H   0  0  0  0  0  0  0  0  0  0  0  0
   59.2797   34.0897   44.3143 H   0  0  0  0  0  0  0  0  0  0  0  0
   58.0878   35.4336   44.3143 H   0  0  0  0  0  0  0  0  0  0  0  0
   56.8016   34.0677   46.0953 H   0  0  0  0  0  0  0  0  0  0  0  0
   56.7846   33.4389   44.4049 H   0  0  0  0  0  0  0  0  0  0  0  0
   55.8007   31.6030   43.3252 H   0  0  0  0  0  0  0  0  0  0  0  0
   56.3331   30.5416   41.9620 H   0  0  0  0  0  0  0  0  0  0  0  0
   58.1070   28.6630   42.9820 H   0  0  0  0  0  0  0  0  0  0  0  0
   58.0330   26.0748   42.9826 H   0  0  0  0  0  0  0  0  0  0  0  0
   58.1818   24.0771   44.4672 H   0  0  0  0  0  0  0  0  0  0  0  0
   57.6378   24.2778   46.8957 H   0  0  0  0  0  0  0  0  0  0  0  0
   56.9269   26.4782   47.8366 H   0  0  0  0  0  0  0  0  0  0  0  0
   56.7835   28.4851   46.3608 H   0  0  0  0  0  0  0  0  0  0  0  0
   59.4045   29.4585   44.5698 H   0  0  0  0  0  0  0  0  0  0  0  0
   58.7810   31.1180   49.7000 H   0  0  0  0  0  0  0  0  0  0  0  0
   59.9326   28.8718   50.7983 H   0  0  0  0  0  0  0  0  0  0  0  0
   60.9940   26.6655   50.1987 H   0  0  0  0  0  0  0  0  0  0  0  0
   61.2282   25.9874   47.7996 H   0  0  0  0  0  0  0  0  0  0  0  0
   60.4003   27.5078   45.9645 H   0  0  0  0  0  0  0  0  0  0  0  0
  1  2  1  0
  2  3  1  0
  3  4  1  0
  4  5  1  0
  5  6  1  0
  6  7  1  0
  7  8  2  0
  7  9  1  0
  9 10  1  0
 10 11  2  0
 11 12  1  0
 12 13  2  0
 13 14  1  0
 14 15  2  0
  4 16  2  0
 16 17  1  0
 17 18  2  0
 18 19  1  0
 19 20  1  0
 20 21  2  0
 21 22  1  0
 22 23  2  0
 23 24  1  0
 24 25  2  0
 18 26  1  0
 26 27  2  0
 26  3  1  0
 15 10  1  0
 25 17  1  0
 25 20  1  0
  1 28  1  0
  1 29  1  0
  1 30  1  0
  2 31  1  0
  2 32  1  0
  6 33  1  0
  6 34  1  0
  9 35  1  0
 11 36  1  0
 12 37  1  0
 13 38  1  0
 14 39  1  0
 15 40  1  0
 16 41  1  0
 19 42  1  0
 21 43  1  0
 22 44  1  0
 23 45  1  0
 24 46  1  0
M  END
>  <UniqueID>  (78) 
64

>  <SMILES>  (78) 
CCn1c(SCC(=O)Nc2ccccc2)cc2c([nH]c3ccccc32)c1=O

>  <Energy>  (78) 
89.45130341407037

>  <Genealogy>  (78) 
CCn1c(SCC(=O)Nc2ccccc2)cc2c([nH]c3ccccc32)c1=O (3D coordinates assigned)
CCn1c(SCC(=O)Nc2ccccc2)cc2c([nH]c3ccccc32)c1=O (optimized conformer: 89.45130341407037 kcal/mol)

>  <smiles>  (78) 
CCn1c(SCC(=O)Nc2ccccc2)cc2c([nH]c3ccccc32)c1=O

>  <score_type>  (78) 
oracle

>  <origin>  (78) 
adg

>  <m_score__min__energy>  (78) 
-8.0700000000000003

>  <m_primary>  (78) 
energy

$$$$
78:0
     RDKit          3D

 48 51  0  0  0  0  0  0  0  0999 V2000
   59.4850   34.8660   45.8990 C   0  0  0  0  0  0  0  0  0  0  0  0
   58.7520   33.9380   45.1060 O   0  0  0  0  0  0  0  0  0  0  0  0
   58.7840   32.5450   45.2760 C   0  0  0  0  0  0  0  0  0  0  0  0
   59.4750   31.9380   46.3420 C   0  0  0  0  0  0  0  0  0  0  0  0
   59.4940   30.5440   46.4810 C   0  0  0  0  0  0  0  0  0  0  0  0
   58.7840   29.7440   45.5650 C   0  0  0  0  0  0  0  0  0  0  0  0
   58.1120   30.3460   44.4930 C   0  0  0  0  0  0  0  0  0  0  0  0
   58.1040   31.7460   44.3460 C   0  0  0  0  0  0  0  0  0  0  0  0
   57.4310   32.3800   43.2890 O   0  0  0  0  0  0  0  0  0  0  0  0
   57.8310   32.3180   41.9240 C   0  0  0  0  0  0  0  0  0  0  0  0
   58.8460   28.2410   45.6550 C   0  0  0  0  0  0  0  0  0  0  0  0
   59.1440   27.8010   47.0340 N   0  0  0  0  0  0  0  0  0  0  0  0
   59.1190   26.3260   47.1890 C   0  0  0  0  0  0  0  0  0  0  0  0
   57.9670   25.6340   46.4600 C   0  0  0  0  0  0  0  0  0  0  0  0
   56.7030   26.2290   46.5500 C   0  0  0  0  0  0  0  0  0  0  0  0
   55.6190   25.7070   45.8630 C   0  0  0  0  0  0  0  0  0  0  0  0
   54.3790   26.3310   45.9550 O   0  0  0  0  0  0  0  0  0  0  0  0
   55.7800   24.5650   45.0820 C   0  0  0  0  0  0  0  0  0  0  0  0
   54.7780   24.1170   44.4550 O   0  0  0  0  0  0  0  0  0  0  0  0
   57.0010   23.9370   45.0060 N   0  0  0  0  0  0  0  0  0  0  0  0
   57.1250   22.8000   44.2410 C   0  0  0  0  0  0  0  0  0  0  0  0
   58.3310   22.1140   44.1610 C   0  0  0  0  0  0  0  0  0  0  0  0
   59.4280   22.5760   44.8710 C   0  0  0  0  0  0  0  0  0  0  0  0
   59.3180   23.7260   45.6420 C   0  0  0  0  0  0  0  0  0  0  0  0
   58.0970   24.4350   45.6970 C   0  0  0  0  0  0  0  0  0  0  0  0
   60.3880   28.4190   47.5200 C   0  0  0  0  0  0  0  0  0  0  0  0
   60.1920   29.9320   47.6700 C   0  0  0  0  0  0  0  0  0  0  0  0
   59.3157   34.6517   46.9646 H   0  0  0  0  0  0  0  0  0  0  0  0
   60.5576   34.7749   45.6725 H   0  0  0  0  0  0  0  0  0  0  0  0
   59.1480   35.8883   45.6725 H   0  0  0  0  0  0  0  0  0  0  0  0
   60.0057   32.5650   47.0736 H   0  0  0  0  0  0  0  0  0  0  0  0
   57.5854   29.7184   43.7589 H   0  0  0  0  0  0  0  0  0  0  0  0
   58.9166   32.1497   41.8673 H   0  0  0  0  0  0  0  0  0  0  0  0
   57.3052   31.4906   41.4250 H   0  0  0  0  0  0  0  0  0  0  0  0
   57.5803   33.2657   41.4250 H   0  0  0  0  0  0  0  0  0  0  0  0
   57.8767   27.8226   45.3462 H   0  0  0  0  0  0  0  0  0  0  0  0
   59.6498   27.8849   44.9939 H   0  0  0  0  0  0  0  0  0  0  0  0
   60.0650   25.9229   46.7983 H   0  0  0  0  0  0  0  0  0  0  0  0
   58.9778   26.1253   48.2613 H   0  0  0  0  0  0  0  0  0  0  0  0
   56.5685   27.1240   47.1753 H   0  0  0  0  0  0  0  0  0  0  0  0
   56.2537   22.4272   43.6826 H   0  0  0  0  0  0  0  0  0  0  0  0
   58.4143   21.2108   43.5386 H   0  0  0  0  0  0  0  0  0  0  0  0
   60.3836   22.0331   44.8240 H   0  0  0  0  0  0  0  0  0  0  0  0
   60.1862   24.0868   46.2130 H   0  0  0  0  0  0  0  0  0  0  0  0
   60.6535   27.9866   48.4960 H   0  0  0  0  0  0  0  0  0  0  0  0
   61.1952   28.2272   46.7977 H   0  0  0  0  0  0  0  0  0  0  0  0
   59.5886   30.1222   48.5698 H   0  0  0  0  0  0  0  0  0  0  0  0
   61.1881   30.3924   47.7467 H   0  0  0  0  0  0  0  0  0  0  0  0
  1  2  1  0
  2  3  1  0
  3  4  2  0
  4  5  1  0
  5  6  2  0
  6  7  1  0
  7  8  2  0
  8  9  1  0
  9 10  1  0
  6 11  1  0
 11 12  1  0
 12 13  1  0
 13 14  1  0
 14 15  1  0
 15 16  2  0
 16 17  1  0
 16 18  1  0
 18 19  2  0
 18 20  1  0
 20 21  1  0
 21 22  2  0
 22 23  1  0
 23 24  2  0
 24 25  1  0
 12 26  1  0
 26 27  1  0
  8  3  1  0
 25 14  2  0
 27  5  1  0
 25 20  1  0
  1 28  1  0
  1 29  1  0
  1 30  1  0
  4 31  1  0
  7 32  1  0
 10 33  1  0
 10 34  1  0
 10 35  1  0
 11 36  1  0
 11 37  1  0
 13 38  1  0
 13 39  1  0
 15 40  1  0
 21 41  1  0
 22 42  1  0
 23 43  1  0
 24 44  1  0
 26 45  1  0
 26 46  1  0
 27 47  1  0
 27 48  1  0
M  CHG  1  17  -1
M  END
>  <UniqueID>  (79) 
65

>  <SMILES>  (79) 
COc1cc2c(cc1OC)CN(Cc1cc([O-])c(=O)n3ccccc13)CC2

>  <Energy>  (79) 
68.05398590310467

>  <Genealogy>  (79) 
COc1cc2c(cc1OC)CN(Cc1cc([O-])c(=O)n3ccccc13)CC2 (protonated)
COc1cc2c(cc1OC)CN(Cc1cc([O-])c(=O)n3ccccc13)CC2 (3D coordinates assigned)
COc1cc2c(cc1OC)CN(Cc1cc([O-])c(=O)n3ccccc13)CC2 (nonaromatic ring conformer: 68.05398590310467 kcal/mol)

>  <smiles>  (79) 
COc1cc2c(cc1OC)CN(Cc1cc(O)c(=O)n3ccccc13)CC2

>  <score_type>  (79) 
oracle

>  <origin>  (79) 
adg

>  <m_score__min__energy>  (79) 
-11.57

>  <m_primary>  (79) 
energy

$$$$
79:0
     RDKit          3D

 42 45  0  0  0  0  0  0  0  0999 V2000
   57.9783   33.2310   42.7078 H   0  0  0  0  0  0  0  0  0  0  0  0
   57.7420   32.6800   43.6300 C   0  0  0  0  0  0  0  0  0  0  0  0
   57.0190   31.6000   43.5270 N   0  0  0  0  0  0  0  0  0  0  0  0
   57.2970   30.3160   44.1030 C   0  0  0  0  0  0  0  0  0  0  0  0
   57.3170   30.0670   45.4030 O   0  0  0  0  0  0  0  0  0  0  0  0
   57.6310   28.8010   45.5170 C   0  0  0  0  0  0  0  0  0  0  0  0
   57.7760   28.0360   46.6700 C   0  0  0  0  0  0  0  0  0  0  0  0
   57.6244   28.4735   47.6678 H   0  0  0  0  0  0  0  0  0  0  0  0
   58.1240   26.6810   46.5120 C   0  0  0  0  0  0  0  0  0  0  0  0
   58.2482   26.0419   47.3986 H   0  0  0  0  0  0  0  0  0  0  0  0
   58.3150   26.1360   45.2210 C   0  0  0  0  0  0  0  0  0  0  0  0
   58.5866   25.0758   45.1109 H   0  0  0  0  0  0  0  0  0  0  0  0
   58.1600   26.9410   44.0740 C   0  0  0  0  0  0  0  0  0  0  0  0
   58.3066   26.5314   43.0637 H   0  0  0  0  0  0  0  0  0  0  0  0
   57.8140   28.2750   44.2710 C   0  0  0  0  0  0  0  0  0  0  0  0
   57.6100   29.2320   43.3530 N   0  0  0  0  0  0  0  0  0  0  0  0
   57.6740   29.1590   42.3130 H   0  0  0  0  0  0  0  0  0  0  0  0
   58.2640   33.2110   44.9050 C   0  0  0  0  0  0  0  0  0  0  0  0
   59.2300   34.2270   44.8840 C   0  0  0  0  0  0  0  0  0  0  0  0
   59.6109   34.6015   43.9224 H   0  0  0  0  0  0  0  0  0  0  0  0
   59.7110   34.7660   46.0820 C   0  0  0  0  0  0  0  0  0  0  0  0
   60.4810   35.5511   46.0558 H   0  0  0  0  0  0  0  0  0  0  0  0
   59.2220   34.3160   47.3130 C   0  0  0  0  0  0  0  0  0  0  0  0
   59.7420   34.8830   48.4850 O   0  0  0  0  0  0  0  0  0  0  0  0
   60.6370   34.2210   49.3730 C   0  0  0  0  0  0  0  0  0  0  0  0
   61.2079   34.9677   49.9443 H   0  0  0  0  0  0  0  0  0  0  0  0
   60.0666   33.5891   50.0696 H   0  0  0  0  0  0  0  0  0  0  0  0
   61.5810   33.3690   48.5770 C   0  0  0  0  0  0  0  0  0  0  0  0
   62.8330   33.8740   48.1880 C   0  0  0  0  0  0  0  0  0  0  0  0
   63.1104   34.9073   48.4436 H   0  0  0  0  0  0  0  0  0  0  0  0
   63.7280   33.0680   47.4770 C   0  0  0  0  0  0  0  0  0  0  0  0
   64.7039   33.4705   47.1678 H   0  0  0  0  0  0  0  0  0  0  0  0
   63.3830   31.7510   47.1590 C   0  0  0  0  0  0  0  0  0  0  0  0
   64.0854   31.1198   46.5949 H   0  0  0  0  0  0  0  0  0  0  0  0
   62.1470   31.2360   47.5570 C   0  0  0  0  0  0  0  0  0  0  0  0
   61.8793   30.1980   47.3104 H   0  0  0  0  0  0  0  0  0  0  0  0
   61.2490   32.0390   48.2690 C   0  0  0  0  0  0  0  0  0  0  0  0
   60.2801   31.6277   48.5886 H   0  0  0  0  0  0  0  0  0  0  0  0
   58.2270   33.3190   47.3330 C   0  0  0  0  0  0  0  0  0  0  0  0
   57.8287   32.9618   48.2941 H   0  0  0  0  0  0  0  0  0  0  0  0
   57.7440   32.7820   46.1370 C   0  0  0  0  0  0  0  0  0  0  0  0
   56.9520   32.0190   46.1605 H   0  0  0  0  0  0  0  0  0  0  0  0
  1  2  1  0
  2  3  2  0
  3  4  1  0
  4  5  1  0
  5  6  1  0
  6  7  2  0
  7  8  1  0
  7  9  1  0
  9 10  1  0
  9 11  2  0
 11 12  1  0
 11 13  1  0
 13 14  1  0
 13 15  2  0
 15 16  1  0
 16 17  1  0
  2 18  1  0
 18 19  2  0
 19 20  1  0
 19 21  1  0
 21 22  1  0
 21 23  2  0
 23 24  1  0
 24 25  1  0
 25 26  1  0
 25 27  1  0
 25 28  1  0
 28 29  2  0
 29 30  1  0
 29 31  1  0
 31 32  1  0
 31 33  2  0
 33 34  1  0
 33 35  1  0
 35 36  1  0
 35 37  2  0
 37 38  1  0
 23 39  1  0
 39 40  1  0
 39 41  2  0
 41 42  1  0
 16  4  2  0
 41 18  1  0
 15  6  1  0
 37 28  1  0
M  CHG  1  16   1
M  END
>  <UniqueID>  (80) 
66

>  <SMILES>  (80) 
C(=N\c1[nH+]c2ccccc2o1)\c1ccc(OCc2ccccc2)cc1

>  <Energy>  (80) 
93.34120081659138

>  <Genealogy>  (80) 
C(=Nc1[nH+]c2ccccc2o1)c1ccc(OCc2ccccc2)cc1 (protonated)
C(=N\c1[nH+]c2ccccc2o1)\c1ccc(OCc2ccccc2)cc1 (cis-trans isomerization)
C(=N\c1[nH+]c2ccccc2o1)\c1ccc(OCc2ccccc2)cc1 (3D coordinates assigned)
C(=N\c1[nH+]c2ccccc2o1)\c1ccc(OCc2ccccc2)cc1 (optimized conformer: 93.34120081659138 kcal/mol)

>  <smiles>  (80) 
C(=Nc1nc2ccccc2o1)c1ccc(OCc2ccccc2)cc1

>  <score_type>  (80) 
oracle

>  <origin>  (80) 
adg

>  <m_score__min__energy>  (80) 
-7.21

>  <m_primary>  (80) 
energy

$$$$
80:0
     RDKit          3D

 48 51  0  0  0  0  0  0  0  0999 V2000
   64.1320   33.8510   51.5810 C   0  0  0  0  0  0  0  0  0  0  0  0
   63.4370   33.7170   50.2690 C   0  0  0  0  0  0  0  0  0  0  0  0
   64.0800   33.4910   49.1040 N   0  0  0  0  0  0  0  0  0  0  0  0
   63.2300   33.4670   48.0420 C   0  0  0  0  0  0  0  0  0  0  0  0
   63.7420   33.1690   46.6660 C   0  0  0  0  0  0  0  0  0  0  0  0
   61.8840   33.7180   48.3650 C   0  0  0  0  0  0  0  0  0  0  0  0
   60.7130   33.7630   47.4670 C   0  0  0  0  0  0  0  0  0  0  0  0
   60.3890   32.6900   46.6290 C   0  0  0  0  0  0  0  0  0  0  0  0
   59.2510   32.7850   45.8150 C   0  0  0  0  0  0  0  0  0  0  0  0
   58.8550   31.7310   44.9770 O   0  0  0  0  0  0  0  0  0  0  0  0
   58.4090   30.4800   45.4270 C   0  0  0  0  0  0  0  0  0  0  0  0
   57.5580   29.6770   44.6470 C   0  0  0  0  0  0  0  0  0  0  0  0
   57.0890   28.4600   45.1420 C   0  0  0  0  0  0  0  0  0  0  0  0
   57.4720   28.0210   46.4210 C   0  0  0  0  0  0  0  0  0  0  0  0
   56.9850   26.7820   46.9540 N   0  0  0  0  0  0  0  0  0  0  0  0
   56.5290   25.6780   46.1650 C   0  0  0  0  0  0  0  0  0  0  0  0
   55.2900   25.5000   46.0230 O   0  0  0  0  0  0  0  0  0  0  0  0
   57.4660   24.8020   45.5180 N   0  0  0  0  0  0  0  0  0  0  0  0
   57.0780   23.5480   44.9440 C   0  0  0  0  0  0  0  0  0  0  0  0
   57.0140   23.4290   43.5490 C   0  0  0  0  0  0  0  0  0  0  0  0
   56.6300   22.2220   42.9590 C   0  0  0  0  0  0  0  0  0  0  0  0
   56.2930   21.1280   43.7610 C   0  0  0  0  0  0  0  0  0  0  0  0
   56.3270   21.2450   45.1520 C   0  0  0  0  0  0  0  0  0  0  0  0
   56.7110   22.4510   45.7520 C   0  0  0  0  0  0  0  0  0  0  0  0
   56.6440   22.5840   47.5050 Cl  0  0  0  0  0  0  0  0  0  0  0  0
   58.3830   28.7820   47.1650 C   0  0  0  0  0  0  0  0  0  0  0  0
   58.7970   28.3530   48.3830 F   0  0  0  0  0  0  0  0  0  0  0  0
   58.8470   30.0060   46.6700 C   0  0  0  0  0  0  0  0  0  0  0  0
   58.5310   33.9360   45.8080 N   0  0  0  0  0  0  0  0  0  0  0  0
   58.8800   34.9870   46.5970 C   0  0  0  0  0  0  0  0  0  0  0  0
   59.9590   34.8940   47.4180 N   0  0  0  0  0  0  0  0  0  0  0  0
   61.7880   33.9290   50.0330 S   0  0  0  0  0  0  0  0  0  0  0  0
   63.4067   33.7112   52.3961 H   0  0  0  0  0  0  0  0  0  0  0  0
   64.9211   33.0885   51.6575 H   0  0  0  0  0  0  0  0  0  0  0  0
   64.5810   34.8523   51.6575 H   0  0  0  0  0  0  0  0  0  0  0  0
   64.6906   32.6169   46.7393 H   0  0  0  0  0  0  0  0  0  0  0  0
   63.0039   32.5594   46.1242 H   0  0  0  0  0  0  0  0  0  0  0  0
   63.9075   34.1119   46.1242 H   0  0  0  0  0  0  0  0  0  0  0  0
   61.0167   31.7869   46.6091 H   0  0  0  0  0  0  0  0  0  0  0  0
   57.2607   30.0101   43.6417 H   0  0  0  0  0  0  0  0  0  0  0  0
   56.4169   27.8416   44.5289 H   0  0  0  0  0  0  0  0  0  0  0  0
   58.4890   24.9860   45.6200 H   0  0  0  0  0  0  0  0  0  0  0  0
   57.2676   24.2911   42.9147 H   0  0  0  0  0  0  0  0  0  0  0  0
   56.5929   22.1328   41.8633 H   0  0  0  0  0  0  0  0  0  0  0  0
   56.0010   20.1747   43.2963 H   0  0  0  0  0  0  0  0  0  0  0  0
   56.0507   20.3853   45.7801 H   0  0  0  0  0  0  0  0  0  0  0  0
   59.5602   30.5995   47.2609 H   0  0  0  0  0  0  0  0  0  0  0  0
   58.2881   35.9138   46.5707 H   0  0  0  0  0  0  0  0  0  0  0  0
  1  2  1  0
  2  3  2  0
  3  4  1  0
  4  5  1  0
  4  6  2  0
  6  7  1  0
  7  8  2  0
  8  9  1  0
  9 10  1  0
 10 11  1  0
 11 12  2  0
 12 13  1  0
 13 14  2  0
 14 15  1  0
 15 16  1  0
 16 17  2  0
 16 18  1  0
 18 19  1  0
 19 20  2  0
 20 21  1  0
 21 22  2  0
 22 23  1  0
 23 24  2  0
 24 25  1  0
 14 26  1  0
 26 27  1  0
 26 28  2  0
  9 29  2  0
 29 30  1  0
 30 31  2  0
  6 32  1  0
 32  2  1  0
 31  7  1  0
 28 11  1  0
 24 19  1  0
  1 33  1  0
  1 34  1  0
  1 35  1  0
  5 36  1  0
  5 37  1  0
  5 38  1  0
  8 39  1  0
 12 40  1  0
 13 41  1  0
 18 42  1  0
 20 43  1  0
 21 44  1  0
 22 45  1  0
 23 46  1  0
 28 47  1  0
 30 48  1  0
M  CHG  1  15  -1
M  END
>  <UniqueID>  (81) 
67

>  <SMILES>  (81) 
Cc1nc(C)c(-c2cc(Oc3ccc([N-]C(=O)Nc4ccccc4Cl)c(F)c3)ncn2)s1

>  <Energy>  (81) 
100.93170304224121

>  <Genealogy>  (81) 
Cc1nc(C)c(-c2cc(Oc3ccc([N-]C(=O)Nc4ccccc4Cl)c(F)c3)ncn2)s1 (protonated)
Cc1nc(C)c(-c2cc(Oc3ccc([N-]C(=O)Nc4ccccc4Cl)c(F)c3)ncn2)s1 (3D coordinates assigned)
Cc1nc(C)c(-c2cc(Oc3ccc([N-]C(=O)Nc4ccccc4Cl)c(F)c3)ncn2)s1 (optimized conformer: 100.93170304224121 kcal/mol)

>  <smiles>  (81) 
Cc1nc(C)c(-c2cc(Oc3ccc(NC(=O)Nc4ccccc4Cl)c(F)c3)ncn2)s1

>  <score_type>  (81) 
oracle

>  <origin>  (81) 
adg

>  <m_score__min__energy>  (81) 
-10.58

>  <m_primary>  (81) 
energy

$$$$
81:0
     RDKit          3D

 41 43  0  0  1  0  0  0  0  0999 V2000
   60.5520   30.6280   47.6400 C   0  0  0  0  0  0  0  0  0  0  0  0
   61.5460   31.7280   47.5630 C   0  0  0  0  0  0  0  0  0  0  0  0
   62.7490   31.7040   48.2440 C   0  0  0  0  0  0  0  0  0  0  0  0
   63.6500   32.7480   48.1470 C   0  0  0  0  0  0  0  0  0  0  0  0
   63.3180   33.8400   47.3390 C   0  0  0  0  0  0  0  0  0  0  0  0
   62.1200   33.8340   46.6760 C   0  0  0  0  0  0  0  0  0  0  0  0
   61.1980   32.8110   46.7500 C   0  0  0  0  0  0  0  0  0  0  0  0
   59.9660   32.8410   46.0490 N   0  0  0  0  0  0  0  0  0  0  0  0
   58.9030   33.7460   46.3590 C   0  0  0  0  0  0  0  0  0  0  0  0
   57.7480   33.5830   45.4140 C   0  0  0  0  0  0  0  0  0  0  0  0
   56.6560   34.1990   45.5840 O   0  0  0  0  0  0  0  0  0  0  0  0
   57.9110   32.7060   44.3060 N   0  0  0  0  0  0  0  0  0  0  0  0
   57.6100   31.4700   44.3610 C   0  0  0  0  0  0  0  0  0  0  0  0
   58.2590   30.4880   45.1060 C   0  0  0  0  0  0  0  0  0  0  0  0
   57.6130   29.3150   44.8710 C   0  0  0  0  0  0  0  0  0  0  0  0
   57.9690   28.0230   45.4580 C   0  0  0  0  0  0  0  0  0  0  0  0
   57.0110   27.0850   45.7980 C   0  0  0  0  0  0  0  0  0  0  0  0
   57.3900   25.8620   46.3570 C   0  0  0  0  0  0  0  0  0  0  0  0
   58.7400   25.5710   46.5810 C   0  0  0  0  0  0  0  0  0  0  0  0
   59.6990   26.5260   46.2340 C   0  0  0  0  0  0  0  0  0  0  0  0
   59.3080   27.7480   45.6740 C   0  0  0  0  0  0  0  0  0  0  0  0
   56.6000   29.5760   44.0080 N   0  0  0  0  0  0  0  0  0  0  0  0
   56.6000   30.8620   43.7050 N   0  0  0  0  0  0  0  0  0  0  0  0
   60.3426   30.3962   48.6947 H   0  0  0  0  0  0  0  0  0  0  0  0
   59.6221   30.9385   47.1412 H   0  0  0  0  0  0  0  0  0  0  0  0
   60.9548   29.7342   47.1412 H   0  0  0  0  0  0  0  0  0  0  0  0
   62.9940   30.8372   48.8754 H   0  0  0  0  0  0  0  0  0  0  0  0
   64.6050   32.7204   48.6922 H   0  0  0  0  0  0  0  0  0  0  0  0
   64.0084   34.6904   47.2377 H   0  0  0  0  0  0  0  0  0  0  0  0
   61.8773   34.7008   46.0437 H   0  0  0  0  0  0  0  0  0  0  0  0
   59.8300   32.1690   45.2700 H   0  0  0  0  0  0  0  0  0  0  0  0
   58.5558   33.5516   47.3845 H   0  0  0  0  0  0  0  0  0  0  0  0
   59.2852   34.7730   46.2628 H   0  0  0  0  0  0  0  0  0  0  0  0
   59.1304   30.6341   45.7613 H   0  0  0  0  0  0  0  0  0  0  0  0
   55.9464   27.3029   45.6276 H   0  0  0  0  0  0  0  0  0  0  0  0
   56.6209   25.1220   46.6231 H   0  0  0  0  0  0  0  0  0  0  0  0
   59.0406   24.6090   47.0218 H   0  0  0  0  0  0  0  0  0  0  0  0
   60.7658   26.3168   46.4016 H   0  0  0  0  0  0  0  0  0  0  0  0
   60.0698   28.4942   45.4040 H   0  0  0  0  0  0  0  0  0  0  0  0
   55.9140   28.8590   43.6340 H   0  0  0  0  0  0  0  0  0  0  0  0
   55.9140   31.3080   43.0560 H   0  0  0  0  0  0  0  0  0  0  0  0
  1  2  1  0
  2  3  2  0
  3  4  1  0
  4  5  2  0
  5  6  1  0
  6  7  2  0
  7  8  1  0
  8  9  1  0
  9 10  1  0
 10 11  2  0
 10 12  1  0
 12 13  2  0
 13 14  1  0
 14 15  2  0
 15 16  1  0
 16 17  2  0
 17 18  1  0
 18 19  2  0
 19 20  1  0
 20 21  2  0
 15 22  1  0
 22 23  1  0
  7  2  1  0
 23 13  1  0
 21 16  1  0
  1 24  1  0
  1 25  1  0
  1 26  1  0
  3 27  1  0
  4 28  1  0
  5 29  1  0
  6 30  1  0
  8 31  1  0
  9 32  1  0
  9 33  1  0
 14 34  1  0
 17 35  1  0
 18 36  1  0
 19 37  1  0
 20 38  1  0
 21 39  1  0
 22 40  1  0
 23 41  1  0
M  END
>  <smiles>  (82) 
Cc1ccccc1NCC(=O)N=c1cc(-c2ccccc2)[nH][nH]1

>  <score_type>  (82) 
oracle

>  <origin>  (82) 
adg

>  <m_score__min__energy>  (82) 
-8.1400000000000006

>  <m_primary>  (82) 
energy

$$$$
82:0
     RDKit          3D

 33 34  0  0  0  0  0  0  0  0999 V2000
   58.5650   32.7940   41.4780 C   0  0  0  0  0  0  0  0  0  0  0  0
   56.9990   31.9580   41.0780 S   0  0  0  0  0  0  0  0  0  0  0  0
   56.9790   31.0270   42.6070 C   0  0  0  0  0  0  0  0  0  0  0  0
   55.9180   30.3130   43.0390 N   0  0  0  0  0  0  0  0  0  0  0  0
   56.1560   29.7120   44.2350 C   0  0  0  0  0  0  0  0  0  0  0  0
   55.1760   28.9680   44.8810 O   0  0  0  0  0  0  0  0  0  0  0  0
   57.4310   29.9310   44.7590 C   0  0  0  0  0  0  0  0  0  0  0  0
   57.9650   29.4500   46.0450 C   0  0  0  0  0  0  0  0  0  0  0  0
   57.3550   28.5340   46.6600 O   0  0  0  0  0  0  0  0  0  0  0  0
   59.1670   29.9960   46.6070 N   0  0  0  0  0  0  0  0  0  0  0  0
   60.4640   29.4800   46.1590 C   0  0  0  0  0  0  0  0  0  0  0  0
   59.0840   31.1620   47.4930 C   0  0  0  0  0  0  0  0  0  0  0  0
   58.9610   32.4160   46.6740 C   0  0  0  0  0  0  0  0  0  0  0  0
   57.6970   32.8800   46.2740 C   0  0  0  0  0  0  0  0  0  0  0  0
   57.5800   34.0780   45.5610 C   0  0  0  0  0  0  0  0  0  0  0  0
   58.7210   34.8230   45.2500 C   0  0  0  0  0  0  0  0  0  0  0  0
   59.9810   34.3740   45.6560 C   0  0  0  0  0  0  0  0  0  0  0  0
   60.1020   33.1760   46.3700 C   0  0  0  0  0  0  0  0  0  0  0  0
   58.2600   30.9390   43.6910 S   0  0  0  0  0  0  0  0  0  0  0  0
   58.6794   32.8551   42.5703 H   0  0  0  0  0  0  0  0  0  0  0  0
   59.4041   32.2238   41.0527 H   0  0  0  0  0  0  0  0  0  0  0  0
   58.5581   33.8084   41.0527 H   0  0  0  0  0  0  0  0  0  0  0  0
   55.0130   30.2450   42.5240 H   0  0  0  0  0  0  0  0  0  0  0  0
   61.0829   29.2338   47.0344 H   0  0  0  0  0  0  0  0  0  0  0  0
   60.3092   28.5750   45.5532 H   0  0  0  0  0  0  0  0  0  0  0  0
   60.9732   30.2440   45.5532 H   0  0  0  0  0  0  0  0  0  0  0  0
   58.2032   31.0636   48.1446 H   0  0  0  0  0  0  0  0  0  0  0  0
   59.9950   31.2171   48.1070 H   0  0  0  0  0  0  0  0  0  0  0  0
   56.7962   32.2995   46.5222 H   0  0  0  0  0  0  0  0  0  0  0  0
   56.5885   34.4342   45.2447 H   0  0  0  0  0  0  0  0  0  0  0  0
   58.6275   35.7626   44.6858 H   0  0  0  0  0  0  0  0  0  0  0  0
   60.8783   34.9626   45.4142 H   0  0  0  0  0  0  0  0  0  0  0  0
   61.0942   32.8288   46.6940 H   0  0  0  0  0  0  0  0  0  0  0  0
  1  2  1  0
  2  3  1  0
  3  4  2  0
  4  5  1  0
  5  6  1  0
  5  7  2  0
  7  8  1  0
  8  9  2  0
  8 10  1  0
 10 11  1  0
 10 12  1  0
 12 13  1  0
 13 14  2  0
 14 15  1  0
 15 16  2  0
 16 17  1  0
 17 18  2  0
  7 19  1  0
 19  3  1  0
 18 13  1  0
  1 20  1  0
  1 21  1  0
  1 22  1  0
  4 23  1  0
 11 24  1  0
 11 25  1  0
 11 26  1  0
 12 27  1  0
 12 28  1  0
 14 29  1  0
 15 30  1  0
 16 31  1  0
 17 32  1  0
 18 33  1  0
M  CHG  2   4   1   6  -1
M  END
>  <UniqueID>  (83) 
68

>  <SMILES>  (83) 
CSc1[nH+]c([O-])c(C(=O)N(C)Cc2ccccc2)s1

>  <Energy>  (83) 
60.603575598175176

>  <Genealogy>  (83) 
CSc1[nH+]c([O-])c(C(=O)N(C)Cc2ccccc2)s1 (protonated)
CSc1[nH+]c([O-])c(C(=O)N(C)Cc2ccccc2)s1 (3D coordinates assigned)
CSc1[nH+]c([O-])c(C(=O)N(C)Cc2ccccc2)s1 (optimized conformer: 60.603575598175176 kcal/mol)

>  <smiles>  (83) 
CSc1nc(O)c(C(=O)N(C)Cc2ccccc2)s1

>  <score_type>  (83) 
oracle

>  <origin>  (83) 
adg

>  <m_score__min__energy>  (83) 
-8.4299999999999997

>  <m_primary>  (83) 
energy

$$$$
83:0
     RDKit          3D

 36 38  0  0  0  0  0  0  0  0999 V2000
   58.1270   32.3540   41.5590 C   0  0  0  0  0  0  0  0  0  0  0  0
   57.0500   31.5500   42.2780 C   0  0  0  0  0  0  0  0  0  0  0  0
   57.4350   31.3170   43.6730 N   0  0  0  0  0  0  0  0  0  0  0  0
   57.7600   32.2490   44.6050 C   0  0  0  0  0  0  0  0  0  0  0  0
   57.7620   33.6410   44.4680 C   0  0  0  0  0  0  0  0  0  0  0  0
   58.1490   34.4150   45.5780 C   0  0  0  0  0  0  0  0  0  0  0  0
   58.5290   33.7970   46.7880 C   0  0  0  0  0  0  0  0  0  0  0  0
   58.5300   32.3960   46.9040 C   0  0  0  0  0  0  0  0  0  0  0  0
   58.1380   31.6530   45.7920 C   0  0  0  0  0  0  0  0  0  0  0  0
   58.0610   30.2930   45.5850 C   0  0  0  0  0  0  0  0  0  0  0  0
   58.3500   29.2190   46.4220 C   0  0  0  0  0  0  0  0  0  0  0  0
   58.2040   27.9030   45.9110 C   0  0  0  0  0  0  0  0  0  0  0  0
   58.4910   26.7510   46.7460 N   0  0  0  0  0  0  0  0  0  0  0  0
   57.5840   25.5960   46.7620 C   0  0  0  0  0  0  0  0  0  0  0  0
   59.6920   26.7210   47.5910 C   0  0  0  0  0  0  0  0  0  0  0  0
   57.7730   27.7380   44.5630 C   0  0  0  0  0  0  0  0  0  0  0  0
   57.4930   28.8450   43.7430 C   0  0  0  0  0  0  0  0  0  0  0  0
   57.6390   30.1220   44.2850 C   0  0  0  0  0  0  0  0  0  0  0  0
   58.7781   32.8401   42.3005 H   0  0  0  0  0  0  0  0  0  0  0  0
   58.7274   31.6814   40.9288 H   0  0  0  0  0  0  0  0  0  0  0  0
   57.6528   33.1208   40.9288 H   0  0  0  0  0  0  0  0  0  0  0  0
   56.1023   32.1079   42.2515 H   0  0  0  0  0  0  0  0  0  0  0  0
   56.9307   30.5801   41.7730 H   0  0  0  0  0  0  0  0  0  0  0  0
   57.4696   34.1169   43.5204 H   0  0  0  0  0  0  0  0  0  0  0  0
   58.1552   35.5123   45.5014 H   0  0  0  0  0  0  0  0  0  0  0  0
   58.8267   34.4161   47.6471 H   0  0  0  0  0  0  0  0  0  0  0  0
   58.8299   31.9030   47.8405 H   0  0  0  0  0  0  0  0  0  0  0  0
   58.6841   29.3865   47.4566 H   0  0  0  0  0  0  0  0  0  0  0  0
   57.3645   25.3165   47.8030 H   0  0  0  0  0  0  0  0  0  0  0  0
   56.6477   25.8579   46.2475 H   0  0  0  0  0  0  0  0  0  0  0  0
   58.0604   24.7485   46.2475 H   0  0  0  0  0  0  0  0  0  0  0  0
   59.3954   26.7284   48.6502 H   0  0  0  0  0  0  0  0  0  0  0  0
   60.2676   25.8082   47.3778 H   0  0  0  0  0  0  0  0  0  0  0  0
   60.3125   27.6039   47.3778 H   0  0  0  0  0  0  0  0  0  0  0  0
   57.6569   26.7230   44.1553 H   0  0  0  0  0  0  0  0  0  0  0  0
   57.1673   28.7078   42.7013 H   0  0  0  0  0  0  0  0  0  0  0  0
  1  2  1  0
  2  3  1  0
  3  4  1  0
  4  5  2  0
  5  6  1  0
  6  7  2  0
  7  8  1  0
  8  9  2  0
  9 10  1  0
 10 11  2  0
 11 12  1  0
 12 13  1  0
 13 14  1  0
 13 15  1  0
 12 16  2  0
 16 17  1  0
 17 18  2  0
 18  3  1  0
  9  4  1  0
 18 10  1  0
  1 19  1  0
  1 20  1  0
  1 21  1  0
  2 22  1  0
  2 23  1  0
  5 24  1  0
  6 25  1  0
  7 26  1  0
  8 27  1  0
 11 28  1  0
 14 29  1  0
 14 30  1  0
 14 31  1  0
 15 32  1  0
 15 33  1  0
 15 34  1  0
 16 35  1  0
 17 36  1  0
M  END
>  <UniqueID>  (84) 
69

>  <SMILES>  (84) 
CCn1c2ccccc2c2cc(N(C)C)ccc21

>  <Energy>  (84) 
77.68782280917623

>  <Genealogy>  (84) 
CCn1c2ccccc2c2cc(N(C)C)ccc21 (3D coordinates assigned)
CCn1c2ccccc2c2cc(N(C)C)ccc21 (optimized conformer: 77.68782280917623 kcal/mol)

>  <smiles>  (84) 
CCn1c2ccccc2c2cc(N(C)C)ccc21

>  <score_type>  (84) 
oracle

>  <origin>  (84) 
adg

>  <m_score__min__energy>  (84) 
-6.4699999999999998

>  <m_primary>  (84) 
energy

$$$$
84:0
     RDKit          3D

 36 37  0  0  0  0  0  0  0  0999 V2000
   53.2953   24.4824   45.6073 H   0  0  0  0  0  0  0  0  0  0  0  0
   54.3380   24.7240   45.8610 C   0  0  0  0  0  0  0  0  0  0  0  0
   54.8230   25.9710   45.6220 N   0  0  0  0  0  0  0  0  0  0  0  0
   56.1040   26.3200   45.9220 C   0  0  0  0  0  0  0  0  0  0  0  0
   56.5550   27.5230   45.7010 N   0  0  0  0  0  0  0  0  0  0  0  0
   57.6590   27.9420   44.8760 C   0  0  0  0  0  0  0  0  0  0  0  0
   58.1350   27.0820   43.5590 S   0  0  0  0  0  0  0  0  0  0  0  0
   58.4770   29.0390   45.3030 N   0  0  0  0  0  0  0  0  0  0  0  0
   59.3010   29.3180   44.7220 H   0  0  0  0  0  0  0  0  0  0  0  0
   58.1820   29.8210   46.5020 C   0  0  0  0  0  0  0  0  0  0  0  0
   58.9371   29.6022   47.2713 H   0  0  0  0  0  0  0  0  0  0  0  0
   57.1797   29.5496   46.8650 H   0  0  0  0  0  0  0  0  0  0  0  0
   58.2040   31.2980   46.1910 C   0  0  0  0  0  0  0  0  0  0  0  0
   59.0820   32.1460   46.8890 C   0  0  0  0  0  0  0  0  0  0  0  0
   59.7369   31.7315   47.6696 H   0  0  0  0  0  0  0  0  0  0  0  0
   59.1280   33.5100   46.5980 C   0  0  0  0  0  0  0  0  0  0  0  0
   59.8189   34.1661   47.1477 H   0  0  0  0  0  0  0  0  0  0  0  0
   58.2990   34.0420   45.6110 C   0  0  0  0  0  0  0  0  0  0  0  0
   58.3381   35.1174   45.3829 H   0  0  0  0  0  0  0  0  0  0  0  0
   57.4190   33.2130   44.9110 C   0  0  0  0  0  0  0  0  0  0  0  0
   56.7660   33.6396   44.1353 H   0  0  0  0  0  0  0  0  0  0  0  0
   57.3630   31.8330   45.1930 C   0  0  0  0  0  0  0  0  0  0  0  0
   56.4910   30.9720   44.5070 O   0  0  0  0  0  0  0  0  0  0  0  0
   56.6550   30.5690   43.1510 C   0  0  0  0  0  0  0  0  0  0  0  0
   57.0694   29.5506   43.1187 H   0  0  0  0  0  0  0  0  0  0  0  0
   55.6792   30.5840   42.6434 H   0  0  0  0  0  0  0  0  0  0  0  0
   57.3430   31.2611   42.6434 H   0  0  0  0  0  0  0  0  0  0  0  0
   56.9520   25.3770   46.5150 C   0  0  0  0  0  0  0  0  0  0  0  0
   57.9853   25.6489   46.7766 H   0  0  0  0  0  0  0  0  0  0  0  0
   56.4780   24.0900   46.7720 C   0  0  0  0  0  0  0  0  0  0  0  0
   57.1364   23.3454   47.2433 H   0  0  0  0  0  0  0  0  0  0  0  0
   55.1640   23.7460   46.4300 C   0  0  0  0  0  0  0  0  0  0  0  0
   54.6280   22.3790   46.7370 C   0  0  0  0  0  0  0  0  0  0  0  0
   54.5745   22.2425   47.8272 H   0  0  0  0  0  0  0  0  0  0  0  0
   53.6221   22.2739   46.3045 H   0  0  0  0  0  0  0  0  0  0  0  0
   55.2944   21.6182   46.3045 H   0  0  0  0  0  0  0  0  0  0  0  0
  1  2  1  0
  2  3  1  0
  3  4  1  0
  4  5  2  0
  5  6  1  0
  6  7  2  0
  6  8  1  0
  8  9  1  0
  8 10  1  0
 10 11  1  0
 10 12  1  0
 10 13  1  0
 13 14  2  0
 14 15  1  0
 14 16  1  0
 16 17  1  0
 16 18  2  0
 18 19  1  0
 18 20  1  0
 20 21  1  0
 20 22  2  0
 22 23  1  0
 23 24  1  0
 24 25  1  0
 24 26  1  0
 24 27  1  0
  4 28  1  0
 28 29  1  0
 28 30  2  0
 30 31  1  0
 30 32  1  0
 32 33  1  0
 33 34  1  0
 33 35  1  0
 33 36  1  0
 32  2  2  0
 22 13  1  0
M  CHG  1   3  -1
M  END
>  <UniqueID>  (85) 
70

>  <SMILES>  (85) 
COc1ccccc1CNC(=S)/N=c1/ccc(C)c[n-]1

>  <Energy>  (85) 
37.96899324449915

>  <Genealogy>  (85) 
COc1ccccc1CNC(=S)N=c1ccc(C)c[n-]1 (protonated)
COc1ccccc1CNC(=S)/N=c1/ccc(C)c[n-]1 (cis-trans isomerization)
COc1ccccc1CNC(=S)/N=c1/ccc(C)c[n-]1 (3D coordinates assigned)
COc1ccccc1CNC(=S)/N=c1/ccc(C)c[n-]1 (optimized conformer: 37.96899324449915 kcal/mol)

>  <smiles>  (85) 
COc1ccccc1CNC(=S)N=c1ccc(C)c[nH]1

>  <score_type>  (85) 
oracle

>  <origin>  (85) 
adg

>  <m_score__min__energy>  (85) 
-8.5

>  <m_primary>  (85) 
energy

$$$$
85:0
     RDKit          3D

 21 21  0  0  0  0  0  0  0  0999 V2000
   56.5720   24.6950   46.8750 C   0  0  0  0  0  0  0  0  0  0  0  0
   56.2970   26.0240   46.2390 C   0  0  0  0  0  0  0  0  0  0  0  0
   55.0990   26.3380   46.0000 O   0  0  0  0  0  0  0  0  0  0  0  0
   57.3930   26.9680   45.8860 C   0  0  0  0  0  0  0  0  0  0  0  0
   58.6880   26.8180   46.4170 C   0  0  0  0  0  0  0  0  0  0  0  0
   59.7060   27.7070   46.0660 C   0  0  0  0  0  0  0  0  0  0  0  0
   59.4480   28.7630   45.1910 C   0  0  0  0  0  0  0  0  0  0  0  0
   58.1580   28.9480   44.6670 C   0  0  0  0  0  0  0  0  0  0  0  0
   57.8700   30.0140   43.7450 N   0  0  0  0  0  0  0  0  0  0  0  0
   56.6820   30.8150   43.7780 C   0  0  0  0  0  0  0  0  0  0  0  0
   55.7110   30.5150   44.5230 O   0  0  0  0  0  0  0  0  0  0  0  0
   57.1440   28.0370   45.0030 C   0  0  0  0  0  0  0  0  0  0  0  0
   56.5501   24.8008   47.9697 H   0  0  0  0  0  0  0  0  0  0  0  0
   55.8043   23.9724   46.5611 H   0  0  0  0  0  0  0  0  0  0  0  0
   57.5634   24.3364   46.5611 H   0  0  0  0  0  0  0  0  0  0  0  0
   58.8997   25.9938   47.1141 H   0  0  0  0  0  0  0  0  0  0  0  0
   60.7160   27.5743   46.4812 H   0  0  0  0  0  0  0  0  0  0  0  0
   60.2576   29.4529   44.9107 H   0  0  0  0  0  0  0  0  0  0  0  0
   58.5210   30.1650   42.9410 H   0  0  0  0  0  0  0  0  0  0  0  0
   56.6165   31.7091   43.1406 H   0  0  0  0  0  0  0  0  0  0  0  0
   56.1401   28.1598   44.5703 H   0  0  0  0  0  0  0  0  0  0  0  0
  1  2  1  0
  2  3  2  0
  2  4  1  0
  4  5  2  0
  5  6  1  0
  6  7  2  0
  7  8  1  0
  8  9  1  0
  9 10  1  0
 10 11  2  0
  8 12  2  0
 12  4  1  0
  1 13  1  0
  1 14  1  0
  1 15  1  0
  5 16  1  0
  6 17  1  0
  7 18  1  0
  9 19  1  0
 10 20  1  0
 12 21  1  0
M  END
>  <UniqueID>  (86) 
71

>  <SMILES>  (86) 
CC(=O)c1cccc(NC=O)c1

>  <Energy>  (86) 
22.829351394311924

>  <Genealogy>  (86) 
CC(=O)c1cccc(NC=O)c1 (3D coordinates assigned)
CC(=O)c1cccc(NC=O)c1 (optimized conformer: 22.829351394311924 kcal/mol)

>  <smiles>  (86) 
CC(=O)c1cccc(NC=O)c1

>  <score_type>  (86) 
oracle

>  <origin>  (86) 
adg

>  <m_score__min__energy>  (86) 
-5.7599999999999998

>  <m_primary>  (86) 
energy

$$$$
86:0
     RDKit          3D

 37 38  0  0  0  0  0  0  0  0999 V2000
   59.9305   34.7582   49.8972 H   0  0  0  0  0  0  0  0  0  0  0  0
   60.2340   34.5800   48.8550 C   0  0  0  0  0  0  0  0  0  0  0  0
   59.3630   34.8860   47.8810 C   0  0  0  0  0  0  0  0  0  0  0  0
   58.9914   35.9197   47.8231 H   0  0  0  0  0  0  0  0  0  0  0  0
   58.8730   33.9090   46.8780 C   0  0  0  0  0  0  0  0  0  0  0  0
   58.5320   32.5830   47.2120 C   0  0  0  0  0  0  0  0  0  0  0  0
   58.6333   32.2387   48.2518 H   0  0  0  0  0  0  0  0  0  0  0  0
   58.0660   31.7020   46.2320 C   0  0  0  0  0  0  0  0  0  0  0  0
   57.8065   30.6686   46.5052 H   0  0  0  0  0  0  0  0  0  0  0  0
   57.9270   32.1270   44.9020 C   0  0  0  0  0  0  0  0  0  0  0  0
   57.4260   31.1700   43.8390 C   0  0  0  0  0  0  0  0  0  0  0  0
   58.2968   30.7125   43.3467 H   0  0  0  0  0  0  0  0  0  0  0  0
   56.8091   31.7590   43.1443 H   0  0  0  0  0  0  0  0  0  0  0  0
   56.5650   30.0860   44.3650 N   0  0  0  0  0  0  0  0  0  0  0  0
   55.4710   29.7350   43.4460 C   0  0  0  0  0  0  0  0  0  0  0  0
   54.5815   29.4496   44.0268 H   0  0  0  0  0  0  0  0  0  0  0  0
   55.2324   30.6017   42.8120 H   0  0  0  0  0  0  0  0  0  0  0  0
   55.7812   28.8913   42.8120 H   0  0  0  0  0  0  0  0  0  0  0  0
   57.3310   28.8910   44.7530 C   0  0  0  0  0  0  0  0  0  0  0  0
   57.3743   28.8235   45.8501 H   0  0  0  0  0  0  0  0  0  0  0  0
   56.8395   27.9934   44.3495 H   0  0  0  0  0  0  0  0  0  0  0  0
   58.3518   28.9628   44.3495 H   0  0  0  0  0  0  0  0  0  0  0  0
   58.2410   33.4530   44.5710 C   0  0  0  0  0  0  0  0  0  0  0  0
   58.1198   33.8011   43.5346 H   0  0  0  0  0  0  0  0  0  0  0  0
   58.7070   34.3350   45.5500 C   0  0  0  0  0  0  0  0  0  0  0  0
   58.9462   35.3735   45.2776 H   0  0  0  0  0  0  0  0  0  0  0  0
   61.5830   34.0150   48.6060 C   0  0  0  0  0  0  0  0  0  0  0  0
   62.0670   33.7450   47.3080 C   0  0  0  0  0  0  0  0  0  0  0  0
   61.4369   33.9629   46.4330 H   0  0  0  0  0  0  0  0  0  0  0  0
   63.3430   33.2020   47.1280 C   0  0  0  0  0  0  0  0  0  0  0  0
   63.7159   33.0020   46.1126 H   0  0  0  0  0  0  0  0  0  0  0  0
   64.1450   32.9130   48.2340 C   0  0  0  0  0  0  0  0  0  0  0  0
   65.1500   32.4900   48.0892 H   0  0  0  0  0  0  0  0  0  0  0  0
   63.6710   33.1610   49.5240 C   0  0  0  0  0  0  0  0  0  0  0  0
   64.3018   32.9295   50.3949 H   0  0  0  0  0  0  0  0  0  0  0  0
   62.3960   33.7030   49.7100 C   0  0  0  0  0  0  0  0  0  0  0  0
   62.0254   33.8871   50.7292 H   0  0  0  0  0  0  0  0  0  0  0  0
  1  2  1  0
  2  3  2  0
  3  4  1  0
  3  5  1  0
  5  6  2  0
  6  7  1  0
  6  8  1  0
  8  9  1  0
  8 10  2  0
 10 11  1  0
 11 12  1  0
 11 13  1  0
 11 14  1  0
 14 15  1  0
 15 16  1  0
 15 17  1  0
 15 18  1  0
 14 19  1  0
 19 20  1  0
 19 21  1  0
 19 22  1  0
 10 23  1  0
 23 24  1  0
 23 25  2  0
 25 26  1  0
  2 27  1  0
 27 28  2  0
 28 29  1  0
 28 30  1  0
 30 31  1  0
 30 32  2  0
 32 33  1  0
 32 34  1  0
 34 35  1  0
 34 36  2  0
 36 37  1  0
 25  5  1  0
 36 27  1  0
M  END
>  <UniqueID>  (87) 
72

>  <SMILES>  (87) 
CN(C)Cc1ccc(/C=C/c2ccccc2)cc1

>  <Energy>  (87) 
44.17889912101637

>  <Genealogy>  (87) 
CN(C)Cc1ccc(/C=C/c2ccccc2)cc1 (cis-trans isomerization)
CN(C)Cc1ccc(/C=C/c2ccccc2)cc1 (3D coordinates assigned)
CN(C)Cc1ccc(/C=C/c2ccccc2)cc1 (optimized conformer: 44.17889912101637 kcal/mol)

>  <smiles>  (87) 
CN(C)Cc1ccc(C=Cc2ccccc2)cc1

>  <score_type>  (87) 
oracle

>  <origin>  (87) 
adg

>  <m_score__min__energy>  (87) 
-7.1799999999999997

>  <m_primary>  (87) 
energy

$$$$
87:0
     RDKit          3D

 37 39  0  0  1  0  0  0  0  0999 V2000
   58.5510   32.0720   49.6540 C   0  0  0  0  0  0  0  0  0  0  0  0
   58.5220   31.6410   48.2400 N   0  0  0  0  0  0  0  0  0  0  0  0
   58.7530   32.6360   47.2740 C   0  0  0  0  0  0  0  0  0  0  0  0
   59.2860   33.8620   47.6760 C   0  0  0  0  0  0  0  0  0  0  0  0
   59.5420   34.8870   46.7940 C   0  0  0  0  0  0  0  0  0  0  0  0
   59.2810   34.7550   45.4470 C   0  0  0  0  0  0  0  0  0  0  0  0
   58.7560   33.5550   45.0260 C   0  0  0  0  0  0  0  0  0  0  0  0
   58.5050   33.4350   43.7100 N   0  0  0  0  0  0  0  0  0  0  0  0
   57.9910   32.3080   43.1910 C   0  0  0  0  0  0  0  0  0  0  0  0
   57.7050   32.1570   41.7320 C   0  0  0  0  0  0  0  0  0  0  0  0
   57.7290   31.2650   44.0800 C   0  0  0  0  0  0  0  0  0  0  0  0
   57.9720   31.3510   45.4260 C   0  0  0  0  0  0  0  0  0  0  0  0
   57.6930   30.3330   46.1490 N   0  0  0  0  0  0  0  0  0  0  0  0
   58.5990   29.2400   46.1490 C   0  0  0  0  0  0  0  0  0  0  0  0
   59.8010   29.2240   45.5090 C   0  0  0  0  0  0  0  0  0  0  0  0
   60.5890   28.1010   45.5880 C   0  0  0  0  0  0  0  0  0  0  0  0
   60.2070   26.9680   46.3020 C   0  0  0  0  0  0  0  0  0  0  0  0
   60.9850   25.8710   46.3740 F   0  0  0  0  0  0  0  0  0  0  0  0
   58.9980   26.9850   46.9460 C   0  0  0  0  0  0  0  0  0  0  0  0
   58.2050   28.1140   46.8660 C   0  0  0  0  0  0  0  0  0  0  0  0
   58.4980   32.5170   45.9280 C   0  0  0  0  0  0  0  0  0  0  0  0
   58.4916   31.1893   50.3077 H   0  0  0  0  0  0  0  0  0  0  0  0
   59.4876   32.6134   49.8532 H   0  0  0  0  0  0  0  0  0  0  0  0
   57.6954   32.7340   49.8532 H   0  0  0  0  0  0  0  0  0  0  0  0
   58.3340   30.6400   48.1220 H   0  0  0  0  0  0  0  0  0  0  0  0
   59.5107   34.0151   48.7419 H   0  0  0  0  0  0  0  0  0  0  0  0
   59.9633   35.8304   47.1715 H   0  0  0  0  0  0  0  0  0  0  0  0
   59.4835   35.5729   44.7399 H   0  0  0  0  0  0  0  0  0  0  0  0
   58.7010   34.2170   43.0440 H   0  0  0  0  0  0  0  0  0  0  0  0
   56.7394   31.6472   41.5985 H   0  0  0  0  0  0  0  0  0  0  0  0
   57.6632   33.1506   41.2618 H   0  0  0  0  0  0  0  0  0  0  0  0
   58.5019   31.5621   41.2618 H   0  0  0  0  0  0  0  0  0  0  0  0
   57.3077   30.3301   43.6819 H   0  0  0  0  0  0  0  0  0  0  0  0
   60.1373   30.1002   44.9353 H   0  0  0  0  0  0  0  0  0  0  0  0
   61.5581   28.0968   45.0676 H   0  0  0  0  0  0  0  0  0  0  0  0
   58.6620   26.1093   47.5207 H   0  0  0  0  0  0  0  0  0  0  0  0
   57.2346   28.1230   47.3839 H   0  0  0  0  0  0  0  0  0  0  0  0
  1  2  1  0
  2  3  1  0
  3  4  2  0
  4  5  1  0
  5  6  2  0
  6  7  1  0
  7  8  1  0
  8  9  1  0
  9 10  1  0
  9 11  2  0
 11 12  1  0
 12 13  2  0
 13 14  1  0
 14 15  2  0
 15 16  1  0
 16 17  2  0
 17 18  1  0
 17 19  1  0
 19 20  2  0
 12 21  1  0
 21  3  1  0
 21  7  2  0
 20 14  1  0
  1 22  1  0
  1 23  1  0
  1 24  1  0
  2 25  1  0
  4 26  1  0
  5 27  1  0
  6 28  1  0
  8 29  1  0
 10 30  1  0
 10 31  1  0
 10 32  1  0
 11 33  1  0
 15 34  1  0
 16 35  1  0
 19 36  1  0
 20 37  1  0
M  END
>  <smiles>  (88) 
CNc1cccc2[nH]c(C)cc(=Nc3ccc(F)cc3)c12

>  <score_type>  (88) 
oracle

>  <origin>  (88) 
adg

>  <m_score__min__energy>  (88) 
-6.6900000000000004

>  <m_primary>  (88) 
energy

$$$$
88:0
     RDKit          3D

 40 42  0  0  0  0  0  0  0  0999 V2000
   66.4610   33.0650   50.4980 C   0  0  0  0  0  0  0  0  0  0  0  0
   65.5210   32.4710   49.6100 O   0  0  0  0  0  0  0  0  0  0  0  0
   64.2570   33.0080   49.3240 C   0  0  0  0  0  0  0  0  0  0  0  0
   63.5620   33.6740   50.3610 C   0  0  0  0  0  0  0  0  0  0  0  0
   62.2920   34.2350   50.1360 C   0  0  0  0  0  0  0  0  0  0  0  0
   61.7420   34.1100   48.8640 C   0  0  0  0  0  0  0  0  0  0  0  0
   60.5590   34.5800   48.4370 N   0  0  0  0  0  0  0  0  0  0  0  0
   60.4680   34.2220   47.1330 C   0  0  0  0  0  0  0  0  0  0  0  0
   59.3320   34.5930   46.2690 C   0  0  0  0  0  0  0  0  0  0  0  0
   59.4890   35.4960   45.4030 O   0  0  0  0  0  0  0  0  0  0  0  0
   58.0650   33.9270   46.3850 N   0  0  0  0  0  0  0  0  0  0  0  0
   57.1330   33.8280   45.2620 C   0  0  0  0  0  0  0  0  0  0  0  0
   57.7800   33.0860   44.0870 C   0  0  0  0  0  0  0  0  0  0  0  0
   57.6950   31.5910   44.2640 C   0  0  0  0  0  0  0  0  0  0  0  0
   58.4630   30.9510   45.2490 C   0  0  0  0  0  0  0  0  0  0  0  0
   58.3360   29.5740   45.4580 C   0  0  0  0  0  0  0  0  0  0  0  0
   57.4360   28.8290   44.6890 C   0  0  0  0  0  0  0  0  0  0  0  0
   56.6630   29.4600   43.7120 C   0  0  0  0  0  0  0  0  0  0  0  0
   56.7910   30.8350   43.4980 C   0  0  0  0  0  0  0  0  0  0  0  0
   61.6080   33.5240   46.7310 C   0  0  0  0  0  0  0  0  0  0  0  0
   62.4040   33.4660   47.8530 C   0  0  0  0  0  0  0  0  0  0  0  0
   63.6640   32.9010   48.0410 C   0  0  0  0  0  0  0  0  0  0  0  0
   66.1561   32.8723   51.5372 H   0  0  0  0  0  0  0  0  0  0  0  0
   67.4565   32.6317   50.3216 H   0  0  0  0  0  0  0  0  0  0  0  0
   66.4970   34.1502   50.3216 H   0  0  0  0  0  0  0  0  0  0  0  0
   64.0214   33.7542   51.3572 H   0  0  0  0  0  0  0  0  0  0  0  0
   61.7510   34.7558   50.9398 H   0  0  0  0  0  0  0  0  0  0  0  0
   59.8600   35.1200   48.9960 H   0  0  0  0  0  0  0  0  0  0  0  0
   57.8680   33.3370   47.2250 H   0  0  0  0  0  0  0  0  0  0  0  0
   56.2351   33.2806   45.5847 H   0  0  0  0  0  0  0  0  0  0  0  0
   56.8632   34.8430   44.9348 H   0  0  0  0  0  0  0  0  0  0  0  0
   57.2615   33.3661   43.1582 H   0  0  0  0  0  0  0  0  0  0  0  0
   58.8421   33.3687   44.0428 H   0  0  0  0  0  0  0  0  0  0  0  0
   59.1678   31.5349   45.8592 H   0  0  0  0  0  0  0  0  0  0  0  0
   58.9443   29.0765   46.2277 H   0  0  0  0  0  0  0  0  0  0  0  0
   57.3371   27.7459   44.8538 H   0  0  0  0  0  0  0  0  0  0  0  0
   55.9526   28.8741   43.1103 H   0  0  0  0  0  0  0  0  0  0  0  0
   56.1814   31.3280   42.7264 H   0  0  0  0  0  0  0  0  0  0  0  0
   61.8235   33.1104   45.7348 H   0  0  0  0  0  0  0  0  0  0  0  0
   64.1829   32.3873   47.2183 H   0  0  0  0  0  0  0  0  0  0  0  0
  1  2  1  0
  2  3  1  0
  3  4  2  0
  4  5  1  0
  5  6  2  0
  6  7  1  0
  7  8  1  0
  8  9  1  0
  9 10  2  0
  9 11  1  0
 11 12  1  0
 12 13  1  0
 13 14  1  0
 14 15  2  0
 15 16  1  0
 16 17  2  0
 17 18  1  0
 18 19  2  0
  8 20  2  0
 20 21  1  0
 21 22  2  0
 22  3  1  0
 21  6  1  0
 19 14  1  0
  1 23  1  0
  1 24  1  0
  1 25  1  0
  4 26  1  0
  5 27  1  0
  7 28  1  0
 11 29  1  0
 12 30  1  0
 12 31  1  0
 13 32  1  0
 13 33  1  0
 15 34  1  0
 16 35  1  0
 17 36  1  0
 18 37  1  0
 19 38  1  0
 20 39  1  0
 22 40  1  0
M  END
>  <UniqueID>  (89) 
73

>  <SMILES>  (89) 
COc1ccc2[nH]c(C(=O)NCCc3ccccc3)cc2c1

>  <Energy>  (89) 
68.69796505956862

>  <Genealogy>  (89) 
COc1ccc2[nH]c(C(=O)NCCc3ccccc3)cc2c1 (3D coordinates assigned)
COc1ccc2[nH]c(C(=O)NCCc3ccccc3)cc2c1 (optimized conformer: 68.69796505956862 kcal/mol)

>  <smiles>  (89) 
COc1ccc2[nH]c(C(=O)NCCc3ccccc3)cc2c1

>  <score_type>  (89) 
oracle

>  <origin>  (89) 
adg

>  <m_score__min__energy>  (89) 
-8.5099999999999998

>  <m_primary>  (89) 
energy

$$$$
89:0
     RDKit          3D

 52 54  0  0  1  0  0  0  0  0999 V2000
   66.5740   32.6060   50.1290 C   0  0  0  0  0  0  0  0  0  0  0  0
   65.3560   33.0970   50.1660 C   0  0  0  0  0  0  0  0  0  0  0  0
   64.1670   32.2810   50.2830 C   0  0  0  0  0  0  0  0  0  0  0  0
   64.2100   31.0400   50.5060 O   0  0  0  0  0  0  0  0  0  0  0  0
   62.8520   32.8390   50.1500 N   0  0  0  0  0  0  0  0  0  0  0  0
   61.6750   32.0460   50.2640 C   0  0  0  0  0  0  0  0  0  0  0  0
   60.7490   32.2430   51.2790 C   0  0  0  0  0  0  0  0  0  0  0  0
   59.6180   31.4430   51.3460 C   0  0  0  0  0  0  0  0  0  0  0  0
   59.3750   30.4360   50.4170 C   0  0  0  0  0  0  0  0  0  0  0  0
   60.2960   30.2410   49.4080 C   0  0  0  0  0  0  0  0  0  0  0  0
   60.1540   29.2440   48.4050 N   0  0  0  0  0  0  0  0  0  0  0  0
   59.3210   29.3410   47.4270 C   0  0  0  0  0  0  0  0  0  0  0  0
   58.9220   28.2070   46.8220 N   0  0  0  0  0  0  0  0  0  0  0  0
   58.0400   28.2680   45.7820 C   0  0  0  0  0  0  0  0  0  0  0  0
   57.5880   29.5060   45.3910 C   0  0  0  0  0  0  0  0  0  0  0  0
   56.6440   29.5650   44.2790 C   0  0  0  0  0  0  0  0  0  0  0  0
   56.9920   29.0350   42.9980 N   0  0  0  0  0  0  0  0  0  0  0  0
   55.5230   30.0920   44.4800 O   0  0  0  0  0  0  0  0  0  0  0  0
   58.0140   30.6540   46.0310 C   0  0  0  0  0  0  0  0  0  0  0  0
   57.5400   31.7720   45.6010 N   0  0  0  0  0  0  0  0  0  0  0  0
   58.4390   32.7160   44.9650 C   0  0  0  0  0  0  0  0  0  0  0  0
   59.2230   33.3260   46.0990 C   0  0  0  0  0  0  0  0  0  0  0  0
   58.5840   33.9900   47.1370 C   0  0  0  0  0  0  0  0  0  0  0  0
   59.3590   34.5280   48.1460 C   0  0  0  0  0  0  0  0  0  0  0  0
   60.7320   34.4420   48.1790 C   0  0  0  0  0  0  0  0  0  0  0  0
   61.3610   33.7810   47.1430 C   0  0  0  0  0  0  0  0  0  0  0  0
   62.8430   33.6640   47.1390 C   0  0  0  0  0  0  0  0  0  0  0  0
   63.2470   32.3680   47.2390 F   0  0  0  0  0  0  0  0  0  0  0  0
   63.3440   34.1520   45.9460 F   0  0  0  0  0  0  0  0  0  0  0  0
   63.3600   34.4680   48.1450 F   0  0  0  0  0  0  0  0  0  0  0  0
   60.6120   33.2350   46.1220 C   0  0  0  0  0  0  0  0  0  0  0  0
   58.8850   30.5550   47.0520 N   0  0  0  0  0  0  0  0  0  0  0  0
   61.4330   31.0390   49.3340 C   0  0  0  0  0  0  0  0  0  0  0  0
   67.4370   33.2820   50.0388 H   0  0  0  0  0  0  0  0  0  0  0  0
   66.7308   31.5188   50.1882 H   0  0  0  0  0  0  0  0  0  0  0  0
   65.2334   34.1884   50.1047 H   0  0  0  0  0  0  0  0  0  0  0  0
   62.7080   33.8560   49.9650 H   0  0  0  0  0  0  0  0  0  0  0  0
   60.9117   33.0316   52.0284 H   0  0  0  0  0  0  0  0  0  0  0  0
   58.8928   31.6092   52.1562 H   0  0  0  0  0  0  0  0  0  0  0  0
   58.4720   29.8115   50.4851 H   0  0  0  0  0  0  0  0  0  0  0  0
   59.2590   27.2530   47.1080 H   0  0  0  0  0  0  0  0  0  0  0  0
   57.7011   27.3541   45.2721 H   0  0  0  0  0  0  0  0  0  0  0  0
   56.6550   28.0970   42.6820 H   0  0  0  0  0  0  0  0  0  0  0  0
   57.6060   29.6170   42.3670 H   0  0  0  0  0  0  0  0  0  0  0  0
   59.1106   32.1992   44.2637 H   0  0  0  0  0  0  0  0  0  0  0  0
   57.8982   33.4741   44.3794 H   0  0  0  0  0  0  0  0  0  0  0  0
   57.4883   34.0854   47.1556 H   0  0  0  0  0  0  0  0  0  0  0  0
   58.8510   35.0538   48.9678 H   0  0  0  0  0  0  0  0  0  0  0  0
   61.3093   34.8853   49.0037 H   0  0  0  0  0  0  0  0  0  0  0  0
   61.1268   32.7126   45.3022 H   0  0  0  0  0  0  0  0  0  0  0  0
   59.2060   31.4220   47.5340 H   0  0  0  0  0  0  0  0  0  0  0  0
   62.1566   30.8706   48.5228 H   0  0  0  0  0  0  0  0  0  0  0  0
  1  2  2  0
  2  3  1  0
  3  4  2  0
  3  5  1  0
  5  6  1  0
  6  7  2  0
  7  8  1  0
  8  9  2  0
  9 10  1  0
 10 11  1  0
 11 12  2  0
 12 13  1  0
 13 14  1  0
 14 15  2  0
 15 16  1  0
 16 17  1  0
 16 18  2  0
 15 19  1  0
 19 20  2  0
 20 21  1  0
 21 22  1  0
 22 23  2  0
 23 24  1  0
 24 25  2  0
 25 26  1  0
 26 27  1  0
 27 28  1  0
 27 29  1  0
 27 30  1  0
 26 31  2  0
 19 32  1  0
 10 33  2  0
 33  6  1  0
 32 12  1  0
 31 22  1  0
  1 34  1  0
  1 35  1  0
  2 36  1  0
  5 37  1  0
  7 38  1  0
  8 39  1  0
  9 40  1  0
 13 41  1  0
 14 42  1  0
 17 43  1  0
 17 44  1  0
 21 45  1  0
 21 46  1  0
 23 47  1  0
 24 48  1  0
 25 49  1  0
 31 50  1  0
 32 51  1  0
 33 52  1  0
M  END
>  <smiles>  (90) 
C=CC(=O)Nc1cccc(N=c2[nH]cc(C(N)=O)c(=NCc3cccc(C(F)(F)F)c3)[nH]2)c1

>  <score_type>  (90) 
oracle

>  <origin>  (90) 
adg

>  <m_score__min__energy>  (90) 
-9.0199999999999996

>  <m_primary>  (90) 
energy

$$$$
90:0
     RDKit          3D

 43 45  0  0  0  0  0  0  0  0999 V2000
   54.4850   25.2440   45.6230 C   0  0  0  0  0  0  0  0  0  0  0  0
   55.1530   26.4350   46.0230 O   0  0  0  0  0  0  0  0  0  0  0  0
   56.5270   26.6670   45.8610 C   0  0  0  0  0  0  0  0  0  0  0  0
   57.5000   25.7350   46.2720 C   0  0  0  0  0  0  0  0  0  0  0  0
   58.8580   26.0080   46.0930 C   0  0  0  0  0  0  0  0  0  0  0  0
   59.2610   27.2100   45.5100 C   0  0  0  0  0  0  0  0  0  0  0  0
   58.3060   28.1560   45.1110 C   0  0  0  0  0  0  0  0  0  0  0  0
   56.9370   27.8730   45.2720 C   0  0  0  0  0  0  0  0  0  0  0  0
   55.9740   28.8130   44.8910 O   0  0  0  0  0  0  0  0  0  0  0  0
   56.2910   29.9900   44.1470 C   0  0  0  0  0  0  0  0  0  0  0  0
   57.6850   30.5600   44.5200 C   0  0  1  0  0  0  0  0  0  0  0  0
   57.7510   31.3140   45.8200 N   0  0  2  0  0  0  0  0  0  0  0  0
   57.4270   32.7540   45.7360 C   0  0  0  0  0  0  0  0  0  0  0  0
   59.0130   31.0760   46.5740 C   0  0  0  0  0  0  0  0  0  0  0  0
   59.4390   32.2230   47.4640 C   0  0  0  0  0  0  0  0  0  0  0  0
   60.3880   33.1580   47.0150 C   0  0  0  0  0  0  0  0  0  0  0  0
   60.7810   34.2180   47.8390 C   0  0  0  0  0  0  0  0  0  0  0  0
   60.2390   34.3460   49.1210 C   0  0  0  0  0  0  0  0  0  0  0  0
   59.3100   33.4110   49.5830 C   0  0  0  0  0  0  0  0  0  0  0  0
   58.9150   32.3500   48.7630 C   0  0  0  0  0  0  0  0  0  0  0  0
   58.7410   29.4270   44.4300 C   0  0  0  0  0  0  0  0  0  0  0  0
   54.1703   24.6828   46.5152 H   0  0  0  0  0  0  0  0  0  0  0  0
   53.6008   25.5036   45.0223 H   0  0  0  0  0  0  0  0  0  0  0  0
   55.1675   24.6249   45.0223 H   0  0  0  0  0  0  0  0  0  0  0  0
   57.1888   24.7876   46.7362 H   0  0  0  0  0  0  0  0  0  0  0  0
   59.6119   25.2734   46.4125 H   0  0  0  0  0  0  0  0  0  0  0  0
   60.3315   27.4161   45.3629 H   0  0  0  0  0  0  0  0  0  0  0  0
   56.2839   29.7443   43.0748 H   0  0  0  0  0  0  0  0  0  0  0  0
   55.5377   30.7548   44.3868 H   0  0  0  0  0  0  0  0  0  0  0  0
   57.9127   31.3408   43.7794 H   0  0  0  0  0  0  0  0  0  0  0  0
   57.0140   30.9160   46.4480 H   0  0  0  0  0  0  0  0  0  0  0  0
   57.3337   33.1686   46.7506 H   0  0  0  0  0  0  0  0  0  0  0  0
   58.2293   33.2796   45.1975 H   0  0  0  0  0  0  0  0  0  0  0  0
   56.4769   32.8853   45.1975 H   0  0  0  0  0  0  0  0  0  0  0  0
   58.8736   30.1855   47.2046 H   0  0  0  0  0  0  0  0  0  0  0  0
   59.8070   30.9517   45.8229 H   0  0  0  0  0  0  0  0  0  0  0  0
   60.8239   33.0555   46.0103 H   0  0  0  0  0  0  0  0  0  0  0  0
   61.5171   34.9513   47.4778 H   0  0  0  0  0  0  0  0  0  0  0  0
   60.5441   35.1831   49.7661 H   0  0  0  0  0  0  0  0  0  0  0  0
   58.8883   33.5097   50.5942 H   0  0  0  0  0  0  0  0  0  0  0  0
   58.1907   31.6107   49.1356 H   0  0  0  0  0  0  0  0  0  0  0  0
   58.9296   29.2082   43.3686 H   0  0  0  0  0  0  0  0  0  0  0  0
   59.6458   29.7813   44.9456 H   0  0  0  0  0  0  0  0  0  0  0  0
  1  2  1  0
  2  3  1  0
  3  4  2  0
  4  5  1  0
  5  6  2  0
  6  7  1  0
  7  8  2  0
  8  9  1  0
  9 10  1  0
 10 11  1  0
 11 12  1  0
 12 13  1  0
 12 14  1  0
 14 15  1  0
 15 16  2  0
 16 17  1  0
 17 18  2  0
 18 19  1  0
 19 20  2  0
 11 21  1  0
  8  3  1  0
 20 15  1  0
 21  7  1  0
  1 22  1  0
  1 23  1  0
  1 24  1  0
  4 25  1  0
  5 26  1  0
  6 27  1  0
 10 28  1  0
 10 29  1  0
 11 30  1  6
 12 31  1  1
 13 32  1  0
 13 33  1  0
 13 34  1  0
 14 35  1  0
 14 36  1  0
 16 37  1  0
 17 38  1  0
 18 39  1  0
 19 40  1  0
 20 41  1  0
 21 42  1  0
 21 43  1  0
M  CHG  1  12   1
M  END
>  <UniqueID>  (91) 
74

>  <SMILES>  (91) 
COc1cccc2c1OC[C@@H]([N@H+](C)Cc1ccccc1)C2

>  <Energy>  (91) 
57.51988298496675

>  <Genealogy>  (91) 
COc1cccc2c1OCC([NH+](C)Cc1ccccc1)C2 (protonated)
COc1cccc2c1OC[C@@H]([N@H+](C)Cc1ccccc1)C2 (chirality)
COc1cccc2c1OC[C@@H]([N@H+](C)Cc1ccccc1)C2 (3D coordinates assigned)
COc1cccc2c1OC[C@@H]([N@H+](C)Cc1ccccc1)C2 (nonaromatic ring conformer: 57.51988298496675 kcal/mol)

>  <smiles>  (91) 
COc1cccc2c1OCC(N(C)Cc1ccccc1)C2

>  <score_type>  (91) 
oracle

>  <origin>  (91) 
adg

>  <m_score__min__energy>  (91) 
-6.29

>  <m_primary>  (91) 
energy

$$$$
91:0
     RDKit          3D

 34 36  0  0  0  0  0  0  0  0999 V2000
   63.7740   32.6880   47.2370 C   0  0  0  0  0  0  0  0  0  0  0  0
   62.3720   33.5760   46.4910 S   0  0  0  0  0  0  0  0  0  0  0  0
   61.3800   33.5450   47.9940 C   0  0  0  0  0  0  0  0  0  0  0  0
   61.9900   33.8540   49.2170 C   0  0  0  0  0  0  0  0  0  0  0  0
   61.2440   33.8380   50.3980 C   0  0  0  0  0  0  0  0  0  0  0  0
   59.8850   33.5180   50.3650 C   0  0  0  0  0  0  0  0  0  0  0  0
   59.2660   33.2190   49.1480 C   0  0  0  0  0  0  0  0  0  0  0  0
   60.0050   33.2350   47.9560 C   0  0  0  0  0  0  0  0  0  0  0  0
   59.3460   32.9400   46.7090 N   0  0  0  0  0  0  0  0  0  0  0  0
   59.1740   33.9230   45.7620 C   0  0  0  0  0  0  0  0  0  0  0  0
   59.6360   35.3340   45.9940 C   0  0  0  0  0  0  0  0  0  0  0  0
   58.5710   33.6290   44.5800 N   0  0  0  0  0  0  0  0  0  0  0  0
   58.1120   32.3860   44.3070 C   0  0  0  0  0  0  0  0  0  0  0  0
   57.4960   32.1210   43.0760 C   0  0  0  0  0  0  0  0  0  0  0  0
   57.0150   30.8390   42.7960 C   0  0  0  0  0  0  0  0  0  0  0  0
   57.1460   29.8180   43.7420 C   0  0  0  0  0  0  0  0  0  0  0  0
   57.7580   30.0750   44.9730 C   0  0  0  0  0  0  0  0  0  0  0  0
   58.2470   31.3620   45.2630 C   0  0  0  0  0  0  0  0  0  0  0  0
   58.8720   31.6730   46.4820 C   0  0  0  0  0  0  0  0  0  0  0  0
   58.9980   30.7820   47.3690 O   0  0  0  0  0  0  0  0  0  0  0  0
   63.6973   32.7366   48.3332 H   0  0  0  0  0  0  0  0  0  0  0  0
   63.7556   31.6365   46.9144 H   0  0  0  0  0  0  0  0  0  0  0  0
   64.7167   33.1540   46.9144 H   0  0  0  0  0  0  0  0  0  0  0  0
   63.0594   34.1099   49.2473 H   0  0  0  0  0  0  0  0  0  0  0  0
   61.7281   34.0780   51.3561 H   0  0  0  0  0  0  0  0  0  0  0  0
   59.3014   33.5013   51.2973 H   0  0  0  0  0  0  0  0  0  0  0  0
   58.1948   32.9701   49.1250 H   0  0  0  0  0  0  0  0  0  0  0  0
   59.6989   35.5261   47.0753 H   0  0  0  0  0  0  0  0  0  0  0  0
   60.6272   35.4749   45.5383 H   0  0  0  0  0  0  0  0  0  0  0  0
   58.9201   36.0338   45.5383 H   0  0  0  0  0  0  0  0  0  0  0  0
   57.3911   32.9225   42.3300 H   0  0  0  0  0  0  0  0  0  0  0  0
   56.5323   30.6329   41.8293 H   0  0  0  0  0  0  0  0  0  0  0  0
   56.7668   28.8101   43.5176 H   0  0  0  0  0  0  0  0  0  0  0  0
   57.8572   29.2696   45.7157 H   0  0  0  0  0  0  0  0  0  0  0  0
  1  2  1  0
  2  3  1  0
  3  4  2  0
  4  5  1  0
  5  6  2  0
  6  7  1  0
  7  8  2  0
  8  9  1  0
  9 10  1  0
 10 11  1  0
 10 12  2  0
 12 13  1  0
 13 14  2  0
 14 15  1  0
 15 16  2  0
 16 17  1  0
 17 18  2  0
 18 19  1  0
 19 20  2  0
  8  3  1  0
 19  9  1  0
 18 13  1  0
  1 21  1  0
  1 22  1  0
  1 23  1  0
  4 24  1  0
  5 25  1  0
  6 26  1  0
  7 27  1  0
 11 28  1  0
 11 29  1  0
 11 30  1  0
 14 31  1  0
 15 32  1  0
 16 33  1  0
 17 34  1  0
M  END
>  <UniqueID>  (92) 
75

>  <SMILES>  (92) 
CSc1ccccc1-n1c(C)nc2ccccc2c1=O

>  <Energy>  (92) 
45.80286089273505

>  <Genealogy>  (92) 
CSc1ccccc1-n1c(C)nc2ccccc2c1=O (3D coordinates assigned)
CSc1ccccc1-n1c(C)nc2ccccc2c1=O (optimized conformer: 45.80286089273505 kcal/mol)

>  <smiles>  (92) 
CSc1ccccc1-n1c(C)nc2ccccc2c1=O

>  <score_type>  (92) 
oracle

>  <origin>  (92) 
adg

>  <m_score__min__energy>  (92) 
-7.1900000000000004

>  <m_primary>  (92) 
energy

$$$$
92:0
     RDKit          3D

 40 41  0  0  0  0  0  0  0  0999 V2000
   59.4070   34.7090   45.6050 C   0  0  0  0  0  0  0  0  0  0  0  0
   58.4080   33.6520   45.8030 N   0  0  0  0  0  0  0  0  0  0  0  0
   57.8420   33.4290   47.1380 C   0  0  0  0  0  0  0  0  0  0  0  0
   57.9610   32.8250   44.7020 C   0  0  0  0  0  0  0  0  0  0  0  0
   57.0070   31.8020   44.8810 C   0  0  0  0  0  0  0  0  0  0  0  0
   56.6070   31.0210   43.7870 C   0  0  0  0  0  0  0  0  0  0  0  0
   55.6140   29.8970   43.9770 C   0  0  0  0  0  0  0  0  0  0  0  0
   55.9120   29.0920   45.1720 N   0  0  0  0  0  0  0  0  0  0  0  0
   57.2290   28.4450   45.0770 C   0  0  0  0  0  0  0  0  0  0  0  0
   57.7790   28.1290   46.4730 C   0  0  0  0  0  0  0  0  0  0  0  0
   58.7360   29.1930   46.9500 C   0  0  0  0  0  0  0  0  0  0  0  0
   58.8570   29.4690   48.3220 C   0  0  0  0  0  0  0  0  0  0  0  0
   59.7690   30.4310   48.7680 C   0  0  0  0  0  0  0  0  0  0  0  0
   60.5680   31.1190   47.8500 C   0  0  0  0  0  0  0  0  0  0  0  0
   60.4560   30.8460   46.4840 C   0  0  0  0  0  0  0  0  0  0  0  0
   59.5470   29.8840   46.0340 C   0  0  0  0  0  0  0  0  0  0  0  0
   57.1680   31.2650   42.5280 C   0  0  0  0  0  0  0  0  0  0  0  0
   58.1060   32.2870   42.3820 C   0  0  0  0  0  0  0  0  0  0  0  0
   58.4760   33.0310   43.4560 N   0  0  0  0  0  0  0  0  0  0  0  0
   59.7527   35.0747   46.5832 H   0  0  0  0  0  0  0  0  0  0  0  0
   60.2613   34.3053   45.0417 H   0  0  0  0  0  0  0  0  0  0  0  0
   58.9558   35.5391   45.0417 H   0  0  0  0  0  0  0  0  0  0  0  0
   58.5786   33.7192   47.9017 H   0  0  0  0  0  0  0  0  0  0  0  0
   56.9323   34.0359   47.2566 H   0  0  0  0  0  0  0  0  0  0  0  0
   57.5907   32.3647   47.2566 H   0  0  0  0  0  0  0  0  0  0  0  0
   56.5775   31.6170   45.8766 H   0  0  0  0  0  0  0  0  0  0  0  0
   54.6069   30.3271   44.0810 H   0  0  0  0  0  0  0  0  0  0  0  0
   55.6771   29.2370   43.0993 H   0  0  0  0  0  0  0  0  0  0  0  0
   55.8950   29.7170   46.0110 H   0  0  0  0  0  0  0  0  0  0  0  0
   57.1315   27.5093   44.5069 H   0  0  0  0  0  0  0  0  0  0  0  0
   57.9241   29.1301   44.5696 H   0  0  0  0  0  0  0  0  0  0  0  0
   56.9391   28.0620   47.1802 H   0  0  0  0  0  0  0  0  0  0  0  0
   58.3256   27.1760   46.4184 H   0  0  0  0  0  0  0  0  0  0  0  0
   58.2327   28.9270   49.0476 H   0  0  0  0  0  0  0  0  0  0  0  0
   59.8578   30.6467   49.8430 H   0  0  0  0  0  0  0  0  0  0  0  0
   61.2848   31.8751   48.2029 H   0  0  0  0  0  0  0  0  0  0  0  0
   61.0839   31.3887   45.7620 H   0  0  0  0  0  0  0  0  0  0  0  0
   59.4663   29.6671   44.9586 H   0  0  0  0  0  0  0  0  0  0  0  0
   56.8717   30.6560   41.6612 H   0  0  0  0  0  0  0  0  0  0  0  0
   58.5468   32.4906   41.3950 H   0  0  0  0  0  0  0  0  0  0  0  0
  1  2  1  0
  2  3  1  0
  2  4  1  0
  4  5  2  0
  5  6  1  0
  6  7  1  0
  7  8  1  0
  8  9  1  0
  9 10  1  0
 10 11  1  0
 11 12  2  0
 12 13  1  0
 13 14  2  0
 14 15  1  0
 15 16  2  0
  6 17  2  0
 17 18  1  0
 18 19  2  0
 19  4  1  0
 16 11  1  0
  1 20  1  0
  1 21  1  0
  1 22  1  0
  3 23  1  0
  3 24  1  0
  3 25  1  0
  5 26  1  0
  7 27  1  0
  7 28  1  0
  8 29  1  0
  9 30  1  0
  9 31  1  0
 10 32  1  0
 10 33  1  0
 12 34  1  0
 13 35  1  0
 14 36  1  0
 15 37  1  0
 16 38  1  0
 17 39  1  0
 18 40  1  0
M  END
>  <UniqueID>  (93) 
76

>  <SMILES>  (93) 
CN(C)c1cc(CNCCc2ccccc2)ccn1

>  <Energy>  (93) 
36.3023228827046

>  <Genealogy>  (93) 
CN(C)c1cc(CNCCc2ccccc2)ccn1 (3D coordinates assigned)
CN(C)c1cc(CNCCc2ccccc2)ccn1 (optimized conformer: 36.3023228827046 kcal/mol)

>  <smiles>  (93) 
CN(C)c1cc(CNCCc2ccccc2)ccn1

>  <score_type>  (93) 
oracle

>  <origin>  (93) 
adg

>  <m_score__min__energy>  (93) 
-6.21

>  <m_primary>  (93) 
energy

$$$$
93:0
     RDKit          3D

 39 41  0  0  0  0  0  0  0  0999 V2000
   60.9223   29.4381   52.2761 H   0  0  0  0  0  0  0  0  0  0  0  0
   60.6630   29.0350   51.2860 C   0  0  0  0  0  0  0  0  0  0  0  0
   61.0770   27.7520   50.9240 C   0  0  0  0  0  0  0  0  0  0  0  0
   61.6563   27.1420   51.6328 H   0  0  0  0  0  0  0  0  0  0  0  0
   60.7570   27.2400   49.6620 C   0  0  0  0  0  0  0  0  0  0  0  0
   61.0787   26.2252   49.3850 H   0  0  0  0  0  0  0  0  0  0  0  0
   60.0250   28.0180   48.7450 C   0  0  0  0  0  0  0  0  0  0  0  0
   59.6570   27.4970   47.4560 N   0  0  0  0  0  0  0  0  0  0  0  0
   60.0800   27.9340   46.6060 H   0  0  0  0  0  0  0  0  0  0  0  0
   58.7730   26.3810   47.2660 C   0  0  0  0  0  0  0  0  0  0  0  0
   58.5240   25.5890   48.2150 O   0  0  0  0  0  0  0  0  0  0  0  0
   58.1320   26.1570   45.9320 C   0  0  0  0  0  0  0  0  0  0  0  0
   57.4001   25.3395   46.0100 H   0  0  0  0  0  0  0  0  0  0  0  0
   58.9043   25.8903   45.1955 H   0  0  0  0  0  0  0  0  0  0  0  0
   57.4380   27.4060   45.4940 C   0  0  0  0  0  0  0  0  0  0  0  0
   58.2100   28.8150   44.9900 S   0  0  0  0  0  0  0  0  0  0  0  0
   56.7590   29.6740   44.8750 C   0  0  0  0  0  0  0  0  0  0  0  0
   56.6390   30.9140   44.5070 N   0  0  0  0  0  0  0  0  0  0  0  0
   57.5120   31.9650   44.9420 C   0  0  0  0  0  0  0  0  0  0  0  0
   57.7480   32.1230   46.3150 C   0  0  0  0  0  0  0  0  0  0  0  0
   57.2722   31.4401   47.0342 H   0  0  0  0  0  0  0  0  0  0  0  0
   58.5840   33.1430   46.7740 C   0  0  0  0  0  0  0  0  0  0  0  0
   58.7589   33.2657   47.8530 H   0  0  0  0  0  0  0  0  0  0  0  0
   59.1980   34.0070   45.8660 C   0  0  0  0  0  0  0  0  0  0  0  0
   59.8487   34.8155   46.2307 H   0  0  0  0  0  0  0  0  0  0  0  0
   58.9870   33.8460   44.4940 C   0  0  0  0  0  0  0  0  0  0  0  0
   59.4694   34.5329   43.7831 H   0  0  0  0  0  0  0  0  0  0  0  0
   58.1630   32.8130   44.0160 C   0  0  0  0  0  0  0  0  0  0  0  0
   57.9630   32.6590   42.5320 C   0  0  0  0  0  0  0  0  0  0  0  0
   57.1042   31.9977   42.3444 H   0  0  0  0  0  0  0  0  0  0  0  0
   57.7714   33.6450   42.0836 H   0  0  0  0  0  0  0  0  0  0  0  0
   58.8673   32.2217   42.0836 H   0  0  0  0  0  0  0  0  0  0  0  0
   55.6920   28.9180   45.2150 N   0  0  0  0  0  0  0  0  0  0  0  0
   56.0710   27.6610   45.5710 C   0  0  0  0  0  0  0  0  0  0  0  0
   55.1450   26.7140   45.9910 O   0  0  0  0  0  0  0  0  0  0  0  0
   59.5930   29.3000   49.1280 C   0  0  0  0  0  0  0  0  0  0  0  0
   58.8690   30.0630   48.2710 F   0  0  0  0  0  0  0  0  0  0  0  0
   59.9190   29.8070   50.3900 C   0  0  0  0  0  0  0  0  0  0  0  0
   59.5889   30.8160   50.6779 H   0  0  0  0  0  0  0  0  0  0  0  0
  1  2  1  0
  2  3  2  0
  3  4  1  0
  3  5  1  0
  5  6  1  0
  5  7  2  0
  7  8  1  0
  8  9  1  0
  8 10  1  0
 10 11  2  0
 10 12  1  0
 12 13  1  0
 12 14  1  0
 12 15  1  0
 15 16  1  0
 16 17  1  0
 17 18  2  0
 18 19  1  0
 19 20  2  0
 20 21  1  0
 20 22  1  0
 22 23  1  0
 22 24  2  0
 24 25  1  0
 24 26  1  0
 26 27  1  0
 26 28  2  0
 28 29  1  0
 29 30  1  0
 29 31  1  0
 29 32  1  0
 17 33  1  0
 33 34  1  0
 34 35  1  0
  7 36  1  0
 36 37  1  0
 36 38  2  0
 38 39  1  0
 38  2  1  0
 34 15  2  0
 28 19  1  0
M  CHG  2  33  -1  35  -1
M  END
>  <UniqueID>  (94) 
77

>  <SMILES>  (94) 
Cc1ccccc1/N=c1/[n-]c([O-])c(CC(=O)Nc2ccccc2F)s1

>  <Energy>  (94) 
81.43860123904749

>  <Genealogy>  (94) 
Cc1ccccc1N=c1[n-]c([O-])c(CC(=O)Nc2ccccc2F)s1 (protonated)
Cc1ccccc1/N=c1/[n-]c([O-])c(CC(=O)Nc2ccccc2F)s1 (cis-trans isomerization)
Cc1ccccc1/N=c1/[n-]c([O-])c(CC(=O)Nc2ccccc2F)s1 (3D coordinates assigned)
Cc1ccccc1/N=c1/[n-]c([O-])c(CC(=O)Nc2ccccc2F)s1 (optimized conformer: 81.43860123904749 kcal/mol)

>  <smiles>  (94) 
Cc1ccccc1N=c1[nH]c(O)c(CC(=O)Nc2ccccc2F)s1

>  <score_type>  (94) 
oracle

>  <origin>  (94) 
adg

>  <m_score__min__energy>  (94) 
-13.529999999999999

>  <m_primary>  (94) 
energy

$$$$
