0:0
     RDKit          3D

 11 10  0  0  0  0  0  0  0  0999 V2000
   54.7810   26.1800   45.9410 N   0  0  0  0  0  0  0  0  0  0  0  0
   56.1320   26.5850   46.1350 C   0  0  0  0  0  0  0  0  0  0  0  0
   56.8850   25.9180   46.8950 O   0  0  0  0  0  0  0  0  0  0  0  0
   56.6470   27.8230   45.4720 C   0  0  0  0  0  0  0  0  0  0  0  0
   55.5440   28.7180   45.1490 N   0  0  0  0  0  0  0  0  0  0  0  0
   55.6770   29.7780   44.2030 C   0  0  0  0  0  0  0  0  0  0  0  0
   56.2260   30.8570   44.5450 O   0  0  0  0  0  0  0  0  0  0  0  0
   53.9940   26.7150   46.3700 H   0  0  0  0  0  0  0  0  0  0  0  0
   57.3437   28.3358   46.1514 H   0  0  0  0  0  0  0  0  0  0  0  0
   57.1652   27.5430   44.5430 H   0  0  0  0  0  0  0  0  0  0  0  0
   55.3004   29.6520   43.1772 H   0  0  0  0  0  0  0  0  0  0  0  0
  1  2  1  0
  2  3  2  0
  2  4  1  0
  4  5  1  0
  5  6  1  0
  6  7  2  0
  1  8  1  0
  4  9  1  0
  4 10  1  0
  6 11  1  0
M  CHG  2   1  -1   5  -1
M  END
>  <UniqueID>  (1) 
1

>  <SMILES>  (1) 
[NH-]C(=O)C[N-]C=O

>  <Energy>  (1) 
2.3583810511998395

>  <Genealogy>  (1) 
[NH-]C(=O)C[N-]C=O (protonated)
[NH-]C(=O)C[N-]C=O (3D coordinates assigned)
[NH-]C(=O)C[N-]C=O (optimized conformer: 2.3583810511998395 kcal/mol)

>  <smiles>  (1) 
NC(=O)CNC=O

>  <score_type>  (1) 
oracle

>  <origin>  (1) 
adg

>  <m_score__min__energy>  (1) 
-10.529999999999999

>  <m_primary>  (1) 
energy

$$$$
1:0
     RDKit          3D

 70 73  0  0  0  0  0  0  0  0999 V2000
   63.2390   33.1450   47.4550 C   0  0  0  0  0  0  0  0  0  0  0  0
   62.3840   32.0050   47.4250 O   0  0  0  0  0  0  0  0  0  0  0  0
   62.0830   31.2100   48.5410 C   0  0  0  0  0  0  0  0  0  0  0  0
   60.9960   30.3170   48.5600 C   0  0  0  0  0  0  0  0  0  0  0  0
   60.7470   29.5330   49.6920 C   0  0  0  0  0  0  0  0  0  0  0  0
   61.5830   29.6230   50.8150 C   0  0  0  0  0  0  0  0  0  0  0  0
   61.2700   28.8210   52.0500 C   0  0  0  0  0  0  0  0  0  0  0  0
   61.5810   29.6130   53.2330 N   0  0  0  0  0  0  0  0  0  0  0  0
   60.6560   29.8110   54.3060 C   0  0  0  0  0  0  0  0  0  0  0  0
   60.4660   28.9040   55.1610 O   0  0  0  0  0  0  0  0  0  0  0  0
   59.9950   31.1420   54.4720 C   0  0  0  0  0  0  0  0  0  0  0  0
   59.4370   31.5870   53.1460 C   0  0  0  0  0  0  0  0  0  0  0  0
   59.9150   32.7520   52.5220 C   0  0  0  0  0  0  0  0  0  0  0  0
   59.4480   33.1150   51.2550 C   0  0  0  0  0  0  0  0  0  0  0  0
   58.5230   32.3030   50.5810 C   0  0  0  0  0  0  0  0  0  0  0  0
   58.0770   32.6740   49.2660 N   0  0  0  0  0  0  0  0  0  0  0  0
   58.9920   33.0810   48.2330 C   0  0  0  0  0  0  0  0  0  0  0  0
   60.1640   33.4280   48.5490 O   0  0  0  0  0  0  0  0  0  0  0  0
   58.6040   33.1050   46.7980 C   0  0  0  0  0  0  0  0  0  0  0  0
   58.7470   34.2570   46.0010 C   0  0  0  0  0  0  0  0  0  0  0  0
   58.3740   34.2360   44.6540 C   0  0  0  0  0  0  0  0  0  0  0  0
   57.8650   33.0690   44.0810 C   0  0  0  0  0  0  0  0  0  0  0  0
   57.7410   31.9040   44.8500 C   0  0  0  0  0  0  0  0  0  0  0  0
   57.1070   30.4200   44.1280 S   0  0  0  0  0  0  0  0  0  0  0  0
   55.8130   30.0610   44.8040 O   0  0  0  0  0  0  0  0  0  0  0  0
   56.8070   30.6950   42.6810 O   0  0  0  0  0  0  0  0  0  0  0  0
   58.2170   29.0650   44.2170 N   0  0  0  0  0  0  0  0  0  0  0  0
   57.6450   27.7940   44.7010 C   0  0  0  0  0  0  0  0  0  0  0  0
   57.3850   27.7770   46.2160 C   0  0  0  0  0  0  0  0  0  0  0  0
   58.5040   28.4190   47.0530 C   0  0  0  0  0  0  0  0  0  0  0  0
   59.9320   27.9470   46.7280 C   0  0  0  0  0  0  0  0  0  0  0  0
   60.3650   28.2270   45.2800 C   0  0  0  0  0  0  0  0  0  0  0  0
   59.5850   29.3990   44.6510 C   0  0  0  0  0  0  0  0  0  0  0  0
   58.0960   31.9330   46.2070 C   0  0  0  0  0  0  0  0  0  0  0  0
   58.0260   31.1530   51.2160 C   0  0  0  0  0  0  0  0  0  0  0  0
   58.4750   30.8020   52.4900 C   0  0  0  0  0  0  0  0  0  0  0  0
   62.6510   30.5330   50.8050 C   0  0  0  0  0  0  0  0  0  0  0  0
   62.9000   31.3160   49.6730 C   0  0  0  0  0  0  0  0  0  0  0  0
   63.4458   33.4208   48.4996 H   0  0  0  0  0  0  0  0  0  0  0  0
   64.1840   32.9081   46.9443 H   0  0  0  0  0  0  0  0  0  0  0  0
   62.7470   33.9859   46.9443 H   0  0  0  0  0  0  0  0  0  0  0  0
   60.3392   30.2348   47.6814 H   0  0  0  0  0  0  0  0  0  0  0  0
   59.8910   28.8423   49.7014 H   0  0  0  0  0  0  0  0  0  0  0  0
   60.2022   28.5571   52.0553 H   0  0  0  0  0  0  0  0  0  0  0  0
   61.8740   27.9017   52.0540 H   0  0  0  0  0  0  0  0  0  0  0  0
   59.1791   31.0587   55.2051 H   0  0  0  0  0  0  0  0  0  0  0  0
   60.7307   31.8778   54.8289 H   0  0  0  0  0  0  0  0  0  0  0  0
   60.6595   33.3808   53.0323 H   0  0  0  0  0  0  0  0  0  0  0  0
   59.8075   34.0418   50.7842 H   0  0  0  0  0  0  0  0  0  0  0  0
   57.0490   32.7000   49.0990 H   0  0  0  0  0  0  0  0  0  0  0  0
   59.1547   35.1790   46.4410 H   0  0  0  0  0  0  0  0  0  0  0  0
   58.4821   35.1438   44.0422 H   0  0  0  0  0  0  0  0  0  0  0  0
   57.5607   33.0640   43.0239 H   0  0  0  0  0  0  0  0  0  0  0  0
   56.6907   27.6214   44.1819 H   0  0  0  0  0  0  0  0  0  0  0  0
   58.3827   27.0057   44.4901 H   0  0  0  0  0  0  0  0  0  0  0  0
   56.4505   28.3230   46.4121 H   0  0  0  0  0  0  0  0  0  0  0  0
   57.3311   26.7202   46.5164 H   0  0  0  0  0  0  0  0  0  0  0  0
   58.4630   29.5068   46.8951 H   0  0  0  0  0  0  0  0  0  0  0  0
   58.3154   28.1129   48.0926 H   0  0  0  0  0  0  0  0  0  0  0  0
   60.6297   28.4627   47.4042 H   0  0  0  0  0  0  0  0  0  0  0  0
   59.9457   26.8551   46.8604 H   0  0  0  0  0  0  0  0  0  0  0  0
   61.4374   28.4717   45.2727 H   0  0  0  0  0  0  0  0  0  0  0  0
   60.1540   27.3256   44.6859 H   0  0  0  0  0  0  0  0  0  0  0  0
   59.5209   30.2066   45.3951 H   0  0  0  0  0  0  0  0  0  0  0  0
   60.1367   29.6888   43.7446 H   0  0  0  0  0  0  0  0  0  0  0  0
   57.9755   31.0263   46.8181 H   0  0  0  0  0  0  0  0  0  0  0  0
   57.2793   30.5260   50.7068 H   0  0  0  0  0  0  0  0  0  0  0  0
   58.0728   29.9049   52.9833 H   0  0  0  0  0  0  0  0  0  0  0  0
   63.2952   30.6311   51.6912 H   0  0  0  0  0  0  0  0  0  0  0  0
   63.7446   32.0208   49.6722 H   0  0  0  0  0  0  0  0  0  0  0  0
  1  2  1  0
  2  3  1  0
  3  4  2  0
  4  5  1  0
  5  6  2  0
  6  7  1  0
  7  8  1  0
  8  9  1  0
  9 10  2  0
  9 11  1  0
 11 12  1  0
 12 13  2  0
 13 14  1  0
 14 15  2  0
 15 16  1  0
 16 17  1  0
 17 18  2  0
 17 19  1  0
 19 20  2  0
 20 21  1  0
 21 22  2  0
 22 23  1  0
 23 24  1  0
 24 25  2  0
 24 26  2  0
 24 27  1  0
 27 28  1  0
 28 29  1  0
 29 30  1  0
 30 31  1  0
 31 32  1  0
 32 33  1  0
 23 34  2  0
 15 35  1  0
 35 36  2  0
  6 37  1  0
 37 38  2  0
 38  3  1  0
 36 12  1  0
 34 19  1  0
 33 27  1  0
  1 39  1  0
  1 40  1  0
  1 41  1  0
  4 42  1  0
  5 43  1  0
  7 44  1  0
  7 45  1  0
 11 46  1  0
 11 47  1  0
 13 48  1  0
 14 49  1  0
 16 50  1  0
 20 51  1  0
 21 52  1  0
 22 53  1  0
 28 54  1  0
 28 55  1  0
 29 56  1  0
 29 57  1  0
 30 58  1  0
 30 59  1  0
 31 60  1  0
 31 61  1  0
 32 62  1  0
 32 63  1  0
 33 64  1  0
 33 65  1  0
 34 66  1  0
 35 67  1  0
 36 68  1  0
 37 69  1  0
 38 70  1  0
M  CHG  1   8  -1
M  END
>  <UniqueID>  (2) 
2

>  <SMILES>  (2) 
COc1ccc(C[N-]C(=O)Cc2ccc(NC(=O)c3cccc(S(=O)(=O)N4CCCCCC4)c3)cc2)cc1

>  <Energy>  (2) 
81.86703011003567

>  <Genealogy>  (2) 
COc1ccc(C[N-]C(=O)Cc2ccc(NC(=O)c3cccc(S(=O)(=O)N4CCCCCC4)c3)cc2)cc1 (protonated)
COc1ccc(C[N-]C(=O)Cc2ccc(NC(=O)c3cccc(S(=O)(=O)N4CCCCCC4)c3)cc2)cc1 (3D coordinates assigned)
COc1ccc(C[N-]C(=O)Cc2ccc(NC(=O)c3cccc(S(=O)(=O)N4CCCCCC4)c3)cc2)cc1 (nonaromatic ring conformer: 81.86703011003567 kcal/mol)

>  <smiles>  (2) 
COc1ccc(CNC(=O)Cc2ccc(NC(=O)c3cccc(S(=O)(=O)N4CCCCCC4)c3)cc2)cc1

>  <score_type>  (2) 
oracle

>  <origin>  (2) 
adg

>  <m_score__min__energy>  (2) 
-9.0999999999999996

>  <m_primary>  (2) 
energy

$$$$
2:0
     RDKit          3D

 42 44  0  0  0  0  0  0  0  0999 V2000
   55.2070   28.7190   45.6370 H   0  0  0  0  0  0  0  0  0  0  0  0
   55.1770   29.3230   44.7840 N   0  0  0  0  0  0  0  0  0  0  0  0
   56.8130   29.7130   44.3850 S   0  0  0  0  0  0  0  0  0  0  0  0
   57.4540   28.5490   43.6860 O   0  0  0  0  0  0  0  0  0  0  0  0
   56.8150   30.9060   43.4710 O   0  0  0  0  0  0  0  0  0  0  0  0
   57.7070   30.0760   45.8570 C   0  0  0  0  0  0  0  0  0  0  0  0
   58.0870   29.0480   46.7320 C   0  0  0  0  0  0  0  0  0  0  0  0
   57.8318   28.0044   46.4959 H   0  0  0  0  0  0  0  0  0  0  0  0
   58.7890   29.3460   47.9030 C   0  0  0  0  0  0  0  0  0  0  0  0
   59.0863   28.5338   48.5827 H   0  0  0  0  0  0  0  0  0  0  0  0
   59.1170   30.6710   48.2180 C   0  0  0  0  0  0  0  0  0  0  0  0
   59.8400   30.9290   49.4290 N   0  0  0  0  0  0  0  0  0  0  0  0
   59.4080   32.1170   50.6170 S   0  0  0  0  0  0  0  0  0  0  0  0
   60.6440   32.5340   51.3640 O   0  0  0  0  0  0  0  0  0  0  0  0
   58.8250   33.3150   49.9240 O   0  0  0  0  0  0  0  0  0  0  0  0
   58.2060   31.4580   51.7240 C   0  0  0  0  0  0  0  0  0  0  0  0
   58.5580   31.1420   53.0410 C   0  0  0  0  0  0  0  0  0  0  0  0
   59.5865   31.3143   53.3910 H   0  0  0  0  0  0  0  0  0  0  0  0
   57.6050   30.6080   53.9120 C   0  0  0  0  0  0  0  0  0  0  0  0
   57.8864   30.3539   54.9446 H   0  0  0  0  0  0  0  0  0  0  0  0
   56.2950   30.3960   53.4740 C   0  0  0  0  0  0  0  0  0  0  0  0
   55.5510   29.9670   54.1613 H   0  0  0  0  0  0  0  0  0  0  0  0
   55.9230   30.7280   52.1600 C   0  0  0  0  0  0  0  0  0  0  0  0
   54.5370   30.5020   51.6860 C   0  0  0  0  0  0  0  0  0  0  0  0
   54.1900   29.3440   51.3340 O   0  0  0  0  0  0  0  0  0  0  0  0
   53.5530   31.5490   51.6630 N   0  0  0  0  0  0  0  0  0  0  0  0
   52.4670   31.6000   52.3820 C   0  0  0  0  0  0  0  0  0  0  0  0
   52.4030   30.9920   53.6020 N   0  0  0  0  0  0  0  0  0  0  0  0
   51.2850   31.0420   54.3750 C   0  0  0  0  0  0  0  0  0  0  0  0
   51.2673   30.5332   55.3501 H   0  0  0  0  0  0  0  0  0  0  0  0
   50.1600   31.7390   53.9310 C   0  0  0  0  0  0  0  0  0  0  0  0
   49.2515   31.7810   54.5498 H   0  0  0  0  0  0  0  0  0  0  0  0
   50.2010   32.3820   52.6930 C   0  0  0  0  0  0  0  0  0  0  0  0
   49.3231   32.9380   52.3323 H   0  0  0  0  0  0  0  0  0  0  0  0
   51.3580   32.3190   51.9120 C   0  0  0  0  0  0  0  0  0  0  0  0
   51.3990   32.9640   50.6800 O   0  0  0  0  0  0  0  0  0  0  0  0
   56.8920   31.2470   51.2850 C   0  0  0  0  0  0  0  0  0  0  0  0
   56.6173   31.4895   50.2478 H   0  0  0  0  0  0  0  0  0  0  0  0
   58.7290   31.7010   47.3430 C   0  0  0  0  0  0  0  0  0  0  0  0
   58.9787   32.7454   47.5814 H   0  0  0  0  0  0  0  0  0  0  0  0
   58.0270   31.4030   46.1710 C   0  0  0  0  0  0  0  0  0  0  0  0
   57.7247   32.2144   45.4925 H   0  0  0  0  0  0  0  0  0  0  0  0
  1  2  1  0
  2  3  1  0
  3  4  2  0
  3  5  2  0
  3  6  1  0
  6  7  2  0
  7  8  1  0
  7  9  1  0
  9 10  1  0
  9 11  2  0
 11 12  1  0
 12 13  1  0
 13 14  2  0
 13 15  2  0
 13 16  1  0
 16 17  2  0
 17 18  1  0
 17 19  1  0
 19 20  1  0
 19 21  2  0
 21 22  1  0
 21 23  1  0
 23 24  1  0
 24 25  2  0
 24 26  1  0
 26 27  2  0
 27 28  1  0
 28 29  1  0
 29 30  1  0
 29 31  2  0
 31 32  1  0
 31 33  1  0
 33 34  1  0
 33 35  2  0
 35 36  1  0
 23 37  2  0
 37 38  1  0
 11 39  1  0
 39 40  1  0
 39 41  2  0
 41 42  1  0
 41  6  1  0
 37 16  1  0
 35 27  1  0
M  CHG  4   2  -1  12  -1  28  -1  36  -1
M  END
>  <UniqueID>  (3) 
3

>  <SMILES>  (3) 
[NH-]S(=O)(=O)c1ccc([N-]S(=O)(=O)c2cccc(C(=O)/N=c3\[n-]cccc3[O-])c2)cc1

>  <Energy>  (3) 
56.696296661117174

>  <Genealogy>  (3) 
[NH-]S(=O)(=O)c1ccc([N-]S(=O)(=O)c2cccc(C(=O)N=c3[n-]cccc3[O-])c2)cc1 (protonated)
[NH-]S(=O)(=O)c1ccc([N-]S(=O)(=O)c2cccc(C(=O)/N=c3\[n-]cccc3[O-])c2)cc1 (cis-trans isomerization)
[NH-]S(=O)(=O)c1ccc([N-]S(=O)(=O)c2cccc(C(=O)/N=c3\[n-]cccc3[O-])c2)cc1 (3D coordinates assigned)
[NH-]S(=O)(=O)c1ccc([N-]S(=O)(=O)c2cccc(C(=O)/N=c3\[n-]cccc3[O-])c2)cc1 (optimized conformer: 56.696296661117174 kcal/mol)

>  <smiles>  (3) 
NS(=O)(=O)c1ccc(NS(=O)(=O)c2cccc(C(=O)N=c3[nH]cccc3O)c2)cc1

>  <score_type>  (3) 
oracle

>  <origin>  (3) 
adg

>  <m_score__min__energy>  (3) 
-16.629999999999999

>  <m_primary>  (3) 
energy

$$$$
3:0
     RDKit          3D

 46 47  0  0  0  0  0  0  0  0999 V2000
   62.3480   33.4180   46.7930 C   0  0  0  0  0  0  0  0  0  0  0  0
   61.2100   34.1120   47.2960 O   0  0  0  0  0  0  0  0  0  0  0  0
   59.9170   34.0330   46.7490 C   0  0  0  0  0  0  0  0  0  0  0  0
   59.6710   34.3750   45.4020 C   0  0  0  0  0  0  0  0  0  0  0  0
   58.3910   34.2460   44.8580 C   0  0  0  0  0  0  0  0  0  0  0  0
   57.3420   33.7830   45.6470 C   0  0  0  0  0  0  0  0  0  0  0  0
   57.5650   33.4500   46.9850 C   0  0  0  0  0  0  0  0  0  0  0  0
   58.8450   33.5800   47.5560 C   0  0  0  0  0  0  0  0  0  0  0  0
   59.0360   33.2410   48.9900 C   0  0  0  0  0  0  0  0  0  0  0  0
   59.9820   33.7550   49.6450 O   0  0  0  0  0  0  0  0  0  0  0  0
   58.1380   32.3340   49.6430 N   0  0  0  0  0  0  0  0  0  0  0  0
   58.2070   32.0140   51.0630 C   0  0  0  0  0  0  0  0  0  0  0  0
   58.6220   30.5910   51.2370 C   0  0  0  0  0  0  0  0  0  0  0  0
   57.7610   29.6750   51.1530 O   0  0  0  0  0  0  0  0  0  0  0  0
   59.9770   30.2880   51.4230 O   0  0  0  0  0  0  0  0  0  0  0  0
   61.0280   30.9550   50.7280 C   0  0  0  0  0  0  0  0  0  0  0  0
   60.9610   30.6130   49.2710 C   0  0  0  0  0  0  0  0  0  0  0  0
   61.9840   30.7800   48.5540 O   0  0  0  0  0  0  0  0  0  0  0  0
   59.7160   30.2070   48.6810 N   0  0  0  0  0  0  0  0  0  0  0  0
   59.5560   29.8720   47.2930 C   0  0  0  0  0  0  0  0  0  0  0  0
   60.6540   29.3770   46.5770 C   0  0  0  0  0  0  0  0  0  0  0  0
   60.5250   29.0460   45.2260 C   0  0  0  0  0  0  0  0  0  0  0  0
   59.3050   29.2240   44.5730 C   0  0  0  0  0  0  0  0  0  0  0  0
   58.2050   29.7440   45.2690 C   0  0  0  0  0  0  0  0  0  0  0  0
   56.6720   29.9710   44.4300 S   0  0  0  0  0  0  0  0  0  0  0  0
   55.5190   28.8230   45.0130 N   0  0  0  0  0  0  0  0  0  0  0  0
   56.1430   31.3570   44.6710 O   0  0  0  0  0  0  0  0  0  0  0  0
   56.8760   29.7750   42.9540 O   0  0  0  0  0  0  0  0  0  0  0  0
   58.3350   30.0760   46.6250 C   0  0  0  0  0  0  0  0  0  0  0  0
   62.9535   33.0487   47.6338 H   0  0  0  0  0  0  0  0  0  0  0  0
   62.0170   32.5679   46.1784 H   0  0  0  0  0  0  0  0  0  0  0  0
   62.9522   34.1015   46.1784 H   0  0  0  0  0  0  0  0  0  0  0  0
   60.4948   34.7465   44.7749 H   0  0  0  0  0  0  0  0  0  0  0  0
   58.2119   34.5105   43.8054 H   0  0  0  0  0  0  0  0  0  0  0  0
   56.3353   33.6791   45.2159 H   0  0  0  0  0  0  0  0  0  0  0  0
   56.7305   33.0818   47.5998 H   0  0  0  0  0  0  0  0  0  0  0  0
   58.9414   32.6716   51.5510 H   0  0  0  0  0  0  0  0  0  0  0  0
   57.2174   32.1639   51.5193 H   0  0  0  0  0  0  0  0  0  0  0  0
   60.9187   32.0422   50.8546 H   0  0  0  0  0  0  0  0  0  0  0  0
   61.9979   30.6334   51.1352 H   0  0  0  0  0  0  0  0  0  0  0  0
   58.8520   30.2800   49.2630 H   0  0  0  0  0  0  0  0  0  0  0  0
   61.6230   29.2483   47.0815 H   0  0  0  0  0  0  0  0  0  0  0  0
   61.3881   28.6437   44.6753 H   0  0  0  0  0  0  0  0  0  0  0  0
   59.2062   28.9560   43.5107 H   0  0  0  0  0  0  0  0  0  0  0  0
   54.6470   29.3520   45.2320 H   0  0  0  0  0  0  0  0  0  0  0  0
   57.4775   30.4983   47.1694 H   0  0  0  0  0  0  0  0  0  0  0  0
  1  2  1  0
  2  3  1  0
  3  4  2  0
  4  5  1  0
  5  6  2  0
  6  7  1  0
  7  8  2  0
  8  9  1  0
  9 10  2  0
  9 11  1  0
 11 12  1  0
 12 13  1  0
 13 14  2  0
 13 15  1  0
 15 16  1  0
 16 17  1  0
 17 18  2  0
 17 19  1  0
 19 20  1  0
 20 21  2  0
 21 22  1  0
 22 23  2  0
 23 24  1  0
 24 25  1  0
 25 26  1  0
 25 27  2  0
 25 28  2  0
 24 29  2  0
  8  3  1  0
 29 20  1  0
  1 30  1  0
  1 31  1  0
  1 32  1  0
  4 33  1  0
  5 34  1  0
  6 35  1  0
  7 36  1  0
 12 37  1  0
 12 38  1  0
 16 39  1  0
 16 40  1  0
 19 41  1  0
 21 42  1  0
 22 43  1  0
 23 44  1  0
 26 45  1  0
 29 46  1  0
M  CHG  2  11  -1  26  -1
M  END
>  <UniqueID>  (4) 
4

>  <SMILES>  (4) 
COc1ccccc1C(=O)[N-]CC(=O)OCC(=O)Nc1cccc(S([NH-])(=O)=O)c1

>  <Energy>  (4) 
40.30997818957609

>  <Genealogy>  (4) 
COc1ccccc1C(=O)[N-]CC(=O)OCC(=O)Nc1cccc(S([NH-])(=O)=O)c1 (protonated)
COc1ccccc1C(=O)[N-]CC(=O)OCC(=O)Nc1cccc(S([NH-])(=O)=O)c1 (3D coordinates assigned)
COc1ccccc1C(=O)[N-]CC(=O)OCC(=O)Nc1cccc(S([NH-])(=O)=O)c1 (optimized conformer: 40.30997818957609 kcal/mol)

>  <smiles>  (4) 
COc1ccccc1C(=O)NCC(=O)OCC(=O)Nc1cccc(S(N)(=O)=O)c1

>  <score_type>  (4) 
oracle

>  <origin>  (4) 
adg

>  <m_score__min__energy>  (4) 
-11.67

>  <m_primary>  (4) 
energy

$$$$
4:0
     RDKit          3D

 26 27  0  0  0  0  0  0  0  0999 V2000
   57.6660   20.5680   45.1070 N   0  0  0  0  0  0  0  0  0  0  0  0
   57.0910   21.7620   45.6370 C   0  0  0  0  0  0  0  0  0  0  0  0
   57.3880   22.1240   46.8070 O   0  0  0  0  0  0  0  0  0  0  0  0
   56.1950   22.6030   44.8240 C   0  0  0  0  0  0  0  0  0  0  0  0
   55.4580   23.7230   45.1820 C   0  0  0  0  0  0  0  0  0  0  0  0
   55.5160   24.4730   46.4010 N   0  0  0  0  0  0  0  0  0  0  0  0
   56.2400   25.6950   46.5990 C   0  0  0  0  0  0  0  0  0  0  0  0
   57.1710   25.7220   47.4440 O   0  0  0  0  0  0  0  0  0  0  0  0
   55.9470   26.8830   45.8500 N   0  0  0  0  0  0  0  0  0  0  0  0
   56.9040   27.8450   45.3860 C   0  0  0  0  0  0  0  0  0  0  0  0
   58.2840   27.5670   45.3870 C   0  0  0  0  0  0  0  0  0  0  0  0
   59.1940   28.5240   44.9260 C   0  0  0  0  0  0  0  0  0  0  0  0
   58.7340   29.7530   44.4460 C   0  0  0  0  0  0  0  0  0  0  0  0
   57.3630   30.0240   44.4180 C   0  0  0  0  0  0  0  0  0  0  0  0
   56.4500   29.0700   44.8780 C   0  0  0  0  0  0  0  0  0  0  0  0
   55.1220   29.3450   44.8470 F   0  0  0  0  0  0  0  0  0  0  0  0
   54.6830   24.0800   44.1360 N   0  0  0  0  0  0  0  0  0  0  0  0
   54.9550   23.2230   43.1920 O   0  0  0  0  0  0  0  0  0  0  0  0
   55.8460   22.3500   43.5530 N   0  0  0  0  0  0  0  0  0  0  0  0
   56.2700   21.2980   42.7740 O   0  0  0  0  0  0  0  0  0  0  0  0
   58.2600   19.9580   45.7110 H   0  0  0  0  0  0  0  0  0  0  0  0
   57.5670   20.3270   44.0960 H   0  0  0  0  0  0  0  0  0  0  0  0
   58.6476   26.5948   45.7512 H   0  0  0  0  0  0  0  0  0  0  0  0
   60.2727   28.3089   44.9413 H   0  0  0  0  0  0  0  0  0  0  0  0
   59.4510   30.5075   44.0901 H   0  0  0  0  0  0  0  0  0  0  0  0
   57.0018   30.9892   44.0335 H   0  0  0  0  0  0  0  0  0  0  0  0
  1  2  1  0
  2  3  2  0
  2  4  1  0
  4  5  1  0
  5  6  1  0
  6  7  1  0
  7  8  2  0
  7  9  1  0
  9 10  1  0
 10 11  2  0
 11 12  1  0
 12 13  2  0
 13 14  1  0
 14 15  2  0
 15 16  1  0
  5 17  2  0
 17 18  1  0
 18 19  1  0
 19 20  1  0
 19  4  2  0
 15 10  1  0
  1 21  1  0
  1 22  1  0
 11 23  1  0
 12 24  1  0
 13 25  1  0
 14 26  1  0
M  CHG  4   6  -1   9  -1  19   1  20  -1
M  END
>  <UniqueID>  (5) 
5

>  <SMILES>  (5) 
NC(=O)c1c([N-]C(=O)[N-]c2ccccc2F)no[n+]1[O-]

>  <Energy>  (5) 
74.44038267822044

>  <Genealogy>  (5) 
NC(=O)c1c([N-]C(=O)[N-]c2ccccc2F)no[n+]1[O-] (protonated)
NC(=O)c1c([N-]C(=O)[N-]c2ccccc2F)no[n+]1[O-] (3D coordinates assigned)
NC(=O)c1c([N-]C(=O)[N-]c2ccccc2F)no[n+]1[O-] (optimized conformer: 74.44038267822044 kcal/mol)

>  <smiles>  (5) 
NC(=O)c1c(NC(=O)Nc2ccccc2F)no[n+]1[O-]

>  <score_type>  (5) 
oracle

>  <origin>  (5) 
adg

>  <m_score__min__energy>  (5) 
-9.6300000000000008

>  <m_primary>  (5) 
energy

$$$$
5:0
     RDKit          3D

 42 44  0  0  0  0  0  0  0  0999 V2000
   56.6669   31.2514   43.9400 H   0  0  0  0  0  0  0  0  0  0  0  0
   57.4040   31.7470   44.5890 C   0  0  0  0  0  0  0  0  0  0  0  0
   57.4190   33.1400   44.6870 C   0  0  0  0  0  0  0  0  0  0  0  0
   56.6907   33.7410   44.1227 H   0  0  0  0  0  0  0  0  0  0  0  0
   58.3620   33.7670   45.5040 C   0  0  0  0  0  0  0  0  0  0  0  0
   58.3811   34.8646   45.5745 H   0  0  0  0  0  0  0  0  0  0  0  0
   59.2910   33.0000   46.2400 C   0  0  0  0  0  0  0  0  0  0  0  0
   60.2690   33.6440   47.1410 C   0  0  0  0  0  0  0  0  0  0  0  0
   61.4840   33.2880   47.0930 O   0  0  0  0  0  0  0  0  0  0  0  0
   59.8550   34.7360   48.0890 C   0  0  0  0  0  0  0  0  0  0  0  0
   60.4130   35.6540   47.8526 H   0  0  0  0  0  0  0  0  0  0  0  0
   58.7753   34.9164   47.9813 H   0  0  0  0  0  0  0  0  0  0  0  0
   60.1330   34.3470   49.4380 O   0  0  0  0  0  0  0  0  0  0  0  0
   59.3340   33.4740   50.1910 C   0  0  0  0  0  0  0  0  0  0  0  0
   59.0060   33.8290   51.5030 C   0  0  0  0  0  0  0  0  0  0  0  0
   59.3593   34.7867   51.9128 H   0  0  0  0  0  0  0  0  0  0  0  0
   58.2350   32.9800   52.2970 C   0  0  0  0  0  0  0  0  0  0  0  0
   58.0119   33.2593   53.3373 H   0  0  0  0  0  0  0  0  0  0  0  0
   57.7410   31.7710   51.7790 C   0  0  0  0  0  0  0  0  0  0  0  0
   56.8920   30.8850   52.6090 C   0  0  0  0  0  0  0  0  0  0  0  0
   57.0440   30.8660   53.8640 O   0  0  0  0  0  0  0  0  0  0  0  0
   55.9490   30.0000   51.9780 N   0  0  0  0  0  0  0  0  0  0  0  0
   54.7730   29.7270   52.4020 N   0  0  0  0  0  0  0  0  0  0  0  0
   53.6270   30.5850   52.3010 C   0  0  0  0  0  0  0  0  0  0  0  0
   53.3150   31.2360   51.0940 C   0  0  0  0  0  0  0  0  0  0  0  0
   53.9789   31.1274   50.2237 H   0  0  0  0  0  0  0  0  0  0  0  0
   52.1620   32.0210   50.9990 C   0  0  0  0  0  0  0  0  0  0  0  0
   51.9258   32.5385   50.0575 H   0  0  0  0  0  0  0  0  0  0  0  0
   51.3090   32.1490   52.0990 C   0  0  0  0  0  0  0  0  0  0  0  0
   50.1630   32.9280   52.0050 O   0  0  0  0  0  0  0  0  0  0  0  0
   51.6040   31.4820   53.2930 C   0  0  0  0  0  0  0  0  0  0  0  0
   50.9305   31.5791   54.1573 H   0  0  0  0  0  0  0  0  0  0  0  0
   52.7540   30.6920   53.3890 C   0  0  0  0  0  0  0  0  0  0  0  0
   52.9728   30.1532   54.3227 H   0  0  0  0  0  0  0  0  0  0  0  0
   58.0610   31.4190   50.4570 C   0  0  0  0  0  0  0  0  0  0  0  0
   57.6807   30.4765   50.0361 H   0  0  0  0  0  0  0  0  0  0  0  0
   58.8580   32.2560   49.6730 C   0  0  0  0  0  0  0  0  0  0  0  0
   59.1149   31.9611   48.6449 H   0  0  0  0  0  0  0  0  0  0  0  0
   59.2570   31.5980   46.1470 C   0  0  0  0  0  0  0  0  0  0  0  0
   59.9646   30.9901   46.7298 H   0  0  0  0  0  0  0  0  0  0  0  0
   58.3240   30.9780   45.3140 C   0  0  0  0  0  0  0  0  0  0  0  0
   58.3110   29.8816   45.2264 H   0  0  0  0  0  0  0  0  0  0  0  0
  1  2  1  0
  2  3  2  0
  3  4  1  0
  3  5  1  0
  5  6  1  0
  5  7  2  0
  7  8  1  0
  8  9  2  0
  8 10  1  0
 10 11  1  0
 10 12  1  0
 10 13  1  0
 13 14  1  0
 14 15  2  0
 15 16  1  0
 15 17  1  0
 17 18  1  0
 17 19  2  0
 19 20  1  0
 20 21  2  0
 20 22  1  0
 22 23  2  0
 23 24  1  0
 24 25  2  0
 25 26  1  0
 25 27  1  0
 27 28  1  0
 27 29  2  0
 29 30  1  0
 29 31  1  0
 31 32  1  0
 31 33  2  0
 33 34  1  0
 19 35  1  0
 35 36  1  0
 35 37  2  0
 37 38  1  0
  7 39  1  0
 39 40  1  0
 39 41  2  0
 41 42  1  0
 41  2  1  0
 37 14  1  0
 33 24  1  0
M  CHG  1  30  -1
M  END
>  <UniqueID>  (6) 
6

>  <SMILES>  (6) 
O=C(COc1ccc(C(=O)/N=N\c2ccc([O-])cc2)cc1)c1ccccc1

>  <Energy>  (6) 
62.34160792943228

>  <Genealogy>  (6) 
O=C(COc1ccc(C(=O)N=Nc2ccc([O-])cc2)cc1)c1ccccc1 (protonated)
O=C(COc1ccc(C(=O)/N=N\c2ccc([O-])cc2)cc1)c1ccccc1 (cis-trans isomerization)
O=C(COc1ccc(C(=O)/N=N\c2ccc([O-])cc2)cc1)c1ccccc1 (3D coordinates assigned)
O=C(COc1ccc(C(=O)/N=N\c2ccc([O-])cc2)cc1)c1ccccc1 (optimized conformer: 62.34160792943228 kcal/mol)

>  <smiles>  (6) 
O=C(COc1ccc(C(=O)N=Nc2ccc(O)cc2)cc1)c1ccccc1

>  <score_type>  (6) 
oracle

>  <origin>  (6) 
adg

>  <m_score__min__energy>  (6) 
-12.220000000000001

>  <m_primary>  (6) 
energy

$$$$
6:0
     RDKit          3D

 54 57  0  0  0  0  0  0  0  0999 V2000
   59.1310   31.5400   47.1420 N   0  0  0  0  0  0  0  0  0  0  0  0
   58.9820   32.5490   46.1280 C   0  0  0  0  0  0  0  0  0  0  0  0
   58.5060   32.1760   44.8510 C   0  0  0  0  0  0  0  0  0  0  0  0
   58.1110   30.8270   44.5480 N   0  0  0  0  0  0  0  0  0  0  0  0
   56.7390   30.4160   44.4510 C   0  0  0  0  0  0  0  0  0  0  0  0
   55.8130   31.2690   44.5100 O   0  0  0  0  0  0  0  0  0  0  0  0
   56.4000   28.9670   44.2770 C   0  0  0  0  0  0  0  0  0  0  0  0
   56.9980   28.1720   45.3460 N   0  0  0  0  0  0  0  0  0  0  0  0
   56.4350   27.0530   46.0040 C   0  0  0  0  0  0  0  0  0  0  0  0
   55.2340   26.6990   45.8730 O   0  0  0  0  0  0  0  0  0  0  0  0
   57.3610   26.3550   46.8280 N   0  0  0  0  0  0  0  0  0  0  0  0
   58.6560   27.0380   46.7210 C   0  0  0  0  0  0  0  0  0  0  0  0
   59.7140   26.0490   46.1610 C   0  0  0  0  0  0  0  0  0  0  0  0
   61.1260   26.4060   46.6350 C   0  0  0  0  0  0  0  0  0  0  0  0
   61.2440   26.3460   48.1730 C   0  0  0  0  0  0  0  0  0  0  0  0
   59.9220   26.6560   48.9020 C   0  0  0  0  0  0  0  0  0  0  0  0
   59.0520   27.6310   48.1010 C   0  0  0  0  0  0  0  0  0  0  0  0
   58.3630   28.1490   45.7390 C   0  0  0  0  0  0  0  0  0  0  0  0
   59.2250   28.9530   45.2900 O   0  0  0  0  0  0  0  0  0  0  0  0
   58.4530   33.1490   43.8510 C   0  0  0  0  0  0  0  0  0  0  0  0
   58.0490   32.8580   42.6940 O   0  0  0  0  0  0  0  0  0  0  0  0
   58.8230   34.4180   44.1250 N   0  0  0  0  0  0  0  0  0  0  0  0
   59.2620   34.7830   45.3530 C   0  0  0  0  0  0  0  0  0  0  0  0
   59.5980   35.9840   45.5380 O   0  0  0  0  0  0  0  0  0  0  0  0
   59.3490   33.8590   46.3680 N   0  0  0  0  0  0  0  0  0  0  0  0
   59.8980   34.2650   47.6830 C   0  0  0  0  0  0  0  0  0  0  0  0
   61.3470   33.8640   47.8100 C   0  0  0  0  0  0  0  0  0  0  0  0
   62.1580   33.7690   46.6640 C   0  0  0  0  0  0  0  0  0  0  0  0
   63.5000   33.3960   46.7790 C   0  0  0  0  0  0  0  0  0  0  0  0
   64.0450   33.1180   48.0360 C   0  0  0  0  0  0  0  0  0  0  0  0
   63.2510   33.2180   49.1810 C   0  0  0  0  0  0  0  0  0  0  0  0
   61.9090   33.5980   49.0720 C   0  0  0  0  0  0  0  0  0  0  0  0
   59.1990   30.5230   46.9220 H   0  0  0  0  0  0  0  0  0  0  0  0
   59.2050   31.7960   48.1500 H   0  0  0  0  0  0  0  0  0  0  0  0
   58.8500   30.1530   44.2410 H   0  0  0  0  0  0  0  0  0  0  0  0
   55.3071   28.8449   44.3026 H   0  0  0  0  0  0  0  0  0  0  0  0
   56.7966   28.6214   43.3109 H   0  0  0  0  0  0  0  0  0  0  0  0
   59.4689   25.0327   46.5030 H   0  0  0  0  0  0  0  0  0  0  0  0
   59.6942   26.1094   45.0628 H   0  0  0  0  0  0  0  0  0  0  0  0
   61.8404   25.6948   46.1946 H   0  0  0  0  0  0  0  0  0  0  0  0
   61.3456   27.4350   46.3140 H   0  0  0  0  0  0  0  0  0  0  0  0
   61.5705   25.3350   48.4583 H   0  0  0  0  0  0  0  0  0  0  0  0
   61.9683   27.1176   48.4730 H   0  0  0  0  0  0  0  0  0  0  0  0
   59.3660   25.7181   49.0475 H   0  0  0  0  0  0  0  0  0  0  0  0
   60.1629   27.1234   49.8682 H   0  0  0  0  0  0  0  0  0  0  0  0
   58.1376   27.8470   48.6730 H   0  0  0  0  0  0  0  0  0  0  0  0
   59.6319   28.5497   47.9286 H   0  0  0  0  0  0  0  0  0  0  0  0
   59.8165   35.3572   47.7853 H   0  0  0  0  0  0  0  0  0  0  0  0
   59.3237   33.7604   48.4739 H   0  0  0  0  0  0  0  0  0  0  0  0
   61.7339   33.9893   45.6733 H   0  0  0  0  0  0  0  0  0  0  0  0
   64.1283   33.3211   45.8792 H   0  0  0  0  0  0  0  0  0  0  0  0
   65.1003   32.8202   48.1236 H   0  0  0  0  0  0  0  0  0  0  0  0
   63.6813   32.9978   50.1691 H   0  0  0  0  0  0  0  0  0  0  0  0
   61.2905   33.6892   49.9771 H   0  0  0  0  0  0  0  0  0  0  0  0
  1  2  1  0
  2  3  2  0
  3  4  1  0
  4  5  1  0
  5  6  2  0
  5  7  1  0
  7  8  1  0
  8  9  1  0
  9 10  2  0
  9 11  1  0
 11 12  1  0
 12 13  1  0
 13 14  1  0
 14 15  1  0
 15 16  1  0
 16 17  1  0
 12 18  1  0
 18 19  2  0
  3 20  1  0
 20 21  2  0
 20 22  1  0
 22 23  1  0
 23 24  2  0
 23 25  1  0
 25 26  1  0
 26 27  1  0
 27 28  2  0
 28 29  1  0
 29 30  2  0
 30 31  1  0
 31 32  2  0
 25  2  1  0
 32 27  1  0
 18  8  1  0
 17 12  1  0
  1 33  1  0
  1 34  1  0
  4 35  1  0
  7 36  1  0
  7 37  1  0
 13 38  1  0
 13 39  1  0
 14 40  1  0
 14 41  1  0
 15 42  1  0
 15 43  1  0
 16 44  1  0
 16 45  1  0
 17 46  1  0
 17 47  1  0
 26 48  1  0
 26 49  1  0
 28 50  1  0
 29 51  1  0
 30 52  1  0
 31 53  1  0
 32 54  1  0
M  CHG  2  11  -1  22  -1
M  END
>  <UniqueID>  (7) 
7

>  <SMILES>  (7) 
Nc1c(NC(=O)CN2C(=O)[N-]C3(CCCCC3)C2=O)c(=O)[n-]c(=O)n1Cc1ccccc1

>  <Energy>  (7) 
88.30237924167561

>  <Genealogy>  (7) 
Nc1c(NC(=O)CN2C(=O)[N-]C3(CCCCC3)C2=O)c(=O)[n-]c(=O)n1Cc1ccccc1 (protonated)
Nc1c(NC(=O)CN2C(=O)[N-]C3(CCCCC3)C2=O)c(=O)[n-]c(=O)n1Cc1ccccc1 (3D coordinates assigned)
Nc1c(NC(=O)CN2C(=O)[N-]C3(CCCCC3)C2=O)c(=O)[n-]c(=O)n1Cc1ccccc1 (nonaromatic ring conformer: 88.30237924167561 kcal/mol)

>  <smiles>  (7) 
Nc1c(NC(=O)CN2C(=O)NC3(CCCCC3)C2=O)c(=O)[nH]c(=O)n1Cc1ccccc1

>  <score_type>  (7) 
oracle

>  <origin>  (7) 
adg

>  <m_score__min__energy>  (7) 
-11.48

>  <m_primary>  (7) 
energy

$$$$
7:0
     RDKit          3D

 46 48  0  0  0  0  0  0  0  0999 V2000
   51.0260   32.2210   50.0820 N   0  0  0  0  0  0  0  0  0  0  0  0
   51.3160   32.2080   51.4800 C   0  0  0  0  0  0  0  0  0  0  0  0
   50.9310   33.1720   52.1950 O   0  0  0  0  0  0  0  0  0  0  0  0
   52.0610   31.0800   52.0860 C   0  0  0  0  0  0  0  0  0  0  0  0
   51.4470   29.8230   52.2410 C   0  0  0  0  0  0  0  0  0  0  0  0
   52.1460   28.7610   52.8220 C   0  0  0  0  0  0  0  0  0  0  0  0
   53.4620   28.9370   53.2510 C   0  0  0  0  0  0  0  0  0  0  0  0
   54.0970   30.1780   53.0940 C   0  0  0  0  0  0  0  0  0  0  0  0
   55.5030   30.3790   53.5900 C   0  0  0  0  0  0  0  0  0  0  0  0
   56.3960   30.7740   52.4540 C   0  0  0  0  0  0  0  0  0  0  0  0
   56.0630   30.4710   51.2760 O   0  0  0  0  0  0  0  0  0  0  0  0
   57.5660   31.5700   52.7040 N   0  0  0  0  0  0  0  0  0  0  0  0
   58.5350   31.9150   51.7010 C   0  0  0  0  0  0  0  0  0  0  0  0
   58.8750   33.2570   51.4460 C   0  0  0  0  0  0  0  0  0  0  0  0
   59.8130   33.5730   50.4590 C   0  0  0  0  0  0  0  0  0  0  0  0
   60.4200   32.5570   49.7080 C   0  0  0  0  0  0  0  0  0  0  0  0
   61.4090   32.8970   48.6640 C   0  0  0  0  0  0  0  0  0  0  0  0
   62.7570   32.5680   48.8890 C   0  0  0  0  0  0  0  0  0  0  0  0
   63.7330   32.8960   47.9470 C   0  0  0  0  0  0  0  0  0  0  0  0
   63.3760   33.5540   46.7710 C   0  0  0  0  0  0  0  0  0  0  0  0
   62.0400   33.8740   46.5260 C   0  0  0  0  0  0  0  0  0  0  0  0
   61.0420   33.5410   47.4560 C   0  0  0  0  0  0  0  0  0  0  0  0
   59.3540   33.9130   47.0620 S   0  0  0  0  0  0  0  0  0  0  0  0
   58.3370   32.5790   47.4840 N   0  0  0  0  0  0  0  0  0  0  0  0
   58.8970   35.1180   47.8370 O   0  0  0  0  0  0  0  0  0  0  0  0
   59.2270   34.1810   45.5890 O   0  0  0  0  0  0  0  0  0  0  0  0
   60.0520   31.2220   49.9300 C   0  0  0  0  0  0  0  0  0  0  0  0
   59.1160   30.9030   50.9180 C   0  0  0  0  0  0  0  0  0  0  0  0
   58.7880   29.6030   51.1260 F   0  0  0  0  0  0  0  0  0  0  0  0
   53.3900   31.2480   52.5200 C   0  0  0  0  0  0  0  0  0  0  0  0
   50.0440   32.3020   49.7380 H   0  0  0  0  0  0  0  0  0  0  0  0
   50.4107   29.6754   51.9029 H   0  0  0  0  0  0  0  0  0  0  0  0
   51.6568   27.7830   52.9414 H   0  0  0  0  0  0  0  0  0  0  0  0
   54.0038   28.0992   53.7142 H   0  0  0  0  0  0  0  0  0  0  0  0
   55.5105   31.1723   54.3519 H   0  0  0  0  0  0  0  0  0  0  0  0
   55.8695   29.4383   54.0269 H   0  0  0  0  0  0  0  0  0  0  0  0
   57.6670   31.9960   53.6530 H   0  0  0  0  0  0  0  0  0  0  0  0
   58.3999   34.0614   52.0267 H   0  0  0  0  0  0  0  0  0  0  0  0
   60.0761   34.6243   50.2707 H   0  0  0  0  0  0  0  0  0  0  0  0
   63.0447   32.0480   49.8147 H   0  0  0  0  0  0  0  0  0  0  0  0
   64.7853   32.6350   48.1327 H   0  0  0  0  0  0  0  0  0  0  0  0
   64.1486   33.8214   46.0351 H   0  0  0  0  0  0  0  0  0  0  0  0
   61.7660   34.3922   45.5952 H   0  0  0  0  0  0  0  0  0  0  0  0
   57.6900   32.4220   46.6790 H   0  0  0  0  0  0  0  0  0  0  0  0
   60.5021   30.4221   49.3237 H   0  0  0  0  0  0  0  0  0  0  0  0
   53.8796   32.2267   52.4085 H   0  0  0  0  0  0  0  0  0  0  0  0
  1  2  1  0
  2  3  2  0
  2  4  1  0
  4  5  2  0
  5  6  1  0
  6  7  2  0
  7  8  1  0
  8  9  1  0
  9 10  1  0
 10 11  2  0
 10 12  1  0
 12 13  1  0
 13 14  2  0
 14 15  1  0
 15 16  2  0
 16 17  1  0
 17 18  2  0
 18 19  1  0
 19 20  2  0
 20 21  1  0
 21 22  2  0
 22 23  1  0
 23 24  1  0
 23 25  2  0
 23 26  2  0
 16 27  1  0
 27 28  2  0
 28 29  1  0
  8 30  2  0
 30  4  1  0
 28 13  1  0
 22 17  1  0
  1 31  1  0
  5 32  1  0
  6 33  1  0
  7 34  1  0
  9 35  1  0
  9 36  1  0
 12 37  1  0
 14 38  1  0
 15 39  1  0
 18 40  1  0
 19 41  1  0
 20 42  1  0
 21 43  1  0
 24 44  1  0
 27 45  1  0
 30 46  1  0
M  CHG  2   1  -1  24  -1
M  END
>  <UniqueID>  (8) 
8

>  <SMILES>  (8) 
[NH-]C(=O)c1cccc(CC(=O)Nc2ccc(-c3ccccc3S([NH-])(=O)=O)cc2F)c1

>  <Energy>  (8) 
58.79362948960392

>  <Genealogy>  (8) 
[NH-]C(=O)c1cccc(CC(=O)Nc2ccc(-c3ccccc3S([NH-])(=O)=O)cc2F)c1 (protonated)
[NH-]C(=O)c1cccc(CC(=O)Nc2ccc(-c3ccccc3S([NH-])(=O)=O)cc2F)c1 (3D coordinates assigned)
[NH-]C(=O)c1cccc(CC(=O)Nc2ccc(-c3ccccc3S([NH-])(=O)=O)cc2F)c1 (optimized conformer: 58.79362948960392 kcal/mol)

>  <smiles>  (8) 
NC(=O)c1cccc(CC(=O)Nc2ccc(-c3ccccc3S(N)(=O)=O)cc2F)c1

>  <score_type>  (8) 
oracle

>  <origin>  (8) 
adg

>  <m_score__min__energy>  (8) 
-14.01

>  <m_primary>  (8) 
energy

$$$$
8:0
     RDKit          3D

 46 49  0  0  0  0  0  0  0  0999 V2000
   55.3079   20.2620   48.1365 H   0  0  0  0  0  0  0  0  0  0  0  0
   55.4020   20.8910   47.2390 C   0  0  0  0  0  0  0  0  0  0  0  0
   55.8270   20.3280   46.0350 C   0  0  0  0  0  0  0  0  0  0  0  0
   56.0829   19.2592   45.9886 H   0  0  0  0  0  0  0  0  0  0  0  0
   55.9280   21.1200   44.8880 C   0  0  0  0  0  0  0  0  0  0  0  0
   56.2636   20.6705   43.9418 H   0  0  0  0  0  0  0  0  0  0  0  0
   55.6040   22.4860   44.9350 C   0  0  0  0  0  0  0  0  0  0  0  0
   55.6900   23.3010   43.6730 C   0  0  0  0  0  0  0  0  0  0  0  0
   55.8022   24.3646   43.9303 H   0  0  0  0  0  0  0  0  0  0  0  0
   56.5585   22.9729   43.0831 H   0  0  0  0  0  0  0  0  0  0  0  0
   54.7721   23.1614   43.0831 H   0  0  0  0  0  0  0  0  0  0  0  0
   55.2210   23.0640   46.1710 C   0  0  0  0  0  0  0  0  0  0  0  0
   54.9050   24.4580   46.2890 N   0  0  0  0  0  0  0  0  0  0  0  0
   55.7320   25.4200   46.0080 C   0  0  0  0  0  0  0  0  0  0  0  0
   57.0580   25.2200   45.7790 N   0  0  0  0  0  0  0  0  0  0  0  0
   57.4970   26.4660   45.5530 C   0  0  0  0  0  0  0  0  0  0  0  0
   58.7930   26.8690   45.2520 C   0  0  0  0  0  0  0  0  0  0  0  0
   59.6113   26.1381   45.1735 H   0  0  0  0  0  0  0  0  0  0  0  0
   59.0240   28.2430   45.0510 C   0  0  0  0  0  0  0  0  0  0  0  0
   60.0373   28.5941   44.8062 H   0  0  0  0  0  0  0  0  0  0  0  0
   57.9610   29.1830   45.1610 C   0  0  0  0  0  0  0  0  0  0  0  0
   58.2020   30.6300   44.9440 C   0  0  0  0  0  0  0  0  0  0  0  0
   58.6450   31.0230   43.8300 O   0  0  0  0  0  0  0  0  0  0  0  0
   57.8920   31.5910   45.9670 N   0  0  0  0  0  0  0  0  0  0  0  0
   57.1560   31.3440   46.6640 H   0  0  0  0  0  0  0  0  0  0  0  0
   58.4390   32.9230   45.9950 C   0  0  0  0  0  0  0  0  0  0  0  0
   58.7140   33.6100   44.7990 C   0  0  0  0  0  0  0  0  0  0  0  0
   58.4909   33.1343   43.8326 H   0  0  0  0  0  0  0  0  0  0  0  0
   59.2680   34.8910   44.8290 C   0  0  0  0  0  0  0  0  0  0  0  0
   59.4729   35.4230   43.8883 H   0  0  0  0  0  0  0  0  0  0  0  0
   59.5620   35.4970   46.0500 C   0  0  0  0  0  0  0  0  0  0  0  0
   59.9923   36.5091   46.0712 H   0  0  0  0  0  0  0  0  0  0  0  0
   59.3110   34.8210   47.2460 C   0  0  0  0  0  0  0  0  0  0  0  0
   59.5519   35.3007   48.2061 H   0  0  0  0  0  0  0  0  0  0  0  0
   58.7510   33.5280   47.2300 C   0  0  0  0  0  0  0  0  0  0  0  0
   58.4830   32.8230   48.4160 O   0  0  0  0  0  0  0  0  0  0  0  0
   59.2370   31.7090   48.8810 C   0  0  0  0  0  0  0  0  0  0  0  0
   59.2413   31.7026   49.9810 H   0  0  0  0  0  0  0  0  0  0  0  0
   58.7824   30.7783   48.5107 H   0  0  0  0  0  0  0  0  0  0  0  0
   60.2700   31.7851   48.5107 H   0  0  0  0  0  0  0  0  0  0  0  0
   56.6570   28.7210   45.4600 C   0  0  0  0  0  0  0  0  0  0  0  0
   55.8134   29.4225   45.5394 H   0  0  0  0  0  0  0  0  0  0  0  0
   56.4710   27.3540   45.6510 C   0  0  0  0  0  0  0  0  0  0  0  0
   55.3300   26.7150   45.9450 N   0  0  0  0  0  0  0  0  0  0  0  0
   55.0960   22.2520   47.3060 C   0  0  0  0  0  0  0  0  0  0  0  0
   54.7547   22.6893   48.2559 H   0  0  0  0  0  0  0  0  0  0  0  0
  1  2  1  0
  2  3  2  0
  3  4  1  0
  3  5  1  0
  5  6  1  0
  5  7  2  0
  7  8  1  0
  8  9  1  0
  8 10  1  0
  8 11  1  0
  7 12  1  0
 12 13  1  0
 13 14  2  0
 14 15  1  0
 15 16  1  0
 16 17  2  0
 17 18  1  0
 17 19  1  0
 19 20  1  0
 19 21  2  0
 21 22  1  0
 22 23  2  0
 22 24  1  0
 24 25  1  0
 24 26  1  0
 26 27  2  0
 27 28  1  0
 27 29  1  0
 29 30  1  0
 29 31  2  0
 31 32  1  0
 31 33  1  0
 33 34  1  0
 33 35  2  0
 35 36  1  0
 36 37  1  0
 37 38  1  0
 37 39  1  0
 37 40  1  0
 21 41  1  0
 41 42  1  0
 41 43  2  0
 43 44  1  0
 12 45  2  0
 45 46  1  0
 45  2  1  0
 44 14  1  0
 43 16  1  0
 35 26  1  0
M  CHG  2  15  -1  44  -1
M  END
>  <UniqueID>  (9) 
9

>  <SMILES>  (9) 
COc1ccccc1NC(=O)c1ccc2[n-]/c(=N\c3ccccc3C)[n-]c2c1

>  <Energy>  (9) 
99.23212070635925

>  <Genealogy>  (9) 
COc1ccccc1NC(=O)c1ccc2[n-]c(=Nc3ccccc3C)[n-]c2c1 (protonated)
COc1ccccc1NC(=O)c1ccc2[n-]/c(=N\c3ccccc3C)[n-]c2c1 (cis-trans isomerization)
COc1ccccc1NC(=O)c1ccc2[n-]/c(=N\c3ccccc3C)[n-]c2c1 (3D coordinates assigned)
COc1ccccc1NC(=O)c1ccc2[n-]/c(=N\c3ccccc3C)[n-]c2c1 (optimized conformer: 99.23212070635925 kcal/mol)

>  <smiles>  (9) 
COc1ccccc1NC(=O)c1ccc2[nH]c(=Nc3ccccc3C)[nH]c2c1

>  <score_type>  (9) 
oracle

>  <origin>  (9) 
adg

>  <m_score__min__energy>  (9) 
-10.84

>  <m_primary>  (9) 
energy

$$$$
9:0
     RDKit          3D

 43 46  0  0  0  0  0  0  0  0999 V2000
   56.6710   27.3540   44.8520 H   0  0  0  0  0  0  0  0  0  0  0  0
   56.1260   28.2240   45.0480 N   0  0  0  0  0  0  0  0  0  0  0  0
   56.7100   29.3630   45.2440 C   0  0  0  0  0  0  0  0  0  0  0  0
   56.1650   30.4910   44.7160 N   0  0  0  0  0  0  0  0  0  0  0  0
   56.7350   31.7140   44.8650 C   0  0  0  0  0  0  0  0  0  0  0  0
   56.2556   32.5992   44.4215 H   0  0  0  0  0  0  0  0  0  0  0  0
   57.9310   31.8540   45.5810 C   0  0  0  0  0  0  0  0  0  0  0  0
   58.5640   33.1870   45.7540 C   0  0  0  0  0  0  0  0  0  0  0  0
   59.0580   33.5870   47.0110 C   0  0  0  0  0  0  0  0  0  0  0  0
   58.9741   32.9076   47.8721 H   0  0  0  0  0  0  0  0  0  0  0  0
   59.6540   34.8410   47.1720 C   0  0  0  0  0  0  0  0  0  0  0  0
   60.0385   35.1442   48.1570 H   0  0  0  0  0  0  0  0  0  0  0  0
   59.7620   35.7100   46.0830 C   0  0  0  0  0  0  0  0  0  0  0  0
   60.2309   36.6968   46.2112 H   0  0  0  0  0  0  0  0  0  0  0  0
   59.2750   35.3260   44.8330 C   0  0  0  0  0  0  0  0  0  0  0  0
   59.3595   36.0119   43.9772 H   0  0  0  0  0  0  0  0  0  0  0  0
   58.6800   34.0720   44.6650 C   0  0  0  0  0  0  0  0  0  0  0  0
   58.3003   33.7750   43.6763 H   0  0  0  0  0  0  0  0  0  0  0  0
   58.5130   30.7040   46.1380 C   0  0  0  0  0  0  0  0  0  0  0  0
   59.4496   30.7918   46.7081 H   0  0  0  0  0  0  0  0  0  0  0  0
   57.9150   29.4420   45.9770 C   0  0  0  0  0  0  0  0  0  0  0  0
   58.5390   28.2390   46.5900 C   0  0  0  0  0  0  0  0  0  0  0  0
   58.5610   27.0630   45.9040 N   0  0  0  0  0  0  0  0  0  0  0  0
   59.1190   25.9400   46.4270 C   0  0  0  0  0  0  0  0  0  0  0  0
   59.0910   24.8380   45.7360 N   0  0  0  0  0  0  0  0  0  0  0  0
   57.9350   24.2120   45.1520 C   0  0  0  0  0  0  0  0  0  0  0  0
   58.0460   23.1800   44.2030 C   0  0  0  0  0  0  0  0  0  0  0  0
   59.0394   22.8107   43.9083 H   0  0  0  0  0  0  0  0  0  0  0  0
   56.9000   22.6230   43.6340 C   0  0  0  0  0  0  0  0  0  0  0  0
   56.9925   21.8046   42.9049 H   0  0  0  0  0  0  0  0  0  0  0  0
   55.6360   23.1010   43.9870 C   0  0  0  0  0  0  0  0  0  0  0  0
   54.7372   22.6505   43.5406 H   0  0  0  0  0  0  0  0  0  0  0  0
   55.5050   24.1540   44.9090 C   0  0  0  0  0  0  0  0  0  0  0  0
   54.2020   24.6550   45.2600 N   0  0  0  0  0  0  0  0  0  0  0  0
   53.1900   23.9310   45.1500 O   0  0  0  0  0  0  0  0  0  0  0  0
   54.0480   25.9420   45.7210 O   0  0  0  0  0  0  0  0  0  0  0  0
   56.6670   24.7100   45.4780 C   0  0  0  0  0  0  0  0  0  0  0  0
   56.5778   25.5459   46.1874 H   0  0  0  0  0  0  0  0  0  0  0  0
   59.6560   25.9790   47.6770 N   0  0  0  0  0  0  0  0  0  0  0  0
   59.6610   27.1250   48.4030 C   0  0  0  0  0  0  0  0  0  0  0  0
   60.1055   27.1369   49.4091 H   0  0  0  0  0  0  0  0  0  0  0  0
   59.1030   28.2870   47.8740 C   0  0  0  0  0  0  0  0  0  0  0  0
   59.1046   29.2233   48.4514 H   0  0  0  0  0  0  0  0  0  0  0  0
  1  2  1  0
  2  3  2  0
  3  4  1  0
  4  5  1  0
  5  6  1  0
  5  7  2  0
  7  8  1  0
  8  9  2  0
  9 10  1  0
  9 11  1  0
 11 12  1  0
 11 13  2  0
 13 14  1  0
 13 15  1  0
 15 16  1  0
 15 17  2  0
 17 18  1  0
  7 19  1  0
 19 20  1  0
 19 21  2  0
 21 22  1  0
 22 23  2  0
 23 24  1  0
 24 25  2  3
 25 26  1  0
 26 27  2  0
 27 28  1  0
 27 29  1  0
 29 30  1  0
 29 31  2  0
 31 32  1  0
 31 33  1  0
 33 34  1  0
 34 35  2  0
 34 36  1  0
 33 37  2  0
 37 38  1  0
 24 39  1  0
 39 40  1  0
 40 41  1  0
 40 42  2  0
 42 43  1  0
 21  3  1  0
 42 22  1  0
 17  8  1  0
 37 26  1  0
M  CHG  4   4  -1  34   1  36  -1  39  -1
M  END
>  <UniqueID>  (10) 
10

>  <SMILES>  (10) 
[H]/N=c1\[n-]cc(-c2ccccc2)cc1-c1cc[n-]c(=Nc2cccc([N+](=O)[O-])c2)n1

>  <Energy>  (10) 
68.5563162988182

>  <Genealogy>  (10) 
N=c1[n-]cc(-c2ccccc2)cc1-c1cc[n-]c(=Nc2cccc([N+](=O)[O-])c2)n1 (protonated)
[H]/N=c1\[n-]cc(-c2ccccc2)cc1-c1cc[n-]c(=Nc2cccc([N+](=O)[O-])c2)n1 (cis-trans isomerization)
[H]/N=c1\[n-]cc(-c2ccccc2)cc1-c1cc[n-]c(=Nc2cccc([N+](=O)[O-])c2)n1 (3D coordinates assigned)
[H]/N=c1\[n-]cc(-c2ccccc2)cc1-c1cc[n-]c(=Nc2cccc([N+](=O)[O-])c2)n1 (optimized conformer: 68.5563162988182 kcal/mol)

>  <smiles>  (10) 
N=c1[nH]cc(-c2ccccc2)cc1-c1cc[nH]c(=Nc2cccc([N+](=O)[O-])c2)n1

>  <score_type>  (10) 
oracle

>  <origin>  (10) 
adg

>  <m_score__min__energy>  (10) 
-12.81

>  <m_primary>  (10) 
energy

$$$$
10:0
     RDKit          3D

 65 68  0  0  0  0  0  0  0  0999 V2000
   57.9300   32.5720   42.8710 C   0  0  0  0  0  0  0  0  0  0  0  0
   57.7500   32.3200   44.3760 C   0  0  2  0  0  0  0  0  0  0  0  0
   56.6660   31.3590   44.6030 N   0  0  0  0  0  0  0  0  0  0  0  0
   57.4750   33.6010   45.1390 C   0  0  0  0  0  0  0  0  0  0  0  0
   56.8150   34.5270   44.5910 O   0  0  0  0  0  0  0  0  0  0  0  0
   57.9320   33.7950   46.4850 N   0  0  0  0  0  0  0  0  0  0  0  0
   59.2990   33.8330   46.9210 C   0  0  0  0  0  0  0  0  0  0  0  0
   60.3100   33.4810   46.0220 C   0  0  0  0  0  0  0  0  0  0  0  0
   61.6510   33.4940   46.4230 C   0  0  0  0  0  0  0  0  0  0  0  0
   61.9980   33.8580   47.7370 C   0  0  0  0  0  0  0  0  0  0  0  0
   63.3670   33.8970   48.1770 N   0  0  0  0  0  0  0  0  0  0  0  0
   63.9410   33.1080   49.6120 S   0  0  0  0  0  0  0  0  0  0  0  0
   65.3680   32.6750   49.4080 O   0  0  0  0  0  0  0  0  0  0  0  0
   63.8920   34.0680   50.7710 O   0  0  0  0  0  0  0  0  0  0  0  0
   62.9640   31.6780   49.9310 C   0  0  0  0  0  0  0  0  0  0  0  0
   63.0870   30.9780   51.1400 C   0  0  0  0  0  0  0  0  0  0  0  0
   62.2710   29.8740   51.3970 C   0  0  0  0  0  0  0  0  0  0  0  0
   61.3360   29.4560   50.4460 C   0  0  0  0  0  0  0  0  0  0  0  0
   61.2040   30.1430   49.2220 C   0  0  0  0  0  0  0  0  0  0  0  0
   60.2160   29.6950   48.2070 C   0  0  0  0  0  0  0  0  0  0  0  0
   60.0140   30.4400   47.0290 C   0  0  0  0  0  0  0  0  0  0  0  0
   59.0910   30.0170   46.0700 C   0  0  0  0  0  0  0  0  0  0  0  0
   58.3490   28.8450   46.2730 C   0  0  0  0  0  0  0  0  0  0  0  0
   57.1890   28.2910   45.0690 S   0  0  0  0  0  0  0  0  0  0  0  0
   55.9050   29.0500   45.2360 O   0  0  0  0  0  0  0  0  0  0  0  0
   57.7160   28.5290   43.6830 O   0  0  0  0  0  0  0  0  0  0  0  0
   56.8830   26.5930   45.2830 N   0  0  0  0  0  0  0  0  0  0  0  0
   58.0810   25.7960   45.0110 C   0  0  0  0  0  0  0  0  0  0  0  0
   57.6790   24.4340   44.5210 C   0  0  0  0  0  0  0  0  0  0  0  0
   58.2680   23.2840   45.0780 C   0  0  0  0  0  0  0  0  0  0  0  0
   57.9020   22.0120   44.6170 C   0  0  0  0  0  0  0  0  0  0  0  0
   56.9570   21.8820   43.5930 C   0  0  0  0  0  0  0  0  0  0  0  0
   56.3770   23.0220   43.0260 C   0  0  0  0  0  0  0  0  0  0  0  0
   56.7360   24.2970   43.4850 C   0  0  0  0  0  0  0  0  0  0  0  0
   58.5340   28.1060   47.4480 C   0  0  0  0  0  0  0  0  0  0  0  0
   59.4630   28.5210   48.4060 C   0  0  0  0  0  0  0  0  0  0  0  0
   62.0270   31.2580   48.9770 C   0  0  0  0  0  0  0  0  0  0  0  0
   60.9760   34.1660   48.6490 C   0  0  0  0  0  0  0  0  0  0  0  0
   59.6370   34.1460   48.2480 C   0  0  0  0  0  0  0  0  0  0  0  0
   58.5634   33.4587   42.7209 H   0  0  0  0  0  0  0  0  0  0  0  0
   58.4086   31.6968   42.4073 H   0  0  0  0  0  0  0  0  0  0  0  0
   56.9469   32.7409   42.4073 H   0  0  0  0  0  0  0  0  0  0  0  0
   58.6955   31.9040   44.7542 H   0  0  0  0  0  0  0  0  0  0  0  0
   56.7100   31.0280   45.5960 H   0  0  0  0  0  0  0  0  0  0  0  0
   56.8080   30.5260   43.9800 H   0  0  0  0  0  0  0  0  0  0  0  0
   60.0500   33.1920   44.9930 H   0  0  0  0  0  0  0  0  0  0  0  0
   62.4385   33.2179   45.7063 H   0  0  0  0  0  0  0  0  0  0  0  0
   64.0920   34.2930   47.5380 H   0  0  0  0  0  0  0  0  0  0  0  0
   63.8276   31.2991   51.8873 H   0  0  0  0  0  0  0  0  0  0  0  0
   62.3644   29.3324   52.3499 H   0  0  0  0  0  0  0  0  0  0  0  0
   60.6982   28.5843   50.6541 H   0  0  0  0  0  0  0  0  0  0  0  0
   60.5883   31.3633   46.8628 H   0  0  0  0  0  0  0  0  0  0  0  0
   58.9457   30.6055   45.1521 H   0  0  0  0  0  0  0  0  0  0  0  0
   58.6876   26.2973   44.2425 H   0  0  0  0  0  0  0  0  0  0  0  0
   58.6692   25.6932   45.9349 H   0  0  0  0  0  0  0  0  0  0  0  0
   59.0174   23.3834   45.8771 H   0  0  0  0  0  0  0  0  0  0  0  0
   58.3581   21.1147   45.0607 H   0  0  0  0  0  0  0  0  0  0  0  0
   56.6700   20.8828   43.2336 H   0  0  0  0  0  0  0  0  0  0  0  0
   55.6376   22.9176   42.2183 H   0  0  0  0  0  0  0  0  0  0  0  0
   56.2803   25.1914   43.0351 H   0  0  0  0  0  0  0  0  0  0  0  0
   57.9444   27.1931   47.6180 H   0  0  0  0  0  0  0  0  0  0  0  0
   59.6072   27.9275   49.3209 H   0  0  0  0  0  0  0  0  0  0  0  0
   61.9340   31.8053   48.0274 H   0  0  0  0  0  0  0  0  0  0  0  0
   61.2309   34.4251   49.6872 H   0  0  0  0  0  0  0  0  0  0  0  0
   58.8443   34.3764   48.9750 H   0  0  0  0  0  0  0  0  0  0  0  0
  1  2  1  0
  2  3  1  0
  2  4  1  0
  4  5  2  0
  4  6  1  0
  6  7  1  0
  7  8  2  0
  8  9  1  0
  9 10  2  0
 10 11  1  0
 11 12  1  0
 12 13  2  0
 12 14  2  0
 12 15  1  0
 15 16  2  0
 16 17  1  0
 17 18  2  0
 18 19  1  0
 19 20  1  0
 20 21  2  0
 21 22  1  0
 22 23  2  0
 23 24  1  0
 24 25  2  0
 24 26  2  0
 24 27  1  0
 27 28  1  0
 28 29  1  0
 29 30  2  0
 30 31  1  0
 31 32  2  0
 32 33  1  0
 33 34  2  0
 23 35  1  0
 35 36  2  0
 19 37  2  0
 10 38  1  0
 38 39  2  0
 39  7  1  0
 37 15  1  0
 36 20  1  0
 34 29  1  0
  1 40  1  0
  1 41  1  0
  1 42  1  0
  2 43  1  1
  3 44  1  0
  3 45  1  0
  8 46  1  0
  9 47  1  0
 11 48  1  0
 16 49  1  0
 17 50  1  0
 18 51  1  0
 21 52  1  0
 22 53  1  0
 28 54  1  0
 28 55  1  0
 30 56  1  0
 31 57  1  0
 32 58  1  0
 33 59  1  0
 34 60  1  0
 35 61  1  0
 36 62  1  0
 37 63  1  0
 38 64  1  0
 39 65  1  0
M  CHG  2   6  -1  27  -1
M  END
>  <UniqueID>  (11) 
11

>  <SMILES>  (11) 
C[C@H](N)C(=O)[N-]c1ccc(NS(=O)(=O)c2cccc(-c3ccc(S(=O)(=O)[N-]Cc4ccccc4)cc3)c2)cc1

>  <Energy>  (11) 
77.90822624448656

>  <Genealogy>  (11) 
CC(N)C(=O)[N-]c1ccc(NS(=O)(=O)c2cccc(-c3ccc(S(=O)(=O)[N-]Cc4ccccc4)cc3)c2)cc1 (protonated)
C[C@H](N)C(=O)[N-]c1ccc(NS(=O)(=O)c2cccc(-c3ccc(S(=O)(=O)[N-]Cc4ccccc4)cc3)c2)cc1 (chirality)
C[C@H](N)C(=O)[N-]c1ccc(NS(=O)(=O)c2cccc(-c3ccc(S(=O)(=O)[N-]Cc4ccccc4)cc3)c2)cc1 (3D coordinates assigned)
C[C@H](N)C(=O)[N-]c1ccc(NS(=O)(=O)c2cccc(-c3ccc(S(=O)(=O)[N-]Cc4ccccc4)cc3)c2)cc1 (optimized conformer: 77.90822624448656 kcal/mol)

>  <smiles>  (11) 
CC(N)C(=O)Nc1ccc(NS(=O)(=O)c2cccc(-c3ccc(S(=O)(=O)NCc4ccccc4)cc3)c2)cc1

>  <score_type>  (11) 
oracle

>  <origin>  (11) 
adg

>  <m_score__min__energy>  (11) 
-13.41

>  <m_primary>  (11) 
energy

$$$$
11:0
     RDKit          3D

 28 29  0  0  0  0  0  0  0  0999 V2000
   54.3170   25.8420   45.6390 O   0  0  0  0  0  0  0  0  0  0  0  0
   55.4900   25.4280   45.8290 C   0  0  0  0  0  0  0  0  0  0  0  0
   56.0460   25.2490   47.1140 N   0  0  0  0  0  0  0  0  0  0  0  0
   57.4020   24.7570   46.8990 C   0  0  2  0  0  0  0  0  0  0  0  0
   58.4480   25.6340   47.6210 C   0  0  0  0  0  0  0  0  0  0  0  0
   59.6560   26.0780   46.7660 C   0  0  0  0  0  0  0  0  0  0  0  0
   59.4160   27.3750   46.0320 C   0  0  0  0  0  0  0  0  0  0  0  0
   60.4990   28.1230   45.5460 C   0  0  0  0  0  0  0  0  0  0  0  0
   60.2790   29.3240   44.8700 C   0  0  0  0  0  0  0  0  0  0  0  0
   58.9760   29.7880   44.6670 C   0  0  0  0  0  0  0  0  0  0  0  0
   57.8770   29.0480   45.1360 C   0  0  0  0  0  0  0  0  0  0  0  0
   56.4960   29.5350   44.9260 C   0  0  0  0  0  0  0  0  0  0  0  0
   55.5180   28.7440   44.9980 O   0  0  0  0  0  0  0  0  0  0  0  0
   56.2570   30.8750   44.6430 O   0  0  0  0  0  0  0  0  0  0  0  0
   58.1070   27.8360   45.8110 C   0  0  0  0  0  0  0  0  0  0  0  0
   57.5920   24.6810   45.3580 C   0  0  0  0  0  0  0  0  0  0  0  0
   56.3600   25.1210   44.8110 O   0  0  0  0  0  0  0  0  0  0  0  0
   57.5536   23.7596   47.3373 H   0  0  0  0  0  0  0  0  0  0  0  0
   57.9384   26.5396   47.9818 H   0  0  0  0  0  0  0  0  0  0  0  0
   58.8633   25.0059   48.4229 H   0  0  0  0  0  0  0  0  0  0  0  0
   60.5254   26.2057   47.4277 H   0  0  0  0  0  0  0  0  0  0  0  0
   59.8264   25.2987   46.0086 H   0  0  0  0  0  0  0  0  0  0  0  0
   61.5265   27.7611   45.6985 H   0  0  0  0  0  0  0  0  0  0  0  0
   61.1333   29.9072   44.4958 H   0  0  0  0  0  0  0  0  0  0  0  0
   58.8099   30.7376   44.1372 H   0  0  0  0  0  0  0  0  0  0  0  0
   57.2532   27.2425   46.1698 H   0  0  0  0  0  0  0  0  0  0  0  0
   58.4135   25.3386   45.0374 H   0  0  0  0  0  0  0  0  0  0  0  0
   57.8513   23.6653   45.0246 H   0  0  0  0  0  0  0  0  0  0  0  0
  1  2  2  0
  2  3  1  0
  3  4  1  0
  4  5  1  0
  5  6  1  0
  6  7  1  0
  7  8  2  0
  8  9  1  0
  9 10  2  0
 10 11  1  0
 11 12  1  0
 12 13  2  0
 12 14  1  0
 11 15  2  0
  4 16  1  0
 16 17  1  0
 17  2  1  0
 15  7  1  0
  4 18  1  1
  5 19  1  0
  5 20  1  0
  6 21  1  0
  6 22  1  0
  8 23  1  0
  9 24  1  0
 10 25  1  0
 15 26  1  0
 16 27  1  0
 16 28  1  0
M  CHG  2   3  -1  14  -1
M  END
>  <UniqueID>  (12) 
12

>  <SMILES>  (12) 
O=C1[N-][C@H](CCc2cccc(C(=O)[O-])c2)CO1

>  <Energy>  (12) 
41.64373550671736

>  <Genealogy>  (12) 
O=C1[N-]C(CCc2cccc(C(=O)[O-])c2)CO1 (protonated)
O=C1[N-][C@H](CCc2cccc(C(=O)[O-])c2)CO1 (chirality)
O=C1[N-][C@H](CCc2cccc(C(=O)[O-])c2)CO1 (3D coordinates assigned)
O=C1[N-][C@H](CCc2cccc(C(=O)[O-])c2)CO1 (nonaromatic ring conformer: 41.64373550671736 kcal/mol)

>  <smiles>  (12) 
O=C1NC(CCc2cccc(C(=O)O)c2)CO1

>  <score_type>  (12) 
oracle

>  <origin>  (12) 
adg

>  <m_score__min__energy>  (12) 
-10.49

>  <m_primary>  (12) 
energy

$$$$
12:0
     RDKit          3D

 15 16  0  0  0  0  0  0  0  0999 V2000
   50.6990   32.3430   49.3450 N   0  0  0  0  0  0  0  0  0  0  0  0
   51.1890   31.9410   50.4730 C   0  0  0  0  0  0  0  0  0  0  0  0
   50.6380   32.3730   51.6390 N   0  0  0  0  0  0  0  0  0  0  0  0
   51.1270   31.9720   52.8420 C   0  0  0  0  0  0  0  0  0  0  0  0
   50.5950   32.3890   53.9050 O   0  0  0  0  0  0  0  0  0  0  0  0
   52.2170   31.0990   52.8850 C   0  0  0  0  0  0  0  0  0  0  0  0
   52.7470   30.6640   54.0610 N   0  0  0  0  0  0  0  0  0  0  0  0
   53.8080   29.8140   54.0750 C   0  0  0  0  0  0  0  0  0  0  0  0
   54.2860   29.4220   55.1720 O   0  0  0  0  0  0  0  0  0  0  0  0
   54.3630   29.3800   52.8650 C   0  0  0  0  0  0  0  0  0  0  0  0
   53.8330   29.8120   51.6890 N   0  0  0  0  0  0  0  0  0  0  0  0
   52.7740   30.6620   51.6720 C   0  0  0  0  0  0  0  0  0  0  0  0
   52.2520   31.0900   50.4940 N   0  0  0  0  0  0  0  0  0  0  0  0
   51.3130   32.7030   48.5800 H   0  0  0  0  0  0  0  0  0  0  0  0
   55.2226   28.6937   52.8653 H   0  0  0  0  0  0  0  0  0  0  0  0
  1  2  2  3
  2  3  1  0
  3  4  1  0
  4  5  2  0
  4  6  1  0
  6  7  1  0
  7  8  1  0
  8  9  2  0
  8 10  1  0
 10 11  2  0
 11 12  1  0
 12 13  1  0
 13  2  1  0
 12  6  2  0
  1 14  1  0
 10 15  1  0
M  CHG  3   3  -1   7  -1  13  -1
M  END
>  <UniqueID>  (13) 
13

>  <SMILES>  (13) 
N=c1[n-]c(=O)c2[n-]c(=O)cnc2[n-]1

>  <Energy>  (13) 
21.46839813842986

>  <Genealogy>  (13) 
N=c1[n-]c(=O)c2[n-]c(=O)cnc2[n-]1 (protonated)
N=c1[n-]c(=O)c2[n-]c(=O)cnc2[n-]1 (3D coordinates assigned)
N=c1[n-]c(=O)c2[n-]c(=O)cnc2[n-]1 (optimized conformer: 21.46839813842986 kcal/mol)

>  <smiles>  (13) 
N=c1[nH]c(=O)c2[nH]c(=O)cnc2[nH]1

>  <score_type>  (13) 
oracle

>  <origin>  (13) 
adg

>  <m_score__min__energy>  (13) 
-11.380000000000001

>  <m_primary>  (13) 
energy

$$$$
13:0
     RDKit          3D

 53 56  0  0  0  0  0  0  0  0999 V2000
   57.0580   29.0480   43.9860 C   0  0  0  0  0  0  0  0  0  0  0  0
   56.4420   29.9850   44.8140 O   0  0  0  0  0  0  0  0  0  0  0  0
   57.0120   31.2360   44.6350 C   0  0  0  0  0  0  0  0  0  0  0  0
   57.2360   31.9200   45.8510 O   0  0  0  0  0  0  0  0  0  0  0  0
   58.1020   33.0040   45.8950 C   0  0  0  0  0  0  0  0  0  0  0  0
   58.3220   33.8170   44.7950 C   0  0  0  0  0  0  0  0  0  0  0  0
   59.1960   34.8880   44.8890 C   0  0  0  0  0  0  0  0  0  0  0  0
   59.8710   35.1810   46.0640 C   0  0  0  0  0  0  0  0  0  0  0  0
   59.6530   34.3710   47.1620 C   0  0  0  0  0  0  0  0  0  0  0  0
   60.3220   34.5860   48.4700 C   0  0  0  0  0  0  0  0  0  0  0  0
   61.7070   34.2780   48.4870 N   0  0  0  0  0  0  0  0  0  0  0  0
   62.3170   33.8420   47.3080 C   0  0  0  0  0  0  0  0  0  0  0  0
   63.0440   32.5500   47.3390 C   0  0  0  0  0  0  0  0  0  0  0  0
   63.4800   32.0200   48.6470 C   0  0  0  0  0  0  0  0  0  0  0  0
   62.6900   30.9730   49.1850 N   0  0  0  0  0  0  0  0  0  0  0  0
   61.3120   30.7270   49.1510 C   0  0  0  0  0  0  0  0  0  0  0  0
   60.6070   30.6720   50.3660 C   0  0  0  0  0  0  0  0  0  0  0  0
   59.2690   30.4230   50.4430 C   0  0  0  0  0  0  0  0  0  0  0  0
   58.5300   30.2070   49.3090 C   0  0  0  0  0  0  0  0  0  0  0  0
   59.1710   30.2500   48.1060 C   0  0  0  0  0  0  0  0  0  0  0  0
   58.7000   30.0700   46.8620 N   0  0  0  0  0  0  0  0  0  0  0  0
   59.6980   30.1980   46.0180 N   0  0  0  0  0  0  0  0  0  0  0  0
   60.8260   30.4620   46.6970 C   0  0  0  0  0  0  0  0  0  0  0  0
   60.5470   30.5070   48.0350 C   0  0  0  0  0  0  0  0  0  0  0  0
   63.5810   33.1840   49.6290 C   0  0  0  0  0  0  0  0  0  0  0  0
   62.2630   33.8530   49.7220 C   0  0  0  0  0  0  0  0  0  0  0  0
   58.7750   33.2950   47.0700 C   0  0  0  0  0  0  0  0  0  0  0  0
   57.5584   28.2868   44.6025 H   0  0  0  0  0  0  0  0  0  0  0  0
   56.3003   28.5655   43.3510 H   0  0  0  0  0  0  0  0  0  0  0  0
   57.8013   29.5523   43.3510 H   0  0  0  0  0  0  0  0  0  0  0  0
   57.9761   31.1115   44.1202 H   0  0  0  0  0  0  0  0  0  0  0  0
   56.3057   31.8378   44.0443 H   0  0  0  0  0  0  0  0  0  0  0  0
   57.8028   33.6123   43.8471 H   0  0  0  0  0  0  0  0  0  0  0  0
   59.3589   35.5238   44.0063 H   0  0  0  0  0  0  0  0  0  0  0  0
   60.5616   36.0354   46.1206 H   0  0  0  0  0  0  0  0  0  0  0  0
   60.2033   35.6443   48.7454 H   0  0  0  0  0  0  0  0  0  0  0  0
   59.8424   33.8966   49.1805 H   0  0  0  0  0  0  0  0  0  0  0  0
   61.5299   33.7566   46.5443 H   0  0  0  0  0  0  0  0  0  0  0  0
   63.0963   34.5919   47.1073 H   0  0  0  0  0  0  0  0  0  0  0  0
   62.3848   31.7951   46.8857 H   0  0  0  0  0  0  0  0  0  0  0  0
   63.9830   32.7554   46.8041 H   0  0  0  0  0  0  0  0  0  0  0  0
   64.4570   31.5442   48.4763 H   0  0  0  0  0  0  0  0  0  0  0  0
   63.2610   30.2270   49.7160 H   0  0  0  0  0  0  0  0  0  0  0  0
   61.1625   30.8381   51.3008 H   0  0  0  0  0  0  0  0  0  0  0  0
   58.7768   30.3951   51.4263 H   0  0  0  0  0  0  0  0  0  0  0  0
   57.4504   30.0047   49.3676 H   0  0  0  0  0  0  0  0  0  0  0  0
   57.7220   29.8610   46.5530 H   0  0  0  0  0  0  0  0  0  0  0  0
   61.8180   30.6175   46.2478 H   0  0  0  0  0  0  0  0  0  0  0  0
   63.8734   32.8061   50.6198 H   0  0  0  0  0  0  0  0  0  0  0  0
   64.3376   33.9013   49.2781 H   0  0  0  0  0  0  0  0  0  0  0  0
   61.5573   33.1492   50.1874 H   0  0  0  0  0  0  0  0  0  0  0  0
   62.4284   34.7676   50.3104 H   0  0  0  0  0  0  0  0  0  0  0  0
   58.6114   32.6596   47.9529 H   0  0  0  0  0  0  0  0  0  0  0  0
  1  2  1  0
  2  3  1  0
  3  4  1  0
  4  5  1  0
  5  6  2  0
  6  7  1  0
  7  8  2  0
  8  9  1  0
  9 10  1  0
 10 11  1  0
 11 12  1  0
 12 13  1  0
 13 14  1  0
 14 15  1  0
 15 16  1  0
 16 17  2  0
 17 18  1  0
 18 19  2  0
 19 20  1  0
 20 21  1  0
 21 22  1  0
 22 23  2  0
 23 24  1  0
 14 25  1  0
 25 26  1  0
  9 27  2  0
 27  5  1  0
 26 11  1  0
 24 16  1  0
 24 20  2  0
  1 28  1  0
  1 29  1  0
  1 30  1  0
  3 31  1  0
  3 32  1  0
  6 33  1  0
  7 34  1  0
  8 35  1  0
 10 36  1  0
 10 37  1  0
 12 38  1  0
 12 39  1  0
 13 40  1  0
 13 41  1  0
 14 42  1  0
 15 43  1  0
 17 44  1  0
 18 45  1  0
 19 46  1  0
 21 47  1  0
 23 48  1  0
 25 49  1  0
 25 50  1  0
 26 51  1  0
 26 52  1  0
 27 53  1  0
M  END
>  <smiles>  (14) 
COCOc1cccc(CN2CCC(Nc3cccc4[nH]ncc34)CC2)c1

>  <score_type>  (14) 
oracle

>  <origin>  (14) 
adg

>  <m_score__min__energy>  (14) 
-9.1199999999999992

>  <m_primary>  (14) 
energy

$$$$
14:0
     RDKit          3D

 23 24  0  0  0  0  0  0  0  0999 V2000
   58.6450   27.5080   45.9200 C   0  0  0  0  0  0  0  0  0  0  0  0
   57.5330   28.3670   45.4130 C   0  0  0  0  0  0  0  0  0  0  0  0
   56.2590   27.9550   45.2480 N   0  0  0  0  0  0  0  0  0  0  0  0
   55.5050   28.9770   44.8670 N   0  0  0  0  0  0  0  0  0  0  0  0
   56.3050   30.0560   44.7910 C   0  0  0  0  0  0  0  0  0  0  0  0
   55.8940   31.2100   44.5030 O   0  0  0  0  0  0  0  0  0  0  0  0
   57.6010   29.7130   45.1280 C   0  0  0  0  0  0  0  0  0  0  0  0
   58.7340   30.5280   45.2370 O   0  0  0  0  0  0  0  0  0  0  0  0
   58.7200   31.8740   45.6250 C   0  0  0  0  0  0  0  0  0  0  0  0
   58.4310   32.8500   44.6620 C   0  0  0  0  0  0  0  0  0  0  0  0
   58.3930   34.2020   45.0170 C   0  0  0  0  0  0  0  0  0  0  0  0
   58.6290   34.5860   46.3390 C   0  0  0  0  0  0  0  0  0  0  0  0
   58.8980   33.6180   47.3110 C   0  0  0  0  0  0  0  0  0  0  0  0
   58.9380   32.2650   46.9590 C   0  0  0  0  0  0  0  0  0  0  0  0
   58.6394   27.5123   47.0200 H   0  0  0  0  0  0  0  0  0  0  0  0
   58.5082   26.4788   45.5567 H   0  0  0  0  0  0  0  0  0  0  0  0
   59.6063   27.9003   45.5567 H   0  0  0  0  0  0  0  0  0  0  0  0
   55.8980   26.9880   45.4080 H   0  0  0  0  0  0  0  0  0  0  0  0
   58.2331   32.5513   43.6220 H   0  0  0  0  0  0  0  0  0  0  0  0
   58.1769   34.9643   44.2539 H   0  0  0  0  0  0  0  0  0  0  0  0
   58.6032   35.6504   46.6154 H   0  0  0  0  0  0  0  0  0  0  0  0
   59.0783   33.9205   48.3531 H   0  0  0  0  0  0  0  0  0  0  0  0
   59.1405   31.5043   47.7273 H   0  0  0  0  0  0  0  0  0  0  0  0
  1  2  1  0
  2  3  1  0
  3  4  1  0
  4  5  1  0
  5  6  2  0
  5  7  1  0
  7  8  1  0
  8  9  1  0
  9 10  2  0
 10 11  1  0
 11 12  2  0
 12 13  1  0
 13 14  2  0
  7  2  2  0
 14  9  1  0
  1 15  1  0
  1 16  1  0
  1 17  1  0
  3 18  1  0
 10 19  1  0
 11 20  1  0
 12 21  1  0
 13 22  1  0
 14 23  1  0
M  CHG  1   4  -1
M  END
>  <UniqueID>  (15) 
14

>  <SMILES>  (15) 
Cc1[nH][n-]c(=O)c1Oc1ccccc1

>  <Energy>  (15) 
61.282079981862054

>  <Genealogy>  (15) 
Cc1[nH][n-]c(=O)c1Oc1ccccc1 (protonated)
Cc1[nH][n-]c(=O)c1Oc1ccccc1 (3D coordinates assigned)
Cc1[nH][n-]c(=O)c1Oc1ccccc1 (optimized conformer: 61.282079981862054 kcal/mol)

>  <smiles>  (15) 
Cc1[nH][nH]c(=O)c1Oc1ccccc1

>  <score_type>  (15) 
oracle

>  <origin>  (15) 
adg

>  <m_score__min__energy>  (15) 
-7.8300000000000001

>  <m_primary>  (15) 
energy

$$$$
15:0
     RDKit          3D

 33 35  0  0  0  0  0  0  0  0999 V2000
   56.5360   34.8870   44.8300 N   0  0  0  0  0  0  0  0  0  0  0  0
   58.0280   34.2040   45.3720 S   0  0  0  0  0  0  0  0  0  0  0  0
   59.1530   34.7220   44.5220 O   0  0  0  0  0  0  0  0  0  0  0  0
   58.2760   34.6060   46.7990 O   0  0  0  0  0  0  0  0  0  0  0  0
   57.9490   32.4490   45.2540 C   0  0  0  0  0  0  0  0  0  0  0  0
   57.4050   31.8420   44.1130 C   0  0  0  0  0  0  0  0  0  0  0  0
   57.3290   30.4490   44.0260 C   0  0  0  0  0  0  0  0  0  0  0  0
   57.8040   29.6440   45.0730 C   0  0  0  0  0  0  0  0  0  0  0  0
   57.6920   28.2140   44.9680 N   0  0  0  0  0  0  0  0  0  0  0  0
   58.8060   27.3120   45.0790 C   0  0  0  0  0  0  0  0  0  0  0  0
   59.9770   27.7220   44.8690 O   0  0  0  0  0  0  0  0  0  0  0  0
   58.5950   25.9160   45.3240 N   0  0  0  0  0  0  0  0  0  0  0  0
   57.3920   25.1870   45.0500 C   0  0  0  0  0  0  0  0  0  0  0  0
   57.3460   24.1740   44.0540 C   0  0  0  0  0  0  0  0  0  0  0  0
   56.1460   23.4890   43.7830 C   0  0  0  0  0  0  0  0  0  0  0  0
   55.0160   23.8520   44.5090 C   0  0  0  0  0  0  0  0  0  0  0  0
   53.7800   23.3420   44.4110 N   0  0  0  0  0  0  0  0  0  0  0  0
   53.0990   24.0720   45.3320 C   0  0  0  0  0  0  0  0  0  0  0  0
   51.8730   23.8990   45.5560 O   0  0  0  0  0  0  0  0  0  0  0  0
   53.8340   25.0020   45.9930 N   0  0  0  0  0  0  0  0  0  0  0  0
   55.0490   24.8380   45.4490 C   0  0  0  0  0  0  0  0  0  0  0  0
   56.2150   25.5370   45.7440 C   0  0  0  0  0  0  0  0  0  0  0  0
   58.3230   30.2570   46.2270 C   0  0  0  0  0  0  0  0  0  0  0  0
   58.3970   31.6510   46.3140 C   0  0  0  0  0  0  0  0  0  0  0  0
   55.8880   34.8920   45.6490 H   0  0  0  0  0  0  0  0  0  0  0  0
   57.0369   32.4640   43.2838 H   0  0  0  0  0  0  0  0  0  0  0  0
   56.8940   29.9805   43.1309 H   0  0  0  0  0  0  0  0  0  0  0  0
   56.7640   27.8100   44.7110 H   0  0  0  0  0  0  0  0  0  0  0  0
   58.2562   23.9229   43.4897 H   0  0  0  0  0  0  0  0  0  0  0  0
   56.1034   22.6944   43.0236 H   0  0  0  0  0  0  0  0  0  0  0  0
   56.2190   26.3393   46.4965 H   0  0  0  0  0  0  0  0  0  0  0  0
   58.6726   29.6371   47.0657 H   0  0  0  0  0  0  0  0  0  0  0  0
   58.8087   32.1224   47.2186 H   0  0  0  0  0  0  0  0  0  0  0  0
  1  2  1  0
  2  3  2  0
  2  4  2  0
  2  5  1  0
  5  6  2  0
  6  7  1  0
  7  8  2  0
  8  9  1  0
  9 10  1  0
 10 11  2  0
 10 12  1  0
 12 13  1  0
 13 14  2  0
 14 15  1  0
 15 16  2  0
 16 17  1  0
 17 18  1  0
 18 19  2  0
 18 20  1  0
 20 21  1  0
 21 22  2  0
  8 23  1  0
 23 24  2  0
 24  5  1  0
 22 13  1  0
 21 16  1  0
  1 25  1  0
  6 26  1  0
  7 27  1  0
  9 28  1  0
 14 29  1  0
 15 30  1  0
 22 31  1  0
 23 32  1  0
 24 33  1  0
M  CHG  4   1  -1  12  -1  17  -1  20  -1
M  END
>  <UniqueID>  (16) 
15

>  <SMILES>  (16) 
[NH-]S(=O)(=O)c1ccc(NC(=O)[N-]c2ccc3[n-]c(=O)[n-]c3c2)cc1

>  <Energy>  (16) 
77.60577227717732

>  <Genealogy>  (16) 
[NH-]S(=O)(=O)c1ccc(NC(=O)[N-]c2ccc3[n-]c(=O)[n-]c3c2)cc1 (protonated)
[NH-]S(=O)(=O)c1ccc(NC(=O)[N-]c2ccc3[n-]c(=O)[n-]c3c2)cc1 (3D coordinates assigned)
[NH-]S(=O)(=O)c1ccc(NC(=O)[N-]c2ccc3[n-]c(=O)[n-]c3c2)cc1 (optimized conformer: 77.60577227717732 kcal/mol)

>  <smiles>  (16) 
NS(=O)(=O)c1ccc(NC(=O)Nc2ccc3[nH]c(=O)[nH]c3c2)cc1

>  <score_type>  (16) 
oracle

>  <origin>  (16) 
adg

>  <m_score__min__energy>  (16) 
-12.31

>  <m_primary>  (16) 
energy

$$$$
16:0
     RDKit          3D

 37 39  0  0  0  0  0  0  0  0999 V2000
   54.4920   26.3350   45.9590 O   0  0  0  0  0  0  0  0  0  0  0  0
   55.2550   25.2130   45.6550 C   0  0  0  0  0  0  0  0  0  0  0  0
   54.6040   24.0160   45.3350 C   0  0  0  0  0  0  0  0  0  0  0  0
   55.3440   22.8690   45.0400 C   0  0  0  0  0  0  0  0  0  0  0  0
   56.7390   22.9110   45.0690 C   0  0  0  0  0  0  0  0  0  0  0  0
   57.3980   24.1020   45.3870 C   0  0  0  0  0  0  0  0  0  0  0  0
   56.6640   25.2700   45.6680 C   0  0  0  0  0  0  0  0  0  0  0  0
   57.3970   26.5420   46.0210 C   0  0  0  0  0  0  0  0  0  0  0  0
   56.7790   27.6990   45.3700 N   0  0  0  0  0  0  0  0  0  0  0  0
   57.2470   29.0560   45.5030 C   0  0  0  0  0  0  0  0  0  0  0  0
   58.0860   29.3880   46.5760 C   0  0  0  0  0  0  0  0  0  0  0  0
   58.5620   30.6920   46.7310 C   0  0  0  0  0  0  0  0  0  0  0  0
   58.2040   31.6960   45.8160 C   0  0  0  0  0  0  0  0  0  0  0  0
   58.7140   33.0770   45.9960 C   0  0  0  0  0  0  0  0  0  0  0  0
   59.1050   33.5310   47.2690 C   0  0  0  0  0  0  0  0  0  0  0  0
   59.5800   34.8350   47.4390 C   0  0  0  0  0  0  0  0  0  0  0  0
   59.6640   35.6990   46.3450 C   0  0  0  0  0  0  0  0  0  0  0  0
   59.2730   35.2610   45.0780 C   0  0  0  0  0  0  0  0  0  0  0  0
   58.7980   33.9580   44.9010 C   0  0  0  0  0  0  0  0  0  0  0  0
   57.3630   31.3670   44.7370 C   0  0  0  0  0  0  0  0  0  0  0  0
   57.0260   32.2980   43.8090 F   0  0  0  0  0  0  0  0  0  0  0  0
   56.8870   30.0600   44.5850 C   0  0  0  0  0  0  0  0  0  0  0  0
   53.5048   23.9786   45.3158 H   0  0  0  0  0  0  0  0  0  0  0  0
   54.8274   21.9320   44.7847 H   0  0  0  0  0  0  0  0  0  0  0  0
   57.3205   22.0055   44.8413 H   0  0  0  0  0  0  0  0  0  0  0  0
   58.4973   24.1268   45.4179 H   0  0  0  0  0  0  0  0  0  0  0  0
   57.3675   26.6839   47.1114 H   0  0  0  0  0  0  0  0  0  0  0  0
   58.4369   26.4566   45.6727 H   0  0  0  0  0  0  0  0  0  0  0  0
   55.9200   27.5220   44.8020 H   0  0  0  0  0  0  0  0  0  0  0  0
   58.3723   28.6138   47.3031 H   0  0  0  0  0  0  0  0  0  0  0  0
   59.2226   30.9347   47.5764 H   0  0  0  0  0  0  0  0  0  0  0  0
   59.0366   32.8564   48.1352 H   0  0  0  0  0  0  0  0  0  0  0  0
   59.8882   35.1811   48.4366 H   0  0  0  0  0  0  0  0  0  0  0  0
   60.0381   36.7244   46.4813 H   0  0  0  0  0  0  0  0  0  0  0  0
   59.3389   35.9427   44.2172 H   0  0  0  0  0  0  0  0  0  0  0  0
   58.4884   33.6195   43.9012 H   0  0  0  0  0  0  0  0  0  0  0  0
   56.2257   29.8152   43.7407 H   0  0  0  0  0  0  0  0  0  0  0  0
  1  2  1  0
  2  3  2  0
  3  4  1  0
  4  5  2  0
  5  6  1  0
  6  7  2  0
  7  8  1  0
  8  9  1  0
  9 10  1  0
 10 11  2  0
 11 12  1  0
 12 13  2  0
 13 14  1  0
 14 15  2  0
 15 16  1  0
 16 17  2  0
 17 18  1  0
 18 19  2  0
 13 20  1  0
 20 21  1  0
 20 22  2  0
  7  2  1  0
 22 10  1  0
 19 14  1  0
  3 23  1  0
  4 24  1  0
  5 25  1  0
  6 26  1  0
  8 27  1  0
  8 28  1  0
  9 29  1  0
 11 30  1  0
 12 31  1  0
 15 32  1  0
 16 33  1  0
 17 34  1  0
 18 35  1  0
 19 36  1  0
 22 37  1  0
M  CHG  1   1  -1
M  END
>  <UniqueID>  (17) 
16

>  <SMILES>  (17) 
[O-]c1ccccc1CNc1ccc(-c2ccccc2)c(F)c1

>  <Energy>  (17) 
46.38684747232476

>  <Genealogy>  (17) 
[O-]c1ccccc1CNc1ccc(-c2ccccc2)c(F)c1 (protonated)
[O-]c1ccccc1CNc1ccc(-c2ccccc2)c(F)c1 (3D coordinates assigned)
[O-]c1ccccc1CNc1ccc(-c2ccccc2)c(F)c1 (optimized conformer: 46.38684747232476 kcal/mol)

>  <smiles>  (17) 
Oc1ccccc1CNc1ccc(-c2ccccc2)c(F)c1

>  <score_type>  (17) 
oracle

>  <origin>  (17) 
adg

>  <m_score__min__energy>  (17) 
-11.58

>  <m_primary>  (17) 
energy

$$$$
17:0
     RDKit          3D

 44 48  0  0  0  0  0  0  0  0999 V2000
   58.3598   25.5125   43.8640 H   0  0  0  0  0  0  0  0  0  0  0  0
   57.8680   26.1350   44.6260 C   0  0  0  0  0  0  0  0  0  0  0  0
   57.2540   25.4570   45.7800 C   0  0  0  0  0  0  0  0  0  0  0  0
   57.7840   24.3730   46.3720 N   0  0  0  0  0  0  0  0  0  0  0  0
   56.8660   24.0480   47.3080 C   0  0  0  0  0  0  0  0  0  0  0  0
   57.0120   23.0760   48.0920 O   0  0  0  0  0  0  0  0  0  0  0  0
   55.7720   24.8400   47.3280 N   0  0  0  0  0  0  0  0  0  0  0  0
   56.0270   25.7190   46.3460 C   0  0  0  0  0  0  0  0  0  0  0  0
   55.1420   26.7170   45.9550 O   0  0  0  0  0  0  0  0  0  0  0  0
   57.8650   27.4640   44.4460 C   0  0  0  0  0  0  0  0  0  0  0  0
   57.6590   28.1250   43.2430 C   0  0  0  0  0  0  0  0  0  0  0  0
   57.4425   27.6399   42.2798 H   0  0  0  0  0  0  0  0  0  0  0  0
   57.7660   29.4570   43.4400 N   0  0  0  0  0  0  0  0  0  0  0  0
   57.6660   30.1580   42.6800 H   0  0  0  0  0  0  0  0  0  0  0  0
   58.0440   29.6760   44.7200 N   0  0  0  0  0  0  0  0  0  0  0  0
   58.2860   30.8410   45.4060 C   0  0  0  0  0  0  0  0  0  0  0  0
   58.2120   32.0360   44.8870 N   0  0  0  0  0  0  0  0  0  0  0  0
   57.3800   33.1650   45.2780 C   0  0  0  0  0  0  0  0  0  0  0  0
   56.5724   33.0208   44.5452 H   0  0  0  0  0  0  0  0  0  0  0  0
   57.4180   33.4870   46.7620 C   0  0  0  0  0  0  0  0  0  0  0  0
   56.5302   33.9082   47.2564 H   0  0  0  0  0  0  0  0  0  0  0  0
   57.6582   32.9221   47.6748 H   0  0  0  0  0  0  0  0  0  0  0  0
   58.2130   34.3310   45.7800 C   0  0  0  0  0  0  0  0  0  0  0  0
   57.9009   35.3634   45.5636 H   0  0  0  0  0  0  0  0  0  0  0  0
   59.2674   34.6304   45.6875 H   0  0  0  0  0  0  0  0  0  0  0  0
   58.6130   30.7420   46.7250 N   0  0  0  0  0  0  0  0  0  0  0  0
   58.7040   29.5330   47.3470 C   0  0  0  0  0  0  0  0  0  0  0  0
   59.0250   29.4840   48.6050 N   0  0  0  0  0  0  0  0  0  0  0  0
   60.3220   29.9000   49.1310 C   0  0  0  0  0  0  0  0  0  0  0  0
   60.2821   29.9218   50.2301 H   0  0  0  0  0  0  0  0  0  0  0  0
   61.0950   29.1879   48.8063 H   0  0  0  0  0  0  0  0  0  0  0  0
   60.6550   31.2700   48.6150 C   0  0  0  0  0  0  0  0  0  0  0  0
   61.6950   31.4380   47.6850 C   0  0  0  0  0  0  0  0  0  0  0  0
   62.2477   30.5607   47.3177 H   0  0  0  0  0  0  0  0  0  0  0  0
   62.0310   32.7150   47.2240 C   0  0  0  0  0  0  0  0  0  0  0  0
   62.8404   32.8391   46.4895 H   0  0  0  0  0  0  0  0  0  0  0  0
   61.3390   33.8330   47.6960 C   0  0  0  0  0  0  0  0  0  0  0  0
   61.6021   34.8366   47.3304 H   0  0  0  0  0  0  0  0  0  0  0  0
   60.3130   33.6780   48.6320 C   0  0  0  0  0  0  0  0  0  0  0  0
   59.7720   34.5604   49.0044 H   0  0  0  0  0  0  0  0  0  0  0  0
   59.9720   32.4020   49.0970 C   0  0  0  0  0  0  0  0  0  0  0  0
   58.9840   32.2730   50.0180 F   0  0  0  0  0  0  0  0  0  0  0  0
   58.4590   28.3900   46.6470 N   0  0  0  0  0  0  0  0  0  0  0  0
   58.1140   28.4890   45.3440 C   0  0  0  0  0  0  0  0  0  0  0  0
  1  2  1  0
  2  3  1  0
  3  4  1  0
  4  5  1  0
  5  6  2  0
  5  7  1  0
  7  8  1  0
  8  9  1  0
  2 10  2  3
 10 11  1  0
 11 12  1  0
 11 13  2  0
 13 14  1  0
 13 15  1  0
 15 16  1  0
 16 17  2  3
 17 18  1  0
 18 19  1  0
 18 20  1  0
 20 21  1  0
 20 22  1  0
 20 23  1  0
 23 24  1  0
 23 25  1  0
 16 26  1  0
 26 27  1  0
 27 28  2  0
 28 29  1  0
 29 30  1  0
 29 31  1  0
 29 32  1  0
 32 33  2  0
 33 34  1  0
 33 35  1  0
 35 36  1  0
 35 37  2  0
 37 38  1  0
 37 39  1  0
 39 40  1  0
 39 41  2  0
 41 42  1  0
 27 43  1  0
 43 44  2  0
  8  3  2  0
 44 10  1  0
 44 15  1  0
 23 18  1  0
 41 32  1  0
M  CHG  5   4  -1   7  -1   9  -1  13   1  26  -1
M  END
>  <UniqueID>  (18) 
17

>  <SMILES>  (18) 
O=c1[n-]c([O-])c(C=c2c[nH+]n3c(=NC4CC4)[n-]/c(=N/Cc4ccccc4F)nc23)[n-]1

>  <Energy>  (18) 
395.06964680781306

>  <Genealogy>  (18) 
O=c1[n-]c([O-])c(C=c2c[nH+]n3c(=NC4CC4)[n-]c(=NCc4ccccc4F)nc23)[n-]1 (protonated)
O=c1[n-]c([O-])c(C=c2c[nH+]n3c(=NC4CC4)[n-]/c(=N/Cc4ccccc4F)nc23)[n-]1 (cis-trans isomerization)
O=c1[n-]c([O-])c(C=c2c[nH+]n3c(=NC4CC4)[n-]/c(=N/Cc4ccccc4F)nc23)[n-]1 (3D coordinates assigned)
O=c1[n-]c([O-])c(C=c2c[nH+]n3c(=NC4CC4)[n-]/c(=N/Cc4ccccc4F)nc23)[n-]1 (nonaromatic ring conformer: 395.06964680781306 kcal/mol)

>  <smiles>  (18) 
O=c1[nH]c(O)c(C=c2cnn3c(=NC4CC4)[nH]c(=NCc4ccccc4F)nc23)[nH]1

>  <score_type>  (18) 
oracle

>  <origin>  (18) 
adg

>  <m_score__min__energy>  (18) 
-16.809999999999999

>  <m_primary>  (18) 
energy

$$$$
18:0
     RDKit          3D

 48 50  0  0  0  0  0  0  0  0999 V2000
   59.7910   31.7170   51.5910 C   0  0  0  0  0  0  0  0  0  0  0  0
   59.9420   30.9840   50.2840 C   0  0  0  0  0  0  0  0  0  0  0  0
   58.8070   30.3820   49.7010 C   0  0  0  0  0  0  0  0  0  0  0  0
   58.9020   29.6960   48.4840 C   0  0  0  0  0  0  0  0  0  0  0  0
   60.1300   29.5970   47.8320 C   0  0  0  0  0  0  0  0  0  0  0  0
   61.2670   30.1980   48.3940 C   0  0  0  0  0  0  0  0  0  0  0  0
   61.1980   30.8840   49.6260 C   0  0  0  0  0  0  0  0  0  0  0  0
   62.4310   31.5890   50.1410 C   0  0  0  0  0  0  0  0  0  0  0  0
   62.3870   32.9800   49.8400 O   0  0  0  0  0  0  0  0  0  0  0  0
   61.5950   33.5720   48.8470 C   0  0  0  0  0  0  0  0  0  0  0  0
   60.3450   34.1460   49.1480 C   0  0  0  0  0  0  0  0  0  0  0  0
   59.5230   34.6140   48.1260 C   0  0  0  0  0  0  0  0  0  0  0  0
   59.9200   34.5080   46.7860 C   0  0  0  0  0  0  0  0  0  0  0  0
   58.9840   34.8970   45.7720 N   0  0  0  0  0  0  0  0  0  0  0  0
   57.5770   33.9950   45.2640 S   0  0  0  0  0  0  0  0  0  0  0  0
   56.5070   34.9130   44.7470 O   0  0  0  0  0  0  0  0  0  0  0  0
   57.0330   33.2680   46.4670 O   0  0  0  0  0  0  0  0  0  0  0  0
   58.0130   32.7740   44.0260 C   0  0  0  0  0  0  0  0  0  0  0  0
   57.6450   31.3800   44.4660 C   0  0  0  0  0  0  0  0  0  0  0  0
   58.6450   30.4670   44.8420 C   0  0  0  0  0  0  0  0  0  0  0  0
   58.3040   29.1490   45.1750 C   0  0  0  0  0  0  0  0  0  0  0  0
   56.9710   28.7560   45.1210 C   0  0  0  0  0  0  0  0  0  0  0  0
   56.0140   29.6560   44.7770 N   0  0  0  0  0  0  0  0  0  0  0  0
   56.3160   30.9470   44.4730 C   0  0  0  0  0  0  0  0  0  0  0  0
   61.1950   34.0020   46.4820 C   0  0  0  0  0  0  0  0  0  0  0  0
   62.0490   33.5530   47.5120 C   0  0  0  0  0  0  0  0  0  0  0  0
   63.4220   33.0000   47.1950 C   0  0  0  0  0  0  0  0  0  0  0  0
   63.9200   33.4750   45.9900 F   0  0  0  0  0  0  0  0  0  0  0  0
   64.3060   33.3660   48.1990 F   0  0  0  0  0  0  0  0  0  0  0  0
   63.3540   31.6190   47.1260 F   0  0  0  0  0  0  0  0  0  0  0  0
   59.9358   31.0140   52.4245 H   0  0  0  0  0  0  0  0  0  0  0  0
   60.5431   32.5174   51.6515 H   0  0  0  0  0  0  0  0  0  0  0  0
   58.7838   32.1550   51.6515 H   0  0  0  0  0  0  0  0  0  0  0  0
   57.8341   30.4525   50.2095 H   0  0  0  0  0  0  0  0  0  0  0  0
   58.0065   29.2347   48.0420 H   0  0  0  0  0  0  0  0  0  0  0  0
   60.2077   29.0500   46.8808 H   0  0  0  0  0  0  0  0  0  0  0  0
   62.2293   30.1334   47.8650 H   0  0  0  0  0  0  0  0  0  0  0  0
   62.4906   31.4587   51.2316 H   0  0  0  0  0  0  0  0  0  0  0  0
   63.3142   31.1525   49.6517 H   0  0  0  0  0  0  0  0  0  0  0  0
   60.0164   34.2251   50.1948 H   0  0  0  0  0  0  0  0  0  0  0  0
   58.5533   35.0710   48.3726 H   0  0  0  0  0  0  0  0  0  0  0  0
   57.4793   33.0060   43.0926 H   0  0  0  0  0  0  0  0  0  0  0  0
   59.1021   32.8106   43.8760 H   0  0  0  0  0  0  0  0  0  0  0  0
   59.6968   30.7872   44.8750 H   0  0  0  0  0  0  0  0  0  0  0  0
   59.0827   28.4327   45.4760 H   0  0  0  0  0  0  0  0  0  0  0  0
   56.6924   27.7182   45.3565 H   0  0  0  0  0  0  0  0  0  0  0  0
   55.5093   31.6547   44.2312 H   0  0  0  0  0  0  0  0  0  0  0  0
   61.5295   33.9555   45.4351 H   0  0  0  0  0  0  0  0  0  0  0  0
  1  2  1  0
  2  3  2  0
  3  4  1  0
  4  5  2  0
  5  6  1  0
  6  7  2  0
  7  8  1  0
  8  9  1  0
  9 10  1  0
 10 11  2  0
 11 12  1  0
 12 13  2  0
 13 14  1  0
 14 15  1  0
 15 16  2  0
 15 17  2  0
 15 18  1  0
 18 19  1  0
 19 20  2  0
 20 21  1  0
 21 22  2  0
 22 23  1  0
 23 24  2  0
 13 25  1  0
 25 26  2  0
 26 27  1  0
 27 28  1  0
 27 29  1  0
 27 30  1  0
  7  2  1  0
 26 10  1  0
 24 19  1  0
  1 31  1  0
  1 32  1  0
  1 33  1  0
  3 34  1  0
  4 35  1  0
  5 36  1  0
  6 37  1  0
  8 38  1  0
  8 39  1  0
 11 40  1  0
 12 41  1  0
 18 42  1  0
 18 43  1  0
 20 44  1  0
 21 45  1  0
 22 46  1  0
 24 47  1  0
 25 48  1  0
M  CHG  1  14  -1
M  END
>  <UniqueID>  (19) 
18

>  <SMILES>  (19) 
Cc1ccccc1COc1ccc([N-]S(=O)(=O)Cc2cccnc2)cc1C(F)(F)F

>  <Energy>  (19) 
53.389442122315195

>  <Genealogy>  (19) 
Cc1ccccc1COc1ccc([N-]S(=O)(=O)Cc2cccnc2)cc1C(F)(F)F (protonated)
Cc1ccccc1COc1ccc([N-]S(=O)(=O)Cc2cccnc2)cc1C(F)(F)F (3D coordinates assigned)
Cc1ccccc1COc1ccc([N-]S(=O)(=O)Cc2cccnc2)cc1C(F)(F)F (optimized conformer: 53.389442122315195 kcal/mol)

>  <smiles>  (19) 
Cc1ccccc1COc1ccc(NS(=O)(=O)Cc2cccnc2)cc1C(F)(F)F

>  <score_type>  (19) 
oracle

>  <origin>  (19) 
adg

>  <m_score__min__energy>  (19) 
-10.119999999999999

>  <m_primary>  (19) 
energy

$$$$
19:0
     RDKit          3D

 46 49  0  0  0  0  0  0  0  0999 V2000
   60.9540   32.5420   46.4190 O   0  0  0  0  0  0  0  0  0  0  0  0
   61.2540   31.9180   47.4740 C   0  0  0  0  0  0  0  0  0  0  0  0
   60.6010   30.6730   47.7740 N   0  0  0  0  0  0  0  0  0  0  0  0
   59.9650   29.8480   46.7830 C   0  0  0  0  0  0  0  0  0  0  0  0
   60.5590   28.6350   46.4110 C   0  0  0  0  0  0  0  0  0  0  0  0
   59.9710   27.8300   45.4360 C   0  0  0  0  0  0  0  0  0  0  0  0
   58.7830   28.2240   44.8120 C   0  0  0  0  0  0  0  0  0  0  0  0
   58.1090   27.1730   43.5710 Cl  0  0  0  0  0  0  0  0  0  0  0  0
   58.1740   29.4460   45.1700 C   0  0  0  0  0  0  0  0  0  0  0  0
   56.6780   29.9880   44.3960 S   0  0  0  0  0  0  0  0  0  0  0  0
   55.5210   29.1570   44.8780 O   0  0  0  0  0  0  0  0  0  0  0  0
   56.8160   29.8280   42.9090 O   0  0  0  0  0  0  0  0  0  0  0  0
   56.3710   31.6660   44.7460 N   0  0  0  0  0  0  0  0  0  0  0  0
   57.3990   32.5250   44.1550 C   0  0  0  0  0  0  0  0  0  0  0  0
   58.0180   33.3940   45.2030 C   0  0  0  0  0  0  0  0  0  0  0  0
   58.9200   34.4130   44.9770 C   0  0  0  0  0  0  0  0  0  0  0  0
   59.2080   34.9340   46.2210 C   0  0  0  0  0  0  0  0  0  0  0  0
   58.4670   34.1990   47.1250 C   0  0  0  0  0  0  0  0  0  0  0  0
   57.7680   33.2890   46.4880 O   0  0  0  0  0  0  0  0  0  0  0  0
   58.7860   30.2590   46.1380 C   0  0  0  0  0  0  0  0  0  0  0  0
   62.2420   32.5040   48.4110 C   0  0  0  0  0  0  0  0  0  0  0  0
   61.9640   33.7030   49.1000 C   0  0  0  0  0  0  0  0  0  0  0  0
   62.9020   34.2500   49.9830 C   0  0  0  0  0  0  0  0  0  0  0  0
   64.1230   33.6050   50.1890 C   0  0  0  0  0  0  0  0  0  0  0  0
   64.3960   32.3950   49.5390 C   0  0  0  0  0  0  0  0  0  0  0  0
   63.4680   31.8520   48.6460 C   0  0  0  0  0  0  0  0  0  0  0  0
   65.6060   31.7430   49.7980 O   0  0  0  0  0  0  0  0  0  0  0  0
   66.4330   32.1310   50.8980 C   0  0  0  0  0  0  0  0  0  0  0  0
   66.4280   33.6580   51.0550 C   0  0  0  0  0  0  0  0  0  0  0  0
   65.0860   34.1520   51.0430 O   0  0  0  0  0  0  0  0  0  0  0  0
   60.4780   30.4130   48.7780 H   0  0  0  0  0  0  0  0  0  0  0  0
   61.4956   28.3154   46.8913 H   0  0  0  0  0  0  0  0  0  0  0  0
   60.4451   26.8779   45.1555 H   0  0  0  0  0  0  0  0  0  0  0  0
   58.1780   31.8966   43.6987 H   0  0  0  0  0  0  0  0  0  0  0  0
   56.9334   33.1645   43.3906 H   0  0  0  0  0  0  0  0  0  0  0  0
   59.3245   34.7411   44.0081 H   0  0  0  0  0  0  0  0  0  0  0  0
   59.8901   35.7667   46.4473 H   0  0  0  0  0  0  0  0  0  0  0  0
   58.4631   34.3529   48.2142 H   0  0  0  0  0  0  0  0  0  0  0  0
   58.3368   31.2298   46.3945 H   0  0  0  0  0  0  0  0  0  0  0  0
   61.0019   34.2124   48.9420 H   0  0  0  0  0  0  0  0  0  0  0  0
   62.6776   35.1868   50.5140 H   0  0  0  0  0  0  0  0  0  0  0  0
   63.6963   30.9109   48.1243 H   0  0  0  0  0  0  0  0  0  0  0  0
   66.0500   31.6700   51.8204 H   0  0  0  0  0  0  0  0  0  0  0  0
   67.4627   31.7940   50.7081 H   0  0  0  0  0  0  0  0  0  0  0  0
   66.9054   33.9266   52.0089 H   0  0  0  0  0  0  0  0  0  0  0  0
   66.9827   34.1064   50.2176 H   0  0  0  0  0  0  0  0  0  0  0  0
  1  2  2  0
  2  3  1  0
  3  4  1  0
  4  5  2  0
  5  6  1  0
  6  7  2  0
  7  8  1  0
  7  9  1  0
  9 10  1  0
 10 11  2  0
 10 12  2  0
 10 13  1  0
 13 14  1  0
 14 15  1  0
 15 16  2  0
 16 17  1  0
 17 18  2  0
 18 19  1  0
  9 20  2  0
  2 21  1  0
 21 22  2  0
 22 23  1  0
 23 24  2  0
 24 25  1  0
 25 26  2  0
 25 27  1  0
 27 28  1  0
 28 29  1  0
 29 30  1  0
 20  4  1  0
 26 21  1  0
 19 15  1  0
 30 24  1  0
  3 31  1  0
  5 32  1  0
  6 33  1  0
 14 34  1  0
 14 35  1  0
 16 36  1  0
 17 37  1  0
 18 38  1  0
 20 39  1  0
 22 40  1  0
 23 41  1  0
 26 42  1  0
 28 43  1  0
 28 44  1  0
 29 45  1  0
 29 46  1  0
M  CHG  1  13  -1
M  END
>  <UniqueID>  (20) 
19

>  <SMILES>  (20) 
O=C(Nc1ccc(Cl)c(S(=O)(=O)[N-]Cc2ccco2)c1)c1ccc2c(c1)OCCO2

>  <Energy>  (20) 
82.29163146663784

>  <Genealogy>  (20) 
O=C(Nc1ccc(Cl)c(S(=O)(=O)[N-]Cc2ccco2)c1)c1ccc2c(c1)OCCO2 (protonated)
O=C(Nc1ccc(Cl)c(S(=O)(=O)[N-]Cc2ccco2)c1)c1ccc2c(c1)OCCO2 (3D coordinates assigned)
O=C(Nc1ccc(Cl)c(S(=O)(=O)[N-]Cc2ccco2)c1)c1ccc2c(c1)OCCO2 (nonaromatic ring conformer: 82.29163146663784 kcal/mol)

>  <smiles>  (20) 
O=C(Nc1ccc(Cl)c(S(=O)(=O)NCc2ccco2)c1)c1ccc2c(c1)OCCO2

>  <score_type>  (20) 
oracle

>  <origin>  (20) 
adg

>  <m_score__min__energy>  (20) 
-10.539999999999999

>  <m_primary>  (20) 
energy

$$$$
20:0
     RDKit          3D

 40 42  0  0  0  0  0  0  0  0999 V2000
   59.0604   27.5620   44.7989 H   0  0  0  0  0  0  0  0  0  0  0  0
   58.7850   28.5850   44.5030 C   0  0  0  0  0  0  0  0  0  0  0  0
   59.5392   29.3854   44.5236 H   0  0  0  0  0  0  0  0  0  0  0  0
   57.5360   28.8550   44.1190 C   0  0  0  0  0  0  0  0  0  0  0  0
   56.7881   28.0486   44.1013 H   0  0  0  0  0  0  0  0  0  0  0  0
   57.1360   30.2460   43.7100 C   0  0  0  0  0  0  0  0  0  0  0  0
   57.9648   30.7115   43.1564 H   0  0  0  0  0  0  0  0  0  0  0  0
   56.2395   30.1829   43.0757 H   0  0  0  0  0  0  0  0  0  0  0  0
   56.8240   31.0630   44.8830 N   0  0  0  0  0  0  0  0  0  0  0  0
   57.5760   31.9830   45.4200 C   0  0  0  0  0  0  0  0  0  0  0  0
   57.0370   33.2080   45.6520 N   0  0  0  0  0  0  0  0  0  0  0  0
   57.7660   34.2080   46.2050 C   0  0  0  0  0  0  0  0  0  0  0  0
   57.3070   35.1922   46.3801 H   0  0  0  0  0  0  0  0  0  0  0  0
   59.0960   33.9880   46.5510 C   0  0  0  0  0  0  0  0  0  0  0  0
   59.8390   35.0080   47.0490 F   0  0  0  0  0  0  0  0  0  0  0  0
   59.6510   32.7210   46.3240 C   0  0  0  0  0  0  0  0  0  0  0  0
   61.0250   32.4520   46.6540 N   0  0  0  0  0  0  0  0  0  0  0  0
   61.5780   31.1830   46.9600 C   0  0  0  0  0  0  0  0  0  0  0  0
   60.9270   30.1070   46.8770 O   0  0  0  0  0  0  0  0  0  0  0  0
   63.0130   31.2450   47.3050 C   0  0  0  0  0  0  0  0  0  0  0  0
   63.6224   30.7206   46.5542 H   0  0  0  0  0  0  0  0  0  0  0  0
   63.2476   30.7620   48.2650 H   0  0  0  0  0  0  0  0  0  0  0  0
   63.3110   32.7620   47.3000 C   0  0  2  0  0  0  0  0  0  0  0  0
   64.2214   32.9783   46.7217 H   0  0  0  0  0  0  0  0  0  0  0  0
   63.5810   33.2830   48.7020 C   0  0  0  0  0  0  0  0  0  0  0  0
   62.6640   34.1360   49.3460 C   0  0  0  0  0  0  0  0  0  0  0  0
   61.7392   34.4334   48.8299 H   0  0  0  0  0  0  0  0  0  0  0  0
   62.9210   34.6070   50.6360 C   0  0  0  0  0  0  0  0  0  0  0  0
   62.2005   35.2750   51.1305 H   0  0  0  0  0  0  0  0  0  0  0  0
   64.0940   34.2300   51.3000 C   0  0  0  0  0  0  0  0  0  0  0  0
   64.4140   34.8220   52.9190 Cl  0  0  0  0  0  0  0  0  0  0  0  0
   65.0090   33.3820   50.6700 C   0  0  0  0  0  0  0  0  0  0  0  0
   65.9312   33.0857   51.1913 H   0  0  0  0  0  0  0  0  0  0  0  0
   64.7550   32.9090   49.3780 C   0  0  0  0  0  0  0  0  0  0  0  0
   65.4784   32.2405   48.8884 H   0  0  0  0  0  0  0  0  0  0  0  0
   62.0790   33.4530   46.6630 C   0  0  0  0  0  0  0  0  0  0  0  0
   62.3090   33.7765   45.6371 H   0  0  0  0  0  0  0  0  0  0  0  0
   61.7813   34.3498   47.2261 H   0  0  0  0  0  0  0  0  0  0  0  0
   58.8850   31.7480   45.7500 N   0  0  0  0  0  0  0  0  0  0  0  0
   59.3170   30.8140   45.5860 H   0  0  0  0  0  0  0  0  0  0  0  0
  1  2  1  0
  2  3  1  0
  2  4  2  0
  4  5  1  0
  4  6  1  0
  6  7  1  0
  6  8  1  0
  6  9  1  0
  9 10  2  0
 10 11  1  0
 11 12  2  0
 12 13  1  0
 12 14  1  0
 14 15  1  0
 14 16  2  0
 16 17  1  0
 17 18  1  0
 18 19  2  0
 18 20  1  0
 20 21  1  0
 20 22  1  0
 20 23  1  0
 23 24  1  6
 23 25  1  0
 25 26  2  0
 26 27  1  0
 26 28  1  0
 28 29  1  0
 28 30  2  0
 30 31  1  0
 30 32  1  0
 32 33  1  0
 32 34  2  0
 34 35  1  0
 23 36  1  0
 36 37  1  0
 36 38  1  0
 16 39  1  0
 39 40  1  0
 39 10  1  0
 36 17  1  0
 34 25  1  0
M  END
>  <UniqueID>  (21) 
20

>  <SMILES>  (21) 
C=CC/N=c1/ncc(F)c(N2C[C@@H](c3ccc(Cl)cc3)CC2=O)[nH]1

>  <Energy>  (21) 
53.86321070407494

>  <Genealogy>  (21) 
C=CCN=c1ncc(F)c(N2C[C@@H](c3ccc(Cl)cc3)CC2=O)[nH]1 (chirality)
C=CC/N=c1/ncc(F)c(N2C[C@@H](c3ccc(Cl)cc3)CC2=O)[nH]1 (cis-trans isomerization)
C=CC/N=c1/ncc(F)c(N2C[C@@H](c3ccc(Cl)cc3)CC2=O)[nH]1 (3D coordinates assigned)
C=CC/N=c1/ncc(F)c(N2C[C@@H](c3ccc(Cl)cc3)CC2=O)[nH]1 (nonaromatic ring conformer: 53.86321070407494 kcal/mol)

>  <smiles>  (21) 
C=CCN=c1ncc(F)c(N2CC(c3ccc(Cl)cc3)CC2=O)[nH]1

>  <score_type>  (21) 
oracle

>  <origin>  (21) 
adg

>  <m_score__min__energy>  (21) 
-7.0599999999999996

>  <m_primary>  (21) 
energy

$$$$
21:0
     RDKit          3D

 50 53  0  0  0  0  0  0  0  0999 V2000
   62.5980   31.2360   47.1100 N   0  0  0  0  0  0  0  0  0  0  0  0
   62.1680   32.9090   47.1610 S   0  0  0  0  0  0  0  0  0  0  0  0
   61.1560   33.2020   46.0900 O   0  0  0  0  0  0  0  0  0  0  0  0
   63.3920   33.7470   46.9090 O   0  0  0  0  0  0  0  0  0  0  0  0
   61.4900   33.2920   48.7400 C   0  0  0  0  0  0  0  0  0  0  0  0
   60.1780   33.7730   48.8410 C   0  0  0  0  0  0  0  0  0  0  0  0
   59.6270   34.0580   50.0950 C   0  0  0  0  0  0  0  0  0  0  0  0
   60.3730   33.8410   51.2580 C   0  0  0  0  0  0  0  0  0  0  0  0
   59.7930   34.1420   52.5320 N   0  0  0  0  0  0  0  0  0  0  0  0
   59.5040   33.1830   53.5580 C   0  0  0  0  0  0  0  0  0  0  0  0
   59.8880   33.4170   54.7350 O   0  0  0  0  0  0  0  0  0  0  0  0
   58.6580   31.9660   53.2860 C   0  0  0  0  0  0  0  0  0  0  0  0
   59.0850   31.2450   52.0330 C   0  0  0  0  0  0  0  0  0  0  0  0
   58.2690   31.2610   50.8890 C   0  0  0  0  0  0  0  0  0  0  0  0
   58.6730   30.6080   49.7220 C   0  0  0  0  0  0  0  0  0  0  0  0
   59.8920   29.9190   49.6810 C   0  0  0  0  0  0  0  0  0  0  0  0
   60.3110   29.2950   48.4570 N   0  0  0  0  0  0  0  0  0  0  0  0
   59.6640   29.3790   47.3280 C   0  0  0  0  0  0  0  0  0  0  0  0
   59.8980   30.4020   46.3650 N   0  0  0  0  0  0  0  0  0  0  0  0
   59.2720   30.1240   45.0840 C   0  0  2  0  0  0  0  0  0  0  0  0
   57.9680   30.9200   44.9430 C   0  0  0  0  0  0  0  0  0  0  0  0
   56.8450   29.8570   44.0900 S   0  0  0  0  0  0  0  0  0  0  0  0
   55.5480   29.7170   44.8350 O   0  0  0  0  0  0  0  0  0  0  0  0
   56.6020   30.3270   42.6830 O   0  0  0  0  0  0  0  0  0  0  0  0
   57.7710   28.3530   44.1170 C   0  0  0  0  0  0  0  0  0  0  0  0
   58.9620   28.6090   45.0420 C   0  0  2  0  0  0  0  0  0  0  0  0
   58.6140   28.0570   46.7560 S   0  0  0  0  0  0  0  0  0  0  0  0
   60.7310   29.9370   50.8080 C   0  0  0  0  0  0  0  0  0  0  0  0
   60.3310   30.5950   51.9750 C   0  0  0  0  0  0  0  0  0  0  0  0
   61.6980   33.3920   51.1550 C   0  0  0  0  0  0  0  0  0  0  0  0
   62.2500   33.1040   49.9030 C   0  0  0  0  0  0  0  0  0  0  0  0
   61.7280   30.6920   47.3080 H   0  0  0  0  0  0  0  0  0  0  0  0
   59.5791   33.9271   47.9313 H   0  0  0  0  0  0  0  0  0  0  0  0
   58.6033   34.4542   50.1665 H   0  0  0  0  0  0  0  0  0  0  0  0
   58.7446   31.2764   54.1386 H   0  0  0  0  0  0  0  0  0  0  0  0
   57.6195   32.3007   53.1461 H   0  0  0  0  0  0  0  0  0  0  0  0
   57.3056   31.7913   50.9126 H   0  0  0  0  0  0  0  0  0  0  0  0
   58.0300   30.6350   48.8299 H   0  0  0  0  0  0  0  0  0  0  0  0
   61.2030   28.7500   48.4790 H   0  0  0  0  0  0  0  0  0  0  0  0
   60.6460   31.1250   46.4540 H   0  0  0  0  0  0  0  0  0  0  0  0
   59.9407   30.4146   44.2604 H   0  0  0  0  0  0  0  0  0  0  0  0
   57.5697   31.1814   45.9345 H   0  0  0  0  0  0  0  0  0  0  0  0
   58.1260   31.8626   44.3984 H   0  0  0  0  0  0  0  0  0  0  0  0
   57.1534   27.5307   44.5074 H   0  0  0  0  0  0  0  0  0  0  0  0
   58.0991   28.0632   43.1079 H   0  0  0  0  0  0  0  0  0  0  0  0
   59.8161   28.0407   44.6450 H   0  0  0  0  0  0  0  0  0  0  0  0
   61.7071   29.4310   50.7720 H   0  0  0  0  0  0  0  0  0  0  0  0
   60.9943   30.6044   52.8525 H   0  0  0  0  0  0  0  0  0  0  0  0
   62.3055   33.2659   52.0633 H   0  0  0  0  0  0  0  0  0  0  0  0
   63.2817   32.7295   49.8305 H   0  0  0  0  0  0  0  0  0  0  0  0
  1  2  1  0
  2  3  2  0
  2  4  2  0
  2  5  1  0
  5  6  2  0
  6  7  1  0
  7  8  2  0
  8  9  1  0
  9 10  1  0
 10 11  2  0
 10 12  1  0
 12 13  1  0
 13 14  2  0
 14 15  1  0
 15 16  2  0
 16 17  1  0
 17 18  2  3
 18 19  1  0
 19 20  1  0
 20 21  1  0
 21 22  1  0
 22 23  2  0
 22 24  2  0
 22 25  1  0
 25 26  1  0
 26 27  1  0
 16 28  1  0
 28 29  2  0
  8 30  1  0
 30 31  2  0
 31  5  1  0
 29 13  1  0
 27 18  1  0
 26 20  1  0
  1 32  1  0
  6 33  1  0
  7 34  1  0
 12 35  1  0
 12 36  1  0
 14 37  1  0
 15 38  1  0
 17 39  1  0
 19 40  1  0
 20 41  1  6
 21 42  1  0
 21 43  1  0
 25 44  1  0
 25 45  1  0
 26 46  1  6
 28 47  1  0
 29 48  1  0
 30 49  1  0
 31 50  1  0
M  CHG  3   1  -1   9  -1  17   1
M  END
>  <UniqueID>  (22) 
21

>  <SMILES>  (22) 
[NH-]S(=O)(=O)c1ccc([N-]C(=O)Cc2ccc([NH+]=C3N[C@@H]4CS(=O)(=O)C[C@@H]4S3)cc2)cc1

>  <Energy>  (22) 
68.6370612391516

>  <Genealogy>  (22) 
[NH-]S(=O)(=O)c1ccc([N-]C(=O)Cc2ccc([NH+]=C3NC4CS(=O)(=O)CC4S3)cc2)cc1 (protonated)
[NH-]S(=O)(=O)c1ccc([N-]C(=O)Cc2ccc([NH+]=C3N[C@@H]4CS(=O)(=O)C[C@@H]4S3)cc2)cc1 (chirality)
[NH-]S(=O)(=O)c1ccc([N-]C(=O)Cc2ccc([NH+]=C3N[C@@H]4CS(=O)(=O)C[C@@H]4S3)cc2)cc1 (3D coordinates assigned)
[NH-]S(=O)(=O)c1ccc([N-]C(=O)Cc2ccc([NH+]=C3N[C@@H]4CS(=O)(=O)C[C@@H]4S3)cc2)cc1 (nonaromatic ring conformer: 68.6370612391516 kcal/mol)

>  <smiles>  (22) 
NS(=O)(=O)c1ccc(NC(=O)Cc2ccc(N=C3NC4CS(=O)(=O)CC4S3)cc2)cc1

>  <score_type>  (22) 
oracle

>  <origin>  (22) 
adg

>  <m_score__min__energy>  (22) 
-11.66

>  <m_primary>  (22) 
energy

$$$$
22:0
     RDKit          3D

 42 44  0  0  0  0  0  0  0  0999 V2000
   56.3860   23.7780   43.3750 C   0  0  0  0  0  0  0  0  0  0  0  0
   55.2820   23.0240   44.1160 C   0  0  0  0  0  0  0  0  0  0  0  0
   54.4260   23.9430   45.0000 C   0  0  0  0  0  0  0  0  0  0  0  0
   54.9730   24.0680   46.4290 C   0  0  0  0  0  0  0  0  0  0  0  0
   56.2660   24.7790   46.4190 N   0  0  0  0  0  0  0  0  0  0  0  0
   56.3170   26.0900   46.0070 C   0  0  0  0  0  0  0  0  0  0  0  0
   55.1500   26.7500   45.6260 O   0  0  0  0  0  0  0  0  0  0  0  0
   57.5410   26.7840   45.9730 C   0  0  0  0  0  0  0  0  0  0  0  0
   57.5920   28.1940   45.5340 C   0  0  0  0  0  0  0  0  0  0  0  0
   58.1170   29.0760   46.3410 N   0  0  0  0  0  0  0  0  0  0  0  0
   58.2680   30.4860   46.0990 C   0  0  0  0  0  0  0  0  0  0  0  0
   59.0650   31.2430   46.9670 C   0  0  0  0  0  0  0  0  0  0  0  0
   59.2010   32.6230   46.7790 C   0  0  0  0  0  0  0  0  0  0  0  0
   58.5300   33.2560   45.7300 C   0  0  0  0  0  0  0  0  0  0  0  0
   57.7210   32.5130   44.8670 C   0  0  0  0  0  0  0  0  0  0  0  0
   57.5890   31.1310   45.0500 C   0  0  0  0  0  0  0  0  0  0  0  0
   56.5730   30.1790   43.9990 S   0  0  0  0  0  0  0  0  0  0  0  0
   56.6670   30.6650   42.5800 O   0  0  0  0  0  0  0  0  0  0  0  0
   55.1470   30.2230   44.4700 O   0  0  0  0  0  0  0  0  0  0  0  0
   57.2140   28.5290   44.1100 C   0  0  0  0  0  0  0  0  0  0  0  0
   58.7160   26.1100   46.3370 C   0  0  0  0  0  0  0  0  0  0  0  0
   59.9490   26.7590   46.2770 O   0  0  0  0  0  0  0  0  0  0  0  0
   58.6490   24.7770   46.7390 C   0  0  0  0  0  0  0  0  0  0  0  0
   57.4180   24.1200   46.7690 C   0  0  0  0  0  0  0  0  0  0  0  0
   57.3870   22.9070   47.1160 O   0  0  0  0  0  0  0  0  0  0  0  0
   57.0660   24.2424   44.1043 H   0  0  0  0  0  0  0  0  0  0  0  0
   56.9498   23.0754   42.7437 H   0  0  0  0  0  0  0  0  0  0  0  0
   55.9367   24.5588   42.7437 H   0  0  0  0  0  0  0  0  0  0  0  0
   54.6285   22.5399   43.3754 H   0  0  0  0  0  0  0  0  0  0  0  0
   55.7669   22.2879   44.7741 H   0  0  0  0  0  0  0  0  0  0  0  0
   54.3990   24.9440   44.5447 H   0  0  0  0  0  0  0  0  0  0  0  0
   53.4217   23.4991   45.0663 H   0  0  0  0  0  0  0  0  0  0  0  0
   54.2548   24.6286   47.0453 H   0  0  0  0  0  0  0  0  0  0  0  0
   55.1202   23.0610   46.8465 H   0  0  0  0  0  0  0  0  0  0  0  0
   59.5867   30.7503   47.8007 H   0  0  0  0  0  0  0  0  0  0  0  0
   59.8370   33.2099   47.4580 H   0  0  0  0  0  0  0  0  0  0  0  0
   58.6388   34.3407   45.5834 H   0  0  0  0  0  0  0  0  0  0  0  0
   57.1883   33.0129   44.0446 H   0  0  0  0  0  0  0  0  0  0  0  0
   56.4470   27.8203   43.7644 H   0  0  0  0  0  0  0  0  0  0  0  0
   58.1134   28.4575   43.4807 H   0  0  0  0  0  0  0  0  0  0  0  0
   60.0190   27.7710   46.2850 H   0  0  0  0  0  0  0  0  0  0  0  0
   59.5652   24.2435   47.0322 H   0  0  0  0  0  0  0  0  0  0  0  0
  1  2  1  0
  2  3  1  0
  3  4  1  0
  4  5  1  0
  5  6  1  0
  6  7  1  0
  6  8  2  0
  8  9  1  0
  9 10  2  0
 10 11  1  0
 11 12  2  0
 12 13  1  0
 13 14  2  0
 14 15  1  0
 15 16  2  0
 16 17  1  0
 17 18  2  0
 17 19  2  0
 17 20  1  0
  8 21  1  0
 21 22  1  0
 21 23  2  0
 23 24  1  0
 24 25  2  0
 24  5  1  0
 20  9  1  0
 16 11  1  0
  1 26  1  0
  1 27  1  0
  1 28  1  0
  2 29  1  0
  2 30  1  0
  3 31  1  0
  3 32  1  0
  4 33  1  0
  4 34  1  0
 12 35  1  0
 13 36  1  0
 14 37  1  0
 15 38  1  0
 20 39  1  0
 20 40  1  0
 22 41  1  0
 23 42  1  0
M  CHG  1   7  -1
M  END
>  <UniqueID>  (23) 
22

>  <SMILES>  (23) 
CCCCn1c([O-])c(C2=Nc3ccccc3S(=O)(=O)C2)c(O)cc1=O

>  <Energy>  (23) 
50.99010949845979

>  <Genealogy>  (23) 
CCCCn1c([O-])c(C2=Nc3ccccc3S(=O)(=O)C2)c(O)cc1=O (protonated)
CCCCn1c([O-])c(C2=Nc3ccccc3S(=O)(=O)C2)c(O)cc1=O (3D coordinates assigned)
CCCCn1c([O-])c(C2=Nc3ccccc3S(=O)(=O)C2)c(O)cc1=O (nonaromatic ring conformer: 50.99010949845979 kcal/mol)

>  <smiles>  (23) 
CCCCn1c(O)c(C2=Nc3ccccc3S(=O)(=O)C2)c(O)cc1=O

>  <score_type>  (23) 
oracle

>  <origin>  (23) 
adg

>  <m_score__min__energy>  (23) 
-11.44

>  <m_primary>  (23) 
energy

$$$$
23:0
     RDKit          3D

 43 46  0  0  0  0  0  0  0  0999 V2000
   56.5420   26.8840   46.7660 O   0  0  0  0  0  0  0  0  0  0  0  0
   57.0270   26.4780   45.6780 C   0  0  0  0  0  0  0  0  0  0  0  0
   57.1990   25.1470   45.3810 O   0  0  0  0  0  0  0  0  0  0  0  0
   57.7120   25.0110   44.0590 C   0  0  1  0  0  0  0  0  0  0  0  0
   56.8110   24.0900   43.2310 C   0  0  0  0  0  0  0  0  0  0  0  0
   56.9790   22.7030   43.6520 N   0  0  0  0  0  0  0  0  0  0  0  0
   57.4690   22.2730   44.8300 C   0  0  0  0  0  0  0  0  0  0  0  0
   57.3780   20.8970   44.8150 C   0  0  0  0  0  0  0  0  0  0  0  0
   56.8300   20.5490   43.6350 N   0  0  0  0  0  0  0  0  0  0  0  0
   56.5890   21.6530   42.9470 N   0  0  0  0  0  0  0  0  0  0  0  0
   57.7670   26.4570   43.4890 C   0  0  0  0  0  0  0  0  0  0  0  0
   57.3870   27.3240   44.6000 N   0  0  0  0  0  0  0  0  0  0  0  0
   57.4320   28.7660   44.5930 C   0  0  0  0  0  0  0  0  0  0  0  0
   57.7690   29.4830   45.7530 C   0  0  0  0  0  0  0  0  0  0  0  0
   57.8210   30.8790   45.7350 C   0  0  0  0  0  0  0  0  0  0  0  0
   57.5500   31.5860   44.5540 C   0  0  0  0  0  0  0  0  0  0  0  0
   57.5700   33.0930   44.5580 C   0  0  0  0  0  0  0  0  0  0  0  0
   58.5060   33.6000   45.6210 C   0  0  0  0  0  0  0  0  0  0  0  0
   59.8520   33.8540   45.3180 C   0  0  0  0  0  0  0  0  0  0  0  0
   60.7140   34.2920   46.3260 C   0  0  0  0  0  0  0  0  0  0  0  0
   60.2510   34.4630   47.5930 N   0  0  0  0  0  0  0  0  0  0  0  0
   58.9540   34.2150   47.9170 C   0  0  0  0  0  0  0  0  0  0  0  0
   58.0590   33.7750   46.9390 C   0  0  0  0  0  0  0  0  0  0  0  0
   57.2150   30.8730   43.3900 C   0  0  0  0  0  0  0  0  0  0  0  0
   56.9350   31.5270   42.2340 F   0  0  0  0  0  0  0  0  0  0  0  0
   57.1660   29.4760   43.4100 C   0  0  0  0  0  0  0  0  0  0  0  0
   58.7095   24.5479   44.0362 H   0  0  0  0  0  0  0  0  0  0  0  0
   55.7613   24.3872   43.3719 H   0  0  0  0  0  0  0  0  0  0  0  0
   57.0889   24.1776   42.1703 H   0  0  0  0  0  0  0  0  0  0  0  0
   57.8645   22.8971   45.6449 H   0  0  0  0  0  0  0  0  0  0  0  0
   57.6936   20.2125   45.6161 H   0  0  0  0  0  0  0  0  0  0  0  0
   56.6160   19.5820   43.3050 H   0  0  0  0  0  0  0  0  0  0  0  0
   58.7835   26.6965   43.1436 H   0  0  0  0  0  0  0  0  0  0  0  0
   57.0990   26.5824   42.6241 H   0  0  0  0  0  0  0  0  0  0  0  0
   57.9938   28.9408   46.6833 H   0  0  0  0  0  0  0  0  0  0  0  0
   58.0763   31.4278   46.6535 H   0  0  0  0  0  0  0  0  0  0  0  0
   57.9074   33.4540   43.5752 H   0  0  0  0  0  0  0  0  0  0  0  0
   56.5558   33.4637   44.7679 H   0  0  0  0  0  0  0  0  0  0  0  0
   60.2260   33.7092   44.2937 H   0  0  0  0  0  0  0  0  0  0  0  0
   61.7693   34.4990   46.0945 H   0  0  0  0  0  0  0  0  0  0  0  0
   58.6089   34.3611   48.9512 H   0  0  0  0  0  0  0  0  0  0  0  0
   57.0110   33.5672   47.2006 H   0  0  0  0  0  0  0  0  0  0  0  0
   56.9166   28.9269   42.4901 H   0  0  0  0  0  0  0  0  0  0  0  0
  1  2  2  0
  2  3  1  0
  3  4  1  0
  4  5  1  0
  5  6  1  0
  6  7  1  0
  7  8  2  0
  8  9  1  0
  9 10  2  0
  4 11  1  0
 11 12  1  0
 12 13  1  0
 13 14  2  0
 14 15  1  0
 15 16  2  0
 16 17  1  0
 17 18  1  0
 18 19  2  0
 19 20  1  0
 20 21  2  0
 21 22  1  0
 22 23  2  0
 16 24  1  0
 24 25  1  0
 24 26  2  0
 12  2  1  0
 26 13  1  0
 10  6  1  0
 23 18  1  0
  4 27  1  1
  5 28  1  0
  5 29  1  0
  7 30  1  0
  8 31  1  0
  9 32  1  0
 11 33  1  0
 11 34  1  0
 14 35  1  0
 15 36  1  0
 17 37  1  0
 17 38  1  0
 19 39  1  0
 20 40  1  0
 22 41  1  0
 23 42  1  0
 26 43  1  0
M  CHG  1   9   1
M  END
>  <UniqueID>  (24) 
23

>  <SMILES>  (24) 
O=C1O[C@@H](Cn2cc[nH+]n2)CN1c1ccc(Cc2ccncc2)c(F)c1

>  <Energy>  (24) 
97.89703822096139

>  <Genealogy>  (24) 
O=C1OC(Cn2cc[nH+]n2)CN1c1ccc(Cc2ccncc2)c(F)c1 (protonated)
O=C1O[C@@H](Cn2cc[nH+]n2)CN1c1ccc(Cc2ccncc2)c(F)c1 (chirality)
O=C1O[C@@H](Cn2cc[nH+]n2)CN1c1ccc(Cc2ccncc2)c(F)c1 (3D coordinates assigned)
O=C1O[C@@H](Cn2cc[nH+]n2)CN1c1ccc(Cc2ccncc2)c(F)c1 (nonaromatic ring conformer: 97.89703822096139 kcal/mol)

>  <smiles>  (24) 
O=C1OC(Cn2ccnn2)CN1c1ccc(Cc2ccncc2)c(F)c1

>  <score_type>  (24) 
oracle

>  <origin>  (24) 
adg

>  <m_score__min__energy>  (24) 
-7.0899999999999999

>  <m_primary>  (24) 
energy

$$$$
24:0
     RDKit          3D

 41 43  0  0  0  0  0  0  0  0999 V2000
   55.1650   29.2950   44.8630 N   0  0  0  0  0  0  0  0  0  0  0  0
   56.5220   29.7210   44.9770 C   0  0  0  0  0  0  0  0  0  0  0  0
   56.7930   30.9470   44.8690 O   0  0  0  0  0  0  0  0  0  0  0  0
   57.5880   28.7350   45.2720 C   0  0  0  0  0  0  0  0  0  0  0  0
   57.3910   27.4110   44.8410 C   0  0  0  0  0  0  0  0  0  0  0  0
   58.2990   26.4100   45.1760 C   0  0  0  0  0  0  0  0  0  0  0  0
   59.4080   26.7100   45.9580 C   0  0  0  0  0  0  0  0  0  0  0  0
   59.6340   28.0190   46.3800 C   0  0  0  0  0  0  0  0  0  0  0  0
   58.7700   29.0720   46.0020 C   0  0  0  0  0  0  0  0  0  0  0  0
   59.0340   30.4550   46.3920 N   0  0  0  0  0  0  0  0  0  0  0  0
   59.9970   30.6890   47.5060 C   0  0  0  0  0  0  0  0  0  0  0  0
   59.3010   30.8160   48.8630 C   0  0  0  0  0  0  0  0  0  0  0  0
   58.7610   32.0330   49.3330 C   0  0  0  0  0  0  0  0  0  0  0  0
   58.1120   32.0920   50.5690 C   0  0  0  0  0  0  0  0  0  0  0  0
   57.9920   30.9440   51.3550 C   0  0  0  0  0  0  0  0  0  0  0  0
   58.5230   29.7330   50.9050 C   0  0  0  0  0  0  0  0  0  0  0  0
   59.1730   29.6680   49.6690 C   0  0  0  0  0  0  0  0  0  0  0  0
   61.0690   31.7510   47.2290 C   0  0  0  0  0  0  0  0  0  0  0  0
   60.6520   32.9960   46.7120 C   0  0  0  0  0  0  0  0  0  0  0  0
   61.5770   34.0120   46.4560 C   0  0  0  0  0  0  0  0  0  0  0  0
   62.9300   33.8090   46.7230 C   0  0  0  0  0  0  0  0  0  0  0  0
   63.3620   32.5920   47.2520 C   0  0  0  0  0  0  0  0  0  0  0  0
   62.4420   31.5710   47.5100 C   0  0  0  0  0  0  0  0  0  0  0  0
   54.5180   29.3400   45.6820 H   0  0  0  0  0  0  0  0  0  0  0  0
   56.5091   27.1632   44.2320 H   0  0  0  0  0  0  0  0  0  0  0  0
   58.1385   25.3811   44.8215 H   0  0  0  0  0  0  0  0  0  0  0  0
   60.1092   25.9124   46.2446 H   0  0  0  0  0  0  0  0  0  0  0  0
   60.5018   28.2370   47.0198 H   0  0  0  0  0  0  0  0  0  0  0  0
   58.1300   30.9500   46.5630 H   0  0  0  0  0  0  0  0  0  0  0  0
   59.4620   30.9390   45.5710 H   0  0  0  0  0  0  0  0  0  0  0  0
   60.5956   29.7682   47.5670 H   0  0  0  0  0  0  0  0  0  0  0  0
   58.8520   32.9424   48.7209 H   0  0  0  0  0  0  0  0  0  0  0  0
   57.6943   33.0457   50.9240 H   0  0  0  0  0  0  0  0  0  0  0  0
   57.4799   30.9933   52.3273 H   0  0  0  0  0  0  0  0  0  0  0  0
   58.4296   28.8287   51.5243 H   0  0  0  0  0  0  0  0  0  0  0  0
   59.5888   28.7104   49.3223 H   0  0  0  0  0  0  0  0  0  0  0  0
   59.5851   33.1691   46.5078 H   0  0  0  0  0  0  0  0  0  0  0  0
   61.2368   34.9732   46.0432 H   0  0  0  0  0  0  0  0  0  0  0  0
   63.6572   34.6081   46.5167 H   0  0  0  0  0  0  0  0  0  0  0  0
   64.4294   32.4354   47.4667 H   0  0  0  0  0  0  0  0  0  0  0  0
   62.7905   30.6185   47.9358 H   0  0  0  0  0  0  0  0  0  0  0  0
  1  2  1  0
  2  3  2  0
  2  4  1  0
  4  5  2  0
  5  6  1  0
  6  7  2  0
  7  8  1  0
  8  9  2  0
  9 10  1  0
 10 11  1  0
 11 12  1  0
 12 13  2  0
 13 14  1  0
 14 15  2  0
 15 16  1  0
 16 17  2  0
 11 18  1  0
 18 19  2  0
 19 20  1  0
 20 21  2  0
 21 22  1  0
 22 23  2  0
  9  4  1  0
 17 12  1  0
 23 18  1  0
  1 24  1  0
  5 25  1  0
  6 26  1  0
  7 27  1  0
  8 28  1  0
 10 29  1  0
 10 30  1  0
 11 31  1  0
 13 32  1  0
 14 33  1  0
 15 34  1  0
 16 35  1  0
 17 36  1  0
 19 37  1  0
 20 38  1  0
 21 39  1  0
 22 40  1  0
 23 41  1  0
M  CHG  2   1  -1  10   1
M  END
>  <UniqueID>  (25) 
24

>  <SMILES>  (25) 
[NH-]C(=O)c1ccccc1[NH2+]C(c1ccccc1)c1ccccc1

>  <Energy>  (25) 
67.03714375532985

>  <Genealogy>  (25) 
[NH-]C(=O)c1ccccc1[NH2+]C(c1ccccc1)c1ccccc1 (protonated)
[NH-]C(=O)c1ccccc1[NH2+]C(c1ccccc1)c1ccccc1 (3D coordinates assigned)
[NH-]C(=O)c1ccccc1[NH2+]C(c1ccccc1)c1ccccc1 (optimized conformer: 67.03714375532985 kcal/mol)

>  <smiles>  (25) 
NC(=O)c1ccccc1NC(c1ccccc1)c1ccccc1

>  <score_type>  (25) 
oracle

>  <origin>  (25) 
adg

>  <m_score__min__energy>  (25) 
-9.1799999999999997

>  <m_primary>  (25) 
energy

$$$$
25:0
     RDKit          3D

 47 49  0  0  1  0  0  0  0  0999 V2000
   61.1370   26.2390   46.3920 C   0  0  0  0  0  0  0  0  0  0  0  0
   59.9160   26.2990   45.7200 O   0  0  0  0  0  0  0  0  0  0  0  0
   59.2070   27.4880   45.5320 C   0  0  0  0  0  0  0  0  0  0  0  0
   59.7740   28.5180   44.8090 C   0  0  0  0  0  0  0  0  0  0  0  0
   59.0910   29.6980   44.6120 C   0  0  0  0  0  0  0  0  0  0  0  0
   57.8060   29.8580   45.1500 C   0  0  0  0  0  0  0  0  0  0  0  0
   57.1050   31.0720   44.9500 N   0  0  0  0  0  0  0  0  0  0  0  0
   57.7060   32.1680   45.2500 C   0  0  0  0  0  0  0  0  0  0  0  0
   58.1960   32.4580   46.4670 N   0  0  0  0  0  0  0  0  0  0  0  0
   58.8080   33.6350   46.7000 C   0  0  0  0  0  0  0  0  0  0  0  0
   59.2540   33.8560   47.8860 N   0  0  0  0  0  0  0  0  0  0  0  0
   60.6450   33.7680   48.1760 C   0  0  0  0  0  0  0  0  0  0  0  0
   61.4520   33.2240   47.1990 C   0  0  0  0  0  0  0  0  0  0  0  0
   62.8070   33.1230   47.4470 C   0  0  0  0  0  0  0  0  0  0  0  0
   63.3860   33.5450   48.6310 C   0  0  0  0  0  0  0  0  0  0  0  0
   64.7540   33.4110   48.8080 O   0  0  0  0  0  0  0  0  0  0  0  0
   62.5570   34.0930   49.6110 C   0  0  0  0  0  0  0  0  0  0  0  0
   61.1990   34.1960   49.3650 C   0  0  0  0  0  0  0  0  0  0  0  0
   58.9710   34.5830   45.7580 N   0  0  0  0  0  0  0  0  0  0  0  0
   58.4800   34.2960   44.5300 C   0  0  0  0  0  0  0  0  0  0  0  0
   57.8450   33.1120   44.2310 C   0  0  0  0  0  0  0  0  0  0  0  0
   57.3890   32.9100   42.9870 F   0  0  0  0  0  0  0  0  0  0  0  0
   57.2780   28.7950   45.8700 C   0  0  0  0  0  0  0  0  0  0  0  0
   57.9610   27.6130   46.0670 C   0  0  0  0  0  0  0  0  0  0  0  0
   57.3730   26.5580   46.8160 N   0  0  0  0  0  0  0  0  0  0  0  0
   56.1730   25.5100   46.1650 S   0  0  0  0  0  0  0  0  0  0  0  0
   56.6490   24.7430   44.6600 C   0  0  0  0  0  0  0  0  0  0  0  0
   54.8910   26.3110   45.9880 O   0  0  0  0  0  0  0  0  0  0  0  0
   55.8340   24.4350   47.1570 O   0  0  0  0  0  0  0  0  0  0  0  0
   60.9589   26.2477   47.4775 H   0  0  0  0  0  0  0  0  0  0  0  0
   61.6633   25.3139   46.1142 H   0  0  0  0  0  0  0  0  0  0  0  0
   61.7515   27.1080   46.1142 H   0  0  0  0  0  0  0  0  0  0  0  0
   60.7818   28.3953   44.3857 H   0  0  0  0  0  0  0  0  0  0  0  0
   59.5524   30.5125   44.0343 H   0  0  0  0  0  0  0  0  0  0  0  0
   58.1090   31.7820   47.2290 H   0  0  0  0  0  0  0  0  0  0  0  0
   61.0268   32.8788   46.2451 H   0  0  0  0  0  0  0  0  0  0  0  0
   63.4535   32.6886   46.6702 H   0  0  0  0  0  0  0  0  0  0  0  0
   65.3280   33.0090   48.0770 H   0  0  0  0  0  0  0  0  0  0  0  0
   62.9777   34.4387   50.5668 H   0  0  0  0  0  0  0  0  0  0  0  0
   60.5454   34.6296   50.1362 H   0  0  0  0  0  0  0  0  0  0  0  0
   59.4460   35.4960   45.9390 H   0  0  0  0  0  0  0  0  0  0  0  0
   58.5939   35.0450   43.7325 H   0  0  0  0  0  0  0  0  0  0  0  0
   56.2718   28.8999   46.3019 H   0  0  0  0  0  0  0  0  0  0  0  0
   57.6890   26.4120   47.8150 H   0  0  0  0  0  0  0  0  0  0  0  0
   57.2174   23.8271   44.8790 H   0  0  0  0  0  0  0  0  0  0  0  0
   55.7508   24.4870   44.0788 H   0  0  0  0  0  0  0  0  0  0  0  0
   57.2771   25.4342   44.0788 H   0  0  0  0  0  0  0  0  0  0  0  0
  1  2  1  0
  2  3  1  0
  3  4  2  0
  4  5  1  0
  5  6  2  0
  6  7  1  0
  7  8  2  0
  8  9  1  0
  9 10  1  0
 10 11  2  0
 11 12  1  0
 12 13  2  0
 13 14  1  0
 14 15  2  0
 15 16  1  0
 15 17  1  0
 17 18  2  0
 10 19  1  0
 19 20  1  0
 20 21  2  0
 21 22  1  0
  6 23  1  0
 23 24  2  0
 24 25  1  0
 25 26  1  0
 26 27  1  0
 26 28  2  0
 26 29  2  0
 24  3  1  0
 21  8  1  0
 18 12  1  0
  1 30  1  0
  1 31  1  0
  1 32  1  0
  4 33  1  0
  5 34  1  0
  9 35  1  0
 13 36  1  0
 14 37  1  0
 16 38  1  0
 17 39  1  0
 18 40  1  0
 19 41  1  0
 20 42  1  0
 23 43  1  0
 25 44  1  0
 27 45  1  0
 27 46  1  0
 27 47  1  0
M  END
>  <smiles>  (26) 
COc1ccc(N=c2[nH]c(=Nc3ccc(O)cc3)[nH]cc2F)cc1NS(C)(=O)=O

>  <score_type>  (26) 
oracle

>  <origin>  (26) 
adg

>  <m_score__min__energy>  (26) 
-8.4700000000000006

>  <m_primary>  (26) 
energy

$$$$
26:0
     RDKit          3D

 38 40  0  0  0  0  0  0  0  0999 V2000
   56.0254   25.3221   46.4289 H   0  0  0  0  0  0  0  0  0  0  0  0
   56.5720   26.2310   46.1370 C   0  0  0  0  0  0  0  0  0  0  0  0
   55.8960   27.2970   45.6350 N   0  0  0  0  0  0  0  0  0  0  0  0
   56.5320   28.4430   45.2560 C   0  0  0  0  0  0  0  0  0  0  0  0
   55.8650   29.4610   44.7930 N   0  0  0  0  0  0  0  0  0  0  0  0
   56.3100   30.3580   43.7630 C   0  0  0  0  0  0  0  0  0  0  0  0
   55.9060   30.1760   42.5840 O   0  0  0  0  0  0  0  0  0  0  0  0
   57.1750   31.5230   44.0660 C   0  0  0  0  0  0  0  0  0  0  0  0
   57.3910   31.9020   45.3990 C   0  0  0  0  0  0  0  0  0  0  0  0
   56.8914   31.3550   46.2122 H   0  0  0  0  0  0  0  0  0  0  0  0
   58.2370   32.9700   45.6970 C   0  0  0  0  0  0  0  0  0  0  0  0
   58.5270   33.4500   47.4000 S   0  0  0  0  0  0  0  0  0  0  0  0
   60.2510   32.9620   47.3500 C   0  0  0  0  0  0  0  0  0  0  0  0
   60.5990   31.6120   47.4990 C   0  0  0  0  0  0  0  0  0  0  0  0
   59.8136   30.8536   47.6333 H   0  0  0  0  0  0  0  0  0  0  0  0
   61.9430   31.2290   47.4770 C   0  0  0  0  0  0  0  0  0  0  0  0
   62.2149   30.1705   47.6022 H   0  0  0  0  0  0  0  0  0  0  0  0
   62.9420   32.1900   47.2960 C   0  0  0  0  0  0  0  0  0  0  0  0
   63.9992   31.8870   47.2724 H   0  0  0  0  0  0  0  0  0  0  0  0
   62.5970   33.5360   47.1450 C   0  0  0  0  0  0  0  0  0  0  0  0
   63.3833   34.2914   46.9999 H   0  0  0  0  0  0  0  0  0  0  0  0
   61.2540   33.9240   47.1780 C   0  0  0  0  0  0  0  0  0  0  0  0
   60.9853   34.9851   47.0688 H   0  0  0  0  0  0  0  0  0  0  0  0
   58.8490   33.6690   44.6550 C   0  0  0  0  0  0  0  0  0  0  0  0
   59.5226   34.5093   44.8790 H   0  0  0  0  0  0  0  0  0  0  0  0
   58.6140   33.3130   43.3630 N   0  0  0  0  0  0  0  0  0  0  0  0
   59.0800   33.8550   42.6000 H   0  0  0  0  0  0  0  0  0  0  0  0
   57.8000   32.2670   43.0440 C   0  0  0  0  0  0  0  0  0  0  0  0
   57.6250   31.9630   41.8330 O   0  0  0  0  0  0  0  0  0  0  0  0
   57.9220   28.5390   45.3980 C   0  0  0  0  0  0  0  0  0  0  0  0
   58.4459   29.4590   45.0994 H   0  0  0  0  0  0  0  0  0  0  0  0
   58.6430   27.4560   45.9230 C   0  0  0  0  0  0  0  0  0  0  0  0
   60.1370   27.5200   46.0270 C   0  0  0  0  0  0  0  0  0  0  0  0
   60.4306   27.5326   47.0870 H   0  0  0  0  0  0  0  0  0  0  0  0
   60.5768   26.6399   45.5351 H   0  0  0  0  0  0  0  0  0  0  0  0
   60.5000   28.4345   45.5351 H   0  0  0  0  0  0  0  0  0  0  0  0
   57.9590   26.2870   46.2830 C   0  0  0  0  0  0  0  0  0  0  0  0
   58.5106   25.4208   46.6773 H   0  0  0  0  0  0  0  0  0  0  0  0
  1  2  1  0
  2  3  1  0
  3  4  1  0
  4  5  2  0
  5  6  1  0
  6  7  2  0
  6  8  1  0
  8  9  2  0
  9 10  1  0
  9 11  1  0
 11 12  1  0
 12 13  1  0
 13 14  2  0
 14 15  1  0
 14 16  1  0
 16 17  1  0
 16 18  2  0
 18 19  1  0
 18 20  1  0
 20 21  1  0
 20 22  2  0
 22 23  1  0
 11 24  2  0
 24 25  1  0
 24 26  1  0
 26 27  1  0
 26 28  1  0
 28 29  2  0
  4 30  1  0
 30 31  1  0
 30 32  2  0
 32 33  1  0
 33 34  1  0
 33 35  1  0
 33 36  1  0
 32 37  1  0
 37 38  1  0
 37  2  2  0
 28  8  1  0
 22 13  1  0
M  CHG  1   3  -1
M  END
>  <UniqueID>  (27) 
25

>  <SMILES>  (27) 
Cc1cc[n-]/c(=N\C(=O)c2cc(Sc3ccccc3)c[nH]c2=O)c1

>  <Energy>  (27) 
42.7740832932865

>  <Genealogy>  (27) 
Cc1cc[n-]c(=NC(=O)c2cc(Sc3ccccc3)c[nH]c2=O)c1 (protonated)
Cc1cc[n-]/c(=N\C(=O)c2cc(Sc3ccccc3)c[nH]c2=O)c1 (cis-trans isomerization)
Cc1cc[n-]/c(=N\C(=O)c2cc(Sc3ccccc3)c[nH]c2=O)c1 (3D coordinates assigned)
Cc1cc[n-]/c(=N\C(=O)c2cc(Sc3ccccc3)c[nH]c2=O)c1 (optimized conformer: 42.7740832932865 kcal/mol)

>  <smiles>  (27) 
Cc1cc[nH]c(=NC(=O)c2cc(Sc3ccccc3)c[nH]c2=O)c1

>  <score_type>  (27) 
oracle

>  <origin>  (27) 
adg

>  <m_score__min__energy>  (27) 
-10.08

>  <m_primary>  (27) 
energy

$$$$
27:0
     RDKit          3D

 63 66  0  0  0  0  0  0  0  0999 V2000
   56.3620   31.5740   44.8710 O   0  0  0  0  0  0  0  0  0  0  0  0
   57.6050   31.4750   45.0700 C   0  0  0  0  0  0  0  0  0  0  0  0
   58.4170   32.7250   45.3240 C   0  0  0  0  0  0  0  0  0  0  0  0
   58.7920   32.8960   46.7750 C   0  0  0  0  0  0  0  0  0  0  0  0
   58.2050   32.0900   47.7620 C   0  0  0  0  0  0  0  0  0  0  0  0
   58.5280   32.2730   49.1080 C   0  0  0  0  0  0  0  0  0  0  0  0
   59.4480   33.2660   49.4940 C   0  0  0  0  0  0  0  0  0  0  0  0
   59.7890   33.4630   50.9260 C   0  0  0  0  0  0  0  0  0  0  0  0
   58.7960   33.8280   51.8560 C   0  0  0  0  0  0  0  0  0  0  0  0
   59.1200   34.0130   53.2030 C   0  0  0  0  0  0  0  0  0  0  0  0
   60.4350   33.8370   53.6380 C   0  0  0  0  0  0  0  0  0  0  0  0
   61.4300   33.4750   52.7260 C   0  0  0  0  0  0  0  0  0  0  0  0
   61.1110   33.2880   51.3770 C   0  0  0  0  0  0  0  0  0  0  0  0
   60.0360   34.0690   48.5010 C   0  0  0  0  0  0  0  0  0  0  0  0
   59.7100   33.8860   47.1540 C   0  0  0  0  0  0  0  0  0  0  0  0
   58.2300   30.1680   45.0660 N   0  0  0  0  0  0  0  0  0  0  0  0
   57.4700   28.9740   44.6780 C   0  0  0  0  0  0  0  0  0  0  0  0
   57.7160   27.8240   45.6670 C   0  0  0  0  0  0  0  0  0  0  0  0
   59.0780   27.8250   46.2460 N   0  0  0  0  0  0  0  0  0  0  0  0
   59.1690   27.8370   47.7230 C   0  0  0  0  0  0  0  0  0  0  0  0
   59.3870   29.2250   48.3410 C   0  0  0  0  0  0  0  0  0  0  0  0
   60.7230   29.6680   48.1250 O   0  0  0  0  0  0  0  0  0  0  0  0
   61.4440   30.4240   49.0530 C   0  0  0  0  0  0  0  0  0  0  0  0
   61.2920   30.2210   50.2890 O   0  0  0  0  0  0  0  0  0  0  0  0
   62.3620   31.4330   48.5910 N   0  0  0  0  0  0  0  0  0  0  0  0
   63.4030   31.9540   49.4840 C   0  0  0  0  0  0  0  0  0  0  0  0
   63.8080   33.3650   49.0530 C   0  0  0  0  0  0  0  0  0  0  0  0
   64.1370   33.3940   47.6780 O   0  0  0  0  0  0  0  0  0  0  0  0
   62.9830   33.1150   46.9080 C   0  0  0  0  0  0  0  0  0  0  0  0
   62.4980   31.6830   47.1510 C   0  0  0  0  0  0  0  0  0  0  0  0
   60.1060   28.5860   45.5080 C   0  0  0  0  0  0  0  0  0  0  0  0
   59.6840   30.0380   45.2280 C   0  0  0  0  0  0  0  0  0  0  0  0
   59.3393   32.6719   44.7269 H   0  0  0  0  0  0  0  0  0  0  0  0
   57.7948   33.5865   45.0399 H   0  0  0  0  0  0  0  0  0  0  0  0
   57.4859   31.3091   47.4737 H   0  0  0  0  0  0  0  0  0  0  0  0
   58.0598   31.6361   49.8729 H   0  0  0  0  0  0  0  0  0  0  0  0
   57.7581   33.9684   51.5197 H   0  0  0  0  0  0  0  0  0  0  0  0
   58.3375   34.2978   53.9217 H   0  0  0  0  0  0  0  0  0  0  0  0
   60.6878   33.9833   54.6985 H   0  0  0  0  0  0  0  0  0  0  0  0
   62.4658   33.3369   53.0696 H   0  0  0  0  0  0  0  0  0  0  0  0
   61.8983   33.0023   50.6639 H   0  0  0  0  0  0  0  0  0  0  0  0
   60.7586   34.8477   48.7864 H   0  0  0  0  0  0  0  0  0  0  0  0
   60.1761   34.5221   46.3871 H   0  0  0  0  0  0  0  0  0  0  0  0
   56.3973   29.2172   44.6676 H   0  0  0  0  0  0  0  0  0  0  0  0
   57.8007   28.6556   43.6784 H   0  0  0  0  0  0  0  0  0  0  0  0
   56.9886   27.9090   46.4878 H   0  0  0  0  0  0  0  0  0  0  0  0
   57.6035   26.8847   45.1057 H   0  0  0  0  0  0  0  0  0  0  0  0
   58.2326   27.4252   48.1273 H   0  0  0  0  0  0  0  0  0  0  0  0
   60.0538   27.2380   47.9846 H   0  0  0  0  0  0  0  0  0  0  0  0
   58.6904   29.9397   47.8784 H   0  0  0  0  0  0  0  0  0  0  0  0
   59.2060   29.1622   49.4242 H   0  0  0  0  0  0  0  0  0  0  0  0
   63.0170   31.9849   50.5136 H   0  0  0  0  0  0  0  0  0  0  0  0
   64.2829   31.2958   49.4335 H   0  0  0  0  0  0  0  0  0  0  0  0
   62.9701   34.0533   49.2381 H   0  0  0  0  0  0  0  0  0  0  0  0
   64.6904   33.6719   49.6337 H   0  0  0  0  0  0  0  0  0  0  0  0
   62.1846   33.8181   47.1876 H   0  0  0  0  0  0  0  0  0  0  0  0
   63.2356   33.2249   45.8431 H   0  0  0  0  0  0  0  0  0  0  0  0
   61.5220   31.5420   46.6637 H   0  0  0  0  0  0  0  0  0  0  0  0
   63.2316   30.9788   46.7315 H   0  0  0  0  0  0  0  0  0  0  0  0
   61.0307   28.5971   46.1037 H   0  0  0  0  0  0  0  0  0  0  0  0
   60.2528   28.0900   44.5372 H   0  0  0  0  0  0  0  0  0  0  0  0
   60.0053   30.6695   46.0694 H   0  0  0  0  0  0  0  0  0  0  0  0
   60.1598   30.3544   44.2880 H   0  0  0  0  0  0  0  0  0  0  0  0
  1  2  2  0
  2  3  1  0
  3  4  1  0
  4  5  2  0
  5  6  1  0
  6  7  2  0
  7  8  1  0
  8  9  2  0
  9 10  1  0
 10 11  2  0
 11 12  1  0
 12 13  2  0
  7 14  1  0
 14 15  2  0
  2 16  1  0
 16 17  1  0
 17 18  1  0
 18 19  1  0
 19 20  1  0
 20 21  1  0
 21 22  1  0
 22 23  1  0
 23 24  2  0
 23 25  1  0
 25 26  1  0
 26 27  1  0
 27 28  1  0
 28 29  1  0
 29 30  1  0
 19 31  1  0
 31 32  1  0
 15  4  1  0
 32 16  1  0
 13  8  1  0
 30 25  1  0
  3 33  1  0
  3 34  1  0
  5 35  1  0
  6 36  1  0
  9 37  1  0
 10 38  1  0
 11 39  1  0
 12 40  1  0
 13 41  1  0
 14 42  1  0
 15 43  1  0
 17 44  1  0
 17 45  1  0
 18 46  1  0
 18 47  1  0
 20 48  1  0
 20 49  1  0
 21 50  1  0
 21 51  1  0
 26 52  1  0
 26 53  1  0
 27 54  1  0
 27 55  1  0
 29 56  1  0
 29 57  1  0
 30 58  1  0
 30 59  1  0
 31 60  1  0
 31 61  1  0
 32 62  1  0
 32 63  1  0
M  END
>  <UniqueID>  (28) 
26

>  <SMILES>  (28) 
O=C(Cc1ccc(-c2ccccc2)cc1)N1CCN(CCOC(=O)N2CCOCC2)CC1

>  <Energy>  (28) 
77.803729296177

>  <Genealogy>  (28) 
O=C(Cc1ccc(-c2ccccc2)cc1)N1CCN(CCOC(=O)N2CCOCC2)CC1 (3D coordinates assigned)
O=C(Cc1ccc(-c2ccccc2)cc1)N1CCN(CCOC(=O)N2CCOCC2)CC1 (nonaromatic ring conformer: 77.803729296177 kcal/mol)

>  <smiles>  (28) 
O=C(Cc1ccc(-c2ccccc2)cc1)N1CCN(CCOC(=O)N2CCOCC2)CC1

>  <score_type>  (28) 
oracle

>  <origin>  (28) 
adg

>  <m_score__min__energy>  (28) 
-8.9700000000000006

>  <m_primary>  (28) 
energy

$$$$
28:0
     RDKit          3D

 37 38  0  0  0  0  0  0  0  0999 V2000
   55.2480   26.3000   45.9400 N   0  0  0  0  0  0  0  0  0  0  0  0
   56.9150   26.7320   45.7870 S   0  0  0  0  0  0  0  0  0  0  0  0
   57.5980   26.4880   47.1030 O   0  0  0  0  0  0  0  0  0  0  0  0
   57.5560   25.8810   44.7270 O   0  0  0  0  0  0  0  0  0  0  0  0
   57.0550   28.4290   45.3410 C   0  0  0  0  0  0  0  0  0  0  0  0
   56.0350   29.0490   44.6090 C   0  0  0  0  0  0  0  0  0  0  0  0
   56.1470   30.3940   44.2480 C   0  0  0  0  0  0  0  0  0  0  0  0
   57.2920   31.1310   44.5960 C   0  0  0  0  0  0  0  0  0  0  0  0
   57.4240   32.5220   44.2730 N   0  0  0  0  0  0  0  0  0  0  0  0
   58.0770   33.5250   45.0610 C   0  0  0  0  0  0  0  0  0  0  0  0
   58.4440   34.5930   44.5030 O   0  0  0  0  0  0  0  0  0  0  0  0
   58.2450   33.3620   46.4780 N   0  0  0  0  0  0  0  0  0  0  0  0
   58.9500   34.3380   47.3090 C   0  0  0  0  0  0  0  0  0  0  0  0
   60.3290   34.6880   46.7310 C   0  0  0  0  0  0  0  0  0  0  0  0
   61.3470   33.6050   46.9860 C   0  0  0  0  0  0  0  0  0  0  0  0
   62.7140   33.8540   46.7750 C   0  0  0  0  0  0  0  0  0  0  0  0
   63.6590   32.8560   47.0360 C   0  0  0  0  0  0  0  0  0  0  0  0
   63.2470   31.6040   47.5020 C   0  0  0  0  0  0  0  0  0  0  0  0
   61.8890   31.3460   47.7050 C   0  0  0  0  0  0  0  0  0  0  0  0
   60.9410   32.3410   47.4470 C   0  0  0  0  0  0  0  0  0  0  0  0
   58.3020   30.5120   45.3440 C   0  0  0  0  0  0  0  0  0  0  0  0
   58.1900   29.1660   45.7050 C   0  0  0  0  0  0  0  0  0  0  0  0
   54.7610   27.1120   46.3810 H   0  0  0  0  0  0  0  0  0  0  0  0
   55.1429   28.4754   44.3173 H   0  0  0  0  0  0  0  0  0  0  0  0
   55.3340   30.8792   43.6879 H   0  0  0  0  0  0  0  0  0  0  0  0
   57.7570   32.5750   46.9610 H   0  0  0  0  0  0  0  0  0  0  0  0
   58.3463   35.2555   47.3706 H   0  0  0  0  0  0  0  0  0  0  0  0
   59.0988   33.8954   48.3050 H   0  0  0  0  0  0  0  0  0  0  0  0
   60.2311   34.8331   45.6450 H   0  0  0  0  0  0  0  0  0  0  0  0
   60.6801   35.6043   47.2282 H   0  0  0  0  0  0  0  0  0  0  0  0
   63.0418   34.8362   46.4037 H   0  0  0  0  0  0  0  0  0  0  0  0
   64.7283   33.0568   46.8742 H   0  0  0  0  0  0  0  0  0  0  0  0
   63.9922   30.8218   47.7089 H   0  0  0  0  0  0  0  0  0  0  0  0
   61.5653   30.3594   48.0681 H   0  0  0  0  0  0  0  0  0  0  0  0
   59.8725   32.1334   47.6056 H   0  0  0  0  0  0  0  0  0  0  0  0
   59.1880   31.0882   45.6489 H   0  0  0  0  0  0  0  0  0  0  0  0
   58.9961   28.6835   46.2771 H   0  0  0  0  0  0  0  0  0  0  0  0
  1  2  1  0
  2  3  2  0
  2  4  2  0
  2  5  1  0
  5  6  2  0
  6  7  1  0
  7  8  2  0
  8  9  1  0
  9 10  1  0
 10 11  2  0
 10 12  1  0
 12 13  1  0
 13 14  1  0
 14 15  1  0
 15 16  2  0
 16 17  1  0
 17 18  2  0
 18 19  1  0
 19 20  2  0
  8 21  1  0
 21 22  2  0
 22  5  1  0
 20 15  1  0
  1 23  1  0
  6 24  1  0
  7 25  1  0
 12 26  1  0
 13 27  1  0
 13 28  1  0
 14 29  1  0
 14 30  1  0
 16 31  1  0
 17 32  1  0
 18 33  1  0
 19 34  1  0
 20 35  1  0
 21 36  1  0
 22 37  1  0
M  CHG  2   1  -1   9  -1
M  END
>  <UniqueID>  (29) 
27

>  <SMILES>  (29) 
[NH-]S(=O)(=O)c1ccc([N-]C(=O)NCCc2ccccc2)cc1

>  <Energy>  (29) 
35.009386775763616

>  <Genealogy>  (29) 
[NH-]S(=O)(=O)c1ccc([N-]C(=O)NCCc2ccccc2)cc1 (protonated)
[NH-]S(=O)(=O)c1ccc([N-]C(=O)NCCc2ccccc2)cc1 (3D coordinates assigned)
[NH-]S(=O)(=O)c1ccc([N-]C(=O)NCCc2ccccc2)cc1 (optimized conformer: 35.009386775763616 kcal/mol)

>  <smiles>  (29) 
NS(=O)(=O)c1ccc(NC(=O)NCCc2ccccc2)cc1

>  <score_type>  (29) 
oracle

>  <origin>  (29) 
adg

>  <m_score__min__energy>  (29) 
-11.710000000000001

>  <m_primary>  (29) 
energy

$$$$
29:0
     RDKit          3D

 40 41  0  0  0  0  0  0  0  0999 V2000
   58.7335   35.4983   44.9473 H   0  0  0  0  0  0  0  0  0  0  0  0
   58.6390   34.4430   45.2430 C   0  0  0  0  0  0  0  0  0  0  0  0
   57.5120   33.7110   44.8620 C   0  0  0  0  0  0  0  0  0  0  0  0
   56.7244   34.1893   44.2613 H   0  0  0  0  0  0  0  0  0  0  0  0
   57.3820   32.3660   45.2440 C   0  0  0  0  0  0  0  0  0  0  0  0
   56.2630   31.5720   44.8300 N   0  0  0  0  0  0  0  0  0  0  0  0
   56.3310   30.2520   44.2830 C   0  0  0  0  0  0  0  0  0  0  0  0
   56.3120   30.1060   43.0330 O   0  0  0  0  0  0  0  0  0  0  0  0
   56.4140   29.0880   45.1170 N   0  0  0  0  0  0  0  0  0  0  0  0
   57.4550   28.3190   45.2910 C   0  0  0  0  0  0  0  0  0  0  0  0
   58.4400   28.1260   44.2500 N   0  0  0  0  0  0  0  0  0  0  0  0
   58.1360   27.1740   43.1740 C   0  0  0  0  0  0  0  0  0  0  0  0
   57.8289   26.2124   43.6111 H   0  0  0  0  0  0  0  0  0  0  0  0
   57.3201   27.5714   42.5524 H   0  0  0  0  0  0  0  0  0  0  0  0
   59.0313   27.0250   42.5524 H   0  0  0  0  0  0  0  0  0  0  0  0
   59.8570   28.4540   44.4730 C   0  0  0  0  0  0  0  0  0  0  0  0
   59.9879   29.5373   44.3339 H   0  0  0  0  0  0  0  0  0  0  0  0
   60.4394   27.8625   43.7512 H   0  0  0  0  0  0  0  0  0  0  0  0
   60.3710   28.0790   45.8780 C   0  0  0  0  0  0  0  0  0  0  0  0
   61.4333   28.3597   45.9307 H   0  0  0  0  0  0  0  0  0  0  0  0
   60.1763   27.0012   45.9800 H   0  0  0  0  0  0  0  0  0  0  0  0
   59.6510   28.7390   47.0780 C   0  0  0  0  0  0  0  0  0  0  0  0
   59.2778   29.7224   46.7562 H   0  0  0  0  0  0  0  0  0  0  0  0
   60.3908   28.8042   47.8894 H   0  0  0  0  0  0  0  0  0  0  0  0
   58.4680   27.9350   47.6300 C   0  0  0  0  0  0  0  0  0  0  0  0
   57.9192   28.5672   48.3436 H   0  0  0  0  0  0  0  0  0  0  0  0
   58.8814   27.0337   48.1062 H   0  0  0  0  0  0  0  0  0  0  0  0
   57.4860   27.4640   46.5380 C   0  0  0  0  0  0  0  0  0  0  0  0
   56.4745   27.4550   46.9702 H   0  0  0  0  0  0  0  0  0  0  0  0
   57.8353   26.4707   46.2197 H   0  0  0  0  0  0  0  0  0  0  0  0
   58.4070   31.7570   45.9800 C   0  0  0  0  0  0  0  0  0  0  0  0
   58.3225   30.6950   46.2539 H   0  0  0  0  0  0  0  0  0  0  0  0
   59.5380   32.4850   46.3710 C   0  0  0  0  0  0  0  0  0  0  0  0
   60.5240   31.8290   47.1240 O   0  0  0  0  0  0  0  0  0  0  0  0
   61.8680   32.2820   47.2530 C   0  0  0  0  0  0  0  0  0  0  0  0
   62.1250   32.3686   48.3190 H   0  0  0  0  0  0  0  0  0  0  0  0
   62.5454   31.5625   46.7698 H   0  0  0  0  0  0  0  0  0  0  0  0
   61.9717   33.2647   46.7698 H   0  0  0  0  0  0  0  0  0  0  0  0
   59.6470   33.8380   45.9990 C   0  0  0  0  0  0  0  0  0  0  0  0
   60.5283   34.4212   46.3042 H   0  0  0  0  0  0  0  0  0  0  0  0
  1  2  1  0
  2  3  2  0
  3  4  1  0
  3  5  1  0
  5  6  1  0
  6  7  1  0
  7  8  2  0
  7  9  1  0
  9 10  2  0
 10 11  1  0
 11 12  1  0
 12 13  1  0
 12 14  1  0
 12 15  1  0
 11 16  1  0
 16 17  1  0
 16 18  1  0
 16 19  1  0
 19 20  1  0
 19 21  1  0
 19 22  1  0
 22 23  1  0
 22 24  1  0
 22 25  1  0
 25 26  1  0
 25 27  1  0
 25 28  1  0
 28 29  1  0
 28 30  1  0
  5 31  2  0
 31 32  1  0
 31 33  1  0
 33 34  1  0
 34 35  1  0
 35 36  1  0
 35 37  1  0
 35 38  1  0
 33 39  2  0
 39 40  1  0
 39  2  1  0
 28 10  1  0
M  CHG  1   6  -1
M  END
>  <UniqueID>  (30) 
28

>  <SMILES>  (30) 
COc1cccc([N-]C(=O)/N=C2/CCCCCN2C)c1

>  <Energy>  (30) 
55.548392263080906

>  <Genealogy>  (30) 
COc1cccc([N-]C(=O)N=C2CCCCCN2C)c1 (protonated)
COc1cccc([N-]C(=O)/N=C2/CCCCCN2C)c1 (cis-trans isomerization)
COc1cccc([N-]C(=O)/N=C2/CCCCCN2C)c1 (3D coordinates assigned)
COc1cccc([N-]C(=O)/N=C2/CCCCCN2C)c1 (nonaromatic ring conformer: 55.548392263080906 kcal/mol)

>  <smiles>  (30) 
COc1cccc(NC(=O)N=C2CCCCCN2C)c1

>  <score_type>  (30) 
oracle

>  <origin>  (30) 
adg

>  <m_score__min__energy>  (30) 
-6.5499999999999998

>  <m_primary>  (30) 
energy

$$$$
30:0
     RDKit          3D

 46 49  0  0  0  0  0  0  0  0999 V2000
   58.3060   31.8840   50.0500 O   0  0  0  0  0  0  0  0  0  0  0  0
   58.8130   32.3660   51.0970 C   0  0  0  0  0  0  0  0  0  0  0  0
   58.2410   32.0240   52.3650 N   0  0  0  0  0  0  0  0  0  0  0  0
   57.1000   31.1790   52.5690 C   0  0  0  0  0  0  0  0  0  0  0  0
   57.2010   29.9610   53.2640 C   0  0  0  0  0  0  0  0  0  0  0  0
   56.0790   29.1430   53.4260 C   0  0  0  0  0  0  0  0  0  0  0  0
   54.8440   29.5230   52.8820 C   0  0  0  0  0  0  0  0  0  0  0  0
   53.7110   28.7100   53.0390 C   0  0  0  0  0  0  0  0  0  0  0  0
   52.4880   29.0970   52.4840 C   0  0  0  0  0  0  0  0  0  0  0  0
   52.3870   30.2950   51.7690 C   0  0  0  0  0  0  0  0  0  0  0  0
   53.5080   31.1130   51.6060 C   0  0  0  0  0  0  0  0  0  0  0  0
   54.7420   30.7360   52.1580 C   0  0  0  0  0  0  0  0  0  0  0  0
   55.8750   31.5490   52.0010 C   0  0  0  0  0  0  0  0  0  0  0  0
   59.8860   33.3160   51.0080 N   0  0  0  0  0  0  0  0  0  0  0  0
   60.6920   33.4880   49.8310 C   0  0  0  0  0  0  0  0  0  0  0  0
   62.0570   33.1960   49.8920 C   0  0  0  0  0  0  0  0  0  0  0  0
   62.8530   33.3440   48.7610 C   0  0  0  0  0  0  0  0  0  0  0  0
   62.2760   33.7680   47.5650 C   0  0  0  0  0  0  0  0  0  0  0  0
   60.9340   34.0290   47.4880 N   0  0  0  0  0  0  0  0  0  0  0  0
   60.3590   34.4240   46.1900 C   0  0  0  0  0  0  0  0  0  0  0  0
   59.3770   33.3840   45.7080 C   0  0  0  0  0  0  0  0  0  0  0  0
   59.5460   32.0350   46.0650 C   0  0  0  0  0  0  0  0  0  0  0  0
   58.6600   31.0630   45.5950 C   0  0  0  0  0  0  0  0  0  0  0  0
   57.5980   31.4260   44.7620 C   0  0  0  0  0  0  0  0  0  0  0  0
   56.3890   30.0940   44.1180 Br  0  0  0  0  0  0  0  0  0  0  0  0
   57.4210   32.7640   44.4000 C   0  0  0  0  0  0  0  0  0  0  0  0
   58.3060   33.7420   44.8670 C   0  0  0  0  0  0  0  0  0  0  0  0
   58.1090   35.0360   44.5070 F   0  0  0  0  0  0  0  0  0  0  0  0
   60.1350   33.8850   48.5970 C   0  0  0  0  0  0  0  0  0  0  0  0
   58.8910   34.0820   48.5130 O   0  0  0  0  0  0  0  0  0  0  0  0
   58.1692   29.6497   53.6830 H   0  0  0  0  0  0  0  0  0  0  0  0
   56.1654   28.1979   53.9822 H   0  0  0  0  0  0  0  0  0  0  0  0
   53.7855   27.7666   53.5998 H   0  0  0  0  0  0  0  0  0  0  0  0
   51.6020   28.4574   52.6099 H   0  0  0  0  0  0  0  0  0  0  0  0
   51.4221   30.5940   51.3337 H   0  0  0  0  0  0  0  0  0  0  0  0
   53.4231   32.0546   51.0437 H   0  0  0  0  0  0  0  0  0  0  0  0
   55.8000   32.4844   51.4271 H   0  0  0  0  0  0  0  0  0  0  0  0
   59.9880   34.0120   51.7820 H   0  0  0  0  0  0  0  0  0  0  0  0
   62.5027   32.8486   50.8357 H   0  0  0  0  0  0  0  0  0  0  0  0
   63.9305   33.1279   48.8100 H   0  0  0  0  0  0  0  0  0  0  0  0
   62.9063   33.8944   46.6724 H   0  0  0  0  0  0  0  0  0  0  0  0
   59.8400   35.3874   46.3022 H   0  0  0  0  0  0  0  0  0  0  0  0
   61.1714   34.5142   45.4539 H   0  0  0  0  0  0  0  0  0  0  0  0
   60.3812   31.7431   46.7186 H   0  0  0  0  0  0  0  0  0  0  0  0
   58.7983   30.0099   45.8809 H   0  0  0  0  0  0  0  0  0  0  0  0
   56.5837   33.0492   43.7461 H   0  0  0  0  0  0  0  0  0  0  0  0
  1  2  2  0
  2  3  1  0
  3  4  1  0
  4  5  2  0
  5  6  1  0
  6  7  2  0
  7  8  1  0
  8  9  2  0
  9 10  1  0
 10 11  2  0
 11 12  1  0
 12 13  2  0
  2 14  1  0
 14 15  1  0
 15 16  2  0
 16 17  1  0
 17 18  2  0
 18 19  1  0
 19 20  1  0
 20 21  1  0
 21 22  2  0
 22 23  1  0
 23 24  2  0
 24 25  1  0
 24 26  1  0
 26 27  2  0
 27 28  1  0
 19 29  1  0
 29 30  2  0
 13  4  1  0
 29 15  1  0
 12  7  1  0
 27 21  1  0
  5 31  1  0
  6 32  1  0
  8 33  1  0
  9 34  1  0
 10 35  1  0
 11 36  1  0
 13 37  1  0
 14 38  1  0
 16 39  1  0
 17 40  1  0
 18 41  1  0
 20 42  1  0
 20 43  1  0
 22 44  1  0
 23 45  1  0
 26 46  1  0
M  CHG  1   3  -1
M  END
>  <UniqueID>  (31) 
29

>  <SMILES>  (31) 
O=C([N-]c1ccc2ccccc2c1)Nc1cccn(Cc2ccc(Br)cc2F)c1=O

>  <Energy>  (31) 
64.49948865422145

>  <Genealogy>  (31) 
O=C([N-]c1ccc2ccccc2c1)Nc1cccn(Cc2ccc(Br)cc2F)c1=O (protonated)
O=C([N-]c1ccc2ccccc2c1)Nc1cccn(Cc2ccc(Br)cc2F)c1=O (3D coordinates assigned)
O=C([N-]c1ccc2ccccc2c1)Nc1cccn(Cc2ccc(Br)cc2F)c1=O (optimized conformer: 64.49948865422145 kcal/mol)

>  <smiles>  (31) 
O=C(Nc1ccc2ccccc2c1)Nc1cccn(Cc2ccc(Br)cc2F)c1=O

>  <score_type>  (31) 
oracle

>  <origin>  (31) 
adg

>  <m_score__min__energy>  (31) 
-11.039999999999999

>  <m_primary>  (31) 
energy

$$$$
31:0
     RDKit          3D

 44 46  0  0  0  0  0  0  0  0999 V2000
   57.8875   30.6823   47.7385 H   0  0  0  0  0  0  0  0  0  0  0  0
   58.2770   30.5060   46.7250 C   0  0  0  0  0  0  0  0  0  0  0  0
   58.9760   31.4790   46.1290 C   0  0  0  0  0  0  0  0  0  0  0  0
   58.5546   31.9677   45.2381 H   0  0  0  0  0  0  0  0  0  0  0  0
   60.2970   31.9190   46.6290 C   0  0  0  0  0  0  0  0  0  0  0  0
   61.1800   30.9420   47.1080 C   0  0  0  0  0  0  0  0  0  0  0  0
   60.8747   29.8852   47.1099 H   0  0  0  0  0  0  0  0  0  0  0  0
   62.4440   31.2980   47.5830 C   0  0  0  0  0  0  0  0  0  0  0  0
   63.1314   30.5170   47.9402 H   0  0  0  0  0  0  0  0  0  0  0  0
   62.8440   32.6360   47.6090 C   0  0  0  0  0  0  0  0  0  0  0  0
   64.1280   32.9330   48.0940 O   0  0  0  0  0  0  0  0  0  0  0  0
   64.5390   32.8300   49.4570 C   0  0  0  0  0  0  0  0  0  0  0  0
   64.1400   31.6050   49.9530 F   0  0  0  0  0  0  0  0  0  0  0  0
   65.9160   32.9220   49.5480 F   0  0  0  0  0  0  0  0  0  0  0  0
   63.9480   33.8300   50.2090 F   0  0  0  0  0  0  0  0  0  0  0  0
   61.9520   33.6270   47.1580 C   0  0  0  0  0  0  0  0  0  0  0  0
   62.2542   34.6844   47.1827 H   0  0  0  0  0  0  0  0  0  0  0  0
   60.6830   33.2790   46.6780 C   0  0  0  0  0  0  0  0  0  0  0  0
   59.5830   34.5850   46.2380 Cl  0  0  0  0  0  0  0  0  0  0  0  0
   58.0060   29.2040   46.0790 C   0  0  0  0  0  0  0  0  0  0  0  0
   57.3910   29.0010   44.8540 C   0  0  0  0  0  0  0  0  0  0  0  0
   56.8000   30.2380   43.7550 S   0  0  0  0  0  0  0  0  0  0  0  0
   57.9010   31.2130   43.4450 O   0  0  0  0  0  0  0  0  0  0  0  0
   55.6680   30.9760   44.4120 O   0  0  0  0  0  0  0  0  0  0  0  0
   56.2300   29.5090   42.2940 N   0  0  0  0  0  0  0  0  0  0  0  0
   56.3040   28.4750   42.4130 H   0  0  0  0  0  0  0  0  0  0  0  0
   55.2120   29.7310   42.2200 H   0  0  0  0  0  0  0  0  0  0  0  0
   57.3000   27.7160   44.6050 O   0  0  0  0  0  0  0  0  0  0  0  0
   57.8340   27.0550   45.6080 C   0  0  0  0  0  0  0  0  0  0  0  0
   57.8690   25.5780   45.6860 C   0  0  0  0  0  0  0  0  0  0  0  0
   59.1290   24.9570   45.6770 C   0  0  0  0  0  0  0  0  0  0  0  0
   60.0396   25.5737   45.6994 H   0  0  0  0  0  0  0  0  0  0  0  0
   59.2380   23.5670   45.6400 C   0  0  0  0  0  0  0  0  0  0  0  0
   60.2311   23.0940   45.6305 H   0  0  0  0  0  0  0  0  0  0  0  0
   58.0910   22.7770   45.6150 C   0  0  0  0  0  0  0  0  0  0  0  0
   58.1797   21.6817   45.5652 H   0  0  0  0  0  0  0  0  0  0  0  0
   56.8290   23.3730   45.6530 C   0  0  0  0  0  0  0  0  0  0  0  0
   55.9286   22.7414   45.6358 H   0  0  0  0  0  0  0  0  0  0  0  0
   56.6960   24.7720   45.7130 C   0  0  0  0  0  0  0  0  0  0  0  0
   55.3360   25.3340   45.8790 C   0  0  0  0  0  0  0  0  0  0  0  0
   54.3240   24.5830   45.8800 O   0  0  0  0  0  0  0  0  0  0  0  0
   55.1560   26.7090   45.9740 O   0  0  0  0  0  0  0  0  0  0  0  0
   58.2840   27.9410   46.5710 C   0  0  0  0  0  0  0  0  0  0  0  0
   58.7635   27.6926   47.5293 H   0  0  0  0  0  0  0  0  0  0  0  0
  1  2  1  0
  2  3  2  0
  3  4  1  0
  3  5  1  0
  5  6  2  0
  6  7  1  0
  6  8  1  0
  8  9  1  0
  8 10  2  0
 10 11  1  0
 11 12  1  0
 12 13  1  0
 12 14  1  0
 12 15  1  0
 10 16  1  0
 16 17  1  0
 16 18  2  0
 18 19  1  0
  2 20  1  0
 20 21  2  0
 21 22  1  0
 22 23  2  0
 22 24  2  0
 22 25  1  0
 25 26  1  0
 25 27  1  0
 21 28  1  0
 28 29  1  0
 29 30  1  0
 30 31  2  0
 31 32  1  0
 31 33  1  0
 33 34  1  0
 33 35  2  0
 35 36  1  0
 35 37  1  0
 37 38  1  0
 37 39  2  0
 39 40  1  0
 40 41  2  0
 40 42  1  0
 29 43  2  0
 43 44  1  0
 18  5  1  0
 43 20  1  0
 39 30  1  0
M  CHG  1  42  -1
M  END
>  <UniqueID>  (32) 
30

>  <SMILES>  (32) 
NS(=O)(=O)c1oc(-c2ccccc2C(=O)[O-])cc1/C=C/c1ccc(OC(F)(F)F)cc1Cl

>  <Energy>  (32) 
87.16614090792963

>  <Genealogy>  (32) 
NS(=O)(=O)c1oc(-c2ccccc2C(=O)[O-])cc1C=Cc1ccc(OC(F)(F)F)cc1Cl (protonated)
NS(=O)(=O)c1oc(-c2ccccc2C(=O)[O-])cc1/C=C/c1ccc(OC(F)(F)F)cc1Cl (cis-trans isomerization)
NS(=O)(=O)c1oc(-c2ccccc2C(=O)[O-])cc1/C=C/c1ccc(OC(F)(F)F)cc1Cl (3D coordinates assigned)
NS(=O)(=O)c1oc(-c2ccccc2C(=O)[O-])cc1/C=C/c1ccc(OC(F)(F)F)cc1Cl (optimized conformer: 87.16614090792963 kcal/mol)

>  <smiles>  (32) 
NS(=O)(=O)c1oc(-c2ccccc2C(=O)O)cc1C=Cc1ccc(OC(F)(F)F)cc1Cl

>  <score_type>  (32) 
oracle

>  <origin>  (32) 
adg

>  <m_score__min__energy>  (32) 
-12.369999999999999

>  <m_primary>  (32) 
energy

$$$$
32:0
     RDKit          3D

 71 75  0  0  0  0  0  0  0  0999 V2000
   58.1950   33.2570   52.1850 C   0  0  0  0  0  0  0  0  0  0  0  0
   58.7900   32.3800   51.1610 N   0  0  0  0  0  0  0  0  0  0  0  0
   60.2010   32.0590   51.4360 C   0  0  0  0  0  0  0  0  0  0  0  0
   60.3840   31.1030   52.6280 C   0  0  0  0  0  0  0  0  0  0  0  0
   59.4320   29.8870   52.6280 C   0  0  0  0  0  0  0  0  0  0  0  0
   60.0420   28.6860   52.0470 N   0  0  0  0  0  0  0  0  0  0  0  0
   60.7970   28.5440   50.8330 C   0  0  0  0  0  0  0  0  0  0  0  0
   61.9000   27.9420   50.8300 O   0  0  0  0  0  0  0  0  0  0  0  0
   60.2590   29.0960   49.5700 C   0  0  0  0  0  0  0  0  0  0  0  0
   60.9240   30.1450   48.9090 C   0  0  0  0  0  0  0  0  0  0  0  0
   60.4130   30.6690   47.7200 C   0  0  0  0  0  0  0  0  0  0  0  0
   59.2210   30.1650   47.1790 C   0  0  0  0  0  0  0  0  0  0  0  0
   58.6680   30.7480   45.9390 C   0  0  0  0  0  0  0  0  0  0  0  0
   58.4530   32.1340   45.8960 C   0  0  0  0  0  0  0  0  0  0  0  0
   58.0360   32.7630   44.7090 C   0  0  0  0  0  0  0  0  0  0  0  0
   57.8430   34.1890   44.6340 N   0  0  0  0  0  0  0  0  0  0  0  0
   58.8970   35.1580   44.9460 C   0  0  0  0  0  0  0  0  0  0  0  0
   59.6310   34.7610   46.1940 C   0  0  0  0  0  0  0  0  0  0  0  0
   60.9180   34.2090   46.1220 C   0  0  0  0  0  0  0  0  0  0  0  0
   61.5690   33.8330   47.2990 C   0  0  0  0  0  0  0  0  0  0  0  0
   60.9320   34.0020   48.5300 C   0  0  0  0  0  0  0  0  0  0  0  0
   59.6430   34.5400   48.5620 C   0  0  0  0  0  0  0  0  0  0  0  0
   59.0260   34.9020   47.4050 N   0  0  0  0  0  0  0  0  0  0  0  0
   57.8240   31.9830   43.5680 C   0  0  0  0  0  0  0  0  0  0  0  0
   58.0170   30.6020   43.6040 C   0  0  0  0  0  0  0  0  0  0  0  0
   58.4350   29.9630   44.7830 C   0  0  0  0  0  0  0  0  0  0  0  0
   58.5650   28.4840   44.7880 C   0  0  0  0  0  0  0  0  0  0  0  0
   59.7060   27.9530   44.8720 O   0  0  0  0  0  0  0  0  0  0  0  0
   57.3980   27.6540   44.6930 N   0  0  0  0  0  0  0  0  0  0  0  0
   57.3460   26.2940   45.1550 C   0  0  0  0  0  0  0  0  0  0  0  0
   57.4110   25.2460   44.2250 C   0  0  0  0  0  0  0  0  0  0  0  0
   57.3300   23.9150   44.6510 C   0  0  0  0  0  0  0  0  0  0  0  0
   57.1660   23.6230   46.0070 C   0  0  0  0  0  0  0  0  0  0  0  0
   57.0830   24.6600   46.9390 C   0  0  0  0  0  0  0  0  0  0  0  0
   57.1670   25.9900   46.5180 C   0  0  0  0  0  0  0  0  0  0  0  0
   58.5490   29.1250   47.8360 C   0  0  0  0  0  0  0  0  0  0  0  0
   59.0700   28.5860   49.0170 C   0  0  0  0  0  0  0  0  0  0  0  0
   58.0210   30.1690   52.0710 C   0  0  0  0  0  0  0  0  0  0  0  0
   57.9870   31.1700   50.9070 C   0  0  0  0  0  0  0  0  0  0  0  0
   58.4515   32.8789   53.1856 H   0  0  0  0  0  0  0  0  0  0  0  0
   58.5879   34.2776   52.0669 H   0  0  0  0  0  0  0  0  0  0  0  0
   57.1014   33.2691   52.0669 H   0  0  0  0  0  0  0  0  0  0  0  0
   60.6334   31.5883   50.5407 H   0  0  0  0  0  0  0  0  0  0  0  0
   60.7067   33.0016   51.6923 H   0  0  0  0  0  0  0  0  0  0  0  0
   61.4184   30.7291   52.6124 H   0  0  0  0  0  0  0  0  0  0  0  0
   60.1489   31.6833   53.5324 H   0  0  0  0  0  0  0  0  0  0  0  0
   59.2661   29.6736   53.6943 H   0  0  0  0  0  0  0  0  0  0  0  0
   61.8529   30.5551   49.3319 H   0  0  0  0  0  0  0  0  0  0  0  0
   60.9476   31.4808   47.2051 H   0  0  0  0  0  0  0  0  0  0  0  0
   58.6127   32.7365   46.8024 H   0  0  0  0  0  0  0  0  0  0  0  0
   56.9130   34.5430   44.3090 H   0  0  0  0  0  0  0  0  0  0  0  0
   59.6076   35.2009   44.1074 H   0  0  0  0  0  0  0  0  0  0  0  0
   58.4351   36.1434   45.1060 H   0  0  0  0  0  0  0  0  0  0  0  0
   61.4102   34.0734   45.1477 H   0  0  0  0  0  0  0  0  0  0  0  0
   62.5813   33.4047   47.2564 H   0  0  0  0  0  0  0  0  0  0  0  0
   61.4388   33.7151   49.4632 H   0  0  0  0  0  0  0  0  0  0  0  0
   59.1263   34.6710   49.5242 H   0  0  0  0  0  0  0  0  0  0  0  0
   57.5017   32.4634   42.6324 H   0  0  0  0  0  0  0  0  0  0  0  0
   57.8395   30.0054   42.6970 H   0  0  0  0  0  0  0  0  0  0  0  0
   56.5630   28.0400   44.1960 H   0  0  0  0  0  0  0  0  0  0  0  0
   57.5263   25.4714   43.1545 H   0  0  0  0  0  0  0  0  0  0  0  0
   57.3956   23.0982   43.9171 H   0  0  0  0  0  0  0  0  0  0  0  0
   57.1022   22.5768   46.3408 H   0  0  0  0  0  0  0  0  0  0  0  0
   56.9513   24.4294   48.0065 H   0  0  0  0  0  0  0  0  0  0  0  0
   57.0929   26.8032   47.2551 H   0  0  0  0  0  0  0  0  0  0  0  0
   57.6091   28.7315   47.4216 H   0  0  0  0  0  0  0  0  0  0  0  0
   58.5465   27.7577   49.5168 H   0  0  0  0  0  0  0  0  0  0  0  0
   57.5934   29.2183   51.7198 H   0  0  0  0  0  0  0  0  0  0  0  0
   57.4443   30.6215   52.8912 H   0  0  0  0  0  0  0  0  0  0  0  0
   58.3776   30.6733   50.0066 H   0  0  0  0  0  0  0  0  0  0  0  0
   56.9423   31.4903   50.7804 H   0  0  0  0  0  0  0  0  0  0  0  0
  1  2  1  0
  2  3  1  0
  3  4  1  0
  4  5  1  0
  5  6  1  0
  6  7  1  0
  7  8  2  0
  7  9  1  0
  9 10  2  0
 10 11  1  0
 11 12  2  0
 12 13  1  0
 13 14  2  0
 14 15  1  0
 15 16  1  0
 16 17  1  0
 17 18  1  0
 18 19  2  0
 19 20  1  0
 20 21  2  0
 21 22  1  0
 22 23  2  0
 15 24  2  0
 24 25  1  0
 25 26  2  0
 26 27  1  0
 27 28  2  0
 27 29  1  0
 29 30  1  0
 30 31  2  0
 31 32  1  0
 32 33  2  0
 33 34  1  0
 34 35  2  0
 12 36  1  0
 36 37  2  0
  5 38  1  0
 38 39  1  0
 39  2  1  0
 37  9  1  0
 26 13  1  0
 35 30  1  0
 23 18  1  0
  1 40  1  0
  1 41  1  0
  1 42  1  0
  3 43  1  0
  3 44  1  0
  4 45  1  0
  4 46  1  0
  5 47  1  0
 10 48  1  0
 11 49  1  0
 14 50  1  0
 16 51  1  0
 17 52  1  0
 17 53  1  0
 19 54  1  0
 20 55  1  0
 21 56  1  0
 22 57  1  0
 24 58  1  0
 25 59  1  0
 29 60  1  0
 31 61  1  0
 32 62  1  0
 33 63  1  0
 34 64  1  0
 35 65  1  0
 36 66  1  0
 37 67  1  0
 38 68  1  0
 38 69  1  0
 39 70  1  0
 39 71  1  0
M  CHG  1   6  -1
M  END
>  <UniqueID>  (33) 
31

>  <SMILES>  (33) 
CN1CCC([N-]C(=O)c2ccc(-c3cc(NCc4ccccn4)ccc3C(=O)Nc3ccccc3)cc2)CC1

>  <Energy>  (33) 
100.30456618220637

>  <Genealogy>  (33) 
CN1CCC([N-]C(=O)c2ccc(-c3cc(NCc4ccccn4)ccc3C(=O)Nc3ccccc3)cc2)CC1 (protonated)
CN1CCC([N-]C(=O)c2ccc(-c3cc(NCc4ccccn4)ccc3C(=O)Nc3ccccc3)cc2)CC1 (3D coordinates assigned)
CN1CCC([N-]C(=O)c2ccc(-c3cc(NCc4ccccn4)ccc3C(=O)Nc3ccccc3)cc2)CC1 (nonaromatic ring conformer: 100.30456618220637 kcal/mol)

>  <smiles>  (33) 
CN1CCC(NC(=O)c2ccc(-c3cc(NCc4ccccn4)ccc3C(=O)Nc3ccccc3)cc2)CC1

>  <score_type>  (33) 
oracle

>  <origin>  (33) 
adg

>  <m_score__min__energy>  (33) 
-11.119999999999999

>  <m_primary>  (33) 
energy

$$$$
33:0
     RDKit          3D

 34 35  0  0  0  0  0  0  0  0999 V2000
   55.7200   24.3850   45.0270 C   0  0  0  0  0  0  0  0  0  0  0  0
   55.8500   25.7170   45.7040 C   0  0  0  0  0  0  0  0  0  0  0  0
   54.7970   26.3440   46.0000 O   0  0  0  0  0  0  0  0  0  0  0  0
   57.1770   26.3070   46.0340 C   0  0  0  0  0  0  0  0  0  0  0  0
   58.2480   25.4690   46.3940 C   0  0  0  0  0  0  0  0  0  0  0  0
   59.5020   26.0070   46.6890 C   0  0  0  0  0  0  0  0  0  0  0  0
   59.7040   27.3860   46.6400 C   0  0  0  0  0  0  0  0  0  0  0  0
   58.6480   28.2440   46.3100 C   0  0  0  0  0  0  0  0  0  0  0  0
   58.8880   29.6600   46.2460 N   0  0  0  0  0  0  0  0  0  0  0  0
   57.9580   30.6100   45.6990 C   0  0  0  0  0  0  0  0  0  0  0  0
   56.8530   30.2280   45.2280 O   0  0  0  0  0  0  0  0  0  0  0  0
   58.2860   32.0500   45.6730 C   0  0  0  0  0  0  0  0  0  0  0  0
   58.7130   32.6560   46.8670 C   0  0  0  0  0  0  0  0  0  0  0  0
   59.0080   34.0200   46.9060 C   0  0  0  0  0  0  0  0  0  0  0  0
   58.8830   34.7940   45.7540 C   0  0  0  0  0  0  0  0  0  0  0  0
   58.4820   34.2050   44.5540 C   0  0  0  0  0  0  0  0  0  0  0  0
   58.2020   32.8290   44.4900 C   0  0  0  0  0  0  0  0  0  0  0  0
   57.8160   32.2340   43.1610 C   0  0  0  0  0  0  0  0  0  0  0  0
   57.3920   27.6990   45.9860 C   0  0  0  0  0  0  0  0  0  0  0  0
   55.6427   23.5934   45.7869 H   0  0  0  0  0  0  0  0  0  0  0  0
   54.8171   24.3796   44.3988 H   0  0  0  0  0  0  0  0  0  0  0  0
   56.6049   24.2051   44.3988 H   0  0  0  0  0  0  0  0  0  0  0  0
   58.0961   24.3807   46.4435 H   0  0  0  0  0  0  0  0  0  0  0  0
   60.3339   25.3407   46.9611 H   0  0  0  0  0  0  0  0  0  0  0  0
   60.6980   27.8017   46.8617 H   0  0  0  0  0  0  0  0  0  0  0  0
   59.7610   30.0210   46.6920 H   0  0  0  0  0  0  0  0  0  0  0  0
   58.8157   32.0500   47.7792 H   0  0  0  0  0  0  0  0  0  0  0  0
   59.3393   34.4840   47.8467 H   0  0  0  0  0  0  0  0  0  0  0  0
   59.1009   35.8716   45.7905 H   0  0  0  0  0  0  0  0  0  0  0  0
   58.3841   34.8235   43.6496 H   0  0  0  0  0  0  0  0  0  0  0  0
   57.2241   31.3216   43.3258 H   0  0  0  0  0  0  0  0  0  0  0  0
   57.2175   32.9618   42.5934 H   0  0  0  0  0  0  0  0  0  0  0  0
   58.7245   31.9842   42.5934 H   0  0  0  0  0  0  0  0  0  0  0  0
   56.5688   28.3667   45.6920 H   0  0  0  0  0  0  0  0  0  0  0  0
  1  2  1  0
  2  3  2  0
  2  4  1  0
  4  5  2  0
  5  6  1  0
  6  7  2  0
  7  8  1  0
  8  9  1  0
  9 10  1  0
 10 11  2  0
 10 12  1  0
 12 13  2  0
 13 14  1  0
 14 15  2  0
 15 16  1  0
 16 17  2  0
 17 18  1  0
  8 19  2  0
 19  4  1  0
 17 12  1  0
  1 20  1  0
  1 21  1  0
  1 22  1  0
  5 23  1  0
  6 24  1  0
  7 25  1  0
  9 26  1  0
 13 27  1  0
 14 28  1  0
 15 29  1  0
 16 30  1  0
 18 31  1  0
 18 32  1  0
 18 33  1  0
 19 34  1  0
M  END
>  <UniqueID>  (34) 
32

>  <SMILES>  (34) 
CC(=O)c1cccc(NC(=O)c2ccccc2C)c1

>  <Energy>  (34) 
44.67653654159212

>  <Genealogy>  (34) 
CC(=O)c1cccc(NC(=O)c2ccccc2C)c1 (3D coordinates assigned)
CC(=O)c1cccc(NC(=O)c2ccccc2C)c1 (optimized conformer: 44.67653654159212 kcal/mol)

>  <smiles>  (34) 
CC(=O)c1cccc(NC(=O)c2ccccc2C)c1

>  <score_type>  (34) 
oracle

>  <origin>  (34) 
adg

>  <m_score__min__energy>  (34) 
-7.8600000000000003

>  <m_primary>  (34) 
energy

$$$$
34:0
     RDKit          3D

 81 85  0  0  0  0  0  0  0  0999 V2000
   56.1790   22.4810   46.1450 C   0  0  0  0  0  0  0  0  0  0  0  0
   56.5540   23.8620   46.4580 N   0  0  0  0  0  0  0  0  0  0  0  0
   56.6620   24.3090   47.8520 C   0  0  0  0  0  0  0  0  0  0  0  0
   56.6980   24.8110   45.3820 C   0  0  0  0  0  0  0  0  0  0  0  0
   56.1060   24.6130   44.2870 O   0  0  0  0  0  0  0  0  0  0  0  0
   57.5140   26.0300   45.5380 C   0  0  0  0  0  0  0  0  0  0  0  0
   58.9100   25.9210   45.6090 C   0  0  0  0  0  0  0  0  0  0  0  0
   59.6960   27.0630   45.7690 C   0  0  0  0  0  0  0  0  0  0  0  0
   59.0970   28.3190   45.8720 C   0  0  0  0  0  0  0  0  0  0  0  0
   57.6980   28.4490   45.8030 C   0  0  0  0  0  0  0  0  0  0  0  0
   57.0650   29.7360   45.9390 N   0  0  0  0  0  0  0  0  0  0  0  0
   57.7800   30.9540   46.1950 C   0  0  0  0  0  0  0  0  0  0  0  0
   57.7660   31.9720   45.2300 C   0  0  0  0  0  0  0  0  0  0  0  0
   58.4340   33.1780   45.4630 C   0  0  0  0  0  0  0  0  0  0  0  0
   59.1330   33.3720   46.6580 C   0  0  0  0  0  0  0  0  0  0  0  0
   59.1760   32.3550   47.6130 C   0  0  0  0  0  0  0  0  0  0  0  0
   58.5190   31.1380   47.3830 C   0  0  0  0  0  0  0  0  0  0  0  0
   58.6290   30.0960   48.3540 N   0  0  0  0  0  0  0  0  0  0  0  0
   59.8820   29.7950   48.9850 C   0  0  0  0  0  0  0  0  0  0  0  0
   60.9580   29.9950   48.3580 O   0  0  0  0  0  0  0  0  0  0  0  0
   59.9260   29.2630   50.3690 C   0  0  0  0  0  0  0  0  0  0  0  0
   61.1370   28.8350   50.9400 C   0  0  0  0  0  0  0  0  0  0  0  0
   61.1700   28.3590   52.2570 C   0  0  0  0  0  0  0  0  0  0  0  0
   59.9950   28.2920   53.0100 C   0  0  0  0  0  0  0  0  0  0  0  0
   58.7750   28.6940   52.4480 C   0  0  0  0  0  0  0  0  0  0  0  0
   57.4790   28.5660   53.2030 C   0  0  0  0  0  0  0  0  0  0  0  0
   56.8670   29.9090   53.3330 N   0  0  0  0  0  0  0  0  0  0  0  0
   56.3420   30.4550   52.0620 C   0  0  0  0  0  0  0  0  0  0  0  0
   54.8640   30.7160   52.2060 C   0  0  0  0  0  0  0  0  0  0  0  0
   54.0970   31.1270   51.1060 C   0  0  0  0  0  0  0  0  0  0  0  0
   52.7390   31.4260   51.2630 C   0  0  0  0  0  0  0  0  0  0  0  0
   52.1270   31.3190   52.5250 C   0  0  0  0  0  0  0  0  0  0  0  0
   50.6920   31.6400   52.7000 C   0  0  0  0  0  0  0  0  0  0  0  0
   49.9590   30.9220   53.4300 O   0  0  0  0  0  0  0  0  0  0  0  0
   50.1320   32.7360   52.0550 O   0  0  0  0  0  0  0  0  0  0  0  0
   52.8970   30.9010   53.6240 C   0  0  0  0  0  0  0  0  0  0  0  0
   54.2500   30.5940   53.4620 C   0  0  0  0  0  0  0  0  0  0  0  0
   57.9780   31.0320   54.0950 S   0  0  0  0  0  0  0  0  0  0  0  0
   57.2160   31.9860   54.9760 O   0  0  0  0  0  0  0  0  0  0  0  0
   58.9670   30.2800   54.9420 O   0  0  0  0  0  0  0  0  0  0  0  0
   58.8710   31.9420   52.8770 C   0  0  0  0  0  0  0  0  0  0  0  0
   58.2020   32.8810   52.0780 C   0  0  0  0  0  0  0  0  0  0  0  0
   58.9140   33.6390   51.1430 C   0  0  0  0  0  0  0  0  0  0  0  0
   60.2930   33.4620   51.0000 C   0  0  0  0  0  0  0  0  0  0  0  0
   60.9620   32.5230   51.7880 C   0  0  0  0  0  0  0  0  0  0  0  0
   60.2540   31.7630   52.7240 C   0  0  0  0  0  0  0  0  0  0  0  0
   58.7570   29.2100   51.1450 C   0  0  0  0  0  0  0  0  0  0  0  0
   56.9070   27.2950   45.6540 C   0  0  0  0  0  0  0  0  0  0  0  0
   55.5190   27.4070   45.6350 O   0  0  0  0  0  0  0  0  0  0  0  0
   56.0271   21.9215   47.0798 H   0  0  0  0  0  0  0  0  0  0  0  0
   55.2474   22.4776   45.5601 H   0  0  0  0  0  0  0  0  0  0  0  0
   56.9809   22.0069   45.5601 H   0  0  0  0  0  0  0  0  0  0  0  0
   56.4577   23.4633   48.5251 H   0  0  0  0  0  0  0  0  0  0  0  0
   57.6777   24.6884   48.0378 H   0  0  0  0  0  0  0  0  0  0  0  0
   55.9316   25.1103   48.0378 H   0  0  0  0  0  0  0  0  0  0  0  0
   59.3871   24.9324   45.5384 H   0  0  0  0  0  0  0  0  0  0  0  0
   60.7914   26.9727   45.8141 H   0  0  0  0  0  0  0  0  0  0  0  0
   59.7228   29.2133   46.0080 H   0  0  0  0  0  0  0  0  0  0  0  0
   56.0210   29.7780   45.9580 H   0  0  0  0  0  0  0  0  0  0  0  0
   57.2259   31.8205   44.2838 H   0  0  0  0  0  0  0  0  0  0  0  0
   58.4095   33.9750   44.7052 H   0  0  0  0  0  0  0  0  0  0  0  0
   59.6487   34.3254   46.8455 H   0  0  0  0  0  0  0  0  0  0  0  0
   59.7286   32.5092   48.5515 H   0  0  0  0  0  0  0  0  0  0  0  0
   57.7430   29.6810   48.7180 H   0  0  0  0  0  0  0  0  0  0  0  0
   62.0641   28.8741   50.3493 H   0  0  0  0  0  0  0  0  0  0  0  0
   62.1240   28.0369   52.6998 H   0  0  0  0  0  0  0  0  0  0  0  0
   60.0271   27.9231   54.0458 H   0  0  0  0  0  0  0  0  0  0  0  0
   56.7962   27.9001   52.6549 H   0  0  0  0  0  0  0  0  0  0  0  0
   57.6682   28.1435   54.2009 H   0  0  0  0  0  0  0  0  0  0  0  0
   56.8600   31.3958   51.8241 H   0  0  0  0  0  0  0  0  0  0  0  0
   56.5116   29.7311   51.2514 H   0  0  0  0  0  0  0  0  0  0  0  0
   54.5654   31.2148   50.1146 H   0  0  0  0  0  0  0  0  0  0  0  0
   52.1462   31.7468   50.3937 H   0  0  0  0  0  0  0  0  0  0  0  0
   52.4316   30.8152   54.6170 H   0  0  0  0  0  0  0  0  0  0  0  0
   54.8392   30.2537   54.3263 H   0  0  0  0  0  0  0  0  0  0  0  0
   57.1164   33.0212   52.1870 H   0  0  0  0  0  0  0  0  0  0  0  0
   58.3876   34.3761   50.5188 H   0  0  0  0  0  0  0  0  0  0  0  0
   60.8514   34.0624   50.2667 H   0  0  0  0  0  0  0  0  0  0  0  0
   62.0467   32.3812   51.6722 H   0  0  0  0  0  0  0  0  0  0  0  0
   60.7829   31.0226   53.3422 H   0  0  0  0  0  0  0  0  0  0  0  0
   57.8108   29.5798   50.7231 H   0  0  0  0  0  0  0  0  0  0  0  0
  1  2  1  0
  2  3  1  0
  2  4  1  0
  4  5  2  0
  4  6  1  0
  6  7  2  0
  7  8  1  0
  8  9  2  0
  9 10  1  0
 10 11  1  0
 11 12  1  0
 12 13  2  0
 13 14  1  0
 14 15  2  0
 15 16  1  0
 16 17  2  0
 17 18  1  0
 18 19  1  0
 19 20  2  0
 19 21  1  0
 21 22  2  0
 22 23  1  0
 23 24  2  0
 24 25  1  0
 25 26  1  0
 26 27  1  0
 27 28  1  0
 28 29  1  0
 29 30  2  0
 30 31  1  0
 31 32  2  0
 32 33  1  0
 33 34  2  0
 33 35  1  0
 32 36  1  0
 36 37  2  0
 27 38  1  0
 38 39  2  0
 38 40  2  0
 38 41  1  0
 41 42  2  0
 42 43  1  0
 43 44  2  0
 44 45  1  0
 45 46  2  0
 25 47  2  0
 10 48  2  0
 48 49  1  0
 48  6  1  0
 17 12  1  0
 47 21  1  0
 37 29  1  0
 46 41  1  0
  1 50  1  0
  1 51  1  0
  1 52  1  0
  3 53  1  0
  3 54  1  0
  3 55  1  0
  7 56  1  0
  8 57  1  0
  9 58  1  0
 11 59  1  0
 13 60  1  0
 14 61  1  0
 15 62  1  0
 16 63  1  0
 18 64  1  0
 22 65  1  0
 23 66  1  0
 24 67  1  0
 26 68  1  0
 26 69  1  0
 28 70  1  0
 28 71  1  0
 30 72  1  0
 31 73  1  0
 36 74  1  0
 37 75  1  0
 42 76  1  0
 43 77  1  0
 44 78  1  0
 45 79  1  0
 46 80  1  0
 47 81  1  0
M  CHG  2  35  -1  49  -1
M  END
>  <UniqueID>  (35) 
33

>  <SMILES>  (35) 
CN(C)C(=O)c1cccc(Nc2ccccc2NC(=O)c2cccc(CN(Cc3ccc(C(=O)[O-])cc3)S(=O)(=O)c3ccccc3)c2)c1[O-]

>  <Energy>  (35) 
103.32065098341691

>  <Genealogy>  (35) 
CN(C)C(=O)c1cccc(Nc2ccccc2NC(=O)c2cccc(CN(Cc3ccc(C(=O)[O-])cc3)S(=O)(=O)c3ccccc3)c2)c1[O-] (protonated)
CN(C)C(=O)c1cccc(Nc2ccccc2NC(=O)c2cccc(CN(Cc3ccc(C(=O)[O-])cc3)S(=O)(=O)c3ccccc3)c2)c1[O-] (3D coordinates assigned)
CN(C)C(=O)c1cccc(Nc2ccccc2NC(=O)c2cccc(CN(Cc3ccc(C(=O)[O-])cc3)S(=O)(=O)c3ccccc3)c2)c1[O-] (optimized conformer: 103.32065098341691 kcal/mol)

>  <smiles>  (35) 
CN(C)C(=O)c1cccc(Nc2ccccc2NC(=O)c2cccc(CN(Cc3ccc(C(=O)O)cc3)S(=O)(=O)c3ccccc3)c2)c1O

>  <score_type>  (35) 
oracle

>  <origin>  (35) 
adg

>  <m_score__min__energy>  (35) 
-17.300000000000001

>  <m_primary>  (35) 
energy

$$$$
35:0
     RDKit          3D

 67 70  0  0  0  0  0  0  0  0999 V2000
   60.4410   29.6700   45.6220 C   0  0  0  0  0  0  0  0  0  0  0  0
   59.1170   30.1960   45.6570 O   0  0  0  0  0  0  0  0  0  0  0  0
   58.8050   31.5590   45.7790 C   0  0  0  0  0  0  0  0  0  0  0  0
   59.5120   32.4120   46.6510 C   0  0  0  0  0  0  0  0  0  0  0  0
   59.1630   33.7610   46.7550 C   0  0  0  0  0  0  0  0  0  0  0  0
   58.1100   34.2730   45.9940 C   0  0  0  0  0  0  0  0  0  0  0  0
   57.4090   33.4390   45.1210 C   0  0  0  0  0  0  0  0  0  0  0  0
   57.7420   32.0770   45.0200 C   0  0  0  0  0  0  0  0  0  0  0  0
   57.0240   31.2050   44.1350 N   0  0  0  0  0  0  0  0  0  0  0  0
   56.3780   29.9740   44.4870 C   0  0  0  0  0  0  0  0  0  0  0  0
   55.1650   30.0020   44.8190 O   0  0  0  0  0  0  0  0  0  0  0  0
   57.0850   28.6430   44.4470 C   0  0  0  0  0  0  0  0  0  0  0  0
   56.8940   27.9140   45.6560 O   0  0  0  0  0  0  0  0  0  0  0  0
   57.7270   26.8700   46.0730 C   0  0  0  0  0  0  0  0  0  0  0  0
   57.5280   25.7030   45.6420 O   0  0  0  0  0  0  0  0  0  0  0  0
   58.8150   27.1570   47.0370 C   0  0  0  0  0  0  0  0  0  0  0  0
   58.6120   28.1890   47.9710 C   0  0  0  0  0  0  0  0  0  0  0  0
   59.5630   28.4660   48.9570 C   0  0  0  0  0  0  0  0  0  0  0  0
   59.2340   29.7150   50.1560 S   0  0  0  0  0  0  0  0  0  0  0  0
   60.0640   29.4030   51.3700 O   0  0  0  0  0  0  0  0  0  0  0  0
   57.7800   29.6970   50.5430 O   0  0  0  0  0  0  0  0  0  0  0  0
   59.6610   31.2920   49.5160 N   0  0  0  0  0  0  0  0  0  0  0  0
   58.5830   32.2720   49.7760 C   0  0  0  0  0  0  0  0  0  0  0  0
   58.6210   32.7410   51.2050 C   0  0  0  0  0  0  0  0  0  0  0  0
   59.2330   33.9640   51.5270 C   0  0  0  0  0  0  0  0  0  0  0  0
   59.2420   34.4200   52.8490 C   0  0  0  0  0  0  0  0  0  0  0  0
   58.6420   33.6580   53.8570 C   0  0  0  0  0  0  0  0  0  0  0  0
   58.0400   32.4350   53.5450 C   0  0  0  0  0  0  0  0  0  0  0  0
   58.0330   31.9730   52.2260 C   0  0  0  0  0  0  0  0  0  0  0  0
   60.9360   31.7480   50.1000 C   0  0  0  0  0  0  0  0  0  0  0  0
   61.8630   32.2040   49.0050 C   0  0  0  0  0  0  0  0  0  0  0  0
   62.4250   31.2810   48.1080 C   0  0  0  0  0  0  0  0  0  0  0  0
   63.3190   31.7150   47.1220 C   0  0  0  0  0  0  0  0  0  0  0  0
   63.6530   33.0690   47.0250 C   0  0  0  0  0  0  0  0  0  0  0  0
   63.0970   33.9920   47.9160 C   0  0  0  0  0  0  0  0  0  0  0  0
   62.2090   33.5620   48.9060 C   0  0  0  0  0  0  0  0  0  0  0  0
   60.7520   27.7320   48.9990 C   0  0  0  0  0  0  0  0  0  0  0  0
   60.9860   26.7310   48.0580 C   0  0  0  0  0  0  0  0  0  0  0  0
   60.0450   26.4470   47.0620 C   0  0  0  0  0  0  0  0  0  0  0  0
   60.3940   25.4920   46.1050 O   0  0  0  0  0  0  0  0  0  0  0  0
   60.8053   29.5253   46.6498 H   0  0  0  0  0  0  0  0  0  0  0  0
   60.4382   28.7047   45.0946 H   0  0  0  0  0  0  0  0  0  0  0  0
   61.1014   30.3741   45.0946 H   0  0  0  0  0  0  0  0  0  0  0  0
   60.3424   32.0136   47.2524 H   0  0  0  0  0  0  0  0  0  0  0  0
   59.7187   34.4208   47.4375 H   0  0  0  0  0  0  0  0  0  0  0  0
   57.8328   35.3338   46.0824 H   0  0  0  0  0  0  0  0  0  0  0  0
   56.5922   33.8496   44.5093 H   0  0  0  0  0  0  0  0  0  0  0  0
   56.6889   28.0529   43.6074 H   0  0  0  0  0  0  0  0  0  0  0  0
   58.1621   28.8279   44.3219 H   0  0  0  0  0  0  0  0  0  0  0  0
   57.6902   28.7875   47.9246 H   0  0  0  0  0  0  0  0  0  0  0  0
   58.7132   33.1369   49.1089 H   0  0  0  0  0  0  0  0  0  0  0  0
   57.6133   31.7874   49.5895 H   0  0  0  0  0  0  0  0  0  0  0  0
   59.7066   34.5648   50.7366 H   0  0  0  0  0  0  0  0  0  0  0  0
   59.7213   35.3787   53.0964 H   0  0  0  0  0  0  0  0  0  0  0  0
   58.6437   34.0209   54.8954 H   0  0  0  0  0  0  0  0  0  0  0  0
   57.5711   31.8355   54.3392 H   0  0  0  0  0  0  0  0  0  0  0  0
   57.5664   31.0062   51.9858 H   0  0  0  0  0  0  0  0  0  0  0  0
   60.7442   32.5844   50.7883 H   0  0  0  0  0  0  0  0  0  0  0  0
   61.4026   30.9166   50.6488 H   0  0  0  0  0  0  0  0  0  0  0  0
   62.1623   30.2153   48.1803 H   0  0  0  0  0  0  0  0  0  0  0  0
   63.7594   30.9894   46.4224 H   0  0  0  0  0  0  0  0  0  0  0  0
   64.3533   33.4083   46.2476 H   0  0  0  0  0  0  0  0  0  0  0  0
   63.3587   35.0576   47.8378 H   0  0  0  0  0  0  0  0  0  0  0  0
   61.7794   34.2896   49.6103 H   0  0  0  0  0  0  0  0  0  0  0  0
   61.5026   27.9445   49.7745 H   0  0  0  0  0  0  0  0  0  0  0  0
   61.9231   26.1564   48.0988 H   0  0  0  0  0  0  0  0  0  0  0  0
   59.7370   25.0590   45.4720 H   0  0  0  0  0  0  0  0  0  0  0  0
  1  2  1  0
  2  3  1  0
  3  4  2  0
  4  5  1  0
  5  6  2  0
  6  7  1  0
  7  8  2  0
  8  9  1  0
  9 10  1  0
 10 11  2  0
 10 12  1  0
 12 13  1  0
 13 14  1  0
 14 15  2  0
 14 16  1  0
 16 17  2  0
 17 18  1  0
 18 19  1  0
 19 20  2  0
 19 21  2  0
 19 22  1  0
 22 23  1  0
 23 24  1  0
 24 25  2  0
 25 26  1  0
 26 27  2  0
 27 28  1  0
 28 29  2  0
 22 30  1  0
 30 31  1  0
 31 32  2  0
 32 33  1  0
 33 34  2  0
 34 35  1  0
 35 36  2  0
 18 37  2  0
 37 38  1  0
 38 39  2  0
 39 40  1  0
  8  3  1  0
 39 16  1  0
 29 24  1  0
 36 31  1  0
  1 41  1  0
  1 42  1  0
  1 43  1  0
  4 44  1  0
  5 45  1  0
  6 46  1  0
  7 47  1  0
 12 48  1  0
 12 49  1  0
 17 50  1  0
 23 51  1  0
 23 52  1  0
 25 53  1  0
 26 54  1  0
 27 55  1  0
 28 56  1  0
 29 57  1  0
 30 58  1  0
 30 59  1  0
 32 60  1  0
 33 61  1  0
 34 62  1  0
 35 63  1  0
 36 64  1  0
 37 65  1  0
 38 66  1  0
 40 67  1  0
M  CHG  1   9  -1
M  END
>  <UniqueID>  (36) 
34

>  <SMILES>  (36) 
COc1ccccc1[N-]C(=O)COC(=O)c1cc(S(=O)(=O)N(Cc2ccccc2)Cc2ccccc2)ccc1O

>  <Energy>  (36) 
69.98749190366291

>  <Genealogy>  (36) 
COc1ccccc1[N-]C(=O)COC(=O)c1cc(S(=O)(=O)N(Cc2ccccc2)Cc2ccccc2)ccc1O (protonated)
COc1ccccc1[N-]C(=O)COC(=O)c1cc(S(=O)(=O)N(Cc2ccccc2)Cc2ccccc2)ccc1O (3D coordinates assigned)
COc1ccccc1[N-]C(=O)COC(=O)c1cc(S(=O)(=O)N(Cc2ccccc2)Cc2ccccc2)ccc1O (optimized conformer: 69.98749190366291 kcal/mol)

>  <smiles>  (36) 
COc1ccccc1NC(=O)COC(=O)c1cc(S(=O)(=O)N(Cc2ccccc2)Cc2ccccc2)ccc1O

>  <score_type>  (36) 
oracle

>  <origin>  (36) 
adg

>  <m_score__min__energy>  (36) 
-13.1

>  <m_primary>  (36) 
energy

$$$$
36:0
     RDKit          3D

 45 47  0  0  0  0  0  0  0  0999 V2000
   57.3730   32.6580   40.4130 C   0  0  0  0  0  0  0  0  0  0  0  0
   58.1860   32.3340   41.6620 C   0  0  0  0  0  0  0  0  0  0  0  0
   57.4820   32.7220   42.8410 O   0  0  0  0  0  0  0  0  0  0  0  0
   58.0430   32.9090   44.1190 C   0  0  0  0  0  0  0  0  0  0  0  0
   58.8010   34.0580   44.4290 C   0  0  0  0  0  0  0  0  0  0  0  0
   59.3580   34.2220   45.6980 C   0  0  0  0  0  0  0  0  0  0  0  0
   59.1680   33.2500   46.6760 C   0  0  0  0  0  0  0  0  0  0  0  0
   58.4140   32.1120   46.3920 C   0  0  0  0  0  0  0  0  0  0  0  0
   57.8380   31.9230   45.1180 C   0  0  0  0  0  0  0  0  0  0  0  0
   57.0340   30.6970   44.8620 C   0  0  0  0  0  0  0  0  0  0  0  0
   56.4060   30.5550   43.7790 O   0  0  0  0  0  0  0  0  0  0  0  0
   57.0160   29.6470   45.8390 N   0  0  0  0  0  0  0  0  0  0  0  0
   57.9320   28.5490   45.9780 C   0  0  0  0  0  0  0  0  0  0  0  0
   59.3220   28.7470   46.0710 C   0  0  0  0  0  0  0  0  0  0  0  0
   60.1840   27.6510   46.1610 C   0  0  0  0  0  0  0  0  0  0  0  0
   59.6720   26.3540   46.1320 C   0  0  0  0  0  0  0  0  0  0  0  0
   58.2960   26.1440   46.0130 C   0  0  0  0  0  0  0  0  0  0  0  0
   57.4150   27.2410   45.9490 C   0  0  0  0  0  0  0  0  0  0  0  0
   55.9940   27.0820   45.8060 N   0  0  0  0  0  0  0  0  0  0  0  0
   55.1930   25.8970   45.9080 C   0  0  0  0  0  0  0  0  0  0  0  0
   53.9630   25.9220   45.6460 O   0  0  0  0  0  0  0  0  0  0  0  0
   55.8130   24.6390   46.2000 N   0  0  0  0  0  0  0  0  0  0  0  0
   56.2180   23.6670   45.2240 C   0  0  0  0  0  0  0  0  0  0  0  0
   57.4410   23.0080   45.3860 C   0  0  0  0  0  0  0  0  0  0  0  0
   57.8470   22.0490   44.4560 C   0  0  0  0  0  0  0  0  0  0  0  0
   57.0330   21.7760   43.3550 C   0  0  0  0  0  0  0  0  0  0  0  0
   55.8640   22.4490   43.1900 N   0  0  0  0  0  0  0  0  0  0  0  0
   55.4410   23.3790   44.0880 C   0  0  0  0  0  0  0  0  0  0  0  0
   56.3886   33.0503   40.7079 H   0  0  0  0  0  0  0  0  0  0  0  0
   57.9045   33.4130   39.8151 H   0  0  0  0  0  0  0  0  0  0  0  0
   57.2395   31.7444   39.8151 H   0  0  0  0  0  0  0  0  0  0  0  0
   58.3776   31.2514   41.6965 H   0  0  0  0  0  0  0  0  0  0  0  0
   59.1341   32.8901   41.6190 H   0  0  0  0  0  0  0  0  0  0  0  0
   58.9544   34.8322   43.6628 H   0  0  0  0  0  0  0  0  0  0  0  0
   59.9486   35.1216   45.9259 H   0  0  0  0  0  0  0  0  0  0  0  0
   59.6130   33.3797   47.6736 H   0  0  0  0  0  0  0  0  0  0  0  0
   58.2662   31.3508   47.1722 H   0  0  0  0  0  0  0  0  0  0  0  0
   59.7314   29.7680   46.0729 H   0  0  0  0  0  0  0  0  0  0  0  0
   61.2682   27.8114   46.2549 H   0  0  0  0  0  0  0  0  0  0  0  0
   60.3538   25.4937   46.2031 H   0  0  0  0  0  0  0  0  0  0  0  0
   57.8995   25.1189   45.9692 H   0  0  0  0  0  0  0  0  0  0  0  0
   58.0835   23.2454   46.2467 H   0  0  0  0  0  0  0  0  0  0  0  0
   58.7987   21.5139   44.5894 H   0  0  0  0  0  0  0  0  0  0  0  0
   57.3381   21.0158   42.6208 H   0  0  0  0  0  0  0  0  0  0  0  0
   54.4896   23.9066   43.9253 H   0  0  0  0  0  0  0  0  0  0  0  0
  1  2  1  0
  2  3  1  0
  3  4  1  0
  4  5  2  0
  5  6  1  0
  6  7  2  0
  7  8  1  0
  8  9  2  0
  9 10  1  0
 10 11  2  0
 10 12  1  0
 12 13  1  0
 13 14  2  0
 14 15  1  0
 15 16  2  0
 16 17  1  0
 17 18  2  0
 18 19  1  0
 19 20  1  0
 20 21  2  0
 20 22  1  0
 22 23  1  0
 23 24  2  0
 24 25  1  0
 25 26  2  0
 26 27  1  0
 27 28  2  0
  9  4  1  0
 18 13  1  0
 28 23  1  0
  1 29  1  0
  1 30  1  0
  1 31  1  0
  2 32  1  0
  2 33  1  0
  5 34  1  0
  6 35  1  0
  7 36  1  0
  8 37  1  0
 14 38  1  0
 15 39  1  0
 16 40  1  0
 17 41  1  0
 24 42  1  0
 25 43  1  0
 26 44  1  0
 28 45  1  0
M  CHG  3  12  -1  19  -1  22  -1
M  END
>  <UniqueID>  (37) 
35

>  <SMILES>  (37) 
CCOc1ccccc1C(=O)[N-]c1ccccc1[N-]C(=O)[N-]c1cccnc1

>  <Energy>  (37) 
59.34245792557144

>  <Genealogy>  (37) 
CCOc1ccccc1C(=O)[N-]c1ccccc1[N-]C(=O)[N-]c1cccnc1 (protonated)
CCOc1ccccc1C(=O)[N-]c1ccccc1[N-]C(=O)[N-]c1cccnc1 (3D coordinates assigned)
CCOc1ccccc1C(=O)[N-]c1ccccc1[N-]C(=O)[N-]c1cccnc1 (optimized conformer: 59.34245792557144 kcal/mol)

>  <smiles>  (37) 
CCOc1ccccc1C(=O)Nc1ccccc1NC(=O)Nc1cccnc1

>  <score_type>  (37) 
oracle

>  <origin>  (37) 
adg

>  <m_score__min__energy>  (37) 
-13.630000000000001

>  <m_primary>  (37) 
energy

$$$$
37:0
     RDKit          3D

 47 49  0  0  0  0  0  0  0  0999 V2000
   56.6350   30.6490   42.4600 O   0  0  0  0  0  0  0  0  0  0  0  0
   56.9710   30.5120   43.9180 S   0  0  0  0  0  0  0  0  0  0  0  0
   55.7210   30.1390   44.6660 O   0  0  0  0  0  0  0  0  0  0  0  0
   58.1670   29.2680   44.1160 N   0  0  0  0  0  0  0  0  0  0  0  0
   57.7680   28.0700   43.3710 C   0  0  0  0  0  0  0  0  0  0  0  0
   58.1960   26.8050   44.1180 C   0  0  0  0  0  0  0  0  0  0  0  0
   57.8470   26.9200   45.8750 S   0  0  0  0  0  0  0  0  0  0  0  0
   57.5520   25.5480   46.4140 O   0  0  0  0  0  0  0  0  0  0  0  0
   56.6400   27.7910   46.0870 O   0  0  0  0  0  0  0  0  0  0  0  0
   59.2050   27.5890   46.7520 N   0  0  0  0  0  0  0  0  0  0  0  0
   60.3300   27.9160   45.8420 C   0  0  0  0  0  0  0  0  0  0  0  0
   60.5260   29.4250   45.6320 C   0  0  0  0  0  0  0  0  0  0  0  0
   60.6550   30.1040   46.9280 N   0  0  0  0  0  0  0  0  0  0  0  0
   61.4310   31.3160   47.0530 C   0  0  0  0  0  0  0  0  0  0  0  0
   62.7790   31.2670   47.4600 C   0  0  0  0  0  0  0  0  0  0  0  0
   63.5280   32.4410   47.5770 C   0  0  0  0  0  0  0  0  0  0  0  0
   62.9430   33.6770   47.2900 C   0  0  0  0  0  0  0  0  0  0  0  0
   61.6090   33.7400   46.8840 C   0  0  0  0  0  0  0  0  0  0  0  0
   60.8560   32.5680   46.7640 C   0  0  0  0  0  0  0  0  0  0  0  0
   59.9330   29.5620   48.0880 C   0  0  0  0  0  0  0  0  0  0  0  0
   58.7590   28.6950   47.6240 C   0  0  0  0  0  0  0  0  0  0  0  0
   57.5780   32.0480   44.5110 C   0  0  0  0  0  0  0  0  0  0  0  0
   58.2390   33.0060   43.7570 C   0  0  0  0  0  0  0  0  0  0  0  0
   58.5720   34.1470   44.4970 C   0  0  0  0  0  0  0  0  0  0  0  0
   58.1670   34.0870   45.8250 C   0  0  0  0  0  0  0  0  0  0  0  0
   57.3940   32.6140   46.0800 S   0  0  0  0  0  0  0  0  0  0  0  0
   58.1890   29.0270   45.1350 H   0  0  0  0  0  0  0  0  0  0  0  0
   56.6746   28.0664   43.2505 H   0  0  0  0  0  0  0  0  0  0  0  0
   58.2587   28.0842   42.3866 H   0  0  0  0  0  0  0  0  0  0  0  0
   57.6517   25.9443   43.7022 H   0  0  0  0  0  0  0  0  0  0  0  0
   59.2820   26.6836   43.9918 H   0  0  0  0  0  0  0  0  0  0  0  0
   61.2551   27.5002   46.2678 H   0  0  0  0  0  0  0  0  0  0  0  0
   60.0912   27.4799   44.8608 H   0  0  0  0  0  0  0  0  0  0  0  0
   61.4379   29.5943   45.0405 H   0  0  0  0  0  0  0  0  0  0  0  0
   59.6529   29.8301   45.0994 H   0  0  0  0  0  0  0  0  0  0  0  0
   63.2455   30.2971   47.6874 H   0  0  0  0  0  0  0  0  0  0  0  0
   64.5797   32.3920   47.8955 H   0  0  0  0  0  0  0  0  0  0  0  0
   63.5336   34.6002   47.3840 H   0  0  0  0  0  0  0  0  0  0  0  0
   61.1493   34.7135   46.6580 H   0  0  0  0  0  0  0  0  0  0  0  0
   59.8060   32.6247   46.4412 H   0  0  0  0  0  0  0  0  0  0  0  0
   60.6206   28.9500   48.6902 H   0  0  0  0  0  0  0  0  0  0  0  0
   59.5458   30.3965   48.6911 H   0  0  0  0  0  0  0  0  0  0  0  0
   58.2577   28.2722   48.5071 H   0  0  0  0  0  0  0  0  0  0  0  0
   58.0720   29.3305   47.0460 H   0  0  0  0  0  0  0  0  0  0  0  0
   58.4766   32.8825   42.6901 H   0  0  0  0  0  0  0  0  0  0  0  0
   59.1037   35.0091   44.0679 H   0  0  0  0  0  0  0  0  0  0  0  0
   58.3249   34.8698   46.5815 H   0  0  0  0  0  0  0  0  0  0  0  0
  1  2  2  0
  2  3  2  0
  2  4  1  0
  4  5  1  0
  5  6  1  0
  6  7  1  0
  7  8  2  0
  7  9  2  0
  7 10  1  0
 10 11  1  0
 11 12  1  0
 12 13  1  0
 13 14  1  0
 14 15  2  0
 15 16  1  0
 16 17  2  0
 17 18  1  0
 18 19  2  0
 13 20  1  0
 20 21  1  0
  2 22  1  0
 22 23  2  0
 23 24  1  0
 24 25  2  0
 25 26  1  0
 21 10  1  0
 26 22  1  0
 19 14  1  0
  4 27  1  0
  5 28  1  0
  5 29  1  0
  6 30  1  0
  6 31  1  0
 11 32  1  0
 11 33  1  0
 12 34  1  0
 12 35  1  0
 15 36  1  0
 16 37  1  0
 17 38  1  0
 18 39  1  0
 19 40  1  0
 20 41  1  0
 20 42  1  0
 21 43  1  0
 21 44  1  0
 23 45  1  0
 24 46  1  0
 25 47  1  0
M  END
>  <UniqueID>  (38) 
36

>  <SMILES>  (38) 
O=S(=O)(NCCS(=O)(=O)N1CCN(c2ccccc2)CC1)c1cccs1

>  <Energy>  (38) 
73.69058145073637

>  <Genealogy>  (38) 
O=S(=O)(NCCS(=O)(=O)N1CCN(c2ccccc2)CC1)c1cccs1 (3D coordinates assigned)
O=S(=O)(NCCS(=O)(=O)N1CCN(c2ccccc2)CC1)c1cccs1 (nonaromatic ring conformer: 73.69058145073637 kcal/mol)

>  <smiles>  (38) 
O=S(=O)(NCCS(=O)(=O)N1CCN(c2ccccc2)CC1)c1cccs1

>  <score_type>  (38) 
oracle

>  <origin>  (38) 
adg

>  <m_score__min__energy>  (38) 
-9.6600000000000001

>  <m_primary>  (38) 
energy

$$$$
38:0
     RDKit          3D

 55 57  0  0  0  0  0  0  0  0999 V2000
   51.4050   24.0870   44.1670 C   0  0  0  0  0  0  0  0  0  0  0  0
   52.1780   23.3650   45.2680 C   0  0  0  0  0  0  0  0  0  0  0  0
   53.4680   22.9600   44.7970 O   0  0  0  0  0  0  0  0  0  0  0  0
   54.6340   23.7420   44.8380 C   0  0  0  0  0  0  0  0  0  0  0  0
   55.6650   23.6210   43.8880 C   0  0  0  0  0  0  0  0  0  0  0  0
   56.8050   24.4220   43.9810 C   0  0  0  0  0  0  0  0  0  0  0  0
   56.9380   25.3610   45.0230 C   0  0  0  0  0  0  0  0  0  0  0  0
   58.1520   26.2030   45.1210 C   0  0  0  0  0  0  0  0  0  0  0  0
   59.1790   25.7690   45.7120 O   0  0  0  0  0  0  0  0  0  0  0  0
   58.1790   27.4860   44.4860 N   0  0  0  0  0  0  0  0  0  0  0  0
   58.5590   28.7250   45.0970 C   0  0  0  0  0  0  0  0  0  0  0  0
   59.9480   28.9840   46.0050 S   0  0  0  0  0  0  0  0  0  0  0  0
   59.6330   30.5980   46.3660 C   0  0  0  0  0  0  0  0  0  0  0  0
   60.5480   31.4640   47.1390 C   0  0  0  0  0  0  0  0  0  0  0  0
   60.1510   32.5920   47.5390 O   0  0  0  0  0  0  0  0  0  0  0  0
   61.9030   31.0550   47.3850 N   0  0  0  0  0  0  0  0  0  0  0  0
   62.7570   31.7110   48.3390 C   0  0  0  0  0  0  0  0  0  0  0  0
   62.9110   31.1770   49.6330 C   0  0  0  0  0  0  0  0  0  0  0  0
   63.7550   31.7910   50.5580 C   0  0  0  0  0  0  0  0  0  0  0  0
   64.4630   32.9380   50.2050 C   0  0  0  0  0  0  0  0  0  0  0  0
   64.3370   33.4720   48.9190 C   0  0  0  0  0  0  0  0  0  0  0  0
   63.4870   32.8680   47.9770 C   0  0  0  0  0  0  0  0  0  0  0  0
   63.3790   33.4580   46.5980 C   0  0  0  0  0  0  0  0  0  0  0  0
   58.3990   30.9550   45.7910 C   0  0  0  0  0  0  0  0  0  0  0  0
   57.7600   32.3070   45.9690 C   0  0  0  0  0  0  0  0  0  0  0  0
   57.8010   29.8960   45.0570 C   0  0  0  0  0  0  0  0  0  0  0  0
   56.5300   29.9910   44.2960 C   0  0  0  0  0  0  0  0  0  0  0  0
   55.4390   29.6350   44.8220 O   0  0  0  0  0  0  0  0  0  0  0  0
   56.5420   30.5090   42.9950 O   0  0  0  0  0  0  0  0  0  0  0  0
   57.3950   31.5750   42.5920 C   0  0  0  0  0  0  0  0  0  0  0  0
   55.9060   25.4760   45.9710 C   0  0  0  0  0  0  0  0  0  0  0  0
   54.7680   24.6700   45.8790 C   0  0  0  0  0  0  0  0  0  0  0  0
   50.6728   24.7709   44.6211 H   0  0  0  0  0  0  0  0  0  0  0  0
   52.1057   24.6615   43.5433 H   0  0  0  0  0  0  0  0  0  0  0  0
   50.8796   23.3488   43.5433 H   0  0  0  0  0  0  0  0  0  0  0  0
   52.3028   24.0424   46.1256 H   0  0  0  0  0  0  0  0  0  0  0  0
   51.6136   22.4699   45.5684 H   0  0  0  0  0  0  0  0  0  0  0  0
   55.5725   22.8926   43.0689 H   0  0  0  0  0  0  0  0  0  0  0  0
   57.6061   24.3190   43.2343 H   0  0  0  0  0  0  0  0  0  0  0  0
   62.2960   30.2650   46.8310 H   0  0  0  0  0  0  0  0  0  0  0  0
   62.3608   30.2677   49.9166 H   0  0  0  0  0  0  0  0  0  0  0  0
   63.8620   31.3690   51.5682 H   0  0  0  0  0  0  0  0  0  0  0  0
   65.1221   33.4242   50.9393 H   0  0  0  0  0  0  0  0  0  0  0  0
   64.9072   34.3712   48.6427 H   0  0  0  0  0  0  0  0  0  0  0  0
   63.1814   34.5373   46.6754 H   0  0  0  0  0  0  0  0  0  0  0  0
   64.3218   33.2958   46.0549 H   0  0  0  0  0  0  0  0  0  0  0  0
   62.5548   32.9724   46.0549 H   0  0  0  0  0  0  0  0  0  0  0  0
   57.6568   32.5253   47.0422 H   0  0  0  0  0  0  0  0  0  0  0  0
   58.3902   33.0754   45.4974 H   0  0  0  0  0  0  0  0  0  0  0  0
   56.7662   32.3078   45.4974 H   0  0  0  0  0  0  0  0  0  0  0  0
   57.7982   32.0788   43.4829 H   0  0  0  0  0  0  0  0  0  0  0  0
   58.2243   31.1738   41.9909 H   0  0  0  0  0  0  0  0  0  0  0  0
   56.8217   32.2961   41.9909 H   0  0  0  0  0  0  0  0  0  0  0  0
   55.9949   26.2048   46.7901 H   0  0  0  0  0  0  0  0  0  0  0  0
   53.9704   24.7651   46.6306 H   0  0  0  0  0  0  0  0  0  0  0  0
  1  2  1  0
  2  3  1  0
  3  4  1  0
  4  5  2  0
  5  6  1  0
  6  7  2  0
  7  8  1  0
  8  9  2  0
  8 10  1  0
 10 11  1  0
 11 12  1  0
 12 13  1  0
 13 14  1  0
 14 15  2  0
 14 16  1  0
 16 17  1  0
 17 18  2  0
 18 19  1  0
 19 20  2  0
 20 21  1  0
 21 22  2  0
 22 23  1  0
 13 24  2  0
 24 25  1  0
 24 26  1  0
 26 27  1  0
 27 28  2  0
 27 29  1  0
 29 30  1  0
  7 31  1  0
 31 32  2  0
 32  4  1  0
 26 11  2  0
 22 17  1  0
  1 33  1  0
  1 34  1  0
  1 35  1  0
  2 36  1  0
  2 37  1  0
  5 38  1  0
  6 39  1  0
 16 40  1  0
 18 41  1  0
 19 42  1  0
 20 43  1  0
 21 44  1  0
 23 45  1  0
 23 46  1  0
 23 47  1  0
 25 48  1  0
 25 49  1  0
 25 50  1  0
 30 51  1  0
 30 52  1  0
 30 53  1  0
 31 54  1  0
 32 55  1  0
M  CHG  1  10  -1
M  END
>  <UniqueID>  (39) 
37

>  <SMILES>  (39) 
CCOc1ccc(C(=O)[N-]c2sc(C(=O)Nc3ccccc3C)c(C)c2C(=O)OC)cc1

>  <Energy>  (39) 
91.18445048904388

>  <Genealogy>  (39) 
CCOc1ccc(C(=O)[N-]c2sc(C(=O)Nc3ccccc3C)c(C)c2C(=O)OC)cc1 (protonated)
CCOc1ccc(C(=O)[N-]c2sc(C(=O)Nc3ccccc3C)c(C)c2C(=O)OC)cc1 (3D coordinates assigned)
CCOc1ccc(C(=O)[N-]c2sc(C(=O)Nc3ccccc3C)c(C)c2C(=O)OC)cc1 (optimized conformer: 91.18445048904388 kcal/mol)

>  <smiles>  (39) 
CCOc1ccc(C(=O)Nc2sc(C(=O)Nc3ccccc3C)c(C)c2C(=O)OC)cc1

>  <score_type>  (39) 
oracle

>  <origin>  (39) 
adg

>  <m_score__min__energy>  (39) 
-9.5999999999999996

>  <m_primary>  (39) 
energy

$$$$
39:0
     RDKit          3D

 31 32  0  0  1  0  0  0  0  0999 V2000
   59.0250   25.9570   45.8470 O   0  0  0  0  0  0  0  0  0  0  0  0
   58.2130   26.4450   45.0260 C   0  0  0  0  0  0  0  0  0  0  0  0
   57.5160   25.5670   44.1630 N   0  0  0  0  0  0  0  0  0  0  0  0
   57.6970   24.1440   44.1860 C   0  0  0  0  0  0  0  0  0  0  0  0
   56.8280   23.2830   43.5390 C   0  0  0  0  0  0  0  0  0  0  0  0
   57.0630   21.9210   43.6040 C   0  0  0  0  0  0  0  0  0  0  0  0
   56.2740   21.1610   43.0160 O   0  0  0  0  0  0  0  0  0  0  0  0
   58.1220   21.4770   44.2910 N   0  0  0  0  0  0  0  0  0  0  0  0
   58.9750   22.3060   44.9250 C   0  0  0  0  0  0  0  0  0  0  0  0
   59.9620   21.8460   45.5620 O   0  0  0  0  0  0  0  0  0  0  0  0
   58.7540   23.6310   44.8680 N   0  0  0  0  0  0  0  0  0  0  0  0
   58.0390   27.8930   45.0130 C   0  0  0  0  0  0  0  0  0  0  0  0
   57.4270   28.4860   43.9470 C   0  0  0  0  0  0  0  0  0  0  0  0
   57.2270   29.8430   43.8610 C   0  0  0  0  0  0  0  0  0  0  0  0
   57.6470   30.6820   44.8720 C   0  0  0  0  0  0  0  0  0  0  0  0
   57.4030   32.0980   44.7120 C   0  0  0  0  0  0  0  0  0  0  0  0
   57.6310   32.6860   43.4590 O   0  0  0  0  0  0  0  0  0  0  0  0
   56.9880   32.8990   45.6210 N   0  0  0  0  0  0  0  0  0  0  0  0
   56.6920   34.2080   45.4260 O   0  0  0  0  0  0  0  0  0  0  0  0
   58.2630   30.0920   45.9440 C   0  0  0  0  0  0  0  0  0  0  0  0
   58.4680   28.7110   46.0350 C   0  0  0  0  0  0  0  0  0  0  0  0
   56.8360   25.9470   43.4710 H   0  0  0  0  0  0  0  0  0  0  0  0
   55.9643   23.6751   42.9820 H   0  0  0  0  0  0  0  0  0  0  0  0
   58.3150   20.4470   44.3500 H   0  0  0  0  0  0  0  0  0  0  0  0
   59.4020   24.3090   45.3530 H   0  0  0  0  0  0  0  0  0  0  0  0
   57.0784   27.8498   43.1201 H   0  0  0  0  0  0  0  0  0  0  0  0
   56.7267   30.2644   42.9766 H   0  0  0  0  0  0  0  0  0  0  0  0
   57.4380   33.6910   43.3300 H   0  0  0  0  0  0  0  0  0  0  0  0
   56.7010   34.6070   44.4930 H   0  0  0  0  0  0  0  0  0  0  0  0
   58.6114   30.7314   46.7685 H   0  0  0  0  0  0  0  0  0  0  0  0
   58.9679   28.2817   46.9158 H   0  0  0  0  0  0  0  0  0  0  0  0
  1  2  2  0
  2  3  1  0
  3  4  1  0
  4  5  2  0
  5  6  1  0
  6  7  2  0
  6  8  1  0
  8  9  1  0
  9 10  2  0
  9 11  1  0
  2 12  1  0
 12 13  2  0
 13 14  1  0
 14 15  2  0
 15 16  1  0
 16 17  1  0
 16 18  2  0
 18 19  1  0
 15 20  1  0
 20 21  2  0
 11  4  1  0
 21 12  1  0
  3 22  1  0
  5 23  1  0
  8 24  1  0
 11 25  1  0
 13 26  1  0
 14 27  1  0
 17 28  1  0
 19 29  1  0
 20 30  1  0
 21 31  1  0
M  END
>  <smiles>  (40) 
O=C(Nc1cc(=O)[nH]c(=O)[nH]1)c1ccc(C(O)=NO)cc1

>  <score_type>  (40) 
oracle

>  <origin>  (40) 
adg

>  <m_score__min__energy>  (40) 
-6.9900000000000002

>  <m_primary>  (40) 
energy

$$$$
40:0
     RDKit          3D

 50 53  0  0  0  0  0  0  0  0999 V2000
   56.4814   19.7094   44.5988 H   0  0  0  0  0  0  0  0  0  0  0  0
   56.3780   20.7630   44.3000 C   0  0  0  0  0  0  0  0  0  0  0  0
   55.8840   21.6740   45.1800 N   0  0  0  0  0  0  0  0  0  0  0  0
   55.7310   22.9900   44.8510 C   0  0  0  0  0  0  0  0  0  0  0  0
   55.2770   23.8550   45.7100 N   0  0  0  0  0  0  0  0  0  0  0  0
   55.6560   25.2360   45.8180 C   0  0  0  0  0  0  0  0  0  0  0  0
   54.7540   26.0970   45.9960 O   0  0  0  0  0  0  0  0  0  0  0  0
   57.0370   25.6320   45.8260 N   0  0  0  0  0  0  0  0  0  0  0  0
   57.7380   24.9490   46.1930 H   0  0  0  0  0  0  0  0  0  0  0  0
   57.4850   26.9640   45.5210 C   0  0  0  0  0  0  0  0  0  0  0  0
   58.8600   27.2190   45.4010 C   0  0  0  0  0  0  0  0  0  0  0  0
   59.5819   26.4017   45.5457 H   0  0  0  0  0  0  0  0  0  0  0  0
   59.3180   28.5040   45.0990 C   0  0  0  0  0  0  0  0  0  0  0  0
   60.3971   28.6922   44.9980 H   0  0  0  0  0  0  0  0  0  0  0  0
   58.4040   29.5560   44.9240 C   0  0  0  0  0  0  0  0  0  0  0  0
   58.8590   30.8770   44.5970 N   0  0  0  0  0  0  0  0  0  0  0  0
   58.6410   32.0130   45.2100 C   0  0  0  0  0  0  0  0  0  0  0  0
   57.4970   32.7200   44.8170 C   0  0  0  0  0  0  0  0  0  0  0  0
   56.7565   32.2403   44.1601 H   0  0  0  0  0  0  0  0  0  0  0  0
   57.2920   34.0260   45.2530 C   0  0  0  0  0  0  0  0  0  0  0  0
   56.4059   34.5838   44.9158 H   0  0  0  0  0  0  0  0  0  0  0  0
   58.1800   34.6120   46.0910 N   0  0  0  0  0  0  0  0  0  0  0  0
   59.2610   33.9450   46.5730 C   0  0  0  0  0  0  0  0  0  0  0  0
   60.1060   34.5910   47.4790 C   0  0  0  0  0  0  0  0  0  0  0  0
   59.9371   35.6506   47.7214 H   0  0  0  0  0  0  0  0  0  0  0  0
   61.1690   33.9000   48.0830 C   0  0  0  0  0  0  0  0  0  0  0  0
   62.0500   34.5230   48.9820 O   0  0  0  0  0  0  0  0  0  0  0  0
   62.2320   34.1300   50.3390 C   0  0  0  0  0  0  0  0  0  0  0  0
   61.8637   34.9254   51.0036 H   0  0  0  0  0  0  0  0  0  0  0  0
   61.6714   33.2032   50.5306 H   0  0  0  0  0  0  0  0  0  0  0  0
   63.3014   33.9580   50.5306 H   0  0  0  0  0  0  0  0  0  0  0  0
   61.3550   32.5410   47.8050 C   0  0  0  0  0  0  0  0  0  0  0  0
   62.3990   31.8650   48.4580 O   0  0  0  0  0  0  0  0  0  0  0  0
   63.7820   32.0240   48.1550 C   0  0  0  0  0  0  0  0  0  0  0  0
   64.3571   32.0901   49.0904 H   0  0  0  0  0  0  0  0  0  0  0  0
   64.1310   31.1601   47.5703 H   0  0  0  0  0  0  0  0  0  0  0  0
   63.9258   32.9446   47.5703 H   0  0  0  0  0  0  0  0  0  0  0  0
   60.4990   31.8890   46.8960 C   0  0  0  0  0  0  0  0  0  0  0  0
   60.6118   30.8077   46.7286 H   0  0  0  0  0  0  0  0  0  0  0  0
   59.4990   32.5980   46.1960 C   0  0  0  0  0  0  0  0  0  0  0  0
   57.0330   29.2930   44.9780 C   0  0  0  0  0  0  0  0  0  0  0  0
   56.3123   30.1002   44.7805 H   0  0  0  0  0  0  0  0  0  0  0  0
   56.5730   28.0080   45.2820 C   0  0  0  0  0  0  0  0  0  0  0  0
   55.4918   27.8124   45.3346 H   0  0  0  0  0  0  0  0  0  0  0  0
   56.1090   23.4260   43.5740 C   0  0  0  0  0  0  0  0  0  0  0  0
   56.0055   24.4856   43.2974 H   0  0  0  0  0  0  0  0  0  0  0  0
   56.6180   22.5060   42.6550 C   0  0  0  0  0  0  0  0  0  0  0  0
   56.9111   22.8375   41.6479 H   0  0  0  0  0  0  0  0  0  0  0  0
   56.7540   21.1650   43.0170 C   0  0  0  0  0  0  0  0  0  0  0  0
   57.1530   20.4330   42.2994 H   0  0  0  0  0  0  0  0  0  0  0  0
  1  2  1  0
  2  3  1  0
  3  4  1  0
  4  5  2  0
  5  6  1  0
  6  7  2  0
  6  8  1  0
  8  9  1  0
  8 10  1  0
 10 11  2  0
 11 12  1  0
 11 13  1  0
 13 14  1  0
 13 15  2  0
 15 16  1  0
 16 17  2  0
 17 18  1  0
 18 19  1  0
 18 20  2  0
 20 21  1  0
 20 22  1  0
 22 23  1  0
 23 24  2  0
 24 25  1  0
 24 26  1  0
 26 27  1  0
 27 28  1  0
 28 29  1  0
 28 30  1  0
 28 31  1  0
 26 32  2  0
 32 33  1  0
 33 34  1  0
 34 35  1  0
 34 36  1  0
 34 37  1  0
 32 38  1  0
 38 39  1  0
 38 40  2  0
 15 41  1  0
 41 42  1  0
 41 43  2  0
 43 44  1  0
  4 45  1  0
 45 46  1  0
 45 47  2  0
 47 48  1  0
 47 49  1  0
 49 50  1  0
 49  2  2  0
 43 10  1  0
 40 17  1  0
 40 23  1  0
M  CHG  2   3  -1  22  -1
M  END
>  <UniqueID>  (41) 
38

>  <SMILES>  (41) 
COc1cc2[n-]cc/c(=N/c3ccc(NC(=O)/N=c4/cccc[n-]4)cc3)c2cc1OC

>  <Energy>  (41) 
84.42225518944076

>  <Genealogy>  (41) 
COc1cc2[n-]ccc(=Nc3ccc(NC(=O)N=c4cccc[n-]4)cc3)c2cc1OC (protonated)
COc1cc2[n-]cc/c(=N/c3ccc(NC(=O)/N=c4/cccc[n-]4)cc3)c2cc1OC (cis-trans isomerization)
COc1cc2[n-]cc/c(=N/c3ccc(NC(=O)/N=c4/cccc[n-]4)cc3)c2cc1OC (3D coordinates assigned)
COc1cc2[n-]cc/c(=N/c3ccc(NC(=O)/N=c4/cccc[n-]4)cc3)c2cc1OC (optimized conformer: 84.42225518944076 kcal/mol)

>  <smiles>  (41) 
COc1cc2[nH]ccc(=Nc3ccc(NC(=O)N=c4cccc[nH]4)cc3)c2cc1OC

>  <score_type>  (41) 
oracle

>  <origin>  (41) 
adg

>  <m_score__min__energy>  (41) 
-9.9700000000000006

>  <m_primary>  (41) 
energy

$$$$
41:0
     RDKit          3D

 51 54  0  0  0  0  0  0  0  0999 V2000
   65.7040   33.8840   51.4660 C   0  0  0  0  0  0  0  0  0  0  0  0
   65.4300   33.1720   50.1750 C   0  0  0  0  0  0  0  0  0  0  0  0
   66.3010   32.3700   49.7370 O   0  0  0  0  0  0  0  0  0  0  0  0
   64.1720   33.3850   49.4100 C   0  0  0  0  0  0  0  0  0  0  0  0
   63.0380   33.9140   50.0530 C   0  0  0  0  0  0  0  0  0  0  0  0
   61.8490   34.1200   49.3480 C   0  0  0  0  0  0  0  0  0  0  0  0
   61.7620   33.8040   47.9820 C   0  0  0  0  0  0  0  0  0  0  0  0
   60.5340   34.0170   47.2520 N   0  0  0  0  0  0  0  0  0  0  0  0
   59.2980   34.3790   47.9580 C   0  0  0  0  0  0  0  0  0  0  0  0
   58.0800   33.9140   47.1540 C   0  0  0  0  0  0  0  0  0  0  0  0
   58.0480   34.4920   45.7840 N   0  0  0  0  0  0  0  0  0  0  0  0
   57.2130   33.6780   44.8740 C   0  0  0  0  0  0  0  0  0  0  0  0
   57.8030   32.3120   44.6810 C   0  0  0  0  0  0  0  0  0  0  0  0
   57.9450   31.6420   43.4850 C   0  0  0  0  0  0  0  0  0  0  0  0
   58.4360   30.4540   43.7520 O   0  0  0  0  0  0  0  0  0  0  0  0
   58.5790   30.3690   45.0570 C   0  0  0  0  0  0  0  0  0  0  0  0
   59.1170   29.1750   45.7410 C   0  0  0  0  0  0  0  0  0  0  0  0
   59.8570   29.3560   46.9220 C   0  0  0  0  0  0  0  0  0  0  0  0
   60.3720   28.2580   47.6130 C   0  0  0  0  0  0  0  0  0  0  0  0
   60.1660   26.9660   47.1260 C   0  0  0  0  0  0  0  0  0  0  0  0
   59.4550   26.7710   45.9410 C   0  0  0  0  0  0  0  0  0  0  0  0
   58.9320   27.8640   45.2380 C   0  0  0  0  0  0  0  0  0  0  0  0
   58.1470   27.5490   43.6930 Cl  0  0  0  0  0  0  0  0  0  0  0  0
   58.2010   31.5050   45.6780 N   0  0  0  0  0  0  0  0  0  0  0  0
   59.3910   34.7500   45.1980 C   0  0  0  0  0  0  0  0  0  0  0  0
   60.4930   33.8610   45.7920 C   0  0  0  0  0  0  0  0  0  0  0  0
   62.8950   33.2750   47.3380 C   0  0  0  0  0  0  0  0  0  0  0  0
   64.0840   33.0680   48.0420 C   0  0  0  0  0  0  0  0  0  0  0  0
   65.4503   33.2248   52.3093 H   0  0  0  0  0  0  0  0  0  0  0  0
   66.7696   34.1522   51.5179 H   0  0  0  0  0  0  0  0  0  0  0  0
   65.0931   34.7973   51.5179 H   0  0  0  0  0  0  0  0  0  0  0  0
   63.0877   34.1682   51.1221 H   0  0  0  0  0  0  0  0  0  0  0  0
   60.9724   34.5338   49.8680 H   0  0  0  0  0  0  0  0  0  0  0  0
   59.2882   33.8960   48.9462 H   0  0  0  0  0  0  0  0  0  0  0  0
   59.2567   35.4718   48.0764 H   0  0  0  0  0  0  0  0  0  0  0  0
   58.1080   32.8173   47.0737 H   0  0  0  0  0  0  0  0  0  0  0  0
   57.1789   34.2577   47.6831 H   0  0  0  0  0  0  0  0  0  0  0  0
   56.2055   33.5773   45.3038 H   0  0  0  0  0  0  0  0  0  0  0  0
   57.1665   34.1810   43.8969 H   0  0  0  0  0  0  0  0  0  0  0  0
   57.6928   32.0318   42.4878 H   0  0  0  0  0  0  0  0  0  0  0  0
   60.0319   30.3721   47.3053 H   0  0  0  0  0  0  0  0  0  0  0  0
   60.9407   28.4109   48.5421 H   0  0  0  0  0  0  0  0  0  0  0  0
   60.5643   26.1011   47.6766 H   0  0  0  0  0  0  0  0  0  0  0  0
   59.3042   25.7516   45.5562 H   0  0  0  0  0  0  0  0  0  0  0  0
   58.2370   31.7310   46.6960 H   0  0  0  0  0  0  0  0  0  0  0  0
   59.3404   34.5666   44.1146 H   0  0  0  0  0  0  0  0  0  0  0  0
   59.6530   35.7929   45.4297 H   0  0  0  0  0  0  0  0  0  0  0  0
   60.2856   32.8096   45.5440 H   0  0  0  0  0  0  0  0  0  0  0  0
   61.4639   34.1602   45.3702 H   0  0  0  0  0  0  0  0  0  0  0  0
   62.8445   33.0216   46.2688 H   0  0  0  0  0  0  0  0  0  0  0  0
   64.9599   32.6531   47.5216 H   0  0  0  0  0  0  0  0  0  0  0  0
  1  2  1  0
  2  3  2  0
  2  4  1  0
  4  5  2  0
  5  6  1  0
  6  7  2  0
  7  8  1  0
  8  9  1  0
  9 10  1  0
 10 11  1  0
 11 12  1  0
 12 13  1  0
 13 14  2  0
 14 15  1  0
 15 16  1  0
 16 17  1  0
 17 18  2  0
 18 19  1  0
 19 20  2  0
 20 21  1  0
 21 22  2  0
 22 23  1  0
 16 24  2  0
 11 25  1  0
 25 26  1  0
  7 27  1  0
 27 28  2  0
 28  4  1  0
 26  8  1  0
 24 13  1  0
 22 17  1  0
  1 29  1  0
  1 30  1  0
  1 31  1  0
  5 32  1  0
  6 33  1  0
  9 34  1  0
  9 35  1  0
 10 36  1  0
 10 37  1  0
 12 38  1  0
 12 39  1  0
 14 40  1  0
 18 41  1  0
 19 42  1  0
 20 43  1  0
 21 44  1  0
 24 45  1  0
 25 46  1  0
 25 47  1  0
 26 48  1  0
 26 49  1  0
 27 50  1  0
 28 51  1  0
M  CHG  1  24   1
M  END
>  <UniqueID>  (42) 
39

>  <SMILES>  (42) 
CC(=O)c1ccc(N2CCN(Cc3coc(-c4ccccc4Cl)[nH+]3)CC2)cc1

>  <Energy>  (42) 
100.55567988548192

>  <Genealogy>  (42) 
CC(=O)c1ccc(N2CCN(Cc3coc(-c4ccccc4Cl)[nH+]3)CC2)cc1 (protonated)
CC(=O)c1ccc(N2CCN(Cc3coc(-c4ccccc4Cl)[nH+]3)CC2)cc1 (3D coordinates assigned)
CC(=O)c1ccc(N2CCN(Cc3coc(-c4ccccc4Cl)[nH+]3)CC2)cc1 (nonaromatic ring conformer: 100.55567988548192 kcal/mol)

>  <smiles>  (42) 
CC(=O)c1ccc(N2CCN(Cc3coc(-c4ccccc4Cl)n3)CC2)cc1

>  <score_type>  (42) 
oracle

>  <origin>  (42) 
adg

>  <m_score__min__energy>  (42) 
-7.5

>  <m_primary>  (42) 
energy

$$$$
42:0
     RDKit          3D

 48 51  0  0  0  0  0  0  0  0999 V2000
   57.0375   28.6511   41.8408 H   0  0  0  0  0  0  0  0  0  0  0  0
   56.9610   29.2610   42.7530 C   0  0  0  0  0  0  0  0  0  0  0  0
   56.6570   30.9180   42.8170 S   0  0  0  0  0  0  0  0  0  0  0  0
   56.7010   30.9640   44.4950 C   0  0  0  0  0  0  0  0  0  0  0  0
   56.5780   32.0520   45.1940 N   0  0  0  0  0  0  0  0  0  0  0  0
   57.6440   32.7230   45.8870 C   0  0  0  0  0  0  0  0  0  0  0  0
   58.2480   33.8330   45.2850 C   0  0  0  0  0  0  0  0  0  0  0  0
   57.9033   34.1747   44.2979 H   0  0  0  0  0  0  0  0  0  0  0  0
   59.2870   34.5100   45.9310 C   0  0  0  0  0  0  0  0  0  0  0  0
   59.7607   35.3763   45.4460 H   0  0  0  0  0  0  0  0  0  0  0  0
   59.7290   34.0890   47.1970 C   0  0  0  0  0  0  0  0  0  0  0  0
   60.7650   34.7440   47.8780 O   0  0  0  0  0  0  0  0  0  0  0  0
   62.0090   34.1810   48.1990 C   0  0  0  0  0  0  0  0  0  0  0  0
   62.8710   33.6620   47.2150 C   0  0  0  0  0  0  0  0  0  0  0  0
   62.5823   33.7084   46.1546 H   0  0  0  0  0  0  0  0  0  0  0  0
   64.0920   33.0880   47.5790 C   0  0  0  0  0  0  0  0  0  0  0  0
   64.7642   32.6899   46.8046 H   0  0  0  0  0  0  0  0  0  0  0  0
   64.4600   33.0190   48.9240 C   0  0  0  0  0  0  0  0  0  0  0  0
   65.4237   32.5715   49.2086 H   0  0  0  0  0  0  0  0  0  0  0  0
   63.6030   33.5190   49.9090 C   0  0  0  0  0  0  0  0  0  0  0  0
   63.8914   33.4621   50.9690 H   0  0  0  0  0  0  0  0  0  0  0  0
   62.3780   34.0920   49.5470 C   0  0  0  0  0  0  0  0  0  0  0  0
   61.7016   34.4744   50.3257 H   0  0  0  0  0  0  0  0  0  0  0  0
   59.0860   33.0160   47.8240 C   0  0  0  0  0  0  0  0  0  0  0  0
   59.3977   32.7060   48.8323 H   0  0  0  0  0  0  0  0  0  0  0  0
   58.0510   32.3360   47.1780 C   0  0  0  0  0  0  0  0  0  0  0  0
   57.5516   31.4943   47.6802 H   0  0  0  0  0  0  0  0  0  0  0  0
   56.9560   29.7490   45.0250 N   0  0  0  0  0  0  0  0  0  0  0  0
   57.0980   28.8020   44.0600 C   0  0  0  0  0  0  0  0  0  0  0  0
   57.3970   27.4390   44.3750 N   0  0  0  0  0  0  0  0  0  0  0  0
   57.3780   26.7160   43.6220 H   0  0  0  0  0  0  0  0  0  0  0  0
   57.8100   26.9540   45.9880 S   0  0  0  0  0  0  0  0  0  0  0  0
   58.5030   25.6220   45.9480 O   0  0  0  0  0  0  0  0  0  0  0  0
   56.5490   26.8270   46.7960 O   0  0  0  0  0  0  0  0  0  0  0  0
   58.8930   28.1410   46.7080 C   0  0  0  0  0  0  0  0  0  0  0  0
   58.8500   28.3690   48.0900 C   0  0  0  0  0  0  0  0  0  0  0  0
   58.1188   27.8309   48.7111 H   0  0  0  0  0  0  0  0  0  0  0  0
   59.7320   29.2770   48.6830 C   0  0  0  0  0  0  0  0  0  0  0  0
   59.6985   29.4434   49.7698 H   0  0  0  0  0  0  0  0  0  0  0  0
   60.6600   29.9770   47.8970 C   0  0  0  0  0  0  0  0  0  0  0  0
   61.6320   30.9200   48.5400 C   0  0  0  0  0  0  0  0  0  0  0  0
   61.5505   30.8409   49.6341 H   0  0  0  0  0  0  0  0  0  0  0  0
   62.6548   30.6609   48.2288 H   0  0  0  0  0  0  0  0  0  0  0  0
   61.4040   31.9501   48.2288 H   0  0  0  0  0  0  0  0  0  0  0  0
   60.7130   29.7370   46.5150 C   0  0  0  0  0  0  0  0  0  0  0  0
   61.4530   30.2646   45.8953 H   0  0  0  0  0  0  0  0  0  0  0  0
   59.8290   28.8300   45.9230 C   0  0  0  0  0  0  0  0  0  0  0  0
   59.8677   28.6561   44.8375 H   0  0  0  0  0  0  0  0  0  0  0  0
  1  2  1  0
  2  3  1  0
  3  4  1  0
  4  5  2  0
  5  6  1  0
  6  7  2  0
  7  8  1  0
  7  9  1  0
  9 10  1  0
  9 11  2  0
 11 12  1  0
 12 13  1  0
 13 14  2  0
 14 15  1  0
 14 16  1  0
 16 17  1  0
 16 18  2  0
 18 19  1  0
 18 20  1  0
 20 21  1  0
 20 22  2  0
 22 23  1  0
 11 24  1  0
 24 25  1  0
 24 26  2  0
 26 27  1  0
  4 28  1  0
 28 29  1  0
 29 30  1  0
 30 31  1  0
 30 32  1  0
 32 33  2  0
 32 34  2  0
 32 35  1  0
 35 36  2  0
 36 37  1  0
 36 38  1  0
 38 39  1  0
 38 40  2  0
 40 41  1  0
 41 42  1  0
 41 43  1  0
 41 44  1  0
 40 45  1  0
 45 46  1  0
 45 47  2  0
 47 48  1  0
 29  2  2  0
 47 35  1  0
 26  6  1  0
 22 13  1  0
M  CHG  1  28  -1
M  END
>  <UniqueID>  (43) 
40

>  <SMILES>  (43) 
Cc1ccc(S(=O)(=O)Nc2cs/c(=N/c3ccc(Oc4ccccc4)cc3)[n-]2)cc1

>  <Energy>  (43) 
89.40335746241676

>  <Genealogy>  (43) 
Cc1ccc(S(=O)(=O)Nc2csc(=Nc3ccc(Oc4ccccc4)cc3)[n-]2)cc1 (protonated)
Cc1ccc(S(=O)(=O)Nc2cs/c(=N/c3ccc(Oc4ccccc4)cc3)[n-]2)cc1 (cis-trans isomerization)
Cc1ccc(S(=O)(=O)Nc2cs/c(=N/c3ccc(Oc4ccccc4)cc3)[n-]2)cc1 (3D coordinates assigned)
Cc1ccc(S(=O)(=O)Nc2cs/c(=N/c3ccc(Oc4ccccc4)cc3)[n-]2)cc1 (optimized conformer: 89.40335746241676 kcal/mol)

>  <smiles>  (43) 
Cc1ccc(S(=O)(=O)Nc2csc(=Nc3ccc(Oc4ccccc4)cc3)[nH]2)cc1

>  <score_type>  (43) 
oracle

>  <origin>  (43) 
adg

>  <m_score__min__energy>  (43) 
-11.58

>  <m_primary>  (43) 
energy

$$$$
43:0
     RDKit          3D

 28 28  0  0  0  0  0  0  0  0999 V2000
   57.3490   21.8580   43.6800 C   0  0  0  0  0  0  0  0  0  0  0  0
   57.4830   23.1860   44.4060 C   0  0  0  0  0  0  0  0  0  0  0  0
   56.2300   23.5450   44.9810 O   0  0  0  0  0  0  0  0  0  0  0  0
   56.1130   24.4870   46.0060 C   0  0  0  0  0  0  0  0  0  0  0  0
   55.1460   25.2970   46.0220 O   0  0  0  0  0  0  0  0  0  0  0  0
   57.1130   24.5030   47.0880 C   0  0  0  0  0  0  0  0  0  0  0  0
   57.3150   23.4500   47.7480 O   0  0  0  0  0  0  0  0  0  0  0  0
   57.8130   25.6990   47.4590 N   0  0  0  0  0  0  0  0  0  0  0  0
   58.3170   26.6970   46.5620 C   0  0  0  0  0  0  0  0  0  0  0  0
   59.6880   26.7950   46.2630 C   0  0  0  0  0  0  0  0  0  0  0  0
   60.1510   27.8030   45.4140 C   0  0  0  0  0  0  0  0  0  0  0  0
   59.2570   28.7280   44.8690 C   0  0  0  0  0  0  0  0  0  0  0  0
   57.8920   28.6500   45.1740 C   0  0  0  0  0  0  0  0  0  0  0  0
   56.7690   29.8340   44.5110 S   0  0  0  0  0  0  0  0  0  0  0  0
   55.1470   29.3480   44.8580 N   0  0  0  0  0  0  0  0  0  0  0  0
   57.0310   31.1820   45.1200 O   0  0  0  0  0  0  0  0  0  0  0  0
   56.9530   29.9330   43.0230 O   0  0  0  0  0  0  0  0  0  0  0  0
   57.4290   27.6430   46.0330 C   0  0  0  0  0  0  0  0  0  0  0  0
   57.2669   21.0445   44.4158 H   0  0  0  0  0  0  0  0  0  0  0  0
   56.4479   21.8742   43.0493 H   0  0  0  0  0  0  0  0  0  0  0  0
   58.2351   21.6939   43.0493 H   0  0  0  0  0  0  0  0  0  0  0  0
   58.2377   23.0941   45.2010 H   0  0  0  0  0  0  0  0  0  0  0  0
   57.7932   23.9630   43.6918 H   0  0  0  0  0  0  0  0  0  0  0  0
   60.3973   26.0760   46.6989 H   0  0  0  0  0  0  0  0  0  0  0  0
   61.2225   27.8687   45.1739 H   0  0  0  0  0  0  0  0  0  0  0  0
   59.6256   29.5189   44.1992 H   0  0  0  0  0  0  0  0  0  0  0  0
   55.1950   28.6720   45.6530 H   0  0  0  0  0  0  0  0  0  0  0  0
   56.3613   27.5954   46.2933 H   0  0  0  0  0  0  0  0  0  0  0  0
  1  2  1  0
  2  3  1  0
  3  4  1  0
  4  5  2  0
  4  6  1  0
  6  7  2  0
  6  8  1  0
  8  9  1  0
  9 10  2  0
 10 11  1  0
 11 12  2  0
 12 13  1  0
 13 14  1  0
 14 15  1  0
 14 16  2  0
 14 17  2  0
 13 18  2  0
 18  9  1  0
  1 19  1  0
  1 20  1  0
  1 21  1  0
  2 22  1  0
  2 23  1  0
 10 24  1  0
 11 25  1  0
 12 26  1  0
 15 27  1  0
 18 28  1  0
M  CHG  2   8  -1  15  -1
M  END
>  <UniqueID>  (44) 
41

>  <SMILES>  (44) 
CCOC(=O)C(=O)[N-]c1cccc(S([NH-])(=O)=O)c1

>  <Energy>  (44) 
25.54913200899971

>  <Genealogy>  (44) 
CCOC(=O)C(=O)[N-]c1cccc(S([NH-])(=O)=O)c1 (protonated)
CCOC(=O)C(=O)[N-]c1cccc(S([NH-])(=O)=O)c1 (3D coordinates assigned)
CCOC(=O)C(=O)[N-]c1cccc(S([NH-])(=O)=O)c1 (optimized conformer: 25.54913200899971 kcal/mol)

>  <smiles>  (44) 
CCOC(=O)C(=O)Nc1cccc(S(N)(=O)=O)c1

>  <score_type>  (44) 
oracle

>  <origin>  (44) 
adg

>  <m_score__min__energy>  (44) 
-10.710000000000001

>  <m_primary>  (44) 
energy

$$$$
44:0
     RDKit          3D

 51 53  0  0  0  0  0  0  0  0999 V2000
   57.3420   31.6100   42.3470 C   0  0  0  0  0  0  0  0  0  0  0  0
   57.0270   31.9770   43.6870 O   0  0  0  0  0  0  0  0  0  0  0  0
   57.9750   32.1700   44.7050 C   0  0  0  0  0  0  0  0  0  0  0  0
   58.3860   33.4530   45.1070 C   0  0  0  0  0  0  0  0  0  0  0  0
   59.3300   33.6090   46.1250 C   0  0  0  0  0  0  0  0  0  0  0  0
   59.8830   32.4850   46.7570 C   0  0  0  0  0  0  0  0  0  0  0  0
   60.8250   32.6160   47.8340 N   0  0  0  0  0  0  0  0  0  0  0  0
   62.1160   33.2410   47.7060 C   0  0  0  0  0  0  0  0  0  0  0  0
   62.4560   33.7720   46.6140 O   0  0  0  0  0  0  0  0  0  0  0  0
   63.0680   33.2670   48.8420 C   0  0  0  0  0  0  0  0  0  0  0  0
   62.9750   34.2490   49.8370 C   0  0  0  0  0  0  0  0  0  0  0  0
   63.8710   34.2710   50.9240 C   0  0  0  0  0  0  0  0  0  0  0  0
   63.7740   35.2610   51.9160 O   0  0  0  0  0  0  0  0  0  0  0  0
   64.8590   36.0540   52.3910 C   0  0  0  0  0  0  0  0  0  0  0  0
   64.8780   33.2750   51.0110 C   0  0  0  0  0  0  0  0  0  0  0  0
   65.8260   33.2120   52.0510 O   0  0  0  0  0  0  0  0  0  0  0  0
   67.2040   33.5590   51.9650 C   0  0  0  0  0  0  0  0  0  0  0  0
   64.9620   32.2830   50.0210 C   0  0  0  0  0  0  0  0  0  0  0  0
   65.9710   31.3130   50.1400 O   0  0  0  0  0  0  0  0  0  0  0  0
   66.1270   30.4370   51.2520 C   0  0  0  0  0  0  0  0  0  0  0  0
   64.0540   32.2790   48.9490 C   0  0  0  0  0  0  0  0  0  0  0  0
   59.4520   31.2060   46.3770 C   0  0  0  0  0  0  0  0  0  0  0  0
   58.5270   31.0400   45.3300 C   0  0  0  0  0  0  0  0  0  0  0  0
   58.0850   29.7360   44.9170 N   0  0  0  0  0  0  0  0  0  0  0  0
   56.7860   29.1670   45.1240 C   0  0  0  0  0  0  0  0  0  0  0  0
   55.7430   29.8520   44.9380 O   0  0  0  0  0  0  0  0  0  0  0  0
   56.6710   27.7890   45.6180 C   0  0  0  0  0  0  0  0  0  0  0  0
   57.6980   27.0080   46.1010 C   0  0  0  0  0  0  0  0  0  0  0  0
   57.2080   25.8070   46.4510 N   0  0  0  0  0  0  0  0  0  0  0  0
   55.8950   25.9070   46.1640 C   0  0  0  0  0  0  0  0  0  0  0  0
   55.0840   24.9660   46.3620 O   0  0  0  0  0  0  0  0  0  0  0  0
   55.5190   27.0970   45.6550 N   0  0  0  0  0  0  0  0  0  0  0  0
   58.0584   30.7753   42.3542 H   0  0  0  0  0  0  0  0  0  0  0  0
   56.4239   31.3007   41.8261 H   0  0  0  0  0  0  0  0  0  0  0  0
   57.7869   32.4706   41.8261 H   0  0  0  0  0  0  0  0  0  0  0  0
   57.9610   34.3409   44.6162 H   0  0  0  0  0  0  0  0  0  0  0  0
   59.6413   34.6182   46.4326 H   0  0  0  0  0  0  0  0  0  0  0  0
   60.5770   32.1550   48.7380 H   0  0  0  0  0  0  0  0  0  0  0  0
   62.1892   35.0157   49.7683 H   0  0  0  0  0  0  0  0  0  0  0  0
   64.8591   36.0541   53.4910 H   0  0  0  0  0  0  0  0  0  0  0  0
   65.8076   35.6348   52.0243 H   0  0  0  0  0  0  0  0  0  0  0  0
   64.7477   37.0851   52.0243 H   0  0  0  0  0  0  0  0  0  0  0  0
   67.6197   33.6637   52.9780 H   0  0  0  0  0  0  0  0  0  0  0  0
   67.7479   32.7698   51.4253 H   0  0  0  0  0  0  0  0  0  0  0  0
   67.3092   34.5117   51.4253 H   0  0  0  0  0  0  0  0  0  0  0  0
   66.0252   31.0087   52.1862 H   0  0  0  0  0  0  0  0  0  0  0  0
   65.3539   29.6554   51.2143 H   0  0  0  0  0  0  0  0  0  0  0  0
   67.1224   29.9703   51.2143 H   0  0  0  0  0  0  0  0  0  0  0  0
   64.1186   31.4904   48.1848 H   0  0  0  0  0  0  0  0  0  0  0  0
   59.8416   30.3223   46.9035 H   0  0  0  0  0  0  0  0  0  0  0  0
   58.7500   27.3179   46.1864 H   0  0  0  0  0  0  0  0  0  0  0  0
  1  2  1  0
  2  3  1  0
  3  4  2  0
  4  5  1  0
  5  6  2  0
  6  7  1  0
  7  8  1  0
  8  9  2  0
  8 10  1  0
 10 11  2  0
 11 12  1  0
 12 13  1  0
 13 14  1  0
 12 15  2  0
 15 16  1  0
 16 17  1  0
 15 18  1  0
 18 19  1  0
 19 20  1  0
 18 21  2  0
  6 22  1  0
 22 23  2  0
 23 24  1  0
 24 25  1  0
 25 26  2  0
 25 27  1  0
 27 28  2  0
 28 29  1  0
 29 30  1  0
 30 31  2  0
 30 32  1  0
 23  3  1  0
 32 27  1  0
 21 10  1  0
  1 33  1  0
  1 34  1  0
  1 35  1  0
  4 36  1  0
  5 37  1  0
  7 38  1  0
 11 39  1  0
 14 40  1  0
 14 41  1  0
 14 42  1  0
 17 43  1  0
 17 44  1  0
 17 45  1  0
 20 46  1  0
 20 47  1  0
 20 48  1  0
 21 49  1  0
 22 50  1  0
 28 51  1  0
M  CHG  3  24  -1  29  -1  32  -1
M  END
>  <UniqueID>  (45) 
42

>  <SMILES>  (45) 
COc1ccc(NC(=O)c2cc(OC)c(OC)c(OC)c2)cc1[N-]C(=O)c1c[n-]c(=O)[n-]1

>  <Energy>  (45) 
92.3324376003647

>  <Genealogy>  (45) 
COc1ccc(NC(=O)c2cc(OC)c(OC)c(OC)c2)cc1[N-]C(=O)c1c[n-]c(=O)[n-]1 (protonated)
COc1ccc(NC(=O)c2cc(OC)c(OC)c(OC)c2)cc1[N-]C(=O)c1c[n-]c(=O)[n-]1 (3D coordinates assigned)
COc1ccc(NC(=O)c2cc(OC)c(OC)c(OC)c2)cc1[N-]C(=O)c1c[n-]c(=O)[n-]1 (optimized conformer: 92.3324376003647 kcal/mol)

>  <smiles>  (45) 
COc1ccc(NC(=O)c2cc(OC)c(OC)c(OC)c2)cc1NC(=O)c1c[nH]c(=O)[nH]1

>  <score_type>  (45) 
oracle

>  <origin>  (45) 
adg

>  <m_score__min__energy>  (45) 
-12.99

>  <m_primary>  (45) 
energy

$$$$
45:0
     RDKit          3D

 33 33  0  0  0  0  0  0  0  0999 V2000
   58.2934   32.9887   43.9526 H   0  0  0  0  0  0  0  0  0  0  0  0
   58.0490   32.0730   44.5110 C   0  0  0  0  0  0  0  0  0  0  0  0
   57.5410   31.0290   43.8290 C   0  0  0  0  0  0  0  0  0  0  0  0
   57.4700   29.7200   44.4210 N   0  0  0  0  0  0  0  0  0  0  0  0
   58.6110   28.9860   44.5640 C   0  0  0  0  0  0  0  0  0  0  0  0
   59.5726   29.3991   44.2254 H   0  0  0  0  0  0  0  0  0  0  0  0
   58.5660   27.7170   45.1360 C   0  0  0  0  0  0  0  0  0  0  0  0
   59.4818   27.1180   45.2482 H   0  0  0  0  0  0  0  0  0  0  0  0
   57.3350   27.2230   45.5630 C   0  0  0  0  0  0  0  0  0  0  0  0
   57.2560   26.0810   46.0850 O   0  0  0  0  0  0  0  0  0  0  0  0
   56.2170   27.9790   45.4150 N   0  0  0  0  0  0  0  0  0  0  0  0
   56.2720   29.2150   44.8540 C   0  0  0  0  0  0  0  0  0  0  0  0
   55.2100   29.8850   44.7340 O   0  0  0  0  0  0  0  0  0  0  0  0
   57.0190   31.2230   42.4270 C   0  0  0  0  0  0  0  0  0  0  0  0
   57.1336   30.2797   41.8729 H   0  0  0  0  0  0  0  0  0  0  0  0
   55.9623   31.5201   42.4988 H   0  0  0  0  0  0  0  0  0  0  0  0
   57.7690   32.3310   41.6760 C   0  0  0  0  0  0  0  0  0  0  0  0
   57.7975   33.2294   42.3100 H   0  0  0  0  0  0  0  0  0  0  0  0
   58.7801   31.9584   41.4550 H   0  0  0  0  0  0  0  0  0  0  0  0
   57.1070   32.6910   40.3460 C   0  0  0  0  0  0  0  0  0  0  0  0
   56.1555   33.2084   40.5382 H   0  0  0  0  0  0  0  0  0  0  0  0
   57.7736   33.3508   39.7714 H   0  0  0  0  0  0  0  0  0  0  0  0
   56.9155   31.7728   39.7714 H   0  0  0  0  0  0  0  0  0  0  0  0
   58.3010   32.0570   45.9940 C   0  0  0  0  0  0  0  0  0  0  0  0
   59.3636   31.8411   46.1788 H   0  0  0  0  0  0  0  0  0  0  0  0
   57.6721   31.2809   46.4546 H   0  0  0  0  0  0  0  0  0  0  0  0
   57.9470   33.4140   46.6100 C   0  0  0  0  0  0  0  0  0  0  0  0
   58.0909   33.3624   47.6993 H   0  0  0  0  0  0  0  0  0  0  0  0
   56.8988   33.6442   46.3686 H   0  0  0  0  0  0  0  0  0  0  0  0
   58.8290   34.5220   46.0430 C   0  0  0  0  0  0  0  0  0  0  0  0
   59.2811   35.0899   46.8695 H   0  0  0  0  0  0  0  0  0  0  0  0
   59.6237   34.0782   45.4253 H   0  0  0  0  0  0  0  0  0  0  0  0
   58.2183   35.1969   45.4253 H   0  0  0  0  0  0  0  0  0  0  0  0
  1  2  1  0
  2  3  2  0
  3  4  1  0
  4  5  1  0
  5  6  1  0
  5  7  2  0
  7  8  1  0
  7  9  1  0
  9 10  2  0
  9 11  1  0
 11 12  1  0
 12 13  2  0
  3 14  1  0
 14 15  1  0
 14 16  1  0
 14 17  1  0
 17 18  1  0
 17 19  1  0
 17 20  1  0
 20 21  1  0
 20 22  1  0
 20 23  1  0
  2 24  1  0
 24 25  1  0
 24 26  1  0
 24 27  1  0
 27 28  1  0
 27 29  1  0
 27 30  1  0
 30 31  1  0
 30 32  1  0
 30 33  1  0
 12  4  1  0
M  CHG  1  11  -1
M  END
>  <UniqueID>  (46) 
43

>  <SMILES>  (46) 
CCC/C=C(/CCC)n1ccc(=O)[n-]c1=O

>  <Energy>  (46) 
28.133558765711403

>  <Genealogy>  (46) 
CCCC=C(CCC)n1ccc(=O)[n-]c1=O (protonated)
CCC/C=C(/CCC)n1ccc(=O)[n-]c1=O (cis-trans isomerization)
CCC/C=C(/CCC)n1ccc(=O)[n-]c1=O (3D coordinates assigned)
CCC/C=C(/CCC)n1ccc(=O)[n-]c1=O (optimized conformer: 28.133558765711403 kcal/mol)

>  <smiles>  (46) 
CCCC=C(CCC)n1ccc(=O)[nH]c1=O

>  <score_type>  (46) 
oracle

>  <origin>  (46) 
adg

>  <m_score__min__energy>  (46) 
-7.8899999999999997

>  <m_primary>  (46) 
energy

$$$$
46:0
     RDKit          3D

 38 39  0  0  1  0  0  0  0  0999 V2000
   55.9100   26.0120   46.3960 N   0  0  0  0  0  0  0  0  0  0  0  0
   56.9580   26.7380   46.2220 C   0  0  0  0  0  0  0  0  0  0  0  0
   56.9560   27.6310   45.1890 N   0  0  0  0  0  0  0  0  0  0  0  0
   58.0400   28.4050   44.9820 C   0  0  0  0  0  0  0  0  0  0  0  0
   57.9720   29.2940   43.9130 O   0  0  0  0  0  0  0  0  0  0  0  0
   56.6380   30.3330   43.7420 S   0  0  0  0  0  0  0  0  0  0  0  0
   56.8320   31.6300   44.8670 N   0  0  0  0  0  0  0  0  0  0  0  0
   55.3480   29.6170   43.9690 O   0  0  0  0  0  0  0  0  0  0  0  0
   56.6530   30.8910   42.3500 O   0  0  0  0  0  0  0  0  0  0  0  0
   59.1700   28.3400   45.7730 C   0  0  0  0  0  0  0  0  0  0  0  0
   59.1430   27.4260   46.8110 C   0  0  0  0  0  0  0  0  0  0  0  0
   60.1870   27.3520   47.5570 N   0  0  0  0  0  0  0  0  0  0  0  0
   60.4350   28.2460   48.6700 C   0  0  0  0  0  0  0  0  0  0  0  0
   60.1060   29.6110   48.1820 C   0  0  0  0  0  0  0  0  0  0  0  0
   58.8970   30.2330   48.4550 C   0  0  0  0  0  0  0  0  0  0  0  0
   58.6800   31.5070   47.9590 C   0  0  0  0  0  0  0  0  0  0  0  0
   59.6320   32.1770   47.1980 C   0  0  0  0  0  0  0  0  0  0  0  0
   59.3860   33.7700   46.5650 S   0  0  0  0  0  0  0  0  0  0  0  0
   58.1910   33.7720   45.3290 N   0  0  0  0  0  0  0  0  0  0  0  0
   60.6970   34.3400   46.0450 O   0  0  0  0  0  0  0  0  0  0  0  0
   58.9260   34.6650   47.6810 O   0  0  0  0  0  0  0  0  0  0  0  0
   60.8310   31.5490   46.9320 C   0  0  0  0  0  0  0  0  0  0  0  0
   61.0600   30.2850   47.4190 C   0  0  0  0  0  0  0  0  0  0  0  0
   58.0430   26.6440   47.0160 N   0  0  0  0  0  0  0  0  0  0  0  0
   55.0010   26.3450   46.7860 H   0  0  0  0  0  0  0  0  0  0  0  0
   56.0950   27.6780   44.5920 H   0  0  0  0  0  0  0  0  0  0  0  0
   56.6080   32.5440   44.4220 H   0  0  0  0  0  0  0  0  0  0  0  0
   57.8190   31.6020   45.1750 H   0  0  0  0  0  0  0  0  0  0  0  0
   60.0447   28.9807   45.5876 H   0  0  0  0  0  0  0  0  0  0  0  0
   59.7937   27.9806   49.5234 H   0  0  0  0  0  0  0  0  0  0  0  0
   61.4782   28.1819   49.0129 H   0  0  0  0  0  0  0  0  0  0  0  0
   58.1265   29.7246   49.0532 H   0  0  0  0  0  0  0  0  0  0  0  0
   57.7234   32.0058   48.1737 H   0  0  0  0  0  0  0  0  0  0  0  0
   58.4120   33.0600   44.6250 H   0  0  0  0  0  0  0  0  0  0  0  0
   57.2410   33.5340   45.6990 H   0  0  0  0  0  0  0  0  0  0  0  0
   61.6003   32.0580   46.3327 H   0  0  0  0  0  0  0  0  0  0  0  0
   62.0192   29.7921   47.2020 H   0  0  0  0  0  0  0  0  0  0  0  0
   58.0330   25.9620   47.7980 H   0  0  0  0  0  0  0  0  0  0  0  0
  1  2  2  3
  2  3  1  0
  3  4  1  0
  4  5  1  0
  5  6  1  0
  6  7  1  0
  6  8  2  0
  6  9  2  0
  4 10  2  0
 10 11  1  0
 11 12  2  0
 12 13  1  0
 13 14  1  0
 14 15  2  0
 15 16  1  0
 16 17  2  0
 17 18  1  0
 18 19  1  0
 18 20  2  0
 18 21  2  0
 17 22  1  0
 22 23  2  0
 11 24  1  0
 24  2  1  0
 23 14  1  0
  1 25  1  0
  3 26  1  0
  7 27  1  0
  7 28  1  0
 10 29  1  0
 13 30  1  0
 13 31  1  0
 15 32  1  0
 16 33  1  0
 19 34  1  0
 19 35  1  0
 22 36  1  0
 23 37  1  0
 24 38  1  0
M  END
>  <smiles>  (47) 
N=c1[nH]c(OS(N)(=O)=O)cc(=NCc2ccc(S(N)(=O)=O)cc2)[nH]1

>  <score_type>  (47) 
oracle

>  <origin>  (47) 
adg

>  <m_score__min__energy>  (47) 
-8.8000000000000007

>  <m_primary>  (47) 
energy

$$$$
47:0
     RDKit          3D

 42 45  0  0  0  0  0  0  0  0999 V2000
   57.8430   24.4360   47.4120 O   0  0  0  0  0  0  0  0  0  0  0  0
   57.0780   24.7320   46.4520 C   0  0  0  0  0  0  0  0  0  0  0  0
   56.2770   25.9250   46.5010 N   0  0  0  0  0  0  0  0  0  0  0  0
   56.6320   27.1080   46.0970 C   0  0  0  0  0  0  0  0  0  0  0  0
   55.9020   27.8720   45.2440 N   0  0  0  0  0  0  0  0  0  0  0  0
   56.5280   29.0540   45.0080 C   0  0  0  0  0  0  0  0  0  0  0  0
   56.0330   30.0530   44.1730 C   0  0  0  0  0  0  0  0  0  0  0  0
   56.7800   31.2330   44.0160 C   0  0  0  0  0  0  0  0  0  0  0  0
   58.0110   31.4120   44.6900 C   0  0  0  0  0  0  0  0  0  0  0  0
   58.7350   32.6410   44.5050 N   0  0  0  0  0  0  0  0  0  0  0  0
   58.6470   33.9880   45.5970 S   0  0  0  0  0  0  0  0  0  0  0  0
   57.3320   33.9540   46.3230 O   0  0  0  0  0  0  0  0  0  0  0  0
   58.7370   35.2650   44.8080 O   0  0  0  0  0  0  0  0  0  0  0  0
   59.9490   33.8930   46.7790 C   0  0  0  0  0  0  0  0  0  0  0  0
   59.7030   34.1720   48.1310 C   0  0  0  0  0  0  0  0  0  0  0  0
   60.7460   34.1090   49.0600 C   0  0  0  0  0  0  0  0  0  0  0  0
   62.0360   33.7660   48.6450 C   0  0  0  0  0  0  0  0  0  0  0  0
   62.2840   33.4820   47.2980 C   0  0  0  0  0  0  0  0  0  0  0  0
   61.2430   33.5440   46.3670 C   0  0  0  0  0  0  0  0  0  0  0  0
   58.4990   30.3790   45.5230 C   0  0  0  0  0  0  0  0  0  0  0  0
   57.7370   29.2230   45.6630 C   0  0  0  0  0  0  0  0  0  0  0  0
   58.0670   27.8590   46.5840 S   0  0  0  0  0  0  0  0  0  0  0  0
   57.0060   23.8430   45.2690 C   0  0  0  0  0  0  0  0  0  0  0  0
   56.0750   24.0900   44.2410 C   0  0  0  0  0  0  0  0  0  0  0  0
   56.0110   23.2480   43.1260 C   0  0  0  0  0  0  0  0  0  0  0  0
   56.8710   22.1520   43.0240 C   0  0  0  0  0  0  0  0  0  0  0  0
   57.7970   21.8960   44.0370 C   0  0  0  0  0  0  0  0  0  0  0  0
   57.8670   22.7340   45.1540 C   0  0  0  0  0  0  0  0  0  0  0  0
   55.0761   29.9209   43.6468 H   0  0  0  0  0  0  0  0  0  0  0  0
   56.4017   32.0299   43.3588 H   0  0  0  0  0  0  0  0  0  0  0  0
   59.2890   32.7780   43.6300 H   0  0  0  0  0  0  0  0  0  0  0  0
   58.6886   34.4406   48.4610 H   0  0  0  0  0  0  0  0  0  0  0  0
   60.5510   34.3298   50.1198 H   0  0  0  0  0  0  0  0  0  0  0  0
   62.8556   33.7195   49.3772 H   0  0  0  0  0  0  0  0  0  0  0  0
   63.2984   33.2098   46.9712 H   0  0  0  0  0  0  0  0  0  0  0  0
   61.4396   33.3184   45.3085 H   0  0  0  0  0  0  0  0  0  0  0  0
   59.4593   30.4867   46.0485 H   0  0  0  0  0  0  0  0  0  0  0  0
   55.3940   24.9506   44.3157 H   0  0  0  0  0  0  0  0  0  0  0  0
   55.2817   23.4494   42.3275 H   0  0  0  0  0  0  0  0  0  0  0  0
   56.8187   21.4911   42.1462 H   0  0  0  0  0  0  0  0  0  0  0  0
   58.4735   21.0324   43.9561 H   0  0  0  0  0  0  0  0  0  0  0  0
   58.5991   22.5260   45.9482 H   0  0  0  0  0  0  0  0  0  0  0  0
  1  2  2  0
  2  3  1  0
  3  4  2  3
  4  5  1  0
  5  6  1  0
  6  7  2  0
  7  8  1  0
  8  9  2  0
  9 10  1  0
 10 11  1  0
 11 12  2  0
 11 13  2  0
 11 14  1  0
 14 15  2  0
 15 16  1  0
 16 17  2  0
 17 18  1  0
 18 19  2  0
  9 20  1  0
 20 21  2  0
 21 22  1  0
  2 23  1  0
 23 24  2  0
 24 25  1  0
 25 26  2  0
 26 27  1  0
 27 28  2  0
 22  4  1  0
 28 23  1  0
 21  6  1  0
 19 14  1  0
  7 29  1  0
  8 30  1  0
 10 31  1  0
 15 32  1  0
 16 33  1  0
 17 34  1  0
 18 35  1  0
 19 36  1  0
 20 37  1  0
 24 38  1  0
 25 39  1  0
 26 40  1  0
 27 41  1  0
 28 42  1  0
M  CHG  1   5  -1
M  END
>  <UniqueID>  (48) 
44

>  <SMILES>  (48) 
O=C(N=c1[n-]c2ccc(NS(=O)(=O)c3ccccc3)cc2s1)c1ccccc1

>  <Energy>  (48) 
86.8068806565573

>  <Genealogy>  (48) 
O=C(N=c1[n-]c2ccc(NS(=O)(=O)c3ccccc3)cc2s1)c1ccccc1 (protonated)
O=C(N=c1[n-]c2ccc(NS(=O)(=O)c3ccccc3)cc2s1)c1ccccc1 (3D coordinates assigned)
O=C(N=c1[n-]c2ccc(NS(=O)(=O)c3ccccc3)cc2s1)c1ccccc1 (optimized conformer: 86.8068806565573 kcal/mol)

>  <smiles>  (48) 
O=C(N=c1[nH]c2ccc(NS(=O)(=O)c3ccccc3)cc2s1)c1ccccc1

>  <score_type>  (48) 
oracle

>  <origin>  (48) 
adg

>  <m_score__min__energy>  (48) 
-11.609999999999999

>  <m_primary>  (48) 
energy

$$$$
48:0
     RDKit          3D

 58 61  0  0  0  0  0  0  0  0999 V2000
   56.5450   27.0840   44.8770 H   0  0  0  0  0  0  0  0  0  0  0  0
   57.3380   27.5440   44.4540 O   0  0  0  0  0  0  0  0  0  0  0  0
   58.1440   28.4570   45.1350 C   0  0  0  0  0  0  0  0  0  0  0  0
   58.2290   29.7600   44.6340 C   0  0  0  0  0  0  0  0  0  0  0  0
   57.6979   30.0221   43.7070 H   0  0  0  0  0  0  0  0  0  0  0  0
   58.9800   30.7310   45.2970 C   0  0  0  0  0  0  0  0  0  0  0  0
   59.0318   31.7519   44.8908 H   0  0  0  0  0  0  0  0  0  0  0  0
   59.6700   30.4160   46.4780 C   0  0  0  0  0  0  0  0  0  0  0  0
   60.4620   31.4190   47.1440 N   0  0  0  0  0  0  0  0  0  0  0  0
   60.3190   32.7230   46.9660 N   0  0  0  0  0  0  0  0  0  0  0  0
   61.2030   33.3930   47.6910 N   0  0  0  0  0  0  0  0  0  0  0  0
   61.9440   32.4790   48.3510 C   0  0  0  0  0  0  0  0  0  0  0  0
   63.0730   32.8110   49.2540 C   0  0  0  0  0  0  0  0  0  0  0  0
   64.2190   31.9980   49.3090 C   0  0  0  0  0  0  0  0  0  0  0  0
   64.2705   31.0915   48.6880 H   0  0  0  0  0  0  0  0  0  0  0  0
   65.2950   32.3250   50.1420 C   0  0  0  0  0  0  0  0  0  0  0  0
   66.4230   31.4880   50.1330 O   0  0  0  0  0  0  0  0  0  0  0  0
   66.8300   30.6700   51.2250 C   0  0  0  0  0  0  0  0  0  0  0  0
   66.5805   31.1715   52.1717 H   0  0  0  0  0  0  0  0  0  0  0  0
   66.3079   29.7032   51.1735 H   0  0  0  0  0  0  0  0  0  0  0  0
   67.9161   30.5034   51.1735 H   0  0  0  0  0  0  0  0  0  0  0  0
   65.2160   33.4740   50.9480 C   0  0  0  0  0  0  0  0  0  0  0  0
   66.0542   33.7326   51.6117 H   0  0  0  0  0  0  0  0  0  0  0  0
   64.0810   34.2920   50.9140 C   0  0  0  0  0  0  0  0  0  0  0  0
   64.0560   35.4270   51.7400 O   0  0  0  0  0  0  0  0  0  0  0  0
   64.9040   35.6230   52.8690 C   0  0  0  0  0  0  0  0  0  0  0  0
   64.3219   35.4884   53.7926 H   0  0  0  0  0  0  0  0  0  0  0  0
   65.7245   34.8908   52.8428 H   0  0  0  0  0  0  0  0  0  0  0  0
   65.3200   36.6410   52.8428 H   0  0  0  0  0  0  0  0  0  0  0  0
   63.0110   33.9590   50.0610 C   0  0  0  0  0  0  0  0  0  0  0  0
   62.1198   34.6029   50.0265 H   0  0  0  0  0  0  0  0  0  0  0  0
   61.4790   31.2240   48.0070 C   0  0  0  0  0  0  0  0  0  0  0  0
   61.8626   30.2576   48.3661 H   0  0  0  0  0  0  0  0  0  0  0  0
   59.5820   29.1080   46.9870 C   0  0  0  0  0  0  0  0  0  0  0  0
   60.0996   28.8561   47.9243 H   0  0  0  0  0  0  0  0  0  0  0  0
   58.8430   28.1170   46.3170 C   0  0  0  0  0  0  0  0  0  0  0  0
   58.8760   26.7410   46.8520 C   0  0  0  0  0  0  0  0  0  0  0  0
   59.9560   26.0950   46.8860 O   0  0  0  0  0  0  0  0  0  0  0  0
   57.6860   26.1600   47.3980 N   0  0  0  0  0  0  0  0  0  0  0  0
   56.6510   25.8230   46.6860 C   0  0  0  0  0  0  0  0  0  0  0  0
   55.6700   26.6850   46.3680 N   0  0  0  0  0  0  0  0  0  0  0  0
   54.7710   25.9990   45.7240 O   0  0  0  0  0  0  0  0  0  0  0  0
   55.1200   24.7340   45.6070 C   0  0  0  0  0  0  0  0  0  0  0  0
   54.2720   23.6570   44.9580 C   0  0  0  0  0  0  0  0  0  0  0  0
   54.7830   23.3780   43.5300 C   0  0  0  0  0  0  0  0  0  0  0  0
   55.7474   22.8515   43.5820 H   0  0  0  0  0  0  0  0  0  0  0  0
   54.0527   22.7535   42.9947 H   0  0  0  0  0  0  0  0  0  0  0  0
   54.9135   24.3301   42.9947 H   0  0  0  0  0  0  0  0  0  0  0  0
   54.3620   22.3710   45.8020 C   0  0  0  0  0  0  0  0  0  0  0  0
   54.3438   22.6317   46.8705 H   0  0  0  0  0  0  0  0  0  0  0  0
   53.5073   21.7189   45.5690 H   0  0  0  0  0  0  0  0  0  0  0  0
   55.2992   21.8443   45.5690 H   0  0  0  0  0  0  0  0  0  0  0  0
   52.8010   24.1130   44.8860 C   0  0  0  0  0  0  0  0  0  0  0  0
   52.4049   24.2358   45.9048 H   0  0  0  0  0  0  0  0  0  0  0  0
   52.7402   25.0722   44.3509 H   0  0  0  0  0  0  0  0  0  0  0  0
   52.2083   23.3564   44.3509 H   0  0  0  0  0  0  0  0  0  0  0  0
   56.3480   24.5560   46.2200 C   0  0  0  0  0  0  0  0  0  0  0  0
   56.9387   23.6328   46.3138 H   0  0  0  0  0  0  0  0  0  0  0  0
  1  2  1  0
  2  3  1  0
  3  4  2  0
  4  5  1  0
  4  6  1  0
  6  7  1  0
  6  8  2  0
  8  9  1  0
  9 10  1  0
 10 11  2  0
 11 12  1  0
 12 13  1  0
 13 14  2  0
 14 15  1  0
 14 16  1  0
 16 17  1  0
 17 18  1  0
 18 19  1  0
 18 20  1  0
 18 21  1  0
 16 22  2  0
 22 23  1  0
 22 24  1  0
 24 25  1  0
 25 26  1  0
 26 27  1  0
 26 28  1  0
 26 29  1  0
 24 30  2  0
 30 31  1  0
 12 32  2  0
 32 33  1  0
  8 34  1  0
 34 35  1  0
 34 36  2  0
 36 37  1  0
 37 38  2  0
 37 39  1  0
 39 40  2  0
 40 41  1  0
 41 42  1  0
 42 43  1  0
 43 44  1  0
 44 45  1  0
 45 46  1  0
 45 47  1  0
 45 48  1  0
 44 49  1  0
 49 50  1  0
 49 51  1  0
 49 52  1  0
 44 53  1  0
 53 54  1  0
 53 55  1  0
 53 56  1  0
 43 57  2  0
 57 58  1  0
 36  3  1  0
 57 40  1  0
 32  9  1  0
 30 13  1  0
M  CHG  1  41  -1
M  END
>  <UniqueID>  (49) 
45

>  <SMILES>  (49) 
COc1cc(OC)cc(-c2cn(-c3ccc(O)c(C(=O)/N=c4\cc(C(C)(C)C)o[n-]4)c3)nn2)c1

>  <Energy>  (49) 
139.40679808083755

>  <Genealogy>  (49) 
COc1cc(OC)cc(-c2cn(-c3ccc(O)c(C(=O)N=c4cc(C(C)(C)C)o[n-]4)c3)nn2)c1 (protonated)
COc1cc(OC)cc(-c2cn(-c3ccc(O)c(C(=O)/N=c4\cc(C(C)(C)C)o[n-]4)c3)nn2)c1 (cis-trans isomerization)
COc1cc(OC)cc(-c2cn(-c3ccc(O)c(C(=O)/N=c4\cc(C(C)(C)C)o[n-]4)c3)nn2)c1 (3D coordinates assigned)
COc1cc(OC)cc(-c2cn(-c3ccc(O)c(C(=O)/N=c4\cc(C(C)(C)C)o[n-]4)c3)nn2)c1 (optimized conformer: 139.40679808083755 kcal/mol)

>  <smiles>  (49) 
COc1cc(OC)cc(-c2cn(-c3ccc(O)c(C(=O)N=c4cc(C(C)(C)C)o[nH]4)c3)nn2)c1

>  <score_type>  (49) 
oracle

>  <origin>  (49) 
adg

>  <m_score__min__energy>  (49) 
-11.609999999999999

>  <m_primary>  (49) 
energy

$$$$
49:0
     RDKit          3D

 43 45  0  0  0  0  0  0  0  0999 V2000
   60.6660   29.2220   44.9420 N   0  0  0  0  0  0  0  0  0  0  0  0
   60.5090   30.0300   46.0920 C   0  0  0  0  0  0  0  0  0  0  0  0
   61.5490   30.4720   46.6370 O   0  0  0  0  0  0  0  0  0  0  0  0
   59.2070   30.3510   46.6390 N   0  0  0  0  0  0  0  0  0  0  0  0
   58.5390   29.3670   47.4090 C   0  0  0  0  0  0  0  0  0  0  0  0
   58.5230   28.0060   46.8020 C   0  0  0  0  0  0  0  0  0  0  0  0
   57.5770   27.6570   45.8280 C   0  0  0  0  0  0  0  0  0  0  0  0
   57.5970   26.3610   45.3040 C   0  0  0  0  0  0  0  0  0  0  0  0
   58.5010   25.4090   45.6960 C   0  0  0  0  0  0  0  0  0  0  0  0
   58.4670   24.0860   45.1120 C   0  0  0  0  0  0  0  0  0  0  0  0
   59.2090   23.2100   45.6830 O   0  0  0  0  0  0  0  0  0  0  0  0
   57.7190   23.6790   44.0120 N   0  0  0  0  0  0  0  0  0  0  0  0
   57.2580   22.4890   43.8060 C   0  0  0  0  0  0  0  0  0  0  0  0
   56.2780   22.1400   42.9600 N   0  0  0  0  0  0  0  0  0  0  0  0
   56.0920   20.8420   43.0120 N   0  0  0  0  0  0  0  0  0  0  0  0
   56.9640   20.3780   43.8960 N   0  0  0  0  0  0  0  0  0  0  0  0
   57.6850   21.3650   44.3940 N   0  0  0  0  0  0  0  0  0  0  0  0
   59.4430   25.7680   46.6720 C   0  0  0  0  0  0  0  0  0  0  0  0
   59.4510   27.0330   47.2080 C   0  0  0  0  0  0  0  0  0  0  0  0
   58.7560   31.6650   46.3430 C   0  0  0  0  0  0  0  0  0  0  0  0
   59.2460   32.7550   47.0580 C   0  0  0  0  0  0  0  0  0  0  0  0
   58.7880   33.9850   46.6870 C   0  0  0  0  0  0  0  0  0  0  0  0
   57.8910   34.2260   45.6720 C   0  0  0  0  0  0  0  0  0  0  0  0
   57.4230   33.1160   44.9820 C   0  0  0  0  0  0  0  0  0  0  0  0
   57.8460   31.8240   45.3040 C   0  0  0  0  0  0  0  0  0  0  0  0
   57.3350   30.6970   44.5410 C   0  0  0  0  0  0  0  0  0  0  0  0
   56.1110   30.3700   44.5450 O   0  0  0  0  0  0  0  0  0  0  0  0
   58.2560   29.9750   43.7880 O   0  0  0  0  0  0  0  0  0  0  0  0
   61.0770   28.2720   44.9630 H   0  0  0  0  0  0  0  0  0  0  0  0
   60.3640   29.5840   44.0200 H   0  0  0  0  0  0  0  0  0  0  0  0
   59.0381   29.3001   48.3870 H   0  0  0  0  0  0  0  0  0  0  0  0
   57.4892   29.6879   47.4799 H   0  0  0  0  0  0  0  0  0  0  0  0
   56.8326   28.3894   45.4824 H   0  0  0  0  0  0  0  0  0  0  0  0
   56.8516   26.0929   44.5408 H   0  0  0  0  0  0  0  0  0  0  0  0
   57.0200   19.3440   44.1190 H   0  0  0  0  0  0  0  0  0  0  0  0
   58.4310   21.2150   45.1010 H   0  0  0  0  0  0  0  0  0  0  0  0
   60.1832   25.0286   47.0117 H   0  0  0  0  0  0  0  0  0  0  0  0
   60.2003   27.2893   47.9715 H   0  0  0  0  0  0  0  0  0  0  0  0
   59.9659   32.6303   47.8803 H   0  0  0  0  0  0  0  0  0  0  0  0
   59.1664   34.8546   47.2444 H   0  0  0  0  0  0  0  0  0  0  0  0
   57.5619   35.2450   45.4204 H   0  0  0  0  0  0  0  0  0  0  0  0
   56.7025   33.2570   44.1628 H   0  0  0  0  0  0  0  0  0  0  0  0
   58.3630   30.0880   42.8010 H   0  0  0  0  0  0  0  0  0  0  0  0
  1  2  1  0
  2  3  2  0
  2  4  1  0
  4  5  1  0
  5  6  1  0
  6  7  2  0
  7  8  1  0
  8  9  2  0
  9 10  1  0
 10 11  2  0
 10 12  1  0
 12 13  2  3
 13 14  1  0
 14 15  2  0
 15 16  1  0
 16 17  1  0
  9 18  1  0
 18 19  2  0
  4 20  1  0
 20 21  2  0
 21 22  1  0
 22 23  2  0
 23 24  1  0
 24 25  2  0
 25 26  1  0
 26 27  2  0
 26 28  1  0
 19  6  1  0
 25 20  1  0
 17 13  1  0
  1 29  1  0
  1 30  1  0
  5 31  1  0
  5 32  1  0
  7 33  1  0
  8 34  1  0
 16 35  1  0
 17 36  1  0
 18 37  1  0
 19 38  1  0
 21 39  1  0
 22 40  1  0
 23 41  1  0
 24 42  1  0
 28 43  1  0
M  END
>  <smiles>  (50) 
NC(=O)N(Cc1ccc(C(=O)N=c2nn[nH][nH]2)cc1)c1ccccc1C(=O)O

>  <score_type>  (50) 
oracle

>  <origin>  (50) 
adg

>  <m_score__min__energy>  (50) 
-9

>  <m_primary>  (50) 
energy

$$$$
50:0
     RDKit          3D

 53 55  0  0  0  0  0  0  0  0999 V2000
   55.8800   30.5370   52.3060 C   0  0  0  0  0  0  0  0  0  0  0  0
   56.8910   29.7390   51.6970 O   0  0  0  0  0  0  0  0  0  0  0  0
   58.2030   30.1690   51.4600 C   0  0  0  0  0  0  0  0  0  0  0  0
   58.4770   31.5420   51.5170 C   0  0  0  0  0  0  0  0  0  0  0  0
   59.7680   32.0180   51.2780 C   0  0  0  0  0  0  0  0  0  0  0  0
   60.8090   31.1300   50.9900 C   0  0  0  0  0  0  0  0  0  0  0  0
   62.1160   31.6550   50.7130 N   0  0  0  0  0  0  0  0  0  0  0  0
   62.5220   32.3210   49.5090 C   0  0  0  0  0  0  0  0  0  0  0  0
   63.7140   32.7190   49.4110 O   0  0  0  0  0  0  0  0  0  0  0  0
   61.5870   32.5400   48.3800 C   0  0  0  0  0  0  0  0  0  0  0  0
   61.4230   31.5470   47.4160 C   0  0  0  0  0  0  0  0  0  0  0  0
   60.5980   31.7530   46.3660 N   0  0  0  0  0  0  0  0  0  0  0  0
   59.9050   32.9130   46.2210 C   0  0  0  0  0  0  0  0  0  0  0  0
   58.8390   33.0750   44.7750 S   0  0  0  0  0  0  0  0  0  0  0  0
   57.3970   32.2500   45.5430 C   0  0  0  0  0  0  0  0  0  0  0  0
   57.4710   30.7600   45.3980 C   0  0  0  0  0  0  0  0  0  0  0  0
   56.5630   30.1510   44.7680 O   0  0  0  0  0  0  0  0  0  0  0  0
   58.5790   30.0390   45.9720 N   0  0  0  0  0  0  0  0  0  0  0  0
   58.6810   28.6040   46.0270 C   0  0  0  0  0  0  0  0  0  0  0  0
   59.9520   28.0110   46.0670 C   0  0  0  0  0  0  0  0  0  0  0  0
   60.0820   26.6200   46.1300 C   0  0  0  0  0  0  0  0  0  0  0  0
   58.9440   25.8080   46.1650 C   0  0  0  0  0  0  0  0  0  0  0  0
   57.6690   26.3840   46.1560 C   0  0  0  0  0  0  0  0  0  0  0  0
   56.2380   25.3570   46.1760 S   0  0  0  0  0  0  0  0  0  0  0  0
   54.8270   26.3380   45.9980 N   0  0  0  0  0  0  0  0  0  0  0  0
   56.3030   24.3660   45.0490 O   0  0  0  0  0  0  0  0  0  0  0  0
   56.1600   24.6050   47.4740 O   0  0  0  0  0  0  0  0  0  0  0  0
   57.5390   27.7800   46.0950 C   0  0  0  0  0  0  0  0  0  0  0  0
   60.0370   33.9190   47.1460 N   0  0  0  0  0  0  0  0  0  0  0  0
   59.2770   35.1710   46.9800 C   0  0  0  0  0  0  0  0  0  0  0  0
   60.8450   33.7300   48.2400 C   0  0  0  0  0  0  0  0  0  0  0  0
   60.9150   34.6130   49.1420 O   0  0  0  0  0  0  0  0  0  0  0  0
   60.5340   29.7540   50.9120 C   0  0  0  0  0  0  0  0  0  0  0  0
   59.2450   29.2750   51.1590 C   0  0  0  0  0  0  0  0  0  0  0  0
   55.9678   30.4677   53.4003 H   0  0  0  0  0  0  0  0  0  0  0  0
   56.0023   31.5847   51.9940 H   0  0  0  0  0  0  0  0  0  0  0  0
   54.8894   30.1747   51.9940 H   0  0  0  0  0  0  0  0  0  0  0  0
   57.6689   32.2504   51.7518 H   0  0  0  0  0  0  0  0  0  0  0  0
   59.9673   33.0991   51.3166 H   0  0  0  0  0  0  0  0  0  0  0  0
   61.9656   30.5948   47.5100 H   0  0  0  0  0  0  0  0  0  0  0  0
   57.3690   32.5034   46.6130 H   0  0  0  0  0  0  0  0  0  0  0  0
   56.4881   32.6004   45.0320 H   0  0  0  0  0  0  0  0  0  0  0  0
   59.4120   30.5920   46.2720 H   0  0  0  0  0  0  0  0  0  0  0  0
   60.8515   28.6439   46.0487 H   0  0  0  0  0  0  0  0  0  0  0  0
   61.0824   26.1632   46.1521 H   0  0  0  0  0  0  0  0  0  0  0  0
   59.0515   24.7138   46.1997 H   0  0  0  0  0  0  0  0  0  0  0  0
   55.1440   27.3340   46.0200 H   0  0  0  0  0  0  0  0  0  0  0  0
   56.5376   28.2352   46.1003 H   0  0  0  0  0  0  0  0  0  0  0  0
   59.0273   35.5823   47.9692 H   0  0  0  0  0  0  0  0  0  0  0  0
   59.8860   35.8986   46.4235 H   0  0  0  0  0  0  0  0  0  0  0  0
   58.3505   34.9665   46.4235 H   0  0  0  0  0  0  0  0  0  0  0  0
   61.3388   29.0496   50.6548 H   0  0  0  0  0  0  0  0  0  0  0  0
   59.0449   28.1941   51.1178 H   0  0  0  0  0  0  0  0  0  0  0  0
  1  2  1  0
  2  3  1  0
  3  4  2  0
  4  5  1  0
  5  6  2  0
  6  7  1  0
  7  8  1  0
  8  9  2  0
  8 10  1  0
 10 11  2  0
 11 12  1  0
 12 13  2  0
 13 14  1  0
 14 15  1  0
 15 16  1  0
 16 17  2  0
 16 18  1  0
 18 19  1  0
 19 20  2  0
 20 21  1  0
 21 22  2  0
 22 23  1  0
 23 24  1  0
 24 25  1  0
 24 26  2  0
 24 27  2  0
 23 28  2  0
 13 29  1  0
 29 30  1  0
 29 31  1  0
 31 32  2  0
  6 33  1  0
 33 34  2  0
 34  3  1  0
 31 10  1  0
 28 19  1  0
  1 35  1  0
  1 36  1  0
  1 37  1  0
  4 38  1  0
  5 39  1  0
 11 40  1  0
 15 41  1  0
 15 42  1  0
 18 43  1  0
 20 44  1  0
 21 45  1  0
 22 46  1  0
 25 47  1  0
 28 48  1  0
 30 49  1  0
 30 50  1  0
 30 51  1  0
 33 52  1  0
 34 53  1  0
M  CHG  2   7  -1  25  -1
M  END
>  <UniqueID>  (51) 
46

>  <SMILES>  (51) 
COc1ccc([N-]C(=O)c2cnc(SCC(=O)Nc3cccc(S([NH-])(=O)=O)c3)n(C)c2=O)cc1

>  <Energy>  (51) 
66.82522702255272

>  <Genealogy>  (51) 
COc1ccc([N-]C(=O)c2cnc(SCC(=O)Nc3cccc(S([NH-])(=O)=O)c3)n(C)c2=O)cc1 (protonated)
COc1ccc([N-]C(=O)c2cnc(SCC(=O)Nc3cccc(S([NH-])(=O)=O)c3)n(C)c2=O)cc1 (3D coordinates assigned)
COc1ccc([N-]C(=O)c2cnc(SCC(=O)Nc3cccc(S([NH-])(=O)=O)c3)n(C)c2=O)cc1 (optimized conformer: 66.82522702255272 kcal/mol)

>  <smiles>  (51) 
COc1ccc(NC(=O)c2cnc(SCC(=O)Nc3cccc(S(N)(=O)=O)c3)n(C)c2=O)cc1

>  <score_type>  (51) 
oracle

>  <origin>  (51) 
adg

>  <m_score__min__energy>  (51) 
-13.619999999999999

>  <m_primary>  (51) 
energy

$$$$
51:0
     RDKit          3D

 50 53  0  0  0  0  0  0  0  0999 V2000
   64.5190   32.3890   49.0410 C   0  0  0  0  0  0  0  0  0  0  0  0
   63.1070   32.2140   48.7280 N   0  0  0  0  0  0  0  0  0  0  0  0
   62.1400   33.1260   48.9280 C   0  0  0  0  0  0  0  0  0  0  0  0
   60.9330   32.5620   48.5640 C   0  0  0  0  0  0  0  0  0  0  0  0
   59.6310   33.2560   48.5440 C   0  0  0  0  0  0  0  0  0  0  0  0
   59.0470   33.5080   49.6320 O   0  0  0  0  0  0  0  0  0  0  0  0
   58.9790   33.5740   47.3000 N   0  0  0  0  0  0  0  0  0  0  0  0
   58.9230   34.9600   46.8120 C   0  0  0  0  0  0  0  0  0  0  0  0
   59.2550   35.0310   45.3100 C   0  0  0  0  0  0  0  0  0  0  0  0
   58.7800   33.7990   44.5110 C   0  0  0  0  0  0  0  0  0  0  0  0
   57.6830   33.0130   45.2480 C   0  0  1  0  0  0  0  0  0  0  0  0
   57.2090   31.8860   44.4400 N   0  0  0  0  0  0  0  0  0  0  0  0
   57.6010   31.5630   43.1910 C   0  0  0  0  0  0  0  0  0  0  0  0
   56.9210   30.4300   42.8020 C   0  0  0  0  0  0  0  0  0  0  0  0
   56.1200   30.1130   43.8810 C   0  0  0  0  0  0  0  0  0  0  0  0
   56.3130   31.0110   44.8660 N   0  0  0  0  0  0  0  0  0  0  0  0
   58.2100   32.5260   46.6120 C   0  0  0  0  0  0  0  0  0  0  0  0
   61.2550   31.2700   48.1510 C   0  0  0  0  0  0  0  0  0  0  0  0
   60.3380   30.1960   47.7250 C   0  0  0  0  0  0  0  0  0  0  0  0
   59.9730   29.3140   48.5480 O   0  0  0  0  0  0  0  0  0  0  0  0
   59.8560   30.1620   46.3720 N   0  0  0  0  0  0  0  0  0  0  0  0
   59.2050   29.0270   45.7760 C   0  0  0  0  0  0  0  0  0  0  0  0
   59.5410   28.5820   44.4830 C   0  0  0  0  0  0  0  0  0  0  0  0
   58.8720   27.4930   43.9160 C   0  0  0  0  0  0  0  0  0  0  0  0
   57.8570   26.8480   44.6260 C   0  0  0  0  0  0  0  0  0  0  0  0
   57.5020   27.2960   45.9010 C   0  0  0  0  0  0  0  0  0  0  0  0
   58.1680   28.3860   46.4710 C   0  0  0  0  0  0  0  0  0  0  0  0
   62.5850   31.0870   48.2750 N   0  0  0  0  0  0  0  0  0  0  0  0
   64.6533   32.4056   50.1327 H   0  0  0  0  0  0  0  0  0  0  0  0
   65.0954   31.5554   48.6133 H   0  0  0  0  0  0  0  0  0  0  0  0
   64.8745   33.3381   48.6133 H   0  0  0  0  0  0  0  0  0  0  0  0
   62.2850   34.1455   49.3148 H   0  0  0  0  0  0  0  0  0  0  0  0
   57.9108   35.3582   46.9757 H   0  0  0  0  0  0  0  0  0  0  0  0
   59.6657   35.5555   47.3632 H   0  0  0  0  0  0  0  0  0  0  0  0
   58.7718   35.9252   44.8894 H   0  0  0  0  0  0  0  0  0  0  0  0
   60.3511   35.0668   45.2243 H   0  0  0  0  0  0  0  0  0  0  0  0
   58.3829   34.1371   43.5425 H   0  0  0  0  0  0  0  0  0  0  0  0
   59.6431   33.1298   44.3798 H   0  0  0  0  0  0  0  0  0  0  0  0
   56.8278   33.6835   45.4182 H   0  0  0  0  0  0  0  0  0  0  0  0
   58.3382   32.1109   42.5858 H   0  0  0  0  0  0  0  0  0  0  0  0
   56.9989   29.8958   41.8436 H   0  0  0  0  0  0  0  0  0  0  0  0
   55.4298   29.2578   43.9288 H   0  0  0  0  0  0  0  0  0  0  0  0
   57.3560   32.2376   47.2425 H   0  0  0  0  0  0  0  0  0  0  0  0
   58.8763   31.6684   46.4375 H   0  0  0  0  0  0  0  0  0  0  0  0
   59.9060   31.0450   45.8150 H   0  0  0  0  0  0  0  0  0  0  0  0
   60.3332   29.0933   43.9165 H   0  0  0  0  0  0  0  0  0  0  0  0
   59.1455   27.1438   42.9094 H   0  0  0  0  0  0  0  0  0  0  0  0
   57.3368   25.9869   44.1813 H   0  0  0  0  0  0  0  0  0  0  0  0
   56.6982   26.7911   46.4569 H   0  0  0  0  0  0  0  0  0  0  0  0
   57.8771   28.7429   47.4700 H   0  0  0  0  0  0  0  0  0  0  0  0
  1  2  1  0
  2  3  1  0
  3  4  2  0
  4  5  1  0
  5  6  2  0
  5  7  1  0
  7  8  1  0
  8  9  1  0
  9 10  1  0
 10 11  1  0
 11 12  1  0
 12 13  1  0
 13 14  2  0
 14 15  1  0
 15 16  2  0
 11 17  1  0
  4 18  1  0
 18 19  1  0
 19 20  2  0
 19 21  1  0
 21 22  1  0
 22 23  2  0
 23 24  1  0
 24 25  2  0
 25 26  1  0
 26 27  2  0
 18 28  2  0
 28  2  1  0
 17  7  1  0
 27 22  1  0
 16 12  1  0
  1 29  1  0
  1 30  1  0
  1 31  1  0
  3 32  1  0
  8 33  1  0
  8 34  1  0
  9 35  1  0
  9 36  1  0
 10 37  1  0
 10 38  1  0
 11 39  1  1
 13 40  1  0
 14 41  1  0
 15 42  1  0
 17 43  1  0
 17 44  1  0
 21 45  1  0
 23 46  1  0
 24 47  1  0
 25 48  1  0
 26 49  1  0
 27 50  1  0
M  END
>  <UniqueID>  (52) 
47

>  <SMILES>  (52) 
Cn1cc(C(=O)N2CCC[C@@H](n3cccn3)C2)c(C(=O)Nc2ccccc2)n1

>  <Energy>  (52) 
121.80879702537568

>  <Genealogy>  (52) 
Cn1cc(C(=O)N2CCC[C@@H](n3cccn3)C2)c(C(=O)Nc2ccccc2)n1 (chirality)
Cn1cc(C(=O)N2CCC[C@@H](n3cccn3)C2)c(C(=O)Nc2ccccc2)n1 (3D coordinates assigned)
Cn1cc(C(=O)N2CCC[C@@H](n3cccn3)C2)c(C(=O)Nc2ccccc2)n1 (nonaromatic ring conformer: 121.80879702537568 kcal/mol)

>  <smiles>  (52) 
Cn1cc(C(=O)N2CCCC(n3cccn3)C2)c(C(=O)Nc2ccccc2)n1

>  <score_type>  (52) 
oracle

>  <origin>  (52) 
adg

>  <m_score__min__energy>  (52) 
-9.1199999999999992

>  <m_primary>  (52) 
energy

$$$$
52:0
     RDKit          3D

 94100  0  0  0  0  0  0  0  0999 V2000
   51.8406   23.3982   45.9309 H   0  0  0  0  0  0  0  0  0  0  0  0
   52.9270   23.2910   45.7960 C   0  0  0  0  0  0  0  0  0  0  0  0
   53.5380   22.0840   46.1120 C   0  0  0  0  0  0  0  0  0  0  0  0
   52.9411   21.2408   46.4898 H   0  0  0  0  0  0  0  0  0  0  0  0
   54.9160   21.9530   45.9450 C   0  0  0  0  0  0  0  0  0  0  0  0
   55.4239   21.0196   46.2293 H   0  0  0  0  0  0  0  0  0  0  0  0
   55.6530   23.0310   45.4070 C   0  0  0  0  0  0  0  0  0  0  0  0
   57.1540   22.9260   45.2550 C   0  0  0  0  0  0  0  0  0  0  0  0
   57.4575   23.3712   44.2960 H   0  0  0  0  0  0  0  0  0  0  0  0
   57.4518   21.8673   45.2782 H   0  0  0  0  0  0  0  0  0  0  0  0
   57.8350   23.6720   46.4010 C   0  0  0  0  0  0  0  0  0  0  0  0
   57.3680   23.6780   47.5670 O   0  0  0  0  0  0  0  0  0  0  0  0
   58.8470   24.6990   46.1570 N   0  0  0  0  0  0  0  0  0  0  0  0
   58.9700   25.9500   46.3730 C   0  0  0  0  0  0  0  0  0  0  0  0
   60.0230   26.7950   45.8340 C   0  0  0  0  0  0  0  0  0  0  0  0
   60.8011   26.3582   45.1908 H   0  0  0  0  0  0  0  0  0  0  0  0
   60.0500   28.1590   46.1300 C   0  0  0  0  0  0  0  0  0  0  0  0
   61.0760   29.1110   45.5640 C   0  0  0  0  0  0  0  0  0  0  0  0
   61.6102   29.6067   46.3880 H   0  0  0  0  0  0  0  0  0  0  0  0
   61.7936   28.5516   44.9458 H   0  0  0  0  0  0  0  0  0  0  0  0
   60.5718   29.8684   44.9458 H   0  0  0  0  0  0  0  0  0  0  0  0
   59.0500   28.6960   46.9520 C   0  0  0  0  0  0  0  0  0  0  0  0
   59.0160   30.0670   47.1720 N   0  0  0  0  0  0  0  0  0  0  0  0
   59.0170   30.3270   48.6250 C   0  0  0  0  0  0  0  0  0  0  0  0
   58.8700   29.3510   49.4240 O   0  0  0  0  0  0  0  0  0  0  0  0
   59.1640   31.6960   49.2640 C   0  0  1  0  0  0  0  0  0  0  0  0
   57.8330   31.9280   50.0950 C   0  0  0  0  0  0  0  0  0  0  0  0
   57.5905   32.9992   50.0344 H   0  0  0  0  0  0  0  0  0  0  0  0
   57.0981   31.2493   49.6375 H   0  0  0  0  0  0  0  0  0  0  0  0
   57.8430   31.5360   51.6110 C   0  0  0  0  0  0  0  0  0  0  0  0
   57.3470   30.2590   52.0100 C   0  0  0  0  0  0  0  0  0  0  0  0
   57.0005   29.5251   51.2675 H   0  0  0  0  0  0  0  0  0  0  0  0
   57.3170   29.9720   53.3880 C   0  0  0  0  0  0  0  0  0  0  0  0
   56.9288   29.0038   53.7372 H   0  0  0  0  0  0  0  0  0  0  0  0
   57.7750   30.9050   54.3080 C   0  0  0  0  0  0  0  0  0  0  0  0
   57.7451   30.6591   55.3797 H   0  0  0  0  0  0  0  0  0  0  0  0
   58.2710   32.1430   53.9110 C   0  0  0  0  0  0  0  0  0  0  0  0
   58.6411   32.8581   54.6604 H   0  0  0  0  0  0  0  0  0  0  0  0
   58.2950   32.4680   52.5640 C   0  0  0  0  0  0  0  0  0  0  0  0
   58.6663   33.4516   52.2405 H   0  0  0  0  0  0  0  0  0  0  0  0
   60.5330   31.6210   50.1380 C   0  0  0  0  0  0  0  0  0  0  0  0
   61.0990   32.5306   49.8883 H   0  0  0  0  0  0  0  0  0  0  0  0
   60.1320   31.4749   51.1519 H   0  0  0  0  0  0  0  0  0  0  0  0
   61.5590   30.4380   50.0420 C   0  0  0  0  0  0  0  0  0  0  0  0
   61.5230   30.0381   49.0179 H   0  0  0  0  0  0  0  0  0  0  0  0
   62.5381   30.8592   50.3141 H   0  0  0  0  0  0  0  0  0  0  0  0
   61.3060   29.2660   51.0240 C   0  0  0  0  0  0  0  0  0  0  0  0
   60.9410   29.4970   52.3990 C   0  0  0  0  0  0  0  0  0  0  0  0
   60.9855   30.5079   52.8305 H   0  0  0  0  0  0  0  0  0  0  0  0
   60.5260   28.3990   53.1780 C   0  0  0  0  0  0  0  0  0  0  0  0
   60.2581   28.5407   54.2354 H   0  0  0  0  0  0  0  0  0  0  0  0
   60.4570   27.1340   52.6020 C   0  0  0  0  0  0  0  0  0  0  0  0
   60.1129   26.2858   53.2120 H   0  0  0  0  0  0  0  0  0  0  0  0
   60.8150   26.9120   51.2630 C   0  0  0  0  0  0  0  0  0  0  0  0
   60.7586   25.9014   50.8322 H   0  0  0  0  0  0  0  0  0  0  0  0
   61.2420   27.9850   50.4870 C   0  0  0  0  0  0  0  0  0  0  0  0
   61.5316   27.8184   49.4390 H   0  0  0  0  0  0  0  0  0  0  0  0
   59.3560   32.9890   48.5030 C   0  0  0  0  0  0  0  0  0  0  0  0
   59.5470   33.9970   49.2500 O   0  0  0  0  0  0  0  0  0  0  0  0
   59.6880   33.0260   47.0990 N   0  0  0  0  0  0  0  0  0  0  0  0
   60.5210   34.1620   46.6710 C   0  0  0  0  0  0  0  0  0  0  0  0
   60.0690   35.3380   46.7090 O   0  0  0  0  0  0  0  0  0  0  0  0
   61.9950   34.0550   46.4160 C   0  0  0  0  0  0  0  0  0  0  0  0
   62.1851   33.3192   45.6208 H   0  0  0  0  0  0  0  0  0  0  0  0
   62.4015   35.0251   46.0940 H   0  0  0  0  0  0  0  0  0  0  0  0
   62.6570   33.6030   47.7090 C   0  0  0  0  0  0  0  0  0  0  0  0
   63.4190   32.4140   47.6580 C   0  0  0  0  0  0  0  0  0  0  0  0
   63.4745   31.8385   46.7222 H   0  0  0  0  0  0  0  0  0  0  0  0
   64.0970   31.9700   48.7830 C   0  0  0  0  0  0  0  0  0  0  0  0
   64.7030   31.0532   48.7365 H   0  0  0  0  0  0  0  0  0  0  0  0
   64.0080   32.6870   49.9680 C   0  0  0  0  0  0  0  0  0  0  0  0
   64.5883   32.3601   50.8434 H   0  0  0  0  0  0  0  0  0  0  0  0
   63.1810   33.8340   50.0680 C   0  0  0  0  0  0  0  0  0  0  0  0
   63.0884   34.3695   51.0244 H   0  0  0  0  0  0  0  0  0  0  0  0
   62.4820   34.2800   48.9370 C   0  0  0  0  0  0  0  0  0  0  0  0
   61.8064   35.1454   49.0049 H   0  0  0  0  0  0  0  0  0  0  0  0
   58.7220   32.3920   46.1830 C   0  0  0  0  0  0  0  0  0  0  0  0
   58.0230   33.1480   45.2410 C   0  0  0  0  0  0  0  0  0  0  0  0
   57.9821   34.2397   45.3696 H   0  0  0  0  0  0  0  0  0  0  0  0
   57.3740   32.5820   44.1440 C   0  0  0  0  0  0  0  0  0  0  0  0
   56.9019   33.2260   43.3875 H   0  0  0  0  0  0  0  0  0  0  0  0
   57.3280   31.2140   44.0140 C   0  0  0  0  0  0  0  0  0  0  0  0
   56.8197   30.7556   43.1529 H   0  0  0  0  0  0  0  0  0  0  0  0
   57.9200   30.4270   44.9650 C   0  0  0  0  0  0  0  0  0  0  0  0
   57.9293   29.3367   44.8199 H   0  0  0  0  0  0  0  0  0  0  0  0
   58.5370   30.9800   46.1600 C   0  0  0  0  0  0  0  0  0  0  0  0
   58.0360   27.8450   47.4750 C   0  0  0  0  0  0  0  0  0  0  0  0
   57.2375   28.2706   48.1005 H   0  0  0  0  0  0  0  0  0  0  0  0
   58.0440   26.5340   47.2140 N   0  0  0  0  0  0  0  0  0  0  0  0
   57.2990   25.8900   47.5710 H   0  0  0  0  0  0  0  0  0  0  0  0
   55.0540   24.2570   45.1520 C   0  0  0  0  0  0  0  0  0  0  0  0
   55.6592   25.1185   44.8332 H   0  0  0  0  0  0  0  0  0  0  0  0
   53.6740   24.3800   45.3060 C   0  0  0  0  0  0  0  0  0  0  0  0
   53.1708   25.3230   45.0461 H   0  0  0  0  0  0  0  0  0  0  0  0
  1  2  1  0
  2  3  2  0
  3  4  1  0
  3  5  1  0
  5  6  1  0
  5  7  2  0
  7  8  1  0
  8  9  1  0
  8 10  1  0
  8 11  1  0
 11 12  2  0
 11 13  1  0
 13 14  2  0
 14 15  1  0
 15 16  1  0
 15 17  2  0
 17 18  1  0
 18 19  1  0
 18 20  1  0
 18 21  1  0
 17 22  1  0
 22 23  1  0
 23 24  1  0
 24 25  2  0
 24 26  1  0
 26 27  1  1
 27 28  1  0
 27 29  1  0
 27 30  1  0
 30 31  2  0
 31 32  1  0
 31 33  1  0
 33 34  1  0
 33 35  2  0
 35 36  1  0
 35 37  1  0
 37 38  1  0
 37 39  2  0
 39 40  1  0
 26 41  1  0
 41 42  1  0
 41 43  1  0
 41 44  1  0
 44 45  1  0
 44 46  1  0
 44 47  1  0
 47 48  2  0
 48 49  1  0
 48 50  1  0
 50 51  1  0
 50 52  2  0
 52 53  1  0
 52 54  1  0
 54 55  1  0
 54 56  2  0
 56 57  1  0
 26 58  1  0
 58 59  2  0
 58 60  1  0
 60 61  1  0
 61 62  2  0
 61 63  1  0
 63 64  1  0
 63 65  1  0
 63 66  1  0
 66 67  2  0
 67 68  1  0
 67 69  1  0
 69 70  1  0
 69 71  2  0
 71 72  1  0
 71 73  1  0
 73 74  1  0
 73 75  2  0
 75 76  1  0
 60 77  1  0
 77 78  2  0
 78 79  1  0
 78 80  1  0
 80 81  1  0
 80 82  2  0
 82 83  1  0
 82 84  1  0
 84 85  1  0
 84 86  2  0
 22 87  2  0
 87 88  1  0
 87 89  1  0
 89 90  1  0
  7 91  1  0
 91 92  1  0
 91 93  2  0
 93 94  1  0
 93  2  1  0
 89 14  1  0
 86 23  1  0
 39 30  1  0
 56 47  1  0
 75 66  1  0
 86 77  1  0
M  END
>  <UniqueID>  (53) 
48

>  <SMILES>  (53) 
Cc1c/c(=N\C(=O)Cc2ccccc2)[nH]cc1N1C(=O)[C@](CCc2ccccc2)(Cc2ccccc2)C(=O)N(C(=O)Cc2ccccc2)c2ccccc21

>  <Energy>  (53) 
244.7360567350227

>  <Genealogy>  (53) 
Cc1cc(=NC(=O)Cc2ccccc2)[nH]cc1N1C(=O)[C@](CCc2ccccc2)(Cc2ccccc2)C(=O)N(C(=O)Cc2ccccc2)c2ccccc21 (chirality)
Cc1c/c(=N\C(=O)Cc2ccccc2)[nH]cc1N1C(=O)[C@](CCc2ccccc2)(Cc2ccccc2)C(=O)N(C(=O)Cc2ccccc2)c2ccccc21 (cis-trans isomerization)
Cc1c/c(=N\C(=O)Cc2ccccc2)[nH]cc1N1C(=O)[C@](CCc2ccccc2)(Cc2ccccc2)C(=O)N(C(=O)Cc2ccccc2)c2ccccc21 (3D coordinates assigned)
Cc1c/c(=N\C(=O)Cc2ccccc2)[nH]cc1N1C(=O)[C@](CCc2ccccc2)(Cc2ccccc2)C(=O)N(C(=O)Cc2ccccc2)c2ccccc21 (nonaromatic ring conformer: 244.7360567350227 kcal/mol)

>  <smiles>  (53) 
Cc1cc(=NC(=O)Cc2ccccc2)[nH]cc1N1C(=O)C(CCc2ccccc2)(Cc2ccccc2)C(=O)N(C(=O)Cc2ccccc2)c2ccccc21

>  <score_type>  (53) 
oracle

>  <origin>  (53) 
adg

>  <m_score__min__energy>  (53) 
-10.1

>  <m_primary>  (53) 
energy

$$$$
53:0
     RDKit          3D

 44 47  0  0  0  0  0  0  0  0999 V2000
   54.5974   24.7944   46.2517 H   0  0  0  0  0  0  0  0  0  0  0  0
   55.5130   25.3340   45.9680 C   0  0  0  0  0  0  0  0  0  0  0  0
   55.5390   26.6920   45.9950 N   0  0  0  0  0  0  0  0  0  0  0  0
   56.6640   27.3820   45.6540 C   0  0  0  0  0  0  0  0  0  0  0  0
   56.6860   28.6840   45.6550 N   0  0  0  0  0  0  0  0  0  0  0  0
   57.7670   29.5280   46.0840 C   0  0  0  0  0  0  0  0  0  0  0  0
   57.8840   30.7640   45.5360 N   0  0  0  0  0  0  0  0  0  0  0  0
   58.8910   31.6260   45.8470 C   0  0  0  0  0  0  0  0  0  0  0  0
   58.9550   32.8110   45.3030 N   0  0  0  0  0  0  0  0  0  0  0  0
   58.4620   34.1400   45.7160 C   0  0  0  0  0  0  0  0  0  0  0  0
   57.4054   33.8471   45.6276 H   0  0  0  0  0  0  0  0  0  0  0  0
   59.2830   34.8950   46.7490 C   0  0  0  0  0  0  0  0  0  0  0  0
   58.7795   35.5027   47.5153 H   0  0  0  0  0  0  0  0  0  0  0  0
   60.0602   34.6215   47.4778 H   0  0  0  0  0  0  0  0  0  0  0  0
   59.2790   35.3480   45.2880 C   0  0  0  0  0  0  0  0  0  0  0  0
   58.7727   36.2819   45.0026 H   0  0  0  0  0  0  0  0  0  0  0  0
   60.0523   35.5360   44.5286 H   0  0  0  0  0  0  0  0  0  0  0  0
   59.8850   31.2240   46.7740 C   0  0  0  0  0  0  0  0  0  0  0  0
   61.0440   32.1250   47.1980 C   0  0  1  0  0  0  0  0  0  0  0  0
   61.0624   32.9619   46.4844 H   0  0  0  0  0  0  0  0  0  0  0  0
   60.8350   32.7760   48.5900 C   0  0  0  0  0  0  0  0  0  0  0  0
   60.8620   33.8696   48.4742 H   0  0  0  0  0  0  0  0  0  0  0  0
   59.8643   32.4303   48.9749 H   0  0  0  0  0  0  0  0  0  0  0  0
   61.9080   32.3640   49.6060 C   0  0  0  0  0  0  0  0  0  0  0  0
   61.7930   32.9779   50.5115 H   0  0  0  0  0  0  0  0  0  0  0  0
   61.7713   31.2952   49.8274 H   0  0  0  0  0  0  0  0  0  0  0  0
   63.3360   32.5550   49.0540 C   0  0  0  0  0  0  0  0  0  0  0  0
   63.6305   33.6026   49.2145 H   0  0  0  0  0  0  0  0  0  0  0  0
   63.9802   31.8437   49.5916 H   0  0  0  0  0  0  0  0  0  0  0  0
   63.4760   32.2490   47.6110 N   0  0  0  0  0  0  0  0  0  0  0  0
   64.3910   31.7650   47.4540 H   0  0  0  0  0  0  0  0  0  0  0  0
   63.5010   33.1430   47.0680 H   0  0  0  0  0  0  0  0  0  0  0  0
   62.4000   31.3990   47.0840 C   0  0  0  0  0  0  0  0  0  0  0  0
   62.6021   31.1703   46.0272 H   0  0  0  0  0  0  0  0  0  0  0  0
   62.3591   30.4679   47.6683 H   0  0  0  0  0  0  0  0  0  0  0  0
   59.7910   29.9360   47.3300 C   0  0  0  0  0  0  0  0  0  0  0  0
   60.5522   29.5967   48.0479 H   0  0  0  0  0  0  0  0  0  0  0  0
   58.7450   29.0850   46.9820 C   0  0  0  0  0  0  0  0  0  0  0  0
   58.6879   28.0730   47.4093 H   0  0  0  0  0  0  0  0  0  0  0  0
   57.7730   26.7020   45.2620 N   0  0  0  0  0  0  0  0  0  0  0  0
   57.7890   25.3440   45.2220 C   0  0  0  0  0  0  0  0  0  0  0  0
   58.6993   24.8124   44.9079 H   0  0  0  0  0  0  0  0  0  0  0  0
   56.6490   24.6260   45.5800 C   0  0  0  0  0  0  0  0  0  0  0  0
   56.6461   23.5262   45.5568 H   0  0  0  0  0  0  0  0  0  0  0  0
  1  2  1  0
  2  3  2  0
  3  4  1  0
  4  5  2  3
  5  6  1  0
  6  7  1  0
  7  8  1  0
  8  9  2  0
  9 10  1  0
 10 11  1  0
 10 12  1  0
 12 13  1  0
 12 14  1  0
 12 15  1  0
 15 16  1  0
 15 17  1  0
  8 18  1  0
 18 19  1  0
 19 20  1  6
 19 21  1  0
 21 22  1  0
 21 23  1  0
 21 24  1  0
 24 25  1  0
 24 26  1  0
 24 27  1  0
 27 28  1  0
 27 29  1  0
 27 30  1  0
 30 31  1  0
 30 32  1  0
 30 33  1  0
 33 34  1  0
 33 35  1  0
 18 36  2  0
 36 37  1  0
 36 38  1  0
 38 39  1  0
  4 40  1  0
 40 41  1  0
 41 42  1  0
 41 43  2  0
 43 44  1  0
 43  2  1  0
 38  6  2  0
 15 10  1  0
 33 19  1  0
M  CHG  3   7  -1  30   1  40  -1
M  END
>  <UniqueID>  (54) 
49

>  <SMILES>  (54) 
c1cnc(=Nc2ccc([C@H]3CCC[NH2+]C3)/c(=N/C3CC3)[n-]2)[n-]c1

>  <Energy>  (54) 
337.3296829928777

>  <Genealogy>  (54) 
c1cnc(=Nc2ccc(C3CCC[NH2+]C3)c(=NC3CC3)[n-]2)[n-]c1 (protonated)
c1cnc(=Nc2ccc([C@H]3CCC[NH2+]C3)c(=NC3CC3)[n-]2)[n-]c1 (chirality)
c1cnc(=Nc2ccc([C@H]3CCC[NH2+]C3)/c(=N/C3CC3)[n-]2)[n-]c1 (cis-trans isomerization)
c1cnc(=Nc2ccc([C@H]3CCC[NH2+]C3)/c(=N/C3CC3)[n-]2)[n-]c1 (3D coordinates assigned)
c1cnc(=Nc2ccc([C@H]3CCC[NH2+]C3)/c(=N/C3CC3)[n-]2)[n-]c1 (nonaromatic ring conformer: 337.3296829928777 kcal/mol)

>  <smiles>  (54) 
c1cnc(=Nc2ccc(C3CCCNC3)c(=NC3CC3)[nH]2)[nH]c1

>  <score_type>  (54) 
oracle

>  <origin>  (54) 
adg

>  <m_score__min__energy>  (54) 
-9.3399999999999999

>  <m_primary>  (54) 
energy

$$$$
54:0
     RDKit          3D

 30 31  0  0  0  0  0  0  0  0999 V2000
   60.3020   28.5510   44.9850 C   0  0  0  0  0  0  0  0  0  0  0  0
   59.8760   27.4080   45.9040 C   0  0  0  0  0  0  0  0  0  0  0  0
   58.6330   27.7580   46.7330 C   0  0  0  0  0  0  0  0  0  0  0  0
   57.4870   26.8180   46.4620 C   0  0  0  0  0  0  0  0  0  0  0  0
   57.3840   25.6000   47.0400 N   0  0  0  0  0  0  0  0  0  0  0  0
   56.1740   25.1280   46.7640 N   0  0  0  0  0  0  0  0  0  0  0  0
   55.5540   26.0760   46.0380 C   0  0  0  0  0  0  0  0  0  0  0  0
   54.3660   25.9830   45.6310 O   0  0  0  0  0  0  0  0  0  0  0  0
   56.3470   27.1310   45.8110 N   0  0  0  0  0  0  0  0  0  0  0  0
   55.9640   28.3530   45.2330 N   0  0  0  0  0  0  0  0  0  0  0  0
   56.8100   29.0820   44.3390 C   0  0  0  0  0  0  0  0  0  0  0  0
   57.0530   28.6100   43.1970 O   0  0  0  0  0  0  0  0  0  0  0  0
   57.3490   30.4030   44.7410 C   0  0  0  0  0  0  0  0  0  0  0  0
   57.7820   30.5890   46.0690 C   0  0  0  0  0  0  0  0  0  0  0  0
   58.2830   31.8210   46.4910 C   0  0  0  0  0  0  0  0  0  0  0  0
   58.3660   32.8870   45.5950 C   0  0  0  0  0  0  0  0  0  0  0  0
   57.9520   32.7210   44.2720 C   0  0  0  0  0  0  0  0  0  0  0  0
   57.4480   31.4900   43.8350 C   0  0  0  0  0  0  0  0  0  0  0  0
   57.0170   31.3500   42.1310 Cl  0  0  0  0  0  0  0  0  0  0  0  0
   60.6222   29.4102   45.5927 H   0  0  0  0  0  0  0  0  0  0  0  0
   61.1369   28.2194   44.3502 H   0  0  0  0  0  0  0  0  0  0  0  0
   59.4537   28.8467   44.3502 H   0  0  0  0  0  0  0  0  0  0  0  0
   59.6531   26.5239   45.2886 H   0  0  0  0  0  0  0  0  0  0  0  0
   60.7024   27.2134   46.6034 H   0  0  0  0  0  0  0  0  0  0  0  0
   58.8919   27.7029   47.8007 H   0  0  0  0  0  0  0  0  0  0  0  0
   58.3129   28.7720   46.4513 H   0  0  0  0  0  0  0  0  0  0  0  0
   57.7244   29.7529   46.7815 H   0  0  0  0  0  0  0  0  0  0  0  0
   58.6131   31.9519   47.5321 H   0  0  0  0  0  0  0  0  0  0  0  0
   58.7577   33.8585   45.9309 H   0  0  0  0  0  0  0  0  0  0  0  0
   58.0223   33.5633   43.5680 H   0  0  0  0  0  0  0  0  0  0  0  0
  1  2  1  0
  2  3  1  0
  3  4  1  0
  4  5  2  0
  5  6  1  0
  6  7  1  0
  7  8  2  0
  7  9  1  0
  9 10  1  0
 10 11  1  0
 11 12  2  0
 11 13  1  0
 13 14  2  0
 14 15  1  0
 15 16  2  0
 16 17  1  0
 17 18  2  0
 18 19  1  0
  9  4  1  0
 18 13  1  0
  1 20  1  0
  1 21  1  0
  1 22  1  0
  2 23  1  0
  2 24  1  0
  3 25  1  0
  3 26  1  0
 14 27  1  0
 15 28  1  0
 16 29  1  0
 17 30  1  0
M  CHG  2   6  -1  10  -1
M  END
>  <UniqueID>  (55) 
50

>  <SMILES>  (55) 
CCCc1n[n-]c(=O)n1[N-]C(=O)c1ccccc1Cl

>  <Energy>  (55) 
73.03472921385557

>  <Genealogy>  (55) 
CCCc1n[n-]c(=O)n1[N-]C(=O)c1ccccc1Cl (protonated)
CCCc1n[n-]c(=O)n1[N-]C(=O)c1ccccc1Cl (3D coordinates assigned)
CCCc1n[n-]c(=O)n1[N-]C(=O)c1ccccc1Cl (optimized conformer: 73.03472921385557 kcal/mol)

>  <smiles>  (55) 
CCCc1n[nH]c(=O)n1NC(=O)c1ccccc1Cl

>  <score_type>  (55) 
oracle

>  <origin>  (55) 
adg

>  <m_score__min__energy>  (55) 
-10.68

>  <m_primary>  (55) 
energy

$$$$
55:0
     RDKit          3D

 50 51  0  0  0  0  0  0  0  0999 V2000
   57.8390   34.0520   44.6570 C   0  0  0  0  0  0  0  0  0  0  0  0
   58.5360   33.6050   45.9570 C   0  0  0  0  0  0  0  0  0  0  0  0
   57.4470   33.3560   47.0260 C   0  0  0  0  0  0  0  0  0  0  0  0
   59.4670   34.7530   46.4110 C   0  0  0  0  0  0  0  0  0  0  0  0
   59.2870   32.3650   45.6400 N   0  0  0  0  0  0  0  0  0  0  0  0
   60.2260   31.6510   46.9320 S   0  0  0  0  0  0  0  0  0  0  0  0
   61.6950   31.8940   46.7330 O   0  0  0  0  0  0  0  0  0  0  0  0
   59.8100   32.2740   48.2370 O   0  0  0  0  0  0  0  0  0  0  0  0
   59.9040   29.9220   47.0250 C   0  0  0  0  0  0  0  0  0  0  0  0
   60.3180   29.0790   45.9860 C   0  0  0  0  0  0  0  0  0  0  0  0
   60.0760   27.7040   46.0550 C   0  0  0  0  0  0  0  0  0  0  0  0
   59.4060   27.1570   47.1660 C   0  0  0  0  0  0  0  0  0  0  0  0
   59.1390   25.7840   47.2830 O   0  0  0  0  0  0  0  0  0  0  0  0
   58.1410   25.2300   48.1360 C   0  0  0  0  0  0  0  0  0  0  0  0
   57.1650   24.4320   47.3210 C   0  0  0  0  0  0  0  0  0  0  0  0
   57.0010   23.2110   47.5810 O   0  0  0  0  0  0  0  0  0  0  0  0
   56.3860   25.0270   46.2730 N   0  0  0  0  0  0  0  0  0  0  0  0
   56.8510   25.9650   45.2910 C   0  0  0  0  0  0  0  0  0  0  0  0
   57.5750   25.4890   44.1920 C   0  0  0  0  0  0  0  0  0  0  0  0
   58.0550   26.3780   43.2250 C   0  0  0  0  0  0  0  0  0  0  0  0
   57.8290   27.7510   43.3610 C   0  0  0  0  0  0  0  0  0  0  0  0
   57.1330   28.2410   44.4730 C   0  0  0  0  0  0  0  0  0  0  0  0
   56.8520   29.9690   44.6660 S   0  0  0  0  0  0  0  0  0  0  0  0
   55.1600   30.2980   44.5310 N   0  0  0  0  0  0  0  0  0  0  0  0
   57.3450   30.4130   46.0150 O   0  0  0  0  0  0  0  0  0  0  0  0
   57.5900   30.7360   43.6060 O   0  0  0  0  0  0  0  0  0  0  0  0
   56.6550   27.3490   45.4420 C   0  0  0  0  0  0  0  0  0  0  0  0
   58.9850   28.0070   48.1960 C   0  0  0  0  0  0  0  0  0  0  0  0
   59.2320   29.3810   48.1280 C   0  0  0  0  0  0  0  0  0  0  0  0
   56.9369   34.6305   44.9049 H   0  0  0  0  0  0  0  0  0  0  0  0
   58.5262   34.6783   44.0692 H   0  0  0  0  0  0  0  0  0  0  0  0
   57.5565   33.1662   44.0692 H   0  0  0  0  0  0  0  0  0  0  0  0
   57.8877   33.4568   48.0288 H   0  0  0  0  0  0  0  0  0  0  0  0
   56.6391   34.0926   46.9049 H   0  0  0  0  0  0  0  0  0  0  0  0
   57.0395   32.3415   46.9049 H   0  0  0  0  0  0  0  0  0  0  0  0
   59.4960   34.7887   47.5100 H   0  0  0  0  0  0  0  0  0  0  0  0
   60.4813   34.5778   46.0230 H   0  0  0  0  0  0  0  0  0  0  0  0
   59.0861   35.7092   46.0230 H   0  0  0  0  0  0  0  0  0  0  0  0
   58.6270   31.6330   45.2880 H   0  0  0  0  0  0  0  0  0  0  0  0
   60.8358   29.5007   45.1119 H   0  0  0  0  0  0  0  0  0  0  0  0
   60.4102   27.0470   45.2385 H   0  0  0  0  0  0  0  0  0  0  0  0
   58.6182   24.5748   48.8796 H   0  0  0  0  0  0  0  0  0  0  0  0
   57.6076   26.0438   48.6490 H   0  0  0  0  0  0  0  0  0  0  0  0
   57.7674   24.4109   44.0883 H   0  0  0  0  0  0  0  0  0  0  0  0
   58.6112   25.9964   42.3561 H   0  0  0  0  0  0  0  0  0  0  0  0
   58.1983   28.4472   42.5936 H   0  0  0  0  0  0  0  0  0  0  0  0
   54.6540   29.4600   44.9000 H   0  0  0  0  0  0  0  0  0  0  0  0
   56.1238   27.7334   46.3252 H   0  0  0  0  0  0  0  0  0  0  0  0
   58.4557   27.5901   49.0655 H   0  0  0  0  0  0  0  0  0  0  0  0
   58.8975   30.0393   48.9433 H   0  0  0  0  0  0  0  0  0  0  0  0
  1  2  1  0
  2  3  1  0
  2  4  1  0
  2  5  1  0
  5  6  1  0
  6  7  2  0
  6  8  2  0
  6  9  1  0
  9 10  2  0
 10 11  1  0
 11 12  2  0
 12 13  1  0
 13 14  1  0
 14 15  1  0
 15 16  2  0
 15 17  1  0
 17 18  1  0
 18 19  2  0
 19 20  1  0
 20 21  2  0
 21 22  1  0
 22 23  1  0
 23 24  1  0
 23 25  2  0
 23 26  2  0
 22 27  2  0
 12 28  1  0
 28 29  2  0
 29  9  1  0
 27 18  1  0
  1 30  1  0
  1 31  1  0
  1 32  1  0
  3 33  1  0
  3 34  1  0
  3 35  1  0
  4 36  1  0
  4 37  1  0
  4 38  1  0
  5 39  1  0
 10 40  1  0
 11 41  1  0
 14 42  1  0
 14 43  1  0
 19 44  1  0
 20 45  1  0
 21 46  1  0
 24 47  1  0
 27 48  1  0
 28 49  1  0
 29 50  1  0
M  CHG  2  17  -1  24  -1
M  END
>  <UniqueID>  (56) 
51

>  <SMILES>  (56) 
CC(C)(C)NS(=O)(=O)c1ccc(OCC(=O)[N-]c2cccc(S([NH-])(=O)=O)c2)cc1

>  <Energy>  (56) 
53.29803599734338

>  <Genealogy>  (56) 
CC(C)(C)NS(=O)(=O)c1ccc(OCC(=O)[N-]c2cccc(S([NH-])(=O)=O)c2)cc1 (protonated)
CC(C)(C)NS(=O)(=O)c1ccc(OCC(=O)[N-]c2cccc(S([NH-])(=O)=O)c2)cc1 (3D coordinates assigned)
CC(C)(C)NS(=O)(=O)c1ccc(OCC(=O)[N-]c2cccc(S([NH-])(=O)=O)c2)cc1 (optimized conformer: 53.29803599734338 kcal/mol)

>  <smiles>  (56) 
CC(C)(C)NS(=O)(=O)c1ccc(OCC(=O)Nc2cccc(S(N)(=O)=O)c2)cc1

>  <score_type>  (56) 
oracle

>  <origin>  (56) 
adg

>  <m_score__min__energy>  (56) 
-13.33

>  <m_primary>  (56) 
energy

$$$$
56:0
     RDKit          3D

 48 51  0  0  0  0  0  0  0  0999 V2000
   51.0960   32.6790   51.4390 N   0  0  0  0  0  0  0  0  0  0  0  0
   51.2920   31.6400   52.8080 S   0  0  0  0  0  0  0  0  0  0  0  0
   51.1860   32.4450   54.0740 O   0  0  0  0  0  0  0  0  0  0  0  0
   50.2000   30.6100   52.7850 O   0  0  0  0  0  0  0  0  0  0  0  0
   52.8710   30.8560   52.7430 C   0  0  0  0  0  0  0  0  0  0  0  0
   53.2930   30.0160   53.7820 C   0  0  0  0  0  0  0  0  0  0  0  0
   54.5580   29.4160   53.7290 C   0  0  0  0  0  0  0  0  0  0  0  0
   55.4170   29.6560   52.6480 C   0  0  0  0  0  0  0  0  0  0  0  0
   56.7090   29.0300   52.6490 N   0  0  0  0  0  0  0  0  0  0  0  0
   58.2340   29.8540   52.5770 S   0  0  0  0  0  0  0  0  0  0  0  0
   59.3370   28.8690   52.8460 O   0  0  0  0  0  0  0  0  0  0  0  0
   58.2910   30.9210   53.6340 O   0  0  0  0  0  0  0  0  0  0  0  0
   58.4660   30.5460   50.9740 C   0  0  0  0  0  0  0  0  0  0  0  0
   57.9870   31.8330   50.6700 C   0  0  0  0  0  0  0  0  0  0  0  0
   58.1920   32.3720   49.3990 C   0  0  0  0  0  0  0  0  0  0  0  0
   58.8730   31.6360   48.4240 C   0  0  0  0  0  0  0  0  0  0  0  0
   59.3430   30.3410   48.7130 C   0  0  0  0  0  0  0  0  0  0  0  0
   60.0830   29.5720   47.7560 N   0  0  0  0  0  0  0  0  0  0  0  0
   59.6660   28.3450   47.1500 C   0  0  0  0  0  0  0  0  0  0  0  0
   60.4610   27.3670   47.0790 O   0  0  0  0  0  0  0  0  0  0  0  0
   58.3380   28.2550   46.5110 C   0  0  0  0  0  0  0  0  0  0  0  0
   57.5460   27.1310   46.7720 C   0  0  0  0  0  0  0  0  0  0  0  0
   56.3200   26.9700   46.1210 C   0  0  0  0  0  0  0  0  0  0  0  0
   55.6160   25.9500   46.3390 O   0  0  0  0  0  0  0  0  0  0  0  0
   55.8850   27.9110   45.2460 N   0  0  0  0  0  0  0  0  0  0  0  0
   56.6030   29.0370   44.9870 C   0  0  0  0  0  0  0  0  0  0  0  0
   56.0930   29.9920   44.1000 C   0  0  0  0  0  0  0  0  0  0  0  0
   56.7960   31.1720   43.8600 C   0  0  0  0  0  0  0  0  0  0  0  0
   58.0130   31.4070   44.5020 C   0  0  0  0  0  0  0  0  0  0  0  0
   58.5420   30.4560   45.3820 C   0  0  0  0  0  0  0  0  0  0  0  0
   57.8520   29.2480   45.6250 C   0  0  0  0  0  0  0  0  0  0  0  0
   59.1500   29.8120   49.9970 C   0  0  0  0  0  0  0  0  0  0  0  0
   54.9790   30.4810   51.5980 C   0  0  0  0  0  0  0  0  0  0  0  0
   53.7190   31.0840   51.6530 C   0  0  0  0  0  0  0  0  0  0  0  0
   50.2650   32.3370   50.9030 H   0  0  0  0  0  0  0  0  0  0  0  0
   52.6307   29.8275   54.6398 H   0  0  0  0  0  0  0  0  0  0  0  0
   54.8799   28.7504   54.5434 H   0  0  0  0  0  0  0  0  0  0  0  0
   57.4507   32.4148   51.4341 H   0  0  0  0  0  0  0  0  0  0  0  0
   57.8168   33.3788   49.1634 H   0  0  0  0  0  0  0  0  0  0  0  0
   59.0419   32.0707   47.4277 H   0  0  0  0  0  0  0  0  0  0  0  0
   57.8893   26.3727   47.4911 H   0  0  0  0  0  0  0  0  0  0  0  0
   55.1349   29.8112   43.5908 H   0  0  0  0  0  0  0  0  0  0  0  0
   56.3904   31.9199   43.1627 H   0  0  0  0  0  0  0  0  0  0  0  0
   58.5586   32.3437   44.3154 H   0  0  0  0  0  0  0  0  0  0  0  0
   59.4998   30.6504   45.8868 H   0  0  0  0  0  0  0  0  0  0  0  0
   59.5391   28.8120   50.2390 H   0  0  0  0  0  0  0  0  0  0  0  0
   55.6307   30.6531   50.7287 H   0  0  0  0  0  0  0  0  0  0  0  0
   53.3919   31.7419   50.8344 H   0  0  0  0  0  0  0  0  0  0  0  0
  1  2  1  0
  2  3  2  0
  2  4  2  0
  2  5  1  0
  5  6  2  0
  6  7  1  0
  7  8  2  0
  8  9  1  0
  9 10  1  0
 10 11  2  0
 10 12  2  0
 10 13  1  0
 13 14  2  0
 14 15  1  0
 15 16  2  0
 16 17  1  0
 17 18  1  0
 18 19  1  0
 19 20  2  0
 19 21  1  0
 21 22  2  0
 22 23  1  0
 23 24  2  0
 23 25  1  0
 25 26  1  0
 26 27  2  0
 27 28  1  0
 28 29  2  0
 29 30  1  0
 30 31  2  0
 17 32  2  0
  8 33  1  0
 33 34  2  0
 34  5  1  0
 32 13  1  0
 31 21  1  0
 31 26  1  0
  1 35  1  0
  6 36  1  0
  7 37  1  0
 14 38  1  0
 15 39  1  0
 16 40  1  0
 22 41  1  0
 27 42  1  0
 28 43  1  0
 29 44  1  0
 30 45  1  0
 32 46  1  0
 33 47  1  0
 34 48  1  0
M  CHG  4   1  -1   9  -1  18  -1  25  -1
M  END
>  <UniqueID>  (57) 
52

>  <SMILES>  (57) 
[NH-]S(=O)(=O)c1ccc([N-]S(=O)(=O)c2cccc([N-]C(=O)c3cc(=O)[n-]c4ccccc34)c2)cc1

>  <Energy>  (57) 
70.6715160955437

>  <Genealogy>  (57) 
[NH-]S(=O)(=O)c1ccc([N-]S(=O)(=O)c2cccc([N-]C(=O)c3cc(=O)[n-]c4ccccc34)c2)cc1 (protonated)
[NH-]S(=O)(=O)c1ccc([N-]S(=O)(=O)c2cccc([N-]C(=O)c3cc(=O)[n-]c4ccccc34)c2)cc1 (3D coordinates assigned)
[NH-]S(=O)(=O)c1ccc([N-]S(=O)(=O)c2cccc([N-]C(=O)c3cc(=O)[n-]c4ccccc34)c2)cc1 (optimized conformer: 70.6715160955437 kcal/mol)

>  <smiles>  (57) 
NS(=O)(=O)c1ccc(NS(=O)(=O)c2cccc(NC(=O)c3cc(=O)[nH]c4ccccc34)c2)cc1

>  <score_type>  (57) 
oracle

>  <origin>  (57) 
adg

>  <m_score__min__energy>  (57) 
-17.039999999999999

>  <m_primary>  (57) 
energy

$$$$
57:0
     RDKit          3D

 32 33  0  0  0  0  0  0  0  0999 V2000
   58.0730   32.9600   44.0250 C   0  0  0  0  0  0  0  0  0  0  0  0
   57.5400   31.6140   43.5630 C   0  0  0  0  0  0  0  0  0  0  0  0
   56.6630   31.0840   44.5520 O   0  0  0  0  0  0  0  0  0  0  0  0
   56.3480   29.7250   44.6280 C   0  0  0  0  0  0  0  0  0  0  0  0
   55.1540   29.3460   44.7760 O   0  0  0  0  0  0  0  0  0  0  0  0
   57.4360   28.7110   44.4780 C   0  0  0  0  0  0  0  0  0  0  0  0
   58.3430   28.7860   45.6240 N   0  0  0  0  0  0  0  0  0  0  0  0
   58.7390   29.9480   46.1470 N   0  0  0  0  0  0  0  0  0  0  0  0
   59.5290   29.8060   47.2340 C   0  0  0  0  0  0  0  0  0  0  0  0
   60.0520   30.8250   47.8530 N   0  0  0  0  0  0  0  0  0  0  0  0
   59.9340   32.2050   47.4760 C   0  0  0  0  0  0  0  0  0  0  0  0
   61.0540   32.8630   46.9520 C   0  0  0  0  0  0  0  0  0  0  0  0
   60.9640   34.1950   46.5380 C   0  0  0  0  0  0  0  0  0  0  0  0
   59.7440   34.8730   46.6240 C   0  0  0  0  0  0  0  0  0  0  0  0
   59.6560   36.1650   46.2190 F   0  0  0  0  0  0  0  0  0  0  0  0
   58.6130   34.2160   47.1140 C   0  0  0  0  0  0  0  0  0  0  0  0
   58.7010   32.8830   47.5290 C   0  0  0  0  0  0  0  0  0  0  0  0
   59.7880   28.1700   47.5980 S   0  0  0  0  0  0  0  0  0  0  0  0
   58.8160   27.7120   46.3000 C   0  0  0  0  0  0  0  0  0  0  0  0
   58.5540   26.5180   45.9960 O   0  0  0  0  0  0  0  0  0  0  0  0
   58.0855   32.9916   45.1245 H   0  0  0  0  0  0  0  0  0  0  0  0
   59.0947   33.1007   43.6425 H   0  0  0  0  0  0  0  0  0  0  0  0
   57.4246   33.7620   43.6425 H   0  0  0  0  0  0  0  0  0  0  0  0
   56.9919   31.7419   42.6179 H   0  0  0  0  0  0  0  0  0  0  0  0
   58.3802   30.9208   43.4097 H   0  0  0  0  0  0  0  0  0  0  0  0
   56.9936   27.7051   44.4273 H   0  0  0  0  0  0  0  0  0  0  0  0
   57.9985   28.9148   43.5549 H   0  0  0  0  0  0  0  0  0  0  0  0
   58.4580   30.8740   45.7530 H   0  0  0  0  0  0  0  0  0  0  0  0
   62.0111   32.3277   46.8657 H   0  0  0  0  0  0  0  0  0  0  0  0
   61.8528   34.7099   46.1445 H   0  0  0  0  0  0  0  0  0  0  0  0
   57.6518   34.7475   47.1736 H   0  0  0  0  0  0  0  0  0  0  0  0
   57.8045   32.3630   47.8977 H   0  0  0  0  0  0  0  0  0  0  0  0
  1  2  1  0
  2  3  1  0
  3  4  1  0
  4  5  2  0
  4  6  1  0
  6  7  1  0
  7  8  1  0
  8  9  1  0
  9 10  2  3
 10 11  1  0
 11 12  2  0
 12 13  1  0
 13 14  2  0
 14 15  1  0
 14 16  1  0
 16 17  2  0
  9 18  1  0
 18 19  1  0
 19 20  2  0
 19  7  1  0
 17 11  1  0
  1 21  1  0
  1 22  1  0
  1 23  1  0
  2 24  1  0
  2 25  1  0
  6 26  1  0
  6 27  1  0
  8 28  1  0
 12 29  1  0
 13 30  1  0
 16 31  1  0
 17 32  1  0
M  END
>  <UniqueID>  (58) 
53

>  <SMILES>  (58) 
CCOC(=O)Cn1[nH]c(=Nc2ccc(F)cc2)sc1=O

>  <Energy>  (58) 
67.25354323097743

>  <Genealogy>  (58) 
CCOC(=O)Cn1[nH]c(=Nc2ccc(F)cc2)sc1=O (3D coordinates assigned)
CCOC(=O)Cn1[nH]c(=Nc2ccc(F)cc2)sc1=O (optimized conformer: 67.25354323097743 kcal/mol)

>  <smiles>  (58) 
CCOC(=O)Cn1[nH]c(=Nc2ccc(F)cc2)sc1=O

>  <score_type>  (58) 
oracle

>  <origin>  (58) 
adg

>  <m_score__min__energy>  (58) 
-6.6299999999999999

>  <m_primary>  (58) 
energy

$$$$
58:0
     RDKit          3D

 37 38  0  0  0  0  0  0  0  0999 V2000
   57.7310   31.9840   42.5720 C   0  0  0  0  0  0  0  0  0  0  0  0
   57.9960   31.4210   43.9640 C   0  0  0  0  0  0  0  0  0  0  0  0
   56.8120   30.8320   44.4970 O   0  0  0  0  0  0  0  0  0  0  0  0
   56.5880   29.4490   44.5400 C   0  0  0  0  0  0  0  0  0  0  0  0
   55.4670   28.9950   44.8970 O   0  0  0  0  0  0  0  0  0  0  0  0
   57.6710   28.4890   44.1460 C   0  0  0  0  0  0  0  0  0  0  0  0
   58.5370   28.0960   45.3140 C   0  0  0  0  0  0  0  0  0  0  0  0
   58.7600   26.8690   45.5010 O   0  0  0  0  0  0  0  0  0  0  0  0
   59.1070   29.0970   46.2590 C   0  0  0  0  0  0  0  0  0  0  0  0
   58.5340   29.2630   47.5330 C   0  0  0  0  0  0  0  0  0  0  0  0
   59.0470   30.2020   48.4320 C   0  0  0  0  0  0  0  0  0  0  0  0
   60.1490   30.9970   48.0740 C   0  0  0  0  0  0  0  0  0  0  0  0
   60.7120   31.9690   48.9650 N   0  0  0  0  0  0  0  0  0  0  0  0
   60.4970   33.6850   48.8370 S   0  0  0  0  0  0  0  0  0  0  0  0
   61.8400   34.3570   48.8600 O   0  0  0  0  0  0  0  0  0  0  0  0
   59.6840   34.1680   50.0040 O   0  0  0  0  0  0  0  0  0  0  0  0
   59.6480   34.0700   47.3520 C   0  0  0  0  0  0  0  0  0  0  0  0
   60.1400   34.8520   46.3180 C   0  0  0  0  0  0  0  0  0  0  0  0
   59.2290   35.0030   45.2680 C   0  0  0  0  0  0  0  0  0  0  0  0
   58.0240   34.3430   45.4770 C   0  0  0  0  0  0  0  0  0  0  0  0
   58.0900   33.5720   46.9710 S   0  0  0  0  0  0  0  0  0  0  0  0
   60.7220   30.8380   46.8080 C   0  0  0  0  0  0  0  0  0  0  0  0
   60.2100   29.9000   45.9090 C   0  0  0  0  0  0  0  0  0  0  0  0
   57.2641   32.9760   42.6605 H   0  0  0  0  0  0  0  0  0  0  0  0
   58.6815   32.0736   42.0256 H   0  0  0  0  0  0  0  0  0  0  0  0
   57.0563   31.3086   42.0256 H   0  0  0  0  0  0  0  0  0  0  0  0
   58.7843   30.6564   43.9014 H   0  0  0  0  0  0  0  0  0  0  0  0
   58.3149   32.2404   44.6249 H   0  0  0  0  0  0  0  0  0  0  0  0
   57.2067   27.5832   43.7289 H   0  0  0  0  0  0  0  0  0  0  0  0
   58.3115   28.9890   43.4045 H   0  0  0  0  0  0  0  0  0  0  0  0
   57.6715   28.6461   47.8252 H   0  0  0  0  0  0  0  0  0  0  0  0
   58.5862   30.3192   49.4239 H   0  0  0  0  0  0  0  0  0  0  0  0
   61.1419   35.3060   46.3232 H   0  0  0  0  0  0  0  0  0  0  0  0
   59.4456   35.5887   44.3624 H   0  0  0  0  0  0  0  0  0  0  0  0
   57.1709   34.3273   44.7827 H   0  0  0  0  0  0  0  0  0  0  0  0
   61.5836   31.4573   46.5179 H   0  0  0  0  0  0  0  0  0  0  0  0
   60.6728   29.7871   44.9175 H   0  0  0  0  0  0  0  0  0  0  0  0
  1  2  1  0
  2  3  1  0
  3  4  1  0
  4  5  2  0
  4  6  1  0
  6  7  1  0
  7  8  2  0
  7  9  1  0
  9 10  2  0
 10 11  1  0
 11 12  2  0
 12 13  1  0
 13 14  1  0
 14 15  2  0
 14 16  2  0
 14 17  1  0
 17 18  2  0
 18 19  1  0
 19 20  2  0
 20 21  1  0
 12 22  1  0
 22 23  2  0
 23  9  1  0
 21 17  1  0
  1 24  1  0
  1 25  1  0
  1 26  1  0
  2 27  1  0
  2 28  1  0
  6 29  1  0
  6 30  1  0
 10 31  1  0
 11 32  1  0
 18 33  1  0
 19 34  1  0
 20 35  1  0
 22 36  1  0
 23 37  1  0
M  CHG  1  13  -1
M  END
>  <UniqueID>  (59) 
54

>  <SMILES>  (59) 
CCOC(=O)CC(=O)c1ccc([N-]S(=O)(=O)c2cccs2)cc1

>  <Energy>  (59) 
62.223715062027644

>  <Genealogy>  (59) 
CCOC(=O)CC(=O)c1ccc([N-]S(=O)(=O)c2cccs2)cc1 (protonated)
CCOC(=O)CC(=O)c1ccc([N-]S(=O)(=O)c2cccs2)cc1 (3D coordinates assigned)
CCOC(=O)CC(=O)c1ccc([N-]S(=O)(=O)c2cccs2)cc1 (optimized conformer: 62.223715062027644 kcal/mol)

>  <smiles>  (59) 
CCOC(=O)CC(=O)c1ccc(NS(=O)(=O)c2cccs2)cc1

>  <score_type>  (59) 
oracle

>  <origin>  (59) 
adg

>  <m_score__min__energy>  (59) 
-8.9700000000000006

>  <m_primary>  (59) 
energy

$$$$
59:0
     RDKit          3D

 42 46  0  0  0  0  0  0  0  0999 V2000
   52.3862   31.6245   53.4262 H   0  0  0  0  0  0  0  0  0  0  0  0
   52.6500   30.9430   52.6040 C   0  0  0  0  0  0  0  0  0  0  0  0
   52.0270   31.1710   51.2890 C   0  0  0  0  0  0  0  0  0  0  0  0
   51.9930   30.2390   50.3200 N   0  0  0  0  0  0  0  0  0  0  0  0
   51.2730   30.8290   49.3410 C   0  0  0  0  0  0  0  0  0  0  0  0
   51.0300   30.2640   48.2430 O   0  0  0  0  0  0  0  0  0  0  0  0
   50.8250   32.0680   49.6360 N   0  0  0  0  0  0  0  0  0  0  0  0
   51.2990   32.2650   50.8770 C   0  0  0  0  0  0  0  0  0  0  0  0
   51.0270   33.4020   51.6300 O   0  0  0  0  0  0  0  0  0  0  0  0
   53.5190   29.9550   52.8590 C   0  0  0  0  0  0  0  0  0  0  0  0
   53.2750   28.6600   53.3080 C   0  0  0  0  0  0  0  0  0  0  0  0
   52.2816   28.2286   53.5004 H   0  0  0  0  0  0  0  0  0  0  0  0
   54.4530   28.0170   53.4700 N   0  0  0  0  0  0  0  0  0  0  0  0
   54.5300   27.0390   53.8060 H   0  0  0  0  0  0  0  0  0  0  0  0
   55.4380   28.8500   53.1520 N   0  0  0  0  0  0  0  0  0  0  0  0
   56.8010   28.6840   53.1540 C   0  0  0  0  0  0  0  0  0  0  0  0
   57.4130   27.5820   53.4880 N   0  0  0  0  0  0  0  0  0  0  0  0
   58.7180   27.3990   54.1080 C   0  0  0  0  0  0  0  0  0  0  0  0
   58.4529   27.7293   55.1232 H   0  0  0  0  0  0  0  0  0  0  0  0
   59.5200   26.2360   53.5480 C   0  0  0  0  0  0  0  0  0  0  0  0
   60.2120   25.6810   54.1985 H   0  0  0  0  0  0  0  0  0  0  0  0
   59.2734   25.3050   53.0165 H   0  0  0  0  0  0  0  0  0  0  0  0
   59.8480   27.6590   53.1280 C   0  0  0  0  0  0  0  0  0  0  0  0
   60.7778   28.1341   53.4742 H   0  0  0  0  0  0  0  0  0  0  0  0
   59.9374   28.1848   52.1659 H   0  0  0  0  0  0  0  0  0  0  0  0
   57.5670   29.7440   52.7730 N   0  0  0  0  0  0  0  0  0  0  0  0
   57.0070   30.9350   52.4050 C   0  0  0  0  0  0  0  0  0  0  0  0
   57.8440   32.0320   52.0100 N   0  0  0  0  0  0  0  0  0  0  0  0
   57.9470   33.2710   52.7610 C   0  0  0  0  0  0  0  0  0  0  0  0
   56.9951   33.8212   52.7274 H   0  0  0  0  0  0  0  0  0  0  0  0
   58.1739   33.0878   53.8216 H   0  0  0  0  0  0  0  0  0  0  0  0
   59.0490   34.0710   52.0770 C   0  0  0  0  0  0  0  0  0  0  0  0
   58.7428   35.1210   51.9601 H   0  0  0  0  0  0  0  0  0  0  0  0
   59.9768   34.0659   52.6679 H   0  0  0  0  0  0  0  0  0  0  0  0
   59.2530   33.4220   50.7090 C   0  0  0  0  0  0  0  0  0  0  0  0
   58.7236   33.9933   49.9322 H   0  0  0  0  0  0  0  0  0  0  0  0
   60.3165   33.3985   50.4288 H   0  0  0  0  0  0  0  0  0  0  0  0
   58.6740   32.0170   50.8200 C   0  0  0  0  0  0  0  0  0  0  0  0
   58.0691   31.7794   49.9325 H   0  0  0  0  0  0  0  0  0  0  0  0
   59.4640   31.2542   50.8834 H   0  0  0  0  0  0  0  0  0  0  0  0
   55.6530   31.0770   52.4100 N   0  0  0  0  0  0  0  0  0  0  0  0
   54.8950   30.0220   52.7870 C   0  0  0  0  0  0  0  0  0  0  0  0
  1  2  1  0
  2  3  1  0
  3  4  1  0
  4  5  1  0
  5  6  2  0
  5  7  1  0
  7  8  1  0
  8  9  1  0
  2 10  2  3
 10 11  1  0
 11 12  1  0
 11 13  2  0
 13 14  1  0
 13 15  1  0
 15 16  1  0
 16 17  2  0
 17 18  1  0
 18 19  1  0
 18 20  1  0
 20 21  1  0
 20 22  1  0
 20 23  1  0
 23 24  1  0
 23 25  1  0
 16 26  1  0
 26 27  2  0
 27 28  1  0
 28 29  1  0
 29 30  1  0
 29 31  1  0
 29 32  1  0
 32 33  1  0
 32 34  1  0
 32 35  1  0
 35 36  1  0
 35 37  1  0
 35 38  1  0
 38 39  1  0
 38 40  1  0
 27 41  1  0
 41 42  2  0
  8  3  2  0
 42 10  1  0
 42 15  1  0
 23 18  1  0
 38 28  1  0
M  CHG  4   4  -1   7  -1   9  -1  13   1
M  END
>  <UniqueID>  (60) 
55

>  <SMILES>  (60) 
O=c1[n-]c([O-])c(C=c2c[nH+]n3/c(=N\C4CC4)nc(N4CCCC4)nc23)[n-]1

>  <Energy>  (60) 
390.79895420270304

>  <Genealogy>  (60) 
O=c1[n-]c([O-])c(C=c2c[nH+]n3c(=NC4CC4)nc(N4CCCC4)nc23)[n-]1 (protonated)
O=c1[n-]c([O-])c(C=c2c[nH+]n3/c(=N\C4CC4)nc(N4CCCC4)nc23)[n-]1 (cis-trans isomerization)
O=c1[n-]c([O-])c(C=c2c[nH+]n3/c(=N\C4CC4)nc(N4CCCC4)nc23)[n-]1 (3D coordinates assigned)
O=c1[n-]c([O-])c(C=c2c[nH+]n3/c(=N\C4CC4)nc(N4CCCC4)nc23)[n-]1 (nonaromatic ring conformer: 390.79895420270304 kcal/mol)

>  <smiles>  (60) 
O=c1[nH]c(O)c(C=c2cnn3c(=NC4CC4)nc(N4CCCC4)nc23)[nH]1

>  <score_type>  (60) 
oracle

>  <origin>  (60) 
adg

>  <m_score__min__energy>  (60) 
-14.859999999999999

>  <m_primary>  (60) 
energy

$$$$
60:0
     RDKit          3D

 45 47  0  0  0  0  0  0  0  0999 V2000
   55.5850   28.9520   44.9890 N   0  0  0  0  0  0  0  0  0  0  0  0
   56.3770   29.9990   44.4300 C   0  0  0  0  0  0  0  0  0  0  0  0
   56.1020   30.4400   43.2820 O   0  0  0  0  0  0  0  0  0  0  0  0
   57.5510   30.5260   45.1520 C   0  0  0  0  0  0  0  0  0  0  0  0
   57.6390   31.9150   45.3410 C   0  0  0  0  0  0  0  0  0  0  0  0
   58.7750   32.4860   45.9280 C   0  0  0  0  0  0  0  0  0  0  0  0
   58.9000   33.9500   45.9990 C   0  0  0  0  0  0  0  0  0  0  0  0
   58.9660   34.6140   44.9320 O   0  0  0  0  0  0  0  0  0  0  0  0
   59.0130   34.6340   47.2550 N   0  0  0  0  0  0  0  0  0  0  0  0
   59.4280   34.0240   48.5180 C   0  0  0  0  0  0  0  0  0  0  0  0
   60.9230   33.8320   48.5650 C   0  0  0  0  0  0  0  0  0  0  0  0
   61.5730   33.6010   49.7900 C   0  0  0  0  0  0  0  0  0  0  0  0
   62.9490   33.3590   49.8220 C   0  0  0  0  0  0  0  0  0  0  0  0
   63.6890   33.3580   48.6370 C   0  0  0  0  0  0  0  0  0  0  0  0
   65.0230   33.1160   48.6700 F   0  0  0  0  0  0  0  0  0  0  0  0
   63.0540   33.6090   47.4170 C   0  0  0  0  0  0  0  0  0  0  0  0
   61.6770   33.8490   47.3790 C   0  0  0  0  0  0  0  0  0  0  0  0
   59.8120   31.6620   46.3730 C   0  0  0  0  0  0  0  0  0  0  0  0
   59.7210   30.2780   46.2260 C   0  0  0  0  0  0  0  0  0  0  0  0
   58.5950   29.6920   45.6260 C   0  0  0  0  0  0  0  0  0  0  0  0
   58.5160   27.9230   45.5470 S   0  0  0  0  0  0  0  0  0  0  0  0
   59.7660   27.3520   46.1560 O   0  0  0  0  0  0  0  0  0  0  0  0
   58.3960   27.4420   44.1280 O   0  0  0  0  0  0  0  0  0  0  0  0
   57.1460   27.3420   46.4460 N   0  0  0  0  0  0  0  0  0  0  0  0
   56.4610   26.2610   46.2000 C   0  0  0  0  0  0  0  0  0  0  0  0
   57.0410   24.9760   46.2020 C   0  0  0  0  0  0  0  0  0  0  0  0
   56.2460   23.8640   45.9200 C   0  0  0  0  0  0  0  0  0  0  0  0
   54.8890   24.0300   45.6430 C   0  0  0  0  0  0  0  0  0  0  0  0
   54.3450   25.3140   45.6510 C   0  0  0  0  0  0  0  0  0  0  0  0
   55.1340   26.3860   45.9250 N   0  0  0  0  0  0  0  0  0  0  0  0
   55.8720   28.4810   45.8760 H   0  0  0  0  0  0  0  0  0  0  0  0
   54.7440   28.6000   44.4820 H   0  0  0  0  0  0  0  0  0  0  0  0
   56.8069   32.5611   45.0246 H   0  0  0  0  0  0  0  0  0  0  0  0
   59.1237   34.6772   49.3491 H   0  0  0  0  0  0  0  0  0  0  0  0
   58.9472   33.0384   48.6036 H   0  0  0  0  0  0  0  0  0  0  0  0
   60.9964   33.6108   50.7267 H   0  0  0  0  0  0  0  0  0  0  0  0
   63.4506   33.1689   50.7824 H   0  0  0  0  0  0  0  0  0  0  0  0
   63.6387   33.6177   46.4853 H   0  0  0  0  0  0  0  0  0  0  0  0
   61.1822   34.0518   46.4177 H   0  0  0  0  0  0  0  0  0  0  0  0
   60.7030   32.1062   46.8408 H   0  0  0  0  0  0  0  0  0  0  0  0
   60.5409   29.6382   46.5843 H   0  0  0  0  0  0  0  0  0  0  0  0
   58.1111   24.8508   46.4239 H   0  0  0  0  0  0  0  0  0  0  0  0
   56.6893   22.8573   45.9162 H   0  0  0  0  0  0  0  0  0  0  0  0
   54.2556   23.1585   45.4209 H   0  0  0  0  0  0  0  0  0  0  0  0
   53.2762   25.4593   45.4353 H   0  0  0  0  0  0  0  0  0  0  0  0
  1  2  1  0
  2  3  2  0
  2  4  1  0
  4  5  2  0
  5  6  1  0
  6  7  1  0
  7  8  2  0
  7  9  1  0
  9 10  1  0
 10 11  1  0
 11 12  2  0
 12 13  1  0
 13 14  2  0
 14 15  1  0
 14 16  1  0
 16 17  2  0
  6 18  2  0
 18 19  1  0
 19 20  2  0
 20 21  1  0
 21 22  2  0
 21 23  2  0
 21 24  1  0
 24 25  2  3
 25 26  1  0
 26 27  2  0
 27 28  1  0
 28 29  2  0
 29 30  1  0
 20  4  1  0
 30 25  1  0
 17 11  1  0
  1 31  1  0
  1 32  1  0
  5 33  1  0
 10 34  1  0
 10 35  1  0
 12 36  1  0
 13 37  1  0
 16 38  1  0
 17 39  1  0
 18 40  1  0
 19 41  1  0
 26 42  1  0
 27 43  1  0
 28 44  1  0
 29 45  1  0
M  CHG  2   9  -1  30  -1
M  END
>  <UniqueID>  (61) 
56

>  <SMILES>  (61) 
NC(=O)c1cc(C(=O)[N-]Cc2ccc(F)cc2)ccc1S(=O)(=O)N=c1cccc[n-]1

>  <Energy>  (61) 
61.204229271616626

>  <Genealogy>  (61) 
NC(=O)c1cc(C(=O)[N-]Cc2ccc(F)cc2)ccc1S(=O)(=O)N=c1cccc[n-]1 (protonated)
NC(=O)c1cc(C(=O)[N-]Cc2ccc(F)cc2)ccc1S(=O)(=O)N=c1cccc[n-]1 (3D coordinates assigned)
NC(=O)c1cc(C(=O)[N-]Cc2ccc(F)cc2)ccc1S(=O)(=O)N=c1cccc[n-]1 (optimized conformer: 61.204229271616626 kcal/mol)

>  <smiles>  (61) 
NC(=O)c1cc(C(=O)NCc2ccc(F)cc2)ccc1S(=O)(=O)N=c1cccc[nH]1

>  <score_type>  (61) 
oracle

>  <origin>  (61) 
adg

>  <m_score__min__energy>  (61) 
-12.57

>  <m_primary>  (61) 
energy

$$$$
61:0
     RDKit          3D

 57 59  0  0  0  0  0  0  0  0999 V2000
   62.5360   33.4040   52.5350 C   0  0  0  0  0  0  0  0  0  0  0  0
   61.8840   33.2310   51.2810 O   0  0  0  0  0  0  0  0  0  0  0  0
   60.5330   32.8800   51.1290 C   0  0  0  0  0  0  0  0  0  0  0  0
   59.5120   33.4920   51.8830 C   0  0  0  0  0  0  0  0  0  0  0  0
   58.1800   33.1070   51.7070 C   0  0  0  0  0  0  0  0  0  0  0  0
   57.8540   32.1090   50.7850 C   0  0  0  0  0  0  0  0  0  0  0  0
   58.8580   31.4970   50.0330 C   0  0  0  0  0  0  0  0  0  0  0  0
   60.1950   31.8790   50.1980 C   0  0  0  0  0  0  0  0  0  0  0  0
   61.2160   31.2450   49.4180 N   0  0  0  0  0  0  0  0  0  0  0  0
   61.5690   29.8470   49.6750 C   0  0  0  0  0  0  0  0  0  0  0  0
   60.8320   28.9550   48.7250 C   0  0  0  0  0  0  0  0  0  0  0  0
   60.3070   27.8940   49.1580 O   0  0  0  0  0  0  0  0  0  0  0  0
   60.6270   29.3760   47.3660 N   0  0  0  0  0  0  0  0  0  0  0  0
   59.6890   28.7510   46.4790 C   0  0  0  0  0  0  0  0  0  0  0  0
   59.7700   27.3810   46.1760 C   0  0  0  0  0  0  0  0  0  0  0  0
   58.8430   26.7980   45.3080 C   0  0  0  0  0  0  0  0  0  0  0  0
   57.8330   27.5750   44.7340 C   0  0  0  0  0  0  0  0  0  0  0  0
   57.7490   28.9430   45.0200 C   0  0  0  0  0  0  0  0  0  0  0  0
   56.4850   29.9200   44.2800 S   0  0  0  0  0  0  0  0  0  0  0  0
   55.1320   29.3400   44.5910 O   0  0  0  0  0  0  0  0  0  0  0  0
   56.6700   29.9210   42.7890 O   0  0  0  0  0  0  0  0  0  0  0  0
   56.5860   31.5510   44.8680 N   0  0  0  0  0  0  0  0  0  0  0  0
   57.7870   32.1960   44.3420 C   0  0  0  0  0  0  0  0  0  0  0  0
   58.3330   33.1370   45.3760 C   0  0  0  0  0  0  0  0  0  0  0  0
   59.1550   34.2080   44.9980 C   0  0  0  0  0  0  0  0  0  0  0  0
   59.6270   35.1000   45.9640 C   0  0  0  0  0  0  0  0  0  0  0  0
   59.2630   34.9190   47.2990 C   0  0  0  0  0  0  0  0  0  0  0  0
   58.4500   33.8860   47.6490 N   0  0  0  0  0  0  0  0  0  0  0  0
   57.9800   33.0010   46.7270 C   0  0  0  0  0  0  0  0  0  0  0  0
   58.6900   29.5290   45.8770 C   0  0  0  0  0  0  0  0  0  0  0  0
   61.8930   32.0770   48.0530 S   0  0  0  0  0  0  0  0  0  0  0  0
   62.6310   33.6170   48.5570 C   0  0  0  0  0  0  0  0  0  0  0  0
   62.9570   31.2220   47.4220 O   0  0  0  0  0  0  0  0  0  0  0  0
   60.8090   32.3500   47.0500 O   0  0  0  0  0  0  0  0  0  0  0  0
   61.8211   33.2143   53.3492 H   0  0  0  0  0  0  0  0  0  0  0  0
   63.3756   32.6976   52.6123 H   0  0  0  0  0  0  0  0  0  0  0  0
   62.9149   34.4338   52.6123 H   0  0  0  0  0  0  0  0  0  0  0  0
   59.7642   34.2755   52.6127 H   0  0  0  0  0  0  0  0  0  0  0  0
   57.3866   33.5907   52.2956 H   0  0  0  0  0  0  0  0  0  0  0  0
   56.8052   31.8054   50.6517 H   0  0  0  0  0  0  0  0  0  0  0  0
   58.5980   30.7116   49.3080 H   0  0  0  0  0  0  0  0  0  0  0  0
   62.6519   29.7124   49.5367 H   0  0  0  0  0  0  0  0  0  0  0  0
   61.2919   29.5863   50.7071 H   0  0  0  0  0  0  0  0  0  0  0  0
   61.0080   30.3070   47.0870 H   0  0  0  0  0  0  0  0  0  0  0  0
   60.5650   26.7662   46.6232 H   0  0  0  0  0  0  0  0  0  0  0  0
   58.9084   25.7248   45.0759 H   0  0  0  0  0  0  0  0  0  0  0  0
   57.1021   27.1105   44.0557 H   0  0  0  0  0  0  0  0  0  0  0  0
   58.5416   31.4316   44.1047 H   0  0  0  0  0  0  0  0  0  0  0  0
   57.5371   32.7548   43.4280 H   0  0  0  0  0  0  0  0  0  0  0  0
   59.4281   34.3459   43.9414 H   0  0  0  0  0  0  0  0  0  0  0  0
   60.2794   35.9372   45.6751 H   0  0  0  0  0  0  0  0  0  0  0  0
   59.6337   35.6120   48.0687 H   0  0  0  0  0  0  0  0  0  0  0  0
   57.3221   32.1777   47.0421 H   0  0  0  0  0  0  0  0  0  0  0  0
   58.6445   30.6093   46.0793 H   0  0  0  0  0  0  0  0  0  0  0  0
   62.6561   33.6694   49.6555 H   0  0  0  0  0  0  0  0  0  0  0  0
   63.6564   33.6784   48.1635 H   0  0  0  0  0  0  0  0  0  0  0  0
   62.0365   34.4546   48.1635 H   0  0  0  0  0  0  0  0  0  0  0  0
  1  2  1  0
  2  3  1  0
  3  4  2  0
  4  5  1  0
  5  6  2  0
  6  7  1  0
  7  8  2  0
  8  9  1  0
  9 10  1  0
 10 11  1  0
 11 12  2  0
 11 13  1  0
 13 14  1  0
 14 15  2  0
 15 16  1  0
 16 17  2  0
 17 18  1  0
 18 19  1  0
 19 20  2  0
 19 21  2  0
 19 22  1  0
 22 23  1  0
 23 24  1  0
 24 25  2  0
 25 26  1  0
 26 27  2  0
 27 28  1  0
 28 29  2  0
 18 30  2  0
  9 31  1  0
 31 32  1  0
 31 33  2  0
 31 34  2  0
  8  3  1  0
 30 14  1  0
 29 24  1  0
  1 35  1  0
  1 36  1  0
  1 37  1  0
  4 38  1  0
  5 39  1  0
  6 40  1  0
  7 41  1  0
 10 42  1  0
 10 43  1  0
 13 44  1  0
 15 45  1  0
 16 46  1  0
 17 47  1  0
 23 48  1  0
 23 49  1  0
 25 50  1  0
 26 51  1  0
 27 52  1  0
 29 53  1  0
 30 54  1  0
 32 55  1  0
 32 56  1  0
 32 57  1  0
M  CHG  1  22  -1
M  END
>  <UniqueID>  (62) 
57

>  <SMILES>  (62) 
COc1ccccc1N(CC(=O)Nc1cccc(S(=O)(=O)[N-]Cc2cccnc2)c1)S(C)(=O)=O

>  <Energy>  (62) 
57.69392294910005

>  <Genealogy>  (62) 
COc1ccccc1N(CC(=O)Nc1cccc(S(=O)(=O)[N-]Cc2cccnc2)c1)S(C)(=O)=O (protonated)
COc1ccccc1N(CC(=O)Nc1cccc(S(=O)(=O)[N-]Cc2cccnc2)c1)S(C)(=O)=O (3D coordinates assigned)
COc1ccccc1N(CC(=O)Nc1cccc(S(=O)(=O)[N-]Cc2cccnc2)c1)S(C)(=O)=O (optimized conformer: 57.69392294910005 kcal/mol)

>  <smiles>  (62) 
COc1ccccc1N(CC(=O)Nc1cccc(S(=O)(=O)NCc2cccnc2)c1)S(C)(=O)=O

>  <score_type>  (62) 
oracle

>  <origin>  (62) 
adg

>  <m_score__min__energy>  (62) 
-10.859999999999999

>  <m_primary>  (62) 
energy

$$$$
62:0
     RDKit          3D

 62 65  0  0  0  0  0  0  0  0999 V2000
   58.2600   33.0310   52.2500 C   0  0  0  0  0  0  0  0  0  0  0  0
   58.6840   31.6810   52.3980 O   0  0  0  0  0  0  0  0  0  0  0  0
   59.1940   30.8910   51.3560 C   0  0  0  0  0  0  0  0  0  0  0  0
   58.3680   30.6210   50.2610 C   0  0  0  0  0  0  0  0  0  0  0  0
   58.8280   29.8360   49.1990 C   0  0  0  0  0  0  0  0  0  0  0  0
   60.1220   29.2940   49.2240 C   0  0  0  0  0  0  0  0  0  0  0  0
   60.5790   28.5110   48.1090 N   0  0  0  0  0  0  0  0  0  0  0  0
   60.5900   27.0740   48.0850 C   0  0  0  0  0  0  0  0  0  0  0  0
   60.0260   26.4120   48.9980 O   0  0  0  0  0  0  0  0  0  0  0  0
   61.2740   26.3440   46.9680 C   0  0  0  0  0  0  0  0  0  0  0  0
   60.3260   25.9070   45.9930 O   0  0  0  0  0  0  0  0  0  0  0  0
   58.9520   26.2070   45.9950 C   0  0  0  0  0  0  0  0  0  0  0  0
   57.9960   25.3050   46.5020 C   0  0  0  0  0  0  0  0  0  0  0  0
   56.6400   25.6310   46.4960 C   0  0  0  0  0  0  0  0  0  0  0  0
   56.2120   26.8580   45.9920 C   0  0  0  0  0  0  0  0  0  0  0  0
   57.1430   27.7800   45.4800 C   0  0  0  0  0  0  0  0  0  0  0  0
   56.7330   29.0300   44.9690 C   0  0  0  0  0  0  0  0  0  0  0  0
   55.5090   29.3410   44.9840 O   0  0  0  0  0  0  0  0  0  0  0  0
   57.6600   29.9090   44.4630 N   0  0  0  0  0  0  0  0  0  0  0  0
   57.2550   31.2340   43.9640 C   0  0  0  0  0  0  0  0  0  0  0  0
   57.6750   32.2950   44.9320 C   0  0  0  0  0  0  0  0  0  0  0  0
   57.6180   33.5090   44.5950 O   0  0  0  0  0  0  0  0  0  0  0  0
   58.2080   31.9190   46.2060 N   0  0  0  0  0  0  0  0  0  0  0  0
   59.5270   32.2560   46.6510 C   0  0  0  0  0  0  0  0  0  0  0  0
   60.4850   31.2370   46.7230 C   0  0  0  0  0  0  0  0  0  0  0  0
   61.7900   31.5160   47.1300 C   0  0  0  0  0  0  0  0  0  0  0  0
   62.1580   32.8230   47.4730 C   0  0  0  0  0  0  0  0  0  0  0  0
   63.5540   33.1150   47.9400 C   0  0  0  0  0  0  0  0  0  0  0  0
   61.1920   33.8400   47.4540 C   0  0  0  0  0  0  0  0  0  0  0  0
   59.8700   33.5660   47.0620 C   0  0  0  0  0  0  0  0  0  0  0  0
   58.8560   34.6790   47.0920 C   0  0  0  0  0  0  0  0  0  0  0  0
   58.9900   29.5950   44.4680 C   0  0  0  0  0  0  0  0  0  0  0  0
   59.4370   28.3730   44.9670 C   0  0  0  0  0  0  0  0  0  0  0  0
   58.5190   27.4490   45.4790 C   0  0  0  0  0  0  0  0  0  0  0  0
   60.9620   29.5850   50.3130 C   0  0  0  0  0  0  0  0  0  0  0  0
   60.5010   30.3700   51.3740 C   0  0  0  0  0  0  0  0  0  0  0  0
   58.1184   33.4818   53.2433 H   0  0  0  0  0  0  0  0  0  0  0  0
   59.0238   33.5966   51.6961 H   0  0  0  0  0  0  0  0  0  0  0  0
   57.3100   33.0583   51.6961 H   0  0  0  0  0  0  0  0  0  0  0  0
   57.3471   31.0297   50.2345 H   0  0  0  0  0  0  0  0  0  0  0  0
   58.1710   29.6421   48.3383 H   0  0  0  0  0  0  0  0  0  0  0  0
   60.8400   29.0180   47.2320 H   0  0  0  0  0  0  0  0  0  0  0  0
   62.0003   27.0169   46.4887 H   0  0  0  0  0  0  0  0  0  0  0  0
   61.7850   25.4628   47.3831 H   0  0  0  0  0  0  0  0  0  0  0  0
   58.3219   24.3352   46.9061 H   0  0  0  0  0  0  0  0  0  0  0  0
   55.9039   24.9156   46.8914 H   0  0  0  0  0  0  0  0  0  0  0  0
   55.1405   27.1067   45.9946 H   0  0  0  0  0  0  0  0  0  0  0  0
   57.7333   31.4187   42.9908 H   0  0  0  0  0  0  0  0  0  0  0  0
   56.1610   31.2592   43.8524 H   0  0  0  0  0  0  0  0  0  0  0  0
   60.2059   30.2070   46.4562 H   0  0  0  0  0  0  0  0  0  0  0  0
   62.5327   30.7063   47.1817 H   0  0  0  0  0  0  0  0  0  0  0  0
   63.5792   33.1203   49.0397 H   0  0  0  0  0  0  0  0  0  0  0  0
   64.2369   32.3403   47.5613 H   0  0  0  0  0  0  0  0  0  0  0  0
   63.8691   34.0985   47.5613 H   0  0  0  0  0  0  0  0  0  0  0  0
   61.4717   34.8622   47.7488 H   0  0  0  0  0  0  0  0  0  0  0  0
   58.6230   34.9347   48.1362 H   0  0  0  0  0  0  0  0  0  0  0  0
   59.2661   35.5625   46.5809 H   0  0  0  0  0  0  0  0  0  0  0  0
   57.9382   34.3528   46.5809 H   0  0  0  0  0  0  0  0  0  0  0  0
   59.7187   30.3177   44.0722 H   0  0  0  0  0  0  0  0  0  0  0  0
   60.5109   28.1348   44.9585 H   0  0  0  0  0  0  0  0  0  0  0  0
   61.9893   29.1922   50.3304 H   0  0  0  0  0  0  0  0  0  0  0  0
   61.1630   30.5813   52.2267 H   0  0  0  0  0  0  0  0  0  0  0  0
  1  2  1  0
  2  3  1  0
  3  4  2  0
  4  5  1  0
  5  6  2  0
  6  7  1  0
  7  8  1  0
  8  9  2  0
  8 10  1  0
 10 11  1  0
 11 12  1  0
 12 13  2  0
 13 14  1  0
 14 15  2  0
 15 16  1  0
 16 17  1  0
 17 18  2  0
 17 19  1  0
 19 20  1  0
 20 21  1  0
 21 22  2  0
 21 23  1  0
 23 24  1  0
 24 25  2  0
 25 26  1  0
 26 27  2  0
 27 28  1  0
 27 29  1  0
 29 30  2  0
 30 31  1  0
 19 32  1  0
 32 33  2  0
 33 34  1  0
  6 35  1  0
 35 36  2  0
 36  3  1  0
 34 12  1  0
 34 16  2  0
 30 24  1  0
  1 37  1  0
  1 38  1  0
  1 39  1  0
  4 40  1  0
  5 41  1  0
  7 42  1  0
 10 43  1  0
 10 44  1  0
 13 45  1  0
 14 46  1  0
 15 47  1  0
 20 48  1  0
 20 49  1  0
 25 50  1  0
 26 51  1  0
 28 52  1  0
 28 53  1  0
 28 54  1  0
 29 55  1  0
 31 56  1  0
 31 57  1  0
 31 58  1  0
 32 59  1  0
 33 60  1  0
 35 61  1  0
 36 62  1  0
M  CHG  1  23  -1
M  END
>  <UniqueID>  (63) 
58

>  <SMILES>  (63) 
COc1ccc(NC(=O)COc2cccc3c(=O)n(CC(=O)[N-]c4ccc(C)cc4C)ccc23)cc1

>  <Energy>  (63) 
80.34470605044416

>  <Genealogy>  (63) 
COc1ccc(NC(=O)COc2cccc3c(=O)n(CC(=O)[N-]c4ccc(C)cc4C)ccc23)cc1 (protonated)
COc1ccc(NC(=O)COc2cccc3c(=O)n(CC(=O)[N-]c4ccc(C)cc4C)ccc23)cc1 (3D coordinates assigned)
COc1ccc(NC(=O)COc2cccc3c(=O)n(CC(=O)[N-]c4ccc(C)cc4C)ccc23)cc1 (optimized conformer: 80.34470605044416 kcal/mol)

>  <smiles>  (63) 
COc1ccc(NC(=O)COc2cccc3c(=O)n(CC(=O)Nc4ccc(C)cc4C)ccc23)cc1

>  <score_type>  (63) 
oracle

>  <origin>  (63) 
adg

>  <m_score__min__energy>  (63) 
-10.65

>  <m_primary>  (63) 
energy

$$$$
63:0
     RDKit          3D

 56 58  0  0  0  0  0  0  0  0999 V2000
   60.3353   34.2695   52.9222 H   0  0  0  0  0  0  0  0  0  0  0  0
   59.7220   33.6570   52.2450 C   0  0  0  0  0  0  0  0  0  0  0  0
   59.8850   33.7710   50.8620 C   0  0  0  0  0  0  0  0  0  0  0  0
   60.6390   34.4603   50.4542 H   0  0  0  0  0  0  0  0  0  0  0  0
   59.0930   33.0120   49.9940 C   0  0  0  0  0  0  0  0  0  0  0  0
   59.3060   33.1180   48.5770 N   0  0  0  0  0  0  0  0  0  0  0  0
   58.9430   32.3110   47.6130 C   0  0  0  0  0  0  0  0  0  0  0  0
   57.8850   32.6880   46.8520 N   0  0  0  0  0  0  0  0  0  0  0  0
   57.3010   33.5080   47.1420 H   0  0  0  0  0  0  0  0  0  0  0  0
   57.6400   32.0930   45.6600 C   0  0  0  0  0  0  0  0  0  0  0  0
   56.6560   32.4830   44.9720 O   0  0  0  0  0  0  0  0  0  0  0  0
   58.4700   31.1080   45.2000 N   0  0  0  0  0  0  0  0  0  0  0  0
   58.2810   30.5350   43.8450 C   0  0  0  0  0  0  0  0  0  0  0  0
   59.2633   30.2273   43.4572 H   0  0  0  0  0  0  0  0  0  0  0  0
   57.8135   31.3154   43.2266 H   0  0  0  0  0  0  0  0  0  0  0  0
   57.3270   29.2940   43.8180 C   0  0  0  0  0  0  0  0  0  0  0  0
   56.5240   29.2210   45.1080 C   0  0  0  0  0  0  0  0  0  0  0  0
   57.0850   29.0300   46.2220 O   0  0  0  0  0  0  0  0  0  0  0  0
   55.1420   29.3710   45.0730 O   0  0  0  0  0  0  0  0  0  0  0  0
   56.3320   29.3950   42.6430 C   0  0  0  0  0  0  0  0  0  0  0  0
   55.3098   29.4988   43.0360 H   0  0  0  0  0  0  0  0  0  0  0  0
   56.5791   30.2727   42.0277 H   0  0  0  0  0  0  0  0  0  0  0  0
   56.3977   28.4856   42.0277 H   0  0  0  0  0  0  0  0  0  0  0  0
   58.1330   27.9850   43.6840 C   0  0  0  0  0  0  0  0  0  0  0  0
   58.3717   27.5973   44.6853 H   0  0  0  0  0  0  0  0  0  0  0  0
   57.5361   27.2414   43.1356 H   0  0  0  0  0  0  0  0  0  0  0  0
   59.0657   28.1832   43.1356 H   0  0  0  0  0  0  0  0  0  0  0  0
   59.4390   30.6180   46.0400 C   0  0  0  0  0  0  0  0  0  0  0  0
   60.1620   29.6530   45.6650 O   0  0  0  0  0  0  0  0  0  0  0  0
   59.6160   31.1490   47.2940 N   0  0  0  0  0  0  0  0  0  0  0  0
   60.3380   30.3360   48.3060 C   0  0  0  0  0  0  0  0  0  0  0  0
   59.6980   30.2148   49.1924 H   0  0  0  0  0  0  0  0  0  0  0  0
   60.5749   29.3573   47.8632 H   0  0  0  0  0  0  0  0  0  0  0  0
   61.6310   31.0020   48.7180 C   0  0  0  0  0  0  0  0  0  0  0  0
   62.3660   31.7720   47.7980 C   0  0  0  0  0  0  0  0  0  0  0  0
   62.0034   31.8886   46.7660 H   0  0  0  0  0  0  0  0  0  0  0  0
   63.5580   32.3900   48.1940 C   0  0  0  0  0  0  0  0  0  0  0  0
   64.1357   32.9830   47.4696 H   0  0  0  0  0  0  0  0  0  0  0  0
   64.0170   32.2550   49.5110 C   0  0  0  0  0  0  0  0  0  0  0  0
   65.4970   33.0550   50.0150 Cl  0  0  0  0  0  0  0  0  0  0  0  0
   63.2880   31.4920   50.4300 C   0  0  0  0  0  0  0  0  0  0  0  0
   63.6488   31.3838   51.4635 H   0  0  0  0  0  0  0  0  0  0  0  0
   62.1010   30.8670   50.0350 C   0  0  0  0  0  0  0  0  0  0  0  0
   61.5320   30.2662   50.7597 H   0  0  0  0  0  0  0  0  0  0  0  0
   58.1820   32.0800   50.5250 C   0  0  0  0  0  0  0  0  0  0  0  0
   57.5984   31.4389   49.8479 H   0  0  0  0  0  0  0  0  0  0  0  0
   58.0140   31.9640   51.9120 C   0  0  0  0  0  0  0  0  0  0  0  0
   56.8210   30.8430   52.5600 S   0  0  0  0  0  0  0  0  0  0  0  0
   57.0440   29.4660   51.9860 O   0  0  0  0  0  0  0  0  0  0  0  0
   55.4400   31.3080   52.1860 O   0  0  0  0  0  0  0  0  0  0  0  0
   56.9700   30.7790   54.3360 C   0  0  0  0  0  0  0  0  0  0  0  0
   56.0517   31.1734   54.7954 H   0  0  0  0  0  0  0  0  0  0  0  0
   57.1206   29.7368   54.6540 H   0  0  0  0  0  0  0  0  0  0  0  0
   57.8296   31.3873   54.6540 H   0  0  0  0  0  0  0  0  0  0  0  0
   58.7810   32.7660   52.7700 C   0  0  0  0  0  0  0  0  0  0  0  0
   58.6418   32.6938   53.8588 H   0  0  0  0  0  0  0  0  0  0  0  0
  1  2  1  0
  2  3  2  0
  3  4  1  0
  3  5  1  0
  5  6  1  0
  6  7  2  0
  7  8  1  0
  8  9  1  0
  8 10  1  0
 10 11  2  0
 10 12  1  0
 12 13  1  0
 13 14  1  0
 13 15  1  0
 13 16  1  0
 16 17  1  0
 17 18  2  0
 17 19  1  0
 16 20  1  0
 20 21  1  0
 20 22  1  0
 20 23  1  0
 16 24  1  0
 24 25  1  0
 24 26  1  0
 24 27  1  0
 12 28  1  0
 28 29  2  0
 28 30  1  0
 30 31  1  0
 31 32  1  0
 31 33  1  0
 31 34  1  0
 34 35  2  0
 35 36  1  0
 35 37  1  0
 37 38  1  0
 37 39  2  0
 39 40  1  0
 39 41  1  0
 41 42  1  0
 41 43  2  0
 43 44  1  0
  5 45  2  0
 45 46  1  0
 45 47  1  0
 47 48  1  0
 48 49  2  0
 48 50  2  0
 48 51  1  0
 51 52  1  0
 51 53  1  0
 51 54  1  0
 47 55  2  0
 55 56  1  0
 55  2  1  0
 30  7  1  0
 43 34  1  0
M  CHG  1  19  -1
M  END
>  <UniqueID>  (64) 
59

>  <SMILES>  (64) 
CC(C)(Cn1c(=O)[nH]/c(=N/c2cccc(S(C)(=O)=O)c2)n(Cc2ccc(Cl)cc2)c1=O)C(=O)[O-]

>  <Energy>  (64) 
83.10206338105932

>  <Genealogy>  (64) 
CC(C)(Cn1c(=O)[nH]c(=Nc2cccc(S(C)(=O)=O)c2)n(Cc2ccc(Cl)cc2)c1=O)C(=O)[O-] (protonated)
CC(C)(Cn1c(=O)[nH]/c(=N/c2cccc(S(C)(=O)=O)c2)n(Cc2ccc(Cl)cc2)c1=O)C(=O)[O-] (cis-trans isomerization)
CC(C)(Cn1c(=O)[nH]/c(=N/c2cccc(S(C)(=O)=O)c2)n(Cc2ccc(Cl)cc2)c1=O)C(=O)[O-] (3D coordinates assigned)
CC(C)(Cn1c(=O)[nH]/c(=N/c2cccc(S(C)(=O)=O)c2)n(Cc2ccc(Cl)cc2)c1=O)C(=O)[O-] (optimized conformer: 83.10206338105932 kcal/mol)

>  <smiles>  (64) 
CC(C)(Cn1c(=O)[nH]c(=Nc2cccc(S(C)(=O)=O)c2)n(Cc2ccc(Cl)cc2)c1=O)C(=O)O

>  <score_type>  (64) 
oracle

>  <origin>  (64) 
adg

>  <m_score__min__energy>  (64) 
-11.880000000000001

>  <m_primary>  (64) 
energy

$$$$
64:0
     RDKit          3D

 47 49  0  0  0  0  0  0  0  0999 V2000
   64.6160   32.7480   49.3410 C   0  0  0  0  0  0  0  0  0  0  0  0
   63.6350   31.8690   48.7880 O   0  0  0  0  0  0  0  0  0  0  0  0
   62.5240   32.2940   48.0310 C   0  0  0  0  0  0  0  0  0  0  0  0
   61.2430   31.6980   48.1540 C   0  0  0  0  0  0  0  0  0  0  0  0
   60.1670   32.1610   47.3810 C   0  0  0  0  0  0  0  0  0  0  0  0
   60.3540   33.2170   46.4690 C   0  0  0  0  0  0  0  0  0  0  0  0
   59.0080   33.8130   45.4950 S   0  0  0  0  0  0  0  0  0  0  0  0
   59.4240   35.0960   44.8250 O   0  0  0  0  0  0  0  0  0  0  0  0
   57.8100   34.1020   46.3570 O   0  0  0  0  0  0  0  0  0  0  0  0
   58.5560   32.6650   44.2750 N   0  0  0  0  0  0  0  0  0  0  0  0
   57.7670   31.4930   44.5150 C   0  0  0  0  0  0  0  0  0  0  0  0
   56.6060   31.2170   43.7850 C   0  0  0  0  0  0  0  0  0  0  0  0
   55.8540   30.0730   44.0590 C   0  0  0  0  0  0  0  0  0  0  0  0
   56.2640   29.1810   45.0470 C   0  0  0  0  0  0  0  0  0  0  0  0
   55.5270   28.0180   45.2550 O   0  0  0  0  0  0  0  0  0  0  0  0
   57.4330   29.4480   45.8010 C   0  0  0  0  0  0  0  0  0  0  0  0
   57.9260   28.5160   46.7780 N   0  0  0  0  0  0  0  0  0  0  0  0
   59.3030   28.4280   47.1630 C   0  0  0  0  0  0  0  0  0  0  0  0
   60.2040   28.8730   46.4000 O   0  0  0  0  0  0  0  0  0  0  0  0
   59.6900   27.7270   48.4340 C   0  0  0  0  0  0  0  0  0  0  0  0
   59.9120   28.7300   49.5370 C   0  0  0  0  0  0  0  0  0  0  0  0
   58.9280   29.6940   49.8260 C   0  0  0  0  0  0  0  0  0  0  0  0
   59.1640   30.6650   50.8060 C   0  0  0  0  0  0  0  0  0  0  0  0
   60.3790   30.6920   51.4930 C   0  0  0  0  0  0  0  0  0  0  0  0
   61.3600   29.7370   51.2140 C   0  0  0  0  0  0  0  0  0  0  0  0
   61.1320   28.7640   50.2350 C   0  0  0  0  0  0  0  0  0  0  0  0
   58.1770   30.6060   45.5290 C   0  0  0  0  0  0  0  0  0  0  0  0
   61.6260   33.8120   46.3450 C   0  0  0  0  0  0  0  0  0  0  0  0
   62.7010   33.3540   47.1240 C   0  0  0  0  0  0  0  0  0  0  0  0
   64.5688   32.7057   50.4392 H   0  0  0  0  0  0  0  0  0  0  0  0
   65.6166   32.4387   49.0048 H   0  0  0  0  0  0  0  0  0  0  0  0
   64.4179   33.7765   49.0048 H   0  0  0  0  0  0  0  0  0  0  0  0
   61.0918   30.8678   48.8596 H   0  0  0  0  0  0  0  0  0  0  0  0
   59.1751   31.6976   47.4880 H   0  0  0  0  0  0  0  0  0  0  0  0
   56.2835   31.9056   42.9901 H   0  0  0  0  0  0  0  0  0  0  0  0
   54.9327   29.8751   43.4915 H   0  0  0  0  0  0  0  0  0  0  0  0
   57.2470   27.8570   47.2110 H   0  0  0  0  0  0  0  0  0  0  0  0
   58.8852   27.0369   48.7275 H   0  0  0  0  0  0  0  0  0  0  0  0
   60.6223   27.1681   48.2652 H   0  0  0  0  0  0  0  0  0  0  0  0
   57.9725   29.6842   49.2811 H   0  0  0  0  0  0  0  0  0  0  0  0
   58.3884   31.4104   51.0360 H   0  0  0  0  0  0  0  0  0  0  0  0
   60.5640   31.4648   52.2536 H   0  0  0  0  0  0  0  0  0  0  0  0
   62.3122   29.7502   51.7645 H   0  0  0  0  0  0  0  0  0  0  0  0
   61.9116   28.0213   50.0101 H   0  0  0  0  0  0  0  0  0  0  0  0
   59.0852   30.8221   46.1108 H   0  0  0  0  0  0  0  0  0  0  0  0
   61.7771   34.6385   45.6351 H   0  0  0  0  0  0  0  0  0  0  0  0
   63.6887   33.8279   47.0240 H   0  0  0  0  0  0  0  0  0  0  0  0
  1  2  1  0
  2  3  1  0
  3  4  2  0
  4  5  1  0
  5  6  2  0
  6  7  1  0
  7  8  2  0
  7  9  2  0
  7 10  1  0
 10 11  1  0
 11 12  2  0
 12 13  1  0
 13 14  2  0
 14 15  1  0
 14 16  1  0
 16 17  1  0
 17 18  1  0
 18 19  2  0
 18 20  1  0
 20 21  1  0
 21 22  2  0
 22 23  1  0
 23 24  2  0
 24 25  1  0
 25 26  2  0
 16 27  2  0
  6 28  1  0
 28 29  2  0
 29  3  1  0
 27 11  1  0
 26 21  1  0
  1 30  1  0
  1 31  1  0
  1 32  1  0
  4 33  1  0
  5 34  1  0
 12 35  1  0
 13 36  1  0
 17 37  1  0
 20 38  1  0
 20 39  1  0
 22 40  1  0
 23 41  1  0
 24 42  1  0
 25 43  1  0
 26 44  1  0
 27 45  1  0
 28 46  1  0
 29 47  1  0
M  CHG  2  10  -1  15  -1
M  END
>  <UniqueID>  (65) 
60

>  <SMILES>  (65) 
COc1ccc(S(=O)(=O)[N-]c2ccc([O-])c(NC(=O)Cc3ccccc3)c2)cc1

>  <Energy>  (65) 
57.70841399449625

>  <Genealogy>  (65) 
COc1ccc(S(=O)(=O)[N-]c2ccc([O-])c(NC(=O)Cc3ccccc3)c2)cc1 (protonated)
COc1ccc(S(=O)(=O)[N-]c2ccc([O-])c(NC(=O)Cc3ccccc3)c2)cc1 (3D coordinates assigned)
COc1ccc(S(=O)(=O)[N-]c2ccc([O-])c(NC(=O)Cc3ccccc3)c2)cc1 (optimized conformer: 57.70841399449625 kcal/mol)

>  <smiles>  (65) 
COc1ccc(S(=O)(=O)Nc2ccc(O)c(NC(=O)Cc3ccccc3)c2)cc1

>  <score_type>  (65) 
oracle

>  <origin>  (65) 
adg

>  <m_score__min__energy>  (65) 
-11.970000000000001

>  <m_primary>  (65) 
energy

$$$$
65:0
     RDKit          3D

 38 40  0  0  1  0  0  0  0  0999 V2000
   56.0190   29.7650   45.1720 O   0  0  0  0  0  0  0  0  0  0  0  0
   57.1810   29.2530   44.3320 S   0  0  0  0  0  0  0  0  0  0  0  0
   56.6460   28.7960   43.0090 O   0  0  0  0  0  0  0  0  0  0  0  0
   58.3290   30.5230   44.1080 N   0  0  0  0  0  0  0  0  0  0  0  0
   58.2300   31.7630   44.7950 C   0  0  0  0  0  0  0  0  0  0  0  0
   57.3140   32.7430   44.4680 C   0  0  0  0  0  0  0  0  0  0  0  0
   57.2230   33.9480   45.1340 C   0  0  0  0  0  0  0  0  0  0  0  0
   58.0690   34.2230   46.1810 C   0  0  0  0  0  0  0  0  0  0  0  0
   58.9990   33.2690   46.5390 C   0  0  0  0  0  0  0  0  0  0  0  0
   59.0780   32.0720   45.8650 C   0  0  0  0  0  0  0  0  0  0  0  0
   60.0310   31.0760   46.2210 N   0  0  0  0  0  0  0  0  0  0  0  0
   59.9210   30.3690   47.2990 C   0  0  0  0  0  0  0  0  0  0  0  0
   61.0400   30.3080   48.1070 C   0  0  0  0  0  0  0  0  0  0  0  0
   60.9170   29.5440   49.2690 C   0  0  0  0  0  0  0  0  0  0  0  0
   59.7600   28.9130   49.5640 N   0  0  0  0  0  0  0  0  0  0  0  0
   58.7000   29.0190   48.7180 C   0  0  0  0  0  0  0  0  0  0  0  0
   58.7680   29.7430   47.5850 N   0  0  0  0  0  0  0  0  0  0  0  0
   57.8190   27.8830   45.1720 C   0  0  0  0  0  0  0  0  0  0  0  0
   59.1530   27.6050   45.3310 C   0  0  0  0  0  0  0  0  0  0  0  0
   59.6330   26.5020   46.0040 C   0  0  0  0  0  0  0  0  0  0  0  0
   58.7120   25.6380   46.5410 C   0  0  0  0  0  0  0  0  0  0  0  0
   57.3590   25.8680   46.4120 C   0  0  0  0  0  0  0  0  0  0  0  0
   56.9090   26.9820   45.7310 C   0  0  0  0  0  0  0  0  0  0  0  0
   55.5310   27.1910   45.6150 O   0  0  0  0  0  0  0  0  0  0  0  0
   59.1260   30.3970   43.4540 H   0  0  0  0  0  0  0  0  0  0  0  0
   56.6218   32.5535   43.6344 H   0  0  0  0  0  0  0  0  0  0  0  0
   56.4716   34.6900   44.8260 H   0  0  0  0  0  0  0  0  0  0  0  0
   58.0064   35.1797   46.7202 H   0  0  0  0  0  0  0  0  0  0  0  0
   59.6865   33.4679   47.3743 H   0  0  0  0  0  0  0  0  0  0  0  0
   61.9731   30.8307   47.8499 H   0  0  0  0  0  0  0  0  0  0  0  0
   61.7737   29.4548   49.9532 H   0  0  0  0  0  0  0  0  0  0  0  0
   59.6590   28.3350   50.4370 H   0  0  0  0  0  0  0  0  0  0  0  0
   57.7627   28.4995   48.9662 H   0  0  0  0  0  0  0  0  0  0  0  0
   59.8827   28.3036   44.8957 H   0  0  0  0  0  0  0  0  0  0  0  0
   60.7132   26.3212   46.1067 H   0  0  0  0  0  0  0  0  0  0  0  0
   59.0594   24.7465   47.0838 H   0  0  0  0  0  0  0  0  0  0  0  0
   56.6373   25.1638   46.8517 H   0  0  0  0  0  0  0  0  0  0  0  0
   55.2620   27.8650   44.8930 H   0  0  0  0  0  0  0  0  0  0  0  0
  1  2  2  0
  2  3  2  0
  2  4  1  0
  4  5  1  0
  5  6  2  0
  6  7  1  0
  7  8  2  0
  8  9  1  0
  9 10  2  0
 10 11  1  0
 11 12  2  0
 12 13  1  0
 13 14  2  0
 14 15  1  0
 15 16  1  0
 16 17  2  0
  2 18  1  0
 18 19  2  0
 19 20  1  0
 20 21  2  0
 21 22  1  0
 22 23  2  0
 23 24  1  0
 10  5  1  0
 17 12  1  0
 23 18  1  0
  4 25  1  0
  6 26  1  0
  7 27  1  0
  8 28  1  0
  9 29  1  0
 13 30  1  0
 14 31  1  0
 15 32  1  0
 16 33  1  0
 19 34  1  0
 20 35  1  0
 21 36  1  0
 22 37  1  0
 24 38  1  0
M  END
>  <smiles>  (66) 
O=S(=O)(Nc1ccccc1N=c1cc[nH]cn1)c1ccccc1O

>  <score_type>  (66) 
oracle

>  <origin>  (66) 
adg

>  <m_score__min__energy>  (66) 
-8.9000000000000004

>  <m_primary>  (66) 
energy

$$$$
66:0
     RDKit          3D

 35 37  0  0  1  0  0  0  0  0999 V2000
   56.6380   30.8080   42.4980 C   0  0  0  0  0  0  0  0  0  0  0  0
   55.9700   29.8400   43.4600 C   0  0  0  0  0  0  0  0  0  0  0  0
   56.2620   30.2010   44.7530 O   0  0  0  0  0  0  0  0  0  0  0  0
   57.6110   30.2020   44.9820 C   0  0  2  0  0  0  0  0  0  0  0  0
   58.2510   31.4810   45.2140 C   0  0  0  0  0  0  0  0  0  0  0  0
   59.3250   31.5540   46.0740 C   0  0  0  0  0  0  0  0  0  0  0  0
   59.9710   32.7550   46.3530 C   0  0  0  0  0  0  0  0  0  0  0  0
   59.5480   33.9320   45.7610 C   0  0  0  0  0  0  0  0  0  0  0  0
   58.4710   33.8710   44.8970 C   0  0  0  0  0  0  0  0  0  0  0  0
   57.8390   32.6620   44.6330 C   0  0  0  0  0  0  0  0  0  0  0  0
   58.3430   29.3120   44.1170 N   0  0  0  0  0  0  0  0  0  0  0  0
   58.0890   27.9540   44.3410 C   0  0  0  0  0  0  0  0  0  0  0  0
   57.7970   27.6300   45.6400 C   0  0  0  0  0  0  0  0  0  0  0  0
   57.5380   26.3690   46.0340 N   0  0  0  0  0  0  0  0  0  0  0  0
   57.5590   25.3610   45.1410 C   0  0  0  0  0  0  0  0  0  0  0  0
   57.2640   23.9880   45.6340 C   0  0  0  0  0  0  0  0  0  0  0  0
   57.8370   25.6430   43.8760 N   0  0  0  0  0  0  0  0  0  0  0  0
   58.1050   26.8990   43.4260 C   0  0  0  0  0  0  0  0  0  0  0  0
   58.3590   27.0700   42.2080 O   0  0  0  0  0  0  0  0  0  0  0  0
   57.8470   29.2160   46.5300 S   0  0  0  0  0  0  0  0  0  0  0  0
   57.1721   31.5820   43.0686 H   0  0  0  0  0  0  0  0  0  0  0  0
   57.3520   30.2613   41.8645 H   0  0  0  0  0  0  0  0  0  0  0  0
   55.8735   31.2815   41.8645 H   0  0  0  0  0  0  0  0  0  0  0  0
   54.8807   29.8671   43.3093 H   0  0  0  0  0  0  0  0  0  0  0  0
   56.3422   28.8222   43.2717 H   0  0  0  0  0  0  0  0  0  0  0  0
   59.6838   30.6327   46.5561 H   0  0  0  0  0  0  0  0  0  0  0  0
   60.8231   32.7685   47.0485 H   0  0  0  0  0  0  0  0  0  0  0  0
   60.0531   34.8863   45.9714 H   0  0  0  0  0  0  0  0  0  0  0  0
   58.1099   34.7903   44.4127 H   0  0  0  0  0  0  0  0  0  0  0  0
   56.9848   32.6464   43.9401 H   0  0  0  0  0  0  0  0  0  0  0  0
   59.0130   29.6640   43.3780 H   0  0  0  0  0  0  0  0  0  0  0  0
   57.3190   26.1790   47.0560 H   0  0  0  0  0  0  0  0  0  0  0  0
   57.2635   23.9856   46.7340 H   0  0  0  0  0  0  0  0  0  0  0  0
   56.2771   23.6705   45.2662 H   0  0  0  0  0  0  0  0  0  0  0  0
   58.0333   23.2932   45.2662 H   0  0  0  0  0  0  0  0  0  0  0  0
  1  2  1  0
  2  3  1  0
  4  3  1  6
  4  5  1  0
  5  6  2  0
  6  7  1  0
  7  8  2  0
  8  9  1  0
  9 10  2  0
  4 11  1  0
 11 12  1  0
 12 13  2  0
 13 14  1  0
 14 15  1  0
 15 16  1  0
 15 17  2  0
 17 18  1  0
 18 19  2  0
 13 20  1  0
 20  4  1  0
 10  5  1  0
 18 12  1  0
  1 21  1  0
  1 22  1  0
  1 23  1  0
  2 24  1  0
  2 25  1  0
  6 26  1  0
  7 27  1  0
  8 28  1  0
  9 29  1  0
 10 30  1  0
 11 31  1  0
 14 32  1  0
 16 33  1  0
 16 34  1  0
 16 35  1  0
M  END
>  <smiles>  (67) 
CCOC1(c2ccccc2)Nc2c([nH]c(C)nc2=O)S1

>  <score_type>  (67) 
oracle

>  <origin>  (67) 
adg

>  <m_score__min__energy>  (67) 
-7.1100000000000003

>  <m_primary>  (67) 
energy

$$$$
67:0
     RDKit          3D

 40 42  0  0  0  0  0  0  0  0999 V2000
   57.3960   33.2500   46.9470 C   0  0  0  0  0  0  0  0  0  0  0  0
   58.3250   33.2420   45.8020 N   0  0  0  0  0  0  0  0  0  0  0  0
   57.5850   33.1350   44.5200 C   0  0  0  0  0  0  0  0  0  0  0  0
   58.0460   31.8910   43.7570 C   0  0  0  0  0  0  0  0  0  0  0  0
   57.3370   30.6610   44.2450 C   0  0  0  0  0  0  0  0  0  0  0  0
   55.9720   30.5350   44.4810 C   0  0  0  0  0  0  0  0  0  0  0  0
   55.6960   29.3310   45.0340 N   0  0  0  0  0  0  0  0  0  0  0  0
   56.8770   28.7020   45.1610 C   0  0  0  0  0  0  0  0  0  0  0  0
   57.1090   27.4430   45.7150 C   0  0  0  0  0  0  0  0  0  0  0  0
   58.4380   26.9890   45.7840 C   0  0  0  0  0  0  0  0  0  0  0  0
   59.4960   27.7940   45.3050 C   0  0  0  0  0  0  0  0  0  0  0  0
   59.2310   29.0600   44.7500 C   0  0  0  0  0  0  0  0  0  0  0  0
   57.9030   29.4820   44.6940 C   0  0  0  0  0  0  0  0  0  0  0  0
   59.2130   34.4240   45.8250 C   0  0  0  0  0  0  0  0  0  0  0  0
   60.3720   34.2040   46.7620 C   0  0  0  0  0  0  0  0  0  0  0  0
   60.2240   34.4080   48.1450 C   0  0  0  0  0  0  0  0  0  0  0  0
   61.2940   34.1660   49.0110 C   0  0  0  0  0  0  0  0  0  0  0  0
   62.5180   33.7150   48.5050 C   0  0  0  0  0  0  0  0  0  0  0  0
   63.8570   33.4060   49.5950 Cl  0  0  0  0  0  0  0  0  0  0  0  0
   62.6710   33.5080   47.1310 C   0  0  0  0  0  0  0  0  0  0  0  0
   61.6040   33.7520   46.2620 C   0  0  0  0  0  0  0  0  0  0  0  0
   57.9703   33.2451   47.8852 H   0  0  0  0  0  0  0  0  0  0  0  0
   56.7701   34.1536   46.9050 H   0  0  0  0  0  0  0  0  0  0  0  0
   56.7546   32.3573   46.9050 H   0  0  0  0  0  0  0  0  0  0  0  0
   56.5072   33.0584   44.7259 H   0  0  0  0  0  0  0  0  0  0  0  0
   57.7836   34.0289   43.9106 H   0  0  0  0  0  0  0  0  0  0  0  0
   57.8327   32.0271   42.6865 H   0  0  0  0  0  0  0  0  0  0  0  0
   59.1254   31.7601   43.9239 H   0  0  0  0  0  0  0  0  0  0  0  0
   55.2220   31.3059   44.2505 H   0  0  0  0  0  0  0  0  0  0  0  0
   54.7580   28.9770   45.3240 H   0  0  0  0  0  0  0  0  0  0  0  0
   56.2784   26.8248   46.0862 H   0  0  0  0  0  0  0  0  0  0  0  0
   58.6556   26.0002   46.2139 H   0  0  0  0  0  0  0  0  0  0  0  0
   60.5320   27.4293   45.3662 H   0  0  0  0  0  0  0  0  0  0  0  0
   60.0452   29.6961   44.3726 H   0  0  0  0  0  0  0  0  0  0  0  0
   59.5985   34.6053   44.8108 H   0  0  0  0  0  0  0  0  0  0  0  0
   58.6357   35.2921   46.1759 H   0  0  0  0  0  0  0  0  0  0  0  0
   59.2624   34.7594   48.5472 H   0  0  0  0  0  0  0  0  0  0  0  0
   61.1736   34.3304   50.0920 H   0  0  0  0  0  0  0  0  0  0  0  0
   63.6329   33.1524   46.7331 H   0  0  0  0  0  0  0  0  0  0  0  0
   61.7298   33.5892   45.1814 H   0  0  0  0  0  0  0  0  0  0  0  0
  1  2  1  0
  2  3  1  0
  3  4  1  0
  4  5  1  0
  5  6  2  0
  6  7  1  0
  7  8  1  0
  8  9  2  0
  9 10  1  0
 10 11  2  0
 11 12  1  0
 12 13  2  0
  2 14  1  0
 14 15  1  0
 15 16  2  0
 16 17  1  0
 17 18  2  0
 18 19  1  0
 18 20  1  0
 20 21  2  0
 13  5  1  0
 21 15  1  0
 13  8  1  0
  1 22  1  0
  1 23  1  0
  1 24  1  0
  3 25  1  0
  3 26  1  0
  4 27  1  0
  4 28  1  0
  6 29  1  0
  7 30  1  0
  9 31  1  0
 10 32  1  0
 11 33  1  0
 12 34  1  0
 14 35  1  0
 14 36  1  0
 16 37  1  0
 17 38  1  0
 20 39  1  0
 21 40  1  0
M  END
>  <UniqueID>  (68) 
61

>  <SMILES>  (68) 
CN(CCc1c[nH]c2ccccc12)Cc1ccc(Cl)cc1

>  <Energy>  (68) 
73.03712653685726

>  <Genealogy>  (68) 
CN(CCc1c[nH]c2ccccc12)Cc1ccc(Cl)cc1 (3D coordinates assigned)
CN(CCc1c[nH]c2ccccc12)Cc1ccc(Cl)cc1 (optimized conformer: 73.03712653685726 kcal/mol)

>  <smiles>  (68) 
CN(CCc1c[nH]c2ccccc12)Cc1ccc(Cl)cc1

>  <score_type>  (68) 
oracle

>  <origin>  (68) 
adg

>  <m_score__min__energy>  (68) 
-8.3900000000000006

>  <m_primary>  (68) 
energy

$$$$
68:0
     RDKit          3D

 25 27  0  0  0  0  0  0  0  0999 V2000
   58.7130   35.2170   46.9050 F   0  0  0  0  0  0  0  0  0  0  0  0
   58.5890   34.0490   46.2270 C   0  0  0  0  0  0  0  0  0  0  0  0
   58.8200   32.8350   46.8790 C   0  0  0  0  0  0  0  0  0  0  0  0
   58.6910   31.6300   46.1820 C   0  0  0  0  0  0  0  0  0  0  0  0
   58.3450   31.6320   44.8180 C   0  0  0  0  0  0  0  0  0  0  0  0
   58.1760   30.4050   44.0870 N   0  0  0  0  0  0  0  0  0  0  0  0
   57.9990   29.1150   44.6920 C   0  0  0  0  0  0  0  0  0  0  0  0
   56.7100   28.6170   45.0010 C   0  0  0  0  0  0  0  0  0  0  0  0
   56.6410   27.3720   45.6160 C   0  0  0  0  0  0  0  0  0  0  0  0
   55.5470   26.7010   46.0000 N   0  0  0  0  0  0  0  0  0  0  0  0
   56.0700   25.5700   46.5420 C   0  0  0  0  0  0  0  0  0  0  0  0
   57.4280   25.5090   46.5170 N   0  0  0  0  0  0  0  0  0  0  0  0
   57.7550   26.6650   45.9250 C   0  0  0  0  0  0  0  0  0  0  0  0
   59.0210   27.1610   45.6410 C   0  0  0  0  0  0  0  0  0  0  0  0
   59.1080   28.3820   45.0340 N   0  0  0  0  0  0  0  0  0  0  0  0
   58.0910   32.8560   44.1790 C   0  0  0  0  0  0  0  0  0  0  0  0
   58.2210   34.0600   44.8790 C   0  0  0  0  0  0  0  0  0  0  0  0
   59.1036   32.8274   47.9418 H   0  0  0  0  0  0  0  0  0  0  0  0
   58.8608   30.6758   46.7023 H   0  0  0  0  0  0  0  0  0  0  0  0
   58.1790   30.4510   43.0440 H   0  0  0  0  0  0  0  0  0  0  0  0
   55.8018   29.1908   44.7645 H   0  0  0  0  0  0  0  0  0  0  0  0
   55.4460   24.7696   46.9661 H   0  0  0  0  0  0  0  0  0  0  0  0
   59.9250   26.5888   45.8967 H   0  0  0  0  0  0  0  0  0  0  0  0
   57.7880   32.8683   43.1216 H   0  0  0  0  0  0  0  0  0  0  0  0
   58.0335   35.0159   44.3681 H   0  0  0  0  0  0  0  0  0  0  0  0
  1  2  1  0
  2  3  2  0
  3  4  1  0
  4  5  2  0
  5  6  1  0
  6  7  1  0
  7  8  2  0
  8  9  1  0
  9 10  1  0
 10 11  1  0
 11 12  2  0
 12 13  1  0
 13 14  1  0
 14 15  2  0
  5 16  1  0
 16 17  2  0
 17  2  1  0
 15  7  1  0
 13  9  2  0
  3 18  1  0
  4 19  1  0
  6 20  1  0
  8 21  1  0
 11 22  1  0
 14 23  1  0
 16 24  1  0
 17 25  1  0
M  CHG  1  10  -1
M  END
>  <UniqueID>  (69) 
62

>  <SMILES>  (69) 
Fc1ccc(Nc2cc3[n-]cnc3cn2)cc1

>  <Energy>  (69) 
69.37099253650806

>  <Genealogy>  (69) 
Fc1ccc(Nc2cc3[n-]cnc3cn2)cc1 (protonated)
Fc1ccc(Nc2cc3[n-]cnc3cn2)cc1 (3D coordinates assigned)
Fc1ccc(Nc2cc3[n-]cnc3cn2)cc1 (optimized conformer: 69.37099253650806 kcal/mol)

>  <smiles>  (69) 
Fc1ccc(Nc2cc3[nH]cnc3cn2)cc1

>  <score_type>  (69) 
oracle

>  <origin>  (69) 
adg

>  <m_score__min__energy>  (69) 
-7.54

>  <m_primary>  (69) 
energy

$$$$
69:0
     RDKit          3D

 41 43  0  0  0  0  0  0  0  0999 V2000
   55.4990   29.0460   44.8740 N   0  0  0  0  0  0  0  0  0  0  0  0
   56.5510   29.9930   44.7130 C   0  0  0  0  0  0  0  0  0  0  0  0
   56.2950   31.2260   44.7530 O   0  0  0  0  0  0  0  0  0  0  0  0
   57.9630   29.5200   44.5310 C   0  0  0  0  0  0  0  0  0  0  0  0
   58.3970   28.6910   45.6830 N   0  0  0  0  0  0  0  0  0  0  0  0
   57.9430   27.3900   45.7920 C   0  0  0  0  0  0  0  0  0  0  0  0
   56.9650   26.8760   44.8690 N   0  0  0  0  0  0  0  0  0  0  0  0
   58.4460   26.5370   46.7990 C   0  0  0  0  0  0  0  0  0  0  0  0
   57.9550   25.1440   46.9380 C   0  0  0  0  0  0  0  0  0  0  0  0
   57.7700   24.5610   48.2280 N   0  0  0  0  0  0  0  0  0  0  0  0
   57.6870   24.4670   45.9090 O   0  0  0  0  0  0  0  0  0  0  0  0
   59.3780   27.0330   47.7180 C   0  0  0  0  0  0  0  0  0  0  0  0
   59.8220   26.2810   48.6310 O   0  0  0  0  0  0  0  0  0  0  0  0
   59.7860   28.3710   47.6510 C   0  0  0  0  0  0  0  0  0  0  0  0
   60.6870   28.8930   48.6030 C   0  0  0  0  0  0  0  0  0  0  0  0
   61.0600   30.2330   48.5660 C   0  0  0  0  0  0  0  0  0  0  0  0
   60.5450   31.0740   47.5840 C   0  0  0  0  0  0  0  0  0  0  0  0
   60.9940   32.8100   47.5670 S   0  0  0  0  0  0  0  0  0  0  0  0
   59.4800   33.2840   46.7320 C   0  0  0  0  0  0  0  0  0  0  0  0
   59.5330   33.8470   45.4490 C   0  0  0  0  0  0  0  0  0  0  0  0
   58.3510   34.2020   44.7930 C   0  0  0  0  0  0  0  0  0  0  0  0
   57.1150   34.0010   45.4160 C   0  0  0  0  0  0  0  0  0  0  0  0
   57.0600   33.4440   46.6980 C   0  0  0  0  0  0  0  0  0  0  0  0
   58.2420   33.0850   47.3560 C   0  0  0  0  0  0  0  0  0  0  0  0
   59.6660   30.5700   46.6220 C   0  0  0  0  0  0  0  0  0  0  0  0
   59.2700   29.2080   46.6280 C   0  0  0  0  0  0  0  0  0  0  0  0
   54.5620   29.3410   45.2290 H   0  0  0  0  0  0  0  0  0  0  0  0
   58.0259   28.9197   43.6114 H   0  0  0  0  0  0  0  0  0  0  0  0
   58.6216   30.3984   44.4625 H   0  0  0  0  0  0  0  0  0  0  0  0
   56.1870   27.4720   44.5080 H   0  0  0  0  0  0  0  0  0  0  0  0
   56.9600   25.8720   44.5860 H   0  0  0  0  0  0  0  0  0  0  0  0
   58.0460   25.0760   49.0940 H   0  0  0  0  0  0  0  0  0  0  0  0
   57.3930   23.5910   48.3190 H   0  0  0  0  0  0  0  0  0  0  0  0
   61.0985   28.2343   49.3820 H   0  0  0  0  0  0  0  0  0  0  0  0
   61.7630   30.6282   49.3141 H   0  0  0  0  0  0  0  0  0  0  0  0
   60.5044   34.0092   44.9590 H   0  0  0  0  0  0  0  0  0  0  0  0
   58.3929   34.6403   43.7849 H   0  0  0  0  0  0  0  0  0  0  0  0
   56.1860   34.2810   44.8978 H   0  0  0  0  0  0  0  0  0  0  0  0
   56.0880   33.2882   47.1889 H   0  0  0  0  0  0  0  0  0  0  0  0
   58.1986   32.6463   48.3638 H   0  0  0  0  0  0  0  0  0  0  0  0
   59.2735   31.2424   45.8450 H   0  0  0  0  0  0  0  0  0  0  0  0
  1  2  1  0
  2  3  2  0
  2  4  1  0
  4  5  1  0
  5  6  1  0
  6  7  1  0
  6  8  2  0
  8  9  1  0
  9 10  1  0
  9 11  2  0
  8 12  1  0
 12 13  2  0
 12 14  1  0
 14 15  2  0
 15 16  1  0
 16 17  2  0
 17 18  1  0
 18 19  1  0
 19 20  2  0
 20 21  1  0
 21 22  2  0
 22 23  1  0
 23 24  2  0
 17 25  1  0
 25 26  2  0
 26  5  1  0
 26 14  1  0
 24 19  1  0
  1 27  1  0
  4 28  1  0
  4 29  1  0
  7 30  1  0
  7 31  1  0
 10 32  1  0
 10 33  1  0
 15 34  1  0
 16 35  1  0
 20 36  1  0
 21 37  1  0
 22 38  1  0
 23 39  1  0
 24 40  1  0
 25 41  1  0
M  CHG  1   1  -1
M  END
>  <UniqueID>  (70) 
63

>  <SMILES>  (70) 
[NH-]C(=O)Cn1c(N)c(C(N)=O)c(=O)c2ccc(Sc3ccccc3)cc21

>  <Energy>  (70) 
58.67452973600121

>  <Genealogy>  (70) 
[NH-]C(=O)Cn1c(N)c(C(N)=O)c(=O)c2ccc(Sc3ccccc3)cc21 (protonated)
[NH-]C(=O)Cn1c(N)c(C(N)=O)c(=O)c2ccc(Sc3ccccc3)cc21 (3D coordinates assigned)
[NH-]C(=O)Cn1c(N)c(C(N)=O)c(=O)c2ccc(Sc3ccccc3)cc21 (optimized conformer: 58.67452973600121 kcal/mol)

>  <smiles>  (70) 
NC(=O)Cn1c(N)c(C(N)=O)c(=O)c2ccc(Sc3ccccc3)cc21

>  <score_type>  (70) 
oracle

>  <origin>  (70) 
adg

>  <m_score__min__energy>  (70) 
-10.83

>  <m_primary>  (70) 
energy

$$$$
70:0
     RDKit          3D

 39 42  0  0  0  0  0  0  0  0999 V2000
   60.9620   28.3490   45.0670 O   0  0  0  0  0  0  0  0  0  0  0  0
   60.0950   28.9500   45.7570 C   0  0  0  0  0  0  0  0  0  0  0  0
   60.4690   30.0920   46.5430 N   0  0  0  0  0  0  0  0  0  0  0  0
   61.8620   30.4850   46.7390 C   0  0  0  0  0  0  0  0  0  0  0  0
   61.9410   31.7100   47.6060 C   0  0  0  0  0  0  0  0  0  0  0  0
   60.9720   32.7400   47.4880 C   0  0  0  0  0  0  0  0  0  0  0  0
   61.0340   33.8770   48.3150 C   0  0  0  0  0  0  0  0  0  0  0  0
   62.0670   33.9480   49.2440 C   0  0  0  0  0  0  0  0  0  0  0  0
   62.9950   32.9650   49.3660 C   0  0  0  0  0  0  0  0  0  0  0  0
   62.9700   31.8250   48.5680 C   0  0  0  0  0  0  0  0  0  0  0  0
   63.8920   33.2990   50.3620 O   0  0  0  0  0  0  0  0  0  0  0  0
   63.5040   34.5710   50.8990 C   0  0  0  0  0  0  0  0  0  0  0  0
   62.3360   34.9500   50.1570 O   0  0  0  0  0  0  0  0  0  0  0  0
   58.6920   28.4900   45.7080 C   0  0  0  0  0  0  0  0  0  0  0  0
   58.3340   27.2020   46.1060 C   0  0  0  0  0  0  0  0  0  0  0  0
   56.6850   26.9890   45.8520 S   0  0  0  0  0  0  0  0  0  0  0  0
   56.4060   28.5290   45.2550 C   0  0  0  0  0  0  0  0  0  0  0  0
   55.1600   29.0100   44.8740 O   0  0  0  0  0  0  0  0  0  0  0  0
   57.5950   29.2540   45.2370 C   0  0  0  0  0  0  0  0  0  0  0  0
   57.6520   30.6820   44.8520 C   0  0  0  0  0  0  0  0  0  0  0  0
   57.7440   31.6810   45.8370 C   0  0  0  0  0  0  0  0  0  0  0  0
   57.8030   33.0290   45.4690 C   0  0  0  0  0  0  0  0  0  0  0  0
   57.7630   33.3900   44.1200 C   0  0  0  0  0  0  0  0  0  0  0  0
   57.6620   32.4030   43.1350 C   0  0  0  0  0  0  0  0  0  0  0  0
   57.6040   31.0550   43.4970 C   0  0  0  0  0  0  0  0  0  0  0  0
   59.7260   30.6910   46.9670 H   0  0  0  0  0  0  0  0  0  0  0  0
   62.4067   29.6615   47.2239 H   0  0  0  0  0  0  0  0  0  0  0  0
   62.3117   30.7094   45.7605 H   0  0  0  0  0  0  0  0  0  0  0  0
   60.1664   32.6490   46.7446 H   0  0  0  0  0  0  0  0  0  0  0  0
   60.2902   34.6829   48.2296 H   0  0  0  0  0  0  0  0  0  0  0  0
   63.7287   31.0368   48.6826 H   0  0  0  0  0  0  0  0  0  0  0  0
   63.2692   34.4825   51.9700 H   0  0  0  0  0  0  0  0  0  0  0  0
   64.3074   35.3173   50.8119 H   0  0  0  0  0  0  0  0  0  0  0  0
   59.0194   26.4474   46.5193 H   0  0  0  0  0  0  0  0  0  0  0  0
   57.7697   31.4015   46.9006 H   0  0  0  0  0  0  0  0  0  0  0  0
   57.8811   33.8065   46.2432 H   0  0  0  0  0  0  0  0  0  0  0  0
   57.8110   34.4508   43.8328 H   0  0  0  0  0  0  0  0  0  0  0  0
   57.6281   32.6883   42.0732 H   0  0  0  0  0  0  0  0  0  0  0  0
   57.5204   30.2821   42.7188 H   0  0  0  0  0  0  0  0  0  0  0  0
  1  2  2  0
  2  3  1  0
  3  4  1  0
  4  5  1  0
  5  6  2  0
  6  7  1  0
  7  8  2  0
  8  9  1  0
  9 10  2  0
  9 11  1  0
 11 12  1  0
 12 13  1  0
  2 14  1  0
 14 15  2  0
 15 16  1  0
 16 17  1  0
 17 18  1  0
 17 19  2  0
 19 20  1  0
 20 21  2  0
 21 22  1  0
 22 23  2  0
 23 24  1  0
 24 25  2  0
 10  5  1  0
 19 14  1  0
 25 20  1  0
 13  8  1  0
  3 26  1  0
  4 27  1  0
  4 28  1  0
  6 29  1  0
  7 30  1  0
 10 31  1  0
 12 32  1  0
 12 33  1  0
 15 34  1  0
 21 35  1  0
 22 36  1  0
 23 37  1  0
 24 38  1  0
 25 39  1  0
M  CHG  1  18  -1
M  END
>  <UniqueID>  (71) 
64

>  <SMILES>  (71) 
O=C(NCc1ccc2c(c1)OCO2)c1csc([O-])c1-c1ccccc1

>  <Energy>  (71) 
103.84994724071137

>  <Genealogy>  (71) 
O=C(NCc1ccc2c(c1)OCO2)c1csc([O-])c1-c1ccccc1 (protonated)
O=C(NCc1ccc2c(c1)OCO2)c1csc([O-])c1-c1ccccc1 (3D coordinates assigned)
O=C(NCc1ccc2c(c1)OCO2)c1csc([O-])c1-c1ccccc1 (nonaromatic ring conformer: 103.84994724071137 kcal/mol)

>  <smiles>  (71) 
O=C(NCc1ccc2c(c1)OCO2)c1csc(O)c1-c1ccccc1

>  <score_type>  (71) 
oracle

>  <origin>  (71) 
adg

>  <m_score__min__energy>  (71) 
-10.42

>  <m_primary>  (71) 
energy

$$$$
71:0
     RDKit          3D

 42 44  0  0  0  0  0  0  0  0999 V2000
   55.4450   26.6870   45.9970 N   0  0  0  0  0  0  0  0  0  0  0  0
   56.7610   27.2180   45.8550 C   0  0  0  0  0  0  0  0  0  0  0  0
   57.7460   26.4390   45.9610 O   0  0  0  0  0  0  0  0  0  0  0  0
   56.9630   28.6700   45.5850 C   0  0  0  0  0  0  0  0  0  0  0  0
   56.0610   29.3520   44.7490 C   0  0  0  0  0  0  0  0  0  0  0  0
   56.2220   30.6740   44.4870 N   0  0  0  0  0  0  0  0  0  0  0  0
   57.2470   31.3930   45.0100 C   0  0  0  0  0  0  0  0  0  0  0  0
   57.3670   32.7520   44.7080 C   0  0  0  0  0  0  0  0  0  0  0  0
   58.4180   33.5000   45.2410 C   0  0  0  0  0  0  0  0  0  0  0  0
   59.3620   32.9010   46.0830 C   0  0  0  0  0  0  0  0  0  0  0  0
   60.4220   33.7130   46.6060 N   0  0  0  0  0  0  0  0  0  0  0  0
   61.6730   33.1630   47.6730 S   0  0  0  0  0  0  0  0  0  0  0  0
   62.4020   34.3550   48.2300 O   0  0  0  0  0  0  0  0  0  0  0  0
   62.6470   32.2900   46.9330 O   0  0  0  0  0  0  0  0  0  0  0  0
   60.9380   32.2310   48.9860 C   0  0  0  0  0  0  0  0  0  0  0  0
   60.4280   32.9200   50.0970 C   0  0  0  0  0  0  0  0  0  0  0  0
   59.8640   32.2290   51.1650 C   0  0  0  0  0  0  0  0  0  0  0  0
   59.7850   30.8390   51.1360 C   0  0  0  0  0  0  0  0  0  0  0  0
   60.2670   30.1200   50.0330 C   0  0  0  0  0  0  0  0  0  0  0  0
   60.1000   28.6480   50.0320 C   0  0  0  0  0  0  0  0  0  0  0  0
   60.4240   27.8990   51.2080 N   0  0  0  0  0  0  0  0  0  0  0  0
   59.6080   28.0410   48.9940 N   0  0  0  0  0  0  0  0  0  0  0  0
   60.8710   30.8120   48.9500 C   0  0  0  0  0  0  0  0  0  0  0  0
   61.4500   30.0780   47.8580 N   0  0  0  0  0  0  0  0  0  0  0  0
   59.2460   31.5320   46.3890 C   0  0  0  0  0  0  0  0  0  0  0  0
   58.1880   30.7700   45.8570 C   0  0  0  0  0  0  0  0  0  0  0  0
   58.0420   29.3960   46.1430 C   0  0  0  0  0  0  0  0  0  0  0  0
   58.8740   28.8210   46.8970 O   0  0  0  0  0  0  0  0  0  0  0  0
   54.7910   27.0580   46.7230 H   0  0  0  0  0  0  0  0  0  0  0  0
   55.2156   28.8080   44.3025 H   0  0  0  0  0  0  0  0  0  0  0  0
   56.6307   33.2340   44.0480 H   0  0  0  0  0  0  0  0  0  0  0  0
   58.5051   34.5691   44.9973 H   0  0  0  0  0  0  0  0  0  0  0  0
   60.4746   34.0187   50.1239 H   0  0  0  0  0  0  0  0  0  0  0  0
   59.4795   32.7822   52.0345 H   0  0  0  0  0  0  0  0  0  0  0  0
   59.3405   30.3004   51.9859 H   0  0  0  0  0  0  0  0  0  0  0  0
   60.2790   26.8650   51.2420 H   0  0  0  0  0  0  0  0  0  0  0  0
   60.8300   28.3720   52.0450 H   0  0  0  0  0  0  0  0  0  0  0  0
   60.2340   27.6640   48.2470 H   0  0  0  0  0  0  0  0  0  0  0  0
   58.5780   27.9000   48.8860 H   0  0  0  0  0  0  0  0  0  0  0  0
   62.4030   30.3010   47.4970 H   0  0  0  0  0  0  0  0  0  0  0  0
   60.9340   29.3270   47.3530 H   0  0  0  0  0  0  0  0  0  0  0  0
   59.9863   31.0545   47.0477 H   0  0  0  0  0  0  0  0  0  0  0  0
  1  2  1  0
  2  3  2  0
  2  4  1  0
  4  5  2  0
  5  6  1  0
  6  7  1  0
  7  8  2  0
  8  9  1  0
  9 10  2  0
 10 11  1  0
 11 12  1  0
 12 13  2  0
 12 14  2  0
 12 15  1  0
 15 16  2  0
 16 17  1  0
 17 18  2  0
 18 19  1  0
 19 20  1  0
 20 21  1  0
 20 22  2  0
 19 23  2  0
 23 24  1  0
 10 25  1  0
 25 26  2  0
 26 27  1  0
 27 28  2  0
 27  4  1  0
 26  7  1  0
 23 15  1  0
  1 29  1  0
  5 30  1  0
  8 31  1  0
  9 32  1  0
 16 33  1  0
 17 34  1  0
 18 35  1  0
 21 36  1  0
 21 37  1  0
 22 38  1  0
 22 39  1  0
 24 40  1  0
 24 41  1  0
 25 42  1  0
M  CHG  4   1  -1   6  -1  11  -1  22   1
M  END
>  <UniqueID>  (72) 
65

>  <SMILES>  (72) 
[NH-]C(=O)c1c[n-]c2ccc([N-]S(=O)(=O)c3cccc(C(N)=[NH2+])c3N)cc2c1=O

>  <Energy>  (72) 
63.03183777653475

>  <Genealogy>  (72) 
[NH-]C(=O)c1c[n-]c2ccc([N-]S(=O)(=O)c3cccc(C(N)=[NH2+])c3N)cc2c1=O (protonated)
[NH-]C(=O)c1c[n-]c2ccc([N-]S(=O)(=O)c3cccc(C(N)=[NH2+])c3N)cc2c1=O (3D coordinates assigned)
[NH-]C(=O)c1c[n-]c2ccc([N-]S(=O)(=O)c3cccc(C(N)=[NH2+])c3N)cc2c1=O (optimized conformer: 63.03183777653475 kcal/mol)

>  <smiles>  (72) 
N=C(N)c1cccc(S(=O)(=O)Nc2ccc3[nH]cc(C(N)=O)c(=O)c3c2)c1N

>  <score_type>  (72) 
oracle

>  <origin>  (72) 
adg

>  <m_score__min__energy>  (72) 
-11.19

>  <m_primary>  (72) 
energy

$$$$
72:0
     RDKit          3D

 64 66  0  0  0  0  0  0  0  0999 V2000
   64.9474   33.1206   50.0638 H   0  0  0  0  0  0  0  0  0  0  0  0
   64.0330   33.4020   49.5210 C   0  0  0  0  0  0  0  0  0  0  0  0
   64.1420   33.7300   48.2640 N   0  0  0  0  0  0  0  0  0  0  0  0
   63.4980   33.0850   47.1560 C   0  0  0  0  0  0  0  0  0  0  0  0
   63.8970   31.9600   46.7490 O   0  0  0  0  0  0  0  0  0  0  0  0
   62.3730   33.7750   46.4550 C   0  0  0  0  0  0  0  0  0  0  0  0
   62.5421   33.7485   45.3684 H   0  0  0  0  0  0  0  0  0  0  0  0
   62.3144   34.8236   46.7820 H   0  0  0  0  0  0  0  0  0  0  0  0
   61.0910   33.0630   46.7850 C   0  0  0  0  0  0  0  0  0  0  0  0
   61.0460   32.1420   47.8440 C   0  0  0  0  0  0  0  0  0  0  0  0
   61.9124   32.0393   48.5140 H   0  0  0  0  0  0  0  0  0  0  0  0
   59.9040   31.3500   48.0560 C   0  0  0  0  0  0  0  0  0  0  0  0
   59.8690   30.3300   49.1310 C   0  0  0  0  0  0  0  0  0  0  0  0
   60.8000   29.4830   49.2080 O   0  0  0  0  0  0  0  0  0  0  0  0
   58.8090   30.3120   50.1030 N   0  0  0  0  0  0  0  0  0  0  0  0
   58.1450   31.1170   50.1560 H   0  0  0  0  0  0  0  0  0  0  0  0
   58.7590   29.3370   51.1900 C   0  0  0  0  0  0  0  0  0  0  0  0
   58.7386   28.3210   50.7688 H   0  0  0  0  0  0  0  0  0  0  0  0
   59.6483   29.4563   51.8264 H   0  0  0  0  0  0  0  0  0  0  0  0
   57.5270   29.5590   52.0140 C   0  0  0  0  0  0  0  0  0  0  0  0
   56.6080   30.4810   51.6120 N   0  0  0  0  0  0  0  0  0  0  0  0
   55.4590   30.6960   52.3070 C   0  0  0  0  0  0  0  0  0  0  0  0
   54.7390   31.4508   51.9579 H   0  0  0  0  0  0  0  0  0  0  0  0
   55.1920   29.9600   53.4630 C   0  0  0  0  0  0  0  0  0  0  0  0
   54.2658   30.1328   54.0308 H   0  0  0  0  0  0  0  0  0  0  0  0
   56.1130   29.0030   53.8900 C   0  0  0  0  0  0  0  0  0  0  0  0
   55.9168   28.4168   54.7999 H   0  0  0  0  0  0  0  0  0  0  0  0
   57.2830   28.7910   53.1610 C   0  0  0  0  0  0  0  0  0  0  0  0
   58.0074   28.0284   53.4831 H   0  0  0  0  0  0  0  0  0  0  0  0
   58.7930   31.5140   47.2110 C   0  0  0  0  0  0  0  0  0  0  0  0
   57.8826   30.9223   47.3872 H   0  0  0  0  0  0  0  0  0  0  0  0
   58.8340   32.4250   46.1450 C   0  0  0  0  0  0  0  0  0  0  0  0
   57.7330   32.5220   45.2290 N   0  0  0  0  0  0  0  0  0  0  0  0
   56.7770   33.6210   45.3410 C   0  0  0  0  0  0  0  0  0  0  0  0
   56.5892   33.8368   46.4031 H   0  0  0  0  0  0  0  0  0  0  0  0
   57.1886   34.5163   44.8521 H   0  0  0  0  0  0  0  0  0  0  0  0
   55.8333   33.3374   44.8521 H   0  0  0  0  0  0  0  0  0  0  0  0
   57.3020   31.1220   44.2940 S   0  0  0  0  0  0  0  0  0  0  0  0
   55.9890   30.5690   44.7760 O   0  0  0  0  0  0  0  0  0  0  0  0
   57.1680   31.4900   42.8440 O   0  0  0  0  0  0  0  0  0  0  0  0
   58.5600   29.8790   44.4830 C   0  0  0  0  0  0  0  0  0  0  0  0
   58.7410   29.7002   45.5532 H   0  0  0  0  0  0  0  0  0  0  0  0
   58.2273   28.9451   44.0064 H   0  0  0  0  0  0  0  0  0  0  0  0
   59.4898   30.2229   44.0064 H   0  0  0  0  0  0  0  0  0  0  0  0
   59.9830   33.1960   45.9400 C   0  0  0  0  0  0  0  0  0  0  0  0
   60.0162   33.9136   45.1069 H   0  0  0  0  0  0  0  0  0  0  0  0
   62.7520   33.3860   50.2600 C   0  0  0  0  0  0  0  0  0  0  0  0
   62.6000   32.6350   51.4370 C   0  0  0  0  0  0  0  0  0  0  0  0
   63.4442   32.0420   51.8187 H   0  0  0  0  0  0  0  0  0  0  0  0
   61.3850   32.6350   52.1270 C   0  0  0  0  0  0  0  0  0  0  0  0
   61.2701   32.0223   53.0333 H   0  0  0  0  0  0  0  0  0  0  0  0
   60.3080   33.4150   51.6680 C   0  0  0  0  0  0  0  0  0  0  0  0
   58.9710   33.4040   52.3880 C   0  0  0  0  0  0  0  0  0  0  0  0
   59.0943   32.8295   53.3179 H   0  0  0  0  0  0  0  0  0  0  0  0
   57.9340   32.7370   51.5940 N   0  0  0  0  0  0  0  0  0  0  0  0
   57.0960   32.5810   52.2010 H   0  0  0  0  0  0  0  0  0  0  0  0
   58.2700   31.8010   51.2730 H   0  0  0  0  0  0  0  0  0  0  0  0
   58.5650   34.7690   52.7250 N   0  0  0  0  0  0  0  0  0  0  0  0
   58.5370   35.3480   51.8530 H   0  0  0  0  0  0  0  0  0  0  0  0
   57.5870   34.7340   53.0940 H   0  0  0  0  0  0  0  0  0  0  0  0
   60.4780   34.1950   50.5110 C   0  0  0  0  0  0  0  0  0  0  0  0
   59.6465   34.8153   50.1453 H   0  0  0  0  0  0  0  0  0  0  0  0
   61.6930   34.1900   49.8210 C   0  0  0  0  0  0  0  0  0  0  0  0
   61.8182   34.8208   48.9286 H   0  0  0  0  0  0  0  0  0  0  0  0
  1  2  1  0
  2  3  2  0
  3  4  1  0
  4  5  2  0
  4  6  1  0
  6  7  1  0
  6  8  1  0
  6  9  1  0
  9 10  2  0
 10 11  1  0
 10 12  1  0
 12 13  1  0
 13 14  2  0
 13 15  1  0
 15 16  1  0
 15 17  1  0
 17 18  1  0
 17 19  1  0
 17 20  1  0
 20 21  2  0
 21 22  1  0
 22 23  1  0
 22 24  2  0
 24 25  1  0
 24 26  1  0
 26 27  1  0
 26 28  2  0
 28 29  1  0
 12 30  2  0
 30 31  1  0
 30 32  1  0
 32 33  1  0
 33 34  1  0
 34 35  1  0
 34 36  1  0
 34 37  1  0
 33 38  1  0
 38 39  2  0
 38 40  2  0
 38 41  1  0
 41 42  1  0
 41 43  1  0
 41 44  1  0
 32 45  2  0
 45 46  1  0
  2 47  1  0
 47 48  2  0
 48 49  1  0
 48 50  1  0
 50 51  1  0
 50 52  2  0
 52 53  1  0
 53 54  1  0
 53 55  1  0
 55 56  1  0
 55 57  1  0
 53 58  1  0
 58 59  1  0
 58 60  1  0
 52 61  1  0
 61 62  1  0
 61 63  2  0
 63 64  1  0
 45  9  1  0
 63 47  1  0
 28 20  1  0
M  END
>  <UniqueID>  (73) 
66

>  <SMILES>  (73) 
CN(c1cc(CC(=O)/N=C\c2ccc(C(N)N)cc2)cc(C(=O)NCc2ccccn2)c1)S(C)(=O)=O

>  <Energy>  (73) 
69.95409197221257

>  <Genealogy>  (73) 
CN(c1cc(CC(=O)/N=C\c2ccc(C(N)N)cc2)cc(C(=O)NCc2ccccn2)c1)S(C)(=O)=O (cis-trans isomerization)
CN(c1cc(CC(=O)/N=C\c2ccc(C(N)N)cc2)cc(C(=O)NCc2ccccn2)c1)S(C)(=O)=O (3D coordinates assigned)
CN(c1cc(CC(=O)/N=C\c2ccc(C(N)N)cc2)cc(C(=O)NCc2ccccn2)c1)S(C)(=O)=O (optimized conformer: 69.95409197221257 kcal/mol)

>  <smiles>  (73) 
CN(c1cc(CC(=O)N=Cc2ccc(C(N)N)cc2)cc(C(=O)NCc2ccccn2)c1)S(C)(=O)=O

>  <score_type>  (73) 
oracle

>  <origin>  (73) 
adg

>  <m_score__min__energy>  (73) 
-9.4000000000000004

>  <m_primary>  (73) 
energy

$$$$
73:0
     RDKit          3D

 49 51  0  0  0  0  0  0  0  0999 V2000
   55.1230   28.9598   44.6484 H   0  0  0  0  0  0  0  0  0  0  0  0
   56.0970   29.4610   44.7490 C   0  0  0  0  0  0  0  0  0  0  0  0
   56.2060   30.7890   44.4810 N   0  0  0  0  0  0  0  0  0  0  0  0
   57.3880   31.4580   44.5810 C   0  0  0  0  0  0  0  0  0  0  0  0
   57.4020   32.7340   44.3140 N   0  0  0  0  0  0  0  0  0  0  0  0
   57.2800   33.8420   45.2640 C   0  0  0  0  0  0  0  0  0  0  0  0
   57.4507   34.7912   44.7350 H   0  0  0  0  0  0  0  0  0  0  0  0
   56.2703   33.8233   45.7001 H   0  0  0  0  0  0  0  0  0  0  0  0
   58.2890   33.7070   46.3750 C   0  0  0  0  0  0  0  0  0  0  0  0
   59.5570   34.2930   46.2480 C   0  0  0  0  0  0  0  0  0  0  0  0
   59.8150   34.8466   45.3332 H   0  0  0  0  0  0  0  0  0  0  0  0
   60.4930   34.1770   47.2770 C   0  0  0  0  0  0  0  0  0  0  0  0
   61.4816   34.6485   47.1748 H   0  0  0  0  0  0  0  0  0  0  0  0
   60.1780   33.4640   48.4360 C   0  0  0  0  0  0  0  0  0  0  0  0
   60.9138   33.3895   49.2503 H   0  0  0  0  0  0  0  0  0  0  0  0
   58.9240   32.8410   48.5660 C   0  0  0  0  0  0  0  0  0  0  0  0
   58.5640   32.1250   49.7590 N   0  0  0  0  0  0  0  0  0  0  0  0
   58.3500   31.1100   49.6510 H   0  0  0  0  0  0  0  0  0  0  0  0
   58.5560   32.7130   51.0750 C   0  0  0  0  0  0  0  0  0  0  0  0
   58.9890   33.8850   51.2400 O   0  0  0  0  0  0  0  0  0  0  0  0
   58.0590   31.9600   52.2520 C   0  0  0  0  0  0  0  0  0  0  0  0
   57.0630   30.9810   52.0800 C   0  0  0  0  0  0  0  0  0  0  0  0
   56.6661   30.7766   51.0747 H   0  0  0  0  0  0  0  0  0  0  0  0
   56.5740   30.2660   53.1780 C   0  0  0  0  0  0  0  0  0  0  0  0
   55.7998   29.4984   53.0320 H   0  0  0  0  0  0  0  0  0  0  0  0
   57.0660   30.5240   54.4590 C   0  0  0  0  0  0  0  0  0  0  0  0
   56.5880   29.8320   55.5230 F   0  0  0  0  0  0  0  0  0  0  0  0
   58.0450   31.5030   54.6440 C   0  0  0  0  0  0  0  0  0  0  0  0
   58.4294   31.7099   55.6537 H   0  0  0  0  0  0  0  0  0  0  0  0
   58.5380   32.2210   53.5500 C   0  0  0  0  0  0  0  0  0  0  0  0
   59.3047   32.9945   53.7045 H   0  0  0  0  0  0  0  0  0  0  0  0
   57.9800   32.9800   47.5370 C   0  0  0  0  0  0  0  0  0  0  0  0
   56.9884   32.5153   47.6411 H   0  0  0  0  0  0  0  0  0  0  0  0
   58.5440   30.7490   44.9610 C   0  0  0  0  0  0  0  0  0  0  0  0
   59.5117   31.2666   45.0358 H   0  0  0  0  0  0  0  0  0  0  0  0
   58.4530   29.3850   45.2420 C   0  0  0  0  0  0  0  0  0  0  0  0
   59.3531   28.8245   45.5345 H   0  0  0  0  0  0  0  0  0  0  0  0
   57.2210   28.7280   45.1530 C   0  0  0  0  0  0  0  0  0  0  0  0
   57.1210   27.2540   45.4150 C   0  0  0  0  0  0  0  0  0  0  0  0
   57.9147   26.9495   46.1131 H   0  0  0  0  0  0  0  0  0  0  0  0
   57.2367   26.7016   44.4708 H   0  0  0  0  0  0  0  0  0  0  0  0
   55.8160   26.9590   46.0000 N   0  0  0  0  0  0  0  0  0  0  0  0
   55.5180   25.2480   45.9640 S   0  0  0  0  0  0  0  0  0  0  0  0
   55.8990   24.6310   47.2800 O   0  0  0  0  0  0  0  0  0  0  0  0
   54.0530   25.0170   45.7210 O   0  0  0  0  0  0  0  0  0  0  0  0
   56.4440   24.4750   44.6520 C   0  0  0  0  0  0  0  0  0  0  0  0
   57.2206   23.8267   45.0840 H   0  0  0  0  0  0  0  0  0  0  0  0
   55.7659   23.8711   44.0311 H   0  0  0  0  0  0  0  0  0  0  0  0
   56.9170   25.2501   44.0311 H   0  0  0  0  0  0  0  0  0  0  0  0
  1  2  1  0
  2  3  1  0
  3  4  1  0
  4  5  2  0
  5  6  1  0
  6  7  1  0
  6  8  1  0
  6  9  1  0
  9 10  2  0
 10 11  1  0
 10 12  1  0
 12 13  1  0
 12 14  2  0
 14 15  1  0
 14 16  1  0
 16 17  1  0
 17 18  1  0
 17 19  1  0
 19 20  2  0
 19 21  1  0
 21 22  2  0
 22 23  1  0
 22 24  1  0
 24 25  1  0
 24 26  2  0
 26 27  1  0
 26 28  1  0
 28 29  1  0
 28 30  2  0
 30 31  1  0
 16 32  2  0
 32 33  1  0
  4 34  1  0
 34 35  1  0
 34 36  2  0
 36 37  1  0
 36 38  1  0
 38 39  1  0
 39 40  1  0
 39 41  1  0
 39 42  1  0
 42 43  1  0
 43 44  2  0
 43 45  2  0
 43 46  1  0
 46 47  1  0
 46 48  1  0
 46 49  1  0
 38  2  2  0
 32  9  1  0
 30 21  1  0
M  CHG  2   3  -1  42  -1
M  END
>  <UniqueID>  (74) 
67

>  <SMILES>  (74) 
CS(=O)(=O)[N-]Cc1cc/c(=N\Cc2cccc(NC(=O)c3ccc(F)cc3)c2)[n-]c1

>  <Energy>  (74) 
53.881092359139345

>  <Genealogy>  (74) 
CS(=O)(=O)[N-]Cc1ccc(=NCc2cccc(NC(=O)c3ccc(F)cc3)c2)[n-]c1 (protonated)
CS(=O)(=O)[N-]Cc1cc/c(=N\Cc2cccc(NC(=O)c3ccc(F)cc3)c2)[n-]c1 (cis-trans isomerization)
CS(=O)(=O)[N-]Cc1cc/c(=N\Cc2cccc(NC(=O)c3ccc(F)cc3)c2)[n-]c1 (3D coordinates assigned)
CS(=O)(=O)[N-]Cc1cc/c(=N\Cc2cccc(NC(=O)c3ccc(F)cc3)c2)[n-]c1 (optimized conformer: 53.881092359139345 kcal/mol)

>  <smiles>  (74) 
CS(=O)(=O)NCc1ccc(=NCc2cccc(NC(=O)c3ccc(F)cc3)c2)[nH]c1

>  <score_type>  (74) 
oracle

>  <origin>  (74) 
adg

>  <m_score__min__energy>  (74) 
-12.529999999999999

>  <m_primary>  (74) 
energy

$$$$
74:0
     RDKit          3D

 28 29  0  0  0  0  0  0  0  0999 V2000
   56.4240   33.8560   45.1230 H   0  0  0  0  0  0  0  0  0  0  0  0
   57.0940   34.3540   44.4940 N   0  0  0  0  0  0  0  0  0  0  0  0
   58.3690   33.2440   44.1350 S   0  0  0  0  0  0  0  0  0  0  0  0
   58.5020   33.0960   42.6460 O   0  0  0  0  0  0  0  0  0  0  0  0
   59.6620   33.7750   44.6860 O   0  0  0  0  0  0  0  0  0  0  0  0
   58.0080   31.6810   44.8610 C   0  0  0  0  0  0  0  0  0  0  0  0
   58.8840   31.1230   45.7990 C   0  0  0  0  0  0  0  0  0  0  0  0
   59.7954   31.6664   46.0889 H   0  0  0  0  0  0  0  0  0  0  0  0
   58.6050   29.8790   46.3680 C   0  0  0  0  0  0  0  0  0  0  0  0
   59.2872   29.4580   47.1213 H   0  0  0  0  0  0  0  0  0  0  0  0
   57.4600   29.1610   45.9860 C   0  0  0  0  0  0  0  0  0  0  0  0
   57.1440   27.9070   46.6120 N   0  0  0  0  0  0  0  0  0  0  0  0
   57.2050   26.7150   46.0810 C   0  0  0  0  0  0  0  0  0  0  0  0
   58.4280   26.0760   45.7880 C   0  0  0  0  0  0  0  0  0  0  0  0
   59.3817   26.5750   46.0150 H   0  0  0  0  0  0  0  0  0  0  0  0
   58.4200   24.8060   45.2080 C   0  0  0  0  0  0  0  0  0  0  0  0
   59.3706   24.2986   44.9868 H   0  0  0  0  0  0  0  0  0  0  0  0
   57.2430   24.1950   44.9160 N   0  0  0  0  0  0  0  0  0  0  0  0
   56.0490   24.7910   45.1710 C   0  0  0  0  0  0  0  0  0  0  0  0
   55.1121   24.2720   44.9200 H   0  0  0  0  0  0  0  0  0  0  0  0
   56.0080   26.0610   45.7510 C   0  0  0  0  0  0  0  0  0  0  0  0
   54.7790   26.6630   46.0010 O   0  0  0  0  0  0  0  0  0  0  0  0
   56.5620   29.7310   45.0600 C   0  0  0  0  0  0  0  0  0  0  0  0
   55.3660   29.0420   44.6770 N   0  0  0  0  0  0  0  0  0  0  0  0
   55.1560   28.0780   45.0190 H   0  0  0  0  0  0  0  0  0  0  0  0
   54.6740   29.4930   44.0370 H   0  0  0  0  0  0  0  0  0  0  0  0
   56.8510   30.9830   44.4940 C   0  0  0  0  0  0  0  0  0  0  0  0
   56.1623   31.4194   43.7556 H   0  0  0  0  0  0  0  0  0  0  0  0
  1  2  1  0
  2  3  1  0
  3  4  2  0
  3  5  2  0
  3  6  1  0
  6  7  2  0
  7  8  1  0
  7  9  1  0
  9 10  1  0
  9 11  2  0
 11 12  1  0
 12 13  2  0
 13 14  1  0
 14 15  1  0
 14 16  2  0
 16 17  1  0
 16 18  1  0
 18 19  1  0
 19 20  1  0
 19 21  2  0
 21 22  1  0
 11 23  1  0
 23 24  1  0
 24 25  1  0
 24 26  1  0
 23 27  2  0
 27 28  1  0
 27  6  1  0
 21 13  1  0
M  CHG  3   2  -1  18  -1  22  -1
M  END
>  <UniqueID>  (75) 
68

>  <SMILES>  (75) 
[NH-]S(=O)(=O)c1ccc(/N=c2\cc[n-]cc2[O-])c(N)c1

>  <Energy>  (75) 
39.26322252562552

>  <Genealogy>  (75) 
[NH-]S(=O)(=O)c1ccc(N=c2cc[n-]cc2[O-])c(N)c1 (protonated)
[NH-]S(=O)(=O)c1ccc(/N=c2\cc[n-]cc2[O-])c(N)c1 (cis-trans isomerization)
[NH-]S(=O)(=O)c1ccc(/N=c2\cc[n-]cc2[O-])c(N)c1 (3D coordinates assigned)
[NH-]S(=O)(=O)c1ccc(/N=c2\cc[n-]cc2[O-])c(N)c1 (optimized conformer: 39.26322252562552 kcal/mol)

>  <smiles>  (75) 
Nc1cc(S(N)(=O)=O)ccc1N=c1cc[nH]cc1O

>  <score_type>  (75) 
oracle

>  <origin>  (75) 
adg

>  <m_score__min__energy>  (75) 
-12.640000000000001

>  <m_primary>  (75) 
energy

$$$$
75:0
     RDKit          3D

 48 50  0  0  0  0  0  0  0  0999 V2000
   59.6550   33.6300   48.3650 C   0  0  0  0  0  0  0  0  0  0  0  0
   58.8190   33.2170   47.1810 C   0  0  0  0  0  0  0  0  0  0  0  0
   57.8610   34.1140   46.6820 C   0  0  0  0  0  0  0  0  0  0  0  0
   57.0640   33.7670   45.5950 C   0  0  0  0  0  0  0  0  0  0  0  0
   57.1960   32.5150   45.0010 C   0  0  0  0  0  0  0  0  0  0  0  0
   58.1320   31.5850   45.4890 C   0  0  0  0  0  0  0  0  0  0  0  0
   58.2470   30.2750   44.9080 N   0  0  0  0  0  0  0  0  0  0  0  0
   56.9860   29.0860   44.8140 S   0  0  0  0  0  0  0  0  0  0  0  0
   55.6520   29.6940   45.1440 O   0  0  0  0  0  0  0  0  0  0  0  0
   56.9170   28.5750   43.4010 O   0  0  0  0  0  0  0  0  0  0  0  0
   57.3470   27.7590   45.9270 C   0  0  0  0  0  0  0  0  0  0  0  0
   58.6210   27.6960   46.5100 C   0  0  0  0  0  0  0  0  0  0  0  0
   58.9620   26.6510   47.3860 C   0  0  0  0  0  0  0  0  0  0  0  0
   60.2750   26.5310   47.9500 N   0  0  0  0  0  0  0  0  0  0  0  0
   60.6450   26.8360   49.2990 C   0  0  0  0  0  0  0  0  0  0  0  0
   60.4430   25.9770   50.1960 O   0  0  0  0  0  0  0  0  0  0  0  0
   61.1430   28.1360   49.6410 N   0  0  0  0  0  0  0  0  0  0  0  0
   60.3730   29.2230   50.1710 C   0  0  0  0  0  0  0  0  0  0  0  0
   60.9390   30.1860   51.0240 C   0  0  0  0  0  0  0  0  0  0  0  0
   60.1700   31.2550   51.4890 C   0  0  0  0  0  0  0  0  0  0  0  0
   58.8210   31.3850   51.1100 C   0  0  0  0  0  0  0  0  0  0  0  0
   58.0270   32.4780   51.6050 N   0  0  0  0  0  0  0  0  0  0  0  0
   56.8580   32.2880   51.9990 O   0  0  0  0  0  0  0  0  0  0  0  0
   58.5450   33.7520   51.6560 O   0  0  0  0  0  0  0  0  0  0  0  0
   58.2680   30.4320   50.2370 C   0  0  0  0  0  0  0  0  0  0  0  0
   59.0420   29.3670   49.7650 C   0  0  0  0  0  0  0  0  0  0  0  0
   58.0210   25.6520   47.6530 C   0  0  0  0  0  0  0  0  0  0  0  0
   56.7510   25.7020   47.0750 C   0  0  0  0  0  0  0  0  0  0  0  0
   56.4100   26.7460   46.2090 C   0  0  0  0  0  0  0  0  0  0  0  0
   55.1460   26.7570   45.6320 O   0  0  0  0  0  0  0  0  0  0  0  0
   58.9860   31.9520   46.5570 C   0  0  0  0  0  0  0  0  0  0  0  0
   59.9950   30.9600   47.0880 C   0  0  0  0  0  0  0  0  0  0  0  0
   59.1279   33.3696   49.2947 H   0  0  0  0  0  0  0  0  0  0  0  0
   60.6214   33.1057   48.3322 H   0  0  0  0  0  0  0  0  0  0  0  0
   59.8258   34.7162   48.3322 H   0  0  0  0  0  0  0  0  0  0  0  0
   57.7393   35.0999   47.1544 H   0  0  0  0  0  0  0  0  0  0  0  0
   56.3274   34.4844   45.2041 H   0  0  0  0  0  0  0  0  0  0  0  0
   56.5623   32.2503   44.1417 H   0  0  0  0  0  0  0  0  0  0  0  0
   59.3630   28.4745   46.2787 H   0  0  0  0  0  0  0  0  0  0  0  0
   61.9928   30.0973   51.3268 H   0  0  0  0  0  0  0  0  0  0  0  0
   60.6228   32.0021   52.1575 H   0  0  0  0  0  0  0  0  0  0  0  0
   57.2180   30.5247   49.9225 H   0  0  0  0  0  0  0  0  0  0  0  0
   58.6011   28.6375   49.0697 H   0  0  0  0  0  0  0  0  0  0  0  0
   58.2832   24.8203   48.3235 H   0  0  0  0  0  0  0  0  0  0  0  0
   56.0151   24.9165   47.3018 H   0  0  0  0  0  0  0  0  0  0  0  0
   59.9800   30.9748   48.1878 H   0  0  0  0  0  0  0  0  0  0  0  0
   59.7400   29.9511   46.7313 H   0  0  0  0  0  0  0  0  0  0  0  0
   60.9994   31.2321   46.7313 H   0  0  0  0  0  0  0  0  0  0  0  0
  1  2  1  0
  2  3  2  0
  3  4  1  0
  4  5  2  0
  5  6  1  0
  6  7  1  0
  7  8  1  0
  8  9  2  0
  8 10  2  0
  8 11  1  0
 11 12  2  0
 12 13  1  0
 13 14  1  0
 14 15  1  0
 15 16  2  0
 15 17  1  0
 17 18  1  0
 18 19  2  0
 19 20  1  0
 20 21  2  0
 21 22  1  0
 22 23  2  0
 22 24  1  0
 21 25  1  0
 25 26  2  0
 13 27  2  0
 27 28  1  0
 28 29  2  0
 29 30  1  0
  6 31  2  0
 31 32  1  0
 31  2  1  0
 29 11  1  0
 26 18  1  0
  1 33  1  0
  1 34  1  0
  1 35  1  0
  3 36  1  0
  4 37  1  0
  5 38  1  0
 12 39  1  0
 19 40  1  0
 20 41  1  0
 25 42  1  0
 26 43  1  0
 27 44  1  0
 28 45  1  0
 32 46  1  0
 32 47  1  0
 32 48  1  0
M  CHG  6   7  -1  14  -1  17  -1  22   1  24  -1  30  -1
M  END
>  <UniqueID>  (76) 
69

>  <SMILES>  (76) 
Cc1cccc([N-]S(=O)(=O)c2cc([N-]C(=O)[N-]c3ccc([N+](=O)[O-])cc3)ccc2[O-])c1C

>  <Energy>  (76) 
65.83193362151317

>  <Genealogy>  (76) 
Cc1cccc([N-]S(=O)(=O)c2cc([N-]C(=O)[N-]c3ccc([N+](=O)[O-])cc3)ccc2[O-])c1C (protonated)
Cc1cccc([N-]S(=O)(=O)c2cc([N-]C(=O)[N-]c3ccc([N+](=O)[O-])cc3)ccc2[O-])c1C (3D coordinates assigned)
Cc1cccc([N-]S(=O)(=O)c2cc([N-]C(=O)[N-]c3ccc([N+](=O)[O-])cc3)ccc2[O-])c1C (optimized conformer: 65.83193362151317 kcal/mol)

>  <smiles>  (76) 
Cc1cccc(NS(=O)(=O)c2cc(NC(=O)Nc3ccc([N+](=O)[O-])cc3)ccc2O)c1C

>  <score_type>  (76) 
oracle

>  <origin>  (76) 
adg

>  <m_score__min__energy>  (76) 
-15.869999999999999

>  <m_primary>  (76) 
energy

$$$$
76:0
     RDKit          3D

 44 46  0  0  1  0  0  0  0  0999 V2000
   54.1020   24.1140   45.5560 C   0  0  0  0  0  0  0  0  0  0  0  0
   55.3720   23.9140   46.3630 C   0  0  0  0  0  0  0  0  0  0  0  0
   56.3480   24.8690   46.0160 N   0  0  0  0  0  0  0  0  0  0  0  0
   56.7790   24.9400   44.7050 C   0  0  0  0  0  0  0  0  0  0  0  0
   57.7550   25.9870   44.3320 C   0  0  0  0  0  0  0  0  0  0  0  0
   57.5790   27.0760   45.3080 N   0  0  0  0  0  0  0  0  0  0  0  0
   57.1930   28.3810   44.9060 C   0  0  0  0  0  0  0  0  0  0  0  0
   58.0910   29.3310   44.5480 C   0  0  0  0  0  0  0  0  0  0  0  0
   57.6330   30.5680   44.1560 C   0  0  0  0  0  0  0  0  0  0  0  0
   58.4020   31.5090   43.8020 N   0  0  0  0  0  0  0  0  0  0  0  0
   58.0010   32.8880   43.7110 C   0  0  0  0  0  0  0  0  0  0  0  0
   58.4360   33.4950   45.0340 C   0  0  0  0  0  0  0  0  0  0  0  0
   59.2790   34.5870   45.0180 C   0  0  0  0  0  0  0  0  0  0  0  0
   59.6460   35.1170   46.2430 C   0  0  0  0  0  0  0  0  0  0  0  0
   59.1830   34.5710   47.4360 C   0  0  0  0  0  0  0  0  0  0  0  0
   58.3280   33.4620   47.4030 C   0  0  0  0  0  0  0  0  0  0  0  0
   57.9720   32.9480   46.1840 N   0  0  0  0  0  0  0  0  0  0  0  0
   56.2670   30.8130   44.1410 C   0  0  0  0  0  0  0  0  0  0  0  0
   55.4070   29.8530   44.5030 N   0  0  0  0  0  0  0  0  0  0  0  0
   55.8570   28.6710   44.8740 N   0  0  0  0  0  0  0  0  0  0  0  0
   57.8330   26.7120   46.6940 C   0  0  0  0  0  0  0  0  0  0  0  0
   56.9110   25.6150   47.0620 C   0  0  0  0  0  0  0  0  0  0  0  0
   53.2506   24.2481   46.2395 H   0  0  0  0  0  0  0  0  0  0  0  0
   54.2073   25.0066   44.9219 H   0  0  0  0  0  0  0  0  0  0  0  0
   53.9278   23.2322   44.9219 H   0  0  0  0  0  0  0  0  0  0  0  0
   55.1372   24.0125   47.4331 H   0  0  0  0  0  0  0  0  0  0  0  0
   55.7703   22.9119   46.1458 H   0  0  0  0  0  0  0  0  0  0  0  0
   57.2369   23.9698   44.4621 H   0  0  0  0  0  0  0  0  0  0  0  0
   55.8732   25.2074   44.1411 H   0  0  0  0  0  0  0  0  0  0  0  0
   58.7795   25.5898   44.3839 H   0  0  0  0  0  0  0  0  0  0  0  0
   57.5924   26.3396   43.3028 H   0  0  0  0  0  0  0  0  0  0  0  0
   59.1696   29.1164   44.5705 H   0  0  0  0  0  0  0  0  0  0  0  0
   58.5055   33.3856   42.8696 H   0  0  0  0  0  0  0  0  0  0  0  0
   56.9214   33.0002   43.5325 H   0  0  0  0  0  0  0  0  0  0  0  0
   59.6434   35.0175   44.0736 H   0  0  0  0  0  0  0  0  0  0  0  0
   60.3175   35.9877   46.2739 H   0  0  0  0  0  0  0  0  0  0  0  0
   59.4865   35.0075   48.3990 H   0  0  0  0  0  0  0  0  0  0  0  0
   57.9511   33.0141   48.3343 H   0  0  0  0  0  0  0  0  0  0  0  0
   55.8899   31.7987   43.8308 H   0  0  0  0  0  0  0  0  0  0  0  0
   55.1480   27.9580   45.1440 H   0  0  0  0  0  0  0  0  0  0  0  0
   58.8744   26.3759   46.8056 H   0  0  0  0  0  0  0  0  0  0  0  0
   57.6707   27.5800   47.3499 H   0  0  0  0  0  0  0  0  0  0  0  0
   57.4682   24.9163   47.7033 H   0  0  0  0  0  0  0  0  0  0  0  0
   56.0573   26.1137   47.5442 H   0  0  0  0  0  0  0  0  0  0  0  0
  1  2  1  0
  2  3  1  0
  3  4  1  0
  4  5  1  0
  5  6  1  0
  6  7  1  0
  7  8  2  0
  8  9  1  0
  9 10  2  0
 10 11  1  0
 11 12  1  0
 12 13  2  0
 13 14  1  0
 14 15  2  0
 15 16  1  0
 16 17  2  0
  9 18  1  0
 18 19  2  0
 19 20  1  0
  6 21  1  0
 21 22  1  0
 22  3  1  0
 20  7  1  0
 17 12  1  0
  1 23  1  0
  1 24  1  0
  1 25  1  0
  2 26  1  0
  2 27  1  0
  4 28  1  0
  4 29  1  0
  5 30  1  0
  5 31  1  0
  8 32  1  0
 11 33  1  0
 11 34  1  0
 13 35  1  0
 14 36  1  0
 15 37  1  0
 16 38  1  0
 18 39  1  0
 20 40  1  0
 21 41  1  0
 21 42  1  0
 22 43  1  0
 22 44  1  0
M  END
>  <smiles>  (77) 
CCN1CCN(c2cc(=NCc3ccccn3)cn[nH]2)CC1

>  <score_type>  (77) 
oracle

>  <origin>  (77) 
adg

>  <m_score__min__energy>  (77) 
-7.7000000000000002

>  <m_primary>  (77) 
energy

$$$$
77:0
     RDKit          3D

 46 49  0  0  0  0  0  0  0  0999 V2000
   60.5020   30.0330   48.4400 O   0  0  0  0  0  0  0  0  0  0  0  0
   60.7510   30.6070   47.3470 C   0  0  0  0  0  0  0  0  0  0  0  0
   60.1610   30.0820   46.1500 N   0  0  0  0  0  0  0  0  0  0  0  0
   59.1820   29.0370   46.0590 C   0  0  0  0  0  0  0  0  0  0  0  0
   58.0050   29.1860   45.3040 C   0  0  0  0  0  0  0  0  0  0  0  0
   57.0560   28.1610   45.2730 C   0  0  0  0  0  0  0  0  0  0  0  0
   57.2830   26.9690   45.9720 C   0  0  0  0  0  0  0  0  0  0  0  0
   56.0790   25.6840   45.9380 S   0  0  0  0  0  0  0  0  0  0  0  0
   56.2520   24.7640   47.1150 O   0  0  0  0  0  0  0  0  0  0  0  0
   54.7100   26.3010   45.9960 O   0  0  0  0  0  0  0  0  0  0  0  0
   56.2240   24.7650   44.4740 N   0  0  0  0  0  0  0  0  0  0  0  0
   56.7820   23.5950   44.3900 C   0  0  0  0  0  0  0  0  0  0  0  0
   57.5570   23.0330   45.3470 N   0  0  0  0  0  0  0  0  0  0  0  0
   58.0110   21.8060   44.9800 C   0  0  0  0  0  0  0  0  0  0  0  0
   57.5940   21.3830   43.7210 C   0  0  0  0  0  0  0  0  0  0  0  0
   56.6280   22.5910   43.0540 S   0  0  0  0  0  0  0  0  0  0  0  0
   58.4700   26.8060   46.6970 C   0  0  0  0  0  0  0  0  0  0  0  0
   59.4190   27.8320   46.7300 C   0  0  0  0  0  0  0  0  0  0  0  0
   61.6220   31.8100   47.3510 C   0  0  0  0  0  0  0  0  0  0  0  0
   62.9430   31.6640   47.8110 C   0  0  0  0  0  0  0  0  0  0  0  0
   63.8320   32.7400   47.7840 C   0  0  0  0  0  0  0  0  0  0  0  0
   63.4120   33.9800   47.3060 C   0  0  0  0  0  0  0  0  0  0  0  0
   62.0990   34.1530   46.8680 C   0  0  0  0  0  0  0  0  0  0  0  0
   61.1850   33.0850   46.8970 C   0  0  0  0  0  0  0  0  0  0  0  0
   59.7840   33.3490   46.4830 C   0  0  0  0  0  0  0  0  0  0  0  0
   59.5030   33.9380   45.2370 C   0  0  0  0  0  0  0  0  0  0  0  0
   58.1800   34.1980   44.8630 C   0  0  0  0  0  0  0  0  0  0  0  0
   57.1310   33.8630   45.7210 C   0  0  0  0  0  0  0  0  0  0  0  0
   57.3990   33.2610   46.9520 C   0  0  0  0  0  0  0  0  0  0  0  0
   58.7190   32.9980   47.3310 C   0  0  0  0  0  0  0  0  0  0  0  0
   57.8310   30.1120   44.7363 H   0  0  0  0  0  0  0  0  0  0  0  0
   56.1275   28.2908   44.6976 H   0  0  0  0  0  0  0  0  0  0  0  0
   57.7940   23.4670   46.2650 H   0  0  0  0  0  0  0  0  0  0  0  0
   58.6574   21.1948   45.6270 H   0  0  0  0  0  0  0  0  0  0  0  0
   57.8509   20.4256   43.2442 H   0  0  0  0  0  0  0  0  0  0  0  0
   58.6561   25.8686   47.2417 H   0  0  0  0  0  0  0  0  0  0  0  0
   60.3573   27.6913   47.2866 H   0  0  0  0  0  0  0  0  0  0  0  0
   63.2797   30.6904   48.1966 H   0  0  0  0  0  0  0  0  0  0  0  0
   64.8645   32.6091   48.1402 H   0  0  0  0  0  0  0  0  0  0  0  0
   64.1171   34.8237   47.2741 H   0  0  0  0  0  0  0  0  0  0  0  0
   61.7750   35.1361   46.4957 H   0  0  0  0  0  0  0  0  0  0  0  0
   60.3262   34.1951   44.5542 H   0  0  0  0  0  0  0  0  0  0  0  0
   57.9661   34.6671   43.8913 H   0  0  0  0  0  0  0  0  0  0  0  0
   56.0921   34.0735   45.4270 H   0  0  0  0  0  0  0  0  0  0  0  0
   56.5707   32.9933   47.6245 H   0  0  0  0  0  0  0  0  0  0  0  0
   58.9251   32.5142   48.2972 H   0  0  0  0  0  0  0  0  0  0  0  0
  1  2  2  0
  2  3  1  0
  3  4  1  0
  4  5  2  0
  5  6  1  0
  6  7  2  0
  7  8  1  0
  8  9  2  0
  8 10  2  0
  8 11  1  0
 11 12  2  3
 12 13  1  0
 13 14  1  0
 14 15  2  0
 15 16  1  0
  7 17  1  0
 17 18  2  0
  2 19  1  0
 19 20  2  0
 20 21  1  0
 21 22  2  0
 22 23  1  0
 23 24  2  0
 24 25  1  0
 25 26  2  0
 26 27  1  0
 27 28  2  0
 28 29  1  0
 29 30  2  0
 18  4  1  0
 24 19  1  0
 30 25  1  0
 16 12  1  0
  5 31  1  0
  6 32  1  0
 13 33  1  0
 14 34  1  0
 15 35  1  0
 17 36  1  0
 18 37  1  0
 20 38  1  0
 21 39  1  0
 22 40  1  0
 23 41  1  0
 26 42  1  0
 27 43  1  0
 28 44  1  0
 29 45  1  0
 30 46  1  0
M  CHG  1   3  -1
M  END
>  <UniqueID>  (78) 
70

>  <SMILES>  (78) 
O=C([N-]c1ccc(S(=O)(=O)N=c2[nH]ccs2)cc1)c1ccccc1-c1ccccc1

>  <Energy>  (78) 
96.67602050226114

>  <Genealogy>  (78) 
O=C([N-]c1ccc(S(=O)(=O)N=c2[nH]ccs2)cc1)c1ccccc1-c1ccccc1 (protonated)
O=C([N-]c1ccc(S(=O)(=O)N=c2[nH]ccs2)cc1)c1ccccc1-c1ccccc1 (3D coordinates assigned)
O=C([N-]c1ccc(S(=O)(=O)N=c2[nH]ccs2)cc1)c1ccccc1-c1ccccc1 (optimized conformer: 96.67602050226114 kcal/mol)

>  <smiles>  (78) 
O=C(Nc1ccc(S(=O)(=O)N=c2[nH]ccs2)cc1)c1ccccc1-c1ccccc1

>  <score_type>  (78) 
oracle

>  <origin>  (78) 
adg

>  <m_score__min__energy>  (78) 
-11.07

>  <m_primary>  (78) 
energy

$$$$
78:0
     RDKit          3D

 32 34  0  0  0  0  0  0  0  0999 V2000
   59.0620   33.4220   49.6490 O   0  0  0  0  0  0  0  0  0  0  0  0
   59.5960   33.7210   48.5480 C   0  0  0  0  0  0  0  0  0  0  0  0
   60.9580   33.3620   48.1830 C   0  0  0  0  0  0  0  0  0  0  0  0
   61.9120   32.5940   48.8500 C   0  0  0  0  0  0  0  0  0  0  0  0
   63.1730   32.4410   48.2470 C   0  0  0  0  0  0  0  0  0  0  0  0
   63.4520   33.0610   47.0090 C   0  0  0  0  0  0  0  0  0  0  0  0
   62.4680   33.8360   46.3670 C   0  0  0  0  0  0  0  0  0  0  0  0
   61.2260   33.9620   46.9880 C   0  0  0  0  0  0  0  0  0  0  0  0
   60.0330   34.6960   46.5990 C   0  0  0  0  0  0  0  0  0  0  0  0
   59.9550   35.4230   45.5710 O   0  0  0  0  0  0  0  0  0  0  0  0
   58.9520   34.5400   47.5440 N   0  0  0  0  0  0  0  0  0  0  0  0
   57.8160   33.8430   46.9020 C   0  0  0  0  0  0  0  0  0  0  0  0
   58.1070   32.3610   46.6030 C   0  0  0  0  0  0  0  0  0  0  0  0
   57.7210   31.9830   45.2000 C   0  0  0  0  0  0  0  0  0  0  0  0
   58.1730   32.7310   44.1030 C   0  0  0  0  0  0  0  0  0  0  0  0
   57.8170   32.3370   42.8130 C   0  0  0  0  0  0  0  0  0  0  0  0
   57.0190   31.2060   42.6270 C   0  0  0  0  0  0  0  0  0  0  0  0
   56.5900   30.4820   43.7410 C   0  0  0  0  0  0  0  0  0  0  0  0
   56.9480   30.8810   44.9910 N   0  0  0  0  0  0  0  0  0  0  0  0
   61.6851   32.1226   49.8176 H   0  0  0  0  0  0  0  0  0  0  0  0
   63.9463   31.8352   48.7421 H   0  0  0  0  0  0  0  0  0  0  0  0
   64.4417   32.9378   46.5450 H   0  0  0  0  0  0  0  0  0  0  0  0
   62.6726   34.3274   45.4044 H   0  0  0  0  0  0  0  0  0  0  0  0
   58.6950   35.4750   47.9350 H   0  0  0  0  0  0  0  0  0  0  0  0
   56.9460   33.9004   47.5727 H   0  0  0  0  0  0  0  0  0  0  0  0
   57.6279   34.3408   45.9393 H   0  0  0  0  0  0  0  0  0  0  0  0
   59.1830   32.1763   46.7372 H   0  0  0  0  0  0  0  0  0  0  0  0
   57.5090   31.7509   47.2959 H   0  0  0  0  0  0  0  0  0  0  0  0
   58.8022   33.6198   44.2584 H   0  0  0  0  0  0  0  0  0  0  0  0
   58.1640   32.9158   41.9443 H   0  0  0  0  0  0  0  0  0  0  0  0
   56.7316   30.8890   41.6136 H   0  0  0  0  0  0  0  0  0  0  0  0
   55.9623   29.5886   43.6077 H   0  0  0  0  0  0  0  0  0  0  0  0
  1  2  2  0
  2  3  1  0
  3  4  2  0
  4  5  1  0
  5  6  2  0
  6  7  1  0
  7  8  2  0
  8  9  1  0
  9 10  2  0
  9 11  1  0
 11 12  1  0
 12 13  1  0
 13 14  1  0
 14 15  2  0
 15 16  1  0
 16 17  2  0
 17 18  1  0
 18 19  2  0
 11  2  1  0
 19 14  1  0
  8  3  1  0
  4 20  1  0
  5 21  1  0
  6 22  1  0
  7 23  1  0
 11 24  1  0
 12 25  1  0
 12 26  1  0
 13 27  1  0
 13 28  1  0
 15 29  1  0
 16 30  1  0
 17 31  1  0
 18 32  1  0
M  CHG  1  11   1
M  END
>  <UniqueID>  (79) 
71

>  <SMILES>  (79) 
O=C1c2ccccc2C(=O)[NH+]1CCc1ccccn1

>  <Energy>  (79) 
59.48373768674696

>  <Genealogy>  (79) 
O=C1c2ccccc2C(=O)[NH+]1CCc1ccccn1 (protonated)
O=C1c2ccccc2C(=O)[NH+]1CCc1ccccn1 (3D coordinates assigned)
O=C1c2ccccc2C(=O)[NH+]1CCc1ccccn1 (nonaromatic ring conformer: 59.48373768674696 kcal/mol)

>  <smiles>  (79) 
O=C1c2ccccc2C(=O)N1CCc1ccccn1

>  <score_type>  (79) 
oracle

>  <origin>  (79) 
adg

>  <m_score__min__energy>  (79) 
-6.2800000000000002

>  <m_primary>  (79) 
energy

$$$$
79:0
     RDKit          3D

 49 51  0  0  0  0  0  0  0  0999 V2000
   59.2570   31.4830   48.5610 C   0  0  0  0  0  0  0  0  0  0  0  0
   58.1600   31.9540   47.7850 O   0  0  0  0  0  0  0  0  0  0  0  0
   58.2620   32.4400   46.4720 C   0  0  0  0  0  0  0  0  0  0  0  0
   58.8370   33.6980   46.1940 C   0  0  0  0  0  0  0  0  0  0  0  0
   58.8710   34.1890   44.8860 C   0  0  0  0  0  0  0  0  0  0  0  0
   58.3240   33.4410   43.8440 C   0  0  0  0  0  0  0  0  0  0  0  0
   57.7530   32.1950   44.1060 C   0  0  0  0  0  0  0  0  0  0  0  0
   57.7490   31.6710   45.4040 C   0  0  0  0  0  0  0  0  0  0  0  0
   57.1560   30.3810   45.6070 N   0  0  0  0  0  0  0  0  0  0  0  0
   56.5170   29.5770   44.6070 C   0  0  0  0  0  0  0  0  0  0  0  0
   55.3420   29.1550   44.7720 O   0  0  0  0  0  0  0  0  0  0  0  0
   57.2880   29.1510   43.4030 C   0  0  0  0  0  0  0  0  0  0  0  0
   57.7690   27.3950   43.5440 S   0  0  0  0  0  0  0  0  0  0  0  0
   58.4590   27.5440   45.2010 C   0  0  0  0  0  0  0  0  0  0  0  0
   59.3760   28.5710   45.4600 C   0  0  0  0  0  0  0  0  0  0  0  0
   59.9500   28.7000   46.7250 C   0  0  0  0  0  0  0  0  0  0  0  0
   59.6300   27.7890   47.7330 C   0  0  0  0  0  0  0  0  0  0  0  0
   58.7280   26.7530   47.4810 C   0  0  0  0  0  0  0  0  0  0  0  0
   58.1140   26.6300   46.2170 C   0  0  0  0  0  0  0  0  0  0  0  0
   57.1980   25.5620   45.9160 N   0  0  0  0  0  0  0  0  0  0  0  0
   55.7640   25.6140   45.8860 C   0  0  0  0  0  0  0  0  0  0  0  0
   55.1490   26.7060   46.0000 O   0  0  0  0  0  0  0  0  0  0  0  0
   54.9880   24.3610   45.6310 C   0  0  0  0  0  0  0  0  0  0  0  0
   55.8040   23.4010   44.8110 C   0  0  0  0  0  0  0  0  0  0  0  0
   55.6340   23.3380   43.4170 C   0  0  0  0  0  0  0  0  0  0  0  0
   56.4060   22.4590   42.6510 C   0  0  0  0  0  0  0  0  0  0  0  0
   57.3640   21.6490   43.2690 C   0  0  0  0  0  0  0  0  0  0  0  0
   57.5500   21.7170   44.6520 C   0  0  0  0  0  0  0  0  0  0  0  0
   56.7730   22.5870   45.4220 C   0  0  0  0  0  0  0  0  0  0  0  0
   59.0201   31.5847   49.6304 H   0  0  0  0  0  0  0  0  0  0  0  0
   59.4448   30.4249   48.3261 H   0  0  0  0  0  0  0  0  0  0  0  0
   60.1535   32.0755   48.3261 H   0  0  0  0  0  0  0  0  0  0  0  0
   59.2618   34.2969   47.0130 H   0  0  0  0  0  0  0  0  0  0  0  0
   59.3299   35.1669   44.6782 H   0  0  0  0  0  0  0  0  0  0  0  0
   58.3426   33.8328   42.8163 H   0  0  0  0  0  0  0  0  0  0  0  0
   57.3017   31.6191   43.2846 H   0  0  0  0  0  0  0  0  0  0  0  0
   56.6642   29.2852   42.5069 H   0  0  0  0  0  0  0  0  0  0  0  0
   58.1974   29.7651   43.3258 H   0  0  0  0  0  0  0  0  0  0  0  0
   59.6447   29.2790   44.6622 H   0  0  0  0  0  0  0  0  0  0  0  0
   60.6548   29.5197   46.9281 H   0  0  0  0  0  0  0  0  0  0  0  0
   60.0892   27.8873   48.7277 H   0  0  0  0  0  0  0  0  0  0  0  0
   58.4946   26.0275   48.2742 H   0  0  0  0  0  0  0  0  0  0  0  0
   54.7316   23.8909   46.5918 H   0  0  0  0  0  0  0  0  0  0  0  0
   54.0707   24.6138   45.0791 H   0  0  0  0  0  0  0  0  0  0  0  0
   54.8902   23.9831   42.9265 H   0  0  0  0  0  0  0  0  0  0  0  0
   56.2597   22.4046   41.5621 H   0  0  0  0  0  0  0  0  0  0  0  0
   57.9714   20.9580   42.6659 H   0  0  0  0  0  0  0  0  0  0  0  0
   58.3092   21.0848   45.1357 H   0  0  0  0  0  0  0  0  0  0  0  0
   56.9206   22.6348   46.5110 H   0  0  0  0  0  0  0  0  0  0  0  0
  1  2  1  0
  2  3  1  0
  3  4  2  0
  4  5  1  0
  5  6  2  0
  6  7  1  0
  7  8  2  0
  8  9  1  0
  9 10  1  0
 10 11  2  0
 10 12  1  0
 12 13  1  0
 13 14  1  0
 14 15  2  0
 15 16  1  0
 16 17  2  0
 17 18  1  0
 18 19  2  0
 19 20  1  0
 20 21  1  0
 21 22  2  0
 21 23  1  0
 23 24  1  0
 24 25  2  0
 25 26  1  0
 26 27  2  0
 27 28  1  0
 28 29  2  0
  8  3  1  0
 19 14  1  0
 29 24  1  0
  1 30  1  0
  1 31  1  0
  1 32  1  0
  4 33  1  0
  5 34  1  0
  6 35  1  0
  7 36  1  0
 12 37  1  0
 12 38  1  0
 15 39  1  0
 16 40  1  0
 17 41  1  0
 18 42  1  0
 23 43  1  0
 23 44  1  0
 25 45  1  0
 26 46  1  0
 27 47  1  0
 28 48  1  0
 29 49  1  0
M  CHG  2   9  -1  20  -1
M  END
>  <UniqueID>  (80) 
72

>  <SMILES>  (80) 
COc1ccccc1[N-]C(=O)CSc1ccccc1[N-]C(=O)Cc1ccccc1

>  <Energy>  (80) 
45.23953933812667

>  <Genealogy>  (80) 
COc1ccccc1[N-]C(=O)CSc1ccccc1[N-]C(=O)Cc1ccccc1 (protonated)
COc1ccccc1[N-]C(=O)CSc1ccccc1[N-]C(=O)Cc1ccccc1 (3D coordinates assigned)
COc1ccccc1[N-]C(=O)CSc1ccccc1[N-]C(=O)Cc1ccccc1 (optimized conformer: 45.23953933812667 kcal/mol)

>  <smiles>  (80) 
COc1ccccc1NC(=O)CSc1ccccc1NC(=O)Cc1ccccc1

>  <score_type>  (80) 
oracle

>  <origin>  (80) 
adg

>  <m_score__min__energy>  (80) 
-12.6

>  <m_primary>  (80) 
energy

$$$$
80:0
     RDKit          3D

 18 18  0  0  0  0  0  0  0  0999 V2000
   58.2540   29.5750   44.4410 C   0  0  0  0  0  0  0  0  0  0  0  0
   58.9780   28.4810   44.9990 O   0  0  0  0  0  0  0  0  0  0  0  0
   58.4180   27.2880   45.4980 C   0  0  0  0  0  0  0  0  0  0  0  0
   59.2490   26.2170   45.8420 C   0  0  0  0  0  0  0  0  0  0  0  0
   58.9090   24.9690   46.3460 C   0  0  0  0  0  0  0  0  0  0  0  0
   57.6610   24.4360   46.6470 C   0  0  0  0  0  0  0  0  0  0  0  0
   57.6730   23.1330   47.1440 O   0  0  0  0  0  0  0  0  0  0  0  0
   56.4100   25.0460   46.5120 C   0  0  0  0  0  0  0  0  0  0  0  0
   55.4130   24.3520   46.8550 O   0  0  0  0  0  0  0  0  0  0  0  0
   56.1330   26.3350   46.0410 C   0  0  0  0  0  0  0  0  0  0  0  0
   54.7900   26.7070   46.0040 O   0  0  0  0  0  0  0  0  0  0  0  0
   57.0290   27.3070   45.5990 C   0  0  0  0  0  0  0  0  0  0  0  0
   57.8438   30.1949   45.2518 H   0  0  0  0  0  0  0  0  0  0  0  0
   58.9288   30.1828   43.8203 H   0  0  0  0  0  0  0  0  0  0  0  0
   57.4308   29.1915   43.8203 H   0  0  0  0  0  0  0  0  0  0  0  0
   60.3252   26.3878   45.6918 H   0  0  0  0  0  0  0  0  0  0  0  0
   59.7592   24.2976   46.5368 H   0  0  0  0  0  0  0  0  0  0  0  0
   56.5599   28.2478   45.2753 H   0  0  0  0  0  0  0  0  0  0  0  0
  1  2  1  0
  2  3  1  0
  3  4  2  0
  4  5  1  0
  5  6  2  0
  6  7  1  0
  6  8  1  0
  8  9  2  0
  8 10  1  0
 10 11  1  0
 10 12  2  0
 12  3  1  0
  1 13  1  0
  1 14  1  0
  1 15  1  0
  4 16  1  0
  5 17  1  0
 12 18  1  0
M  CHG  2   7  -1  11  -1
M  END
>  <UniqueID>  (81) 
73

>  <SMILES>  (81) 
COc1ccc([O-])c(=O)c([O-])c1

>  <Energy>  (81) 
38.7254550683672

>  <Genealogy>  (81) 
COc1ccc([O-])c(=O)c([O-])c1 (protonated)
COc1ccc([O-])c(=O)c([O-])c1 (3D coordinates assigned)
COc1ccc([O-])c(=O)c([O-])c1 (optimized conformer: 38.7254550683672 kcal/mol)

>  <smiles>  (81) 
COc1ccc(O)c(=O)c(O)c1

>  <score_type>  (81) 
oracle

>  <origin>  (81) 
adg

>  <m_score__min__energy>  (81) 
-10.869999999999999

>  <m_primary>  (81) 
energy

$$$$
81:0
     RDKit          3D

 45 47  0  0  0  0  0  0  0  0999 V2000
   51.5430   24.1860   43.8850 C   0  0  0  0  0  0  0  0  0  0  0  0
   53.0520   23.7770   44.7350 S   0  0  0  0  0  0  0  0  0  0  0  0
   53.4790   24.9090   45.6260 O   0  0  0  0  0  0  0  0  0  0  0  0
   52.8150   22.5580   45.5830 O   0  0  0  0  0  0  0  0  0  0  0  0
   54.2980   23.4220   43.5840 N   0  0  0  0  0  0  0  0  0  0  0  0
   55.6850   23.2110   43.8860 C   0  0  0  0  0  0  0  0  0  0  0  0
   56.2980   22.0420   43.4180 C   0  0  0  0  0  0  0  0  0  0  0  0
   57.6390   21.7820   43.7050 C   0  0  0  0  0  0  0  0  0  0  0  0
   58.3820   22.6890   44.4630 C   0  0  0  0  0  0  0  0  0  0  0  0
   57.7950   23.8730   44.9220 C   0  0  0  0  0  0  0  0  0  0  0  0
   58.5680   24.7540   45.7460 N   0  0  0  0  0  0  0  0  0  0  0  0
   58.3720   26.1670   45.8900 C   0  0  0  0  0  0  0  0  0  0  0  0
   58.8730   26.7460   46.8910 O   0  0  0  0  0  0  0  0  0  0  0  0
   57.6520   26.9180   44.8970 N   0  0  0  0  0  0  0  0  0  0  0  0
   57.5670   28.3540   44.8720 C   0  0  0  0  0  0  0  0  0  0  0  0
   58.6940   29.1620   45.1110 C   0  0  0  0  0  0  0  0  0  0  0  0
   58.5930   30.5540   45.0500 C   0  0  0  0  0  0  0  0  0  0  0  0
   57.3710   31.1640   44.7480 C   0  0  0  0  0  0  0  0  0  0  0  0
   57.3130   32.5630   44.6840 O   0  0  0  0  0  0  0  0  0  0  0  0
   58.0550   33.4470   45.4810 C   0  0  0  0  0  0  0  0  0  0  0  0
   58.7980   34.4560   44.8550 C   0  0  0  0  0  0  0  0  0  0  0  0
   59.5640   35.3460   45.6130 C   0  0  0  0  0  0  0  0  0  0  0  0
   59.5990   35.2280   47.0050 C   0  0  0  0  0  0  0  0  0  0  0  0
   58.8760   34.2140   47.6390 C   0  0  0  0  0  0  0  0  0  0  0  0
   58.1120   33.3210   46.8820 C   0  0  0  0  0  0  0  0  0  0  0  0
   56.2530   30.3590   44.4660 C   0  0  0  0  0  0  0  0  0  0  0  0
   56.3550   28.9670   44.5260 C   0  0  0  0  0  0  0  0  0  0  0  0
   56.4380   24.1250   44.6470 C   0  0  0  0  0  0  0  0  0  0  0  0
   50.7540   24.3999   44.6210 H   0  0  0  0  0  0  0  0  0  0  0  0
   51.7061   25.0723   43.2543 H   0  0  0  0  0  0  0  0  0  0  0  0
   51.2362   23.3386   43.2543 H   0  0  0  0  0  0  0  0  0  0  0  0
   55.7184   21.3235   42.8199 H   0  0  0  0  0  0  0  0  0  0  0  0
   58.1113   20.8607   43.3333 H   0  0  0  0  0  0  0  0  0  0  0  0
   59.4338   22.4716   44.7004 H   0  0  0  0  0  0  0  0  0  0  0  0
   57.1410   26.3960   44.1500 H   0  0  0  0  0  0  0  0  0  0  0  0
   59.6612   28.6944   45.3475 H   0  0  0  0  0  0  0  0  0  0  0  0
   59.4808   31.1748   45.2408 H   0  0  0  0  0  0  0  0  0  0  0  0
   58.7785   34.5486   43.7591 H   0  0  0  0  0  0  0  0  0  0  0  0
   60.1394   36.1395   45.1138 H   0  0  0  0  0  0  0  0  0  0  0  0
   60.1958   35.9334   47.6018 H   0  0  0  0  0  0  0  0  0  0  0  0
   58.9081   34.1185   48.7344 H   0  0  0  0  0  0  0  0  0  0  0  0
   57.5532   32.5168   47.3829 H   0  0  0  0  0  0  0  0  0  0  0  0
   55.2946   30.8271   44.1972 H   0  0  0  0  0  0  0  0  0  0  0  0
   55.4757   28.3461   44.2995 H   0  0  0  0  0  0  0  0  0  0  0  0
   55.9633   25.0409   45.0287 H   0  0  0  0  0  0  0  0  0  0  0  0
  1  2  1  0
  2  3  2  0
  2  4  2  0
  2  5  1  0
  5  6  1  0
  6  7  2  0
  7  8  1  0
  8  9  2  0
  9 10  1  0
 10 11  1  0
 11 12  1  0
 12 13  2  0
 12 14  1  0
 14 15  1  0
 15 16  2  0
 16 17  1  0
 17 18  2  0
 18 19  1  0
 19 20  1  0
 20 21  2  0
 21 22  1  0
 22 23  2  0
 23 24  1  0
 24 25  2  0
 18 26  1  0
 26 27  2  0
 10 28  2  0
 28  6  1  0
 27 15  1  0
 25 20  1  0
  1 29  1  0
  1 30  1  0
  1 31  1  0
  7 32  1  0
  8 33  1  0
  9 34  1  0
 14 35  1  0
 16 36  1  0
 17 37  1  0
 21 38  1  0
 22 39  1  0
 23 40  1  0
 24 41  1  0
 25 42  1  0
 26 43  1  0
 27 44  1  0
 28 45  1  0
M  CHG  2   5  -1  11  -1
M  END
>  <UniqueID>  (82) 
74

>  <SMILES>  (82) 
CS(=O)(=O)[N-]c1cccc([N-]C(=O)Nc2ccc(Oc3ccccc3)cc2)c1

>  <Energy>  (82) 
60.46169749931334

>  <Genealogy>  (82) 
CS(=O)(=O)[N-]c1cccc([N-]C(=O)Nc2ccc(Oc3ccccc3)cc2)c1 (protonated)
CS(=O)(=O)[N-]c1cccc([N-]C(=O)Nc2ccc(Oc3ccccc3)cc2)c1 (3D coordinates assigned)
CS(=O)(=O)[N-]c1cccc([N-]C(=O)Nc2ccc(Oc3ccccc3)cc2)c1 (optimized conformer: 60.46169749931334 kcal/mol)

>  <smiles>  (82) 
CS(=O)(=O)Nc1cccc(NC(=O)Nc2ccc(Oc3ccccc3)cc2)c1

>  <score_type>  (82) 
oracle

>  <origin>  (82) 
adg

>  <m_score__min__energy>  (82) 
-11.34

>  <m_primary>  (82) 
energy

$$$$
82:0
     RDKit          3D

 56 59  0  0  1  0  0  0  0  0999 V2000
   62.0240   33.8300   46.2840 C   0  0  0  0  0  0  0  0  0  0  0  0
   62.8460   32.7350   46.7530 N   0  0  0  0  0  0  0  0  0  0  0  0
   62.0880   31.6520   47.3010 C   0  0  0  0  0  0  0  0  0  0  0  0
   62.3660   31.3510   48.7490 C   0  0  0  0  0  0  0  0  0  0  0  0
   62.4970   32.6310   49.4570 N   0  0  0  0  0  0  0  0  0  0  0  0
   61.6390   32.9760   50.5250 C   0  0  0  0  0  0  0  0  0  0  0  0
   62.0700   32.8120   51.8180 C   0  0  0  0  0  0  0  0  0  0  0  0
   61.1990   33.1630   52.8370 C   0  0  0  0  0  0  0  0  0  0  0  0
   59.9470   33.6580   52.5500 C   0  0  0  0  0  0  0  0  0  0  0  0
   58.8680   34.0910   53.8850 Cl  0  0  0  0  0  0  0  0  0  0  0  0
   59.4950   33.8290   51.2590 C   0  0  0  0  0  0  0  0  0  0  0  0
   60.3820   33.4730   50.2440 C   0  0  0  0  0  0  0  0  0  0  0  0
   59.9940   33.6190   48.8710 N   0  0  0  0  0  0  0  0  0  0  0  0
   59.0160   32.6960   48.3990 C   0  0  0  0  0  0  0  0  0  0  0  0
   58.5950   31.8510   49.2310 O   0  0  0  0  0  0  0  0  0  0  0  0
   58.5010   32.6870   47.0490 C   0  0  0  0  0  0  0  0  0  0  0  0
   57.8980   31.5700   46.5110 C   0  0  0  0  0  0  0  0  0  0  0  0
   57.4140   31.5830   45.2200 C   0  0  0  0  0  0  0  0  0  0  0  0
   56.7830   30.4530   44.6190 N   0  0  0  0  0  0  0  0  0  0  0  0
   57.1460   29.2520   44.9550 C   0  0  0  0  0  0  0  0  0  0  0  0
   58.4660   28.8560   45.0070 C   0  0  0  0  0  0  0  0  0  0  0  0
   58.7780   27.5460   45.3780 C   0  0  0  0  0  0  0  0  0  0  0  0
   57.7620   26.7120   45.6730 N   0  0  0  0  0  0  0  0  0  0  0  0
   56.4680   27.0910   45.6250 C   0  0  0  0  0  0  0  0  0  0  0  0
   55.5560   26.2410   45.9210 N   0  0  0  0  0  0  0  0  0  0  0  0
   56.1640   28.3670   45.2650 N   0  0  0  0  0  0  0  0  0  0  0  0
   57.5100   32.7170   44.4100 C   0  0  0  0  0  0  0  0  0  0  0  0
   58.1160   33.8430   44.9480 C   0  0  0  0  0  0  0  0  0  0  0  0
   58.5950   33.8130   46.2420 C   0  0  0  0  0  0  0  0  0  0  0  0
   59.1950   34.9850   46.7180 O   0  0  0  0  0  0  0  0  0  0  0  0
   63.5640   33.5010   48.9800 C   0  0  0  0  0  0  0  0  0  0  0  0
   63.9540   33.1670   47.5600 C   0  0  0  0  0  0  0  0  0  0  0  0
   61.6140   34.3762   47.1463 H   0  0  0  0  0  0  0  0  0  0  0  0
   62.6349   34.5122   45.6746 H   0  0  0  0  0  0  0  0  0  0  0  0
   61.1983   33.4338   45.6746 H   0  0  0  0  0  0  0  0  0  0  0  0
   61.0204   31.8981   47.2023 H   0  0  0  0  0  0  0  0  0  0  0  0
   62.3826   30.7541   46.7379 H   0  0  0  0  0  0  0  0  0  0  0  0
   61.5354   30.7703   49.1766 H   0  0  0  0  0  0  0  0  0  0  0  0
   63.2891   30.7610   48.8482 H   0  0  0  0  0  0  0  0  0  0  0  0
   63.0723   32.4156   52.0376 H   0  0  0  0  0  0  0  0  0  0  0  0
   61.5110   33.0450   53.8852 H   0  0  0  0  0  0  0  0  0  0  0  0
   58.4915   34.2239   51.0420 H   0  0  0  0  0  0  0  0  0  0  0  0
   60.3710   34.3280   48.2360 H   0  0  0  0  0  0  0  0  0  0  0  0
   57.8019   30.6581   47.1186 H   0  0  0  0  0  0  0  0  0  0  0  0
   59.2676   29.5669   44.7580 H   0  0  0  0  0  0  0  0  0  0  0  0
   59.8227   27.2053   45.4278 H   0  0  0  0  0  0  0  0  0  0  0  0
   57.9930   25.7230   45.9530 H   0  0  0  0  0  0  0  0  0  0  0  0
   55.1060   26.2710   46.8830 H   0  0  0  0  0  0  0  0  0  0  0  0
   55.1540   28.6080   45.2430 H   0  0  0  0  0  0  0  0  0  0  0  0
   57.1189   32.7172   43.3819 H   0  0  0  0  0  0  0  0  0  0  0  0
   58.2145   34.7575   44.3447 H   0  0  0  0  0  0  0  0  0  0  0  0
   58.7440   35.5670   47.4120 H   0  0  0  0  0  0  0  0  0  0  0  0
   63.2196   34.5449   49.0204 H   0  0  0  0  0  0  0  0  0  0  0  0
   64.4437   33.3549   49.6240 H   0  0  0  0  0  0  0  0  0  0  0  0
   64.3935   34.0636   47.0985 H   0  0  0  0  0  0  0  0  0  0  0  0
   64.6687   32.3321   47.6061 H   0  0  0  0  0  0  0  0  0  0  0  0
  1  2  1  0
  2  3  1  0
  3  4  1  0
  4  5  1  0
  5  6  1  0
  6  7  2  0
  7  8  1  0
  8  9  2  0
  9 10  1  0
  9 11  1  0
 11 12  2  0
 12 13  1  0
 13 14  1  0
 14 15  2  0
 14 16  1  0
 16 17  2  0
 17 18  1  0
 18 19  1  0
 19 20  2  0
 20 21  1  0
 21 22  2  0
 22 23  1  0
 23 24  1  0
 24 25  2  3
 24 26  1  0
 18 27  2  0
 27 28  1  0
 28 29  2  0
 29 30  1  0
  5 31  1  0
 31 32  1  0
 32  2  1  0
 12  6  1  0
 29 16  1  0
 26 20  1  0
  1 33  1  0
  1 34  1  0
  1 35  1  0
  3 36  1  0
  3 37  1  0
  4 38  1  0
  4 39  1  0
  7 40  1  0
  8 41  1  0
 11 42  1  0
 13 43  1  0
 17 44  1  0
 21 45  1  0
 22 46  1  0
 23 47  1  0
 25 48  1  0
 26 49  1  0
 27 50  1  0
 28 51  1  0
 30 52  1  0
 31 53  1  0
 31 54  1  0
 32 55  1  0
 32 56  1  0
M  END
>  <smiles>  (83) 
CN1CCN(c2ccc(Cl)cc2NC(=O)c2cc(N=c3cc[nH]c(=N)[nH]3)ccc2O)CC1

>  <score_type>  (83) 
oracle

>  <origin>  (83) 
adg

>  <m_score__min__energy>  (83) 
-8.8300000000000001

>  <m_primary>  (83) 
energy

$$$$
83:0
     RDKit          3D

 28 29  0  0  0  0  0  0  0  0999 V2000
   55.1490   28.9950   44.8610 O   0  0  0  0  0  0  0  0  0  0  0  0
   56.3750   29.2060   45.0650 C   0  0  0  0  0  0  0  0  0  0  0  0
   57.1090   28.2690   45.7810 O   0  0  0  0  0  0  0  0  0  0  0  0
   57.0220   30.4330   44.5510 C   0  0  0  0  0  0  0  0  0  0  0  0
   56.9180   30.7720   43.1900 C   0  0  0  0  0  0  0  0  0  0  0  0
   57.5290   31.9300   42.7010 C   0  0  0  0  0  0  0  0  0  0  0  0
   58.2470   32.7620   43.5620 C   0  0  0  0  0  0  0  0  0  0  0  0
   58.3550   32.4420   44.9200 C   0  0  0  0  0  0  0  0  0  0  0  0
   59.2520   33.5030   46.0030 S   0  0  0  0  0  0  0  0  0  0  0  0
   58.2980   34.4840   46.6250 O   0  0  0  0  0  0  0  0  0  0  0  0
   60.3100   34.2590   45.2490 O   0  0  0  0  0  0  0  0  0  0  0  0
   60.0070   32.5730   47.2570 N   0  0  0  0  0  0  0  0  0  0  0  0
   61.3230   32.8070   47.7750 C   0  0  0  0  0  0  0  0  0  0  0  0
   61.5580   33.6080   48.9050 C   0  0  0  0  0  0  0  0  0  0  0  0
   62.8620   33.8050   49.3600 C   0  0  0  0  0  0  0  0  0  0  0  0
   63.9230   33.1990   48.6850 C   0  0  0  0  0  0  0  0  0  0  0  0
   63.6820   32.4220   47.5930 N   0  0  0  0  0  0  0  0  0  0  0  0
   62.4190   32.2170   47.1320 C   0  0  0  0  0  0  0  0  0  0  0  0
   57.7480   31.2770   45.4110 C   0  0  0  0  0  0  0  0  0  0  0  0
   56.3524   30.1219   42.5063 H   0  0  0  0  0  0  0  0  0  0  0  0
   57.4439   32.1866   41.6347 H   0  0  0  0  0  0  0  0  0  0  0  0
   58.7287   33.6708   43.1722 H   0  0  0  0  0  0  0  0  0  0  0  0
   60.7145   34.0795   49.4306 H   0  0  0  0  0  0  0  0  0  0  0  0
   63.0525   34.4325   50.2431 H   0  0  0  0  0  0  0  0  0  0  0  0
   64.9548   33.3493   49.0356 H   0  0  0  0  0  0  0  0  0  0  0  0
   64.4860   31.9750   47.0990 H   0  0  0  0  0  0  0  0  0  0  0  0
   62.2568   31.5832   46.2477 H   0  0  0  0  0  0  0  0  0  0  0  0
   57.8403   31.0212   46.4769 H   0  0  0  0  0  0  0  0  0  0  0  0
  1  2  2  0
  2  3  1  0
  2  4  1  0
  4  5  2  0
  5  6  1  0
  6  7  2  0
  7  8  1  0
  8  9  1  0
  9 10  2  0
  9 11  2  0
  9 12  1  0
 12 13  1  0
 13 14  2  0
 14 15  1  0
 15 16  2  0
 16 17  1  0
 17 18  2  0
  8 19  2  0
 19  4  1  0
 18 13  1  0
  5 20  1  0
  6 21  1  0
  7 22  1  0
 14 23  1  0
 15 24  1  0
 16 25  1  0
 17 26  1  0
 18 27  1  0
 19 28  1  0
M  CHG  3   3  -1  12  -1  17   1
M  END
>  <UniqueID>  (84) 
75

>  <SMILES>  (84) 
O=C([O-])c1cccc(S(=O)(=O)[N-]c2ccc[nH+]c2)c1

>  <Energy>  (84) 
32.34553904589058

>  <Genealogy>  (84) 
O=C([O-])c1cccc(S(=O)(=O)[N-]c2ccc[nH+]c2)c1 (protonated)
O=C([O-])c1cccc(S(=O)(=O)[N-]c2ccc[nH+]c2)c1 (3D coordinates assigned)
O=C([O-])c1cccc(S(=O)(=O)[N-]c2ccc[nH+]c2)c1 (optimized conformer: 32.34553904589058 kcal/mol)

>  <smiles>  (84) 
O=C(O)c1cccc(S(=O)(=O)Nc2cccnc2)c1

>  <score_type>  (84) 
oracle

>  <origin>  (84) 
adg

>  <m_score__min__energy>  (84) 
-10.050000000000001

>  <m_primary>  (84) 
energy

$$$$
84:0
     RDKit          3D

 58 61  0  0  0  0  0  0  0  0999 V2000
   58.9740   31.2300   50.4510 C   0  0  0  0  0  0  0  0  0  0  0  0
   59.9690   30.5470   49.5010 C   0  0  1  0  0  0  0  0  0  0  0  0
   60.9900   31.5380   48.9350 C   0  0  0  0  0  0  0  0  0  0  0  0
   61.3020   32.7120   49.6520 C   0  0  0  0  0  0  0  0  0  0  0  0
   62.2170   33.6390   49.1450 C   0  0  0  0  0  0  0  0  0  0  0  0
   62.8290   33.4160   47.9110 C   0  0  0  0  0  0  0  0  0  0  0  0
   63.7160   34.3170   47.4200 F   0  0  0  0  0  0  0  0  0  0  0  0
   62.5220   32.2690   47.1780 C   0  0  0  0  0  0  0  0  0  0  0  0
   61.6070   31.3380   47.6790 C   0  0  0  0  0  0  0  0  0  0  0  0
   60.6190   29.4380   50.2080 N   0  0  0  0  0  0  0  0  0  0  0  0
   60.3320   28.2320   49.5140 C   0  0  0  0  0  0  0  0  0  0  0  0
   60.7900   27.1110   49.8590 O   0  0  0  0  0  0  0  0  0  0  0  0
   59.4830   28.4240   48.3970 N   0  0  0  0  0  0  0  0  0  0  0  0
   59.3060   27.5080   47.2710 C   0  0  0  0  0  0  0  0  0  0  0  0
   57.8180   27.2170   47.0150 C   0  0  0  0  0  0  0  0  0  0  0  0
   57.5490   25.9480   46.1750 C   0  0  1  0  0  0  0  0  0  0  0  0
   56.0760   25.7160   45.9870 C   0  0  0  0  0  0  0  0  0  0  0  0
   55.2950   26.6540   46.0200 O   0  0  0  0  0  0  0  0  0  0  0  0
   58.1950   26.0220   44.8640 N   0  0  0  0  0  0  0  0  0  0  0  0
   57.9980   27.0440   43.8770 C   0  0  0  0  0  0  0  0  0  0  0  0
   57.9940   26.7160   42.6610 O   0  0  0  0  0  0  0  0  0  0  0  0
   57.7850   28.4570   44.2350 C   0  0  0  0  0  0  0  0  0  0  0  0
   58.8630   29.3460   44.3430 C   0  0  0  0  0  0  0  0  0  0  0  0
   58.6370   30.6820   44.6780 C   0  0  0  0  0  0  0  0  0  0  0  0
   57.3230   31.1260   44.9020 C   0  0  0  0  0  0  0  0  0  0  0  0
   57.0390   32.4580   45.2310 O   0  0  0  0  0  0  0  0  0  0  0  0
   57.9480   33.3690   45.7900 C   0  0  0  0  0  0  0  0  0  0  0  0
   58.1740   33.4420   47.1770 C   0  0  0  0  0  0  0  0  0  0  0  0
   59.0760   34.3750   47.6960 C   0  0  0  0  0  0  0  0  0  0  0  0
   59.7500   35.2490   46.8380 C   0  0  0  0  0  0  0  0  0  0  0  0
   59.5160   35.1940   45.4620 C   0  0  0  0  0  0  0  0  0  0  0  0
   58.6140   34.2620   44.9400 C   0  0  0  0  0  0  0  0  0  0  0  0
   56.2900   30.2540   44.7490 N   0  0  0  0  0  0  0  0  0  0  0  0
   56.4870   28.9500   44.4210 C   0  0  0  0  0  0  0  0  0  0  0  0
   59.2560   29.8300   48.3780 C   0  0  0  0  0  0  0  0  0  0  0  0
   58.5500   30.3990   47.5010 O   0  0  0  0  0  0  0  0  0  0  0  0
   59.2653   31.0300   51.4927 H   0  0  0  0  0  0  0  0  0  0  0  0
   58.9803   32.3150   50.2703 H   0  0  0  0  0  0  0  0  0  0  0  0
   57.9637   30.8341   50.2703 H   0  0  0  0  0  0  0  0  0  0  0  0
   60.8192   32.9003   50.6223 H   0  0  0  0  0  0  0  0  0  0  0  0
   62.4551   34.5461   49.7199 H   0  0  0  0  0  0  0  0  0  0  0  0
   63.0013   32.0967   46.2030 H   0  0  0  0  0  0  0  0  0  0  0  0
   61.3649   30.4411   47.0900 H   0  0  0  0  0  0  0  0  0  0  0  0
   61.1700   29.5100   51.0910 H   0  0  0  0  0  0  0  0  0  0  0  0
   59.7428   27.9609   46.3687 H   0  0  0  0  0  0  0  0  0  0  0  0
   59.8082   26.5597   47.5130 H   0  0  0  0  0  0  0  0  0  0  0  0
   57.3189   27.0973   47.9879 H   0  0  0  0  0  0  0  0  0  0  0  0
   57.4285   28.0657   46.4336 H   0  0  0  0  0  0  0  0  0  0  0  0
   57.9776   25.1046   46.7363 H   0  0  0  0  0  0  0  0  0  0  0  0
   55.6997   24.6961   45.8188 H   0  0  0  0  0  0  0  0  0  0  0  0
   59.8884   28.9905   44.1636 H   0  0  0  0  0  0  0  0  0  0  0  0
   59.4811   31.3818   44.7660 H   0  0  0  0  0  0  0  0  0  0  0  0
   57.6385   32.7618   47.8557 H   0  0  0  0  0  0  0  0  0  0  0  0
   59.2557   34.4216   48.7802 H   0  0  0  0  0  0  0  0  0  0  0  0
   60.4640   35.9794   47.2461 H   0  0  0  0  0  0  0  0  0  0  0  0
   60.0425   35.8854   44.7877 H   0  0  0  0  0  0  0  0  0  0  0  0
   58.4262   34.2296   43.8566 H   0  0  0  0  0  0  0  0  0  0  0  0
   55.6237   28.2789   44.3011 H   0  0  0  0  0  0  0  0  0  0  0  0
  2  1  1  1
  2  3  1  0
  3  4  2  0
  4  5  1  0
  5  6  2  0
  6  7  1  0
  6  8  1  0
  8  9  2  0
  2 10  1  0
 10 11  1  0
 11 12  2  0
 11 13  1  0
 13 14  1  0
 14 15  1  0
 15 16  1  0
 16 17  1  0
 17 18  2  0
 16 19  1  0
 19 20  1  0
 20 21  2  0
 20 22  1  0
 22 23  2  0
 23 24  1  0
 24 25  2  0
 25 26  1  0
 26 27  1  0
 27 28  2  0
 28 29  1  0
 29 30  2  0
 30 31  1  0
 31 32  2  0
 25 33  1  0
 33 34  2  0
 13 35  1  0
 35 36  2  0
 35  2  1  0
  9  3  1  0
 34 22  1  0
 32 27  1  0
  1 37  1  0
  1 38  1  0
  1 39  1  0
  4 40  1  0
  5 41  1  0
  8 42  1  0
  9 43  1  0
 10 44  1  0
 14 45  1  0
 14 46  1  0
 15 47  1  0
 15 48  1  0
 16 49  1  1
 17 50  1  0
 23 51  1  0
 24 52  1  0
 28 53  1  0
 29 54  1  0
 30 55  1  0
 31 56  1  0
 32 57  1  0
 34 58  1  0
M  CHG  1  19  -1
M  END
>  <UniqueID>  (85) 
76

>  <SMILES>  (85) 
C[C@@]1(c2ccc(F)cc2)NC(=O)N(CC[C@@H](C=O)[N-]C(=O)c2ccc(Oc3ccccc3)nc2)C1=O

>  <Energy>  (85) 
88.53651987671056

>  <Genealogy>  (85) 
CC1(c2ccc(F)cc2)NC(=O)N(CCC(C=O)[N-]C(=O)c2ccc(Oc3ccccc3)nc2)C1=O (protonated)
C[C@@]1(c2ccc(F)cc2)NC(=O)N(CC[C@@H](C=O)[N-]C(=O)c2ccc(Oc3ccccc3)nc2)C1=O (chirality)
C[C@@]1(c2ccc(F)cc2)NC(=O)N(CC[C@@H](C=O)[N-]C(=O)c2ccc(Oc3ccccc3)nc2)C1=O (3D coordinates assigned)
C[C@@]1(c2ccc(F)cc2)NC(=O)N(CC[C@@H](C=O)[N-]C(=O)c2ccc(Oc3ccccc3)nc2)C1=O (nonaromatic ring conformer: 88.53651987671056 kcal/mol)

>  <smiles>  (85) 
CC1(c2ccc(F)cc2)NC(=O)N(CCC(C=O)NC(=O)c2ccc(Oc3ccccc3)nc2)C1=O

>  <score_type>  (85) 
oracle

>  <origin>  (85) 
adg

>  <m_score__min__energy>  (85) 
-11.08

>  <m_primary>  (85) 
energy

$$$$
85:0
     RDKit          3D

 33 33  0  0  0  0  0  0  0  0999 V2000
   63.1090   33.8190   46.7260 C   0  0  0  0  0  0  0  0  0  0  0  0
   61.6900   33.3600   46.8810 C   0  0  0  0  0  0  0  0  0  0  0  0
   60.6330   34.1910   46.4800 C   0  0  0  0  0  0  0  0  0  0  0  0
   59.3130   33.7490   46.5850 C   0  0  0  0  0  0  0  0  0  0  0  0
   59.0400   32.4680   47.0710 C   0  0  0  0  0  0  0  0  0  0  0  0
   60.0820   31.6140   47.4510 C   0  0  0  0  0  0  0  0  0  0  0  0
   59.7510   30.3250   47.8990 O   0  0  0  0  0  0  0  0  0  0  0  0
   60.5790   29.1680   47.7750 C   0  0  0  0  0  0  0  0  0  0  0  0
   60.3230   28.4510   46.4820 C   0  0  0  0  0  0  0  0  0  0  0  0
   60.8320   27.3120   46.3000 O   0  0  0  0  0  0  0  0  0  0  0  0
   59.4790   29.0350   45.4800 N   0  0  0  0  0  0  0  0  0  0  0  0
   59.2150   28.3770   44.2010 C   0  0  0  0  0  0  0  0  0  0  0  0
   57.7600   28.5790   43.7670 C   0  0  0  0  0  0  0  0  0  0  0  0
   56.8160   29.4910   44.9830 S   0  0  0  0  0  0  0  0  0  0  0  0
   55.1320   29.3340   44.6290 N   0  0  0  0  0  0  0  0  0  0  0  0
   57.0850   28.9370   46.3520 O   0  0  0  0  0  0  0  0  0  0  0  0
   57.1910   30.9460   44.9510 O   0  0  0  0  0  0  0  0  0  0  0  0
   61.4120   32.0700   47.3590 C   0  0  0  0  0  0  0  0  0  0  0  0
   63.5580   33.9642   47.7196 H   0  0  0  0  0  0  0  0  0  0  0  0
   63.6814   33.0602   46.1723 H   0  0  0  0  0  0  0  0  0  0  0  0
   63.1286   34.7693   46.1723 H   0  0  0  0  0  0  0  0  0  0  0  0
   60.8451   35.1941   46.0816 H   0  0  0  0  0  0  0  0  0  0  0  0
   58.4868   34.4102   46.2847 H   0  0  0  0  0  0  0  0  0  0  0  0
   57.9974   32.1276   47.1558 H   0  0  0  0  0  0  0  0  0  0  0  0
   61.6341   29.4769   47.8107 H   0  0  0  0  0  0  0  0  0  0  0  0
   60.3458   28.4835   48.6039 H   0  0  0  0  0  0  0  0  0  0  0  0
   58.9300   29.8900   45.7250 H   0  0  0  0  0  0  0  0  0  0  0  0
   59.8806   28.8010   43.4347 H   0  0  0  0  0  0  0  0  0  0  0  0
   59.3981   27.2987   44.3184 H   0  0  0  0  0  0  0  0  0  0  0  0
   57.7468   29.1348   42.8178 H   0  0  0  0  0  0  0  0  0  0  0  0
   57.2989   27.5866   43.6546 H   0  0  0  0  0  0  0  0  0  0  0  0
   54.6270   29.3400   45.5430 H   0  0  0  0  0  0  0  0  0  0  0  0
   62.2380   31.4106   47.6638 H   0  0  0  0  0  0  0  0  0  0  0  0
  1  2  1  0
  2  3  2  0
  3  4  1  0
  4  5  2  0
  5  6  1  0
  6  7  1  0
  7  8  1  0
  8  9  1  0
  9 10  2  0
  9 11  1  0
 11 12  1  0
 12 13  1  0
 13 14  1  0
 14 15  1  0
 14 16  2  0
 14 17  2  0
  6 18  2  0
 18  2  1  0
  1 19  1  0
  1 20  1  0
  1 21  1  0
  3 22  1  0
  4 23  1  0
  5 24  1  0
  8 25  1  0
  8 26  1  0
 11 27  1  0
 12 28  1  0
 12 29  1  0
 13 30  1  0
 13 31  1  0
 15 32  1  0
 18 33  1  0
M  CHG  1  15  -1
M  END
>  <UniqueID>  (86) 
77

>  <SMILES>  (86) 
Cc1cccc(OCC(=O)NCCS([NH-])(=O)=O)c1

>  <Energy>  (86) 
19.245566745817513

>  <Genealogy>  (86) 
Cc1cccc(OCC(=O)NCCS([NH-])(=O)=O)c1 (protonated)
Cc1cccc(OCC(=O)NCCS([NH-])(=O)=O)c1 (3D coordinates assigned)
Cc1cccc(OCC(=O)NCCS([NH-])(=O)=O)c1 (optimized conformer: 19.245566745817513 kcal/mol)

>  <smiles>  (86) 
Cc1cccc(OCC(=O)NCCS(N)(=O)=O)c1

>  <score_type>  (86) 
oracle

>  <origin>  (86) 
adg

>  <m_score__min__energy>  (86) 
-10.43

>  <m_primary>  (86) 
energy

$$$$
86:0
     RDKit          3D

 42 45  0  0  0  0  0  0  0  0999 V2000
   60.0220   27.1140   45.6950 C   0  0  0  0  0  0  0  0  0  0  0  0
   58.5640   27.2260   45.7850 N   0  0  0  0  0  0  0  0  0  0  0  0
   57.7240   26.0560   45.9380 C   0  0  0  0  0  0  0  0  0  0  0  0
   57.3330   25.6290   47.2200 C   0  0  0  0  0  0  0  0  0  0  0  0
   56.5150   24.5080   47.3770 C   0  0  0  0  0  0  0  0  0  0  0  0
   56.0840   23.7920   46.2600 C   0  0  0  0  0  0  0  0  0  0  0  0
   56.4820   24.1790   44.9710 C   0  0  0  0  0  0  0  0  0  0  0  0
   55.9750   23.4380   43.7590 C   0  0  0  0  0  0  0  0  0  0  0  0
   56.1610   22.0740   43.9100 F   0  0  0  0  0  0  0  0  0  0  0  0
   54.6240   23.6710   43.5690 F   0  0  0  0  0  0  0  0  0  0  0  0
   56.6670   23.8660   42.6410 F   0  0  0  0  0  0  0  0  0  0  0  0
   57.2840   25.3250   44.8170 C   0  0  0  0  0  0  0  0  0  0  0  0
   57.9690   28.4950   45.4790 C   0  0  0  0  0  0  0  0  0  0  0  0
   56.8160   28.5290   44.7620 N   0  0  0  0  0  0  0  0  0  0  0  0
   56.2030   29.7040   44.4680 C   0  0  0  0  0  0  0  0  0  0  0  0
   55.1390   29.7060   43.7980 O   0  0  0  0  0  0  0  0  0  0  0  0
   56.7370   30.8740   44.8970 N   0  0  0  0  0  0  0  0  0  0  0  0
   57.8880   30.9030   45.6220 C   0  0  0  0  0  0  0  0  0  0  0  0
   58.5480   29.6980   45.9270 C   0  0  0  0  0  0  0  0  0  0  0  0
   59.7540   29.7170   46.8410 C   0  0  0  0  0  0  0  0  0  0  0  0
   60.6030   30.9770   46.6250 C   0  0  0  0  0  0  0  0  0  0  0  0
   59.7550   32.2260   46.6260 C   0  0  0  0  0  0  0  0  0  0  0  0
   60.2990   33.4440   47.0610 C   0  0  0  0  0  0  0  0  0  0  0  0
   59.5430   34.6170   46.9900 C   0  0  0  0  0  0  0  0  0  0  0  0
   58.2480   34.5850   46.4710 C   0  0  0  0  0  0  0  0  0  0  0  0
   57.7020   33.3810   46.0180 C   0  0  0  0  0  0  0  0  0  0  0  0
   58.4500   32.1920   46.0890 C   0  0  0  0  0  0  0  0  0  0  0  0
   60.4504   27.0811   46.7076 H   0  0  0  0  0  0  0  0  0  0  0  0
   60.2863   26.1929   45.1549 H   0  0  0  0  0  0  0  0  0  0  0  0
   60.4239   27.9839   45.1549 H   0  0  0  0  0  0  0  0  0  0  0  0
   57.6746   26.1830   48.1068 H   0  0  0  0  0  0  0  0  0  0  0  0
   56.2097   24.1887   48.3844 H   0  0  0  0  0  0  0  0  0  0  0  0
   55.4281   22.9186   46.3903 H   0  0  0  0  0  0  0  0  0  0  0  0
   57.5713   25.6545   43.8076 H   0  0  0  0  0  0  0  0  0  0  0  0
   59.4111   29.6917   47.8859 H   0  0  0  0  0  0  0  0  0  0  0  0
   60.3751   28.8386   46.6115 H   0  0  0  0  0  0  0  0  0  0  0  0
   61.3461   31.0495   47.4328 H   0  0  0  0  0  0  0  0  0  0  0  0
   61.0950   30.8962   45.6445 H   0  0  0  0  0  0  0  0  0  0  0  0
   61.3239   33.4756   47.4592 H   0  0  0  0  0  0  0  0  0  0  0  0
   59.9694   35.5673   47.3438 H   0  0  0  0  0  0  0  0  0  0  0  0
   57.6553   35.5102   46.4183 H   0  0  0  0  0  0  0  0  0  0  0  0
   56.6830   33.3631   45.6042 H   0  0  0  0  0  0  0  0  0  0  0  0
  1  2  1  0
  2  3  1  0
  3  4  2  0
  4  5  1  0
  5  6  2  0
  6  7  1  0
  7  8  1  0
  8  9  1  0
  8 10  1  0
  8 11  1  0
  7 12  2  0
  2 13  1  0
 13 14  1  0
 14 15  1  0
 15 16  2  0
 15 17  1  0
 17 18  2  0
 18 19  1  0
 19 20  1  0
 20 21  1  0
 21 22  1  0
 22 23  2  0
 23 24  1  0
 24 25  2  0
 25 26  1  0
 26 27  2  0
 12  3  1  0
 19 13  2  0
 27 22  1  0
 27 18  1  0
  1 28  1  0
  1 29  1  0
  1 30  1  0
  4 31  1  0
  5 32  1  0
  6 33  1  0
 12 34  1  0
 20 35  1  0
 20 36  1  0
 21 37  1  0
 21 38  1  0
 23 39  1  0
 24 40  1  0
 25 41  1  0
 26 42  1  0
M  CHG  1  14  -1
M  END
>  <UniqueID>  (87) 
78

>  <SMILES>  (87) 
CN(c1cccc(C(F)(F)F)c1)c1[n-]c(=O)nc2c1CCc1ccccc1-2

>  <Energy>  (87) 
60.85652831151537

>  <Genealogy>  (87) 
CN(c1cccc(C(F)(F)F)c1)c1[n-]c(=O)nc2c1CCc1ccccc1-2 (protonated)
CN(c1cccc(C(F)(F)F)c1)c1[n-]c(=O)nc2c1CCc1ccccc1-2 (3D coordinates assigned)
CN(c1cccc(C(F)(F)F)c1)c1[n-]c(=O)nc2c1CCc1ccccc1-2 (nonaromatic ring conformer: 60.85652831151537 kcal/mol)

>  <smiles>  (87) 
CN(c1cccc(C(F)(F)F)c1)c1[nH]c(=O)nc2c1CCc1ccccc1-2

>  <score_type>  (87) 
oracle

>  <origin>  (87) 
adg

>  <m_score__min__energy>  (87) 
-9.7699999999999996

>  <m_primary>  (87) 
energy

$$$$
87:0
     RDKit          3D

 46 48  0  0  0  0  0  0  0  0999 V2000
   60.7690   33.5780   46.5250 C   0  0  0  0  0  0  0  0  0  0  0  0
   59.2860   33.6850   47.5050 S   0  0  0  0  0  0  0  0  0  0  0  0
   59.2790   34.9550   48.3080 O   0  0  0  0  0  0  0  0  0  0  0  0
   59.2480   32.5160   48.4490 O   0  0  0  0  0  0  0  0  0  0  0  0
   57.8900   33.6190   46.4800 N   0  0  0  0  0  0  0  0  0  0  0  0
   57.7950   32.9080   45.2370 C   0  0  0  0  0  0  0  0  0  0  0  0
   58.4440   33.4360   44.1150 C   0  0  0  0  0  0  0  0  0  0  0  0
   58.3790   32.7790   42.8850 C   0  0  0  0  0  0  0  0  0  0  0  0
   57.6690   31.5830   42.7680 C   0  0  0  0  0  0  0  0  0  0  0  0
   57.0240   31.0350   43.8810 C   0  0  0  0  0  0  0  0  0  0  0  0
   56.1730   29.5020   43.7200 S   0  0  0  0  0  0  0  0  0  0  0  0
   56.9090   28.6400   42.7350 O   0  0  0  0  0  0  0  0  0  0  0  0
   54.7710   29.7110   43.2150 O   0  0  0  0  0  0  0  0  0  0  0  0
   56.1230   28.6920   45.2530 N   0  0  0  0  0  0  0  0  0  0  0  0
   57.0760   27.7290   45.7270 C   0  0  0  0  0  0  0  0  0  0  0  0
   58.4470   28.0390   45.8170 C   0  0  0  0  0  0  0  0  0  0  0  0
   59.3510   27.1110   46.3420 C   0  0  0  0  0  0  0  0  0  0  0  0
   58.8990   25.8740   46.7970 C   0  0  0  0  0  0  0  0  0  0  0  0
   57.5420   25.5550   46.7180 C   0  0  0  0  0  0  0  0  0  0  0  0
   56.6290   26.4600   46.1610 C   0  0  0  0  0  0  0  0  0  0  0  0
   55.2470   26.0760   46.1000 N   0  0  0  0  0  0  0  0  0  0  0  0
   54.7260   24.8360   45.5990 C   0  0  0  0  0  0  0  0  0  0  0  0
   53.4930   24.6160   45.7210 O   0  0  0  0  0  0  0  0  0  0  0  0
   55.5960   23.7910   45.0010 C   0  0  0  0  0  0  0  0  0  0  0  0
   55.8610   23.8080   43.6190 C   0  0  0  0  0  0  0  0  0  0  0  0
   56.6390   22.8030   43.0330 C   0  0  0  0  0  0  0  0  0  0  0  0
   57.1640   21.7760   43.8190 C   0  0  0  0  0  0  0  0  0  0  0  0
   56.9000   21.7420   45.1890 C   0  0  0  0  0  0  0  0  0  0  0  0
   56.1120   22.7360   45.7780 C   0  0  0  0  0  0  0  0  0  0  0  0
   57.0800   31.7020   45.1140 C   0  0  0  0  0  0  0  0  0  0  0  0
   61.6436   33.5149   47.1891 H   0  0  0  0  0  0  0  0  0  0  0  0
   60.7251   32.6807   45.8903 H   0  0  0  0  0  0  0  0  0  0  0  0
   60.8544   34.4723   45.8903 H   0  0  0  0  0  0  0  0  0  0  0  0
   59.0094   34.3755   44.2030 H   0  0  0  0  0  0  0  0  0  0  0  0
   58.8877   33.2042   42.0073 H   0  0  0  0  0  0  0  0  0  0  0  0
   57.6167   31.0696   41.7966 H   0  0  0  0  0  0  0  0  0  0  0  0
   58.8090   29.0186   45.4716 H   0  0  0  0  0  0  0  0  0  0  0  0
   60.4216   27.3578   46.3960 H   0  0  0  0  0  0  0  0  0  0  0  0
   59.6110   25.1490   47.2183 H   0  0  0  0  0  0  0  0  0  0  0  0
   57.1868   24.5851   47.0962 H   0  0  0  0  0  0  0  0  0  0  0  0
   55.4537   24.6170   42.9948 H   0  0  0  0  0  0  0  0  0  0  0  0
   56.8371   22.8225   41.9512 H   0  0  0  0  0  0  0  0  0  0  0  0
   57.7856   20.9938   43.3588 H   0  0  0  0  0  0  0  0  0  0  0  0
   57.3128   20.9312   45.8072 H   0  0  0  0  0  0  0  0  0  0  0  0
   55.8938   22.6934   46.8553 H   0  0  0  0  0  0  0  0  0  0  0  0
   56.5628   31.2805   45.9885 H   0  0  0  0  0  0  0  0  0  0  0  0
  1  2  1  0
  2  3  2  0
  2  4  2  0
  2  5  1  0
  5  6  1  0
  6  7  2  0
  7  8  1  0
  8  9  2  0
  9 10  1  0
 10 11  1  0
 11 12  2  0
 11 13  2  0
 11 14  1  0
 14 15  1  0
 15 16  2  0
 16 17  1  0
 17 18  2  0
 18 19  1  0
 19 20  2  0
 20 21  1  0
 21 22  1  0
 22 23  2  0
 22 24  1  0
 24 25  2  0
 25 26  1  0
 26 27  2  0
 27 28  1  0
 28 29  2  0
 10 30  2  0
 30  6  1  0
 20 15  1  0
 29 24  1  0
  1 31  1  0
  1 32  1  0
  1 33  1  0
  7 34  1  0
  8 35  1  0
  9 36  1  0
 16 37  1  0
 17 38  1  0
 18 39  1  0
 19 40  1  0
 25 41  1  0
 26 42  1  0
 27 43  1  0
 28 44  1  0
 29 45  1  0
 30 46  1  0
M  CHG  3   5  -1  14  -1  21  -1
M  END
>  <UniqueID>  (88) 
79

>  <SMILES>  (88) 
CS(=O)(=O)[N-]c1cccc(S(=O)(=O)[N-]c2ccccc2[N-]C(=O)c2ccccc2)c1

>  <Energy>  (88) 
56.842896407151315

>  <Genealogy>  (88) 
CS(=O)(=O)[N-]c1cccc(S(=O)(=O)[N-]c2ccccc2[N-]C(=O)c2ccccc2)c1 (protonated)
CS(=O)(=O)[N-]c1cccc(S(=O)(=O)[N-]c2ccccc2[N-]C(=O)c2ccccc2)c1 (3D coordinates assigned)
CS(=O)(=O)[N-]c1cccc(S(=O)(=O)[N-]c2ccccc2[N-]C(=O)c2ccccc2)c1 (optimized conformer: 56.842896407151315 kcal/mol)

>  <smiles>  (88) 
CS(=O)(=O)Nc1cccc(S(=O)(=O)Nc2ccccc2NC(=O)c2ccccc2)c1

>  <score_type>  (88) 
oracle

>  <origin>  (88) 
adg

>  <m_score__min__energy>  (88) 
-14.220000000000001

>  <m_primary>  (88) 
energy

$$$$
88:0
     RDKit          3D

 31 32  0  0  0  0  0  0  0  0999 V2000
   56.0179   23.0301   45.4478 H   0  0  0  0  0  0  0  0  0  0  0  0
   56.0160   24.1210   45.5890 C   0  0  0  0  0  0  0  0  0  0  0  0
   57.3730   25.1030   45.7420 S   0  0  0  0  0  0  0  0  0  0  0  0
   56.4660   26.5180   45.8800 C   0  0  0  0  0  0  0  0  0  0  0  0
   56.9300   27.7160   46.0760 N   0  0  0  0  0  0  0  0  0  0  0  0
   56.7060   28.8620   45.2450 C   0  0  0  0  0  0  0  0  0  0  0  0
   55.5250   29.1280   44.8940 O   0  0  0  0  0  0  0  0  0  0  0  0
   57.8580   29.5970   44.6060 C   0  0  0  0  0  0  0  0  0  0  0  0
   57.7811   29.4973   43.5132 H   0  0  0  0  0  0  0  0  0  0  0  0
   58.7935   29.1552   44.9798 H   0  0  0  0  0  0  0  0  0  0  0  0
   57.8580   31.0660   44.9640 C   0  0  0  0  0  0  0  0  0  0  0  0
   58.1540   31.4540   46.2820 C   0  0  0  0  0  0  0  0  0  0  0  0
   58.3613   30.6873   47.0431 H   0  0  0  0  0  0  0  0  0  0  0  0
   58.1870   32.8060   46.6330 C   0  0  0  0  0  0  0  0  0  0  0  0
   58.4134   33.1001   47.6685 H   0  0  0  0  0  0  0  0  0  0  0  0
   57.9330   33.7820   45.6710 C   0  0  0  0  0  0  0  0  0  0  0  0
   57.9548   34.8457   45.9503 H   0  0  0  0  0  0  0  0  0  0  0  0
   57.6510   33.4140   44.3540 C   0  0  0  0  0  0  0  0  0  0  0  0
   57.4564   34.1903   43.5994 H   0  0  0  0  0  0  0  0  0  0  0  0
   57.6140   32.0530   43.9850 C   0  0  0  0  0  0  0  0  0  0  0  0
   57.3430   31.6530   42.6670 O   0  0  0  0  0  0  0  0  0  0  0  0
   57.8050   32.3310   41.5030 C   0  0  0  0  0  0  0  0  0  0  0  0
   58.4013   33.2061   41.8008 H   0  0  0  0  0  0  0  0  0  0  0  0
   58.4275   31.6496   40.9046 H   0  0  0  0  0  0  0  0  0  0  0  0
   56.9431   32.6611   40.9046 H   0  0  0  0  0  0  0  0  0  0  0  0
   55.1410   26.2630   45.8300 N   0  0  0  0  0  0  0  0  0  0  0  0
   54.8890   24.9360   45.6730 C   0  0  0  0  0  0  0  0  0  0  0  0
   53.4980   24.4080   45.5450 C   0  0  0  0  0  0  0  0  0  0  0  0
   53.0734   24.2468   46.5468 H   0  0  0  0  0  0  0  0  0  0  0  0
   52.8793   25.1338   44.9969 H   0  0  0  0  0  0  0  0  0  0  0  0
   53.5167   23.4544   44.9969 H   0  0  0  0  0  0  0  0  0  0  0  0
  1  2  1  0
  2  3  1  0
  3  4  1  0
  4  5  2  0
  5  6  1  0
  6  7  2  0
  6  8  1  0
  8  9  1  0
  8 10  1  0
  8 11  1  0
 11 12  2  0
 12 13  1  0
 12 14  1  0
 14 15  1  0
 14 16  2  0
 16 17  1  0
 16 18  1  0
 18 19  1  0
 18 20  2  0
 20 21  1  0
 21 22  1  0
 22 23  1  0
 22 24  1  0
 22 25  1  0
  4 26  1  0
 26 27  1  0
 27 28  1  0
 28 29  1  0
 28 30  1  0
 28 31  1  0
 27  2  2  0
 20 11  1  0
M  CHG  1  26  -1
M  END
>  <UniqueID>  (89) 
80

>  <SMILES>  (89) 
COc1ccccc1CC(=O)/N=c1/[n-]c(C)cs1

>  <Energy>  (89) 
66.74733235038026

>  <Genealogy>  (89) 
COc1ccccc1CC(=O)N=c1[n-]c(C)cs1 (protonated)
COc1ccccc1CC(=O)/N=c1/[n-]c(C)cs1 (cis-trans isomerization)
COc1ccccc1CC(=O)/N=c1/[n-]c(C)cs1 (3D coordinates assigned)
COc1ccccc1CC(=O)/N=c1/[n-]c(C)cs1 (optimized conformer: 66.74733235038026 kcal/mol)

>  <smiles>  (89) 
COc1ccccc1CC(=O)N=c1[nH]c(C)cs1

>  <score_type>  (89) 
oracle

>  <origin>  (89) 
adg

>  <m_score__min__energy>  (89) 
-8.5899999999999999

>  <m_primary>  (89) 
energy

$$$$
89:0
     RDKit          3D

 68 71  0  0  0  0  0  0  0  0999 V2000
   65.3460   33.6750   50.5270 C   0  0  0  0  0  0  0  0  0  0  0  0
   64.4000   32.9190   49.6420 C   0  0  0  0  0  0  0  0  0  0  0  0
   64.0790   33.4150   48.3700 C   0  0  0  0  0  0  0  0  0  0  0  0
   63.2260   32.6940   47.5270 C   0  0  0  0  0  0  0  0  0  0  0  0
   62.7160   31.4550   47.9300 C   0  0  0  0  0  0  0  0  0  0  0  0
   61.8020   30.7600   47.0670 N   0  0  0  0  0  0  0  0  0  0  0  0
   60.7080   30.1400   47.4110 C   0  0  0  0  0  0  0  0  0  0  0  0
   60.3460   30.1450   48.7190 N   0  0  0  0  0  0  0  0  0  0  0  0
   59.2130   29.5180   49.1290 C   0  0  0  0  0  0  0  0  0  0  0  0
   58.8650   29.5140   50.3820 N   0  0  0  0  0  0  0  0  0  0  0  0
   58.9690   30.6630   51.2850 C   0  0  0  0  0  0  0  0  0  0  0  0
   60.4380   31.1370   51.3490 C   0  0  0  0  0  0  0  0  0  0  0  0
   60.6940   32.2910   50.3720 C   0  0  0  0  0  0  0  0  0  0  0  0
   59.8800   33.4860   50.7120 N   0  0  0  0  0  0  0  0  0  0  0  0
   59.7980   34.4220   49.5690 C   0  0  0  0  0  0  0  0  0  0  0  0
   59.4000   33.6950   48.3100 C   0  0  0  0  0  0  0  0  0  0  0  0
   60.2250   33.7270   47.1740 C   0  0  0  0  0  0  0  0  0  0  0  0
   59.8310   33.0830   45.9980 C   0  0  0  0  0  0  0  0  0  0  0  0
   58.6020   32.4090   45.9390 C   0  0  0  0  0  0  0  0  0  0  0  0
   58.0960   31.5880   44.4670 S   0  0  0  0  0  0  0  0  0  0  0  0
   58.1670   32.7240   43.1010 C   0  0  0  0  0  0  0  0  0  0  0  0
   56.6900   31.0780   44.6150 O   0  0  0  0  0  0  0  0  0  0  0  0
   59.0090   30.4230   44.2050 O   0  0  0  0  0  0  0  0  0  0  0  0
   57.7780   32.3760   47.0710 C   0  0  0  0  0  0  0  0  0  0  0  0
   58.1720   33.0190   48.2480 C   0  0  0  0  0  0  0  0  0  0  0  0
   58.5340   33.1680   51.2620 C   0  0  0  0  0  0  0  0  0  0  0  0
   58.0190   31.7910   50.8210 C   0  0  0  0  0  0  0  0  0  0  0  0
   58.4300   28.8890   48.2190 N   0  0  0  0  0  0  0  0  0  0  0  0
   58.7680   28.8900   46.9020 C   0  0  0  0  0  0  0  0  0  0  0  0
   58.0170   28.2950   46.0240 N   0  0  0  0  0  0  0  0  0  0  0  0
   58.0630   26.8620   45.7370 C   0  0  0  0  0  0  0  0  0  0  0  0
   57.3150   26.0840   46.8180 C   0  0  0  0  0  0  0  0  0  0  0  0
   55.9070   25.7920   46.3990 C   0  0  0  0  0  0  0  0  0  0  0  0
   55.1520   26.7250   46.0200 O   0  0  0  0  0  0  0  0  0  0  0  0
   55.4140   24.4960   46.4730 O   0  0  0  0  0  0  0  0  0  0  0  0
   59.9030   29.5240   46.4950 N   0  0  0  0  0  0  0  0  0  0  0  0
   63.0200   30.9670   49.2110 C   0  0  0  0  0  0  0  0  0  0  0  0
   63.8730   31.6860   50.0550 C   0  0  0  0  0  0  0  0  0  0  0  0
   65.0992   33.4778   51.5807 H   0  0  0  0  0  0  0  0  0  0  0  0
   66.3770   33.3492   50.3247 H   0  0  0  0  0  0  0  0  0  0  0  0
   65.2556   34.7524   50.3247 H   0  0  0  0  0  0  0  0  0  0  0  0
   64.4993   34.3743   48.0338 H   0  0  0  0  0  0  0  0  0  0  0  0
   62.9551   33.1033   46.5426 H   0  0  0  0  0  0  0  0  0  0  0  0
   58.6612   30.3706   52.2998 H   0  0  0  0  0  0  0  0  0  0  0  0
   60.6607   31.4768   52.3712 H   0  0  0  0  0  0  0  0  0  0  0  0
   61.0873   30.2944   51.0690 H   0  0  0  0  0  0  0  0  0  0  0  0
   61.7594   32.5620   50.4109 H   0  0  0  0  0  0  0  0  0  0  0  0
   60.4101   31.9570   49.3631 H   0  0  0  0  0  0  0  0  0  0  0  0
   59.0491   35.1968   49.7902 H   0  0  0  0  0  0  0  0  0  0  0  0
   60.7869   34.8785   49.4152 H   0  0  0  0  0  0  0  0  0  0  0  0
   61.1858   34.2614   47.2100 H   0  0  0  0  0  0  0  0  0  0  0  0
   60.4870   33.1046   45.1153 H   0  0  0  0  0  0  0  0  0  0  0  0
   58.2313   33.7535   43.4832 H   0  0  0  0  0  0  0  0  0  0  0  0
   59.0532   32.5046   42.4874 H   0  0  0  0  0  0  0  0  0  0  0  0
   57.2604   32.6167   42.4874 H   0  0  0  0  0  0  0  0  0  0  0  0
   56.8170   31.8420   47.0337 H   0  0  0  0  0  0  0  0  0  0  0  0
   57.5157   32.9949   49.1305 H   0  0  0  0  0  0  0  0  0  0  0  0
   58.5903   33.1865   52.3604 H   0  0  0  0  0  0  0  0  0  0  0  0
   57.8327   33.9222   50.8755 H   0  0  0  0  0  0  0  0  0  0  0  0
   57.0234   31.6237   51.2578 H   0  0  0  0  0  0  0  0  0  0  0  0
   57.9689   31.7738   49.7223 H   0  0  0  0  0  0  0  0  0  0  0  0
   57.5929   26.6715   44.7609 H   0  0  0  0  0  0  0  0  0  0  0  0
   59.1124   26.5328   45.7186 H   0  0  0  0  0  0  0  0  0  0  0  0
   57.8383   25.1345   47.0037 H   0  0  0  0  0  0  0  0  0  0  0  0
   57.2867   26.6964   47.7313 H   0  0  0  0  0  0  0  0  0  0  0  0
   60.1150   29.5540   45.4740 H   0  0  0  0  0  0  0  0  0  0  0  0
   62.5858   30.0157   49.5522 H   0  0  0  0  0  0  0  0  0  0  0  0
   64.1314   31.2835   51.0456 H   0  0  0  0  0  0  0  0  0  0  0  0
  1  2  1  0
  2  3  2  0
  3  4  1  0
  4  5  2  0
  5  6  1  0
  6  7  2  3
  7  8  1  0
  8  9  1  0
  9 10  2  3
 10 11  1  0
 11 12  1  0
 12 13  1  0
 13 14  1  0
 14 15  1  0
 15 16  1  0
 16 17  2  0
 17 18  1  0
 18 19  2  0
 19 20  1  0
 20 21  1  0
 20 22  2  0
 20 23  2  0
 19 24  1  0
 24 25  2  0
 14 26  1  0
 26 27  1  0
  9 28  1  0
 28 29  1  0
 29 30  2  3
 30 31  1  0
 31 32  1  0
 32 33  1  0
 33 34  2  0
 33 35  1  0
 29 36  1  0
  5 37  1  0
 37 38  2  0
 38  2  1  0
 36  7  1  0
 27 11  1  0
 25 16  1  0
  1 39  1  0
  1 40  1  0
  1 41  1  0
  3 42  1  0
  4 43  1  0
 11 44  1  0
 12 45  1  0
 12 46  1  0
 13 47  1  0
 13 48  1  0
 15 49  1  0
 15 50  1  0
 17 51  1  0
 18 52  1  0
 21 53  1  0
 21 54  1  0
 21 55  1  0
 24 56  1  0
 25 57  1  0
 26 58  1  0
 26 59  1  0
 27 60  1  0
 27 61  1  0
 31 62  1  0
 31 63  1  0
 32 64  1  0
 32 65  1  0
 36 66  1  0
 37 67  1  0
 38 68  1  0
M  CHG  3   8  -1  28  -1  35  -1
M  END
>  <UniqueID>  (90) 
81

>  <SMILES>  (90) 
Cc1ccc(N=c2[n-]c(=NC3CCN(Cc4ccc(S(C)(=O)=O)cc4)CC3)[n-]c(=NCCC(=O)[O-])[nH]2)cc1

>  <Energy>  (90) 
80.62036644796851

>  <Genealogy>  (90) 
Cc1ccc(N=c2[n-]c(=NC3CCN(Cc4ccc(S(C)(=O)=O)cc4)CC3)[n-]c(=NCCC(=O)[O-])[nH]2)cc1 (protonated)
Cc1ccc(N=c2[n-]c(=NC3CCN(Cc4ccc(S(C)(=O)=O)cc4)CC3)[n-]c(=NCCC(=O)[O-])[nH]2)cc1 (3D coordinates assigned)
Cc1ccc(N=c2[n-]c(=NC3CCN(Cc4ccc(S(C)(=O)=O)cc4)CC3)[n-]c(=NCCC(=O)[O-])[nH]2)cc1 (nonaromatic ring conformer: 80.62036644796851 kcal/mol)

>  <smiles>  (90) 
Cc1ccc(N=c2[nH]c(=NCCC(=O)O)[nH]c(=NC3CCN(Cc4ccc(S(C)(=O)=O)cc4)CC3)[nH]2)cc1

>  <score_type>  (90) 
oracle

>  <origin>  (90) 
adg

>  <m_score__min__energy>  (90) 
-15.52

>  <m_primary>  (90) 
energy

$$$$
90:0
     RDKit          3D

 56 58  0  0  0  0  0  0  0  0999 V2000
   54.3800   28.5770   51.3520 H   0  0  0  0  0  0  0  0  0  0  0  0
   54.6410   28.9570   52.2570 O   0  0  0  0  0  0  0  0  0  0  0  0
   55.7130   29.8410   52.3980 C   0  0  0  0  0  0  0  0  0  0  0  0
   56.9310   29.3740   52.9020 C   0  0  0  0  0  0  0  0  0  0  0  0
   57.0479   28.3097   53.1542 H   0  0  0  0  0  0  0  0  0  0  0  0
   58.0040   30.2580   53.0870 C   0  0  0  0  0  0  0  0  0  0  0  0
   58.9549   29.8855   53.4958 H   0  0  0  0  0  0  0  0  0  0  0  0
   57.8720   31.6140   52.7540 C   0  0  0  0  0  0  0  0  0  0  0  0
   59.0230   32.5680   52.9730 C   0  0  0  0  0  0  0  0  0  0  0  0
   59.9633   31.9982   52.9397 H   0  0  0  0  0  0  0  0  0  0  0  0
   58.8730   33.0499   53.9504 H   0  0  0  0  0  0  0  0  0  0  0  0
   59.0840   33.6790   51.9130 C   0  0  0  0  0  0  0  0  0  0  0  0
   59.4483   34.6036   52.3846 H   0  0  0  0  0  0  0  0  0  0  0  0
   58.0733   33.8211   51.5028 H   0  0  0  0  0  0  0  0  0  0  0  0
   60.0000   33.3130   50.7890 C   0  0  0  0  0  0  0  0  0  0  0  0
   60.7720   34.1820   50.3020 O   0  0  0  0  0  0  0  0  0  0  0  0
   59.9530   31.9890   50.2460 N   0  0  0  0  0  0  0  0  0  0  0  0
   59.2750   31.5630   49.2160 C   0  0  0  0  0  0  0  0  0  0  0  0
   59.5470   30.2670   48.5440 C   0  0  0  0  0  0  0  0  0  0  0  0
   59.8400   29.2470   49.2170 O   0  0  0  0  0  0  0  0  0  0  0  0
   59.3990   30.1590   47.1250 N   0  0  0  0  0  0  0  0  0  0  0  0
   60.5070   29.9110   46.2100 C   0  0  0  0  0  0  0  0  0  0  0  0
   60.5228   30.7003   45.4440 H   0  0  0  0  0  0  0  0  0  0  0  0
   61.4425   29.9120   46.7887 H   0  0  0  0  0  0  0  0  0  0  0  0
   60.3650   28.5470   45.5200 C   0  0  0  0  0  0  0  0  0  0  0  0
   60.6452   28.6511   44.4614 H   0  0  0  0  0  0  0  0  0  0  0  0
   61.0254   27.8312   46.0313 H   0  0  0  0  0  0  0  0  0  0  0  0
   58.9520   28.0300   45.6040 C   0  0  0  0  0  0  0  0  0  0  0  0
   57.8990   28.7650   45.0380 C   0  0  0  0  0  0  0  0  0  0  0  0
   58.1097   29.6987   44.4959 H   0  0  0  0  0  0  0  0  0  0  0  0
   56.5780   28.3100   45.1630 C   0  0  0  0  0  0  0  0  0  0  0  0
   55.7559   28.8848   44.7116 H   0  0  0  0  0  0  0  0  0  0  0  0
   56.3010   27.1270   45.8600 C   0  0  0  0  0  0  0  0  0  0  0  0
   54.9860   26.6840   45.9930 O   0  0  0  0  0  0  0  0  0  0  0  0
   57.3470   26.3950   46.4300 C   0  0  0  0  0  0  0  0  0  0  0  0
   57.1321   25.4659   46.9782 H   0  0  0  0  0  0  0  0  0  0  0  0
   58.6680   26.8430   46.3040 C   0  0  0  0  0  0  0  0  0  0  0  0
   59.4876   26.2639   46.7546 H   0  0  0  0  0  0  0  0  0  0  0  0
   58.1430   32.4250   48.7250 C   0  0  0  0  0  0  0  0  0  0  0  0
   57.2705   31.7915   48.5071 H   0  0  0  0  0  0  0  0  0  0  0  0
   57.8850   33.1600   49.5017 H   0  0  0  0  0  0  0  0  0  0  0  0
   58.5570   33.1530   47.4720 C   0  0  0  0  0  0  0  0  0  0  0  0
   57.8330   32.9740   46.2790 C   0  0  0  0  0  0  0  0  0  0  0  0
   56.9894   32.2687   46.2502 H   0  0  0  0  0  0  0  0  0  0  0  0
   58.1830   33.6910   45.1280 C   0  0  0  0  0  0  0  0  0  0  0  0
   57.6160   33.5447   44.1968 H   0  0  0  0  0  0  0  0  0  0  0  0
   59.2570   34.5970   45.1600 C   0  0  0  0  0  0  0  0  0  0  0  0
   59.5313   35.1578   44.2543 H   0  0  0  0  0  0  0  0  0  0  0  0
   59.9770   34.7850   46.3450 C   0  0  0  0  0  0  0  0  0  0  0  0
   60.8193   35.4920   46.3712 H   0  0  0  0  0  0  0  0  0  0  0  0
   59.6230   34.0700   47.5010 C   0  0  0  0  0  0  0  0  0  0  0  0
   60.1828   34.2282   48.4346 H   0  0  0  0  0  0  0  0  0  0  0  0
   56.6540   32.0780   52.2300 C   0  0  0  0  0  0  0  0  0  0  0  0
   56.5433   33.1374   51.9553 H   0  0  0  0  0  0  0  0  0  0  0  0
   55.5780   31.1940   52.0560 C   0  0  0  0  0  0  0  0  0  0  0  0
   54.6251   31.5640   51.6498 H   0  0  0  0  0  0  0  0  0  0  0  0
  1  2  1  0
  2  3  1  0
  3  4  2  0
  4  5  1  0
  4  6  1  0
  6  7  1  0
  6  8  2  0
  8  9  1  0
  9 10  1  0
  9 11  1  0
  9 12  1  0
 12 13  1  0
 12 14  1  0
 12 15  1  0
 15 16  2  0
 15 17  1  0
 17 18  2  0
 18 19  1  0
 19 20  2  0
 19 21  1  0
 21 22  1  0
 22 23  1  0
 22 24  1  0
 22 25  1  0
 25 26  1  0
 25 27  1  0
 25 28  1  0
 28 29  2  0
 29 30  1  0
 29 31  1  0
 31 32  1  0
 31 33  2  0
 33 34  1  0
 33 35  1  0
 35 36  1  0
 35 37  2  0
 37 38  1  0
 18 39  1  0
 39 40  1  0
 39 41  1  0
 39 42  1  0
 42 43  2  0
 43 44  1  0
 43 45  1  0
 45 46  1  0
 45 47  2  0
 47 48  1  0
 47 49  1  0
 49 50  1  0
 49 51  2  0
 51 52  1  0
  8 53  1  0
 53 54  1  0
 53 55  2  0
 55 56  1  0
 55  3  1  0
 37 28  1  0
 51 42  1  0
M  CHG  2  21  -1  34  -1
M  END
>  <UniqueID>  (91) 
82

>  <SMILES>  (91) 
O=C(CCc1ccc(O)cc1)/N=C(/Cc1ccccc1)C(=O)[N-]CCc1ccc([O-])cc1

>  <Energy>  (91) 
52.32597240308906

>  <Genealogy>  (91) 
O=C(CCc1ccc(O)cc1)N=C(Cc1ccccc1)C(=O)[N-]CCc1ccc([O-])cc1 (protonated)
O=C(CCc1ccc(O)cc1)/N=C(/Cc1ccccc1)C(=O)[N-]CCc1ccc([O-])cc1 (cis-trans isomerization)
O=C(CCc1ccc(O)cc1)/N=C(/Cc1ccccc1)C(=O)[N-]CCc1ccc([O-])cc1 (3D coordinates assigned)
O=C(CCc1ccc(O)cc1)/N=C(/Cc1ccccc1)C(=O)[N-]CCc1ccc([O-])cc1 (optimized conformer: 52.32597240308906 kcal/mol)

>  <smiles>  (91) 
O=C(CCc1ccc(O)cc1)N=C(Cc1ccccc1)C(=O)NCCc1ccc(O)cc1

>  <score_type>  (91) 
oracle

>  <origin>  (91) 
adg

>  <m_score__min__energy>  (91) 
-13.31

>  <m_primary>  (91) 
energy

$$$$
91:0
     RDKit          3D

 52 55  0  0  0  0  0  0  0  0999 V2000
   61.9620   31.3550   53.4010 C   0  0  0  0  0  0  0  0  0  0  0  0
   62.4410   30.1080   52.9070 O   0  0  0  0  0  0  0  0  0  0  0  0
   61.8880   29.4250   51.8150 C   0  0  0  0  0  0  0  0  0  0  0  0
   61.5130   28.0700   51.8820 C   0  0  0  0  0  0  0  0  0  0  0  0
   60.9620   27.4340   50.7660 C   0  0  0  0  0  0  0  0  0  0  0  0
   60.7590   28.1450   49.5700 C   0  0  0  0  0  0  0  0  0  0  0  0
   60.2080   27.5070   48.4060 N   0  0  0  0  0  0  0  0  0  0  0  0
   59.2710   28.1390   47.5200 C   0  0  0  0  0  0  0  0  0  0  0  0
   59.2290   29.7870   47.1840 S   0  0  0  0  0  0  0  0  0  0  0  0
   58.0670   29.7040   45.9700 C   0  0  0  0  0  0  0  0  0  0  0  0
   57.4700   30.8860   45.3080 C   0  0  0  0  0  0  0  0  0  0  0  0
   56.4210   30.7410   44.6250 O   0  0  0  0  0  0  0  0  0  0  0  0
   58.0450   32.2430   45.4660 C   0  0  0  0  0  0  0  0  0  0  0  0
   58.5210   32.9630   44.3550 C   0  0  0  0  0  0  0  0  0  0  0  0
   59.0520   34.2470   44.5180 C   0  0  0  0  0  0  0  0  0  0  0  0
   59.1060   34.8270   45.7870 C   0  0  0  0  0  0  0  0  0  0  0  0
   58.6230   34.1280   46.8950 C   0  0  0  0  0  0  0  0  0  0  0  0
   58.0900   32.8450   46.7370 C   0  0  0  0  0  0  0  0  0  0  0  0
   57.6940   28.3640   45.8090 C   0  0  0  0  0  0  0  0  0  0  0  0
   56.6920   27.9410   44.8750 N   0  0  0  0  0  0  0  0  0  0  0  0
   58.3880   27.4760   46.6630 C   0  0  0  0  0  0  0  0  0  0  0  0
   58.2210   26.0070   46.6540 C   0  0  0  0  0  0  0  0  0  0  0  0
   59.1900   25.2670   46.9710 O   0  0  0  0  0  0  0  0  0  0  0  0
   56.9860   25.4330   46.2090 N   0  0  0  0  0  0  0  0  0  0  0  0
   56.8300   24.3120   45.3260 C   0  0  0  0  0  0  0  0  0  0  0  0
   56.7820   24.4630   43.9270 C   0  0  0  0  0  0  0  0  0  0  0  0
   56.6530   23.3400   43.1030 C   0  0  0  0  0  0  0  0  0  0  0  0
   56.5850   22.0620   43.6640 C   0  0  0  0  0  0  0  0  0  0  0  0
   56.6570   21.9040   45.0510 C   0  0  0  0  0  0  0  0  0  0  0  0
   56.7870   23.0240   45.8770 C   0  0  0  0  0  0  0  0  0  0  0  0
   61.1560   29.4870   49.4990 C   0  0  0  0  0  0  0  0  0  0  0  0
   61.7080   30.1230   50.6150 C   0  0  0  0  0  0  0  0  0  0  0  0
   61.9677   31.3402   54.5009 H   0  0  0  0  0  0  0  0  0  0  0  0
   62.6126   32.1660   53.0418 H   0  0  0  0  0  0  0  0  0  0  0  0
   60.9358   31.5219   53.0418 H   0  0  0  0  0  0  0  0  0  0  0  0
   61.6543   27.5087   52.8174 H   0  0  0  0  0  0  0  0  0  0  0  0
   60.6855   26.3709   50.8237 H   0  0  0  0  0  0  0  0  0  0  0  0
   60.5890   26.5720   48.1340 H   0  0  0  0  0  0  0  0  0  0  0  0
   58.4754   32.5136   43.3520 H   0  0  0  0  0  0  0  0  0  0  0  0
   59.4276   34.8007   43.6449 H   0  0  0  0  0  0  0  0  0  0  0  0
   59.5290   35.8345   45.9138 H   0  0  0  0  0  0  0  0  0  0  0  0
   58.6619   34.5873   47.8937 H   0  0  0  0  0  0  0  0  0  0  0  0
   57.7032   32.3026   47.6123 H   0  0  0  0  0  0  0  0  0  0  0  0
   56.3660   26.9510   44.8430 H   0  0  0  0  0  0  0  0  0  0  0  0
   56.2770   28.6050   44.1860 H   0  0  0  0  0  0  0  0  0  0  0  0
   56.8461   25.4664   43.4809 H   0  0  0  0  0  0  0  0  0  0  0  0
   56.6050   23.4632   42.0110 H   0  0  0  0  0  0  0  0  0  0  0  0
   56.4749   21.1810   43.0146 H   0  0  0  0  0  0  0  0  0  0  0  0
   56.6113   20.8976   45.4927 H   0  0  0  0  0  0  0  0  0  0  0  0
   56.8560   22.8937   46.9671 H   0  0  0  0  0  0  0  0  0  0  0  0
   61.0325   30.0440   48.5585 H   0  0  0  0  0  0  0  0  0  0  0  0
   62.0033   31.1806   50.5496 H   0  0  0  0  0  0  0  0  0  0  0  0
  1  2  1  0
  2  3  1  0
  3  4  2  0
  4  5  1  0
  5  6  2  0
  6  7  1  0
  7  8  1  0
  8  9  1  0
  9 10  1  0
 10 11  1  0
 11 12  2  0
 11 13  1  0
 13 14  2  0
 14 15  1  0
 15 16  2  0
 16 17  1  0
 17 18  2  0
 10 19  2  0
 19 20  1  0
 19 21  1  0
 21 22  1  0
 22 23  2  0
 22 24  1  0
 24 25  1  0
 25 26  2  0
 26 27  1  0
 27 28  2  0
 28 29  1  0
 29 30  2  0
  6 31  1  0
 31 32  2  0
 32  3  1  0
 21  8  2  0
 30 25  1  0
 18 13  1  0
  1 33  1  0
  1 34  1  0
  1 35  1  0
  4 36  1  0
  5 37  1  0
  7 38  1  0
 14 39  1  0
 15 40  1  0
 16 41  1  0
 17 42  1  0
 18 43  1  0
 20 44  1  0
 20 45  1  0
 26 46  1  0
 27 47  1  0
 28 48  1  0
 29 49  1  0
 30 50  1  0
 31 51  1  0
 32 52  1  0
M  CHG  1  24  -1
M  END
>  <UniqueID>  (92) 
83

>  <SMILES>  (92) 
COc1ccc(Nc2sc(C(=O)c3ccccc3)c(N)c2C(=O)[N-]c2ccccc2)cc1

>  <Energy>  (92) 
100.83318367594507

>  <Genealogy>  (92) 
COc1ccc(Nc2sc(C(=O)c3ccccc3)c(N)c2C(=O)[N-]c2ccccc2)cc1 (protonated)
COc1ccc(Nc2sc(C(=O)c3ccccc3)c(N)c2C(=O)[N-]c2ccccc2)cc1 (3D coordinates assigned)
COc1ccc(Nc2sc(C(=O)c3ccccc3)c(N)c2C(=O)[N-]c2ccccc2)cc1 (optimized conformer: 100.83318367594507 kcal/mol)

>  <smiles>  (92) 
COc1ccc(Nc2sc(C(=O)c3ccccc3)c(N)c2C(=O)Nc2ccccc2)cc1

>  <score_type>  (92) 
oracle

>  <origin>  (92) 
adg

>  <m_score__min__energy>  (92) 
-10.48

>  <m_primary>  (92) 
energy

$$$$
92:0
     RDKit          3D

 57 60  0  0  0  0  0  0  0  0999 V2000
   56.4480   29.6400   42.6300 C   0  0  0  0  0  0  0  0  0  0  0  0
   56.2730   30.8150   43.4140 O   0  0  0  0  0  0  0  0  0  0  0  0
   57.1550   31.2440   44.4190 C   0  0  0  0  0  0  0  0  0  0  0  0
   57.7880   32.5010   44.3630 C   0  0  0  0  0  0  0  0  0  0  0  0
   58.6190   32.9220   45.4030 C   0  0  0  0  0  0  0  0  0  0  0  0
   58.8250   32.1040   46.5210 C   0  0  0  0  0  0  0  0  0  0  0  0
   59.7330   32.5620   47.6320 C   0  0  0  0  0  0  0  0  0  0  0  0
   60.2440   33.9280   47.3720 N   0  0  0  0  0  0  0  0  0  0  0  0
   61.2790   33.9880   46.3170 C   0  0  0  0  0  0  0  0  0  0  0  0
   62.5690   33.2480   46.7080 C   0  0  0  0  0  0  0  0  0  0  0  0
   62.9620   33.4830   48.1450 C   0  0  0  0  0  0  0  0  0  0  0  0
   64.2190   33.0470   48.5860 C   0  0  0  0  0  0  0  0  0  0  0  0
   64.6020   33.2020   49.9310 C   0  0  0  0  0  0  0  0  0  0  0  0
   65.8550   32.7790   50.4030 O   0  0  0  0  0  0  0  0  0  0  0  0
   66.1240   31.4850   50.9300 C   0  0  0  0  0  0  0  0  0  0  0  0
   63.7140   33.7950   50.8410 C   0  0  0  0  0  0  0  0  0  0  0  0
   64.1290   33.9420   52.1760 O   0  0  0  0  0  0  0  0  0  0  0  0
   65.1140   34.8710   52.6170 C   0  0  0  0  0  0  0  0  0  0  0  0
   62.4490   34.2230   50.4000 C   0  0  0  0  0  0  0  0  0  0  0  0
   62.0610   34.0530   49.0640 C   0  0  0  0  0  0  0  0  0  0  0  0
   60.7210   34.5810   48.6060 C   0  0  0  0  0  0  0  0  0  0  0  0
   58.2070   30.8470   46.5770 C   0  0  0  0  0  0  0  0  0  0  0  0
   57.3940   30.4020   45.5250 C   0  0  0  0  0  0  0  0  0  0  0  0
   56.7800   29.1060   45.6220 N   0  0  0  0  0  0  0  0  0  0  0  0
   57.5310   27.8890   45.7440 C   0  0  0  0  0  0  0  0  0  0  0  0
   58.7780   27.9260   45.9260 O   0  0  0  0  0  0  0  0  0  0  0  0
   56.8450   26.5910   45.6870 C   0  0  0  0  0  0  0  0  0  0  0  0
   57.4150   25.3870   45.3200 C   0  0  0  0  0  0  0  0  0  0  0  0
   56.4040   24.4540   45.4110 C   0  0  0  0  0  0  0  0  0  0  0  0
   55.2830   25.1440   45.8260 C   0  0  0  0  0  0  0  0  0  0  0  0
   55.5770   26.4140   45.9820 O   0  0  0  0  0  0  0  0  0  0  0  0
   56.5772   28.7723   43.2936 H   0  0  0  0  0  0  0  0  0  0  0  0
   55.5627   29.4875   41.9952 H   0  0  0  0  0  0  0  0  0  0  0  0
   57.3394   29.7521   41.9952 H   0  0  0  0  0  0  0  0  0  0  0  0
   57.6265   33.1556   43.4938 H   0  0  0  0  0  0  0  0  0  0  0  0
   59.1149   33.9021   45.3439 H   0  0  0  0  0  0  0  0  0  0  0  0
   59.1718   32.5620   48.5781 H   0  0  0  0  0  0  0  0  0  0  0  0
   60.5888   31.8734   47.6911 H   0  0  0  0  0  0  0  0  0  0  0  0
   60.8751   33.5312   45.4015 H   0  0  0  0  0  0  0  0  0  0  0  0
   61.5366   35.0465   46.1643 H   0  0  0  0  0  0  0  0  0  0  0  0
   62.4155   32.1693   46.5570 H   0  0  0  0  0  0  0  0  0  0  0  0
   63.3799   33.6361   46.0740 H   0  0  0  0  0  0  0  0  0  0  0  0
   64.9135   32.5787   47.8730 H   0  0  0  0  0  0  0  0  0  0  0  0
   66.1151   31.5276   52.0291 H   0  0  0  0  0  0  0  0  0  0  0  0
   65.3531   30.7807   50.5841 H   0  0  0  0  0  0  0  0  0  0  0  0
   67.1118   31.1463   50.5841 H   0  0  0  0  0  0  0  0  0  0  0  0
   65.1340   34.8898   53.7167 H   0  0  0  0  0  0  0  0  0  0  0  0
   66.1007   34.5670   52.2375 H   0  0  0  0  0  0  0  0  0  0  0  0
   64.8682   35.8738   52.2375 H   0  0  0  0  0  0  0  0  0  0  0  0
   61.7564   34.6964   51.1115 H   0  0  0  0  0  0  0  0  0  0  0  0
   59.9833   34.4082   49.4035 H   0  0  0  0  0  0  0  0  0  0  0  0
   60.8422   35.6527   48.3896 H   0  0  0  0  0  0  0  0  0  0  0  0
   58.3615   30.2031   47.4554 H   0  0  0  0  0  0  0  0  0  0  0  0
   55.7450   29.0660   45.7660 H   0  0  0  0  0  0  0  0  0  0  0  0
   58.4578   25.2098   45.0182 H   0  0  0  0  0  0  0  0  0  0  0  0
   56.4762   23.3776   45.1963 H   0  0  0  0  0  0  0  0  0  0  0  0
   54.2929   24.6974   45.9998 H   0  0  0  0  0  0  0  0  0  0  0  0
  1  2  1  0
  2  3  1  0
  3  4  2  0
  4  5  1  0
  5  6  2  0
  6  7  1  0
  7  8  1  0
  8  9  1  0
  9 10  1  0
 10 11  1  0
 11 12  2  0
 12 13  1  0
 13 14  1  0
 14 15  1  0
 13 16  2  0
 16 17  1  0
 17 18  1  0
 16 19  1  0
 19 20  2  0
 20 21  1  0
  6 22  1  0
 22 23  2  0
 23 24  1  0
 24 25  1  0
 25 26  2  0
 25 27  1  0
 27 28  2  0
 28 29  1  0
 29 30  2  0
 30 31  1  0
 23  3  1  0
 31 27  1  0
 21  8  1  0
 20 11  1  0
  1 32  1  0
  1 33  1  0
  1 34  1  0
  4 35  1  0
  5 36  1  0
  7 37  1  0
  7 38  1  0
  9 39  1  0
  9 40  1  0
 10 41  1  0
 10 42  1  0
 12 43  1  0
 15 44  1  0
 15 45  1  0
 15 46  1  0
 18 47  1  0
 18 48  1  0
 18 49  1  0
 19 50  1  0
 21 51  1  0
 21 52  1  0
 22 53  1  0
 24 54  1  0
 28 55  1  0
 29 56  1  0
 30 57  1  0
M  END
>  <UniqueID>  (93) 
84

>  <SMILES>  (93) 
COc1ccc(CN2CCc3cc(OC)c(OC)cc3C2)cc1NC(=O)c1ccco1

>  <Energy>  (93) 
94.17205590194993

>  <Genealogy>  (93) 
COc1ccc(CN2CCc3cc(OC)c(OC)cc3C2)cc1NC(=O)c1ccco1 (3D coordinates assigned)
COc1ccc(CN2CCc3cc(OC)c(OC)cc3C2)cc1NC(=O)c1ccco1 (nonaromatic ring conformer: 94.17205590194993 kcal/mol)

>  <smiles>  (93) 
COc1ccc(CN2CCc3cc(OC)c(OC)cc3C2)cc1NC(=O)c1ccco1

>  <score_type>  (93) 
oracle

>  <origin>  (93) 
adg

>  <m_score__min__energy>  (93) 
-7.6399999999999997

>  <m_primary>  (93) 
energy

$$$$
93:0
     RDKit          3D

 58 62  0  0  0  0  0  0  0  0999 V2000
   59.2800   34.3590   45.6980 C   0  0  0  0  0  0  0  0  0  0  0  0
   58.0360   33.1230   45.9980 S   0  0  0  0  0  0  0  0  0  0  0  0
   58.4470   32.2260   47.1340 O   0  0  0  0  0  0  0  0  0  0  0  0
   56.7530   33.8130   46.3650 O   0  0  0  0  0  0  0  0  0  0  0  0
   57.7730   32.1840   44.5630 N   0  0  0  0  0  0  0  0  0  0  0  0
   57.7460   30.7520   44.4950 C   0  0  0  0  0  0  0  0  0  0  0  0
   56.5740   30.0110   44.7320 C   0  0  0  0  0  0  0  0  0  0  0  0
   56.5990   28.6150   44.6700 C   0  0  0  0  0  0  0  0  0  0  0  0
   57.7910   27.9350   44.3780 C   0  0  0  0  0  0  0  0  0  0  0  0
   57.7980   26.4970   44.3490 N   0  0  0  0  0  0  0  0  0  0  0  0
   57.3830   25.7000   45.4630 C   0  0  0  0  0  0  0  0  0  0  0  0
   57.9320   25.8160   46.7480 C   0  0  0  0  0  0  0  0  0  0  0  0
   58.9850   26.7640   47.1700 C   0  0  0  0  0  0  0  0  0  0  0  0
   60.1320   26.3260   47.4580 O   0  0  0  0  0  0  0  0  0  0  0  0
   58.7240   28.1780   47.2110 N   0  0  0  0  0  0  0  0  0  0  0  0
   59.6420   29.1420   47.7550 C   0  0  0  0  0  0  0  0  0  0  0  0
   60.5530   29.8330   46.9360 C   0  0  0  0  0  0  0  0  0  0  0  0
   61.4280   30.7710   47.4900 C   0  0  0  0  0  0  0  0  0  0  0  0
   61.4130   31.0290   48.8710 C   0  0  0  0  0  0  0  0  0  0  0  0
   62.3350   32.0270   49.4600 C   0  0  0  0  0  0  0  0  0  0  0  0
   63.5890   31.6060   49.9300 C   0  0  0  0  0  0  0  0  0  0  0  0
   64.4800   32.5210   50.4970 C   0  0  0  0  0  0  0  0  0  0  0  0
   64.1260   33.8680   50.6030 C   0  0  0  0  0  0  0  0  0  0  0  0
   62.8810   34.3030   50.1460 C   0  0  0  0  0  0  0  0  0  0  0  0
   61.9790   33.3930   49.5790 C   0  0  0  0  0  0  0  0  0  0  0  0
   60.3970   33.9900   49.0930 Cl  0  0  0  0  0  0  0  0  0  0  0  0
   60.5370   30.3040   49.6940 C   0  0  0  0  0  0  0  0  0  0  0  0
   59.6620   29.3660   49.1410 C   0  0  0  0  0  0  0  0  0  0  0  0
   57.1810   24.6770   47.7530 S   0  0  0  0  0  0  0  0  0  0  0  0
   56.1670   24.0530   46.5710 C   0  0  0  0  0  0  0  0  0  0  0  0
   55.2220   23.0380   46.6910 C   0  0  0  0  0  0  0  0  0  0  0  0
   54.4850   22.6780   45.5520 C   0  0  0  0  0  0  0  0  0  0  0  0
   53.5340   21.6700   45.6350 O   0  0  0  0  0  0  0  0  0  0  0  0
   54.7060   23.3370   44.3260 C   0  0  0  0  0  0  0  0  0  0  0  0
   55.6650   24.3590   44.2290 C   0  0  0  0  0  0  0  0  0  0  0  0
   56.3930   24.7120   45.3710 C   0  0  0  0  0  0  0  0  0  0  0  0
   58.9590   28.6790   44.1250 C   0  0  0  0  0  0  0  0  0  0  0  0
   58.9310   30.0760   44.1800 C   0  0  0  0  0  0  0  0  0  0  0  0
   59.6604   34.7370   46.6584 H   0  0  0  0  0  0  0  0  0  0  0  0
   60.1074   33.9150   45.1251 H   0  0  0  0  0  0  0  0  0  0  0  0
   58.8413   35.1892   45.1251 H   0  0  0  0  0  0  0  0  0  0  0  0
   55.6343   30.5323   44.9670 H   0  0  0  0  0  0  0  0  0  0  0  0
   55.6762   28.0445   44.8517 H   0  0  0  0  0  0  0  0  0  0  0  0
   57.9500   26.0050   43.4390 H   0  0  0  0  0  0  0  0  0  0  0  0
   57.8820   28.5420   46.7130 H   0  0  0  0  0  0  0  0  0  0  0  0
   60.5768   29.6341   45.8544 H   0  0  0  0  0  0  0  0  0  0  0  0
   62.1330   31.3109   46.8408 H   0  0  0  0  0  0  0  0  0  0  0  0
   63.8728   30.5462   49.8512 H   0  0  0  0  0  0  0  0  0  0  0  0
   65.4608   32.1803   50.8601 H   0  0  0  0  0  0  0  0  0  0  0  0
   64.8297   34.5873   51.0474 H   0  0  0  0  0  0  0  0  0  0  0  0
   62.6068   35.3648   50.2313 H   0  0  0  0  0  0  0  0  0  0  0  0
   60.5396   30.4755   50.7806 H   0  0  0  0  0  0  0  0  0  0  0  0
   58.9840   28.7990   49.7958 H   0  0  0  0  0  0  0  0  0  0  0  0
   55.0571   22.5313   47.6533 H   0  0  0  0  0  0  0  0  0  0  0  0
   54.1233   23.0490   43.4386 H   0  0  0  0  0  0  0  0  0  0  0  0
   55.8406   24.8727   43.2723 H   0  0  0  0  0  0  0  0  0  0  0  0
   59.8977   28.1592   43.8830 H   0  0  0  0  0  0  0  0  0  0  0  0
   59.8474   30.6485   43.9741 H   0  0  0  0  0  0  0  0  0  0  0  0
  1  2  1  0
  2  3  2  0
  2  4  2  0
  2  5  1  0
  5  6  1  0
  6  7  2  0
  7  8  1  0
  8  9  2  0
  9 10  1  0
 10 11  1  0
 11 12  2  0
 12 13  1  0
 13 14  2  0
 13 15  1  0
 15 16  1  0
 16 17  2  0
 17 18  1  0
 18 19  2  0
 19 20  1  0
 20 21  2  0
 21 22  1  0
 22 23  2  0
 23 24  1  0
 24 25  2  0
 25 26  1  0
 19 27  1  0
 27 28  2  0
 12 29  1  0
 29 30  1  0
 30 31  2  0
 31 32  1  0
 32 33  1  0
 32 34  2  0
 34 35  1  0
 35 36  2  0
  9 37  1  0
 37 38  2  0
 38  6  1  0
 36 11  1  0
 28 16  1  0
 36 30  1  0
 25 20  1  0
  1 39  1  0
  1 40  1  0
  1 41  1  0
  7 42  1  0
  8 43  1  0
 10 44  1  0
 15 45  1  0
 17 46  1  0
 18 47  1  0
 21 48  1  0
 22 49  1  0
 23 50  1  0
 24 51  1  0
 27 52  1  0
 28 53  1  0
 31 54  1  0
 34 55  1  0
 35 56  1  0
 37 57  1  0
 38 58  1  0
M  CHG  2   5  -1  33  -1
M  END
>  <UniqueID>  (94) 
85

>  <SMILES>  (94) 
CS(=O)(=O)[N-]c1ccc(Nc2c(C(=O)Nc3ccc(-c4ccccc4Cl)cc3)sc3cc([O-])ccc23)cc1

>  <Energy>  (94) 
114.04365596231793

>  <Genealogy>  (94) 
CS(=O)(=O)[N-]c1ccc(Nc2c(C(=O)Nc3ccc(-c4ccccc4Cl)cc3)sc3cc([O-])ccc23)cc1 (protonated)
CS(=O)(=O)[N-]c1ccc(Nc2c(C(=O)Nc3ccc(-c4ccccc4Cl)cc3)sc3cc([O-])ccc23)cc1 (3D coordinates assigned)
CS(=O)(=O)[N-]c1ccc(Nc2c(C(=O)Nc3ccc(-c4ccccc4Cl)cc3)sc3cc([O-])ccc23)cc1 (optimized conformer: 114.04365596231793 kcal/mol)

>  <smiles>  (94) 
CS(=O)(=O)Nc1ccc(Nc2c(C(=O)Nc3ccc(-c4ccccc4Cl)cc3)sc3cc(O)ccc23)cc1

>  <score_type>  (94) 
oracle

>  <origin>  (94) 
adg

>  <m_score__min__energy>  (94) 
-12.08

>  <m_primary>  (94) 
energy

$$$$
94:0
     RDKit          3D

 38 39  0  0  0  0  0  0  0  0999 V2000
   59.6970   26.0350   46.0770 C   0  0  0  0  0  0  0  0  0  0  0  0
   59.3670   27.3040   46.8590 C   0  0  0  0  0  0  0  0  0  0  0  0
   58.3170   28.1350   46.1370 C   0  0  0  0  0  0  0  0  0  0  0  0
   58.5350   29.4820   45.7210 C   0  0  0  0  0  0  0  0  0  0  0  0
   59.8570   30.1740   46.0500 C   0  0  0  0  0  0  0  0  0  0  0  0
   59.6880   31.3330   47.0070 C   0  0  0  0  0  0  0  0  0  0  0  0
   60.2050   32.6080   46.7080 C   0  0  0  0  0  0  0  0  0  0  0  0
   60.0590   33.6610   47.6160 C   0  0  0  0  0  0  0  0  0  0  0  0
   59.4140   33.4500   48.8370 C   0  0  0  0  0  0  0  0  0  0  0  0
   58.9190   32.1820   49.1560 C   0  0  0  0  0  0  0  0  0  0  0  0
   58.1160   31.9160   50.6920 Cl  0  0  0  0  0  0  0  0  0  0  0  0
   59.0630   31.1260   48.2490 C   0  0  0  0  0  0  0  0  0  0  0  0
   57.5340   30.1500   45.0330 N   0  0  0  0  0  0  0  0  0  0  0  0
   57.7080   31.5220   44.4910 C   0  0  0  0  0  0  0  0  0  0  0  0
   56.9600   32.4620   45.2400 O   0  0  0  0  0  0  0  0  0  0  0  0
   57.4600   33.7630   45.0250 C   0  0  0  0  0  0  0  0  0  0  0  0
   56.3110   29.5510   44.8570 C   0  0  0  0  0  0  0  0  0  0  0  0
   55.3670   30.1720   44.2910 O   0  0  0  0  0  0  0  0  0  0  0  0
   56.0880   28.2860   45.2890 N   0  0  0  0  0  0  0  0  0  0  0  0
   57.0520   27.5700   45.9100 C   0  0  0  0  0  0  0  0  0  0  0  0
   56.7970   26.3940   46.2880 O   0  0  0  0  0  0  0  0  0  0  0  0
   59.9099   25.2161   46.7799 H   0  0  0  0  0  0  0  0  0  0  0  0
   58.8402   25.7612   45.4438 H   0  0  0  0  0  0  0  0  0  0  0  0
   60.5786   26.2133   45.4438 H   0  0  0  0  0  0  0  0  0  0  0  0
   58.9840   27.0249   47.8517 H   0  0  0  0  0  0  0  0  0  0  0  0
   60.2837   27.9046   46.9531 H   0  0  0  0  0  0  0  0  0  0  0  0
   60.5355   29.4378   46.5056 H   0  0  0  0  0  0  0  0  0  0  0  0
   60.2638   30.5761   45.1104 H   0  0  0  0  0  0  0  0  0  0  0  0
   60.7268   32.7766   45.7544 H   0  0  0  0  0  0  0  0  0  0  0  0
   60.4529   34.6578   47.3684 H   0  0  0  0  0  0  0  0  0  0  0  0
   59.2956   34.2814   49.5474 H   0  0  0  0  0  0  0  0  0  0  0  0
   58.6844   30.1267   48.5099 H   0  0  0  0  0  0  0  0  0  0  0  0
   58.7731   31.7934   44.5342 H   0  0  0  0  0  0  0  0  0  0  0  0
   57.3485   31.5364   43.4515 H   0  0  0  0  0  0  0  0  0  0  0  0
   57.6467   34.2488   45.9941 H   0  0  0  0  0  0  0  0  0  0  0  0
   58.4000   33.7053   44.4566 H   0  0  0  0  0  0  0  0  0  0  0  0
   56.7233   34.3497   44.4566 H   0  0  0  0  0  0  0  0  0  0  0  0
   55.1480   27.8530   45.1380 H   0  0  0  0  0  0  0  0  0  0  0  0
  1  2  1  0
  2  3  1  0
  3  4  2  0
  4  5  1  0
  5  6  1  0
  6  7  2  0
  7  8  1  0
  8  9  2  0
  9 10  1  0
 10 11  1  0
 10 12  2  0
  4 13  1  0
 13 14  1  0
 14 15  1  0
 15 16  1  0
 13 17  1  0
 17 18  2  0
 17 19  1  0
 19 20  1  0
 20 21  2  0
 20  3  1  0
 12  6  1  0
  1 22  1  0
  1 23  1  0
  1 24  1  0
  2 25  1  0
  2 26  1  0
  5 27  1  0
  5 28  1  0
  7 29  1  0
  8 30  1  0
  9 31  1  0
 12 32  1  0
 14 33  1  0
 14 34  1  0
 16 35  1  0
 16 36  1  0
 16 37  1  0
 19 38  1  0
M  END
>  <UniqueID>  (95) 
86

>  <SMILES>  (95) 
CCc1c(Cc2cccc(Cl)c2)n(COC)c(=O)[nH]c1=O

>  <Energy>  (95) 
47.591138795253414

>  <Genealogy>  (95) 
CCc1c(Cc2cccc(Cl)c2)n(COC)c(=O)[nH]c1=O (3D coordinates assigned)
CCc1c(Cc2cccc(Cl)c2)n(COC)c(=O)[nH]c1=O (optimized conformer: 47.591138795253414 kcal/mol)

>  <smiles>  (95) 
CCc1c(Cc2cccc(Cl)c2)n(COC)c(=O)[nH]c1=O

>  <score_type>  (95) 
oracle

>  <origin>  (95) 
adg

>  <m_score__min__energy>  (95) 
-7.0999999999999996

>  <m_primary>  (95) 
energy

$$$$
95:0
     RDKit          3D

 61 64  0  0  0  0  0  0  0  0999 V2000
   63.8080   34.4400   51.3710 C   0  0  0  0  0  0  0  0  0  0  0  0
   63.1010   34.5690   50.1420 O   0  0  0  0  0  0  0  0  0  0  0  0
   63.0690   33.5920   49.1350 C   0  0  0  0  0  0  0  0  0  0  0  0
   63.4860   33.8630   47.8160 C   0  0  0  0  0  0  0  0  0  0  0  0
   63.4410   32.8610   46.8430 C   0  0  0  0  0  0  0  0  0  0  0  0
   62.9820   31.5860   47.1730 C   0  0  0  0  0  0  0  0  0  0  0  0
   62.5670   31.3050   48.4760 C   0  0  0  0  0  0  0  0  0  0  0  0
   62.6080   32.3080   49.4650 C   0  0  0  0  0  0  0  0  0  0  0  0
   62.2020   32.0690   50.7860 O   0  0  0  0  0  0  0  0  0  0  0  0
   61.3820   30.9790   51.1990 C   0  0  0  0  0  0  0  0  0  0  0  0
   59.9090   31.3830   51.1110 C   0  0  0  0  0  0  0  0  0  0  0  0
   59.6840   32.3260   49.9890 N   0  0  0  0  0  0  0  0  0  0  0  0
   59.8910   33.6710   50.2080 C   0  0  0  0  0  0  0  0  0  0  0  0
   60.2600   34.0950   51.3390 O   0  0  0  0  0  0  0  0  0  0  0  0
   59.6970   34.6040   49.1890 C   0  0  0  0  0  0  0  0  0  0  0  0
   59.2790   34.1830   47.9370 C   0  0  0  0  0  0  0  0  0  0  0  0
   59.0410   32.8310   47.7010 C   0  0  0  0  0  0  0  0  0  0  0  0
   58.6000   32.4110   46.4370 C   0  0  0  0  0  0  0  0  0  0  0  0
   58.3450   31.0590   46.1900 C   0  0  0  0  0  0  0  0  0  0  0  0
   57.7620   30.5270   44.6130 S   0  0  0  0  0  0  0  0  0  0  0  0
   56.2990   30.1920   44.7000 O   0  0  0  0  0  0  0  0  0  0  0  0
   57.9340   31.6620   43.6410 O   0  0  0  0  0  0  0  0  0  0  0  0
   58.6730   29.1320   44.0730 N   0  0  0  0  0  0  0  0  0  0  0  0
   57.8670   27.8910   44.2210 C   0  0  0  0  0  0  0  0  0  0  0  0
   57.3760   27.5910   45.6570 C   0  0  0  0  0  0  0  0  0  0  0  0
   58.3420   26.7770   46.5560 C   0  0  0  0  0  0  0  0  0  0  0  0
   59.7800   27.3180   46.6390 C   0  0  0  0  0  0  0  0  0  0  0  0
   60.3930   27.7270   45.2810 C   0  0  0  0  0  0  0  0  0  0  0  0
   59.9900   29.1160   44.7470 C   0  0  0  0  0  0  0  0  0  0  0  0
   58.5140   30.1270   47.2150 C   0  0  0  0  0  0  0  0  0  0  0  0
   58.9540   30.5300   48.4770 C   0  0  0  0  0  0  0  0  0  0  0  0
   59.2380   31.8920   48.7500 C   0  0  0  0  0  0  0  0  0  0  0  0
   63.1094   34.5675   52.2110 H   0  0  0  0  0  0  0  0  0  0  0  0
   64.2692   33.4429   51.4258 H   0  0  0  0  0  0  0  0  0  0  0  0
   64.5917   35.2100   51.4258 H   0  0  0  0  0  0  0  0  0  0  0  0
   63.8483   34.8674   47.5516 H   0  0  0  0  0  0  0  0  0  0  0  0
   63.7680   33.0781   45.8154 H   0  0  0  0  0  0  0  0  0  0  0  0
   62.9469   30.7997   46.4045 H   0  0  0  0  0  0  0  0  0  0  0  0
   62.2069   30.2975   48.7315 H   0  0  0  0  0  0  0  0  0  0  0  0
   61.5644   30.1147   50.5435 H   0  0  0  0  0  0  0  0  0  0  0  0
   61.6260   30.7112   52.2376 H   0  0  0  0  0  0  0  0  0  0  0  0
   59.2976   30.4824   50.9524 H   0  0  0  0  0  0  0  0  0  0  0  0
   59.6248   31.8805   52.0500 H   0  0  0  0  0  0  0  0  0  0  0  0
   59.8757   35.6726   49.3794 H   0  0  0  0  0  0  0  0  0  0  0  0
   59.1351   34.9161   47.1296 H   0  0  0  0  0  0  0  0  0  0  0  0
   58.4540   33.1501   45.6355 H   0  0  0  0  0  0  0  0  0  0  0  0
   58.8420   29.2780   43.0500 H   0  0  0  0  0  0  0  0  0  0  0  0
   56.9839   27.9794   43.5711 H   0  0  0  0  0  0  0  0  0  0  0  0
   58.5335   27.0600   43.9468 H   0  0  0  0  0  0  0  0  0  0  0  0
   57.1859   28.5535   46.1544 H   0  0  0  0  0  0  0  0  0  0  0  0
   56.4839   26.9588   45.5364 H   0  0  0  0  0  0  0  0  0  0  0  0
   57.9260   26.7614   47.5742 H   0  0  0  0  0  0  0  0  0  0  0  0
   58.4189   25.7814   46.0946 H   0  0  0  0  0  0  0  0  0  0  0  0
   59.7768   28.2017   47.2940 H   0  0  0  0  0  0  0  0  0  0  0  0
   60.4003   26.4962   47.0260 H   0  0  0  0  0  0  0  0  0  0  0  0
   61.4877   27.7125   45.3882 H   0  0  0  0  0  0  0  0  0  0  0  0
   60.0020   27.0040   44.5500 H   0  0  0  0  0  0  0  0  0  0  0  0
   59.9560   29.8176   45.5935 H   0  0  0  0  0  0  0  0  0  0  0  0
   60.7405   29.4030   43.9957 H   0  0  0  0  0  0  0  0  0  0  0  0
   58.2985   29.0649   47.0267 H   0  0  0  0  0  0  0  0  0  0  0  0
   59.0823   29.7799   49.2713 H   0  0  0  0  0  0  0  0  0  0  0  0
  1  2  1  0
  2  3  1  0
  3  4  2  0
  4  5  1  0
  5  6  2  0
  6  7  1  0
  7  8  2  0
  8  9  1  0
  9 10  1  0
 10 11  1  0
 11 12  1  0
 12 13  1  0
 13 14  2  0
 13 15  1  0
 15 16  2  0
 16 17  1  0
 17 18  2  0
 18 19  1  0
 19 20  1  0
 20 21  2  0
 20 22  2  0
 20 23  1  0
 23 24  1  0
 24 25  1  0
 25 26  1  0
 26 27  1  0
 27 28  1  0
 28 29  1  0
 19 30  2  0
 30 31  1  0
 31 32  2  0
  8  3  1  0
 32 12  1  0
 32 17  1  0
 29 23  1  0
  1 33  1  0
  1 34  1  0
  1 35  1  0
  4 36  1  0
  5 37  1  0
  6 38  1  0
  7 39  1  0
 10 40  1  0
 10 41  1  0
 11 42  1  0
 11 43  1  0
 15 44  1  0
 16 45  1  0
 18 46  1  0
 23 47  1  0
 24 48  1  0
 24 49  1  0
 25 50  1  0
 25 51  1  0
 26 52  1  0
 26 53  1  0
 27 54  1  0
 27 55  1  0
 28 56  1  0
 28 57  1  0
 29 58  1  0
 29 59  1  0
 30 60  1  0
 31 61  1  0
M  CHG  1  23   1
M  END
>  <UniqueID>  (96) 
87

>  <SMILES>  (96) 
COc1ccccc1OCCn1c(=O)ccc2cc(S(=O)(=O)[NH+]3CCCCCC3)ccc21

>  <Energy>  (96) 
83.10063303654157

>  <Genealogy>  (96) 
COc1ccccc1OCCn1c(=O)ccc2cc(S(=O)(=O)[NH+]3CCCCCC3)ccc21 (protonated)
COc1ccccc1OCCn1c(=O)ccc2cc(S(=O)(=O)[NH+]3CCCCCC3)ccc21 (3D coordinates assigned)
COc1ccccc1OCCn1c(=O)ccc2cc(S(=O)(=O)[NH+]3CCCCCC3)ccc21 (nonaromatic ring conformer: 83.10063303654157 kcal/mol)

>  <smiles>  (96) 
COc1ccccc1OCCn1c(=O)ccc2cc(S(=O)(=O)N3CCCCCC3)ccc21

>  <score_type>  (96) 
oracle

>  <origin>  (96) 
adg

>  <m_score__min__energy>  (96) 
-6.3200000000000003

>  <m_primary>  (96) 
energy

$$$$
96:0
     RDKit          3D

 42 44  0  0  0  0  0  0  0  0999 V2000
   56.9530   20.7300   42.9990 C   0  0  0  0  0  0  0  0  0  0  0  0
   55.9000   21.6700   43.1800 O   0  0  0  0  0  0  0  0  0  0  0  0
   56.0200   22.8640   43.9060 C   0  0  0  0  0  0  0  0  0  0  0  0
   57.1980   23.6070   43.7740 C   0  0  0  0  0  0  0  0  0  0  0  0
   57.3670   24.8050   44.4750 C   0  0  0  0  0  0  0  0  0  0  0  0
   56.3530   25.2820   45.3260 C   0  0  0  0  0  0  0  0  0  0  0  0
   56.5300   26.5510   46.0720 C   0  0  0  0  0  0  0  0  0  0  0  0
   57.2070   26.5650   47.1370 O   0  0  0  0  0  0  0  0  0  0  0  0
   55.8930   27.7500   45.6110 N   0  0  0  0  0  0  0  0  0  0  0  0
   56.5430   28.9350   45.1310 C   0  0  0  0  0  0  0  0  0  0  0  0
   56.0070   29.7070   44.0850 C   0  0  0  0  0  0  0  0  0  0  0  0
   56.6640   30.8650   43.6570 C   0  0  0  0  0  0  0  0  0  0  0  0
   57.8470   31.2700   44.2770 C   0  0  0  0  0  0  0  0  0  0  0  0
   58.3790   30.5280   45.3450 C   0  0  0  0  0  0  0  0  0  0  0  0
   59.6120   30.9330   45.9730 N   0  0  0  0  0  0  0  0  0  0  0  0
   59.4800   32.2790   46.4720 C   0  0  0  0  0  0  0  0  0  0  0  0
   59.3430   32.5180   47.8520 C   0  0  0  0  0  0  0  0  0  0  0  0
   59.2460   33.8250   48.3370 C   0  0  0  0  0  0  0  0  0  0  0  0
   59.2900   34.9060   47.4520 C   0  0  0  0  0  0  0  0  0  0  0  0
   59.4340   34.6810   46.0790 C   0  0  0  0  0  0  0  0  0  0  0  0
   59.5310   33.3750   45.5900 C   0  0  0  0  0  0  0  0  0  0  0  0
   57.7160   29.3610   45.7650 C   0  0  0  0  0  0  0  0  0  0  0  0
   55.1700   24.5340   45.4580 C   0  0  0  0  0  0  0  0  0  0  0  0
   55.0030   23.3370   44.7550 C   0  0  0  0  0  0  0  0  0  0  0  0
   57.3227   20.4000   43.9810 H   0  0  0  0  0  0  0  0  0  0  0  0
   56.5770   19.8617   42.4380 H   0  0  0  0  0  0  0  0  0  0  0  0
   57.7732   21.2017   42.4380 H   0  0  0  0  0  0  0  0  0  0  0  0
   57.9989   23.2453   43.1124 H   0  0  0  0  0  0  0  0  0  0  0  0
   58.2988   25.3783   44.3604 H   0  0  0  0  0  0  0  0  0  0  0  0
   55.0680   29.3991   43.6019 H   0  0  0  0  0  0  0  0  0  0  0  0
   56.2473   31.4581   42.8296 H   0  0  0  0  0  0  0  0  0  0  0  0
   58.3657   32.1750   43.9277 H   0  0  0  0  0  0  0  0  0  0  0  0
   60.4000   30.8790   45.2860 H   0  0  0  0  0  0  0  0  0  0  0  0
   59.8500   30.2810   46.7570 H   0  0  0  0  0  0  0  0  0  0  0  0
   59.3121   31.6710   48.5531 H   0  0  0  0  0  0  0  0  0  0  0  0
   59.1349   34.0033   49.4167 H   0  0  0  0  0  0  0  0  0  0  0  0
   59.2114   35.9340   47.8354 H   0  0  0  0  0  0  0  0  0  0  0  0
   59.4709   35.5324   45.3835 H   0  0  0  0  0  0  0  0  0  0  0  0
   59.6478   33.2028   44.5099 H   0  0  0  0  0  0  0  0  0  0  0  0
   58.1243   28.7757   46.6021 H   0  0  0  0  0  0  0  0  0  0  0  0
   54.3687   24.8936   46.1202 H   0  0  0  0  0  0  0  0  0  0  0  0
   54.0717   22.7623   44.8664 H   0  0  0  0  0  0  0  0  0  0  0  0
  1  2  1  0
  2  3  1  0
  3  4  2  0
  4  5  1  0
  5  6  2  0
  6  7  1  0
  7  8  2  0
  7  9  1  0
  9 10  1  0
 10 11  2  0
 11 12  1  0
 12 13  2  0
 13 14  1  0
 14 15  1  0
 15 16  1  0
 16 17  2  0
 17 18  1  0
 18 19  2  0
 19 20  1  0
 20 21  2  0
 14 22  2  0
  6 23  1  0
 23 24  2  0
 24  3  1  0
 22 10  1  0
 21 16  1  0
  1 25  1  0
  1 26  1  0
  1 27  1  0
  4 28  1  0
  5 29  1  0
 11 30  1  0
 12 31  1  0
 13 32  1  0
 15 33  1  0
 15 34  1  0
 17 35  1  0
 18 36  1  0
 19 37  1  0
 20 38  1  0
 21 39  1  0
 22 40  1  0
 23 41  1  0
 24 42  1  0
M  CHG  2   9  -1  15   1
M  END
>  <UniqueID>  (97) 
88

>  <SMILES>  (97) 
COc1ccc(C(=O)[N-]c2cccc([NH2+]c3ccccc3)c2)cc1

>  <Energy>  (97) 
50.185928819554476

>  <Genealogy>  (97) 
COc1ccc(C(=O)[N-]c2cccc([NH2+]c3ccccc3)c2)cc1 (protonated)
COc1ccc(C(=O)[N-]c2cccc([NH2+]c3ccccc3)c2)cc1 (3D coordinates assigned)
COc1ccc(C(=O)[N-]c2cccc([NH2+]c3ccccc3)c2)cc1 (optimized conformer: 50.185928819554476 kcal/mol)

>  <smiles>  (97) 
COc1ccc(C(=O)Nc2cccc(Nc3ccccc3)c2)cc1

>  <score_type>  (97) 
oracle

>  <origin>  (97) 
adg

>  <m_score__min__energy>  (97) 
-8.3399999999999999

>  <m_primary>  (97) 
energy

$$$$
97:0
     RDKit          3D

 49 51  0  0  1  0  0  0  0  0999 V2000
   54.5000   26.2610   45.9340 O   0  0  0  0  0  0  0  0  0  0  0  0
   55.6820   25.5620   45.8680 N   0  0  0  0  0  0  0  0  0  0  0  0
   55.7990   24.3600   46.3680 C   0  0  0  0  0  0  0  0  0  0  0  0
   54.6980   23.8740   47.0400 O   0  0  0  0  0  0  0  0  0  0  0  0
   57.0680   23.6680   46.1640 C   0  0  0  0  0  0  0  0  0  0  0  0
   58.1330   24.5480   45.5990 C   0  0  0  0  0  0  0  0  0  0  0  0
   58.6170   25.5110   46.6620 C   0  0  0  0  0  0  0  0  0  0  0  0
   59.9670   26.0170   46.1540 C   0  0  0  0  0  0  0  0  0  0  0  0
   60.1150   27.5030   46.3090 C   0  0  0  0  0  0  0  0  0  0  0  0
   58.8240   28.1070   46.7480 C   0  0  0  0  0  0  0  0  0  0  0  0
   58.6730   29.4750   46.2050 N   0  0  0  0  0  0  0  0  0  0  0  0
   59.1800   30.6130   46.7140 C   0  0  0  0  0  0  0  0  0  0  0  0
   58.7770   31.6500   45.8650 C   0  0  0  0  0  0  0  0  0  0  0  0
   59.0800   33.0750   45.9980 C   0  0  0  0  0  0  0  0  0  0  0  0
   58.9980   33.9640   44.9580 C   0  0  0  0  0  0  0  0  0  0  0  0
   59.2830   35.3120   45.0750 C   0  0  0  0  0  0  0  0  0  0  0  0
   59.6700   35.7730   46.3260 C   0  0  0  0  0  0  0  0  0  0  0  0
   59.7670   34.9110   47.4090 C   0  0  0  0  0  0  0  0  0  0  0  0
   59.4700   33.5560   47.2420 C   0  0  0  0  0  0  0  0  0  0  0  0
   58.0190   31.0720   44.8440 C   0  0  0  0  0  0  0  0  0  0  0  0
   57.3650   31.5630   43.7350 C   0  0  0  0  0  0  0  0  0  0  0  0
   56.6650   30.7510   42.8580 C   0  0  0  0  0  0  0  0  0  0  0  0
   56.6270   29.3930   43.1090 C   0  0  0  0  0  0  0  0  0  0  0  0
   57.2800   28.8960   44.2190 C   0  0  0  0  0  0  0  0  0  0  0  0
   57.9740   29.7150   45.0860 C   0  0  0  0  0  0  0  0  0  0  0  0
   53.6590   25.9270   46.3730 H   0  0  0  0  0  0  0  0  0  0  0  0
   53.8510   24.4390   47.1330 H   0  0  0  0  0  0  0  0  0  0  0  0
   57.4137   23.2787   47.1330 H   0  0  0  0  0  0  0  0  0  0  0  0
   56.8883   22.8633   45.4359 H   0  0  0  0  0  0  0  0  0  0  0  0
   58.9750   23.9288   45.2560 H   0  0  0  0  0  0  0  0  0  0  0  0
   57.7234   25.1171   44.7515 H   0  0  0  0  0  0  0  0  0  0  0  0
   57.9101   26.3458   46.7778 H   0  0  0  0  0  0  0  0  0  0  0  0
   58.7010   25.0297   47.6475 H   0  0  0  0  0  0  0  0  0  0  0  0
   60.7672   25.5208   46.7227 H   0  0  0  0  0  0  0  0  0  0  0  0
   60.0313   25.7831   45.0811 H   0  0  0  0  0  0  0  0  0  0  0  0
   60.8893   27.7144   47.0612 H   0  0  0  0  0  0  0  0  0  0  0  0
   60.4032   27.9376   45.3405 H   0  0  0  0  0  0  0  0  0  0  0  0
   57.9929   27.4825   46.3886 H   0  0  0  0  0  0  0  0  0  0  0  0
   58.8151   28.1605   47.8467 H   0  0  0  0  0  0  0  0  0  0  0  0
   59.7930   30.7095   47.6223 H   0  0  0  0  0  0  0  0  0  0  0  0
   58.6877   33.5833   43.9738 H   0  0  0  0  0  0  0  0  0  0  0  0
   59.2063   35.9908   44.2128 H   0  0  0  0  0  0  0  0  0  0  0  0
   59.9036   36.8394   46.4609 H   0  0  0  0  0  0  0  0  0  0  0  0
   60.0760   35.2923   48.3935 H   0  0  0  0  0  0  0  0  0  0  0  0
   59.5451   32.8683   48.0973 H   0  0  0  0  0  0  0  0  0  0  0  0
   57.4003   32.6446   43.5380 H   0  0  0  0  0  0  0  0  0  0  0  0
   56.1519   31.1769   41.9832 H   0  0  0  0  0  0  0  0  0  0  0  0
   56.0834   28.7165   42.4331 H   0  0  0  0  0  0  0  0  0  0  0  0
   57.2461   27.8147   44.4183 H   0  0  0  0  0  0  0  0  0  0  0  0
  1  2  1  0
  2  3  2  0
  3  4  1  0
  3  5  1  0
  5  6  1  0
  6  7  1  0
  7  8  1  0
  8  9  1  0
  9 10  1  0
 10 11  1  0
 11 12  1  0
 12 13  2  0
 13 14  1  0
 14 15  2  0
 15 16  1  0
 16 17  2  0
 17 18  1  0
 18 19  2  0
 13 20  1  0
 20 21  2  0
 21 22  1  0
 22 23  2  0
 23 24  1  0
 24 25  2  0
 25 11  1  0
 19 14  1  0
 25 20  1  0
  1 26  1  0
  4 27  1  0
  5 28  1  0
  5 29  1  0
  6 30  1  0
  6 31  1  0
  7 32  1  0
  7 33  1  0
  8 34  1  0
  8 35  1  0
  9 36  1  0
  9 37  1  0
 10 38  1  0
 10 39  1  0
 12 40  1  0
 15 41  1  0
 16 42  1  0
 17 43  1  0
 18 44  1  0
 19 45  1  0
 21 46  1  0
 22 47  1  0
 23 48  1  0
 24 49  1  0
M  END
>  <smiles>  (98) 
ON=C(O)CCCCCCn1cc(-c2ccccc2)c2ccccc21

>  <score_type>  (98) 
oracle

>  <origin>  (98) 
adg

>  <m_score__min__energy>  (98) 
-9.6199999999999992

>  <m_primary>  (98) 
energy

$$$$
