0:0
     RDKit          3D

 42 45  0  0  0  0  0  0  0  0999 V2000
   59.1190   33.8960   48.5760 O   0  0  0  0  0  0  0  0  0  0  0  0
   60.1110   34.2280   47.8720 C   0  0  0  0  0  0  0  0  0  0  0  0
   59.8480   34.9570   46.5820 C   0  0  0  0  0  0  0  0  0  0  0  0
   58.9400   34.1860   45.7380 N   0  0  0  0  0  0  0  0  0  0  0  0
   58.7570   32.8550   45.7560 C   0  0  0  0  0  0  0  0  0  0  0  0
   57.8290   32.5880   44.7710 C   0  0  0  0  0  0  0  0  0  0  0  0
   57.2840   31.2790   44.3950 C   0  0  0  0  0  0  0  0  0  0  0  0
   57.1690   30.7810   43.1090 C   0  0  0  0  0  0  0  0  0  0  0  0
   56.6140   29.5250   43.2390 C   0  0  0  0  0  0  0  0  0  0  0  0
   56.4220   29.3480   44.5980 C   0  0  0  0  0  0  0  0  0  0  0  0
   55.8870   28.1830   45.2350 N   0  0  0  0  0  0  0  0  0  0  0  0
   56.6600   27.1480   45.8580 C   0  0  0  0  0  0  0  0  0  0  0  0
   57.3130   27.4250   46.8980 O   0  0  0  0  0  0  0  0  0  0  0  0
   56.6810   25.7620   45.3480 C   0  0  0  0  0  0  0  0  0  0  0  0
   56.1480   24.6960   46.0930 C   0  0  0  0  0  0  0  0  0  0  0  0
   56.2040   23.4010   45.5760 C   0  0  0  0  0  0  0  0  0  0  0  0
   56.7990   23.1720   44.3340 C   0  0  0  0  0  0  0  0  0  0  0  0
   56.8800   21.5490   43.6730 Cl  0  0  0  0  0  0  0  0  0  0  0  0
   57.3380   24.2500   43.6270 C   0  0  0  0  0  0  0  0  0  0  0  0
   57.2710   25.5060   44.1460 N   0  0  0  0  0  0  0  0  0  0  0  0
   56.8350   30.4010   45.2620 O   0  0  0  0  0  0  0  0  0  0  0  0
   57.4830   33.7510   44.1820 N   0  0  0  0  0  0  0  0  0  0  0  0
   58.1770   34.7050   44.7880 N   0  0  0  0  0  0  0  0  0  0  0  0
   61.4830   33.8580   48.3180 C   0  0  0  0  0  0  0  0  0  0  0  0
   62.4340   33.3260   47.4230 C   0  0  0  0  0  0  0  0  0  0  0  0
   63.7140   32.9810   47.8680 C   0  0  0  0  0  0  0  0  0  0  0  0
   64.0650   33.1610   49.2080 C   0  0  0  0  0  0  0  0  0  0  0  0
   65.6720   32.7250   49.7620 Cl  0  0  0  0  0  0  0  0  0  0  0  0
   63.1350   33.6910   50.1050 C   0  0  0  0  0  0  0  0  0  0  0  0
   61.8540   34.0380   49.6660 C   0  0  0  0  0  0  0  0  0  0  0  0
   59.3947   35.9344   46.8039 H   0  0  0  0  0  0  0  0  0  0  0  0
   60.8004   35.0945   46.0491 H   0  0  0  0  0  0  0  0  0  0  0  0
   59.2468   32.1275   46.4200 H   0  0  0  0  0  0  0  0  0  0  0  0
   57.4604   31.2836   42.1749 H   0  0  0  0  0  0  0  0  0  0  0  0
   56.3748   28.8149   42.4336 H   0  0  0  0  0  0  0  0  0  0  0  0
   55.6903   24.8811   47.0760 H   0  0  0  0  0  0  0  0  0  0  0  0
   55.7798   22.5616   46.1465 H   0  0  0  0  0  0  0  0  0  0  0  0
   57.8166   24.0832   42.6507 H   0  0  0  0  0  0  0  0  0  0  0  0
   62.1667   33.1812   46.3658 H   0  0  0  0  0  0  0  0  0  0  0  0
   64.4470   32.5664   47.1603 H   0  0  0  0  0  0  0  0  0  0  0  0
   63.4113   33.8358   51.1599 H   0  0  0  0  0  0  0  0  0  0  0  0
   61.1283   34.4556   50.3795 H   0  0  0  0  0  0  0  0  0  0  0  0
  1  2  2  0
  2  3  1  0
  3  4  1  0
  4  5  1  0
  5  6  2  0
  6  7  1  0
  7  8  2  0
  8  9  1  0
  9 10  2  0
 10 11  1  0
 11 12  1  0
 12 13  2  0
 12 14  1  0
 14 15  2  0
 15 16  1  0
 16 17  2  0
 17 18  1  0
 17 19  1  0
 19 20  2  0
 10 21  1  0
  6 22  1  0
 22 23  2  0
  2 24  1  0
 24 25  2  0
 25 26  1  0
 26 27  2  0
 27 28  1  0
 27 29  1  0
 29 30  2  0
 23  4  1  0
 30 24  1  0
 21  7  1  0
 20 14  1  0
  3 31  1  0
  3 32  1  0
  5 33  1  0
  8 34  1  0
  9 35  1  0
 15 36  1  0
 16 37  1  0
 19 38  1  0
 25 39  1  0
 26 40  1  0
 29 41  1  0
 30 42  1  0
M  CHG  1  11  -1
M  END
>  <UniqueID>  (1) 
1

>  <SMILES>  (1) 
O=C(Cn1cc(-c2ccc([N-]C(=O)c3ccc(Cl)cn3)o2)nn1)c1ccc(Cl)cc1

>  <Energy>  (1) 
113.94501763433067

>  <Genealogy>  (1) 
O=C(Cn1cc(-c2ccc([N-]C(=O)c3ccc(Cl)cn3)o2)nn1)c1ccc(Cl)cc1 (protonated)
O=C(Cn1cc(-c2ccc([N-]C(=O)c3ccc(Cl)cn3)o2)nn1)c1ccc(Cl)cc1 (3D coordinates assigned)
O=C(Cn1cc(-c2ccc([N-]C(=O)c3ccc(Cl)cn3)o2)nn1)c1ccc(Cl)cc1 (optimized conformer: 113.94501763433067 kcal/mol)

>  <smiles>  (1) 
O=C(Cn1cc(-c2ccc(NC(=O)c3ccc(Cl)cn3)o2)nn1)c1ccc(Cl)cc1

>  <score_type>  (1) 
oracle

>  <origin>  (1) 
adg

>  <m_score__min__energy>  (1) 
-12.43

>  <m_primary>  (1) 
energy

$$$$
1:0
     RDKit          3D

 34 36  0  0  0  0  0  0  0  0999 V2000
   56.8200   29.4710   43.4540 O   0  0  0  0  0  0  0  0  0  0  0  0
   57.1890   30.0440   44.5170 C   0  0  0  0  0  0  0  0  0  0  0  0
   56.7180   31.3650   44.8230 N   0  0  0  0  0  0  0  0  0  0  0  0
   57.5170   32.4670   45.2770 C   0  0  0  0  0  0  0  0  0  0  0  0
   58.1090   33.3770   44.3820 C   0  0  0  0  0  0  0  0  0  0  0  0
   58.9020   34.4230   44.8650 C   0  0  0  0  0  0  0  0  0  0  0  0
   59.1200   34.5610   46.2380 C   0  0  0  0  0  0  0  0  0  0  0  0
   58.5550   33.6480   47.1300 C   0  0  0  0  0  0  0  0  0  0  0  0
   57.7630   32.5990   46.6510 C   0  0  0  0  0  0  0  0  0  0  0  0
   58.0930   29.3860   45.4380 N   0  0  2  0  0  0  0  0  0  0  0  0
   59.1990   28.7200   44.7190 C   0  0  0  0  0  0  0  0  0  0  0  0
   58.7120   27.5530   43.8450 C   0  0  0  0  0  0  0  0  0  0  0  0
   57.7250   26.6800   44.5710 C   0  0  0  0  0  0  0  0  0  0  0  0
   57.3900   25.4250   44.0440 C   0  0  0  0  0  0  0  0  0  0  0  0
   56.4280   24.6350   44.6760 C   0  0  0  0  0  0  0  0  0  0  0  0
   55.8020   25.1130   45.8290 C   0  0  0  0  0  0  0  0  0  0  0  0
   54.9350   24.4120   46.4160 O   0  0  0  0  0  0  0  0  0  0  0  0
   56.1280   26.3370   46.3220 N   0  0  0  0  0  0  0  0  0  0  0  0
   57.0520   27.1350   45.7210 C   0  0  0  0  0  0  0  0  0  0  0  0
   57.4020   28.4560   46.3600 C   0  0  0  0  0  0  0  0  0  0  0  0
   57.9478   33.2655   43.2996 H   0  0  0  0  0  0  0  0  0  0  0  0
   59.3548   35.1382   44.1626 H   0  0  0  0  0  0  0  0  0  0  0  0
   59.7371   35.3894   46.6162 H   0  0  0  0  0  0  0  0  0  0  0  0
   58.7326   33.7534   48.2104 H   0  0  0  0  0  0  0  0  0  0  0  0
   57.3309   31.8738   47.3562 H   0  0  0  0  0  0  0  0  0  0  0  0
   58.5210   30.1350   46.0320 H   0  0  0  0  0  0  0  0  0  0  0  0
   59.6974   29.4595   44.0750 H   0  0  0  0  0  0  0  0  0  0  0  0
   59.8889   28.3100   45.4713 H   0  0  0  0  0  0  0  0  0  0  0  0
   58.2303   27.9608   42.9441 H   0  0  0  0  0  0  0  0  0  0  0  0
   59.5846   26.9360   43.5844 H   0  0  0  0  0  0  0  0  0  0  0  0
   57.8857   25.0622   43.1315 H   0  0  0  0  0  0  0  0  0  0  0  0
   56.1660   23.6468   44.2701 H   0  0  0  0  0  0  0  0  0  0  0  0
   56.4736   28.9333   46.7068 H   0  0  0  0  0  0  0  0  0  0  0  0
   58.0932   28.2446   47.1892 H   0  0  0  0  0  0  0  0  0  0  0  0
  1  2  2  0
  2  3  1  0
  3  4  1  0
  4  5  2  0
  5  6  1  0
  6  7  2  0
  7  8  1  0
  8  9  2  0
  2 10  1  0
 10 11  1  0
 11 12  1  0
 12 13  1  0
 13 14  1  0
 14 15  2  0
 15 16  1  0
 16 17  2  0
 16 18  1  0
 18 19  1  0
 19 20  1  0
  9  4  1  0
 20 10  1  0
 19 13  2  0
  5 21  1  0
  6 22  1  0
  7 23  1  0
  8 24  1  0
  9 25  1  0
 10 26  1  1
 11 27  1  0
 11 28  1  0
 12 29  1  0
 12 30  1  0
 14 31  1  0
 15 32  1  0
 20 33  1  0
 20 34  1  0
M  CHG  3   3  -1  10   1  18  -1
M  END
>  <UniqueID>  (2) 
2

>  <SMILES>  (2) 
O=C([N-]c1ccccc1)[N@@H+]1CCc2ccc(=O)[n-]c2C1

>  <Energy>  (2) 
47.0912838797042

>  <Genealogy>  (2) 
O=C([N-]c1ccccc1)[NH+]1CCc2ccc(=O)[n-]c2C1 (protonated)
O=C([N-]c1ccccc1)[N@@H+]1CCc2ccc(=O)[n-]c2C1 (chirality)
O=C([N-]c1ccccc1)[N@@H+]1CCc2ccc(=O)[n-]c2C1 (3D coordinates assigned)
O=C([N-]c1ccccc1)[N@@H+]1CCc2ccc(=O)[n-]c2C1 (nonaromatic ring conformer: 47.0912838797042 kcal/mol)

>  <smiles>  (2) 
O=C(Nc1ccccc1)N1CCc2ccc(=O)[nH]c2C1

>  <score_type>  (2) 
oracle

>  <origin>  (2) 
adg

>  <m_score__min__energy>  (2) 
-8.7400000000000002

>  <m_primary>  (2) 
energy

$$$$
2:0
     RDKit          3D

 47 50  0  0  0  0  0  0  0  0999 V2000
   59.5600   33.6290   48.4860 O   0  0  0  0  0  0  0  0  0  0  0  0
   59.4480   33.9720   47.2800 C   0  0  0  0  0  0  0  0  0  0  0  0
   59.5700   35.3420   46.7860 C   0  0  0  0  0  0  0  0  0  0  0  0
   59.3340   35.3260   45.4770 C   0  0  0  0  0  0  0  0  0  0  0  0
   59.0570   33.9460   45.0870 C   0  0  0  0  0  0  0  0  0  0  0  0
   58.8340   33.5610   43.9100 O   0  0  0  0  0  0  0  0  0  0  0  0
   59.1270   33.0800   46.2170 N   0  0  0  0  0  0  0  0  0  0  0  0
   58.9080   31.6600   46.2720 C   0  0  0  0  0  0  0  0  0  0  0  0
   59.5210   30.8870   47.2680 C   0  0  0  0  0  0  0  0  0  0  0  0
   59.3240   29.5080   47.3100 C   0  0  0  0  0  0  0  0  0  0  0  0
   58.5030   28.8740   46.3690 C   0  0  0  0  0  0  0  0  0  0  0  0
   58.3570   27.4480   46.4290 N   0  0  0  0  0  0  0  0  0  0  0  0
   57.0140   26.8760   46.6100 C   0  0  0  0  0  0  0  0  0  0  0  0
   57.0790   25.3560   46.7860 C   0  0  0  0  0  0  0  0  0  0  0  0
   58.0180   24.7860   45.8110 N   0  0  0  0  0  0  0  0  0  0  0  0
   57.5950   23.7570   44.8960 C   0  0  0  0  0  0  0  0  0  0  0  0
   58.1460   22.4660   44.9710 C   0  0  0  0  0  0  0  0  0  0  0  0
   57.7430   21.4730   44.0730 C   0  0  0  0  0  0  0  0  0  0  0  0
   56.7940   21.7600   43.0890 C   0  0  0  0  0  0  0  0  0  0  0  0
   56.2470   23.0430   43.0000 C   0  0  0  0  0  0  0  0  0  0  0  0
   56.6450   24.0380   43.8970 C   0  0  0  0  0  0  0  0  0  0  0  0
   59.3820   25.3300   45.7100 C   0  0  0  0  0  0  0  0  0  0  0  0
   59.5500   26.6020   46.5510 C   0  0  0  0  0  0  0  0  0  0  0  0
   57.8500   29.6410   45.3740 C   0  0  0  0  0  0  0  0  0  0  0  0
   56.9670   28.9920   44.3260 C   0  0  0  0  0  0  0  0  0  0  0  0
   56.7830   29.8380   43.2480 F   0  0  0  0  0  0  0  0  0  0  0  0
   57.5310   27.8230   43.8490 F   0  0  0  0  0  0  0  0  0  0  0  0
   55.7380   28.6920   44.8840 F   0  0  0  0  0  0  0  0  0  0  0  0
   58.0820   31.0310   45.3270 C   0  0  0  0  0  0  0  0  0  0  0  0
   59.8137   36.2288   47.3894 H   0  0  0  0  0  0  0  0  0  0  0  0
   59.3454   36.1981   44.8067 H   0  0  0  0  0  0  0  0  0  0  0  0
   60.1608   31.3714   48.0203 H   0  0  0  0  0  0  0  0  0  0  0  0
   59.8186   28.9112   48.0905 H   0  0  0  0  0  0  0  0  0  0  0  0
   56.5517   27.3213   47.5033 H   0  0  0  0  0  0  0  0  0  0  0  0
   56.4170   27.0978   45.7131 H   0  0  0  0  0  0  0  0  0  0  0  0
   57.4208   25.1198   47.8045 H   0  0  0  0  0  0  0  0  0  0  0  0
   56.0793   24.9268   46.6239 H   0  0  0  0  0  0  0  0  0  0  0  0
   58.8980   22.2358   45.7401 H   0  0  0  0  0  0  0  0  0  0  0  0
   58.1743   20.4634   44.1415 H   0  0  0  0  0  0  0  0  0  0  0  0
   56.4774   20.9767   42.3846 H   0  0  0  0  0  0  0  0  0  0  0  0
   55.5023   23.2699   42.2229 H   0  0  0  0  0  0  0  0  0  0  0  0
   56.2130   25.0468   43.8215 H   0  0  0  0  0  0  0  0  0  0  0  0
   60.0953   24.5715   46.0647 H   0  0  0  0  0  0  0  0  0  0  0  0
   59.5710   25.5877   44.6575 H   0  0  0  0  0  0  0  0  0  0  0  0
   59.6931   26.3246   47.6058 H   0  0  0  0  0  0  0  0  0  0  0  0
   60.4260   27.1602   46.1889 H   0  0  0  0  0  0  0  0  0  0  0  0
   57.6081   31.6323   44.5371 H   0  0  0  0  0  0  0  0  0  0  0  0
  1  2  2  0
  2  3  1  0
  3  4  2  0
  4  5  1  0
  5  6  2  0
  5  7  1  0
  7  8  1  0
  8  9  2  0
  9 10  1  0
 10 11  2  0
 11 12  1  0
 12 13  1  0
 13 14  1  0
 14 15  1  0
 15 16  1  0
 16 17  2  0
 17 18  1  0
 18 19  2  0
 19 20  1  0
 20 21  2  0
 15 22  1  0
 22 23  1  0
 11 24  1  0
 24 25  1  0
 25 26  1  0
 25 27  1  0
 25 28  1  0
 24 29  2  0
  7  2  1  0
 29  8  1  0
 23 12  1  0
 21 16  1  0
  3 30  1  0
  4 31  1  0
  9 32  1  0
 10 33  1  0
 13 34  1  0
 13 35  1  0
 14 36  1  0
 14 37  1  0
 17 38  1  0
 18 39  1  0
 19 40  1  0
 20 41  1  0
 21 42  1  0
 22 43  1  0
 22 44  1  0
 23 45  1  0
 23 46  1  0
 29 47  1  0
M  END
>  <UniqueID>  (3) 
3

>  <SMILES>  (3) 
O=C1C=CC(=O)N1c1ccc(N2CCN(c3ccccc3)CC2)c(C(F)(F)F)c1

>  <Energy>  (3) 
92.48274990908148

>  <Genealogy>  (3) 
O=C1C=CC(=O)N1c1ccc(N2CCN(c3ccccc3)CC2)c(C(F)(F)F)c1 (3D coordinates assigned)
O=C1C=CC(=O)N1c1ccc(N2CCN(c3ccccc3)CC2)c(C(F)(F)F)c1 (nonaromatic ring conformer: 92.48274990908148 kcal/mol)

>  <smiles>  (3) 
O=C1C=CC(=O)N1c1ccc(N2CCN(c3ccccc3)CC2)c(C(F)(F)F)c1

>  <score_type>  (3) 
oracle

>  <origin>  (3) 
adg

>  <m_score__min__energy>  (3) 
-7.7699999999999996

>  <m_primary>  (3) 
energy

$$$$
3:0
     RDKit          3D

 49 52  0  0  1  0  0  0  0  0999 V2000
   60.7580   31.5700   46.5270 O   0  0  0  0  0  0  0  0  0  0  0  0
   61.2940   30.9560   47.4800 C   0  0  0  0  0  0  0  0  0  0  0  0
   60.8340   29.7040   47.8800 N   0  0  0  0  0  0  0  0  0  0  0  0
   59.7710   28.9610   47.3320 C   0  0  0  0  0  0  0  0  0  0  0  0
   58.9030   29.4010   46.3630 C   0  0  0  0  0  0  0  0  0  0  0  0
   58.3090   33.6900   46.5440 C   0  0  0  0  0  0  0  0  0  0  0  0
   57.4880   33.6720   45.3940 N   0  0  0  0  0  0  0  0  0  0  0  0
   57.4940   32.6260   44.6440 C   0  0  0  0  0  0  0  0  0  0  0  0
   57.5010   30.4080   43.0870 N   0  0  0  0  0  0  0  0  0  0  0  0
   57.7650   31.6090   42.5150 C   0  0  0  0  0  0  0  0  0  0  0  0
   57.7700   32.7560   43.2820 C   0  0  0  0  0  0  0  0  0  0  0  0
   57.2350   30.2910   44.4040 C   0  0  0  0  0  0  0  0  0  0  0  0
   56.9950   29.1080   44.8600 N   0  0  0  0  0  0  0  0  0  0  0  0
   57.8660   28.6020   45.8660 C   0  0  0  0  0  0  0  0  0  0  0  0
   58.0860   32.9090   47.6580 C   0  0  0  0  0  0  0  0  0  0  0  0
   60.2650   34.6450   47.6020 C   0  0  0  0  0  0  0  0  0  0  0  0
   60.0500   33.8690   48.7180 C   0  0  0  0  0  0  0  0  0  0  0  0
   60.8960   33.9500   49.7850 F   0  0  0  0  0  0  0  0  0  0  0  0
   58.9640   33.0190   48.7200 C   0  0  0  0  0  0  0  0  0  0  0  0
   57.6680   27.3220   46.3350 C   0  0  0  0  0  0  0  0  0  0  0  0
   57.2350   31.3980   45.1680 N   0  0  0  0  0  0  0  0  0  0  0  0
   59.4020   34.5550   46.5250 C   0  0  0  0  0  0  0  0  0  0  0  0
   58.5320   26.8710   47.3060 C   0  0  0  0  0  0  0  0  0  0  0  0
   59.5500   27.6610   47.7920 C   0  0  0  0  0  0  0  0  0  0  0  0
   60.3740   27.0990   48.7830 O   0  0  0  0  0  0  0  0  0  0  0  0
   62.4260   31.6610   48.1200 C   0  0  0  0  0  0  0  0  0  0  0  0
   63.0550   32.6740   47.4250 C   0  0  0  0  0  0  0  0  0  0  0  0
   64.1310   33.3830   47.9710 C   0  0  0  0  0  0  0  0  0  0  0  0
   64.5810   33.0640   49.2410 C   0  0  0  0  0  0  0  0  0  0  0  0
   63.9490   32.0510   49.9330 C   0  0  0  0  0  0  0  0  0  0  0  0
   62.8730   31.3460   49.3810 C   0  0  0  0  0  0  0  0  0  0  0  0
   61.3470   29.2530   48.6980 H   0  0  0  0  0  0  0  0  0  0  0  0
   59.0269   30.4181   45.9627 H   0  0  0  0  0  0  0  0  0  0  0  0
   57.5050   29.5560   42.4830 H   0  0  0  0  0  0  0  0  0  0  0  0
   57.9756   31.6689   41.4370 H   0  0  0  0  0  0  0  0  0  0  0  0
   57.9840   33.7384   42.8357 H   0  0  0  0  0  0  0  0  0  0  0  0
   57.2322   32.2168   47.7006 H   0  0  0  0  0  0  0  0  0  0  0  0
   61.1209   35.3350   47.5667 H   0  0  0  0  0  0  0  0  0  0  0  0
   58.7878   32.3979   49.6106 H   0  0  0  0  0  0  0  0  0  0  0  0
   56.8551   26.6886   45.9502 H   0  0  0  0  0  0  0  0  0  0  0  0
   57.0320   31.3210   46.1880 H   0  0  0  0  0  0  0  0  0  0  0  0
   59.5815   35.1780   45.6364 H   0  0  0  0  0  0  0  0  0  0  0  0
   58.4065   25.8534   47.7044 H   0  0  0  0  0  0  0  0  0  0  0  0
   60.3780   27.4710   49.7390 H   0  0  0  0  0  0  0  0  0  0  0  0
   62.7013   32.9308   46.4156 H   0  0  0  0  0  0  0  0  0  0  0  0
   64.6149   34.1865   47.3964 H   0  0  0  0  0  0  0  0  0  0  0  0
   65.4257   33.6074   49.6896 H   0  0  0  0  0  0  0  0  0  0  0  0
   64.2993   31.7912   50.9429 H   0  0  0  0  0  0  0  0  0  0  0  0
   62.3870   30.5428   49.9543 H   0  0  0  0  0  0  0  0  0  0  0  0
  1  2  2  0
  2  3  1  0
  3  4  1  0
  4  5  2  0
  5  6  1  0
  6  7  1  0
  7  8  2  0
  8  9  1  0
  9 10  1  0
 10 11  2  0
 11 12  1  0
 12 13  2  0
 13 14  1  0
 14 15  2  0
 15 16  1  0
 16 17  2  0
 17 18  1  0
 17 19  1  0
 19 20  2  0
 12 21  1  0
  6 22  2  0
 22 23  1  0
 23 24  2  0
 24 25  1  0
  2 26  1  0
 26 27  2  0
 27 28  1  0
 28 29  2  0
 29 30  1  0
 30 31  2  0
 24  4  1  0
 31 26  1  0
 21  8  1  0
 20 14  1  0
  3 32  1  0
  5 33  1  0
  9 34  1  0
 10 35  1  0
 11 36  1  0
 15 37  1  0
 16 38  1  0
 19 39  1  0
 20 40  1  0
 21 41  1  0
 22 42  1  0
 23 43  1  0
 25 44  1  0
 27 45  1  0
 28 46  1  0
 29 47  1  0
 30 48  1  0
 31 49  1  0
M  END
>  <smiles>  (4) 
O=C(Nc1cc(N=c2[nH]ccc(=Nc3ccc(F)cc3)[nH]2)ccc1O)c1ccccc1

>  <score_type>  (4) 
oracle

>  <origin>  (4) 
adg

>  <m_score__min__energy>  (4) 
-8.4199999999999999

>  <m_primary>  (4) 
energy

$$$$
4:0
     RDKit          3D

 45 48  0  0  0  0  0  0  0  0999 V2000
   55.3070   23.3130   42.9920 C   0  0  0  0  0  0  0  0  0  0  0  0
   56.5620   23.1590   43.7990 C   0  0  0  0  0  0  0  0  0  0  0  0
   57.3850   22.0380   43.6210 C   0  0  0  0  0  0  0  0  0  0  0  0
   58.5750   21.9160   44.3420 C   0  0  0  0  0  0  0  0  0  0  0  0
   58.9590   22.9180   45.2370 C   0  0  0  0  0  0  0  0  0  0  0  0
   58.1520   24.0520   45.4180 C   0  0  0  0  0  0  0  0  0  0  0  0
   58.5920   25.1440   46.3550 C   0  0  0  0  0  0  0  0  0  0  0  0
   57.4320   25.7810   46.9670 N   0  0  0  0  0  0  0  0  0  0  0  0
   56.7290   26.8850   46.3830 C   0  0  0  0  0  0  0  0  0  0  0  0
   55.5430   26.7220   45.9880 O   0  0  0  0  0  0  0  0  0  0  0  0
   57.3990   28.2080   46.2440 C   0  0  0  0  0  0  0  0  0  0  0  0
   58.5990   28.4480   46.9260 C   0  0  0  0  0  0  0  0  0  0  0  0
   59.2430   29.6860   46.8240 C   0  0  0  0  0  0  0  0  0  0  0  0
   60.4390   29.9660   47.5150 C   0  0  0  0  0  0  0  0  0  0  0  0
   60.9600   29.0760   48.2460 O   0  0  0  0  0  0  0  0  0  0  0  0
   61.0310   31.2000   47.3960 N   0  0  0  0  0  0  0  0  0  0  0  0
   62.1960   31.4870   48.0650 C   0  0  0  0  0  0  0  0  0  0  0  0
   62.7990   32.7410   47.9470 C   0  0  0  0  0  0  0  0  0  0  0  0
   62.2110   33.7120   47.1420 C   0  0  0  0  0  0  0  0  0  0  0  0
   61.0310   33.4240   46.4630 C   0  0  0  0  0  0  0  0  0  0  0  0
   60.4470   32.1600   46.5970 C   0  0  0  0  0  0  0  0  0  0  0  0
   59.2990   31.8900   45.9280 N   0  0  0  0  0  0  0  0  0  0  0  0
   58.6790   30.6830   46.0120 C   0  0  0  0  0  0  0  0  0  0  0  0
   57.5200   30.4450   45.3150 N   0  0  0  0  0  0  0  0  0  0  0  0
   56.9370   31.5170   44.4860 C   0  0  0  0  0  0  0  0  0  0  0  0
   56.8630   29.2430   45.4420 C   0  0  0  0  0  0  0  0  0  0  0  0
   55.7670   29.0610   44.8420 O   0  0  0  0  0  0  0  0  0  0  0  0
   56.9590   24.1740   44.6870 C   0  0  0  0  0  0  0  0  0  0  0  0
   54.4464   23.4186   43.6689 H   0  0  0  0  0  0  0  0  0  0  0  0
   55.3865   24.2081   42.3576 H   0  0  0  0  0  0  0  0  0  0  0  0
   55.1677   22.4252   42.3576 H   0  0  0  0  0  0  0  0  0  0  0  0
   57.0922   21.2511   42.9104 H   0  0  0  0  0  0  0  0  0  0  0  0
   59.2113   21.0292   44.2050 H   0  0  0  0  0  0  0  0  0  0  0  0
   59.8975   22.8177   45.8020 H   0  0  0  0  0  0  0  0  0  0  0  0
   59.2272   24.7127   47.1427 H   0  0  0  0  0  0  0  0  0  0  0  0
   59.1571   25.8978   45.7871 H   0  0  0  0  0  0  0  0  0  0  0  0
   59.0395   27.6549   47.5481 H   0  0  0  0  0  0  0  0  0  0  0  0
   62.6598   30.7192   48.7018 H   0  0  0  0  0  0  0  0  0  0  0  0
   63.7323   32.9598   48.4866 H   0  0  0  0  0  0  0  0  0  0  0  0
   62.6772   34.7034   47.0428 H   0  0  0  0  0  0  0  0  0  0  0  0
   60.5601   34.1860   45.8245 H   0  0  0  0  0  0  0  0  0  0  0  0
   56.5137   32.2954   45.1378 H   0  0  0  0  0  0  0  0  0  0  0  0
   57.7203   31.9566   43.8510 H   0  0  0  0  0  0  0  0  0  0  0  0
   56.1423   31.0984   43.8510 H   0  0  0  0  0  0  0  0  0  0  0  0
   56.3315   25.0691   44.8100 H   0  0  0  0  0  0  0  0  0  0  0  0
  1  2  1  0
  2  3  2  0
  3  4  1  0
  4  5  2  0
  5  6  1  0
  6  7  1  0
  7  8  1  0
  8  9  1  0
  9 10  2  0
  9 11  1  0
 11 12  2  0
 12 13  1  0
 13 14  1  0
 14 15  2  0
 14 16  1  0
 16 17  1  0
 17 18  2  0
 18 19  1  0
 19 20  2  0
 20 21  1  0
 21 22  2  0
 22 23  1  0
 23 24  1  0
 24 25  1  0
 24 26  1  0
 26 27  2  0
  6 28  2  0
 28  2  1  0
 26 11  1  0
 23 13  2  0
 21 16  1  0
  1 29  1  0
  1 30  1  0
  1 31  1  0
  3 32  1  0
  4 33  1  0
  5 34  1  0
  7 35  1  0
  7 36  1  0
 12 37  1  0
 17 38  1  0
 18 39  1  0
 19 40  1  0
 20 41  1  0
 25 42  1  0
 25 43  1  0
 25 44  1  0
 28 45  1  0
M  CHG  1   8  -1
M  END
>  <UniqueID>  (5) 
4

>  <SMILES>  (5) 
Cc1cccc(C[N-]C(=O)c2cc3c(=O)n4ccccc4nc3n(C)c2=O)c1

>  <Energy>  (5) 
63.071095686603044

>  <Genealogy>  (5) 
Cc1cccc(C[N-]C(=O)c2cc3c(=O)n4ccccc4nc3n(C)c2=O)c1 (protonated)
Cc1cccc(C[N-]C(=O)c2cc3c(=O)n4ccccc4nc3n(C)c2=O)c1 (3D coordinates assigned)
Cc1cccc(C[N-]C(=O)c2cc3c(=O)n4ccccc4nc3n(C)c2=O)c1 (optimized conformer: 63.071095686603044 kcal/mol)

>  <smiles>  (5) 
Cc1cccc(CNC(=O)c2cc3c(=O)n4ccccc4nc3n(C)c2=O)c1

>  <score_type>  (5) 
oracle

>  <origin>  (5) 
adg

>  <m_score__min__energy>  (5) 
-10.380000000000001

>  <m_primary>  (5) 
energy

$$$$
5:0
     RDKit          3D

 34 36  0  0  0  0  0  0  0  0999 V2000
   66.9490   32.2640   51.7780 C   0  0  0  0  0  0  0  0  0  0  0  0
   65.8010   32.8450   51.0800 N   0  0  0  0  0  0  0  0  0  0  0  0
   64.8830   33.5920   51.7840 C   0  0  0  0  0  0  0  0  0  0  0  0
   63.7570   34.1190   51.1320 C   0  0  0  0  0  0  0  0  0  0  0  0
   63.6180   33.8540   49.8120 N   0  0  0  0  0  0  0  0  0  0  0  0
   62.6350   34.2250   49.0110 N   0  0  0  0  0  0  0  0  0  0  0  0
   62.9580   33.6860   47.8100 C   0  0  0  0  0  0  0  0  0  0  0  0
   61.9330   33.8390   46.3480 S   0  0  0  0  0  0  0  0  0  0  0  0
   60.3560   33.6630   47.2520 C   0  0  0  0  0  0  0  0  0  0  0  0
   59.3390   32.9240   46.4250 C   0  0  0  0  0  0  0  0  0  0  0  0
   58.3750   33.6320   45.6940 C   0  0  0  0  0  0  0  0  0  0  0  0
   57.4550   32.9510   44.8920 C   0  0  0  0  0  0  0  0  0  0  0  0
   57.4850   31.5490   44.8040 C   0  0  0  0  0  0  0  0  0  0  0  0
   56.5390   30.8510   43.9720 N   0  0  0  0  0  0  0  0  0  0  0  0
   56.6440   30.8800   42.7270 O   0  0  0  0  0  0  0  0  0  0  0  0
   55.5040   30.1400   44.5340 O   0  0  0  0  0  0  0  0  0  0  0  0
   58.4550   30.8420   45.5370 C   0  0  0  0  0  0  0  0  0  0  0  0
   59.3730   31.5230   46.3410 C   0  0  0  0  0  0  0  0  0  0  0  0
   64.1190   32.9880   47.8430 N   0  0  0  0  0  0  0  0  0  0  0  0
   64.4940   33.1200   49.1230 C   0  0  0  0  0  0  0  0  0  0  0  0
   65.6160   32.5830   49.7450 C   0  0  0  0  0  0  0  0  0  0  0  0
   66.7953   32.3418   52.8644 H   0  0  0  0  0  0  0  0  0  0  0  0
   67.0516   31.2054   51.4970 H   0  0  0  0  0  0  0  0  0  0  0  0
   67.8628   32.8082   51.4970 H   0  0  0  0  0  0  0  0  0  0  0  0
   65.0322   33.7759   52.8582 H   0  0  0  0  0  0  0  0  0  0  0  0
   63.0154   34.7246   51.6736 H   0  0  0  0  0  0  0  0  0  0  0  0
   60.5356   33.1058   48.1833 H   0  0  0  0  0  0  0  0  0  0  0  0
   59.9649   34.6672   47.4726 H   0  0  0  0  0  0  0  0  0  0  0  0
   58.3424   34.7300   45.7519 H   0  0  0  0  0  0  0  0  0  0  0  0
   56.7013   33.5172   44.3251 H   0  0  0  0  0  0  0  0  0  0  0  0
   58.4914   29.7442   45.4770 H   0  0  0  0  0  0  0  0  0  0  0  0
   60.1259   30.9586   46.9108 H   0  0  0  0  0  0  0  0  0  0  0  0
   64.5880   32.4620   47.0720 H   0  0  0  0  0  0  0  0  0  0  0  0
   66.3339   31.9666   49.1840 H   0  0  0  0  0  0  0  0  0  0  0  0
  1  2  1  0
  2  3  1  0
  3  4  2  0
  4  5  1  0
  5  6  1  0
  6  7  2  0
  7  8  1  0
  8  9  1  0
  9 10  1  0
 10 11  2  0
 11 12  1  0
 12 13  2  0
 13 14  1  0
 14 15  2  0
 14 16  1  0
 13 17  1  0
 17 18  2  0
  7 19  1  0
 19 20  2  0
 20 21  1  0
 21  2  2  0
 20  5  1  0
 18 10  1  0
  1 22  1  0
  1 23  1  0
  1 24  1  0
  3 25  1  0
  4 26  1  0
  9 27  1  0
  9 28  1  0
 11 29  1  0
 12 30  1  0
 17 31  1  0
 18 32  1  0
 19 33  1  0
 21 34  1  0
M  CHG  4   2   1  14   1  16  -1  19   1
M  END
>  <UniqueID>  (6) 
5

>  <SMILES>  (6) 
C[n+]1ccn2nc(SCc3ccc([N+](=O)[O-])cc3)[nH+]c2c1

>  <Energy>  (6) 
73.9518493555307

>  <Genealogy>  (6) 
C[n+]1ccn2nc(SCc3ccc([N+](=O)[O-])cc3)[nH+]c2c1 (protonated)
C[n+]1ccn2nc(SCc3ccc([N+](=O)[O-])cc3)[nH+]c2c1 (3D coordinates assigned)
C[n+]1ccn2nc(SCc3ccc([N+](=O)[O-])cc3)[nH+]c2c1 (optimized conformer: 73.9518493555307 kcal/mol)

>  <smiles>  (6) 
C[n+]1ccn2nc(SCc3ccc([N+](=O)[O-])cc3)nc2c1

>  <score_type>  (6) 
oracle

>  <origin>  (6) 
adg

>  <m_score__min__energy>  (6) 
-5.5800000000000001

>  <m_primary>  (6) 
energy

$$$$
6:0
     RDKit          3D

 27 28  0  0  0  0  0  0  0  0999 V2000
   55.1950   28.6220   45.6160 H   0  0  0  0  0  0  0  0  0  0  0  0
   55.1380   29.3300   44.8500 N   0  0  0  0  0  0  0  0  0  0  0  0
   56.7230   29.4720   44.1750 S   0  0  0  0  0  0  0  0  0  0  0  0
   56.6010   29.6430   42.6870 O   0  0  0  0  0  0  0  0  0  0  0  0
   57.5070   28.2250   44.4720 O   0  0  0  0  0  0  0  0  0  0  0  0
   57.5490   30.8620   44.8740 C   0  0  0  0  0  0  0  0  0  0  0  0
   58.2130   30.7480   46.1020 C   0  0  0  0  0  0  0  0  0  0  0  0
   58.2230   29.7841   46.6318 H   0  0  0  0  0  0  0  0  0  0  0  0
   58.8630   31.8540   46.6570 C   0  0  0  0  0  0  0  0  0  0  0  0
   59.3697   31.7605   47.6289 H   0  0  0  0  0  0  0  0  0  0  0  0
   58.8720   33.0810   45.9810 C   0  0  0  0  0  0  0  0  0  0  0  0
   59.5280   34.2060   46.5890 N   0  0  0  0  0  0  0  0  0  0  0  0
   60.7790   34.4670   46.5250 N   0  0  0  0  0  0  0  0  0  0  0  0
   61.7840   33.9550   47.4160 C   0  0  0  0  0  0  0  0  0  0  0  0
   61.5400   33.7890   48.7900 C   0  0  0  0  0  0  0  0  0  0  0  0
   60.3040   34.1250   49.3350 O   0  0  0  0  0  0  0  0  0  0  0  0
   59.5430   34.4380   48.7450 H   0  0  0  0  0  0  0  0  0  0  0  0
   62.5260   33.3170   49.5970 N   0  0  0  0  0  0  0  0  0  0  0  0
   63.7560   33.0220   49.1030 C   0  0  0  0  0  0  0  0  0  0  0  0
   64.9190   32.4560   50.0980 S   0  0  0  0  0  0  0  0  0  0  0  0
   64.0240   33.2140   47.7860 N   0  0  0  0  0  0  0  0  0  0  0  0
   63.0710   33.6810   46.9380 C   0  0  0  0  0  0  0  0  0  0  0  0
   63.3510   33.8520   45.7230 O   0  0  0  0  0  0  0  0  0  0  0  0
   58.1680   33.2060   44.7710 C   0  0  0  0  0  0  0  0  0  0  0  0
   58.1274   34.1783   44.2582 H   0  0  0  0  0  0  0  0  0  0  0  0
   57.5190   32.0980   44.2170 C   0  0  0  0  0  0  0  0  0  0  0  0
   56.9830   32.1979   43.2616 H   0  0  0  0  0  0  0  0  0  0  0  0
  1  2  1  0
  2  3  1  0
  3  4  2  0
  3  5  2  0
  3  6  1  0
  6  7  2  0
  7  8  1  0
  7  9  1  0
  9 10  1  0
  9 11  2  0
 11 12  1  0
 12 13  2  0
 13 14  1  0
 14 15  2  0
 15 16  1  0
 16 17  1  0
 15 18  1  0
 18 19  1  0
 19 20  2  0
 19 21  1  0
 21 22  1  0
 22 23  2  0
 11 24  1  0
 24 25  1  0
 24 26  2  0
 26 27  1  0
 26  6  1  0
 22 14  1  0
M  CHG  3   2  -1  18  -1  21  -1
M  END
>  <UniqueID>  (7) 
6

>  <SMILES>  (7) 
[NH-]S(=O)(=O)c1ccc(/N=N\c2c(O)[n-]c(=S)[n-]c2=O)cc1

>  <Energy>  (7) 
42.25476000114065

>  <Genealogy>  (7) 
[NH-]S(=O)(=O)c1ccc(N=Nc2c(O)[n-]c(=S)[n-]c2=O)cc1 (protonated)
[NH-]S(=O)(=O)c1ccc(/N=N\c2c(O)[n-]c(=S)[n-]c2=O)cc1 (cis-trans isomerization)
[NH-]S(=O)(=O)c1ccc(/N=N\c2c(O)[n-]c(=S)[n-]c2=O)cc1 (3D coordinates assigned)
[NH-]S(=O)(=O)c1ccc(/N=N\c2c(O)[n-]c(=S)[n-]c2=O)cc1 (optimized conformer: 42.25476000114065 kcal/mol)

>  <smiles>  (7) 
NS(=O)(=O)c1ccc(N=Nc2c(O)[nH]c(=S)[nH]c2=O)cc1

>  <score_type>  (7) 
oracle

>  <origin>  (7) 
adg

>  <m_score__min__energy>  (7) 
-11.41

>  <m_primary>  (7) 
energy

$$$$
7:0
     RDKit          3D

 42 44  0  0  0  0  0  0  0  0999 V2000
   57.3280   23.4210   46.1810 N   0  0  0  0  0  0  0  0  0  0  0  0
   57.4600   24.5100   45.8120 C   0  0  0  0  0  0  0  0  0  0  0  0
   57.6250   25.8650   45.3540 C   0  0  0  0  0  0  0  0  0  0  0  0
   57.9310   26.1210   44.0130 C   0  0  0  0  0  0  0  0  0  0  0  0
   58.0890   27.4370   43.5660 C   0  0  0  0  0  0  0  0  0  0  0  0
   57.9560   28.5130   44.4630 C   0  0  0  0  0  0  0  0  0  0  0  0
   58.0900   29.8760   44.0270 N   0  0  0  0  0  0  0  0  0  0  0  0
   57.1430   30.9130   44.3200 C   0  0  0  0  0  0  0  0  0  0  0  0
   56.0200   30.6360   44.8220 O   0  0  0  0  0  0  0  0  0  0  0  0
   57.4680   32.2660   43.9950 N   0  0  0  0  0  0  0  0  0  0  0  0
   57.5650   33.5110   45.1940 S   0  0  0  0  0  0  0  0  0  0  0  0
   57.5930   34.8540   44.5160 O   0  0  0  0  0  0  0  0  0  0  0  0
   56.3520   33.4440   46.0790 O   0  0  0  0  0  0  0  0  0  0  0  0
   59.0060   33.2760   46.1760 C   0  0  0  0  0  0  0  0  0  0  0  0
   59.5230   31.9930   46.3960 C   0  0  0  0  0  0  0  0  0  0  0  0
   60.6590   31.8190   47.1920 C   0  0  0  0  0  0  0  0  0  0  0  0
   61.2990   32.9270   47.7770 C   0  0  0  0  0  0  0  0  0  0  0  0
   62.4610   32.7510   48.6110 N   0  0  0  0  0  0  0  0  0  0  0  0
   62.4250   32.3220   50.0010 C   0  0  0  0  0  0  0  0  0  0  0  0
   63.8860   32.0520   50.4030 C   0  0  0  0  0  0  0  0  0  0  0  0
   64.7730   32.6430   49.2990 C   0  0  0  0  0  0  0  0  0  0  0  0
   63.8090   32.9820   48.2340 C   0  0  0  0  0  0  0  0  0  0  0  0
   64.1450   33.4910   47.1330 O   0  0  0  0  0  0  0  0  0  0  0  0
   60.7630   34.2100   47.5660 C   0  0  0  0  0  0  0  0  0  0  0  0
   59.6270   34.3820   46.7690 C   0  0  0  0  0  0  0  0  0  0  0  0
   57.6260   28.2490   45.8020 C   0  0  0  0  0  0  0  0  0  0  0  0
   57.4680   26.9330   46.2470 C   0  0  0  0  0  0  0  0  0  0  0  0
   58.0477   25.2848   43.3080 H   0  0  0  0  0  0  0  0  0  0  0  0
   58.3184   27.6317   42.5080 H   0  0  0  0  0  0  0  0  0  0  0  0
   58.8760   30.1130   43.3810 H   0  0  0  0  0  0  0  0  0  0  0  0
   59.0335   31.1193   45.9409 H   0  0  0  0  0  0  0  0  0  0  0  0
   61.0558   30.8073   47.3624 H   0  0  0  0  0  0  0  0  0  0  0  0
   61.9950   33.1127   50.6334 H   0  0  0  0  0  0  0  0  0  0  0  0
   61.8011   31.4251   50.1285 H   0  0  0  0  0  0  0  0  0  0  0  0
   64.1083   32.5359   51.3655 H   0  0  0  0  0  0  0  0  0  0  0  0
   64.0683   30.9732   50.5169 H   0  0  0  0  0  0  0  0  0  0  0  0
   65.2991   33.5411   49.6548 H   0  0  0  0  0  0  0  0  0  0  0  0
   65.5601   31.9519   48.9631 H   0  0  0  0  0  0  0  0  0  0  0  0
   61.2409   35.0846   48.0314 H   0  0  0  0  0  0  0  0  0  0  0  0
   59.2194   35.3908   46.6072 H   0  0  0  0  0  0  0  0  0  0  0  0
   57.4908   29.0834   46.5059 H   0  0  0  0  0  0  0  0  0  0  0  0
   57.2199   26.7358   47.3004 H   0  0  0  0  0  0  0  0  0  0  0  0
  1  2  3  0
  2  3  1  0
  3  4  2  0
  4  5  1  0
  5  6  2  0
  6  7  1  0
  7  8  1  0
  8  9  2  0
  8 10  1  0
 10 11  1  0
 11 12  2  0
 11 13  2  0
 11 14  1  0
 14 15  2  0
 15 16  1  0
 16 17  2  0
 17 18  1  0
 18 19  1  0
 19 20  1  0
 20 21  1  0
 21 22  1  0
 22 23  2  0
 17 24  1  0
 24 25  2  0
  6 26  1  0
 26 27  2  0
 27  3  1  0
 25 14  1  0
 22 18  1  0
  4 28  1  0
  5 29  1  0
  7 30  1  0
 15 31  1  0
 16 32  1  0
 19 33  1  0
 19 34  1  0
 20 35  1  0
 20 36  1  0
 21 37  1  0
 21 38  1  0
 24 39  1  0
 25 40  1  0
 26 41  1  0
 27 42  1  0
M  CHG  1  10  -1
M  END
>  <UniqueID>  (8) 
7

>  <SMILES>  (8) 
N#Cc1ccc(NC(=O)[N-]S(=O)(=O)c2ccc(N3CCCC3=O)cc2)cc1

>  <Energy>  (8) 
58.28516370294769

>  <Genealogy>  (8) 
N#Cc1ccc(NC(=O)[N-]S(=O)(=O)c2ccc(N3CCCC3=O)cc2)cc1 (protonated)
N#Cc1ccc(NC(=O)[N-]S(=O)(=O)c2ccc(N3CCCC3=O)cc2)cc1 (3D coordinates assigned)
N#Cc1ccc(NC(=O)[N-]S(=O)(=O)c2ccc(N3CCCC3=O)cc2)cc1 (nonaromatic ring conformer: 58.28516370294769 kcal/mol)

>  <smiles>  (8) 
N#Cc1ccc(NC(=O)NS(=O)(=O)c2ccc(N3CCCC3=O)cc2)cc1

>  <score_type>  (8) 
oracle

>  <origin>  (8) 
adg

>  <m_score__min__energy>  (8) 
-9.6999999999999993

>  <m_primary>  (8) 
energy

$$$$
8:0
     RDKit          3D

 52 55  0  0  0  0  0  0  0  0999 V2000
   54.3382   24.1178   45.7694 H   0  0  0  0  0  0  0  0  0  0  0  0
   55.2110   24.7670   45.6060 C   0  0  0  0  0  0  0  0  0  0  0  0
   55.2480   26.0640   46.0100 N   0  0  0  0  0  0  0  0  0  0  0  0
   56.4230   26.6510   45.7000 C   0  0  0  0  0  0  0  0  0  0  0  0
   56.6740   27.8930   45.9900 N   0  0  0  0  0  0  0  0  0  0  0  0
   57.9470   28.5730   45.7550 C   0  0  0  0  0  0  0  0  0  0  0  0
   58.3760   28.2167   44.8068 H   0  0  0  0  0  0  0  0  0  0  0  0
   57.7637   29.6567   45.7104 H   0  0  0  0  0  0  0  0  0  0  0  0
   58.9210   28.2940   46.8740 C   0  0  0  0  0  0  0  0  0  0  0  0
   59.5770   27.0530   46.9380 C   0  0  0  0  0  0  0  0  0  0  0  0
   59.3787   26.2904   46.1705 H   0  0  0  0  0  0  0  0  0  0  0  0
   60.4780   26.7810   47.9680 C   0  0  0  0  0  0  0  0  0  0  0  0
   60.9830   25.8048   48.0129 H   0  0  0  0  0  0  0  0  0  0  0  0
   60.7390   27.7460   48.9410 C   0  0  0  0  0  0  0  0  0  0  0  0
   61.4500   27.5293   49.7519 H   0  0  0  0  0  0  0  0  0  0  0  0
   60.1000   28.9860   48.8880 C   0  0  0  0  0  0  0  0  0  0  0  0
   60.3091   29.7418   49.6594 H   0  0  0  0  0  0  0  0  0  0  0  0
   59.1890   29.2760   47.8530 C   0  0  0  0  0  0  0  0  0  0  0  0
   58.5320   30.5170   47.7610 O   0  0  0  0  0  0  0  0  0  0  0  0
   59.0990   31.7810   48.1050 C   0  0  0  0  0  0  0  0  0  0  0  0
   58.6013   32.1661   49.0072 H   0  0  0  0  0  0  0  0  0  0  0  0
   60.1750   31.6466   48.2896 H   0  0  0  0  0  0  0  0  0  0  0  0
   58.9210   32.7700   46.9820 C   0  0  0  0  0  0  0  0  0  0  0  0
   59.7070   33.9320   46.9230 C   0  0  0  0  0  0  0  0  0  0  0  0
   60.4650   34.1213   47.6973 H   0  0  0  0  0  0  0  0  0  0  0  0
   59.5290   34.8490   45.8830 C   0  0  0  0  0  0  0  0  0  0  0  0
   60.1527   35.7539   45.8360 H   0  0  0  0  0  0  0  0  0  0  0  0
   58.5600   34.6180   44.9030 C   0  0  0  0  0  0  0  0  0  0  0  0
   58.4228   35.3401   44.0846 H   0  0  0  0  0  0  0  0  0  0  0  0
   57.7650   33.4700   44.9620 C   0  0  0  0  0  0  0  0  0  0  0  0
   57.0009   33.2899   44.1914 H   0  0  0  0  0  0  0  0  0  0  0  0
   57.9410   32.5500   46.0010 C   0  0  0  0  0  0  0  0  0  0  0  0
   57.3092   31.6508   46.0496 H   0  0  0  0  0  0  0  0  0  0  0  0
   57.4740   25.5910   44.9090 S   0  0  0  0  0  0  0  0  0  0  0  0
   56.3650   24.3280   44.9700 C   0  0  0  0  0  0  0  0  0  0  0  0
   56.6310   22.7180   44.3300 S   0  0  0  0  0  0  0  0  0  0  0  0
   55.6680   22.5020   43.1990 O   0  0  0  0  0  0  0  0  0  0  0  0
   58.0300   22.5690   43.8010 O   0  0  0  0  0  0  0  0  0  0  0  0
   56.3160   21.5200   45.5460 N   0  0  0  0  0  0  0  0  0  0  0  0
   56.2920   21.6350   46.8440 C   0  0  0  0  0  0  0  0  0  0  0  0
   57.3910   21.8400   47.5310 O   0  0  0  0  0  0  0  0  0  0  0  0
   57.1470   21.9280   48.8040 N   0  0  0  0  0  0  0  0  0  0  0  0
   55.8190   21.7740   48.9650 C   0  0  0  0  0  0  0  0  0  0  0  0
   55.1380   21.8480   50.2930 C   0  0  0  0  0  0  0  0  0  0  0  0
   55.8872   21.7666   51.0943 H   0  0  0  0  0  0  0  0  0  0  0  0
   54.6098   22.8088   50.3812 H   0  0  0  0  0  0  0  0  0  0  0  0
   54.4157   21.0231   50.3812 H   0  0  0  0  0  0  0  0  0  0  0  0
   55.2150   21.5740   47.7320 C   0  0  0  0  0  0  0  0  0  0  0  0
   53.7370   21.4790   47.4900 C   0  0  0  0  0  0  0  0  0  0  0  0
   53.2090   21.4451   48.4544 H   0  0  0  0  0  0  0  0  0  0  0  0
   53.4017   22.3574   46.9191 H   0  0  0  0  0  0  0  0  0  0  0  0
   53.5169   20.5649   46.9191 H   0  0  0  0  0  0  0  0  0  0  0  0
  1  2  1  0
  2  3  1  0
  3  4  1  0
  4  5  2  0
  5  6  1  0
  6  7  1  0
  6  8  1  0
  6  9  1  0
  9 10  2  0
 10 11  1  0
 10 12  1  0
 12 13  1  0
 12 14  2  0
 14 15  1  0
 14 16  1  0
 16 17  1  0
 16 18  2  0
 18 19  1  0
 19 20  1  0
 20 21  1  0
 20 22  1  0
 20 23  1  0
 23 24  2  0
 24 25  1  0
 24 26  1  0
 26 27  1  0
 26 28  2  0
 28 29  1  0
 28 30  1  0
 30 31  1  0
 30 32  2  0
 32 33  1  0
  4 34  1  0
 34 35  1  0
 35 36  1  0
 36 37  2  0
 36 38  2  0
 36 39  1  0
 39 40  2  0
 40 41  1  0
 41 42  1  0
 42 43  1  0
 43 44  1  0
 44 45  1  0
 44 46  1  0
 44 47  1  0
 43 48  2  0
 48 49  1  0
 49 50  1  0
 49 51  1  0
 49 52  1  0
 35  2  2  0
 48 40  1  0
 18  9  1  0
 32 23  1  0
M  CHG  2   3  -1  42  -1
M  END
>  <UniqueID>  (9) 
8

>  <SMILES>  (9) 
Cc1[n-]o/c(=N/S(=O)(=O)c2c[n-]/c(=N/Cc3ccccc3OCc3ccccc3)s2)c1C

>  <Energy>  (9) 
125.33918241499975

>  <Genealogy>  (9) 
Cc1[n-]oc(=NS(=O)(=O)c2c[n-]c(=NCc3ccccc3OCc3ccccc3)s2)c1C (protonated)
Cc1[n-]o/c(=N/S(=O)(=O)c2c[n-]/c(=N/Cc3ccccc3OCc3ccccc3)s2)c1C (cis-trans isomerization)
Cc1[n-]o/c(=N/S(=O)(=O)c2c[n-]/c(=N/Cc3ccccc3OCc3ccccc3)s2)c1C (3D coordinates assigned)
Cc1[n-]o/c(=N/S(=O)(=O)c2c[n-]/c(=N/Cc3ccccc3OCc3ccccc3)s2)c1C (optimized conformer: 125.33918241499975 kcal/mol)

>  <smiles>  (9) 
Cc1[nH]oc(=NS(=O)(=O)c2c[nH]c(=NCc3ccccc3OCc3ccccc3)s2)c1C

>  <score_type>  (9) 
oracle

>  <origin>  (9) 
adg

>  <m_score__min__energy>  (9) 
-13.91

>  <m_primary>  (9) 
energy

$$$$
9:0
     RDKit          3D

 44 47  0  0  0  0  0  0  0  0999 V2000
   58.3930   34.6330   52.6510 N   0  0  0  0  0  0  0  0  0  0  0  0
   58.5620   33.4570   51.8560 C   0  0  0  0  0  0  0  0  0  0  0  0
   57.7220   32.3490   52.0490 C   0  0  0  0  0  0  0  0  0  0  0  0
   57.8830   31.1950   51.2740 C   0  0  0  0  0  0  0  0  0  0  0  0
   58.8870   31.1410   50.2970 C   0  0  0  0  0  0  0  0  0  0  0  0
   59.0720   30.0000   49.5080 C   0  0  0  0  0  0  0  0  0  0  0  0
   60.0850   29.9720   48.5350 C   0  0  0  0  0  0  0  0  0  0  0  0
   60.3050   28.7900   47.7390 N   0  0  0  0  0  0  0  0  0  0  0  0
   59.1820   28.5810   46.8560 C   0  0  0  0  0  0  0  0  0  0  0  0
   58.5160   29.6840   46.2890 C   0  0  0  0  0  0  0  0  0  0  0  0
   57.4130   29.4990   45.4460 C   0  0  0  0  0  0  0  0  0  0  0  0
   56.7570   30.6520   44.9000 N   0  0  0  0  0  0  0  0  0  0  0  0
   57.3980   31.8300   44.3920 C   0  0  0  0  0  0  0  0  0  0  0  0
   57.4040   32.0230   43.1480 O   0  0  0  0  0  0  0  0  0  0  0  0
   57.9990   32.8480   45.2880 C   0  0  0  0  0  0  0  0  0  0  0  0
   58.8330   33.8590   44.7850 C   0  0  0  0  0  0  0  0  0  0  0  0
   59.3910   34.8030   45.6500 C   0  0  0  0  0  0  0  0  0  0  0  0
   59.1190   34.7210   47.0160 C   0  0  0  0  0  0  0  0  0  0  0  0
   58.3240   33.7290   47.4940 N   0  0  0  0  0  0  0  0  0  0  0  0
   57.7670   32.7980   46.6730 C   0  0  0  0  0  0  0  0  0  0  0  0
   56.9430   28.1980   45.2000 C   0  0  0  0  0  0  0  0  0  0  0  0
   57.5940   27.0980   45.7630 C   0  0  0  0  0  0  0  0  0  0  0  0
   58.7080   27.2830   46.5860 C   0  0  0  0  0  0  0  0  0  0  0  0
   59.3210   26.1970   47.1210 F   0  0  0  0  0  0  0  0  0  0  0  0
   60.9040   31.1040   48.3830 C   0  0  0  0  0  0  0  0  0  0  0  0
   60.7110   32.2030   49.1570 N   0  0  0  0  0  0  0  0  0  0  0  0
   59.7340   32.2530   50.1010 C   0  0  0  0  0  0  0  0  0  0  0  0
   59.5680   33.4040   50.8800 C   0  0  0  0  0  0  0  0  0  0  0  0
   57.9850   35.5020   52.2410 H   0  0  0  0  0  0  0  0  0  0  0  0
   58.6740   34.6430   53.6570 H   0  0  0  0  0  0  0  0  0  0  0  0
   56.9325   32.3881   52.8140 H   0  0  0  0  0  0  0  0  0  0  0  0
   57.2217   30.3302   51.4314 H   0  0  0  0  0  0  0  0  0  0  0  0
   58.4229   29.1233   49.6500 H   0  0  0  0  0  0  0  0  0  0  0  0
   60.4440   27.9560   48.3570 H   0  0  0  0  0  0  0  0  0  0  0  0
   61.1840   28.8960   47.1810 H   0  0  0  0  0  0  0  0  0  0  0  0
   58.8660   30.7030   46.5106 H   0  0  0  0  0  0  0  0  0  0  0  0
   59.0475   33.9078   43.7072 H   0  0  0  0  0  0  0  0  0  0  0  0
   60.0377   35.6022   45.2587 H   0  0  0  0  0  0  0  0  0  0  0  0
   59.5491   35.4610   47.7069 H   0  0  0  0  0  0  0  0  0  0  0  0
   57.1332   32.0039   47.0946 H   0  0  0  0  0  0  0  0  0  0  0  0
   56.0599   28.0453   44.5622 H   0  0  0  0  0  0  0  0  0  0  0  0
   57.2280   26.0812   45.5576 H   0  0  0  0  0  0  0  0  0  0  0  0
   61.7073   31.0997   47.6315 H   0  0  0  0  0  0  0  0  0  0  0  0
   60.2287   34.2699   50.7263 H   0  0  0  0  0  0  0  0  0  0  0  0
  1  2  1  0
  2  3  2  0
  3  4  1  0
  4  5  2  0
  5  6  1  0
  6  7  2  0
  7  8  1  0
  8  9  1  0
  9 10  2  0
 10 11  1  0
 11 12  1  0
 12 13  1  0
 13 14  2  0
 13 15  1  0
 15 16  2  0
 16 17  1  0
 17 18  2  0
 18 19  1  0
 19 20  2  0
 11 21  2  0
 21 22  1  0
 22 23  2  0
 23 24  1  0
  7 25  1  0
 25 26  2  0
 26 27  1  0
 27 28  2  0
 28  2  1  0
 27  5  1  0
 23  9  1  0
 20 15  1  0
  1 29  1  0
  1 30  1  0
  3 31  1  0
  4 32  1  0
  6 33  1  0
  8 34  1  0
  8 35  1  0
 10 36  1  0
 16 37  1  0
 17 38  1  0
 18 39  1  0
 20 40  1  0
 21 41  1  0
 22 42  1  0
 25 43  1  0
 28 44  1  0
M  CHG  2   8   1  12  -1
M  END
>  <UniqueID>  (10) 
9

>  <SMILES>  (10) 
Nc1ccc2cc([NH2+]c3cc([N-]C(=O)c4cccnc4)ccc3F)cnc2c1

>  <Energy>  (10) 
61.26523234505834

>  <Genealogy>  (10) 
Nc1ccc2cc([NH2+]c3cc([N-]C(=O)c4cccnc4)ccc3F)cnc2c1 (protonated)
Nc1ccc2cc([NH2+]c3cc([N-]C(=O)c4cccnc4)ccc3F)cnc2c1 (3D coordinates assigned)
Nc1ccc2cc([NH2+]c3cc([N-]C(=O)c4cccnc4)ccc3F)cnc2c1 (optimized conformer: 61.26523234505834 kcal/mol)

>  <smiles>  (10) 
Nc1ccc2cc(Nc3cc(NC(=O)c4cccnc4)ccc3F)cnc2c1

>  <score_type>  (10) 
oracle

>  <origin>  (10) 
adg

>  <m_score__min__energy>  (10) 
-9.0600000000000005

>  <m_primary>  (10) 
energy

$$$$
10:0
     RDKit          3D

 47 49  0  0  0  0  0  0  0  0999 V2000
   62.6840   32.6790   47.7360 C   0  0  0  0  0  0  0  0  0  0  0  0
   61.2230   32.9630   47.5010 C   0  0  0  0  0  0  0  0  0  0  0  0
   60.7300   34.2470   47.7890 C   0  0  0  0  0  0  0  0  0  0  0  0
   59.3830   34.5470   47.5980 C   0  0  0  0  0  0  0  0  0  0  0  0
   58.5140   33.5820   47.0990 C   0  0  0  0  0  0  0  0  0  0  0  0
   58.9790   32.2980   46.7920 C   0  0  0  0  0  0  0  0  0  0  0  0
   58.0500   31.3460   46.2480 N   0  0  0  0  0  0  0  0  0  0  0  0
   57.6640   31.3180   44.8590 C   0  0  0  0  0  0  0  0  0  0  0  0
   58.1490   32.2860   43.9600 C   0  0  0  0  0  0  0  0  0  0  0  0
   57.8020   32.2360   42.6070 C   0  0  0  0  0  0  0  0  0  0  0  0
   56.9700   31.2210   42.1360 C   0  0  0  0  0  0  0  0  0  0  0  0
   56.4740   30.2600   43.0170 C   0  0  0  0  0  0  0  0  0  0  0  0
   56.7990   30.3110   44.3780 C   0  0  0  0  0  0  0  0  0  0  0  0
   56.2920   29.2940   45.2470 N   0  0  0  0  0  0  0  0  0  0  0  0
   57.1250   28.2870   45.8350 C   0  0  0  0  0  0  0  0  0  0  0  0
   57.9490   28.6070   46.7370 O   0  0  0  0  0  0  0  0  0  0  0  0
   57.0070   26.8750   45.4020 C   0  0  0  0  0  0  0  0  0  0  0  0
   56.1170   26.0010   46.0510 C   0  0  0  0  0  0  0  0  0  0  0  0
   55.9950   24.6730   45.6340 C   0  0  0  0  0  0  0  0  0  0  0  0
   56.7600   24.1970   44.5620 C   0  0  0  0  0  0  0  0  0  0  0  0
   56.6210   22.5240   44.0300 S   0  0  0  0  0  0  0  0  0  0  0  0
   55.6410   22.4540   42.6080 N   0  0  0  0  0  0  0  0  0  0  0  0
   57.9790   21.9580   43.7260 O   0  0  0  0  0  0  0  0  0  0  0  0
   55.9870   21.7040   45.1190 O   0  0  0  0  0  0  0  0  0  0  0  0
   57.6560   25.0570   43.9180 C   0  0  0  0  0  0  0  0  0  0  0  0
   57.7800   26.3860   44.3320 C   0  0  0  0  0  0  0  0  0  0  0  0
   60.3330   31.9570   47.0420 C   0  0  0  0  0  0  0  0  0  0  0  0
   60.8210   30.5460   46.8060 C   0  0  0  0  0  0  0  0  0  0  0  0
   62.8807   32.6408   48.8176 H   0  0  0  0  0  0  0  0  0  0  0  0
   62.9475   31.7128   47.2810 H   0  0  0  0  0  0  0  0  0  0  0  0
   63.2903   33.4761   47.2810 H   0  0  0  0  0  0  0  0  0  0  0  0
   61.4130   35.0214   48.1683 H   0  0  0  0  0  0  0  0  0  0  0  0
   59.0051   35.5507   47.8427 H   0  0  0  0  0  0  0  0  0  0  0  0
   57.4535   33.8299   46.9446 H   0  0  0  0  0  0  0  0  0  0  0  0
   57.5640   30.7180   46.9270 H   0  0  0  0  0  0  0  0  0  0  0  0
   58.8066   33.0886   44.3251 H   0  0  0  0  0  0  0  0  0  0  0  0
   58.1857   32.9983   41.9129 H   0  0  0  0  0  0  0  0  0  0  0  0
   56.7047   31.1781   41.0693 H   0  0  0  0  0  0  0  0  0  0  0  0
   55.8234   29.4570   42.6402 H   0  0  0  0  0  0  0  0  0  0  0  0
   55.5118   26.3658   46.8940 H   0  0  0  0  0  0  0  0  0  0  0  0
   55.2953   23.9989   46.1498 H   0  0  0  0  0  0  0  0  0  0  0  0
   56.2720   22.6530   41.7970 H   0  0  0  0  0  0  0  0  0  0  0  0
   58.2660   24.6852   43.0815 H   0  0  0  0  0  0  0  0  0  0  0  0
   58.4865   27.0545   43.8182 H   0  0  0  0  0  0  0  0  0  0  0  0
   60.9923   30.0507   47.7731 H   0  0  0  0  0  0  0  0  0  0  0  0
   60.0641   29.9867   46.2366 H   0  0  0  0  0  0  0  0  0  0  0  0
   61.7617   30.5738   46.2366 H   0  0  0  0  0  0  0  0  0  0  0  0
  1  2  1  0
  2  3  2  0
  3  4  1  0
  4  5  2  0
  5  6  1  0
  6  7  1  0
  7  8  1  0
  8  9  2  0
  9 10  1  0
 10 11  2  0
 11 12  1  0
 12 13  2  0
 13 14  1  0
 14 15  1  0
 15 16  2  0
 15 17  1  0
 17 18  2  0
 18 19  1  0
 19 20  2  0
 20 21  1  0
 21 22  1  0
 21 23  2  0
 21 24  2  0
 20 25  1  0
 25 26  2  0
  6 27  2  0
 27 28  1  0
 27  2  1  0
 13  8  1  0
 26 17  1  0
  1 29  1  0
  1 30  1  0
  1 31  1  0
  3 32  1  0
  4 33  1  0
  5 34  1  0
  7 35  1  0
  9 36  1  0
 10 37  1  0
 11 38  1  0
 12 39  1  0
 18 40  1  0
 19 41  1  0
 22 42  1  0
 25 43  1  0
 26 44  1  0
 28 45  1  0
 28 46  1  0
 28 47  1  0
M  CHG  2  14  -1  22  -1
M  END
>  <UniqueID>  (11) 
10

>  <SMILES>  (11) 
Cc1cccc(Nc2ccccc2[N-]C(=O)c2ccc(S([NH-])(=O)=O)cc2)c1C

>  <Energy>  (11) 
66.67993497718795

>  <Genealogy>  (11) 
Cc1cccc(Nc2ccccc2[N-]C(=O)c2ccc(S([NH-])(=O)=O)cc2)c1C (protonated)
Cc1cccc(Nc2ccccc2[N-]C(=O)c2ccc(S([NH-])(=O)=O)cc2)c1C (3D coordinates assigned)
Cc1cccc(Nc2ccccc2[N-]C(=O)c2ccc(S([NH-])(=O)=O)cc2)c1C (optimized conformer: 66.67993497718795 kcal/mol)

>  <smiles>  (11) 
Cc1cccc(Nc2ccccc2NC(=O)c2ccc(S(N)(=O)=O)cc2)c1C

>  <score_type>  (11) 
oracle

>  <origin>  (11) 
adg

>  <m_score__min__energy>  (11) 
-12.949999999999999

>  <m_primary>  (11) 
energy

$$$$
11:0
     RDKit          3D

 59 62  0  0  0  0  0  0  0  0999 V2000
   57.3601   34.6974   45.1206 H   0  0  0  0  0  0  0  0  0  0  0  0
   57.9990   33.8240   45.3180 C   0  0  0  0  0  0  0  0  0  0  0  0
   57.7600   32.6540   44.6740 N   0  0  0  0  0  0  0  0  0  0  0  0
   58.5380   31.5630   44.8840 C   0  0  0  0  0  0  0  0  0  0  0  0
   58.2490   30.4500   44.2770 N   0  0  0  0  0  0  0  0  0  0  0  0
   57.9330   29.1970   44.9060 C   0  0  0  0  0  0  0  0  0  0  0  0
   58.9560   28.4790   45.5340 C   0  0  0  0  0  0  0  0  0  0  0  0
   59.9829   28.8733   45.5281 H   0  0  0  0  0  0  0  0  0  0  0  0
   58.6830   27.2640   46.1690 C   0  0  0  0  0  0  0  0  0  0  0  0
   59.5008   26.6978   46.6387 H   0  0  0  0  0  0  0  0  0  0  0  0
   57.3710   26.7600   46.2120 C   0  0  0  0  0  0  0  0  0  0  0  0
   57.0840   25.4650   46.8690 C   0  0  0  0  0  0  0  0  0  0  0  0
   57.7480   25.1060   47.8790 O   0  0  0  0  0  0  0  0  0  0  0  0
   56.0360   24.6230   46.3740 N   0  0  0  0  0  0  0  0  0  0  0  0
   56.2710   23.4370   45.6010 C   0  0  0  0  0  0  0  0  0  0  0  0
   56.7540   23.5190   44.2710 C   0  0  0  0  0  0  0  0  0  0  0  0
   57.0250   24.8440   43.6080 C   0  0  0  0  0  0  0  0  0  0  0  0
   57.1824   25.6138   44.3778 H   0  0  0  0  0  0  0  0  0  0  0  0
   57.9252   24.7630   42.9810 H   0  0  0  0  0  0  0  0  0  0  0  0
   56.1653   25.1229   42.9810 H   0  0  0  0  0  0  0  0  0  0  0  0
   57.0060   22.3380   43.5560 C   0  0  0  0  0  0  0  0  0  0  0  0
   57.4150   22.3943   42.5364 H   0  0  0  0  0  0  0  0  0  0  0  0
   56.7420   21.0930   44.1280 C   0  0  0  0  0  0  0  0  0  0  0  0
   56.9415   20.1740   43.5573 H   0  0  0  0  0  0  0  0  0  0  0  0
   56.2260   21.0100   45.4210 C   0  0  0  0  0  0  0  0  0  0  0  0
   56.0144   20.0252   45.8630 H   0  0  0  0  0  0  0  0  0  0  0  0
   55.9750   22.1760   46.1620 C   0  0  0  0  0  0  0  0  0  0  0  0
   55.4560   22.0690   47.5700 C   0  0  0  0  0  0  0  0  0  0  0  0
   56.2801   22.2389   48.2785 H   0  0  0  0  0  0  0  0  0  0  0  0
   54.6728   22.8246   47.7305 H   0  0  0  0  0  0  0  0  0  0  0  0
   55.0355   21.0653   47.7305 H   0  0  0  0  0  0  0  0  0  0  0  0
   56.3370   27.5020   45.6140 C   0  0  0  0  0  0  0  0  0  0  0  0
   55.3031   27.1285   45.6529 H   0  0  0  0  0  0  0  0  0  0  0  0
   56.6150   28.7120   44.9700 C   0  0  0  0  0  0  0  0  0  0  0  0
   55.7977   29.2875   44.5109 H   0  0  0  0  0  0  0  0  0  0  0  0
   59.5760   31.6410   45.7590 N   0  0  0  0  0  0  0  0  0  0  0  0
   59.8740   32.7900   46.4230 C   0  0  0  0  0  0  0  0  0  0  0  0
   61.0310   32.7820   47.3420 C   0  0  0  0  0  0  0  0  0  0  0  0
   62.2040   33.4910   47.0310 C   0  0  0  0  0  0  0  0  0  0  0  0
   62.2585   34.0792   46.1031 H   0  0  0  0  0  0  0  0  0  0  0  0
   63.3010   33.4520   47.8950 C   0  0  0  0  0  0  0  0  0  0  0  0
   64.2129   34.0157   47.6486 H   0  0  0  0  0  0  0  0  0  0  0  0
   63.2440   32.6970   49.0750 C   0  0  0  0  0  0  0  0  0  0  0  0
   64.6380   32.6290   50.1490 S   0  0  0  0  0  0  0  0  0  0  0  0
   65.8720   33.0760   49.4170 O   0  0  0  0  0  0  0  0  0  0  0  0
   64.8420   31.2180   50.6270 O   0  0  0  0  0  0  0  0  0  0  0  0
   64.3560   33.6950   51.5440 C   0  0  0  0  0  0  0  0  0  0  0  0
   64.5059   33.1283   52.4748 H   0  0  0  0  0  0  0  0  0  0  0  0
   65.0621   34.5378   51.5101 H   0  0  0  0  0  0  0  0  0  0  0  0
   63.3255   34.0784   51.5101 H   0  0  0  0  0  0  0  0  0  0  0  0
   62.0870   31.9650   49.3720 C   0  0  0  0  0  0  0  0  0  0  0  0
   62.0429   31.3574   50.2879 H   0  0  0  0  0  0  0  0  0  0  0  0
   60.9890   32.0040   48.5090 C   0  0  0  0  0  0  0  0  0  0  0  0
   60.0864   31.4215   48.7457 H   0  0  0  0  0  0  0  0  0  0  0  0
   59.0550   33.9260   46.2330 C   0  0  0  0  0  0  0  0  0  0  0  0
   59.2740   35.2230   46.9680 C   0  0  0  0  0  0  0  0  0  0  0  0
   59.2431   35.0398   48.0522 H   0  0  0  0  0  0  0  0  0  0  0  0
   60.2550   35.6385   46.6942 H   0  0  0  0  0  0  0  0  0  0  0  0
   58.4838   35.9376   46.6942 H   0  0  0  0  0  0  0  0  0  0  0  0
  1  2  1  0
  2  3  1  0
  3  4  1  0
  4  5  2  0
  5  6  1  0
  6  7  2  0
  7  8  1  0
  7  9  1  0
  9 10  1  0
  9 11  2  0
 11 12  1  0
 12 13  2  0
 12 14  1  0
 14 15  1  0
 15 16  2  0
 16 17  1  0
 17 18  1  0
 17 19  1  0
 17 20  1  0
 16 21  1  0
 21 22  1  0
 21 23  2  0
 23 24  1  0
 23 25  1  0
 25 26  1  0
 25 27  2  0
 27 28  1  0
 28 29  1  0
 28 30  1  0
 28 31  1  0
 11 32  1  0
 32 33  1  0
 32 34  2  0
 34 35  1  0
  4 36  1  0
 36 37  2  0
 37 38  1  0
 38 39  2  0
 39 40  1  0
 39 41  1  0
 41 42  1  0
 41 43  2  0
 43 44  1  0
 44 45  2  0
 44 46  2  0
 44 47  1  0
 47 48  1  0
 47 49  1  0
 47 50  1  0
 43 51  1  0
 51 52  1  0
 51 53  2  0
 53 54  1  0
 37 55  1  0
 55 56  1  0
 56 57  1  0
 56 58  1  0
 56 59  1  0
 55  2  2  0
 34  6  1  0
 53 38  1  0
 27 15  1  0
M  CHG  2   3  -1  14  -1
M  END
>  <UniqueID>  (12) 
11

>  <SMILES>  (12) 
Cc1c[n-]/c(=N/c2ccc(C(=O)[N-]c3c(C)cccc3C)cc2)nc1-c1ccc(S(C)(=O)=O)cc1

>  <Energy>  (12) 
81.69648338610581

>  <Genealogy>  (12) 
Cc1c[n-]c(=Nc2ccc(C(=O)[N-]c3c(C)cccc3C)cc2)nc1-c1ccc(S(C)(=O)=O)cc1 (protonated)
Cc1c[n-]/c(=N/c2ccc(C(=O)[N-]c3c(C)cccc3C)cc2)nc1-c1ccc(S(C)(=O)=O)cc1 (cis-trans isomerization)
Cc1c[n-]/c(=N/c2ccc(C(=O)[N-]c3c(C)cccc3C)cc2)nc1-c1ccc(S(C)(=O)=O)cc1 (3D coordinates assigned)
Cc1c[n-]/c(=N/c2ccc(C(=O)[N-]c3c(C)cccc3C)cc2)nc1-c1ccc(S(C)(=O)=O)cc1 (optimized conformer: 81.69648338610581 kcal/mol)

>  <smiles>  (12) 
Cc1c[nH]c(=Nc2ccc(C(=O)Nc3c(C)cccc3C)cc2)nc1-c1ccc(S(C)(=O)=O)cc1

>  <score_type>  (12) 
oracle

>  <origin>  (12) 
adg

>  <m_score__min__energy>  (12) 
-12.56

>  <m_primary>  (12) 
energy

$$$$
12:0
     RDKit          3D

 50 53  0  0  0  0  0  0  0  0999 V2000
   62.4430   29.3250   51.3180 C   0  0  0  0  0  0  0  0  0  0  0  0
   61.1760   29.9390   51.1030 O   0  0  0  0  0  0  0  0  0  0  0  0
   60.8020   30.5890   49.9170 C   0  0  0  0  0  0  0  0  0  0  0  0
   59.7190   31.4750   49.9570 C   0  0  0  0  0  0  0  0  0  0  0  0
   59.3090   32.1480   48.8040 C   0  0  0  0  0  0  0  0  0  0  0  0
   59.9840   31.9500   47.5890 C   0  0  0  0  0  0  0  0  0  0  0  0
   59.5470   32.6550   46.3650 C   0  0  0  0  0  0  0  0  0  0  0  0
   58.6690   32.2270   45.3680 C   0  0  0  0  0  0  0  0  0  0  0  0
   57.8300   31.0110   45.3440 C   0  0  0  0  0  0  0  0  0  0  0  0
   58.1800   29.9140   46.1480 C   0  0  0  0  0  0  0  0  0  0  0  0
   57.4080   28.7490   46.1280 C   0  0  0  0  0  0  0  0  0  0  0  0
   56.2880   28.6640   45.2960 C   0  0  0  0  0  0  0  0  0  0  0  0
   55.5200   27.5070   45.2780 O   0  0  0  0  0  0  0  0  0  0  0  0
   55.9450   29.7430   44.4760 C   0  0  0  0  0  0  0  0  0  0  0  0
   56.7160   30.9100   44.4920 C   0  0  0  0  0  0  0  0  0  0  0  0
   58.6670   33.1220   44.4010 O   0  0  0  0  0  0  0  0  0  0  0  0
   59.4670   34.1090   44.6780 N   0  0  0  0  0  0  0  0  0  0  0  0
   60.0330   33.8520   45.8740 C   0  0  0  0  0  0  0  0  0  0  0  0
   60.8950   34.6150   46.4810 N   0  0  0  0  0  0  0  0  0  0  0  0
   61.9350   34.1820   47.3690 C   0  0  0  0  0  0  0  0  0  0  0  0
   63.0850   33.5310   46.8900 C   0  0  0  0  0  0  0  0  0  0  0  0
   64.0600   33.0760   47.7820 C   0  0  0  0  0  0  0  0  0  0  0  0
   63.8850   33.2410   49.1620 C   0  0  0  0  0  0  0  0  0  0  0  0
   65.1200   32.6830   50.2850 S   0  0  0  0  0  0  0  0  0  0  0  0
   64.9540   33.5560   51.8250 C   0  0  0  0  0  0  0  0  0  0  0  0
   64.9630   31.2080   50.5250 O   0  0  0  0  0  0  0  0  0  0  0  0
   66.4850   32.9350   49.7090 O   0  0  0  0  0  0  0  0  0  0  0  0
   62.7260   33.8660   49.6430 C   0  0  0  0  0  0  0  0  0  0  0  0
   61.7510   34.3200   48.7500 C   0  0  0  0  0  0  0  0  0  0  0  0
   61.0640   31.0550   47.5430 C   0  0  0  0  0  0  0  0  0  0  0  0
   61.4730   30.3800   48.6980 C   0  0  0  0  0  0  0  0  0  0  0  0
   62.6283   29.2352   52.3986 H   0  0  0  0  0  0  0  0  0  0  0  0
   62.4479   28.3246   50.8607 H   0  0  0  0  0  0  0  0  0  0  0  0
   63.2313   29.9410   50.8607 H   0  0  0  0  0  0  0  0  0  0  0  0
   59.1863   31.6426   50.9047 H   0  0  0  0  0  0  0  0  0  0  0  0
   58.4526   32.8369   48.8481 H   0  0  0  0  0  0  0  0  0  0  0  0
   59.0663   29.9719   46.7969 H   0  0  0  0  0  0  0  0  0  0  0  0
   57.6823   27.8975   46.7681 H   0  0  0  0  0  0  0  0  0  0  0  0
   55.0670   29.6742   43.8169 H   0  0  0  0  0  0  0  0  0  0  0  0
   56.4499   31.7517   43.8357 H   0  0  0  0  0  0  0  0  0  0  0  0
   59.5950   34.9480   44.0700 H   0  0  0  0  0  0  0  0  0  0  0  0
   63.2181   33.3790   45.8087 H   0  0  0  0  0  0  0  0  0  0  0  0
   64.9678   32.5867   47.3991 H   0  0  0  0  0  0  0  0  0  0  0  0
   65.0876   32.8536   52.6609 H   0  0  0  0  0  0  0  0  0  0  0  0
   65.7182   34.3450   51.8834 H   0  0  0  0  0  0  0  0  0  0  0  0
   63.9535   34.0095   51.8834 H   0  0  0  0  0  0  0  0  0  0  0  0
   62.5835   33.9995   50.7255 H   0  0  0  0  0  0  0  0  0  0  0  0
   60.8333   34.7887   49.1349 H   0  0  0  0  0  0  0  0  0  0  0  0
   61.5919   30.8833   46.5933 H   0  0  0  0  0  0  0  0  0  0  0  0
   62.3227   29.6829   48.6531 H   0  0  0  0  0  0  0  0  0  0  0  0
  1  2  1  0
  2  3  1  0
  3  4  2  0
  4  5  1  0
  5  6  2  0
  6  7  1  0
  7  8  2  0
  8  9  1  0
  9 10  2  0
 10 11  1  0
 11 12  2  0
 12 13  1  0
 12 14  1  0
 14 15  2  0
  8 16  1  0
 16 17  1  0
 17 18  1  0
 18 19  2  3
 19 20  1  0
 20 21  2  0
 21 22  1  0
 22 23  2  0
 23 24  1  0
 24 25  1  0
 24 26  2  0
 24 27  2  0
 23 28  1  0
 28 29  2  0
  6 30  1  0
 30 31  2  0
 31  3  1  0
 18  7  1  0
 29 20  1  0
 15  9  1  0
  1 32  1  0
  1 33  1  0
  1 34  1  0
  4 35  1  0
  5 36  1  0
 10 37  1  0
 11 38  1  0
 14 39  1  0
 15 40  1  0
 17 41  1  0
 21 42  1  0
 22 43  1  0
 25 44  1  0
 25 45  1  0
 25 46  1  0
 28 47  1  0
 29 48  1  0
 30 49  1  0
 31 50  1  0
M  CHG  1  13  -1
M  END
>  <UniqueID>  (13) 
12

>  <SMILES>  (13) 
COc1ccc(-c2c(-c3ccc([O-])cc3)o[nH]c2=Nc2ccc(S(C)(=O)=O)cc2)cc1

>  <Energy>  (13) 
99.09817964787007

>  <Genealogy>  (13) 
COc1ccc(-c2c(-c3ccc([O-])cc3)o[nH]c2=Nc2ccc(S(C)(=O)=O)cc2)cc1 (protonated)
COc1ccc(-c2c(-c3ccc([O-])cc3)o[nH]c2=Nc2ccc(S(C)(=O)=O)cc2)cc1 (3D coordinates assigned)
COc1ccc(-c2c(-c3ccc([O-])cc3)o[nH]c2=Nc2ccc(S(C)(=O)=O)cc2)cc1 (optimized conformer: 99.09817964787007 kcal/mol)

>  <smiles>  (13) 
COc1ccc(-c2c(-c3ccc(O)cc3)o[nH]c2=Nc2ccc(S(C)(=O)=O)cc2)cc1

>  <score_type>  (13) 
oracle

>  <origin>  (13) 
adg

>  <m_score__min__energy>  (13) 
-10.27

>  <m_primary>  (13) 
energy

$$$$
13:0
     RDKit          3D

 36 37  0  0  0  0  0  0  0  0999 V2000
   60.1920   27.8510   48.7030 C   0  0  0  0  0  0  0  0  0  0  0  0
   60.8080   27.2300   47.5820 O   0  0  0  0  0  0  0  0  0  0  0  0
   60.0760   26.6340   46.5490 C   0  0  0  0  0  0  0  0  0  0  0  0
   60.5070   25.5850   45.9960 O   0  0  0  0  0  0  0  0  0  0  0  0
   58.7990   27.2380   46.1060 C   0  0  0  0  0  0  0  0  0  0  0  0
   57.6290   26.4630   46.0320 C   0  0  0  0  0  0  0  0  0  0  0  0
   56.4260   27.0400   45.6190 C   0  0  0  0  0  0  0  0  0  0  0  0
   56.3740   28.3910   45.2690 C   0  0  0  0  0  0  0  0  0  0  0  0
   55.1600   28.9440   44.8750 O   0  0  0  0  0  0  0  0  0  0  0  0
   57.5380   29.1760   45.3230 C   0  0  0  0  0  0  0  0  0  0  0  0
   57.4970   30.8870   44.8880 S   0  0  0  0  0  0  0  0  0  0  0  0
   56.1140   31.2240   44.4050 O   0  0  0  0  0  0  0  0  0  0  0  0
   58.4870   31.1600   43.7880 O   0  0  0  0  0  0  0  0  0  0  0  0
   57.8970   31.8740   46.2760 N   0  0  0  0  0  0  0  0  0  0  0  0
   59.2440   31.5350   46.8030 C   0  0  0  0  0  0  0  0  0  0  0  0
   60.3180   32.5610   46.4150 C   0  0  0  0  0  0  0  0  0  0  0  0
   59.9500   33.9690   46.9150 C   0  0  0  0  0  0  0  0  0  0  0  0
   58.4290   34.2090   46.9470 C   0  0  0  0  0  0  0  0  0  0  0  0
   57.7060   33.3030   45.9460 C   0  0  0  0  0  0  0  0  0  0  0  0
   58.7410   28.5970   45.7540 C   0  0  0  0  0  0  0  0  0  0  0  0
   60.6090   27.4306   49.6301 H   0  0  0  0  0  0  0  0  0  0  0  0
   60.3829   28.9339   48.6731 H   0  0  0  0  0  0  0  0  0  0  0  0
   59.1076   27.6689   48.6731 H   0  0  0  0  0  0  0  0  0  0  0  0
   57.6608   25.3968   46.3007 H   0  0  0  0  0  0  0  0  0  0  0  0
   55.5142   26.4267   45.5691 H   0  0  0  0  0  0  0  0  0  0  0  0
   59.1881   31.4846   47.9004 H   0  0  0  0  0  0  0  0  0  0  0  0
   59.5362   30.5711   46.3609 H   0  0  0  0  0  0  0  0  0  0  0  0
   61.2779   32.2615   46.8610 H   0  0  0  0  0  0  0  0  0  0  0  0
   60.3918   32.5896   45.3179 H   0  0  0  0  0  0  0  0  0  0  0  0
   60.3480   34.0964   47.9325 H   0  0  0  0  0  0  0  0  0  0  0  0
   60.3866   34.6955   46.2139 H   0  0  0  0  0  0  0  0  0  0  0  0
   58.0533   33.9977   47.9590 H   0  0  0  0  0  0  0  0  0  0  0  0
   58.2350   35.2565   46.6731 H   0  0  0  0  0  0  0  0  0  0  0  0
   56.6308   33.5343   45.9657 H   0  0  0  0  0  0  0  0  0  0  0  0
   58.1265   33.4867   44.9463 H   0  0  0  0  0  0  0  0  0  0  0  0
   59.6494   29.2141   45.8171 H   0  0  0  0  0  0  0  0  0  0  0  0
  1  2  1  0
  2  3  1  0
  3  4  2  0
  3  5  1  0
  5  6  2  0
  6  7  1  0
  7  8  2  0
  8  9  1  0
  8 10  1  0
 10 11  1  0
 11 12  2  0
 11 13  2  0
 11 14  1  0
 14 15  1  0
 15 16  1  0
 16 17  1  0
 17 18  1  0
 18 19  1  0
 10 20  2  0
 20  5  1  0
 19 14  1  0
  1 21  1  0
  1 22  1  0
  1 23  1  0
  6 24  1  0
  7 25  1  0
 15 26  1  0
 15 27  1  0
 16 28  1  0
 16 29  1  0
 17 30  1  0
 17 31  1  0
 18 32  1  0
 18 33  1  0
 19 34  1  0
 19 35  1  0
 20 36  1  0
M  CHG  1   9  -1
M  END
>  <UniqueID>  (14) 
13

>  <SMILES>  (14) 
COC(=O)c1ccc([O-])c(S(=O)(=O)N2CCCCC2)c1

>  <Energy>  (14) 
39.52902367839516

>  <Genealogy>  (14) 
COC(=O)c1ccc([O-])c(S(=O)(=O)N2CCCCC2)c1 (protonated)
COC(=O)c1ccc([O-])c(S(=O)(=O)N2CCCCC2)c1 (3D coordinates assigned)
COC(=O)c1ccc([O-])c(S(=O)(=O)N2CCCCC2)c1 (nonaromatic ring conformer: 39.52902367839516 kcal/mol)

>  <smiles>  (14) 
COC(=O)c1ccc(O)c(S(=O)(=O)N2CCCCC2)c1

>  <score_type>  (14) 
oracle

>  <origin>  (14) 
adg

>  <m_score__min__energy>  (14) 
-10.57

>  <m_primary>  (14) 
energy

$$$$
14:0
     RDKit          3D

 13 13  0  0  0  0  0  0  0  0999 V2000
   57.4150   29.7880   45.9270 O   0  0  0  0  0  0  0  0  0  0  0  0
   57.0220   30.7270   45.2050 N   0  0  0  0  0  0  0  0  0  0  0  0
   55.8520   30.5690   44.4980 O   0  0  0  0  0  0  0  0  0  0  0  0
   57.6880   32.0040   45.2210 C   0  0  0  0  0  0  0  0  0  0  0  0
   57.9400   32.6360   46.4510 C   0  0  0  0  0  0  0  0  0  0  0  0
   58.5950   33.8670   46.4930 C   0  0  0  0  0  0  0  0  0  0  0  0
   58.9920   34.4690   45.3000 C   0  0  0  0  0  0  0  0  0  0  0  0
   58.7320   33.8630   44.1140 N   0  0  0  0  0  0  0  0  0  0  0  0
   58.0990   32.6610   44.0360 C   0  0  0  0  0  0  0  0  0  0  0  0
   57.7690   32.0180   42.4340 Cl  0  0  0  0  0  0  0  0  0  0  0  0
   57.6184   32.1564   47.3873 H   0  0  0  0  0  0  0  0  0  0  0  0
   58.7960   34.3573   47.4570 H   0  0  0  0  0  0  0  0  0  0  0  0
   59.5163   35.4358   45.3200 H   0  0  0  0  0  0  0  0  0  0  0  0
  1  2  2  0
  2  3  1  0
  2  4  1  0
  4  5  2  0
  5  6  1  0
  6  7  2  0
  7  8  1  0
  8  9  2  0
  9 10  1  0
  9  4  1  0
  5 11  1  0
  6 12  1  0
  7 13  1  0
M  CHG  2   2   1   3  -1
M  END
>  <UniqueID>  (15) 
14

>  <SMILES>  (15) 
O=[N+]([O-])c1cccnc1Cl

>  <Energy>  (15) 
17.03899232957204

>  <Genealogy>  (15) 
O=[N+]([O-])c1cccnc1Cl (3D coordinates assigned)
O=[N+]([O-])c1cccnc1Cl (optimized conformer: 17.03899232957204 kcal/mol)

>  <smiles>  (15) 
O=[N+]([O-])c1cccnc1Cl

>  <score_type>  (15) 
oracle

>  <origin>  (15) 
adg

>  <m_score__min__energy>  (15) 
-4.8200000000000003

>  <m_primary>  (15) 
energy

$$$$
15:0
     RDKit          3D

 55 59  0  0  0  0  0  0  0  0999 V2000
   56.8342   30.6524   41.3944 H   0  0  0  0  0  0  0  0  0  0  0  0
   56.8600   30.6650   42.4940 C   0  0  0  0  0  0  0  0  0  0  0  0
   56.4010   29.5980   43.1930 N   0  0  0  0  0  0  0  0  0  0  0  0
   56.4110   29.5970   44.5560 C   0  0  0  0  0  0  0  0  0  0  0  0
   55.9960   28.5700   45.2410 N   0  0  0  0  0  0  0  0  0  0  0  0
   56.7960   27.5230   45.8160 C   0  0  0  0  0  0  0  0  0  0  0  0
   58.1870   27.6610   45.9840 C   0  0  0  0  0  0  0  0  0  0  0  0
   58.6819   28.6019   45.7016 H   0  0  0  0  0  0  0  0  0  0  0  0
   58.9420   26.6080   46.5080 C   0  0  0  0  0  0  0  0  0  0  0  0
   60.0263   26.7273   46.6497 H   0  0  0  0  0  0  0  0  0  0  0  0
   58.3240   25.4080   46.8510 C   0  0  0  0  0  0  0  0  0  0  0  0
   58.9190   24.5863   47.2762 H   0  0  0  0  0  0  0  0  0  0  0  0
   56.9480   25.2450   46.6560 C   0  0  0  0  0  0  0  0  0  0  0  0
   56.4671   24.2907   46.9168 H   0  0  0  0  0  0  0  0  0  0  0  0
   56.1760   26.2980   46.1270 C   0  0  0  0  0  0  0  0  0  0  0  0
   54.7940   26.1690   45.9030 O   0  0  0  0  0  0  0  0  0  0  0  0
   54.1320   24.9400   45.6220 C   0  0  0  0  0  0  0  0  0  0  0  0
   53.8645   24.4434   46.5663 H   0  0  0  0  0  0  0  0  0  0  0  0
   53.2193   25.1395   45.0413 H   0  0  0  0  0  0  0  0  0  0  0  0
   54.8008   24.2877   45.0413 H   0  0  0  0  0  0  0  0  0  0  0  0
   56.9060   30.6710   45.2220 N   0  0  0  0  0  0  0  0  0  0  0  0
   57.3910   31.7660   44.5710 C   0  0  0  0  0  0  0  0  0  0  0  0
   57.9150   32.8750   45.3370 N   0  0  0  0  0  0  0  0  0  0  0  0
   59.0130   32.6530   46.2440 C   0  0  0  0  0  0  0  0  0  0  0  0
   59.6560   31.3880   46.2940 C   0  0  0  0  0  0  0  0  0  0  0  0
   59.2806   30.5611   45.6732 H   0  0  0  0  0  0  0  0  0  0  0  0
   60.7700   31.1820   47.1310 C   0  0  0  0  0  0  0  0  0  0  0  0
   61.2763   30.2065   47.1754 H   0  0  0  0  0  0  0  0  0  0  0  0
   61.2080   32.2580   47.9010 C   0  0  0  0  0  0  0  0  0  0  0  0
   62.2650   32.3010   48.7240 N   0  0  0  0  0  0  0  0  0  0  0  0
   62.2300   33.5820   49.1780 C   0  0  0  0  0  0  0  0  0  0  0  0
   63.2850   34.1480   50.0730 C   0  0  0  0  0  0  0  0  0  0  0  0
   63.7965   34.9745   49.5579 H   0  0  0  0  0  0  0  0  0  0  0  0
   62.8175   34.5207   50.9963 H   0  0  0  0  0  0  0  0  0  0  0  0
   64.2850   33.0790   50.4180 C   0  0  0  0  0  0  0  0  0  0  0  0
   63.9140   31.9990   51.2400 C   0  0  0  0  0  0  0  0  0  0  0  0
   62.8997   31.9562   51.6635 H   0  0  0  0  0  0  0  0  0  0  0  0
   64.8300   30.9790   51.5210 C   0  0  0  0  0  0  0  0  0  0  0  0
   64.5371   30.1415   52.1712 H   0  0  0  0  0  0  0  0  0  0  0  0
   66.1180   31.0230   50.9760 C   0  0  0  0  0  0  0  0  0  0  0  0
   66.8379   30.2221   51.2005 H   0  0  0  0  0  0  0  0  0  0  0  0
   66.4900   32.0850   50.1460 C   0  0  0  0  0  0  0  0  0  0  0  0
   67.5010   32.1156   49.7136 H   0  0  0  0  0  0  0  0  0  0  0  0
   65.5780   33.1100   49.8640 C   0  0  0  0  0  0  0  0  0  0  0  0
   65.8735   33.9417   49.2075 H   0  0  0  0  0  0  0  0  0  0  0  0
   61.2240   34.3370   48.6650 N   0  0  0  0  0  0  0  0  0  0  0  0
   60.5920   33.4690   47.8630 C   0  0  0  0  0  0  0  0  0  0  0  0
   59.4890   33.7110   47.0520 C   0  0  0  0  0  0  0  0  0  0  0  0
   59.0010   34.6967   47.0394 H   0  0  0  0  0  0  0  0  0  0  0  0
   57.3400   34.2200   45.2230 C   0  0  0  0  0  0  0  0  0  0  0  0
   57.1646   34.6302   46.2285 H   0  0  0  0  0  0  0  0  0  0  0  0
   58.0380   34.8721   44.6775 H   0  0  0  0  0  0  0  0  0  0  0  0
   56.3863   34.1660   44.6775 H   0  0  0  0  0  0  0  0  0  0  0  0
   57.3650   31.7790   43.1650 C   0  0  0  0  0  0  0  0  0  0  0  0
   57.7356   32.6504   42.6053 H   0  0  0  0  0  0  0  0  0  0  0  0
  1  2  1  0
  2  3  1  0
  3  4  1  0
  4  5  2  0
  5  6  1  0
  6  7  2  0
  7  8  1  0
  7  9  1  0
  9 10  1  0
  9 11  2  0
 11 12  1  0
 11 13  1  0
 13 14  1  0
 13 15  2  0
 15 16  1  0
 16 17  1  0
 17 18  1  0
 17 19  1  0
 17 20  1  0
  4 21  1  0
 21 22  2  0
 22 23  1  0
 23 24  1  0
 24 25  2  0
 25 26  1  0
 25 27  1  0
 27 28  1  0
 27 29  2  0
 29 30  1  0
 30 31  1  0
 31 32  1  0
 32 33  1  0
 32 34  1  0
 32 35  1  0
 35 36  2  0
 36 37  1  0
 36 38  1  0
 38 39  1  0
 38 40  2  0
 40 41  1  0
 40 42  1  0
 42 43  1  0
 42 44  2  0
 44 45  1  0
 31 46  2  0
 46 47  1  0
 47 48  2  0
 48 49  1  0
 23 50  1  0
 50 51  1  0
 50 52  1  0
 50 53  1  0
 22 54  1  0
 54 55  1  0
 54  2  2  0
 15  6  1  0
 48 24  1  0
 47 29  1  0
 44 35  1  0
M  CHG  2   3  -1  30  -1
M  END
>  <UniqueID>  (16) 
15

>  <SMILES>  (16) 
COc1ccccc1/N=c1/nc(N(C)c2ccc3[n-]c(Cc4ccccc4)nc3c2)cc[n-]1

>  <Energy>  (16) 
107.98943348260194

>  <Genealogy>  (16) 
COc1ccccc1N=c1nc(N(C)c2ccc3[n-]c(Cc4ccccc4)nc3c2)cc[n-]1 (protonated)
COc1ccccc1/N=c1/nc(N(C)c2ccc3[n-]c(Cc4ccccc4)nc3c2)cc[n-]1 (cis-trans isomerization)
COc1ccccc1/N=c1/nc(N(C)c2ccc3[n-]c(Cc4ccccc4)nc3c2)cc[n-]1 (3D coordinates assigned)
COc1ccccc1/N=c1/nc(N(C)c2ccc3[n-]c(Cc4ccccc4)nc3c2)cc[n-]1 (optimized conformer: 107.98943348260194 kcal/mol)

>  <smiles>  (16) 
COc1ccccc1N=c1nc(N(C)c2ccc3[nH]c(Cc4ccccc4)nc3c2)cc[nH]1

>  <score_type>  (16) 
oracle

>  <origin>  (16) 
adg

>  <m_score__min__energy>  (16) 
-12.51

>  <m_primary>  (16) 
energy

$$$$
16:0
     RDKit          3D

 66 69  0  0  1  0  0  0  0  0999 V2000
   57.8370   31.4350   46.6280 O   0  0  0  0  0  0  0  0  0  0  0  0
   58.9320   31.8580   46.2440 C   0  0  0  0  0  0  0  0  0  0  0  0
   60.1550   31.2090   46.3760 N   0  0  0  0  0  0  0  0  0  0  0  0
   60.5440   29.9640   46.9160 C   0  0  1  0  0  0  0  0  0  0  0  0
   61.1550   30.0480   48.2620 C   0  0  0  0  0  0  0  0  0  0  0  0
   60.2720   30.3000   49.4020 C   0  0  0  0  0  0  0  0  0  0  0  0
   60.8060   30.2390   50.6960 C   0  0  0  0  0  0  0  0  0  0  0  0
   60.0180   30.4640   51.8170 C   0  0  0  0  0  0  0  0  0  0  0  0
   58.6750   30.7580   51.7240 C   0  0  0  0  0  0  0  0  0  0  0  0
   58.1410   30.8190   50.4540 C   0  0  0  0  0  0  0  0  0  0  0  0
   58.9300   30.5930   49.3250 C   0  0  0  0  0  0  0  0  0  0  0  0
   59.8330   28.7170   46.6250 C   0  0  0  0  0  0  0  0  0  0  0  0
   60.4790   27.6460   46.9100 O   0  0  0  0  0  0  0  0  0  0  0  0
   58.5610   28.5390   46.0740 N   0  0  0  0  0  0  0  0  0  0  0  0
   57.8780   27.3320   45.8230 C   0  0  0  0  0  0  0  0  0  0  0  0
   57.0150   26.7000   46.6800 C   0  0  0  0  0  0  0  0  0  0  0  0
   56.3770   25.4950   46.3520 C   0  0  0  0  0  0  0  0  0  0  0  0
   56.5950   24.8880   45.1380 C   0  0  0  0  0  0  0  0  0  0  0  0
   57.4590   25.5100   44.2670 C   0  0  0  0  0  0  0  0  0  0  0  0
   58.0780   26.6880   44.5950 C   0  0  0  0  0  0  0  0  0  0  0  0
   58.8630   33.2250   45.5710 C   0  0  1  0  0  0  0  0  0  0  0  0
   57.7300   33.1690   44.6310 C   0  0  0  0  0  0  0  0  0  0  0  0
   57.4200   31.9020   43.9870 C   0  0  0  0  0  0  0  0  0  0  0  0
   58.1330   31.2100   43.0490 O   0  0  0  0  0  0  0  0  0  0  0  0
   56.2830   31.3230   44.3570 N   0  0  0  0  0  0  0  0  0  0  0  0
   56.4190   30.1120   45.0250 O   0  0  0  0  0  0  0  0  0  0  0  0
   59.1000   34.3850   46.4370 C   0  0  0  0  0  0  0  0  0  0  0  0
   59.9460   34.1500   47.6190 C   0  0  0  0  0  0  0  0  0  0  0  0
   59.2870   34.1560   48.8690 C   0  0  0  0  0  0  0  0  0  0  0  0
   59.9520   33.8690   50.0330 C   0  0  0  0  0  0  0  0  0  0  0  0
   61.2950   33.5640   50.0350 C   0  0  0  0  0  0  0  0  0  0  0  0
   61.9650   33.5530   48.8250 C   0  0  0  0  0  0  0  0  0  0  0  0
   63.2950   33.2760   48.8260 C   0  0  0  0  0  0  0  0  0  0  0  0
   64.0300   33.2760   47.6440 C   0  0  0  0  0  0  0  0  0  0  0  0
   63.3300   33.5740   46.4720 C   0  0  0  0  0  0  0  0  0  0  0  0
   61.9840   33.8510   46.4960 C   0  0  0  0  0  0  0  0  0  0  0  0
   61.2690   33.8470   47.6640 C   0  0  0  0  0  0  0  0  0  0  0  0
   60.9910   31.7720   45.9630 H   0  0  0  0  0  0  0  0  0  0  0  0
   61.3319   29.7666   46.1742 H   0  0  0  0  0  0  0  0  0  0  0  0
   61.6668   29.0925   48.4493 H   0  0  0  0  0  0  0  0  0  0  0  0
   61.8036   30.9352   48.2149 H   0  0  0  0  0  0  0  0  0  0  0  0
   61.8734   30.0077   50.8268 H   0  0  0  0  0  0  0  0  0  0  0  0
   60.4815   30.4056   52.8129 H   0  0  0  0  0  0  0  0  0  0  0  0
   58.0595   30.9352   52.6183 H   0  0  0  0  0  0  0  0  0  0  0  0
   57.0729   31.0502   50.3283 H   0  0  0  0  0  0  0  0  0  0  0  0
   58.4593   30.6516   48.3325 H   0  0  0  0  0  0  0  0  0  0  0  0
   58.0640   29.4180   45.7420 H   0  0  0  0  0  0  0  0  0  0  0  0
   56.8154   27.1548   47.6615 H   0  0  0  0  0  0  0  0  0  0  0  0
   55.6926   25.0290   47.0762 H   0  0  0  0  0  0  0  0  0  0  0  0
   56.0984   23.9427   44.8737 H   0  0  0  0  0  0  0  0  0  0  0  0
   57.6573   25.0523   43.2866 H   0  0  0  0  0  0  0  0  0  0  0  0
   58.7600   27.1467   43.8639 H   0  0  0  0  0  0  0  0  0  0  0  0
   59.7451   33.4501   44.9536 H   0  0  0  0  0  0  0  0  0  0  0  0
   56.8324   33.4782   45.1867 H   0  0  0  0  0  0  0  0  0  0  0  0
   58.0379   33.8225   43.8015 H   0  0  0  0  0  0  0  0  0  0  0  0
   58.0780   30.1940   43.0130 H   0  0  0  0  0  0  0  0  0  0  0  0
   56.5190   30.0840   46.0420 H   0  0  0  0  0  0  0  0  0  0  0  0
   59.5814   35.1652   45.8291 H   0  0  0  0  0  0  0  0  0  0  0  0
   58.1123   34.6650   46.8321 H   0  0  0  0  0  0  0  0  0  0  0  0
   58.2144   34.3968   48.9091 H   0  0  0  0  0  0  0  0  0  0  0  0
   59.4014   33.8826   50.9852 H   0  0  0  0  0  0  0  0  0  0  0  0
   61.8208   33.3353   50.9737 H   0  0  0  0  0  0  0  0  0  0  0  0
   63.7993   33.0480   49.7766 H   0  0  0  0  0  0  0  0  0  0  0  0
   65.1071   33.0528   47.6331 H   0  0  0  0  0  0  0  0  0  0  0  0
   63.8665   33.5872   45.5118 H   0  0  0  0  0  0  0  0  0  0  0  0
   61.4677   34.0819   45.5526 H   0  0  0  0  0  0  0  0  0  0  0  0
  1  2  2  0
  2  3  1  0
  3  4  1  0
  4  5  1  0
  5  6  1  0
  6  7  2  0
  7  8  1  0
  8  9  2  0
  9 10  1  0
 10 11  2  0
  4 12  1  0
 12 13  2  0
 12 14  1  0
 14 15  1  0
 15 16  2  0
 16 17  1  0
 17 18  2  0
 18 19  1  0
 19 20  2  0
  2 21  1  0
 21 22  1  0
 22 23  1  0
 23 24  1  0
 23 25  2  0
 25 26  1  0
 21 27  1  0
 27 28  1  0
 28 29  2  0
 29 30  1  0
 30 31  2  0
 31 32  1  0
 32 33  2  0
 33 34  1  0
 34 35  2  0
 35 36  1  0
 36 37  2  0
 11  6  1  0
 20 15  1  0
 37 28  1  0
 37 32  1  0
  3 38  1  0
  4 39  1  6
  5 40  1  0
  5 41  1  0
  7 42  1  0
  8 43  1  0
  9 44  1  0
 10 45  1  0
 11 46  1  0
 14 47  1  0
 16 48  1  0
 17 49  1  0
 18 50  1  0
 19 51  1  0
 20 52  1  0
 21 53  1  6
 22 54  1  0
 22 55  1  0
 24 56  1  0
 26 57  1  0
 27 58  1  0
 27 59  1  0
 29 60  1  0
 30 61  1  0
 31 62  1  0
 33 63  1  0
 34 64  1  0
 35 65  1  0
 36 66  1  0
M  END
>  <smiles>  (17) 
O=C(NC(Cc1ccccc1)C(=O)Nc1ccccc1)C(CC(O)=NO)Cc1cccc2ccccc12

>  <score_type>  (17) 
oracle

>  <origin>  (17) 
adg

>  <m_score__min__energy>  (17) 
-11.85

>  <m_primary>  (17) 
energy

$$$$
17:0
     RDKit          3D

 35 37  0  0  0  0  0  0  0  0999 V2000
   60.7860   26.7780   48.4810 C   0  0  0  0  0  0  0  0  0  0  0  0
   60.9410   26.8130   46.9650 C   0  0  0  0  0  0  0  0  0  0  0  0
   59.7930   27.4830   46.3510 N   0  0  0  0  0  0  0  0  0  0  0  0
   59.8150   28.7010   45.7670 C   0  0  0  0  0  0  0  0  0  0  0  0
   58.5360   29.0630   45.3500 C   0  0  0  0  0  0  0  0  0  0  0  0
   58.1650   30.3590   44.7460 C   0  0  0  0  0  0  0  0  0  0  0  0
   57.5040   30.3660   43.6730 O   0  0  0  0  0  0  0  0  0  0  0  0
   58.5040   31.6480   45.3980 C   0  0  0  0  0  0  0  0  0  0  0  0
   58.4120   32.8650   44.6960 C   0  0  0  0  0  0  0  0  0  0  0  0
   58.7250   34.0730   45.3270 C   0  0  0  0  0  0  0  0  0  0  0  0
   59.1230   34.0820   46.6660 C   0  0  0  0  0  0  0  0  0  0  0  0
   59.2040   32.8830   47.3770 C   0  0  0  0  0  0  0  0  0  0  0  0
   58.8930   31.6730   46.7510 C   0  0  0  0  0  0  0  0  0  0  0  0
   57.7070   28.0100   45.7200 C   0  0  0  0  0  0  0  0  0  0  0  0
   56.3320   27.7940   45.5480 C   0  0  0  0  0  0  0  0  0  0  0  0
   55.5360   28.7230   44.8790 O   0  0  0  0  0  0  0  0  0  0  0  0
   55.7830   26.5950   46.0570 C   0  0  0  0  0  0  0  0  0  0  0  0
   54.4240   26.3330   45.9220 O   0  0  0  0  0  0  0  0  0  0  0  0
   56.6080   25.6510   46.7020 C   0  0  0  0  0  0  0  0  0  0  0  0
   57.9850   25.8810   46.8410 C   0  0  0  0  0  0  0  0  0  0  0  0
   58.5080   27.0720   46.3300 C   0  0  0  0  0  0  0  0  0  0  0  0
   61.7548   26.9968   48.9538 H   0  0  0  0  0  0  0  0  0  0  0  0
   60.0478   27.5321   48.7916 H   0  0  0  0  0  0  0  0  0  0  0  0
   60.4435   25.7799   48.7916 H   0  0  0  0  0  0  0  0  0  0  0  0
   61.8603   27.3592   46.7070 H   0  0  0  0  0  0  0  0  0  0  0  0
   60.9964   25.7813   46.5876 H   0  0  0  0  0  0  0  0  0  0  0  0
   60.7156   29.3195   45.6388 H   0  0  0  0  0  0  0  0  0  0  0  0
   58.0916   32.8656   43.6437 H   0  0  0  0  0  0  0  0  0  0  0  0
   58.6577   35.0179   44.7679 H   0  0  0  0  0  0  0  0  0  0  0  0
   59.3724   35.0328   47.1598 H   0  0  0  0  0  0  0  0  0  0  0  0
   59.5134   32.8909   48.4326 H   0  0  0  0  0  0  0  0  0  0  0  0
   58.9525   30.7331   47.3194 H   0  0  0  0  0  0  0  0  0  0  0  0
   55.7680   29.0600   43.9530 H   0  0  0  0  0  0  0  0  0  0  0  0
   56.1677   24.7250   47.1002 H   0  0  0  0  0  0  0  0  0  0  0  0
   58.6343   25.1451   47.3379 H   0  0  0  0  0  0  0  0  0  0  0  0
  1  2  1  0
  2  3  1  0
  3  4  1  0
  4  5  2  0
  5  6  1  0
  6  7  2  0
  6  8  1  0
  8  9  2  0
  9 10  1  0
 10 11  2  0
 11 12  1  0
 12 13  2  0
  5 14  1  0
 14 15  2  0
 15 16  1  0
 15 17  1  0
 17 18  1  0
 17 19  2  0
 19 20  1  0
 20 21  2  0
 21  3  1  0
 13  8  1  0
 21 14  1  0
  1 22  1  0
  1 23  1  0
  1 24  1  0
  2 25  1  0
  2 26  1  0
  4 27  1  0
  9 28  1  0
 10 29  1  0
 11 30  1  0
 12 31  1  0
 13 32  1  0
 16 33  1  0
 19 34  1  0
 20 35  1  0
M  CHG  1  18  -1
M  END
>  <UniqueID>  (18) 
16

>  <SMILES>  (18) 
CCn1cc(C(=O)c2ccccc2)c2c(O)c([O-])ccc21

>  <Energy>  (18) 
74.72287807599483

>  <Genealogy>  (18) 
CCn1cc(C(=O)c2ccccc2)c2c(O)c([O-])ccc21 (protonated)
CCn1cc(C(=O)c2ccccc2)c2c(O)c([O-])ccc21 (3D coordinates assigned)
CCn1cc(C(=O)c2ccccc2)c2c(O)c([O-])ccc21 (optimized conformer: 74.72287807599483 kcal/mol)

>  <smiles>  (18) 
CCn1cc(C(=O)c2ccccc2)c2c(O)c(O)ccc21

>  <score_type>  (18) 
oracle

>  <origin>  (18) 
adg

>  <m_score__min__energy>  (18) 
-11.84

>  <m_primary>  (18) 
energy

$$$$
18:0
     RDKit          3D

 53 55  0  0  0  0  0  0  0  0999 V2000
   56.6870   21.7540   43.3160 C   0  0  0  0  0  0  0  0  0  0  0  0
   56.2910   22.9510   44.1300 C   0  0  0  0  0  0  0  0  0  0  0  0
   55.0600   22.9850   44.7990 C   0  0  0  0  0  0  0  0  0  0  0  0
   54.6860   24.1150   45.5280 C   0  0  0  0  0  0  0  0  0  0  0  0
   55.5430   25.2210   45.6050 C   0  0  0  0  0  0  0  0  0  0  0  0
   55.1690   26.3500   46.3350 O   0  0  0  0  0  0  0  0  0  0  0  0
   56.7850   25.1940   44.9540 C   0  0  0  0  0  0  0  0  0  0  0  0
   57.6410   26.3450   45.0290 N   0  0  0  0  0  0  0  0  0  0  0  0
   57.8620   27.3070   43.9890 C   0  0  0  0  0  0  0  0  0  0  0  0
   58.1840   26.8920   42.8450 O   0  0  0  0  0  0  0  0  0  0  0  0
   57.6750   28.7600   44.2120 C   0  0  0  0  0  0  0  0  0  0  0  0
   58.7210   29.5500   44.7160 C   0  0  0  0  0  0  0  0  0  0  0  0
   58.5400   30.9220   44.9150 C   0  0  0  0  0  0  0  0  0  0  0  0
   57.3100   31.5250   44.6110 C   0  0  0  0  0  0  0  0  0  0  0  0
   57.1040   32.9950   44.8570 C   0  0  0  0  0  0  0  0  0  0  0  0
   58.1050   33.5000   45.8600 C   0  0  0  0  0  0  0  0  0  0  0  0
   58.0970   33.0140   47.1760 C   0  0  0  0  0  0  0  0  0  0  0  0
   59.0540   33.4490   48.0960 C   0  0  0  0  0  0  0  0  0  0  0  0
   60.0300   34.3880   47.7140 C   0  0  0  0  0  0  0  0  0  0  0  0
   61.0480   34.8420   48.6180 N   0  0  0  0  0  0  0  0  0  0  0  0
   62.0940   34.0540   49.2080 C   0  0  0  0  0  0  0  0  0  0  0  0
   62.1130   33.8570   50.4530 O   0  0  0  0  0  0  0  0  0  0  0  0
   63.1480   33.5290   48.3820 N   0  0  0  0  0  0  0  0  0  0  0  0
   64.2010   32.7060   48.9860 C   0  0  0  0  0  0  0  0  0  0  0  0
   63.1520   33.8090   46.9440 C   0  0  0  0  0  0  0  0  0  0  0  0
   60.0570   34.8450   46.3910 C   0  0  0  0  0  0  0  0  0  0  0  0
   59.1030   34.4070   45.4680 C   0  0  0  0  0  0  0  0  0  0  0  0
   56.2560   30.7330   44.1350 C   0  0  0  0  0  0  0  0  0  0  0  0
   56.4360   29.3610   43.9400 C   0  0  0  0  0  0  0  0  0  0  0  0
   57.1410   24.0650   44.1930 C   0  0  0  0  0  0  0  0  0  0  0  0
   56.9604   20.9275   43.9884 H   0  0  0  0  0  0  0  0  0  0  0  0
   55.8427   21.4465   42.6815 H   0  0  0  0  0  0  0  0  0  0  0  0
   57.5481   22.0107   42.6815 H   0  0  0  0  0  0  0  0  0  0  0  0
   54.3856   22.1174   44.7494 H   0  0  0  0  0  0  0  0  0  0  0  0
   53.7148   24.1374   46.0440 H   0  0  0  0  0  0  0  0  0  0  0  0
   55.8480   27.0430   46.6250 H   0  0  0  0  0  0  0  0  0  0  0  0
   59.6892   29.0862   44.9558 H   0  0  0  0  0  0  0  0  0  0  0  0
   59.3654   31.5314   45.3116 H   0  0  0  0  0  0  0  0  0  0  0  0
   57.2295   33.5426   43.9113 H   0  0  0  0  0  0  0  0  0  0  0  0
   56.0896   33.1538   45.2516 H   0  0  0  0  0  0  0  0  0  0  0  0
   57.3326   32.2860   47.4853 H   0  0  0  0  0  0  0  0  0  0  0  0
   59.0446   33.0559   49.1233 H   0  0  0  0  0  0  0  0  0  0  0  0
   64.1277   32.7633   50.0821 H   0  0  0  0  0  0  0  0  0  0  0  0
   64.0794   31.6611   48.6645 H   0  0  0  0  0  0  0  0  0  0  0  0
   65.1856   33.0764   48.6645 H   0  0  0  0  0  0  0  0  0  0  0  0
   63.1675   34.8969   46.7823 H   0  0  0  0  0  0  0  0  0  0  0  0
   64.0438   33.3573   46.4850 H   0  0  0  0  0  0  0  0  0  0  0  0
   62.2477   33.3830   46.4850 H   0  0  0  0  0  0  0  0  0  0  0  0
   60.8357   35.5549   46.0751 H   0  0  0  0  0  0  0  0  0  0  0  0
   59.1340   34.7739   44.4314 H   0  0  0  0  0  0  0  0  0  0  0  0
   55.2820   31.1939   43.9138 H   0  0  0  0  0  0  0  0  0  0  0  0
   55.6009   28.7477   43.5707 H   0  0  0  0  0  0  0  0  0  0  0  0
   58.0936   24.0561   43.6431 H   0  0  0  0  0  0  0  0  0  0  0  0
  1  2  1  0
  2  3  2  0
  3  4  1  0
  4  5  2  0
  5  6  1  0
  5  7  1  0
  7  8  1  0
  8  9  1  0
  9 10  2  0
  9 11  1  0
 11 12  2  0
 12 13  1  0
 13 14  2  0
 14 15  1  0
 15 16  1  0
 16 17  2  0
 17 18  1  0
 18 19  2  0
 19 20  1  0
 20 21  1  0
 21 22  2  0
 21 23  1  0
 23 24  1  0
 23 25  1  0
 19 26  1  0
 26 27  2  0
 14 28  1  0
 28 29  2  0
  7 30  2  0
 30  2  1  0
 29 11  1  0
 27 16  1  0
  1 31  1  0
  1 32  1  0
  1 33  1  0
  3 34  1  0
  4 35  1  0
  6 36  1  0
 12 37  1  0
 13 38  1  0
 15 39  1  0
 15 40  1  0
 17 41  1  0
 18 42  1  0
 24 43  1  0
 24 44  1  0
 24 45  1  0
 25 46  1  0
 25 47  1  0
 25 48  1  0
 26 49  1  0
 27 50  1  0
 28 51  1  0
 29 52  1  0
 30 53  1  0
M  CHG  2   8  -1  20  -1
M  END
>  <UniqueID>  (19) 
17

>  <SMILES>  (19) 
Cc1ccc(O)c([N-]C(=O)c2ccc(Cc3ccc([N-]C(=O)N(C)C)cc3)cc2)c1

>  <Energy>  (19) 
59.487941086001136

>  <Genealogy>  (19) 
Cc1ccc(O)c([N-]C(=O)c2ccc(Cc3ccc([N-]C(=O)N(C)C)cc3)cc2)c1 (protonated)
Cc1ccc(O)c([N-]C(=O)c2ccc(Cc3ccc([N-]C(=O)N(C)C)cc3)cc2)c1 (3D coordinates assigned)
Cc1ccc(O)c([N-]C(=O)c2ccc(Cc3ccc([N-]C(=O)N(C)C)cc3)cc2)c1 (optimized conformer: 59.487941086001136 kcal/mol)

>  <smiles>  (19) 
Cc1ccc(O)c(NC(=O)c2ccc(Cc3ccc(NC(=O)N(C)C)cc3)cc2)c1

>  <score_type>  (19) 
oracle

>  <origin>  (19) 
adg

>  <m_score__min__energy>  (19) 
-13.720000000000001

>  <m_primary>  (19) 
energy

$$$$
19:0
     RDKit          3D

 44 46  0  0  0  0  0  0  0  0999 V2000
   53.8100   25.2270   45.6250 C   0  0  0  0  0  0  0  0  0  0  0  0
   54.8410   26.1880   45.9940 N   0  0  0  0  0  0  0  0  0  0  0  0
   56.1350   25.8440   46.5050 C   0  0  0  0  0  0  0  0  0  0  0  0
   56.2960   24.7120   47.0330 O   0  0  0  0  0  0  0  0  0  0  0  0
   57.2730   26.7840   46.4670 C   0  0  0  0  0  0  0  0  0  0  0  0
   58.5220   26.3880   46.9680 C   0  0  0  0  0  0  0  0  0  0  0  0
   59.6080   27.2640   46.9220 C   0  0  0  0  0  0  0  0  0  0  0  0
   59.4600   28.5380   46.3710 C   0  0  0  0  0  0  0  0  0  0  0  0
   58.2200   28.9510   45.8560 C   0  0  0  0  0  0  0  0  0  0  0  0
   58.0680   30.2560   45.2600 N   0  0  0  0  0  0  0  0  0  0  0  0
   56.9420   30.6640   44.4370 C   0  0  0  0  0  0  0  0  0  0  0  0
   57.3490   32.0110   43.8210 C   0  0  0  0  0  0  0  0  0  0  0  0
   58.5020   32.5710   44.6880 C   0  0  1  0  0  0  0  0  0  0  0  0
   58.0370   33.5940   45.6460 N   0  0  0  0  0  0  0  0  0  0  0  0
   59.3590   34.2290   46.5830 S   0  0  0  0  0  0  0  0  0  0  0  0
   60.6640   33.8450   45.9430 O   0  0  0  0  0  0  0  0  0  0  0  0
   59.2680   35.7280   46.6060 O   0  0  0  0  0  0  0  0  0  0  0  0
   59.3040   33.6310   48.2390 C   0  0  0  0  0  0  0  0  0  0  0  0
   58.4920   32.5330   48.5590 C   0  0  0  0  0  0  0  0  0  0  0  0
   58.4610   32.0400   49.8670 C   0  0  0  0  0  0  0  0  0  0  0  0
   59.2420   32.6390   50.8600 C   0  0  0  0  0  0  0  0  0  0  0  0
   60.0550   33.7320   50.5450 C   0  0  0  0  0  0  0  0  0  0  0  0
   60.0880   34.2280   49.2380 C   0  0  0  0  0  0  0  0  0  0  0  0
   58.9410   31.3620   45.4290 C   0  0  0  0  0  0  0  0  0  0  0  0
   59.9560   31.3300   46.1750 O   0  0  0  0  0  0  0  0  0  0  0  0
   57.1350   28.0570   45.8900 C   0  0  0  0  0  0  0  0  0  0  0  0
   53.3584   24.8060   46.5354 H   0  0  0  0  0  0  0  0  0  0  0  0
   53.0342   25.7317   45.0305 H   0  0  0  0  0  0  0  0  0  0  0  0
   54.2590   24.4177   45.0305 H   0  0  0  0  0  0  0  0  0  0  0  0
   58.6462   25.3835   47.3987 H   0  0  0  0  0  0  0  0  0  0  0  0
   60.5835   26.9493   47.3212 H   0  0  0  0  0  0  0  0  0  0  0  0
   60.3201   29.2231   46.3399 H   0  0  0  0  0  0  0  0  0  0  0  0
   56.7542   29.9215   43.6474 H   0  0  0  0  0  0  0  0  0  0  0  0
   56.0164   30.7480   45.0254 H   0  0  0  0  0  0  0  0  0  0  0  0
   57.6904   31.8658   42.7854 H   0  0  0  0  0  0  0  0  0  0  0  0
   56.4980   32.7076   43.7996 H   0  0  0  0  0  0  0  0  0  0  0  0
   59.2814   33.0642   44.0886 H   0  0  0  0  0  0  0  0  0  0  0  0
   57.6410   34.4180   45.1400 H   0  0  0  0  0  0  0  0  0  0  0  0
   57.8782   32.0587   47.7791 H   0  0  0  0  0  0  0  0  0  0  0  0
   57.8215   31.1800   50.1151 H   0  0  0  0  0  0  0  0  0  0  0  0
   59.2168   32.2505   51.8888 H   0  0  0  0  0  0  0  0  0  0  0  0
   60.6696   34.2025   51.3266 H   0  0  0  0  0  0  0  0  0  0  0  0
   60.7294   35.0873   48.9926 H   0  0  0  0  0  0  0  0  0  0  0  0
   56.1682   28.3579   45.4602 H   0  0  0  0  0  0  0  0  0  0  0  0
  1  2  1  0
  2  3  1  0
  3  4  2  0
  3  5  1  0
  5  6  2  0
  6  7  1  0
  7  8  2  0
  8  9  1  0
  9 10  1  0
 10 11  1  0
 11 12  1  0
 12 13  1  0
 13 14  1  0
 14 15  1  0
 15 16  2  0
 15 17  2  0
 15 18  1  0
 18 19  2  0
 19 20  1  0
 20 21  2  0
 21 22  1  0
 22 23  2  0
 13 24  1  0
 24 25  2  0
  9 26  2  0
 26  5  1  0
 24 10  1  0
 23 18  1  0
  1 27  1  0
  1 28  1  0
  1 29  1  0
  6 30  1  0
  7 31  1  0
  8 32  1  0
 11 33  1  0
 11 34  1  0
 12 35  1  0
 12 36  1  0
 13 37  1  6
 14 38  1  0
 19 39  1  0
 20 40  1  0
 21 41  1  0
 22 42  1  0
 23 43  1  0
 26 44  1  0
M  CHG  1   2  -1
M  END
>  <UniqueID>  (20) 
18

>  <SMILES>  (20) 
C[N-]C(=O)c1cccc(N2CC[C@@H](NS(=O)(=O)c3ccccc3)C2=O)c1

>  <Energy>  (20) 
60.95794438849691

>  <Genealogy>  (20) 
C[N-]C(=O)c1cccc(N2CCC(NS(=O)(=O)c3ccccc3)C2=O)c1 (protonated)
C[N-]C(=O)c1cccc(N2CC[C@@H](NS(=O)(=O)c3ccccc3)C2=O)c1 (chirality)
C[N-]C(=O)c1cccc(N2CC[C@@H](NS(=O)(=O)c3ccccc3)C2=O)c1 (3D coordinates assigned)
C[N-]C(=O)c1cccc(N2CC[C@@H](NS(=O)(=O)c3ccccc3)C2=O)c1 (nonaromatic ring conformer: 60.95794438849691 kcal/mol)

>  <smiles>  (20) 
CNC(=O)c1cccc(N2CCC(NS(=O)(=O)c3ccccc3)C2=O)c1

>  <score_type>  (20) 
oracle

>  <origin>  (20) 
adg

>  <m_score__min__energy>  (20) 
-11.279999999999999

>  <m_primary>  (20) 
energy

$$$$
20:0
     RDKit          3D

 61 65  0  0  0  0  0  0  0  0999 V2000
   55.3341   28.4983   44.4705 H   0  0  0  0  0  0  0  0  0  0  0  0
   56.3160   28.9820   44.5800 C   0  0  0  0  0  0  0  0  0  0  0  0
   56.3880   30.3090   44.8700 N   0  0  0  0  0  0  0  0  0  0  0  0
   57.5760   30.9610   44.9890 C   0  0  0  0  0  0  0  0  0  0  0  0
   57.5690   32.3600   45.3160 N   0  0  0  0  0  0  0  0  0  0  0  0
   58.3240   32.9510   46.1960 C   0  0  0  0  0  0  0  0  0  0  0  0
   59.0240   32.2260   47.1220 N   0  0  0  0  0  0  0  0  0  0  0  0
   59.8360   32.8790   47.9880 C   0  0  0  0  0  0  0  0  0  0  0  0
   59.9850   34.2310   47.9500 C   0  0  0  0  0  0  0  0  0  0  0  0
   59.2840   34.9800   47.0140 C   0  0  0  0  0  0  0  0  0  0  0  0
   59.3866   36.0744   46.9712 H   0  0  0  0  0  0  0  0  0  0  0  0
   58.4630   34.3150   46.1480 N   0  0  0  0  0  0  0  0  0  0  0  0
   60.9040   34.5790   48.9130 C   0  0  0  0  0  0  0  0  0  0  0  0
   61.2664   35.5875   49.1613 H   0  0  0  0  0  0  0  0  0  0  0  0
   61.2750   33.3720   49.5050 C   0  0  0  0  0  0  0  0  0  0  0  0
   62.2970   33.2760   50.5600 C   0  0  0  0  0  0  0  0  0  0  0  0
   61.9770   33.6130   51.7360 O   0  0  0  0  0  0  0  0  0  0  0  0
   63.6510   32.8620   50.2690 N   0  0  0  0  0  0  0  0  0  0  0  0
   64.1500   32.7480   48.8950 C   0  0  0  0  0  0  0  0  0  0  0  0
   65.2222   32.5030   48.9134 H   0  0  0  0  0  0  0  0  0  0  0  0
   63.6010   31.9521   48.3704 H   0  0  0  0  0  0  0  0  0  0  0  0
   64.0011   33.7033   48.3704 H   0  0  0  0  0  0  0  0  0  0  0  0
   64.5920   32.6810   51.3760 C   0  0  0  0  0  0  0  0  0  0  0  0
   64.0577   32.7838   52.3320 H   0  0  0  0  0  0  0  0  0  0  0  0
   65.0430   31.6796   51.3138 H   0  0  0  0  0  0  0  0  0  0  0  0
   65.3823   33.4436   51.3138 H   0  0  0  0  0  0  0  0  0  0  0  0
   60.6150   32.3190   48.9340 N   0  0  0  0  0  0  0  0  0  0  0  0
   60.6810   30.8760   49.2330 C   0  0  0  0  0  0  0  0  0  0  0  0
   61.4456   30.8033   50.0204 H   0  0  0  0  0  0  0  0  0  0  0  0
   59.3540   30.3050   49.7460 C   0  0  0  0  0  0  0  0  0  0  0  0
   59.4377   30.0485   50.8124 H   0  0  0  0  0  0  0  0  0  0  0  0
   58.5399   31.0376   49.6437 H   0  0  0  0  0  0  0  0  0  0  0  0
   59.0740   29.0500   48.9220 C   0  0  0  0  0  0  0  0  0  0  0  0
   58.7845   28.2181   49.5810 H   0  0  0  0  0  0  0  0  0  0  0  0
   58.2476   29.2118   48.2143 H   0  0  0  0  0  0  0  0  0  0  0  0
   60.3710   28.7200   48.1940 C   0  0  0  0  0  0  0  0  0  0  0  0
   60.9825   28.0289   48.7927 H   0  0  0  0  0  0  0  0  0  0  0  0
   60.1827   28.2278   47.2285 H   0  0  0  0  0  0  0  0  0  0  0  0
   61.0870   30.0450   48.0190 C   0  0  0  0  0  0  0  0  0  0  0  0
   62.1767   29.8961   47.9992 H   0  0  0  0  0  0  0  0  0  0  0  0
   60.8195   30.5377   47.0726 H   0  0  0  0  0  0  0  0  0  0  0  0
   58.7720   30.2390   44.8400 C   0  0  0  0  0  0  0  0  0  0  0  0
   59.7417   30.7448   44.9577 H   0  0  0  0  0  0  0  0  0  0  0  0
   58.7230   28.8770   44.5420 C   0  0  0  0  0  0  0  0  0  0  0  0
   59.6561   28.3114   44.4025 H   0  0  0  0  0  0  0  0  0  0  0  0
   57.4860   28.2280   44.4200 C   0  0  0  0  0  0  0  0  0  0  0  0
   57.3970   26.8350   44.0800 N   0  0  0  0  0  0  0  0  0  0  0  0
   57.4590   26.5670   43.0740 H   0  0  0  0  0  0  0  0  0  0  0  0
   57.1200   25.8040   45.0370 C   0  0  0  0  0  0  0  0  0  0  0  0
   56.4820   26.0860   46.0890 O   0  0  0  0  0  0  0  0  0  0  0  0
   57.5470   24.4060   44.7950 C   0  0  0  0  0  0  0  0  0  0  0  0
   56.8250   23.5860   43.9050 C   0  0  0  0  0  0  0  0  0  0  0  0
   55.9580   23.9953   43.3658 H   0  0  0  0  0  0  0  0  0  0  0  0
   57.2040   22.2550   43.7030 C   0  0  0  0  0  0  0  0  0  0  0  0
   56.6443   21.6266   42.9946 H   0  0  0  0  0  0  0  0  0  0  0  0
   58.2890   21.7230   44.3970 C   0  0  0  0  0  0  0  0  0  0  0  0
   58.5721   20.6700   44.2522 H   0  0  0  0  0  0  0  0  0  0  0  0
   59.0180   22.5290   45.2780 C   0  0  0  0  0  0  0  0  0  0  0  0
   59.8791   22.1095   45.8188 H   0  0  0  0  0  0  0  0  0  0  0  0
   58.6570   23.8650   45.4740 C   0  0  0  0  0  0  0  0  0  0  0  0
   59.2410   24.4959   46.1602 H   0  0  0  0  0  0  0  0  0  0  0  0
  1  2  1  0
  2  3  2  0
  3  4  1  0
  4  5  1  0
  5  6  2  0
  6  7  1  0
  7  8  2  0
  8  9  1  0
  9 10  2  0
 10 11  1  0
 10 12  1  0
  9 13  1  0
 13 14  1  0
 13 15  2  0
 15 16  1  0
 16 17  2  0
 16 18  1  0
 18 19  1  0
 19 20  1  0
 19 21  1  0
 19 22  1  0
 18 23  1  0
 23 24  1  0
 23 25  1  0
 23 26  1  0
 15 27  1  0
 27 28  1  0
 28 29  1  0
 28 30  1  0
 30 31  1  0
 30 32  1  0
 30 33  1  0
 33 34  1  0
 33 35  1  0
 33 36  1  0
 36 37  1  0
 36 38  1  0
 36 39  1  0
 39 40  1  0
 39 41  1  0
  4 42  2  0
 42 43  1  0
 42 44  1  0
 44 45  1  0
 44 46  2  0
 46 47  1  0
 47 48  1  0
 47 49  1  0
 49 50  2  0
 49 51  1  0
 51 52  2  0
 52 53  1  0
 52 54  1  0
 54 55  1  0
 54 56  2  0
 56 57  1  0
 56 58  1  0
 58 59  1  0
 58 60  2  0
 60 61  1  0
 46  2  1  0
 60 51  1  0
 12  6  1  0
 39 28  1  0
 27  8  1  0
M  CHG  1  12  -1
M  END
>  <UniqueID>  (21) 
19

>  <SMILES>  (21) 
CN(C)C(=O)c1cc2c[n-]/c(=N/c3ccc(NC(=O)c4ccccc4)cn3)nc2n1C1CCCC1

>  <Energy>  (21) 
122.98570785447279

>  <Genealogy>  (21) 
CN(C)C(=O)c1cc2c[n-]c(=Nc3ccc(NC(=O)c4ccccc4)cn3)nc2n1C1CCCC1 (protonated)
CN(C)C(=O)c1cc2c[n-]/c(=N/c3ccc(NC(=O)c4ccccc4)cn3)nc2n1C1CCCC1 (cis-trans isomerization)
CN(C)C(=O)c1cc2c[n-]/c(=N/c3ccc(NC(=O)c4ccccc4)cn3)nc2n1C1CCCC1 (3D coordinates assigned)
CN(C)C(=O)c1cc2c[n-]/c(=N/c3ccc(NC(=O)c4ccccc4)cn3)nc2n1C1CCCC1 (nonaromatic ring conformer: 122.98570785447279 kcal/mol)

>  <smiles>  (21) 
CN(C)C(=O)c1cc2c[nH]c(=Nc3ccc(NC(=O)c4ccccc4)cn3)nc2n1C1CCCC1

>  <score_type>  (21) 
oracle

>  <origin>  (21) 
adg

>  <m_score__min__energy>  (21) 
-10.18

>  <m_primary>  (21) 
energy

$$$$
21:0
     RDKit          3D

 57 60  0  0  0  0  0  0  0  0999 V2000
   54.9805   25.6651   46.7512 H   0  0  0  0  0  0  0  0  0  0  0  0
   55.6340   25.3590   45.9210 C   0  0  0  0  0  0  0  0  0  0  0  0
   55.3840   24.2010   45.2520 N   0  0  0  0  0  0  0  0  0  0  0  0
   56.1640   23.7870   44.2120 C   0  0  0  0  0  0  0  0  0  0  0  0
   55.8870   22.5930   43.5410 O   0  0  0  0  0  0  0  0  0  0  0  0
   56.9100   21.7150   43.0770 C   0  0  0  0  0  0  0  0  0  0  0  0
   57.4292   21.2694   43.9383 H   0  0  0  0  0  0  0  0  0  0  0  0
   56.4601   20.9176   42.4674 H   0  0  0  0  0  0  0  0  0  0  0  0
   57.6300   22.2807   42.4674 H   0  0  0  0  0  0  0  0  0  0  0  0
   57.2560   24.5650   43.8110 C   0  0  0  0  0  0  0  0  0  0  0  0
   57.8879   24.2421   42.9705 H   0  0  0  0  0  0  0  0  0  0  0  0
   57.5370   25.7540   44.4860 C   0  0  0  0  0  0  0  0  0  0  0  0
   58.3959   26.3695   44.1804 H   0  0  0  0  0  0  0  0  0  0  0  0
   56.7250   26.1650   45.5540 C   0  0  0  0  0  0  0  0  0  0  0  0
   57.0230   27.4450   46.2850 C   0  0  0  0  0  0  0  0  0  0  0  0
   57.5957   27.2232   47.1976 H   0  0  0  0  0  0  0  0  0  0  0  0
   56.0813   27.9424   46.5602 H   0  0  0  0  0  0  0  0  0  0  0  0
   57.8050   28.3190   45.4180 N   0  0  0  0  0  0  0  0  0  0  0  0
   57.7590   29.6130   45.2570 C   0  0  0  0  0  0  0  0  0  0  0  0
   56.6760   30.1120   44.6000 N   0  0  0  0  0  0  0  0  0  0  0  0
   56.3600   31.4110   44.6060 N   0  0  0  0  0  0  0  0  0  0  0  0
   57.0880   32.3300   45.2970 C   0  0  0  0  0  0  0  0  0  0  0  0
   56.6580   33.7640   45.2530 C   0  0  0  0  0  0  0  0  0  0  0  0
   56.5440   34.1442   46.2789 H   0  0  0  0  0  0  0  0  0  0  0  0
   57.4174   34.3584   44.7239 H   0  0  0  0  0  0  0  0  0  0  0  0
   55.6968   33.8425   44.7239 H   0  0  0  0  0  0  0  0  0  0  0  0
   58.2440   31.8810   45.9550 C   0  0  0  0  0  0  0  0  0  0  0  0
   59.2450   32.5630   46.6370 C   0  0  0  0  0  0  0  0  0  0  0  0
   59.2390   34.0150   47.0370 C   0  0  0  0  0  0  0  0  0  0  0  0
   59.2387   34.0931   48.1342 H   0  0  0  0  0  0  0  0  0  0  0  0
   60.1351   34.5099   46.6345 H   0  0  0  0  0  0  0  0  0  0  0  0
   58.3388   34.5025   46.6345 H   0  0  0  0  0  0  0  0  0  0  0  0
   60.2750   31.7130   46.8700 N   0  0  0  0  0  0  0  0  0  0  0  0
   61.5510   32.0500   47.4450 C   0  0  0  0  0  0  0  0  0  0  0  0
   61.9890   31.4230   48.6200 C   0  0  0  0  0  0  0  0  0  0  0  0
   61.3631   30.6532   49.0950 H   0  0  0  0  0  0  0  0  0  0  0  0
   63.2180   31.7710   49.1920 C   0  0  0  0  0  0  0  0  0  0  0  0
   63.5599   31.2651   50.1070 H   0  0  0  0  0  0  0  0  0  0  0  0
   64.0190   32.7680   48.5990 C   0  0  0  0  0  0  0  0  0  0  0  0
   65.2590   33.1630   49.1270 O   0  0  0  0  0  0  0  0  0  0  0  0
   65.7090   32.9200   50.4600 C   0  0  0  0  0  0  0  0  0  0  0  0
   64.8437   32.6746   51.0933 H   0  0  0  0  0  0  0  0  0  0  0  0
   66.2124   33.8246   50.8319 H   0  0  0  0  0  0  0  0  0  0  0  0
   66.6990   31.7610   50.4960 C   0  0  0  0  0  0  0  0  0  0  0  0
   66.9212   31.5009   51.5415 H   0  0  0  0  0  0  0  0  0  0  0  0
   66.2621   30.8896   49.9863 H   0  0  0  0  0  0  0  0  0  0  0  0
   67.6280   32.0563   49.9863 H   0  0  0  0  0  0  0  0  0  0  0  0
   63.5700   33.3970   47.4290 C   0  0  0  0  0  0  0  0  0  0  0  0
   64.1881   34.1749   46.9571 H   0  0  0  0  0  0  0  0  0  0  0  0
   62.3450   33.0450   46.8570 C   0  0  0  0  0  0  0  0  0  0  0  0
   62.0021   33.5502   45.9420 H   0  0  0  0  0  0  0  0  0  0  0  0
   59.9350   30.4990   46.3650 C   0  0  0  0  0  0  0  0  0  0  0  0
   60.9710   29.4580   46.0370 C   0  0  0  0  0  0  0  0  0  0  0  0
   61.3829   29.0441   46.9692 H   0  0  0  0  0  0  0  0  0  0  0  0
   60.5071   28.6509   45.4510 H   0  0  0  0  0  0  0  0  0  0  0  0
   61.7803   29.9180   45.4510 H   0  0  0  0  0  0  0  0  0  0  0  0
   58.6260   30.5540   45.8720 C   0  0  0  0  0  0  0  0  0  0  0  0
  1  2  1  0
  2  3  2  0
  3  4  1  0
  4  5  1  0
  5  6  1  0
  6  7  1  0
  6  8  1  0
  6  9  1  0
  4 10  2  0
 10 11  1  0
 10 12  1  0
 12 13  1  0
 12 14  2  0
 14 15  1  0
 15 16  1  0
 15 17  1  0
 15 18  1  0
 18 19  2  0
 19 20  1  0
 20 21  1  0
 21 22  2  0
 22 23  1  0
 23 24  1  0
 23 25  1  0
 23 26  1  0
 22 27  1  0
 27 28  2  0
 28 29  1  0
 29 30  1  0
 29 31  1  0
 29 32  1  0
 28 33  1  0
 33 34  1  0
 34 35  2  0
 35 36  1  0
 35 37  1  0
 37 38  1  0
 37 39  2  0
 39 40  1  0
 40 41  1  0
 41 42  1  0
 41 43  1  0
 41 44  1  0
 44 45  1  0
 44 46  1  0
 44 47  1  0
 39 48  1  0
 48 49  1  0
 48 50  2  0
 50 51  1  0
 33 52  1  0
 52 53  1  0
 53 54  1  0
 53 55  1  0
 53 56  1  0
 52 57  2  0
 14  2  1  0
 57 19  1  0
 57 27  1  0
 50 34  1  0
M  CHG  1  20  -1
M  END
>  <UniqueID>  (22) 
20

>  <SMILES>  (22) 
CCOc1ccc(-n2c(C)c3c(C)n[n-]/c(=N/Cc4ccc(OC)nc4)c3c2C)cc1

>  <Energy>  (22) 
119.05212057199512

>  <Genealogy>  (22) 
CCOc1ccc(-n2c(C)c3c(C)n[n-]c(=NCc4ccc(OC)nc4)c3c2C)cc1 (protonated)
CCOc1ccc(-n2c(C)c3c(C)n[n-]/c(=N/Cc4ccc(OC)nc4)c3c2C)cc1 (cis-trans isomerization)
CCOc1ccc(-n2c(C)c3c(C)n[n-]/c(=N/Cc4ccc(OC)nc4)c3c2C)cc1 (3D coordinates assigned)
CCOc1ccc(-n2c(C)c3c(C)n[n-]/c(=N/Cc4ccc(OC)nc4)c3c2C)cc1 (optimized conformer: 119.05212057199512 kcal/mol)

>  <smiles>  (22) 
CCOc1ccc(-n2c(C)c3c(C)n[nH]c(=NCc4ccc(OC)nc4)c3c2C)cc1

>  <score_type>  (22) 
oracle

>  <origin>  (22) 
adg

>  <m_score__min__energy>  (22) 
-10.800000000000001

>  <m_primary>  (22) 
energy

$$$$
22:0
     RDKit          3D

 44 46  0  0  0  0  0  0  0  0999 V2000
   62.8410   33.8420   45.8910 O   0  0  0  0  0  0  0  0  0  0  0  0
   62.1200   33.7290   46.9200 C   0  0  0  0  0  0  0  0  0  0  0  0
   62.7600   33.5520   48.2440 C   0  0  0  0  0  0  0  0  0  0  0  0
   63.9030   32.7400   48.3770 C   0  0  0  0  0  0  0  0  0  0  0  0
   64.5140   32.5810   49.6240 C   0  0  0  0  0  0  0  0  0  0  0  0
   63.9980   33.2320   50.7480 C   0  0  0  0  0  0  0  0  0  0  0  0
   64.5930   33.0780   51.9550 F   0  0  0  0  0  0  0  0  0  0  0  0
   62.8710   34.0510   50.6250 C   0  0  0  0  0  0  0  0  0  0  0  0
   62.2570   34.2150   49.3800 C   0  0  0  0  0  0  0  0  0  0  0  0
   60.6900   33.7760   46.7850 N   0  0  0  0  0  0  0  0  0  0  0  0
   59.8780   32.6350   47.2240 C   0  0  0  0  0  0  0  0  0  0  0  0
   58.3950   33.0220   47.2950 C   0  0  0  0  0  0  0  0  0  0  0  0
   57.8970   33.6260   46.0350 N   0  0  0  0  0  0  0  0  0  0  0  0
   57.0060   32.7500   45.2430 C   0  0  0  0  0  0  0  0  0  0  0  0
   57.7370   31.9160   44.1700 C   0  0  0  0  0  0  0  0  0  0  0  0
   57.9280   30.4990   44.6470 C   0  0  0  0  0  0  0  0  0  0  0  0
   59.2220   30.0150   44.9100 C   0  0  0  0  0  0  0  0  0  0  0  0
   59.4110   28.6970   45.3350 C   0  0  0  0  0  0  0  0  0  0  0  0
   58.3130   27.8450   45.4870 C   0  0  0  0  0  0  0  0  0  0  0  0
   58.4980   26.5670   45.9010 F   0  0  0  0  0  0  0  0  0  0  0  0
   57.0240   28.3100   45.2090 C   0  0  0  0  0  0  0  0  0  0  0  0
   56.8280   29.6300   44.7880 C   0  0  0  0  0  0  0  0  0  0  0  0
   55.5690   30.0610   44.5180 F   0  0  0  0  0  0  0  0  0  0  0  0
   58.8990   34.3430   45.2110 C   0  0  0  0  0  0  0  0  0  0  0  0
   60.0590   34.8790   46.0530 C   0  0  0  0  0  0  0  0  0  0  0  0
   64.3168   32.2286   47.4954 H   0  0  0  0  0  0  0  0  0  0  0  0
   65.4037   31.9415   49.7211 H   0  0  0  0  0  0  0  0  0  0  0  0
   62.4674   34.5666   51.5089 H   0  0  0  0  0  0  0  0  0  0  0  0
   61.3753   34.8661   49.2870 H   0  0  0  0  0  0  0  0  0  0  0  0
   60.0017   31.8074   46.5100 H   0  0  0  0  0  0  0  0  0  0  0  0
   60.2121   32.3270   48.2257 H   0  0  0  0  0  0  0  0  0  0  0  0
   57.8058   32.1179   47.5081 H   0  0  0  0  0  0  0  0  0  0  0  0
   58.2874   33.7761   48.0886 H   0  0  0  0  0  0  0  0  0  0  0  0
   56.4989   32.0587   45.9322 H   0  0  0  0  0  0  0  0  0  0  0  0
   56.3040   33.4084   44.7104 H   0  0  0  0  0  0  0  0  0  0  0  0
   57.1399   31.9102   43.2462 H   0  0  0  0  0  0  0  0  0  0  0  0
   58.7231   32.3647   43.9794 H   0  0  0  0  0  0  0  0  0  0  0  0
   60.0904   30.6776   44.7805 H   0  0  0  0  0  0  0  0  0  0  0  0
   60.4252   28.3295   45.5502 H   0  0  0  0  0  0  0  0  0  0  0  0
   56.1617   27.6364   45.3215 H   0  0  0  0  0  0  0  0  0  0  0  0
   59.2991   33.6499   44.4563 H   0  0  0  0  0  0  0  0  0  0  0  0
   58.3981   35.2011   44.7390 H   0  0  0  0  0  0  0  0  0  0  0  0
   60.8014   35.3520   45.3934 H   0  0  0  0  0  0  0  0  0  0  0  0
   59.6763   35.6201   46.7702 H   0  0  0  0  0  0  0  0  0  0  0  0
  1  2  2  0
  2  3  1  0
  3  4  2  0
  4  5  1  0
  5  6  2  0
  6  7  1  0
  6  8  1  0
  8  9  2  0
  2 10  1  0
 10 11  1  0
 11 12  1  0
 12 13  1  0
 13 14  1  0
 14 15  1  0
 15 16  1  0
 16 17  2  0
 17 18  1  0
 18 19  2  0
 19 20  1  0
 19 21  1  0
 21 22  2  0
 22 23  1  0
 13 24  1  0
 24 25  1  0
  9  3  1  0
 25 10  1  0
 22 16  1  0
  4 26  1  0
  5 27  1  0
  8 28  1  0
  9 29  1  0
 11 30  1  0
 11 31  1  0
 12 32  1  0
 12 33  1  0
 14 34  1  0
 14 35  1  0
 15 36  1  0
 15 37  1  0
 17 38  1  0
 18 39  1  0
 21 40  1  0
 24 41  1  0
 24 42  1  0
 25 43  1  0
 25 44  1  0
M  END
>  <UniqueID>  (23) 
21

>  <SMILES>  (23) 
O=C(c1ccc(F)cc1)N1CCN(CCc2ccc(F)cc2F)CC1

>  <Energy>  (23) 
59.80813404884819

>  <Genealogy>  (23) 
O=C(c1ccc(F)cc1)N1CCN(CCc2ccc(F)cc2F)CC1 (3D coordinates assigned)
O=C(c1ccc(F)cc1)N1CCN(CCc2ccc(F)cc2F)CC1 (nonaromatic ring conformer: 59.80813404884819 kcal/mol)

>  <smiles>  (23) 
O=C(c1ccc(F)cc1)N1CCN(CCc2ccc(F)cc2F)CC1

>  <score_type>  (23) 
oracle

>  <origin>  (23) 
adg

>  <m_score__min__energy>  (23) 
-7.96

>  <m_primary>  (23) 
energy

$$$$
23:0
     RDKit          3D

 35 36  0  0  0  0  0  0  0  0999 V2000
   55.7980   30.0770   45.6270 H   0  0  0  0  0  0  0  0  0  0  0  0
   55.2940   29.4860   45.0090 O   0  0  0  0  0  0  0  0  0  0  0  0
   55.9690   29.5190   43.7810 C   0  0  0  0  0  0  0  0  0  0  0  0
   55.6815   30.4281   43.2325 H   0  0  0  0  0  0  0  0  0  0  0  0
   55.6971   28.6270   43.1976 H   0  0  0  0  0  0  0  0  0  0  0  0
   57.4810   29.5240   44.0100 C   0  0  0  0  0  0  0  0  0  0  0  0
   57.9511   28.7909   43.3380 H   0  0  0  0  0  0  0  0  0  0  0  0
   57.6822   29.2613   45.0591 H   0  0  0  0  0  0  0  0  0  0  0  0
   58.0370   30.8500   43.7400 N   0  0  0  0  0  0  0  0  0  0  0  0
   58.6980   30.9370   42.9380 H   0  0  0  0  0  0  0  0  0  0  0  0
   57.7240   31.9940   44.5540 C   0  0  0  0  0  0  0  0  0  0  0  0
   57.0420   31.8460   45.6050 O   0  0  0  0  0  0  0  0  0  0  0  0
   58.2000   33.3500   44.2170 C   0  0  0  0  0  0  0  0  0  0  0  0
   58.3422   33.6027   43.1559 H   0  0  0  0  0  0  0  0  0  0  0  0
   58.4680   34.2890   45.1330 C   0  0  0  0  0  0  0  0  0  0  0  0
   57.9223   35.2431   45.0899 H   0  0  0  0  0  0  0  0  0  0  0  0
   59.4720   34.0890   46.2010 C   0  0  0  0  0  0  0  0  0  0  0  0
   60.7900   33.9540   45.8960 N   0  0  0  0  0  0  0  0  0  0  0  0
   61.7410   33.7710   46.8480 C   0  0  0  0  0  0  0  0  0  0  0  0
   63.0820   33.6390   46.4690 C   0  0  0  0  0  0  0  0  0  0  0  0
   63.3585   33.6852   45.4053 H   0  0  0  0  0  0  0  0  0  0  0  0
   64.0690   33.4490   47.4370 C   0  0  0  0  0  0  0  0  0  0  0  0
   65.1214   33.3439   47.1347 H   0  0  0  0  0  0  0  0  0  0  0  0
   63.7230   33.3920   48.7890 C   0  0  0  0  0  0  0  0  0  0  0  0
   64.5047   33.2433   49.5485 H   0  0  0  0  0  0  0  0  0  0  0  0
   62.3880   33.5230   49.1810 C   0  0  0  0  0  0  0  0  0  0  0  0
   62.1241   33.4769   50.2479 H   0  0  0  0  0  0  0  0  0  0  0  0
   61.3770   33.7140   48.2160 C   0  0  0  0  0  0  0  0  0  0  0  0
   60.0110   33.8530   48.5610 C   0  0  0  0  0  0  0  0  0  0  0  0
   59.5430   33.8050   49.9930 C   0  0  0  0  0  0  0  0  0  0  0  0
   60.4093   33.8939   50.6650 H   0  0  0  0  0  0  0  0  0  0  0  0
   58.8474   34.6365   50.1795 H   0  0  0  0  0  0  0  0  0  0  0  0
   59.0307   32.8496   50.1795 H   0  0  0  0  0  0  0  0  0  0  0  0
   59.0650   34.0410   47.5400 C   0  0  0  0  0  0  0  0  0  0  0  0
   58.0002   34.1510   47.7932 H   0  0  0  0  0  0  0  0  0  0  0  0
  1  2  1  0
  2  3  1  0
  3  4  1  0
  3  5  1  0
  3  6  1  0
  6  7  1  0
  6  8  1  0
  6  9  1  0
  9 10  1  0
  9 11  1  0
 11 12  2  0
 11 13  1  0
 13 14  1  0
 13 15  2  0
 15 16  1  0
 15 17  1  0
 17 18  2  0
 18 19  1  0
 19 20  2  0
 20 21  1  0
 20 22  1  0
 22 23  1  0
 22 24  2  0
 24 25  1  0
 24 26  1  0
 26 27  1  0
 26 28  2  0
 28 29  1  0
 29 30  1  0
 30 31  1  0
 30 32  1  0
 30 33  1  0
 29 34  2  0
 34 35  1  0
 34 17  1  0
 28 19  1  0
M  END
>  <UniqueID>  (24) 
22

>  <SMILES>  (24) 
Cc1cc(/C=C/C(=O)NCCO)nc2ccccc12

>  <Energy>  (24) 
35.71309308119033

>  <Genealogy>  (24) 
Cc1cc(/C=C/C(=O)NCCO)nc2ccccc12 (cis-trans isomerization)
Cc1cc(/C=C/C(=O)NCCO)nc2ccccc12 (3D coordinates assigned)
Cc1cc(/C=C/C(=O)NCCO)nc2ccccc12 (optimized conformer: 35.71309308119033 kcal/mol)

>  <smiles>  (24) 
Cc1cc(C=CC(=O)NCCO)nc2ccccc12

>  <score_type>  (24) 
oracle

>  <origin>  (24) 
adg

>  <m_score__min__energy>  (24) 
-8.1699999999999999

>  <m_primary>  (24) 
energy

$$$$
24:0
     RDKit          3D

 48 50  0  0  0  0  0  0  0  0999 V2000
   57.9186   35.3307   44.2726 H   0  0  0  0  0  0  0  0  0  0  0  0
   58.0940   34.4110   44.8500 C   0  0  0  0  0  0  0  0  0  0  0  0
   58.2520   34.4780   46.2340 C   0  0  0  0  0  0  0  0  0  0  0  0
   58.1882   35.4484   46.7481 H   0  0  0  0  0  0  0  0  0  0  0  0
   58.4910   33.3150   46.9670 C   0  0  0  0  0  0  0  0  0  0  0  0
   58.6067   33.3725   48.0594 H   0  0  0  0  0  0  0  0  0  0  0  0
   58.5850   32.0720   46.3210 C   0  0  0  0  0  0  0  0  0  0  0  0
   58.8240   30.8940   47.1110 N   0  0  0  0  0  0  0  0  0  0  0  0
   58.8280   29.9670   46.6270 H   0  0  0  0  0  0  0  0  0  0  0  0
   58.8890   30.9030   48.5440 C   0  0  0  0  0  0  0  0  0  0  0  0
   58.5160   31.9170   49.1960 O   0  0  0  0  0  0  0  0  0  0  0  0
   59.3160   29.6730   49.2790 C   0  0  0  0  0  0  0  0  0  0  0  0
   59.2535   29.8530   50.3624 H   0  0  0  0  0  0  0  0  0  0  0  0
   58.6558   28.8360   49.0077 H   0  0  0  0  0  0  0  0  0  0  0  0
   60.3528   29.4251   49.0077 H   0  0  0  0  0  0  0  0  0  0  0  0
   58.3830   31.9920   44.9260 C   0  0  0  0  0  0  0  0  0  0  0  0
   58.3850   30.7290   44.3080 O   0  0  0  0  0  0  0  0  0  0  0  0
   57.2540   30.0900   43.7140 C   0  0  0  0  0  0  0  0  0  0  0  0
   56.6613   30.8400   43.1698 H   0  0  0  0  0  0  0  0  0  0  0  0
   57.6123   29.3102   43.0259 H   0  0  0  0  0  0  0  0  0  0  0  0
   56.3930   29.4480   44.7580 C   0  0  0  0  0  0  0  0  0  0  0  0
   55.1490   29.3660   44.5730 O   0  0  0  0  0  0  0  0  0  0  0  0
   56.9980   28.9910   45.9780 N   0  0  0  0  0  0  0  0  0  0  0  0
   57.7130   27.9160   46.1390 C   0  0  0  0  0  0  0  0  0  0  0  0
   57.3200   26.7650   45.5370 N   0  0  0  0  0  0  0  0  0  0  0  0
   58.0400   25.6210   45.6880 C   0  0  0  0  0  0  0  0  0  0  0  0
   57.6040   24.3660   45.0270 C   0  0  0  0  0  0  0  0  0  0  0  0
   58.1150   23.1230   45.4430 C   0  0  0  0  0  0  0  0  0  0  0  0
   58.8400   23.0797   46.2691 H   0  0  0  0  0  0  0  0  0  0  0  0
   57.7080   21.9420   44.8140 C   0  0  0  0  0  0  0  0  0  0  0  0
   58.1164   20.9765   45.1472 H   0  0  0  0  0  0  0  0  0  0  0  0
   56.7840   21.9810   43.7630 C   0  0  0  0  0  0  0  0  0  0  0  0
   56.3810   20.7730   43.1100 N   0  0  0  0  0  0  0  0  0  0  0  0
   56.9660   19.9100   43.1800 H   0  0  0  0  0  0  0  0  0  0  0  0
   55.5240   20.7460   42.5130 H   0  0  0  0  0  0  0  0  0  0  0  0
   56.2680   23.2130   43.3450 C   0  0  0  0  0  0  0  0  0  0  0  0
   55.5403   23.2502   42.5209 H   0  0  0  0  0  0  0  0  0  0  0  0
   56.6730   24.3980   43.9700 C   0  0  0  0  0  0  0  0  0  0  0  0
   56.2615   25.3611   43.6336 H   0  0  0  0  0  0  0  0  0  0  0  0
   59.1620   25.6400   46.4560 N   0  0  0  0  0  0  0  0  0  0  0  0
   59.5680   26.7880   47.0550 C   0  0  0  0  0  0  0  0  0  0  0  0
   60.7720   26.7890   47.9360 C   0  0  0  0  0  0  0  0  0  0  0  0
   60.4555   26.7887   48.9895 H   0  0  0  0  0  0  0  0  0  0  0  0
   61.3749   25.8914   47.7340 H   0  0  0  0  0  0  0  0  0  0  0  0
   61.3734   27.6876   47.7340 H   0  0  0  0  0  0  0  0  0  0  0  0
   58.8370   27.9210   46.9030 N   0  0  0  0  0  0  0  0  0  0  0  0
   58.1580   33.1780   44.1950 C   0  0  0  0  0  0  0  0  0  0  0  0
   58.0322   33.1317   43.1032 H   0  0  0  0  0  0  0  0  0  0  0  0
  1  2  1  0
  2  3  2  0
  3  4  1  0
  3  5  1  0
  5  6  1  0
  5  7  2  0
  7  8  1  0
  8  9  1  0
  8 10  1  0
 10 11  2  0
 10 12  1  0
 12 13  1  0
 12 14  1  0
 12 15  1  0
  7 16  1  0
 16 17  1  0
 17 18  1  0
 18 19  1  0
 18 20  1  0
 18 21  1  0
 21 22  2  0
 21 23  1  0
 23 24  2  0
 24 25  1  0
 25 26  2  0
 26 27  1  0
 27 28  2  0
 28 29  1  0
 28 30  1  0
 30 31  1  0
 30 32  2  0
 32 33  1  0
 33 34  1  0
 33 35  1  0
 32 36  1  0
 36 37  1  0
 36 38  2  0
 38 39  1  0
 26 40  1  0
 40 41  1  0
 41 42  1  0
 42 43  1  0
 42 44  1  0
 42 45  1  0
 41 46  2  0
 16 47  2  0
 47 48  1  0
 47  2  1  0
 46 24  1  0
 38 27  1  0
M  CHG  1  40  -1
M  END
>  <UniqueID>  (25) 
23

>  <SMILES>  (25) 
CC(=O)Nc1ccccc1OCC(=O)/N=c1\nc(C)[n-]c(-c2ccc(N)cc2)n1

>  <Energy>  (25) 
54.61186487888249

>  <Genealogy>  (25) 
CC(=O)Nc1ccccc1OCC(=O)N=c1nc(C)[n-]c(-c2ccc(N)cc2)n1 (protonated)
CC(=O)Nc1ccccc1OCC(=O)/N=c1\nc(C)[n-]c(-c2ccc(N)cc2)n1 (cis-trans isomerization)
CC(=O)Nc1ccccc1OCC(=O)/N=c1\nc(C)[n-]c(-c2ccc(N)cc2)n1 (3D coordinates assigned)
CC(=O)Nc1ccccc1OCC(=O)/N=c1\nc(C)[n-]c(-c2ccc(N)cc2)n1 (optimized conformer: 54.61186487888249 kcal/mol)

>  <smiles>  (25) 
CC(=O)Nc1ccccc1OCC(=O)N=c1nc(C)[nH]c(-c2ccc(N)cc2)n1

>  <score_type>  (25) 
oracle

>  <origin>  (25) 
adg

>  <m_score__min__energy>  (25) 
-9.0199999999999996

>  <m_primary>  (25) 
energy

$$$$
25:0
     RDKit          3D

 40 41  0  0  0  0  0  0  0  0999 V2000
   55.1420   29.3140   44.8320 N   0  0  0  0  0  0  0  0  0  0  0  0
   56.5910   30.1080   44.3300 S   0  0  0  0  0  0  0  0  0  0  0  0
   56.6760   30.0750   42.8290 O   0  0  0  0  0  0  0  0  0  0  0  0
   56.5660   31.5420   44.7810 O   0  0  0  0  0  0  0  0  0  0  0  0
   57.9830   29.2930   45.0360 C   0  0  0  0  0  0  0  0  0  0  0  0
   58.2750   27.9630   44.7050 C   0  0  0  0  0  0  0  0  0  0  0  0
   59.3900   27.3310   45.2620 C   0  0  0  0  0  0  0  0  0  0  0  0
   60.2090   28.0180   46.1620 C   0  0  0  0  0  0  0  0  0  0  0  0
   59.9130   29.3390   46.5250 C   0  0  0  0  0  0  0  0  0  0  0  0
   60.7780   30.0290   47.4430 N   0  0  0  0  0  0  0  0  0  0  0  0
   60.3900   30.4270   48.7670 C   0  0  0  0  0  0  0  0  0  0  0  0
   59.3040   30.0260   49.2670 O   0  0  0  0  0  0  0  0  0  0  0  0
   61.3190   31.2530   49.6020 C   0  0  0  0  0  0  0  0  0  0  0  0
   62.6110   31.3140   48.9990 O   0  0  0  0  0  0  0  0  0  0  0  0
   62.8800   32.0270   47.8250 C   0  0  0  0  0  0  0  0  0  0  0  0
   63.4860   31.4710   46.8680 O   0  0  0  0  0  0  0  0  0  0  0  0
   62.5310   33.4560   47.7050 C   0  0  0  0  0  0  0  0  0  0  0  0
   61.3560   34.0050   48.0480 C   0  0  0  0  0  0  0  0  0  0  0  0
   60.1180   33.9430   47.2470 C   0  0  0  0  0  0  0  0  0  0  0  0
   58.9650   33.3700   47.8080 C   0  0  0  0  0  0  0  0  0  0  0  0
   57.7660   33.3520   47.0900 C   0  0  0  0  0  0  0  0  0  0  0  0
   57.7020   33.9280   45.8190 C   0  0  0  0  0  0  0  0  0  0  0  0
   58.8350   34.5300   45.2660 C   0  0  0  0  0  0  0  0  0  0  0  0
   60.0390   34.5440   45.9770 C   0  0  0  0  0  0  0  0  0  0  0  0
   58.8040   29.9790   45.9410 C   0  0  0  0  0  0  0  0  0  0  0  0
   55.3990   28.6780   45.6210 H   0  0  0  0  0  0  0  0  0  0  0  0
   57.6257   27.4157   44.0058 H   0  0  0  0  0  0  0  0  0  0  0  0
   59.6234   26.2907   44.9914 H   0  0  0  0  0  0  0  0  0  0  0  0
   61.0917   27.5188   46.5883 H   0  0  0  0  0  0  0  0  0  0  0  0
   61.7750   30.1700   47.1670 H   0  0  0  0  0  0  0  0  0  0  0  0
   60.9140   32.2716   49.6945 H   0  0  0  0  0  0  0  0  0  0  0  0
   61.4112   30.7904   50.5957 H   0  0  0  0  0  0  0  0  0  0  0  0
   63.3008   34.1290   47.2993 H   0  0  0  0  0  0  0  0  0  0  0  0
   61.3116   34.5458   49.0049 H   0  0  0  0  0  0  0  0  0  0  0  0
   59.0058   32.9335   48.8169 H   0  0  0  0  0  0  0  0  0  0  0  0
   56.8715   32.8836   47.5264 H   0  0  0  0  0  0  0  0  0  0  0  0
   56.7589   33.9076   45.2532 H   0  0  0  0  0  0  0  0  0  0  0  0
   58.7799   34.9936   44.2700 H   0  0  0  0  0  0  0  0  0  0  0  0
   60.9270   35.0262   45.5423 H   0  0  0  0  0  0  0  0  0  0  0  0
   58.5801   31.0252   46.1968 H   0  0  0  0  0  0  0  0  0  0  0  0
  1  2  1  0
  2  3  2  0
  2  4  2  0
  2  5  1  0
  5  6  2  0
  6  7  1  0
  7  8  2  0
  8  9  1  0
  9 10  1  0
 10 11  1  0
 11 12  2  0
 11 13  1  0
 13 14  1  0
 14 15  1  0
 15 16  2  0
 15 17  1  0
 17 18  2  3
 18 19  1  0
 19 20  2  0
 20 21  1  0
 21 22  2  0
 22 23  1  0
 23 24  2  0
  9 25  2  0
 25  5  1  0
 24 19  1  0
  1 26  1  0
  6 27  1  0
  7 28  1  0
  8 29  1  0
 10 30  1  0
 13 31  1  0
 13 32  1  0
 17 33  1  0
 18 34  1  0
 20 35  1  0
 21 36  1  0
 22 37  1  0
 23 38  1  0
 24 39  1  0
 25 40  1  0
M  CHG  1   1  -1
M  END
>  <UniqueID>  (26) 
24

>  <SMILES>  (26) 
[NH-]S(=O)(=O)c1cccc(NC(=O)COC(=O)C=Cc2ccccc2)c1

>  <Energy>  (26) 
45.998325780254845

>  <Genealogy>  (26) 
[NH-]S(=O)(=O)c1cccc(NC(=O)COC(=O)C=Cc2ccccc2)c1 (protonated)
[NH-]S(=O)(=O)c1cccc(NC(=O)COC(=O)C=Cc2ccccc2)c1 (3D coordinates assigned)
[NH-]S(=O)(=O)c1cccc(NC(=O)COC(=O)C=Cc2ccccc2)c1 (optimized conformer: 45.998325780254845 kcal/mol)

>  <smiles>  (26) 
NS(=O)(=O)c1cccc(NC(=O)COC(=O)C=Cc2ccccc2)c1

>  <score_type>  (26) 
oracle

>  <origin>  (26) 
adg

>  <m_score__min__energy>  (26) 
-11.17

>  <m_primary>  (26) 
energy

$$$$
26:0
     RDKit          3D

 45 48  0  0  0  0  0  0  0  0999 V2000
   55.9750   30.5060   44.5430 O   0  0  0  0  0  0  0  0  0  0  0  0
   57.0770   29.9720   44.8440 C   0  0  0  0  0  0  0  0  0  0  0  0
   57.2670   28.5230   44.6020 C   0  0  0  0  0  0  0  0  0  0  0  0
   57.7820   28.0770   43.3720 C   0  0  0  0  0  0  0  0  0  0  0  0
   57.9830   26.7120   43.1430 C   0  0  0  0  0  0  0  0  0  0  0  0
   57.6630   25.7810   44.1340 C   0  0  0  0  0  0  0  0  0  0  0  0
   57.1330   26.2120   45.3520 C   0  0  0  0  0  0  0  0  0  0  0  0
   56.9270   27.5740   45.5850 C   0  0  0  0  0  0  0  0  0  0  0  0
   58.1280   30.8140   45.4510 C   0  0  0  0  0  0  0  0  0  0  0  0
   58.1930   32.1940   45.3780 C   0  0  0  0  0  0  0  0  0  0  0  0
   59.2420   32.6100   46.1130 N   0  0  0  0  0  0  0  0  0  0  0  0
   59.6060   33.9970   46.3810 C   0  0  0  0  0  0  0  0  0  0  0  0
   60.9070   34.0430   47.1320 C   0  0  0  0  0  0  0  0  0  0  0  0
   60.9150   34.2200   48.5250 C   0  0  0  0  0  0  0  0  0  0  0  0
   62.1240   34.2180   49.2280 C   0  0  0  0  0  0  0  0  0  0  0  0
   63.3300   34.0260   48.5480 C   0  0  0  0  0  0  0  0  0  0  0  0
   63.3280   33.8330   47.1630 C   0  0  0  0  0  0  0  0  0  0  0  0
   62.1210   33.8360   46.4570 C   0  0  0  0  0  0  0  0  0  0  0  0
   59.8440   31.5630   46.6540 N   0  0  0  0  0  0  0  0  0  0  0  0
   59.2050   30.4450   46.2580 C   0  0  0  0  0  0  0  0  0  0  0  0
   59.6460   29.0810   46.6160 C   0  0  0  0  0  0  0  0  0  0  0  0
   60.3200   28.2910   45.6700 C   0  0  0  0  0  0  0  0  0  0  0  0
   60.7570   27.0060   46.0050 C   0  0  0  0  0  0  0  0  0  0  0  0
   60.5170   26.4970   47.2840 C   0  0  0  0  0  0  0  0  0  0  0  0
   59.8300   27.2670   48.2260 C   0  0  0  0  0  0  0  0  0  0  0  0
   59.3900   28.5520   47.8920 C   0  0  0  0  0  0  0  0  0  0  0  0
   58.0282   28.8056   42.5856 H   0  0  0  0  0  0  0  0  0  0  0  0
   58.3937   26.3711   42.1812 H   0  0  0  0  0  0  0  0  0  0  0  0
   57.8285   24.7084   43.9550 H   0  0  0  0  0  0  0  0  0  0  0  0
   56.8771   25.4774   46.1297 H   0  0  0  0  0  0  0  0  0  0  0  0
   56.4970   27.9067   46.5413 H   0  0  0  0  0  0  0  0  0  0  0  0
   57.5047   32.8416   44.8151 H   0  0  0  0  0  0  0  0  0  0  0  0
   59.7141   34.5372   45.4289 H   0  0  0  0  0  0  0  0  0  0  0  0
   58.8188   34.4698   46.9866 H   0  0  0  0  0  0  0  0  0  0  0  0
   59.9671   34.3607   49.0651 H   0  0  0  0  0  0  0  0  0  0  0  0
   62.1258   34.3678   50.3178 H   0  0  0  0  0  0  0  0  0  0  0  0
   64.2803   34.0267   49.1021 H   0  0  0  0  0  0  0  0  0  0  0  0
   64.2769   33.6787   46.6284 H   0  0  0  0  0  0  0  0  0  0  0  0
   62.1224   33.6756   45.3688 H   0  0  0  0  0  0  0  0  0  0  0  0
   60.6850   31.6130   47.2710 H   0  0  0  0  0  0  0  0  0  0  0  0
   60.5050   28.6857   44.6600 H   0  0  0  0  0  0  0  0  0  0  0  0
   61.2900   26.3953   45.2614 H   0  0  0  0  0  0  0  0  0  0  0  0
   60.8692   25.4893   47.5495 H   0  0  0  0  0  0  0  0  0  0  0  0
   59.6352   26.8626   49.2303 H   0  0  0  0  0  0  0  0  0  0  0  0
   58.8405   29.1517   48.6325 H   0  0  0  0  0  0  0  0  0  0  0  0
  1  2  2  0
  2  3  1  0
  3  4  2  0
  4  5  1  0
  5  6  2  0
  6  7  1  0
  7  8  2  0
  2  9  1  0
  9 10  2  0
 10 11  1  0
 11 12  1  0
 12 13  1  0
 13 14  2  0
 14 15  1  0
 15 16  2  0
 16 17  1  0
 17 18  2  0
 11 19  1  0
 19 20  2  0
 20 21  1  0
 21 22  2  0
 22 23  1  0
 23 24  2  0
 24 25  1  0
 25 26  2  0
  8  3  1  0
 20  9  1  0
 26 21  1  0
 18 13  1  0
  4 27  1  0
  5 28  1  0
  6 29  1  0
  7 30  1  0
  8 31  1  0
 10 32  1  0
 12 33  1  0
 12 34  1  0
 14 35  1  0
 15 36  1  0
 16 37  1  0
 17 38  1  0
 18 39  1  0
 19 40  1  0
 22 41  1  0
 23 42  1  0
 24 43  1  0
 25 44  1  0
 26 45  1  0
M  CHG  1  19   1
M  END
>  <UniqueID>  (27) 
25

>  <SMILES>  (27) 
O=C(c1ccccc1)c1cn(Cc2ccccc2)[nH+]c1-c1ccccc1

>  <Energy>  (27) 
86.4383331058815

>  <Genealogy>  (27) 
O=C(c1ccccc1)c1cn(Cc2ccccc2)[nH+]c1-c1ccccc1 (protonated)
O=C(c1ccccc1)c1cn(Cc2ccccc2)[nH+]c1-c1ccccc1 (3D coordinates assigned)
O=C(c1ccccc1)c1cn(Cc2ccccc2)[nH+]c1-c1ccccc1 (optimized conformer: 86.4383331058815 kcal/mol)

>  <smiles>  (27) 
O=C(c1ccccc1)c1cn(Cc2ccccc2)nc1-c1ccccc1

>  <score_type>  (27) 
oracle

>  <origin>  (27) 
adg

>  <m_score__min__energy>  (27) 
-7.1900000000000004

>  <m_primary>  (27) 
energy

$$$$
27:0
     RDKit          3D

 50 52  0  0  0  0  0  0  0  0999 V2000
   61.0140   34.5600   48.7440 C   0  0  0  0  0  0  0  0  0  0  0  0
   61.2300   34.5230   47.2970 N   0  0  0  0  0  0  0  0  0  0  0  0
   62.4070   33.8330   46.7510 C   0  0  0  0  0  0  0  0  0  0  0  0
   63.1730   33.1890   47.8630 C   0  0  0  0  0  0  0  0  0  0  0  0
   64.0900   33.8360   48.4330 O   0  0  0  0  0  0  0  0  0  0  0  0
   62.7450   31.9110   48.3550 N   0  0  0  0  0  0  0  0  0  0  0  0
   61.6490   31.6230   49.2350 C   0  0  0  0  0  0  0  0  0  0  0  0
   60.5700   30.8890   48.7280 C   0  0  0  0  0  0  0  0  0  0  0  0
   59.4590   30.6120   49.5280 C   0  0  0  0  0  0  0  0  0  0  0  0
   59.4200   31.0510   50.8560 C   0  0  0  0  0  0  0  0  0  0  0  0
   57.9990   30.7320   51.8460 S   0  0  0  0  0  0  0  0  0  0  0  0
   56.8330   31.9840   51.6040 N   0  0  0  0  0  0  0  0  0  0  0  0
   58.3830   30.6860   53.2980 O   0  0  0  0  0  0  0  0  0  0  0  0
   57.4040   29.4070   51.4650 O   0  0  0  0  0  0  0  0  0  0  0  0
   60.5080   31.7610   51.3810 C   0  0  0  0  0  0  0  0  0  0  0  0
   61.6220   32.0370   50.5800 C   0  0  0  0  0  0  0  0  0  0  0  0
   60.1510   34.9120   46.4250 C   0  0  0  0  0  0  0  0  0  0  0  0
   60.0120   36.1280   46.1100 O   0  0  0  0  0  0  0  0  0  0  0  0
   59.1790   33.9260   45.9130 C   0  0  0  0  0  0  0  0  0  0  0  0
   58.4890   34.1630   44.7140 C   0  0  0  0  0  0  0  0  0  0  0  0
   57.5470   33.2430   44.2470 C   0  0  0  0  0  0  0  0  0  0  0  0
   57.2780   32.0730   44.9750 C   0  0  0  0  0  0  0  0  0  0  0  0
   56.3010   31.1150   44.5500 N   0  0  0  0  0  0  0  0  0  0  0  0
   56.6050   29.4290   44.2600 S   0  0  0  0  0  0  0  0  0  0  0  0
   55.5270   28.6140   44.9130 O   0  0  0  0  0  0  0  0  0  0  0  0
   56.5800   29.1570   42.7810 O   0  0  0  0  0  0  0  0  0  0  0  0
   58.1550   28.9740   44.9440 C   0  0  0  0  0  0  0  0  0  0  0  0
   59.4010   29.3600   44.4760 C   0  0  0  0  0  0  0  0  0  0  0  0
   60.4560   28.8470   45.2420 C   0  0  0  0  0  0  0  0  0  0  0  0
   60.0380   28.0610   46.3090 C   0  0  0  0  0  0  0  0  0  0  0  0
   58.3560   28.0070   46.2990 S   0  0  0  0  0  0  0  0  0  0  0  0
   57.9750   31.8360   46.1660 C   0  0  0  0  0  0  0  0  0  0  0  0
   58.9110   32.7580   46.6390 C   0  0  0  0  0  0  0  0  0  0  0  0
   61.9706   34.3961   49.2618 H   0  0  0  0  0  0  0  0  0  0  0  0
   60.6062   35.5411   49.0289 H   0  0  0  0  0  0  0  0  0  0  0  0
   60.3029   33.7706   49.0289 H   0  0  0  0  0  0  0  0  0  0  0  0
   62.0809   33.0623   46.0370 H   0  0  0  0  0  0  0  0  0  0  0  0
   63.0518   34.5617   46.2379 H   0  0  0  0  0  0  0  0  0  0  0  0
   60.5974   30.5270   47.6897 H   0  0  0  0  0  0  0  0  0  0  0  0
   58.6117   30.0467   49.1125 H   0  0  0  0  0  0  0  0  0  0  0  0
   56.5740   31.9670   50.5890 H   0  0  0  0  0  0  0  0  0  0  0  0
   60.4865   32.1026   52.4264 H   0  0  0  0  0  0  0  0  0  0  0  0
   62.4800   32.5797   51.0033 H   0  0  0  0  0  0  0  0  0  0  0  0
   58.6911   35.0785   44.1386 H   0  0  0  0  0  0  0  0  0  0  0  0
   57.0136   33.4362   43.3046 H   0  0  0  0  0  0  0  0  0  0  0  0
   59.5465   30.0023   43.5949 H   0  0  0  0  0  0  0  0  0  0  0  0
   61.5145   29.0474   45.0199 H   0  0  0  0  0  0  0  0  0  0  0  0
   60.6942   27.5599   47.0358 H   0  0  0  0  0  0  0  0  0  0  0  0
   57.7833   30.9142   46.7348 H   0  0  0  0  0  0  0  0  0  0  0  0
   59.4396   32.5667   47.5845 H   0  0  0  0  0  0  0  0  0  0  0  0
  1  2  1  0
  2  3  1  0
  3  4  1  0
  4  5  2  0
  4  6  1  0
  6  7  1  0
  7  8  2  0
  8  9  1  0
  9 10  2  0
 10 11  1  0
 11 12  1  0
 11 13  2  0
 11 14  2  0
 10 15  1  0
 15 16  2  0
  2 17  1  0
 17 18  2  0
 17 19  1  0
 19 20  2  0
 20 21  1  0
 21 22  2  0
 22 23  1  0
 23 24  1  0
 24 25  2  0
 24 26  2  0
 24 27  1  0
 27 28  2  0
 28 29  1  0
 29 30  2  0
 30 31  1  0
 22 32  1  0
 32 33  2  0
 16  7  1  0
 33 19  1  0
 31 27  1  0
  1 34  1  0
  1 35  1  0
  1 36  1  0
  3 37  1  0
  3 38  1  0
  8 39  1  0
  9 40  1  0
 12 41  1  0
 15 42  1  0
 16 43  1  0
 20 44  1  0
 21 45  1  0
 28 46  1  0
 29 47  1  0
 30 48  1  0
 32 49  1  0
 33 50  1  0
M  CHG  3   6  -1  12  -1  23  -1
M  END
>  <UniqueID>  (28) 
26

>  <SMILES>  (28) 
CN(CC(=O)[N-]c1ccc(S([NH-])(=O)=O)cc1)C(=O)c1ccc([N-]S(=O)(=O)c2cccs2)cc1

>  <Energy>  (28) 
86.86479240927201

>  <Genealogy>  (28) 
CN(CC(=O)[N-]c1ccc(S([NH-])(=O)=O)cc1)C(=O)c1ccc([N-]S(=O)(=O)c2cccs2)cc1 (protonated)
CN(CC(=O)[N-]c1ccc(S([NH-])(=O)=O)cc1)C(=O)c1ccc([N-]S(=O)(=O)c2cccs2)cc1 (3D coordinates assigned)
CN(CC(=O)[N-]c1ccc(S([NH-])(=O)=O)cc1)C(=O)c1ccc([N-]S(=O)(=O)c2cccs2)cc1 (optimized conformer: 86.86479240927201 kcal/mol)

>  <smiles>  (28) 
CN(CC(=O)Nc1ccc(S(N)(=O)=O)cc1)C(=O)c1ccc(NS(=O)(=O)c2cccs2)cc1

>  <score_type>  (28) 
oracle

>  <origin>  (28) 
adg

>  <m_score__min__energy>  (28) 
-13.41

>  <m_primary>  (28) 
energy

$$$$
28:0
     RDKit          3D

 36 37  0  0  0  0  0  0  0  0999 V2000
   62.8240   32.0740   47.1550 O   0  0  0  0  0  0  0  0  0  0  0  0
   62.7400   33.3130   47.3570 C   0  0  0  0  0  0  0  0  0  0  0  0
   63.2220   34.1980   46.4010 O   0  0  0  0  0  0  0  0  0  0  0  0
   62.0820   33.8370   48.5980 C   0  0  0  0  0  0  0  0  0  0  0  0
   60.5670   34.0480   48.4250 C   0  0  0  0  0  0  0  0  0  0  0  0
   60.1060   34.0290   46.9600 C   0  0  0  0  0  0  0  0  0  0  0  0
   59.3550   32.7750   46.6140 C   0  0  0  0  0  0  0  0  0  0  0  0
   59.1740   31.6710   47.4390 C   0  0  0  0  0  0  0  0  0  0  0  0
   58.4310   30.7310   46.8130 N   0  0  0  0  0  0  0  0  0  0  0  0
   58.1310   31.2320   45.5990 C   0  0  0  0  0  0  0  0  0  0  0  0
   57.3860   30.6220   44.5750 C   0  0  0  0  0  0  0  0  0  0  0  0
   56.7740   29.2870   44.7470 C   0  0  0  0  0  0  0  0  0  0  0  0
   55.5230   29.1880   44.8710 O   0  0  0  0  0  0  0  0  0  0  0  0
   57.6140   28.0460   44.8510 C   0  0  0  0  0  0  0  0  0  0  0  0
   57.4030   27.3990   46.1890 C   0  0  0  0  0  0  0  0  0  0  0  0
   58.2130   27.6410   47.1240 O   0  0  0  0  0  0  0  0  0  0  0  0
   56.2980   26.4550   46.4190 C   0  0  0  0  0  0  0  0  0  0  0  0
   55.1410   26.7020   45.9850 O   0  0  0  0  0  0  0  0  0  0  0  0
   56.5260   25.2770   47.1190 O   0  0  0  0  0  0  0  0  0  0  0  0
   57.2290   31.3470   43.3710 C   0  0  0  0  0  0  0  0  0  0  0  0
   57.8020   32.6270   43.2190 C   0  0  0  0  0  0  0  0  0  0  0  0
   58.5410   33.2070   44.2610 C   0  0  0  0  0  0  0  0  0  0  0  0
   58.6890   32.4780   45.4400 C   0  0  0  0  0  0  0  0  0  0  0  0
   62.2459   33.1173   49.4136 H   0  0  0  0  0  0  0  0  0  0  0  0
   62.5297   34.8163   48.8225 H   0  0  0  0  0  0  0  0  0  0  0  0
   60.0406   33.2475   48.9655 H   0  0  0  0  0  0  0  0  0  0  0  0
   60.3331   35.0463   48.8234 H   0  0  0  0  0  0  0  0  0  0  0  0
   59.4495   34.8940   46.7847 H   0  0  0  0  0  0  0  0  0  0  0  0
   61.0031   34.0696   46.3248 H   0  0  0  0  0  0  0  0  0  0  0  0
   59.5783   31.5757   48.4576 H   0  0  0  0  0  0  0  0  0  0  0  0
   58.1640   29.8010   47.2060 H   0  0  0  0  0  0  0  0  0  0  0  0
   57.3260   27.3426   44.0559 H   0  0  0  0  0  0  0  0  0  0  0  0
   58.6748   28.3156   44.7415 H   0  0  0  0  0  0  0  0  0  0  0  0
   56.6532   30.9076   42.5431 H   0  0  0  0  0  0  0  0  0  0  0  0
   57.6682   33.1754   42.2749 H   0  0  0  0  0  0  0  0  0  0  0  0
   58.9895   34.2054   44.1512 H   0  0  0  0  0  0  0  0  0  0  0  0
  1  2  2  0
  2  3  1  0
  2  4  1  0
  4  5  1  0
  5  6  1  0
  6  7  1  0
  7  8  2  0
  8  9  1  0
  9 10  1  0
 10 11  2  0
 11 12  1  0
 12 13  2  0
 12 14  1  0
 14 15  1  0
 15 16  2  0
 15 17  1  0
 17 18  2  0
 17 19  1  0
 11 20  1  0
 20 21  2  0
 21 22  1  0
 22 23  2  0
 23  7  1  0
 23 10  1  0
  4 24  1  0
  4 25  1  0
  5 26  1  0
  5 27  1  0
  6 28  1  0
  6 29  1  0
  8 30  1  0
  9 31  1  0
 14 32  1  0
 14 33  1  0
 20 34  1  0
 21 35  1  0
 22 36  1  0
M  CHG  2   3  -1  19  -1
M  END
>  <UniqueID>  (29) 
27

>  <SMILES>  (29) 
O=C([O-])CCCc1c[nH]c2c(C(=O)CC(=O)C(=O)[O-])cccc12

>  <Energy>  (29) 
65.47164983841563

>  <Genealogy>  (29) 
O=C([O-])CCCc1c[nH]c2c(C(=O)CC(=O)C(=O)[O-])cccc12 (protonated)
O=C([O-])CCCc1c[nH]c2c(C(=O)CC(=O)C(=O)[O-])cccc12 (3D coordinates assigned)
O=C([O-])CCCc1c[nH]c2c(C(=O)CC(=O)C(=O)[O-])cccc12 (optimized conformer: 65.47164983841563 kcal/mol)

>  <smiles>  (29) 
O=C(O)CCCc1c[nH]c2c(C(=O)CC(=O)C(=O)O)cccc12

>  <score_type>  (29) 
oracle

>  <origin>  (29) 
adg

>  <m_score__min__energy>  (29) 
-11.32

>  <m_primary>  (29) 
energy

$$$$
29:0
     RDKit          3D

 48 50  0  0  0  0  0  0  0  0999 V2000
   56.2550   20.3420   43.5900 N   0  0  0  0  0  0  0  0  0  0  0  0
   56.5940   21.7010   43.8780 C   0  0  0  0  0  0  0  0  0  0  0  0
   56.3060   22.7110   42.9510 C   0  0  0  0  0  0  0  0  0  0  0  0
   56.6350   24.0410   43.2330 C   0  0  0  0  0  0  0  0  0  0  0  0
   57.2690   24.3770   44.4390 C   0  0  0  0  0  0  0  0  0  0  0  0
   57.5790   25.7540   44.7150 N   0  0  0  0  0  0  0  0  0  0  0  0
   58.6560   26.1750   45.5690 C   0  0  0  0  0  0  0  0  0  0  0  0
   59.6240   25.3950   45.7840 O   0  0  0  0  0  0  0  0  0  0  0  0
   58.6700   27.5360   46.1610 C   0  0  0  0  0  0  0  0  0  0  0  0
   59.3850   27.8000   47.3390 C   0  0  0  0  0  0  0  0  0  0  0  0
   59.4020   29.0820   47.8860 C   0  0  0  0  0  0  0  0  0  0  0  0
   58.7090   30.1340   47.2620 C   0  0  0  0  0  0  0  0  0  0  0  0
   58.7040   31.4420   47.7790 O   0  0  0  0  0  0  0  0  0  0  0  0
   59.2320   32.5950   47.1230 C   0  0  0  0  0  0  0  0  0  0  0  0
   60.6280   32.8900   47.6030 C   0  0  0  0  0  0  0  0  0  0  0  0
   60.8630   33.9250   48.5250 C   0  0  0  0  0  0  0  0  0  0  0  0
   62.1640   34.1990   48.9590 C   0  0  0  0  0  0  0  0  0  0  0  0
   63.2380   33.4510   48.4700 C   0  0  0  0  0  0  0  0  0  0  0  0
   63.0140   32.4280   47.5440 C   0  0  0  0  0  0  0  0  0  0  0  0
   61.7160   32.1500   47.1070 C   0  0  0  0  0  0  0  0  0  0  0  0
   57.9930   29.8870   46.0820 C   0  0  0  0  0  0  0  0  0  0  0  0
   57.3110   30.9610   45.4830 O   0  0  0  0  0  0  0  0  0  0  0  0
   56.8550   31.0050   44.1310 C   0  0  0  0  0  0  0  0  0  0  0  0
   55.9070   29.8810   43.8550 C   0  0  0  0  0  0  0  0  0  0  0  0
   55.8170   29.4000   42.6950 O   0  0  0  0  0  0  0  0  0  0  0  0
   55.1410   29.3450   44.8830 O   0  0  0  0  0  0  0  0  0  0  0  0
   57.9830   28.5890   45.5320 C   0  0  0  0  0  0  0  0  0  0  0  0
   57.5380   23.3620   45.3760 C   0  0  0  0  0  0  0  0  0  0  0  0
   57.2070   22.0340   45.0930 C   0  0  0  0  0  0  0  0  0  0  0  0
   56.9800   19.5910   43.6270 H   0  0  0  0  0  0  0  0  0  0  0  0
   55.2760   20.0770   43.3390 H   0  0  0  0  0  0  0  0  0  0  0  0
   55.8193   22.4572   41.9977 H   0  0  0  0  0  0  0  0  0  0  0  0
   56.3950   24.8292   42.5042 H   0  0  0  0  0  0  0  0  0  0  0  0
   57.0650   26.4870   44.1770 H   0  0  0  0  0  0  0  0  0  0  0  0
   59.9370   26.9882   47.8352 H   0  0  0  0  0  0  0  0  0  0  0  0
   59.9622   29.2721   48.8134 H   0  0  0  0  0  0  0  0  0  0  0  0
   59.2542   32.4144   46.0382 H   0  0  0  0  0  0  0  0  0  0  0  0
   58.5897   33.4576   47.3542 H   0  0  0  0  0  0  0  0  0  0  0  0
   60.0209   34.5212   48.9063 H   0  0  0  0  0  0  0  0  0  0  0  0
   62.3420   35.0047   49.6865 H   0  0  0  0  0  0  0  0  0  0  0  0
   64.2603   33.6672   48.8138 H   0  0  0  0  0  0  0  0  0  0  0  0
   63.8607   31.8409   47.1587 H   0  0  0  0  0  0  0  0  0  0  0  0
   61.5448   31.3494   46.3723 H   0  0  0  0  0  0  0  0  0  0  0  0
   56.3418   31.9617   43.9541 H   0  0  0  0  0  0  0  0  0  0  0  0
   57.7228   30.9076   43.4621 H   0  0  0  0  0  0  0  0  0  0  0  0
   57.4312   28.3979   44.5998 H   0  0  0  0  0  0  0  0  0  0  0  0
   58.0113   23.6152   46.3362 H   0  0  0  0  0  0  0  0  0  0  0  0
   57.4289   21.2462   45.8279 H   0  0  0  0  0  0  0  0  0  0  0  0
  1  2  1  0
  2  3  2  0
  3  4  1  0
  4  5  2  0
  5  6  1  0
  6  7  1  0
  7  8  2  0
  7  9  1  0
  9 10  2  0
 10 11  1  0
 11 12  2  0
 12 13  1  0
 13 14  1  0
 14 15  1  0
 15 16  2  0
 16 17  1  0
 17 18  2  0
 18 19  1  0
 19 20  2  0
 12 21  1  0
 21 22  1  0
 22 23  1  0
 23 24  1  0
 24 25  2  0
 24 26  1  0
 21 27  2  0
  5 28  1  0
 28 29  2  0
 29  2  1  0
 27  9  1  0
 20 15  1  0
  1 30  1  0
  1 31  1  0
  3 32  1  0
  4 33  1  0
  6 34  1  0
 10 35  1  0
 11 36  1  0
 14 37  1  0
 14 38  1  0
 16 39  1  0
 17 40  1  0
 18 41  1  0
 19 42  1  0
 20 43  1  0
 23 44  1  0
 23 45  1  0
 27 46  1  0
 28 47  1  0
 29 48  1  0
M  CHG  1  26  -1
M  END
>  <UniqueID>  (30) 
28

>  <SMILES>  (30) 
Nc1ccc(NC(=O)c2ccc(OCc3ccccc3)c(OCC(=O)[O-])c2)cc1

>  <Energy>  (30) 
54.56776748190694

>  <Genealogy>  (30) 
Nc1ccc(NC(=O)c2ccc(OCc3ccccc3)c(OCC(=O)[O-])c2)cc1 (protonated)
Nc1ccc(NC(=O)c2ccc(OCc3ccccc3)c(OCC(=O)[O-])c2)cc1 (3D coordinates assigned)
Nc1ccc(NC(=O)c2ccc(OCc3ccccc3)c(OCC(=O)[O-])c2)cc1 (optimized conformer: 54.56776748190694 kcal/mol)

>  <smiles>  (30) 
Nc1ccc(NC(=O)c2ccc(OCc3ccccc3)c(OCC(=O)O)c2)cc1

>  <score_type>  (30) 
oracle

>  <origin>  (30) 
adg

>  <m_score__min__energy>  (30) 
-10.68

>  <m_primary>  (30) 
energy

$$$$
30:0
     RDKit          3D

 33 34  0  0  0  0  0  0  0  0999 V2000
   55.1480   29.7140   44.8400 O   0  0  0  0  0  0  0  0  0  0  0  0
   56.3850   29.8510   44.6380 C   0  0  0  0  0  0  0  0  0  0  0  0
   56.9970   29.2890   43.3980 C   0  0  0  0  0  0  0  0  0  0  0  0
   57.4020   27.8960   43.6510 N   0  0  0  0  0  0  0  0  0  0  0  0
   58.8580   27.7470   43.7640 C   0  0  0  0  0  0  0  0  0  0  0  0
   59.3340   28.2450   45.1030 C   0  0  0  0  0  0  0  0  0  0  0  0
   60.2770   29.2840   45.1710 C   0  0  0  0  0  0  0  0  0  0  0  0
   60.7400   29.7350   46.4110 C   0  0  0  0  0  0  0  0  0  0  0  0
   60.2700   29.1490   47.5890 C   0  0  0  0  0  0  0  0  0  0  0  0
   59.3390   28.1100   47.5300 C   0  0  0  0  0  0  0  0  0  0  0  0
   58.8710   27.6570   46.2920 C   0  0  0  0  0  0  0  0  0  0  0  0
   57.2310   30.4440   45.6320 N   0  0  0  0  0  0  0  0  0  0  0  0
   57.7540   31.7800   45.6210 C   0  0  0  0  0  0  0  0  0  0  0  0
   57.7720   32.5630   44.4510 C   0  0  0  0  0  0  0  0  0  0  0  0
   58.3110   33.8540   44.4760 C   0  0  0  0  0  0  0  0  0  0  0  0
   58.8470   34.3660   45.6590 C   0  0  0  0  0  0  0  0  0  0  0  0
   58.8540   33.5870   46.8180 C   0  0  0  0  0  0  0  0  0  0  0  0
   58.3160   32.2950   46.7980 C   0  0  0  0  0  0  0  0  0  0  0  0
   58.3330   31.5480   47.9300 F   0  0  0  0  0  0  0  0  0  0  0  0
   56.2627   29.3165   42.5794 H   0  0  0  0  0  0  0  0  0  0  0  0
   57.8766   29.8857   43.1148 H   0  0  0  0  0  0  0  0  0  0  0  0
   57.0810   27.3070   42.8470 H   0  0  0  0  0  0  0  0  0  0  0  0
   59.1231   26.6848   43.6572 H   0  0  0  0  0  0  0  0  0  0  0  0
   59.3399   28.3382   42.9714 H   0  0  0  0  0  0  0  0  0  0  0  0
   60.6526   29.7445   44.2453 H   0  0  0  0  0  0  0  0  0  0  0  0
   61.4750   30.5520   46.4590 H   0  0  0  0  0  0  0  0  0  0  0  0
   60.6337   29.5064   48.5637 H   0  0  0  0  0  0  0  0  0  0  0  0
   58.9731   27.6471   48.4583 H   0  0  0  0  0  0  0  0  0  0  0  0
   58.1381   26.8378   46.2493 H   0  0  0  0  0  0  0  0  0  0  0  0
   57.3610   32.1585   43.5143 H   0  0  0  0  0  0  0  0  0  0  0  0
   58.3124   34.4664   43.5622 H   0  0  0  0  0  0  0  0  0  0  0  0
   59.2641   35.3837   45.6782 H   0  0  0  0  0  0  0  0  0  0  0  0
   59.2828   33.9892   47.7477 H   0  0  0  0  0  0  0  0  0  0  0  0
  1  2  2  0
  2  3  1  0
  3  4  1  0
  4  5  1  0
  5  6  1  0
  6  7  2  0
  7  8  1  0
  8  9  2  0
  9 10  1  0
 10 11  2  0
  2 12  1  0
 12 13  1  0
 13 14  2  0
 14 15  1  0
 15 16  2  0
 16 17  1  0
 17 18  2  0
 18 19  1  0
 11  6  1  0
 18 13  1  0
  3 20  1  0
  3 21  1  0
  4 22  1  0
  5 23  1  0
  5 24  1  0
  7 25  1  0
  8 26  1  0
  9 27  1  0
 10 28  1  0
 11 29  1  0
 14 30  1  0
 15 31  1  0
 16 32  1  0
 17 33  1  0
M  CHG  1  12  -1
M  END
>  <UniqueID>  (31) 
29

>  <SMILES>  (31) 
O=C(CNCc1ccccc1)[N-]c1ccccc1F

>  <Energy>  (31) 
34.96019295197763

>  <Genealogy>  (31) 
O=C(CNCc1ccccc1)[N-]c1ccccc1F (protonated)
O=C(CNCc1ccccc1)[N-]c1ccccc1F (3D coordinates assigned)
O=C(CNCc1ccccc1)[N-]c1ccccc1F (optimized conformer: 34.96019295197763 kcal/mol)

>  <smiles>  (31) 
O=C(CNCc1ccccc1)Nc1ccccc1F

>  <score_type>  (31) 
oracle

>  <origin>  (31) 
adg

>  <m_score__min__energy>  (31) 
-9.2200000000000006

>  <m_primary>  (31) 
energy

$$$$
31:0
     RDKit          3D

 40 41  0  0  0  0  0  0  0  0999 V2000
   62.2930   32.9670   47.2210 C   0  0  0  0  0  0  0  0  0  0  0  0
   62.2030   31.4540   47.3940 C   0  0  0  0  0  0  0  0  0  0  0  0
   60.8840   31.0450   48.0550 C   0  0  0  0  0  0  0  0  0  0  0  0
   59.8430   30.8410   47.0360 N   0  0  0  0  0  0  0  0  0  0  0  0
   59.8880   29.6090   46.2340 C   0  0  0  0  0  0  0  0  0  0  0  0
   58.7750   28.6910   46.6330 C   0  0  0  0  0  0  0  0  0  0  0  0
   58.4220   28.6390   47.8410 O   0  0  0  0  0  0  0  0  0  0  0  0
   58.1610   27.8590   45.6360 N   0  0  0  0  0  0  0  0  0  0  0  0
   57.1680   27.0290   45.7750 C   0  0  0  0  0  0  0  0  0  0  0  0
   57.2260   25.6840   46.1080 C   0  0  0  0  0  0  0  0  0  0  0  0
   55.8980   25.3200   46.1390 C   0  0  0  0  0  0  0  0  0  0  0  0
   55.3640   23.9670   46.4710 C   0  0  0  0  0  0  0  0  0  0  0  0
   55.1540   26.3650   45.8540 O   0  0  0  0  0  0  0  0  0  0  0  0
   55.8880   27.4140   45.6270 N   0  0  0  0  0  0  0  0  0  0  0  0
   58.9130   31.9120   46.7440 C   0  0  0  0  0  0  0  0  0  0  0  0
   57.9630   32.1480   47.5390 O   0  0  0  0  0  0  0  0  0  0  0  0
   59.0080   32.7440   45.4950 C   0  0  0  0  0  0  0  0  0  0  0  0
   57.3480   33.1720   44.8670 S   0  0  0  0  0  0  0  0  0  0  0  0
   57.0460   31.5700   44.1250 C   0  0  0  0  0  0  0  0  0  0  0  0
   56.7900   30.4520   44.8360 N   0  0  0  0  0  0  0  0  0  0  0  0
   56.5940   29.3860   44.0620 N   0  0  0  0  0  0  0  0  0  0  0  0
   56.6820   29.6350   42.7380 C   0  0  0  0  0  0  0  0  0  0  0  0
   57.0210   31.2630   42.4710 S   0  0  0  0  0  0  0  0  0  0  0  0
   62.3216   33.4481   48.2098 H   0  0  0  0  0  0  0  0  0  0  0  0
   63.2077   33.2186   46.6642 H   0  0  0  0  0  0  0  0  0  0  0  0
   61.4146   33.3253   46.6642 H   0  0  0  0  0  0  0  0  0  0  0  0
   62.2714   30.9760   46.4056 H   0  0  0  0  0  0  0  0  0  0  0  0
   63.0304   31.1298   48.0423 H   0  0  0  0  0  0  0  0  0  0  0  0
   61.0331   30.1092   48.6136 H   0  0  0  0  0  0  0  0  0  0  0  0
   60.5634   31.8452   48.7383 H   0  0  0  0  0  0  0  0  0  0  0  0
   59.7840   29.8647   45.1692 H   0  0  0  0  0  0  0  0  0  0  0  0
   60.8495   29.1034   46.4068 H   0  0  0  0  0  0  0  0  0  0  0  0
   58.1128   25.0621   46.2998 H   0  0  0  0  0  0  0  0  0  0  0  0
   55.3175   23.8492   47.5637 H   0  0  0  0  0  0  0  0  0  0  0  0
   54.3550   23.8569   46.0470 H   0  0  0  0  0  0  0  0  0  0  0  0
   56.0258   23.1974   46.0470 H   0  0  0  0  0  0  0  0  0  0  0  0
   59.5572   33.6700   45.7204 H   0  0  0  0  0  0  0  0  0  0  0  0
   59.5349   32.1616   44.7248 H   0  0  0  0  0  0  0  0  0  0  0  0
   56.3910   28.4420   44.4570 H   0  0  0  0  0  0  0  0  0  0  0  0
   56.5510   28.8822   41.9467 H   0  0  0  0  0  0  0  0  0  0  0  0
  1  2  1  0
  2  3  1  0
  3  4  1  0
  4  5  1  0
  5  6  1  0
  6  7  2  0
  6  8  1  0
  8  9  2  3
  9 10  1  0
 10 11  2  0
 11 12  1  0
 11 13  1  0
 13 14  1  0
  4 15  1  0
 15 16  2  0
 15 17  1  0
 17 18  1  0
 18 19  1  0
 19 20  2  0
 20 21  1  0
 21 22  2  0
 22 23  1  0
 14  9  1  0
 23 19  1  0
  1 24  1  0
  1 25  1  0
  1 26  1  0
  2 27  1  0
  2 28  1  0
  3 29  1  0
  3 30  1  0
  5 31  1  0
  5 32  1  0
 10 33  1  0
 12 34  1  0
 12 35  1  0
 12 36  1  0
 17 37  1  0
 17 38  1  0
 21 39  1  0
 22 40  1  0
M  CHG  2  14  -1  21   1
M  END
>  <UniqueID>  (32) 
30

>  <SMILES>  (32) 
CCCN(CC(=O)N=c1cc(C)o[n-]1)C(=O)CSc1n[nH+]cs1

>  <Energy>  (32) 
94.7076085640848

>  <Genealogy>  (32) 
CCCN(CC(=O)N=c1cc(C)o[n-]1)C(=O)CSc1n[nH+]cs1 (protonated)
CCCN(CC(=O)N=c1cc(C)o[n-]1)C(=O)CSc1n[nH+]cs1 (3D coordinates assigned)
CCCN(CC(=O)N=c1cc(C)o[n-]1)C(=O)CSc1n[nH+]cs1 (optimized conformer: 94.7076085640848 kcal/mol)

>  <smiles>  (32) 
CCCN(CC(=O)N=c1cc(C)o[nH]1)C(=O)CSc1nncs1

>  <score_type>  (32) 
oracle

>  <origin>  (32) 
adg

>  <m_score__min__energy>  (32) 
-8.2200000000000006

>  <m_primary>  (32) 
energy

$$$$
32:0
     RDKit          3D

 28 30  0  0  0  0  0  0  0  0999 V2000
   58.3327   25.4170   44.3798 H   0  0  0  0  0  0  0  0  0  0  0  0
   57.9550   26.4500   44.3950 C   0  0  0  0  0  0  0  0  0  0  0  0
   57.5270   27.0200   45.5960 C   0  0  0  0  0  0  0  0  0  0  0  0
   57.5760   26.4382   46.5283 H   0  0  0  0  0  0  0  0  0  0  0  0
   57.0360   28.3300   45.6150 C   0  0  0  0  0  0  0  0  0  0  0  0
   56.7185   28.7822   46.5662 H   0  0  0  0  0  0  0  0  0  0  0  0
   56.9470   29.0680   44.4280 C   0  0  0  0  0  0  0  0  0  0  0  0
   56.4940   30.4310   44.4840 N   0  0  0  0  0  0  0  0  0  0  0  0
   57.2190   31.5060   44.6340 C   0  0  0  0  0  0  0  0  0  0  0  0
   57.7270   32.2380   43.5390 C   0  0  0  0  0  0  0  0  0  0  0  0
   57.5255   31.9035   42.5107 H   0  0  0  0  0  0  0  0  0  0  0  0
   58.4650   33.3560   43.7590 N   0  0  0  0  0  0  0  0  0  0  0  0
   58.7240   33.7950   45.0160 C   0  0  0  0  0  0  0  0  0  0  0  0
   59.4890   34.9490   45.2220 C   0  0  0  0  0  0  0  0  0  0  0  0
   59.8904   35.5049   44.3619 H   0  0  0  0  0  0  0  0  0  0  0  0
   59.7420   35.3940   46.5240 C   0  0  0  0  0  0  0  0  0  0  0  0
   60.3458   36.2989   46.6867 H   0  0  0  0  0  0  0  0  0  0  0  0
   59.2290   34.6910   47.6200 C   0  0  0  0  0  0  0  0  0  0  0  0
   59.4297   35.0457   48.6417 H   0  0  0  0  0  0  0  0  0  0  0  0
   58.4620   33.5390   47.4200 C   0  0  0  0  0  0  0  0  0  0  0  0
   58.0594   32.9896   48.2837 H   0  0  0  0  0  0  0  0  0  0  0  0
   58.2060   33.0840   46.1180 C   0  0  0  0  0  0  0  0  0  0  0  0
   57.4610   31.9630   45.8970 N   0  0  0  0  0  0  0  0  0  0  0  0
   57.0730   31.4330   46.7120 H   0  0  0  0  0  0  0  0  0  0  0  0
   57.4130   28.5030   43.2280 C   0  0  0  0  0  0  0  0  0  0  0  0
   57.3920   29.0928   42.2997 H   0  0  0  0  0  0  0  0  0  0  0  0
   57.9030   27.1940   43.2110 C   0  0  0  0  0  0  0  0  0  0  0  0
   58.2479   26.7485   42.2663 H   0  0  0  0  0  0  0  0  0  0  0  0
  1  2  1  0
  2  3  2  0
  3  4  1  0
  3  5  1  0
  5  6  1  0
  5  7  2  0
  7  8  1  0
  8  9  2  0
  9 10  1  0
 10 11  1  0
 10 12  2  0
 12 13  1  0
 13 14  2  0
 14 15  1  0
 14 16  1  0
 16 17  1  0
 16 18  2  0
 18 19  1  0
 18 20  1  0
 20 21  1  0
 20 22  2  0
 22 23  1  0
 23 24  1  0
  7 25  1  0
 25 26  1  0
 25 27  2  0
 27 28  1  0
 27  2  1  0
 23  9  1  0
 22 13  1  0
M  END
>  <UniqueID>  (33) 
31

>  <SMILES>  (33) 
c1ccc(/N=c2\cnc3ccccc3[nH]2)cc1

>  <Energy>  (33) 
44.599687505284166

>  <Genealogy>  (33) 
c1ccc(/N=c2\cnc3ccccc3[nH]2)cc1 (cis-trans isomerization)
c1ccc(/N=c2\cnc3ccccc3[nH]2)cc1 (3D coordinates assigned)
c1ccc(/N=c2\cnc3ccccc3[nH]2)cc1 (optimized conformer: 44.599687505284166 kcal/mol)

>  <smiles>  (33) 
c1ccc(N=c2cnc3ccccc3[nH]2)cc1

>  <score_type>  (33) 
oracle

>  <origin>  (33) 
adg

>  <m_score__min__energy>  (33) 
-6.5599999999999996

>  <m_primary>  (33) 
energy

$$$$
33:0
     RDKit          3D

 47 48  0  0  0  0  0  0  0  0999 V2000
   61.9600   30.6370   50.4240 C   0  0  0  0  0  0  0  0  0  0  0  0
   61.4250   30.9830   49.1500 O   0  0  0  0  0  0  0  0  0  0  0  0
   60.9380   30.0560   48.2170 C   0  0  0  0  0  0  0  0  0  0  0  0
   60.2860   28.8680   48.6020 C   0  0  0  0  0  0  0  0  0  0  0  0
   59.8230   27.9730   47.6340 C   0  0  0  0  0  0  0  0  0  0  0  0
   59.9910   28.2540   46.2700 C   0  0  0  0  0  0  0  0  0  0  0  0
   59.5600   27.2560   45.2280 C   0  0  0  0  0  0  0  0  0  0  0  0
   58.2370   27.6920   44.6060 C   0  0  0  0  0  0  0  0  0  0  0  0
   57.4920   28.5250   45.5430 N   0  0  0  0  0  0  0  0  0  0  0  0
   56.7440   29.6920   45.1690 C   0  0  0  0  0  0  0  0  0  0  0  0
   55.5300   29.5620   44.8630 O   0  0  0  0  0  0  0  0  0  0  0  0
   57.3680   31.0320   45.1100 C   0  0  0  0  0  0  0  0  0  0  0  0
   57.8250   31.6350   46.2910 C   0  0  0  0  0  0  0  0  0  0  0  0
   58.5020   32.8620   46.2670 C   0  0  0  0  0  0  0  0  0  0  0  0
   59.1630   33.4890   47.7940 S   0  0  0  0  0  0  0  0  0  0  0  0
   58.4870   32.7710   48.9290 O   0  0  0  0  0  0  0  0  0  0  0  0
   58.9030   34.9630   47.9250 O   0  0  0  0  0  0  0  0  0  0  0  0
   60.8910   33.2260   47.8790 N   0  0  0  0  0  0  0  0  0  0  0  0
   61.5070   33.4780   46.5680 C   0  0  0  0  0  0  0  0  0  0  0  0
   61.4790   34.1080   48.8980 C   0  0  0  0  0  0  0  0  0  0  0  0
   58.6190   33.5530   45.0400 C   0  0  0  0  0  0  0  0  0  0  0  0
   59.3300   35.1580   44.9110 Cl  0  0  0  0  0  0  0  0  0  0  0  0
   58.1250   32.9740   43.8670 C   0  0  0  0  0  0  0  0  0  0  0  0
   57.5150   31.7160   43.8880 C   0  0  0  0  0  0  0  0  0  0  0  0
   56.9800   31.0180   42.3640 Cl  0  0  0  0  0  0  0  0  0  0  0  0
   60.6500   29.4330   45.8870 C   0  0  0  0  0  0  0  0  0  0  0  0
   61.1140   30.3270   46.8550 C   0  0  0  0  0  0  0  0  0  0  0  0
   61.3188   31.0517   51.2158 H   0  0  0  0  0  0  0  0  0  0  0  0
   61.9994   29.5419   50.5200 H   0  0  0  0  0  0  0  0  0  0  0  0
   62.9749   31.0502   50.5200 H   0  0  0  0  0  0  0  0  0  0  0  0
   60.1408   28.6440   49.6691 H   0  0  0  0  0  0  0  0  0  0  0  0
   59.3239   27.0428   47.9433 H   0  0  0  0  0  0  0  0  0  0  0  0
   60.3285   27.1931   44.4435 H   0  0  0  0  0  0  0  0  0  0  0  0
   59.4301   26.2717   45.7016 H   0  0  0  0  0  0  0  0  0  0  0  0
   58.4378   28.2660   43.6894 H   0  0  0  0  0  0  0  0  0  0  0  0
   57.6409   26.7992   44.3661 H   0  0  0  0  0  0  0  0  0  0  0  0
   57.6486   31.1352   47.2549 H   0  0  0  0  0  0  0  0  0  0  0  0
   61.0760   32.2360   48.1600 H   0  0  0  0  0  0  0  0  0  0  0  0
   62.5165   33.8910   46.7105 H   0  0  0  0  0  0  0  0  0  0  0  0
   61.5727   32.5345   46.0063 H   0  0  0  0  0  0  0  0  0  0  0  0
   60.8926   34.1971   46.0063 H   0  0  0  0  0  0  0  0  0  0  0  0
   61.2270   33.7299   49.8998 H   0  0  0  0  0  0  0  0  0  0  0  0
   62.5723   34.1287   48.7783 H   0  0  0  0  0  0  0  0  0  0  0  0
   61.0777   35.1252   48.7783 H   0  0  0  0  0  0  0  0  0  0  0  0
   58.2176   33.5159   42.9142 H   0  0  0  0  0  0  0  0  0  0  0  0
   60.8016   29.6538   44.8201 H   0  0  0  0  0  0  0  0  0  0  0  0
   61.6220   31.2518   46.5443 H   0  0  0  0  0  0  0  0  0  0  0  0
  1  2  1  0
  2  3  1  0
  3  4  2  0
  4  5  1  0
  5  6  2  0
  6  7  1  0
  7  8  1  0
  8  9  1  0
  9 10  1  0
 10 11  2  0
 10 12  1  0
 12 13  2  0
 13 14  1  0
 14 15  1  0
 15 16  2  0
 15 17  2  0
 15 18  1  0
 18 19  1  0
 18 20  1  0
 14 21  2  0
 21 22  1  0
 21 23  1  0
 23 24  2  0
 24 25  1  0
  6 26  1  0
 26 27  2  0
 27  3  1  0
 24 12  1  0
  1 28  1  0
  1 29  1  0
  1 30  1  0
  4 31  1  0
  5 32  1  0
  7 33  1  0
  7 34  1  0
  8 35  1  0
  8 36  1  0
 13 37  1  0
 18 38  1  0
 19 39  1  0
 19 40  1  0
 19 41  1  0
 20 42  1  0
 20 43  1  0
 20 44  1  0
 23 45  1  0
 26 46  1  0
 27 47  1  0
M  CHG  2   9  -1  18   1
M  END
>  <UniqueID>  (34) 
32

>  <SMILES>  (34) 
COc1ccc(CC[N-]C(=O)c2cc(S(=O)(=O)[NH+](C)C)c(Cl)cc2Cl)cc1

>  <Energy>  (34) 
47.4471942200687

>  <Genealogy>  (34) 
COc1ccc(CC[N-]C(=O)c2cc(S(=O)(=O)[NH+](C)C)c(Cl)cc2Cl)cc1 (protonated)
COc1ccc(CC[N-]C(=O)c2cc(S(=O)(=O)[NH+](C)C)c(Cl)cc2Cl)cc1 (3D coordinates assigned)
COc1ccc(CC[N-]C(=O)c2cc(S(=O)(=O)[NH+](C)C)c(Cl)cc2Cl)cc1 (optimized conformer: 47.4471942200687 kcal/mol)

>  <smiles>  (34) 
COc1ccc(CCNC(=O)c2cc(S(=O)(=O)N(C)C)c(Cl)cc2Cl)cc1

>  <score_type>  (34) 
oracle

>  <origin>  (34) 
adg

>  <m_score__min__energy>  (34) 
-7.8799999999999999

>  <m_primary>  (34) 
energy

$$$$
34:0
     RDKit          3D

 51 54  0  0  0  0  0  0  0  0999 V2000
   57.3490   31.7400   42.3120 C   0  0  0  0  0  0  0  0  0  0  0  0
   57.7760   31.7770   43.7540 C   0  0  0  0  0  0  0  0  0  0  0  0
   58.2100   33.0000   44.2970 C   0  0  0  0  0  0  0  0  0  0  0  0
   58.6240   33.0830   45.6270 C   0  0  0  0  0  0  0  0  0  0  0  0
   58.6290   31.9400   46.4310 C   0  0  0  0  0  0  0  0  0  0  0  0
   59.1370   32.0240   48.1160 S   0  0  0  0  0  0  0  0  0  0  0  0
   58.6640   30.7820   48.8160 O   0  0  0  0  0  0  0  0  0  0  0  0
   58.5270   33.2280   48.7810 O   0  0  0  0  0  0  0  0  0  0  0  0
   60.8780   32.1250   48.1950 N   0  0  0  0  0  0  0  0  0  0  0  0
   61.3070   33.5010   47.8950 C   0  0  0  0  0  0  0  0  0  0  0  0
   62.8290   33.5430   47.7490 C   0  0  0  0  0  0  0  0  0  0  0  0
   63.5170   32.8450   48.8940 C   0  0  0  0  0  0  0  0  0  0  0  0
   64.8900   33.0460   49.1010 C   0  0  0  0  0  0  0  0  0  0  0  0
   65.5550   32.3730   50.1290 C   0  0  0  0  0  0  0  0  0  0  0  0
   64.8560   31.4880   50.9530 C   0  0  0  0  0  0  0  0  0  0  0  0
   63.4930   31.2690   50.7470 C   0  0  0  0  0  0  0  0  0  0  0  0
   62.8170   31.9280   49.7080 C   0  0  0  0  0  0  0  0  0  0  0  0
   61.3300   31.7300   49.5420 C   0  0  0  0  0  0  0  0  0  0  0  0
   58.2000   30.7190   45.9030 C   0  0  0  0  0  0  0  0  0  0  0  0
   57.7320   30.6280   44.5830 C   0  0  0  0  0  0  0  0  0  0  0  0
   57.1420   29.0550   44.0080 S   0  0  0  0  0  0  0  0  0  0  0  0
   56.3190   29.1960   42.7590 O   0  0  0  0  0  0  0  0  0  0  0  0
   58.3340   28.1880   43.7140 O   0  0  0  0  0  0  0  0  0  0  0  0
   56.1660   28.2740   45.2170 N   0  0  0  0  0  0  0  0  0  0  0  0
   56.5760   27.1110   45.9610 C   0  0  0  0  0  0  0  0  0  0  0  0
   57.8930   27.0470   46.4410 C   0  0  0  0  0  0  0  0  0  0  0  0
   58.3130   25.9580   47.2030 C   0  0  0  0  0  0  0  0  0  0  0  0
   57.4150   24.9280   47.4760 C   0  0  0  0  0  0  0  0  0  0  0  0
   56.1510   24.9840   46.9850 N   0  0  0  0  0  0  0  0  0  0  0  0
   55.7110   26.0310   46.2380 C   0  0  0  0  0  0  0  0  0  0  0  0
   54.5370   26.0050   45.7850 O   0  0  0  0  0  0  0  0  0  0  0  0
   56.2545   31.6452   42.2560 H   0  0  0  0  0  0  0  0  0  0  0  0
   57.6626   32.6687   41.8128 H   0  0  0  0  0  0  0  0  0  0  0  0
   57.8177   30.8791   41.8128 H   0  0  0  0  0  0  0  0  0  0  0  0
   58.2232   33.9010   43.6661 H   0  0  0  0  0  0  0  0  0  0  0  0
   58.9467   34.0489   46.0429 H   0  0  0  0  0  0  0  0  0  0  0  0
   60.8398   33.8338   46.9564 H   0  0  0  0  0  0  0  0  0  0  0  0
   60.9999   34.1667   48.7151 H   0  0  0  0  0  0  0  0  0  0  0  0
   63.1109   33.0477   46.8081 H   0  0  0  0  0  0  0  0  0  0  0  0
   63.1451   34.5966   47.7492 H   0  0  0  0  0  0  0  0  0  0  0  0
   65.4459   33.7372   48.4504 H   0  0  0  0  0  0  0  0  0  0  0  0
   66.6303   32.5403   50.2896 H   0  0  0  0  0  0  0  0  0  0  0  0
   65.3802   30.9630   51.7652 H   0  0  0  0  0  0  0  0  0  0  0  0
   62.9453   30.5760   51.4026 H   0  0  0  0  0  0  0  0  0  0  0  0
   61.0910   30.6683   49.7019 H   0  0  0  0  0  0  0  0  0  0  0  0
   60.8137   32.3635   50.2783 H   0  0  0  0  0  0  0  0  0  0  0  0
   58.2296   29.8164   46.5311 H   0  0  0  0  0  0  0  0  0  0  0  0
   55.1610   28.5520   45.2470 H   0  0  0  0  0  0  0  0  0  0  0  0
   58.5978   27.8607   46.2147 H   0  0  0  0  0  0  0  0  0  0  0  0
   59.3435   25.9121   47.5852 H   0  0  0  0  0  0  0  0  0  0  0  0
   57.7302   24.0706   48.0887 H   0  0  0  0  0  0  0  0  0  0  0  0
  1  2  1  0
  2  3  2  0
  3  4  1  0
  4  5  2  0
  5  6  1  0
  6  7  2  0
  6  8  2  0
  6  9  1  0
  9 10  1  0
 10 11  1  0
 11 12  1  0
 12 13  2  0
 13 14  1  0
 14 15  2  0
 15 16  1  0
 16 17  2  0
 17 18  1  0
  5 19  1  0
 19 20  2  0
 20 21  1  0
 21 22  2  0
 21 23  2  0
 21 24  1  0
 24 25  1  0
 25 26  2  0
 26 27  1  0
 27 28  2  0
 28 29  1  0
 29 30  1  0
 30 31  2  0
 20  2  1  0
 30 25  1  0
 18  9  1  0
 17 12  1  0
  1 32  1  0
  1 33  1  0
  1 34  1  0
  3 35  1  0
  4 36  1  0
 10 37  1  0
 10 38  1  0
 11 39  1  0
 11 40  1  0
 13 41  1  0
 14 42  1  0
 15 43  1  0
 16 44  1  0
 18 45  1  0
 18 46  1  0
 19 47  1  0
 24 48  1  0
 26 49  1  0
 27 50  1  0
 28 51  1  0
M  CHG  1  29  -1
M  END
>  <UniqueID>  (35) 
33

>  <SMILES>  (35) 
Cc1ccc(S(=O)(=O)N2CCc3ccccc3C2)cc1S(=O)(=O)Nc1ccc[n-]c1=O

>  <Energy>  (35) 
63.48324374757098

>  <Genealogy>  (35) 
Cc1ccc(S(=O)(=O)N2CCc3ccccc3C2)cc1S(=O)(=O)Nc1ccc[n-]c1=O (protonated)
Cc1ccc(S(=O)(=O)N2CCc3ccccc3C2)cc1S(=O)(=O)Nc1ccc[n-]c1=O (3D coordinates assigned)
Cc1ccc(S(=O)(=O)N2CCc3ccccc3C2)cc1S(=O)(=O)Nc1ccc[n-]c1=O (nonaromatic ring conformer: 63.48324374757098 kcal/mol)

>  <smiles>  (35) 
Cc1ccc(S(=O)(=O)N2CCc3ccccc3C2)cc1S(=O)(=O)Nc1ccc[nH]c1=O

>  <score_type>  (35) 
oracle

>  <origin>  (35) 
adg

>  <m_score__min__energy>  (35) 
-13.01

>  <m_primary>  (35) 
energy

$$$$
35:0
     RDKit          3D

 43 46  0  0  0  0  0  0  0  0999 V2000
   59.1540   28.9790   46.6277 H   0  0  0  0  0  0  0  0  0  0  0  0
   58.8030   27.9750   46.3470 C   0  0  0  0  0  0  0  0  0  0  0  0
   59.1720   26.8690   47.1150 C   0  0  0  0  0  0  0  0  0  0  0  0
   60.1900   27.0840   48.5290 Cl  0  0  0  0  0  0  0  0  0  0  0  0
   58.7230   25.5920   46.7680 C   0  0  0  0  0  0  0  0  0  0  0  0
   59.0197   24.7253   47.3770 H   0  0  0  0  0  0  0  0  0  0  0  0
   57.8960   25.4060   45.6480 C   0  0  0  0  0  0  0  0  0  0  0  0
   57.4150   24.0420   45.3150 C   0  0  0  0  0  0  0  0  0  0  0  0
   57.3450   23.1340   46.2880 O   0  0  0  0  0  0  0  0  0  0  0  0
   56.9280   21.8850   46.0970 C   0  0  0  0  0  0  0  0  0  0  0  0
   56.8790   20.9860   47.1780 C   0  0  0  0  0  0  0  0  0  0  0  0
   57.2760   21.3980   48.4910 N   0  0  0  0  0  0  0  0  0  0  0  0
   57.0880   20.8030   49.3270 H   0  0  0  0  0  0  0  0  0  0  0  0
   57.7650   22.3090   48.6380 H   0  0  0  0  0  0  0  0  0  0  0  0
   56.4380   19.6710   46.9660 C   0  0  0  0  0  0  0  0  0  0  0  0
   56.3982   18.9654   47.8089 H   0  0  0  0  0  0  0  0  0  0  0  0
   56.0490   19.2520   45.6910 C   0  0  0  0  0  0  0  0  0  0  0  0
   55.7051   18.2188   45.5353 H   0  0  0  0  0  0  0  0  0  0  0  0
   56.0950   20.1390   44.6140 C   0  0  0  0  0  0  0  0  0  0  0  0
   55.7862   19.8034   43.6130 H   0  0  0  0  0  0  0  0  0  0  0  0
   56.5350   21.4600   44.8060 C   0  0  0  0  0  0  0  0  0  0  0  0
   56.6050   22.3850   43.7520 C   0  0  0  0  0  0  0  0  0  0  0  0
   56.2760   22.0590   42.5790 O   0  0  0  0  0  0  0  0  0  0  0  0
   57.0490   23.6820   44.0060 C   0  0  0  0  0  0  0  0  0  0  0  0
   57.1124   24.4168   43.1899 H   0  0  0  0  0  0  0  0  0  0  0  0
   57.5170   26.5310   44.8890 C   0  0  0  0  0  0  0  0  0  0  0  0
   56.8449   26.4033   44.0277 H   0  0  0  0  0  0  0  0  0  0  0  0
   57.9850   27.8100   45.2170 C   0  0  0  0  0  0  0  0  0  0  0  0
   57.5530   28.9240   44.4220 N   0  0  0  0  0  0  0  0  0  0  0  0
   56.3910   29.7310   44.6410 C   0  0  0  0  0  0  0  0  0  0  0  0
   55.2720   29.1930   44.8570 O   0  0  0  0  0  0  0  0  0  0  0  0
   56.5230   31.1590   44.5710 N   0  0  0  0  0  0  0  0  0  0  0  0
   57.3990   31.9430   45.1410 C   0  0  0  0  0  0  0  0  0  0  0  0
   57.2380   33.3440   45.2220 C   0  0  0  0  0  0  0  0  0  0  0  0
   56.3476   33.8250   44.7910 H   0  0  0  0  0  0  0  0  0  0  0  0
   58.2170   34.1140   45.8530 C   0  0  0  0  0  0  0  0  0  0  0  0
   58.1028   35.2064   45.9134 H   0  0  0  0  0  0  0  0  0  0  0  0
   59.3380   33.5000   46.4060 C   0  0  0  0  0  0  0  0  0  0  0  0
   60.1160   34.1021   46.8980 H   0  0  0  0  0  0  0  0  0  0  0  0
   59.4630   32.1140   46.3290 C   0  0  0  0  0  0  0  0  0  0  0  0
   60.3416   31.6176   46.7669 H   0  0  0  0  0  0  0  0  0  0  0  0
   58.5020   31.3730   45.7140 N   0  0  0  0  0  0  0  0  0  0  0  0
   58.6260   30.3350   45.6740 H   0  0  0  0  0  0  0  0  0  0  0  0
  1  2  1  0
  2  3  2  0
  3  4  1  0
  3  5  1  0
  5  6  1  0
  5  7  2  0
  7  8  1  0
  8  9  1  0
  9 10  1  0
 10 11  2  0
 11 12  1  0
 12 13  1  0
 12 14  1  0
 11 15  1  0
 15 16  1  0
 15 17  2  0
 17 18  1  0
 17 19  1  0
 19 20  1  0
 19 21  2  0
 21 22  1  0
 22 23  2  0
 22 24  1  0
 24 25  1  0
  7 26  1  0
 26 27  1  0
 26 28  2  0
 28 29  1  0
 29 30  1  0
 30 31  2  0
 30 32  1  0
 32 33  2  0
 33 34  1  0
 34 35  1  0
 34 36  2  0
 36 37  1  0
 36 38  1  0
 38 39  1  0
 38 40  2  0
 40 41  1  0
 40 42  1  0
 42 43  1  0
 28  2  1  0
 42 33  1  0
 24  8  2  0
 21 10  1  0
M  CHG  1  29  -1
M  END
>  <UniqueID>  (36) 
34

>  <SMILES>  (36) 
Nc1cccc2c(=O)cc(-c3cc(Cl)cc([N-]C(=O)/N=c4\cccc[nH]4)c3)oc12

>  <Energy>  (36) 
67.68064545522499

>  <Genealogy>  (36) 
Nc1cccc2c(=O)cc(-c3cc(Cl)cc([N-]C(=O)N=c4cccc[nH]4)c3)oc12 (protonated)
Nc1cccc2c(=O)cc(-c3cc(Cl)cc([N-]C(=O)/N=c4\cccc[nH]4)c3)oc12 (cis-trans isomerization)
Nc1cccc2c(=O)cc(-c3cc(Cl)cc([N-]C(=O)/N=c4\cccc[nH]4)c3)oc12 (3D coordinates assigned)
Nc1cccc2c(=O)cc(-c3cc(Cl)cc([N-]C(=O)/N=c4\cccc[nH]4)c3)oc12 (optimized conformer: 67.68064545522499 kcal/mol)

>  <smiles>  (36) 
Nc1cccc2c(=O)cc(-c3cc(Cl)cc(NC(=O)N=c4cccc[nH]4)c3)oc12

>  <score_type>  (36) 
oracle

>  <origin>  (36) 
adg

>  <m_score__min__energy>  (36) 
-10.119999999999999

>  <m_primary>  (36) 
energy

$$$$
36:0
     RDKit          3D

 62 65  0  0  0  0  0  0  0  0999 V2000
   55.4510   30.5180   52.2570 C   0  0  0  0  0  0  0  0  0  0  0  0
   56.7010   30.4420   51.5800 O   0  0  0  0  0  0  0  0  0  0  0  0
   57.7460   31.3710   51.7230 C   0  0  0  0  0  0  0  0  0  0  0  0
   57.5280   32.6620   52.2450 C   0  0  0  0  0  0  0  0  0  0  0  0
   58.5880   33.5600   52.3700 C   0  0  0  0  0  0  0  0  0  0  0  0
   59.8730   33.1850   51.9790 C   0  0  0  0  0  0  0  0  0  0  0  0
   60.1040   31.9110   51.4590 C   0  0  0  0  0  0  0  0  0  0  0  0
   59.0470   30.9960   51.3290 C   0  0  0  0  0  0  0  0  0  0  0  0
   59.2980   29.6330   50.7360 C   0  0  0  0  0  0  0  0  0  0  0  0
   60.7310   29.4860   50.4100 N   0  0  0  0  0  0  0  0  0  0  0  0
   61.1540   28.0680   50.4610 C   0  0  0  0  0  0  0  0  0  0  0  0
   60.3970   27.2070   49.4230 C   0  0  0  0  0  0  0  0  0  0  0  0
   60.7360   27.5590   47.9600 C   0  0  0  0  0  0  0  0  0  0  0  0
   59.8970   28.6340   47.3680 N   0  0  0  0  0  0  0  0  0  0  0  0
   60.1620   28.7610   45.9190 C   0  0  0  0  0  0  0  0  0  0  0  0
   58.9500   29.2680   45.1800 C   0  0  0  0  0  0  0  0  0  0  0  0
   58.3720   28.4920   44.1650 C   0  0  0  0  0  0  0  0  0  0  0  0
   57.2270   28.9430   43.5050 C   0  0  0  0  0  0  0  0  0  0  0  0
   56.6570   30.1720   43.8460 C   0  0  0  0  0  0  0  0  0  0  0  0
   57.2340   30.9690   44.8420 C   0  0  0  0  0  0  0  0  0  0  0  0
   56.6030   32.2100   45.1860 N   0  0  0  0  0  0  0  0  0  0  0  0
   57.2530   33.4810   45.3320 C   0  0  0  0  0  0  0  0  0  0  0  0
   56.8460   34.4760   44.6700 O   0  0  0  0  0  0  0  0  0  0  0  0
   58.3700   33.6400   46.2920 C   0  0  0  0  0  0  0  0  0  0  0  0
   59.5620   34.2810   45.9040 C   0  0  0  0  0  0  0  0  0  0  0  0
   60.6080   34.4440   46.8190 C   0  0  0  0  0  0  0  0  0  0  0  0
   60.4770   33.9700   48.1270 C   0  0  0  0  0  0  0  0  0  0  0  0
   61.7880   34.1820   49.2730 Cl  0  0  0  0  0  0  0  0  0  0  0  0
   59.2990   33.3280   48.5200 C   0  0  0  0  0  0  0  0  0  0  0  0
   58.2530   33.1640   47.6100 C   0  0  0  0  0  0  0  0  0  0  0  0
   58.3740   30.5020   45.5230 C   0  0  0  0  0  0  0  0  0  0  0  0
   59.9030   29.9410   48.0780 C   0  0  0  0  0  0  0  0  0  0  0  0
   61.0350   30.1130   49.1090 C   0  0  0  0  0  0  0  0  0  0  0  0
   55.6213   30.5076   53.3437 H   0  0  0  0  0  0  0  0  0  0  0  0
   54.9374   31.4490   51.9752 H   0  0  0  0  0  0  0  0  0  0  0  0
   54.8284   29.6561   51.9752 H   0  0  0  0  0  0  0  0  0  0  0  0
   56.5165   32.9630   52.5555 H   0  0  0  0  0  0  0  0  0  0  0  0
   58.4100   34.5660   52.7778 H   0  0  0  0  0  0  0  0  0  0  0  0
   60.7066   33.8954   52.0808 H   0  0  0  0  0  0  0  0  0  0  0  0
   61.1192   31.6221   51.1494 H   0  0  0  0  0  0  0  0  0  0  0  0
   59.0074   28.8596   51.4622 H   0  0  0  0  0  0  0  0  0  0  0  0
   58.7030   29.5211   49.8176 H   0  0  0  0  0  0  0  0  0  0  0  0
   62.2327   28.0102   50.2533 H   0  0  0  0  0  0  0  0  0  0  0  0
   60.9238   27.6776   51.4633 H   0  0  0  0  0  0  0  0  0  0  0  0
   60.6533   26.1511   49.5945 H   0  0  0  0  0  0  0  0  0  0  0  0
   59.3241   27.4062   49.5613 H   0  0  0  0  0  0  0  0  0  0  0  0
   61.7863   27.8835   47.9205 H   0  0  0  0  0  0  0  0  0  0  0  0
   60.5400   26.6519   47.3694 H   0  0  0  0  0  0  0  0  0  0  0  0
   60.9937   29.4649   45.7677 H   0  0  0  0  0  0  0  0  0  0  0  0
   60.4160   27.7658   45.5252 H   0  0  0  0  0  0  0  0  0  0  0  0
   58.8211   27.5267   43.8883 H   0  0  0  0  0  0  0  0  0  0  0  0
   56.7724   28.3285   42.7140 H   0  0  0  0  0  0  0  0  0  0  0  0
   55.7491   30.5157   43.3287 H   0  0  0  0  0  0  0  0  0  0  0  0
   59.6716   34.6558   44.8757 H   0  0  0  0  0  0  0  0  0  0  0  0
   61.5357   34.9465   46.5079 H   0  0  0  0  0  0  0  0  0  0  0  0
   59.1960   32.9513   49.5483 H   0  0  0  0  0  0  0  0  0  0  0  0
   57.3291   32.6579   47.9268 H   0  0  0  0  0  0  0  0  0  0  0  0
   58.8161   31.1070   46.3283 H   0  0  0  0  0  0  0  0  0  0  0  0
   60.0013   30.7380   47.3262 H   0  0  0  0  0  0  0  0  0  0  0  0
   58.9605   29.9899   48.6431 H   0  0  0  0  0  0  0  0  0  0  0  0
   61.9498   29.6552   48.7046 H   0  0  0  0  0  0  0  0  0  0  0  0
   61.1585   31.1918   49.2848 H   0  0  0  0  0  0  0  0  0  0  0  0
  1  2  1  0
  2  3  1  0
  3  4  2  0
  4  5  1  0
  5  6  2  0
  6  7  1  0
  7  8  2  0
  8  9  1  0
  9 10  1  0
 10 11  1  0
 11 12  1  0
 12 13  1  0
 13 14  1  0
 14 15  1  0
 15 16  1  0
 16 17  2  0
 17 18  1  0
 18 19  2  0
 19 20  1  0
 20 21  1  0
 21 22  1  0
 22 23  2  0
 22 24  1  0
 24 25  2  0
 25 26  1  0
 26 27  2  0
 27 28  1  0
 27 29  1  0
 29 30  2  0
 20 31  2  0
 14 32  1  0
 32 33  1  0
  8  3  1  0
 33 10  1  0
 31 16  1  0
 30 24  1  0
  1 34  1  0
  1 35  1  0
  1 36  1  0
  4 37  1  0
  5 38  1  0
  6 39  1  0
  7 40  1  0
  9 41  1  0
  9 42  1  0
 11 43  1  0
 11 44  1  0
 12 45  1  0
 12 46  1  0
 13 47  1  0
 13 48  1  0
 15 49  1  0
 15 50  1  0
 17 51  1  0
 18 52  1  0
 19 53  1  0
 25 54  1  0
 26 55  1  0
 29 56  1  0
 30 57  1  0
 31 58  1  0
 32 59  1  0
 32 60  1  0
 33 61  1  0
 33 62  1  0
M  CHG  1  21  -1
M  END
>  <UniqueID>  (37) 
35

>  <SMILES>  (37) 
COc1ccccc1CN1CCCN(Cc2cccc([N-]C(=O)c3ccc(Cl)cc3)c2)CC1

>  <Energy>  (37) 
84.68171637185613

>  <Genealogy>  (37) 
COc1ccccc1CN1CCCN(Cc2cccc([N-]C(=O)c3ccc(Cl)cc3)c2)CC1 (protonated)
COc1ccccc1CN1CCCN(Cc2cccc([N-]C(=O)c3ccc(Cl)cc3)c2)CC1 (3D coordinates assigned)
COc1ccccc1CN1CCCN(Cc2cccc([N-]C(=O)c3ccc(Cl)cc3)c2)CC1 (nonaromatic ring conformer: 84.68171637185613 kcal/mol)

>  <smiles>  (37) 
COc1ccccc1CN1CCCN(Cc2cccc(NC(=O)c3ccc(Cl)cc3)c2)CC1

>  <score_type>  (37) 
oracle

>  <origin>  (37) 
adg

>  <m_score__min__energy>  (37) 
-8.1500000000000004

>  <m_primary>  (37) 
energy

$$$$
37:0
     RDKit          3D

 46 49  0  0  0  0  0  0  0  0999 V2000
   63.4080   34.6020   46.3540 O   0  0  0  0  0  0  0  0  0  0  0  0
   62.6000   33.7670   46.8460 C   0  0  0  0  0  0  0  0  0  0  0  0
   63.0880   32.3690   47.1240 C   0  0  0  0  0  0  0  0  0  0  0  0
   63.2450   32.1140   48.9260 S   0  0  0  0  0  0  0  0  0  0  0  0
   61.7400   31.1470   49.0550 C   0  0  0  0  0  0  0  0  0  0  0  0
   61.4470   30.1070   48.2410 N   0  0  0  0  0  0  0  0  0  0  0  0
   60.2800   29.5310   48.5270 N   0  0  0  0  0  0  0  0  0  0  0  0
   59.6520   30.1130   49.5750 C   0  0  0  0  0  0  0  0  0  0  0  0
   58.5240   29.7000   50.0720 N   0  0  0  0  0  0  0  0  0  0  0  0
   57.9010   30.2120   51.2600 C   0  0  0  0  0  0  0  0  0  0  0  0
   57.4200   31.5330   51.3290 C   0  0  0  0  0  0  0  0  0  0  0  0
   56.8910   32.0260   52.5260 C   0  0  0  0  0  0  0  0  0  0  0  0
   56.8520   31.2130   53.6660 C   0  0  0  0  0  0  0  0  0  0  0  0
   57.3330   29.9040   53.6070 C   0  0  0  0  0  0  0  0  0  0  0  0
   57.8750   29.4120   52.4150 C   0  0  0  0  0  0  0  0  0  0  0  0
   60.5470   31.3860   50.2200 S   0  0  0  0  0  0  0  0  0  0  0  0
   61.2150   34.1370   46.9800 N   0  0  0  0  0  0  0  0  0  0  0  0
   60.0730   33.4650   46.4210 C   0  0  0  0  0  0  0  0  0  0  0  0
   59.4510   32.4040   47.1040 C   0  0  0  0  0  0  0  0  0  0  0  0
   58.3100   31.7960   46.5620 C   0  0  0  0  0  0  0  0  0  0  0  0
   57.7510   32.2620   45.3600 C   0  0  0  0  0  0  0  0  0  0  0  0
   56.5900   31.6060   44.8410 N   0  0  0  0  0  0  0  0  0  0  0  0
   56.4850   29.9440   44.3620 S   0  0  0  0  0  0  0  0  0  0  0  0
   56.4490   29.8730   42.8600 O   0  0  0  0  0  0  0  0  0  0  0  0
   55.2200   29.3470   44.9150 O   0  0  0  0  0  0  0  0  0  0  0  0
   57.8670   29.0320   44.9380 C   0  0  0  0  0  0  0  0  0  0  0  0
   59.1910   29.2080   44.5620 C   0  0  0  0  0  0  0  0  0  0  0  0
   60.0660   28.3360   45.2160 C   0  0  0  0  0  0  0  0  0  0  0  0
   59.4360   27.4830   46.1090 C   0  0  0  0  0  0  0  0  0  0  0  0
   57.7870   27.8080   46.0830 S   0  0  0  0  0  0  0  0  0  0  0  0
   58.3550   33.3420   44.6950 C   0  0  0  0  0  0  0  0  0  0  0  0
   59.5040   33.9450   45.2290 C   0  0  0  0  0  0  0  0  0  0  0  0
   62.3701   31.6435   46.7139 H   0  0  0  0  0  0  0  0  0  0  0  0
   64.0707   32.2269   46.6505 H   0  0  0  0  0  0  0  0  0  0  0  0
   57.4603   32.1789   50.4395 H   0  0  0  0  0  0  0  0  0  0  0  0
   56.5045   33.0548   52.5724 H   0  0  0  0  0  0  0  0  0  0  0  0
   56.4422   31.6063   54.6080 H   0  0  0  0  0  0  0  0  0  0  0  0
   57.2859   29.2597   54.4973 H   0  0  0  0  0  0  0  0  0  0  0  0
   58.2839   28.3914   52.3815 H   0  0  0  0  0  0  0  0  0  0  0  0
   59.8596   32.0517   48.0626 H   0  0  0  0  0  0  0  0  0  0  0  0
   57.8474   30.9450   47.0833 H   0  0  0  0  0  0  0  0  0  0  0  0
   59.5182   29.9565   43.8253 H   0  0  0  0  0  0  0  0  0  0  0  0
   61.1516   28.3274   45.0389 H   0  0  0  0  0  0  0  0  0  0  0  0
   59.9316   26.7220   46.7297 H   0  0  0  0  0  0  0  0  0  0  0  0
   57.9262   33.7158   43.7535 H   0  0  0  0  0  0  0  0  0  0  0  0
   59.9628   34.7999   44.7107 H   0  0  0  0  0  0  0  0  0  0  0  0
  1  2  2  0
  2  3  1  0
  3  4  1  0
  4  5  1  0
  5  6  2  0
  6  7  1  0
  7  8  1  0
  8  9  2  3
  9 10  1  0
 10 11  2  0
 11 12  1  0
 12 13  2  0
 13 14  1  0
 14 15  2  0
  8 16  1  0
  2 17  1  0
 17 18  1  0
 18 19  2  0
 19 20  1  0
 20 21  2  0
 21 22  1  0
 22 23  1  0
 23 24  2  0
 23 25  2  0
 23 26  1  0
 26 27  2  0
 27 28  1  0
 28 29  2  0
 29 30  1  0
 21 31  1  0
 31 32  2  0
 16  5  1  0
 32 18  1  0
 15 10  1  0
 30 26  1  0
  3 33  1  0
  3 34  1  0
 11 35  1  0
 12 36  1  0
 13 37  1  0
 14 38  1  0
 15 39  1  0
 19 40  1  0
 20 41  1  0
 27 42  1  0
 28 43  1  0
 29 44  1  0
 31 45  1  0
 32 46  1  0
M  CHG  3   7  -1  17  -1  22  -1
M  END
>  <UniqueID>  (38) 
36

>  <SMILES>  (38) 
O=C(CSc1n[n-]c(=Nc2ccccc2)s1)[N-]c1ccc([N-]S(=O)(=O)c2cccs2)cc1

>  <Energy>  (38) 
117.53011691455605

>  <Genealogy>  (38) 
O=C(CSc1n[n-]c(=Nc2ccccc2)s1)[N-]c1ccc([N-]S(=O)(=O)c2cccs2)cc1 (protonated)
O=C(CSc1n[n-]c(=Nc2ccccc2)s1)[N-]c1ccc([N-]S(=O)(=O)c2cccs2)cc1 (3D coordinates assigned)
O=C(CSc1n[n-]c(=Nc2ccccc2)s1)[N-]c1ccc([N-]S(=O)(=O)c2cccs2)cc1 (optimized conformer: 117.53011691455605 kcal/mol)

>  <smiles>  (38) 
O=C(CSc1n[nH]c(=Nc2ccccc2)s1)Nc1ccc(NS(=O)(=O)c2cccs2)cc1

>  <score_type>  (38) 
oracle

>  <origin>  (38) 
adg

>  <m_score__min__energy>  (38) 
-12.67

>  <m_primary>  (38) 
energy

$$$$
38:0
     RDKit          3D

 55 58  0  0  0  0  0  0  0  0999 V2000
   57.4190   33.2580   45.1560 C   0  0  0  0  0  0  0  0  0  0  0  0
   56.6310   32.1390   44.8760 O   0  0  0  0  0  0  0  0  0  0  0  0
   57.0730   30.8920   44.4790 C   0  0  0  0  0  0  0  0  0  0  0  0
   56.4550   30.1870   43.4470 C   0  0  0  0  0  0  0  0  0  0  0  0
   56.9540   28.9740   43.1140 C   0  0  0  0  0  0  0  0  0  0  0  0
   58.0500   28.4660   43.7880 C   0  0  0  0  0  0  0  0  0  0  0  0
   58.6960   29.1090   44.8100 C   0  0  0  0  0  0  0  0  0  0  0  0
   59.8560   28.6700   45.5150 C   0  0  0  0  0  0  0  0  0  0  0  0
   60.9270   28.6880   44.7830 O   0  0  0  0  0  0  0  0  0  0  0  0
   60.0210   28.2340   46.8560 N   0  0  0  0  0  0  0  0  0  0  0  0
   59.5720   26.9250   47.3120 C   0  0  0  0  0  0  0  0  0  0  0  0
   58.5850   26.1720   46.6000 C   0  0  0  0  0  0  0  0  0  0  0  0
   57.2920   26.5280   46.5550 N   0  0  0  0  0  0  0  0  0  0  0  0
   56.3130   25.8620   45.9380 C   0  0  0  0  0  0  0  0  0  0  0  0
   55.1430   26.3410   46.0010 O   0  0  0  0  0  0  0  0  0  0  0  0
   56.6170   24.7060   45.2760 C   0  0  0  0  0  0  0  0  0  0  0  0
   55.6250   24.0030   44.6140 C   0  0  0  0  0  0  0  0  0  0  0  0
   55.9970   22.8570   43.9510 C   0  0  0  0  0  0  0  0  0  0  0  0
   57.2920   22.3890   43.9210 C   0  0  0  0  0  0  0  0  0  0  0  0
   58.2340   23.1220   44.5950 C   0  0  0  0  0  0  0  0  0  0  0  0
   57.9310   24.2930   45.2900 C   0  0  0  0  0  0  0  0  0  0  0  0
   58.8720   25.0110   45.9360 N   0  0  0  0  0  0  0  0  0  0  0  0
   60.5060   29.1220   47.8940 C   0  0  0  0  0  0  0  0  0  0  0  0
   60.0770   30.4950   47.9670 C   0  0  0  0  0  0  0  0  0  0  0  0
   58.9000   31.0190   48.4090 C   0  0  0  0  0  0  0  0  0  0  0  0
   58.5710   32.3490   48.5150 C   0  0  0  0  0  0  0  0  0  0  0  0
   59.5010   33.3120   48.1460 C   0  0  0  0  0  0  0  0  0  0  0  0
   60.7110   32.8360   47.6890 C   0  0  0  0  0  0  0  0  0  0  0  0
   61.0280   31.5020   47.5880 C   0  0  0  0  0  0  0  0  0  0  0  0
   62.2630   31.1740   47.1070 O   0  0  0  0  0  0  0  0  0  0  0  0
   63.3860   31.9690   47.3960 C   0  0  0  0  0  0  0  0  0  0  0  0
   58.1800   30.3680   45.1560 C   0  0  0  0  0  0  0  0  0  0  0  0
   57.5061   33.3817   46.2455 H   0  0  0  0  0  0  0  0  0  0  0  0
   58.4200   33.1196   44.7215 H   0  0  0  0  0  0  0  0  0  0  0  0
   56.9513   34.1538   44.7215 H   0  0  0  0  0  0  0  0  0  0  0  0
   55.5859   30.6052   42.9181 H   0  0  0  0  0  0  0  0  0  0  0  0
   56.4874   28.3911   42.3062 H   0  0  0  0  0  0  0  0  0  0  0  0
   58.4280   27.4792   43.4825 H   0  0  0  0  0  0  0  0  0  0  0  0
   60.4693   26.2905   47.3583 H   0  0  0  0  0  0  0  0  0  0  0  0
   59.0448   27.1734   48.2449 H   0  0  0  0  0  0  0  0  0  0  0  0
   54.5803   24.3475   44.6181 H   0  0  0  0  0  0  0  0  0  0  0  0
   55.2222   22.2860   43.4184 H   0  0  0  0  0  0  0  0  0  0  0  0
   57.5583   21.4686   43.3806 H   0  0  0  0  0  0  0  0  0  0  0  0
   59.2764   22.7708   44.5875 H   0  0  0  0  0  0  0  0  0  0  0  0
   59.8370   24.6100   45.9240 H   0  0  0  0  0  0  0  0  0  0  0  0
   60.2308   28.6588   48.8530 H   0  0  0  0  0  0  0  0  0  0  0  0
   61.5729   29.2192   47.6445 H   0  0  0  0  0  0  0  0  0  0  0  0
   58.1276   30.2980   48.7149 H   0  0  0  0  0  0  0  0  0  0  0  0
   57.5805   32.6479   48.8885 H   0  0  0  0  0  0  0  0  0  0  0  0
   59.2852   34.3885   48.2143 H   0  0  0  0  0  0  0  0  0  0  0  0
   61.4717   33.5703   47.3857 H   0  0  0  0  0  0  0  0  0  0  0  0
   63.5049   32.0532   48.4863 H   0  0  0  0  0  0  0  0  0  0  0  0
   64.2848   31.5049   46.9639 H   0  0  0  0  0  0  0  0  0  0  0  0
   63.2469   32.9710   46.9639 H   0  0  0  0  0  0  0  0  0  0  0  0
   58.6493   30.9468   45.9652 H   0  0  0  0  0  0  0  0  0  0  0  0
  1  2  1  0
  2  3  1  0
  3  4  2  0
  4  5  1  0
  5  6  2  0
  6  7  1  0
  7  8  1  0
  8  9  2  0
  8 10  1  0
 10 11  1  0
 11 12  1  0
 12 13  2  0
 13 14  1  0
 14 15  2  0
 14 16  1  0
 16 17  2  0
 17 18  1  0
 18 19  2  0
 19 20  1  0
 20 21  2  0
 21 22  1  0
 10 23  1  0
 23 24  1  0
 24 25  2  0
 25 26  1  0
 26 27  2  0
 27 28  1  0
 28 29  2  0
 29 30  1  0
 30 31  1  0
  7 32  2  0
 32  3  1  0
 22 12  1  0
 29 24  1  0
 21 16  1  0
  1 33  1  0
  1 34  1  0
  1 35  1  0
  4 36  1  0
  5 37  1  0
  6 38  1  0
 11 39  1  0
 11 40  1  0
 17 41  1  0
 18 42  1  0
 19 43  1  0
 20 44  1  0
 22 45  1  0
 23 46  1  0
 23 47  1  0
 25 48  1  0
 26 49  1  0
 27 50  1  0
 28 51  1  0
 31 52  1  0
 31 53  1  0
 31 54  1  0
 32 55  1  0
M  END
>  <smiles>  (39) 
COc1cccc(C(=O)N(Cc2nc(=O)c3ccccc3[nH]2)Cc2ccccc2OC)c1

>  <score_type>  (39) 
oracle

>  <origin>  (39) 
adg

>  <m_score__min__energy>  (39) 
-8.8399999999999999

>  <m_primary>  (39) 
energy

$$$$
39:0
     RDKit          3D

 38 40  0  0  0  0  0  0  0  0999 V2000
   58.9492   28.8832   43.6949 H   0  0  0  0  0  0  0  0  0  0  0  0
   58.5980   29.5430   44.5020 C   0  0  0  0  0  0  0  0  0  0  0  0
   57.6040   30.4030   44.2120 C   0  0  0  0  0  0  0  0  0  0  0  0
   56.2440   29.9290   44.2710 C   0  0  0  0  0  0  0  0  0  0  0  0
   55.1520   29.5460   44.3180 N   0  0  0  0  0  0  0  0  0  0  0  0
   57.8120   31.8270   43.8610 C   0  0  0  0  0  0  0  0  0  0  0  0
   57.7170   32.1580   42.6480 O   0  0  0  0  0  0  0  0  0  0  0  0
   58.1750   32.8580   44.8700 C   0  0  0  0  0  0  0  0  0  0  0  0
   57.7870   32.6940   46.2130 C   0  0  0  0  0  0  0  0  0  0  0  0
   57.1839   31.8211   46.5033 H   0  0  0  0  0  0  0  0  0  0  0  0
   58.1610   33.6300   47.1810 C   0  0  0  0  0  0  0  0  0  0  0  0
   57.8627   33.4850   48.2298 H   0  0  0  0  0  0  0  0  0  0  0  0
   58.9130   34.7490   46.8180 C   0  0  0  0  0  0  0  0  0  0  0  0
   59.2122   35.4822   47.5815 H   0  0  0  0  0  0  0  0  0  0  0  0
   59.2850   34.9370   45.4860 C   0  0  0  0  0  0  0  0  0  0  0  0
   59.8711   35.8229   45.2002 H   0  0  0  0  0  0  0  0  0  0  0  0
   58.9150   34.0030   44.5140 C   0  0  0  0  0  0  0  0  0  0  0  0
   59.2034   34.1629   43.4646 H   0  0  0  0  0  0  0  0  0  0  0  0
   59.2540   29.4160   45.8190 C   0  0  0  0  0  0  0  0  0  0  0  0
   59.9150   30.3680   46.4330 O   0  0  0  0  0  0  0  0  0  0  0  0
   60.3700   29.8880   47.5650 C   0  0  0  0  0  0  0  0  0  0  0  0
   61.1880   30.6220   48.4850 N   0  0  0  0  0  0  0  0  0  0  0  0
   61.2950   30.2440   49.4530 H   0  0  0  0  0  0  0  0  0  0  0  0
   62.0080   31.7300   48.0840 C   0  0  0  0  0  0  0  0  0  0  0  0
   61.5390   32.6170   47.1030 C   0  0  0  0  0  0  0  0  0  0  0  0
   60.5487   32.4589   46.6509 H   0  0  0  0  0  0  0  0  0  0  0  0
   62.3240   33.7010   46.6970 C   0  0  0  0  0  0  0  0  0  0  0  0
   61.9438   34.4010   45.9384 H   0  0  0  0  0  0  0  0  0  0  0  0
   63.5910   33.8960   47.2540 C   0  0  0  0  0  0  0  0  0  0  0  0
   64.2057   34.7514   46.9373 H   0  0  0  0  0  0  0  0  0  0  0  0
   64.0760   33.0040   48.2130 C   0  0  0  0  0  0  0  0  0  0  0  0
   65.0769   33.1528   48.6444 H   0  0  0  0  0  0  0  0  0  0  0  0
   63.2920   31.9220   48.6260 C   0  0  0  0  0  0  0  0  0  0  0  0
   63.6806   31.2187   49.3772 H   0  0  0  0  0  0  0  0  0  0  0  0
   59.9930   28.5700   47.7190 C   0  0  0  0  0  0  0  0  0  0  0  0
   60.2240   27.9041   48.5636 H   0  0  0  0  0  0  0  0  0  0  0  0
   59.2640   28.2650   46.5870 C   0  0  0  0  0  0  0  0  0  0  0  0
   58.7882   27.3032   46.3449 H   0  0  0  0  0  0  0  0  0  0  0  0
  1  2  1  0
  2  3  2  0
  3  4  1  0
  4  5  3  0
  3  6  1  0
  6  7  2  0
  6  8  1  0
  8  9  2  0
  9 10  1  0
  9 11  1  0
 11 12  1  0
 11 13  2  0
 13 14  1  0
 13 15  1  0
 15 16  1  0
 15 17  2  0
 17 18  1  0
  2 19  1  0
 19 20  1  0
 20 21  1  0
 21 22  1  0
 22 23  1  0
 22 24  1  0
 24 25  2  0
 25 26  1  0
 25 27  1  0
 27 28  1  0
 27 29  2  0
 29 30  1  0
 29 31  1  0
 31 32  1  0
 31 33  2  0
 33 34  1  0
 21 35  2  0
 35 36  1  0
 35 37  1  0
 37 38  1  0
 17  8  1  0
 37 19  2  0
 33 24  1  0
M  END
>  <UniqueID>  (40) 
37

>  <SMILES>  (40) 
N#C/C(=C/c1ccc(Nc2ccccc2)o1)C(=O)c1ccccc1

>  <Energy>  (40) 
73.06642236316769

>  <Genealogy>  (40) 
N#C/C(=C/c1ccc(Nc2ccccc2)o1)C(=O)c1ccccc1 (cis-trans isomerization)
N#C/C(=C/c1ccc(Nc2ccccc2)o1)C(=O)c1ccccc1 (3D coordinates assigned)
N#C/C(=C/c1ccc(Nc2ccccc2)o1)C(=O)c1ccccc1 (optimized conformer: 73.06642236316769 kcal/mol)

>  <smiles>  (40) 
N#CC(=Cc1ccc(Nc2ccccc2)o1)C(=O)c1ccccc1

>  <score_type>  (40) 
oracle

>  <origin>  (40) 
adg

>  <m_score__min__energy>  (40) 
-8.1999999999999993

>  <m_primary>  (40) 
energy

$$$$
40:0
     RDKit          3D

 54 56  0  0  0  0  0  0  0  0999 V2000
   60.3940   27.7190   48.1350 C   0  0  0  0  0  0  0  0  0  0  0  0
   59.9490   29.1390   47.9500 C   0  0  0  0  0  0  0  0  0  0  0  0
   59.0450   29.7080   48.8570 C   0  0  0  0  0  0  0  0  0  0  0  0
   58.6310   31.0340   48.7050 C   0  0  0  0  0  0  0  0  0  0  0  0
   59.1140   31.8120   47.6400 C   0  0  0  0  0  0  0  0  0  0  0  0
   58.6940   33.1800   47.4850 N   0  0  0  0  0  0  0  0  0  0  0  0
   57.4190   33.4910   46.8300 C   0  0  0  0  0  0  0  0  0  0  0  0
   57.6080   33.6810   45.3580 C   0  0  0  0  0  0  0  0  0  0  0  0
   56.9590   34.5750   44.7520 O   0  0  0  0  0  0  0  0  0  0  0  0
   58.5470   32.8600   44.6550 N   0  0  0  0  0  0  0  0  0  0  0  0
   58.1740   31.9650   43.5640 C   0  0  0  0  0  0  0  0  0  0  0  0
   57.8080   30.6100   44.1030 C   0  0  0  0  0  0  0  0  0  0  0  0
   58.7720   29.5920   44.1940 C   0  0  0  0  0  0  0  0  0  0  0  0
   58.4190   28.3290   44.6790 C   0  0  0  0  0  0  0  0  0  0  0  0
   57.0980   28.0670   45.0690 C   0  0  0  0  0  0  0  0  0  0  0  0
   56.6500   26.4860   45.6980 S   0  0  0  0  0  0  0  0  0  0  0  0
   57.0080   25.2770   44.5160 N   0  0  0  0  0  0  0  0  0  0  0  0
   55.1820   26.4530   46.0140 O   0  0  0  0  0  0  0  0  0  0  0  0
   57.4220   26.2080   46.9580 O   0  0  0  0  0  0  0  0  0  0  0  0
   56.1350   29.0810   44.9790 C   0  0  0  0  0  0  0  0  0  0  0  0
   56.4880   30.3440   44.4950 C   0  0  0  0  0  0  0  0  0  0  0  0
   59.7530   34.4800   47.9650 S   0  0  0  0  0  0  0  0  0  0  0  0
   59.6170   35.6320   47.0080 O   0  0  0  0  0  0  0  0  0  0  0  0
   59.3670   34.9720   49.3330 O   0  0  0  0  0  0  0  0  0  0  0  0
   61.4230   33.9230   47.9830 C   0  0  0  0  0  0  0  0  0  0  0  0
   62.1310   33.8000   46.7780 C   0  0  0  0  0  0  0  0  0  0  0  0
   63.4560   33.3510   46.7840 C   0  0  0  0  0  0  0  0  0  0  0  0
   64.0800   33.0270   47.9920 C   0  0  0  0  0  0  0  0  0  0  0  0
   63.3800   33.1530   49.1960 C   0  0  0  0  0  0  0  0  0  0  0  0
   62.0550   33.5990   49.1930 C   0  0  0  0  0  0  0  0  0  0  0  0
   60.0280   31.2440   46.7380 C   0  0  0  0  0  0  0  0  0  0  0  0
   60.4430   29.9160   46.8920 C   0  0  0  0  0  0  0  0  0  0  0  0
   60.4645   27.4939   49.2094 H   0  0  0  0  0  0  0  0  0  0  0  0
   59.6649   27.0422   47.6656 H   0  0  0  0  0  0  0  0  0  0  0  0
   61.3790   27.5793   47.6656 H   0  0  0  0  0  0  0  0  0  0  0  0
   58.6589   29.1072   49.6937 H   0  0  0  0  0  0  0  0  0  0  0  0
   57.9224   31.4712   49.4239 H   0  0  0  0  0  0  0  0  0  0  0  0
   56.7157   32.6623   46.9989 H   0  0  0  0  0  0  0  0  0  0  0  0
   57.0226   34.4240   47.2570 H   0  0  0  0  0  0  0  0  0  0  0  0
   57.3117   32.3870   43.0271 H   0  0  0  0  0  0  0  0  0  0  0  0
   59.0288   31.8591   42.8798 H   0  0  0  0  0  0  0  0  0  0  0  0
   59.8084   29.7893   43.8825 H   0  0  0  0  0  0  0  0  0  0  0  0
   59.1801   27.5384   44.7548 H   0  0  0  0  0  0  0  0  0  0  0  0
   58.0460   25.2480   44.4140 H   0  0  0  0  0  0  0  0  0  0  0  0
   56.6250   25.6190   43.6050 H   0  0  0  0  0  0  0  0  0  0  0  0
   55.0987   28.8826   45.2900 H   0  0  0  0  0  0  0  0  0  0  0  0
   55.7260   31.1339   44.4212 H   0  0  0  0  0  0  0  0  0  0  0  0
   61.6431   34.0572   45.8263 H   0  0  0  0  0  0  0  0  0  0  0  0
   64.0072   33.2529   45.8372 H   0  0  0  0  0  0  0  0  0  0  0  0
   65.1215   32.6730   47.9956 H   0  0  0  0  0  0  0  0  0  0  0  0
   63.8725   32.9009   50.1467 H   0  0  0  0  0  0  0  0  0  0  0  0
   61.5066   33.6961   50.1416 H   0  0  0  0  0  0  0  0  0  0  0  0
   60.4203   31.8463   45.9053 H   0  0  0  0  0  0  0  0  0  0  0  0
   61.1595   29.4800   46.1803 H   0  0  0  0  0  0  0  0  0  0  0  0
  1  2  1  0
  2  3  2  0
  3  4  1  0
  4  5  2  0
  5  6  1  0
  6  7  1  0
  7  8  1  0
  8  9  2  0
  8 10  1  0
 10 11  1  0
 11 12  1  0
 12 13  2  0
 13 14  1  0
 14 15  2  0
 15 16  1  0
 16 17  1  0
 16 18  2  0
 16 19  2  0
 15 20  1  0
 20 21  2  0
  6 22  1  0
 22 23  2  0
 22 24  2  0
 22 25  1  0
 25 26  2  0
 26 27  1  0
 27 28  2  0
 28 29  1  0
 29 30  2  0
  5 31  1  0
 31 32  2  0
 32  2  1  0
 21 12  1  0
 30 25  1  0
  1 33  1  0
  1 34  1  0
  1 35  1  0
  3 36  1  0
  4 37  1  0
  7 38  1  0
  7 39  1  0
 11 40  1  0
 11 41  1  0
 13 42  1  0
 14 43  1  0
 17 44  1  0
 17 45  1  0
 20 46  1  0
 21 47  1  0
 26 48  1  0
 27 49  1  0
 28 50  1  0
 29 51  1  0
 30 52  1  0
 31 53  1  0
 32 54  1  0
M  CHG  1  10  -1
M  END
>  <UniqueID>  (41) 
38

>  <SMILES>  (41) 
Cc1ccc(N(CC(=O)[N-]Cc2ccc(S(N)(=O)=O)cc2)S(=O)(=O)c2ccccc2)cc1

>  <Energy>  (41) 
56.08865525465624

>  <Genealogy>  (41) 
Cc1ccc(N(CC(=O)[N-]Cc2ccc(S(N)(=O)=O)cc2)S(=O)(=O)c2ccccc2)cc1 (protonated)
Cc1ccc(N(CC(=O)[N-]Cc2ccc(S(N)(=O)=O)cc2)S(=O)(=O)c2ccccc2)cc1 (3D coordinates assigned)
Cc1ccc(N(CC(=O)[N-]Cc2ccc(S(N)(=O)=O)cc2)S(=O)(=O)c2ccccc2)cc1 (optimized conformer: 56.08865525465624 kcal/mol)

>  <smiles>  (41) 
Cc1ccc(N(CC(=O)NCc2ccc(S(N)(=O)=O)cc2)S(=O)(=O)c2ccccc2)cc1

>  <score_type>  (41) 
oracle

>  <origin>  (41) 
adg

>  <m_score__min__energy>  (41) 
-10.869999999999999

>  <m_primary>  (41) 
energy

$$$$
41:0
     RDKit          3D

 45 46  0  0  0  0  0  0  0  0999 V2000
   57.5444   28.1574   45.5177 H   0  0  0  0  0  0  0  0  0  0  0  0
   58.1750   28.9000   45.0070 C   0  0  0  0  0  0  0  0  0  0  0  0
   59.4050   29.0550   45.3860 N   0  0  0  0  0  0  0  0  0  0  0  0
   59.8980   30.2870   45.7570 O   0  0  0  0  0  0  0  0  0  0  0  0
   60.9250   30.3850   46.7310 C   0  0  0  0  0  0  0  0  0  0  0  0
   61.8609   30.7017   46.2475 H   0  0  0  0  0  0  0  0  0  0  0  0
   61.0745   29.4054   47.2085 H   0  0  0  0  0  0  0  0  0  0  0  0
   60.5290   31.3980   47.7720 C   0  0  0  0  0  0  0  0  0  0  0  0
   59.3040   31.2450   48.4400 C   0  0  0  0  0  0  0  0  0  0  0  0
   58.6615   30.3814   48.2131 H   0  0  0  0  0  0  0  0  0  0  0  0
   58.8980   32.1790   49.3870 C   0  0  0  0  0  0  0  0  0  0  0  0
   57.9393   32.0481   49.9101 H   0  0  0  0  0  0  0  0  0  0  0  0
   59.7010   33.2790   49.6750 C   0  0  0  0  0  0  0  0  0  0  0  0
   59.3744   34.0067   50.4325 H   0  0  0  0  0  0  0  0  0  0  0  0
   60.9290   33.4720   49.0070 C   0  0  0  0  0  0  0  0  0  0  0  0
   61.7380   34.5840   49.2950 O   0  0  0  0  0  0  0  0  0  0  0  0
   62.8980   34.5560   50.1210 C   0  0  0  0  0  0  0  0  0  0  0  0
   62.5954   34.5633   51.1785 H   0  0  0  0  0  0  0  0  0  0  0  0
   63.4756   33.6437   49.9112 H   0  0  0  0  0  0  0  0  0  0  0  0
   63.5189   35.4394   49.9112 H   0  0  0  0  0  0  0  0  0  0  0  0
   61.3430   32.5250   48.0310 C   0  0  0  0  0  0  0  0  0  0  0  0
   62.5360   32.6480   47.2890 O   0  0  0  0  0  0  0  0  0  0  0  0
   63.0180   33.8190   46.6380 C   0  0  0  0  0  0  0  0  0  0  0  0
   63.3226   34.5590   47.3927 H   0  0  0  0  0  0  0  0  0  0  0  0
   63.8824   33.5595   46.0092 H   0  0  0  0  0  0  0  0  0  0  0  0
   62.2213   34.2432   46.0092 H   0  0  0  0  0  0  0  0  0  0  0  0
   57.5920   29.7120   43.8860 C   0  0  0  0  0  0  0  0  0  0  0  0
   58.4041   30.0476   43.2242 H   0  0  0  0  0  0  0  0  0  0  0  0
   56.8789   29.0844   43.3314 H   0  0  0  0  0  0  0  0  0  0  0  0
   56.8610   30.9150   44.4180 C   0  0  0  0  0  0  0  0  0  0  0  0
   55.6040   30.8600   44.4990 O   0  0  0  0  0  0  0  0  0  0  0  0
   57.5720   32.1380   44.8830 C   0  0  0  0  0  0  0  0  0  0  0  0
   58.4370   32.8200   44.0070 C   0  0  0  0  0  0  0  0  0  0  0  0
   58.5916   32.4372   42.9874 H   0  0  0  0  0  0  0  0  0  0  0  0
   59.1020   33.9790   44.4190 C   0  0  0  0  0  0  0  0  0  0  0  0
   59.7851   34.4934   43.7271 H   0  0  0  0  0  0  0  0  0  0  0  0
   58.9020   34.4890   45.7110 C   0  0  0  0  0  0  0  0  0  0  0  0
   59.6470   35.7100   46.1650 C   0  0  0  0  0  0  0  0  0  0  0  0
   59.6656   35.7405   47.2644 H   0  0  0  0  0  0  0  0  0  0  0  0
   60.6774   35.6745   45.7817 H   0  0  0  0  0  0  0  0  0  0  0  0
   59.1440   36.6101   45.7817 H   0  0  0  0  0  0  0  0  0  0  0  0
   58.0590   33.8040   46.5970 C   0  0  0  0  0  0  0  0  0  0  0  0
   57.9182   34.1818   47.6205 H   0  0  0  0  0  0  0  0  0  0  0  0
   57.3960   32.6430   46.1870 C   0  0  0  0  0  0  0  0  0  0  0  0
   56.7308   32.1189   46.8890 H   0  0  0  0  0  0  0  0  0  0  0  0
  1  2  1  0
  2  3  2  0
  3  4  1  0
  4  5  1  0
  5  6  1  0
  5  7  1  0
  5  8  1  0
  8  9  2  0
  9 10  1  0
  9 11  1  0
 11 12  1  0
 11 13  2  0
 13 14  1  0
 13 15  1  0
 15 16  1  0
 16 17  1  0
 17 18  1  0
 17 19  1  0
 17 20  1  0
 15 21  2  0
 21 22  1  0
 22 23  1  0
 23 24  1  0
 23 25  1  0
 23 26  1  0
  2 27  1  0
 27 28  1  0
 27 29  1  0
 27 30  1  0
 30 31  2  0
 30 32  1  0
 32 33  2  0
 33 34  1  0
 33 35  1  0
 35 36  1  0
 35 37  2  0
 37 38  1  0
 38 39  1  0
 38 40  1  0
 38 41  1  0
 37 42  1  0
 42 43  1  0
 42 44  2  0
 44 45  1  0
 21  8  1  0
 44 32  1  0
M  END
>  <UniqueID>  (42) 
39

>  <SMILES>  (42) 
COc1cccc(CO/N=C\CC(=O)c2ccc(C)cc2)c1OC

>  <Energy>  (42) 
42.6309570311948

>  <Genealogy>  (42) 
COc1cccc(CO/N=C\CC(=O)c2ccc(C)cc2)c1OC (cis-trans isomerization)
COc1cccc(CO/N=C\CC(=O)c2ccc(C)cc2)c1OC (3D coordinates assigned)
COc1cccc(CO/N=C\CC(=O)c2ccc(C)cc2)c1OC (optimized conformer: 42.6309570311948 kcal/mol)

>  <smiles>  (42) 
COc1cccc(CON=CCC(=O)c2ccc(C)cc2)c1OC

>  <score_type>  (42) 
oracle

>  <origin>  (42) 
adg

>  <m_score__min__energy>  (42) 
-8.7599999999999998

>  <m_primary>  (42) 
energy

$$$$
42:0
     RDKit          3D

 43 45  0  0  0  0  0  0  0  0999 V2000
   61.1030   34.2100   47.9890 C   0  0  0  0  0  0  0  0  0  0  0  0
   60.2370   34.6730   46.9590 O   0  0  0  0  0  0  0  0  0  0  0  0
   59.2480   33.8900   46.3430 C   0  0  0  0  0  0  0  0  0  0  0  0
   58.7360   34.1860   45.0660 C   0  0  0  0  0  0  0  0  0  0  0  0
   57.7500   33.3740   44.4980 C   0  0  0  0  0  0  0  0  0  0  0  0
   57.2480   32.2700   45.1970 C   0  0  0  0  0  0  0  0  0  0  0  0
   56.2560   31.4470   44.5670 N   0  0  0  0  0  0  0  0  0  0  0  0
   56.3000   30.0210   44.4410 C   0  0  0  0  0  0  0  0  0  0  0  0
   55.2830   29.3210   44.6960 O   0  0  0  0  0  0  0  0  0  0  0  0
   57.5390   29.3620   43.9190 C   0  0  0  0  0  0  0  0  0  0  0  0
   58.3750   28.8680   45.0320 N   0  0  0  0  0  0  0  0  0  0  0  0
   59.4520   29.6300   45.4000 C   0  0  0  0  0  0  0  0  0  0  0  0
   60.2960   29.2540   46.4510 C   0  0  0  0  0  0  0  0  0  0  0  0
   61.4440   30.1300   46.7840 C   0  0  0  0  0  0  0  0  0  0  0  0
   61.3330   31.0860   47.5960 O   0  0  0  0  0  0  0  0  0  0  0  0
   60.0220   28.0650   47.1480 C   0  0  0  0  0  0  0  0  0  0  0  0
   60.7670   27.6990   48.0970 O   0  0  0  0  0  0  0  0  0  0  0  0
   58.9090   27.2870   46.7860 C   0  0  0  0  0  0  0  0  0  0  0  0
   58.6010   26.1000   47.4680 C   0  0  0  0  0  0  0  0  0  0  0  0
   57.4870   25.3520   47.1050 C   0  0  0  0  0  0  0  0  0  0  0  0
   56.6690   25.7950   46.0630 C   0  0  0  0  0  0  0  0  0  0  0  0
   55.4810   24.9770   45.6460 C   0  0  0  0  0  0  0  0  0  0  0  0
   56.9880   26.9360   45.3850 N   0  0  0  0  0  0  0  0  0  0  0  0
   58.0780   27.7040   45.7150 C   0  0  0  0  0  0  0  0  0  0  0  0
   57.7760   31.9600   46.4620 C   0  0  0  0  0  0  0  0  0  0  0  0
   58.7630   32.7710   47.0300 C   0  0  0  0  0  0  0  0  0  0  0  0
   60.6642   34.4446   48.9700 H   0  0  0  0  0  0  0  0  0  0  0  0
   61.2336   33.1217   47.8966 H   0  0  0  0  0  0  0  0  0  0  0  0
   62.0806   34.7058   47.8966 H   0  0  0  0  0  0  0  0  0  0  0  0
   59.1129   35.0591   44.5131 H   0  0  0  0  0  0  0  0  0  0  0  0
   57.3655   33.6045   43.4935 H   0  0  0  0  0  0  0  0  0  0  0  0
   57.2547   28.5151   43.2772 H   0  0  0  0  0  0  0  0  0  0  0  0
   58.1166   30.0999   43.3428 H   0  0  0  0  0  0  0  0  0  0  0  0
   59.6591   30.5626   44.8547 H   0  0  0  0  0  0  0  0  0  0  0  0
   62.4181   29.9402   46.3096 H   0  0  0  0  0  0  0  0  0  0  0  0
   59.2438   25.7600   48.2933 H   0  0  0  0  0  0  0  0  0  0  0  0
   57.2512   24.4173   47.6349 H   0  0  0  0  0  0  0  0  0  0  0  0
   54.9536   24.6139   46.5405 H   0  0  0  0  0  0  0  0  0  0  0  0
   54.8001   25.5987   45.0460 H   0  0  0  0  0  0  0  0  0  0  0  0
   55.8188   24.1192   45.0460 H   0  0  0  0  0  0  0  0  0  0  0  0
   56.3560   27.2080   44.6020 H   0  0  0  0  0  0  0  0  0  0  0  0
   57.4116   31.0766   47.0068 H   0  0  0  0  0  0  0  0  0  0  0  0
   59.1620   32.5276   48.0257 H   0  0  0  0  0  0  0  0  0  0  0  0
  1  2  1  0
  2  3  1  0
  3  4  2  0
  4  5  1  0
  5  6  2  0
  6  7  1  0
  7  8  1  0
  8  9  2  0
  8 10  1  0
 10 11  1  0
 11 12  1  0
 12 13  2  0
 13 14  1  0
 14 15  2  0
 13 16  1  0
 16 17  2  0
 16 18  1  0
 18 19  2  0
 19 20  1  0
 20 21  2  0
 21 22  1  0
 21 23  1  0
 23 24  2  0
  6 25  1  0
 25 26  2  0
 26  3  1  0
 24 11  1  0
 24 18  1  0
  1 27  1  0
  1 28  1  0
  1 29  1  0
  4 30  1  0
  5 31  1  0
 10 32  1  0
 10 33  1  0
 12 34  1  0
 14 35  1  0
 19 36  1  0
 20 37  1  0
 22 38  1  0
 22 39  1  0
 22 40  1  0
 23 41  1  0
 25 42  1  0
 26 43  1  0
M  CHG  2   7  -1  23   1
M  END
>  <UniqueID>  (43) 
40

>  <SMILES>  (43) 
COc1ccc([N-]C(=O)Cn2cc(C=O)c(=O)c3ccc(C)[nH+]c32)cc1

>  <Energy>  (43) 
56.56059829372163

>  <Genealogy>  (43) 
COc1ccc([N-]C(=O)Cn2cc(C=O)c(=O)c3ccc(C)[nH+]c32)cc1 (protonated)
COc1ccc([N-]C(=O)Cn2cc(C=O)c(=O)c3ccc(C)[nH+]c32)cc1 (3D coordinates assigned)
COc1ccc([N-]C(=O)Cn2cc(C=O)c(=O)c3ccc(C)[nH+]c32)cc1 (optimized conformer: 56.56059829372163 kcal/mol)

>  <smiles>  (43) 
COc1ccc(NC(=O)Cn2cc(C=O)c(=O)c3ccc(C)nc32)cc1

>  <score_type>  (43) 
oracle

>  <origin>  (43) 
adg

>  <m_score__min__energy>  (43) 
-7.8099999999999996

>  <m_primary>  (43) 
energy

$$$$
43:0
     RDKit          3D

 52 55  0  0  0  0  0  0  0  0999 V2000
   66.7000   31.7330   50.7650 C   0  0  0  0  0  0  0  0  0  0  0  0
   66.0960   32.9350   50.2990 O   0  0  0  0  0  0  0  0  0  0  0  0
   64.7760   33.0310   49.8320 C   0  0  0  0  0  0  0  0  0  0  0  0
   63.7350   32.7920   50.7360 C   0  0  0  0  0  0  0  0  0  0  0  0
   62.4010   32.8720   50.3260 C   0  0  0  0  0  0  0  0  0  0  0  0
   62.0900   33.1960   48.9980 C   0  0  0  0  0  0  0  0  0  0  0  0
   60.7540   33.2710   48.5760 C   0  0  0  0  0  0  0  0  0  0  0  0
   60.4460   33.5690   47.2370 C   0  0  0  0  0  0  0  0  0  0  0  0
   59.0320   33.5930   46.7920 C   0  0  0  0  0  0  0  0  0  0  0  0
   58.2350   34.4160   47.3130 O   0  0  0  0  0  0  0  0  0  0  0  0
   58.5460   32.7220   45.7600 N   0  0  0  0  0  0  0  0  0  0  0  0
   58.7950   31.3110   45.6590 C   0  0  0  0  0  0  0  0  0  0  0  0
   60.0230   30.8200   46.1160 C   0  0  0  0  0  0  0  0  0  0  0  0
   60.2900   29.4500   46.0970 C   0  0  0  0  0  0  0  0  0  0  0  0
   59.3400   28.5520   45.5960 C   0  0  0  0  0  0  0  0  0  0  0  0
   59.5920   27.0680   45.6430 C   0  0  0  0  0  0  0  0  0  0  0  0
   58.3140   26.3410   45.7060 N   0  0  0  0  0  0  0  0  0  0  0  0
   57.9890   25.4760   44.6980 C   0  0  0  0  0  0  0  0  0  0  0  0
   56.7690   24.8040   44.7070 C   0  0  0  0  0  0  0  0  0  0  0  0
   55.8880   25.0370   45.7580 C   0  0  0  0  0  0  0  0  0  0  0  0
   54.7760   24.4440   45.7910 O   0  0  0  0  0  0  0  0  0  0  0  0
   56.2280   25.9060   46.7450 N   0  0  0  0  0  0  0  0  0  0  0  0
   57.4230   26.5580   46.7270 C   0  0  0  0  0  0  0  0  0  0  0  0
   57.6990   27.3640   47.6580 O   0  0  0  0  0  0  0  0  0  0  0  0
   58.1230   29.0420   45.0980 C   0  0  0  0  0  0  0  0  0  0  0  0
   57.8460   30.4230   45.1080 C   0  0  0  0  0  0  0  0  0  0  0  0
   56.6550   30.9410   44.5710 O   0  0  0  0  0  0  0  0  0  0  0  0
   55.7710   30.2360   43.7060 C   0  0  0  0  0  0  0  0  0  0  0  0
   55.0410   29.3090   44.4290 F   0  0  0  0  0  0  0  0  0  0  0  0
   56.5130   29.5730   42.7470 F   0  0  0  0  0  0  0  0  0  0  0  0
   61.4900   33.8320   46.3330 C   0  0  0  0  0  0  0  0  0  0  0  0
   62.8220   33.7620   46.7470 C   0  0  0  0  0  0  0  0  0  0  0  0
   63.1330   33.4400   48.0750 C   0  0  0  0  0  0  0  0  0  0  0  0
   64.4700   33.3560   48.4960 C   0  0  0  0  0  0  0  0  0  0  0  0
   66.7031   31.7267   51.8650 H   0  0  0  0  0  0  0  0  0  0  0  0
   66.1292   30.8685   50.3950 H   0  0  0  0  0  0  0  0  0  0  0  0
   67.7343   31.6750   50.3950 H   0  0  0  0  0  0  0  0  0  0  0  0
   63.9689   32.5384   51.7805 H   0  0  0  0  0  0  0  0  0  0  0  0
   61.5930   32.6802   51.0474 H   0  0  0  0  0  0  0  0  0  0  0  0
   59.9424   33.0955   49.2974 H   0  0  0  0  0  0  0  0  0  0  0  0
   60.7839   31.5191   46.4932 H   0  0  0  0  0  0  0  0  0  0  0  0
   61.2513   29.0743   46.4774 H   0  0  0  0  0  0  0  0  0  0  0  0
   60.1402   26.7630   44.7394 H   0  0  0  0  0  0  0  0  0  0  0  0
   60.1860   26.8313   46.5381 H   0  0  0  0  0  0  0  0  0  0  0  0
   58.6972   25.3094   43.8729 H   0  0  0  0  0  0  0  0  0  0  0  0
   56.5077   24.1037   43.8999 H   0  0  0  0  0  0  0  0  0  0  0  0
   55.5580   26.0790   47.5310 H   0  0  0  0  0  0  0  0  0  0  0  0
   57.3776   28.3403   44.6956 H   0  0  0  0  0  0  0  0  0  0  0  0
   55.0830   30.9502   43.2300 H   0  0  0  0  0  0  0  0  0  0  0  0
   61.2558   34.0951   45.2909 H   0  0  0  0  0  0  0  0  0  0  0  0
   63.6303   33.9604   46.0278 H   0  0  0  0  0  0  0  0  0  0  0  0
   65.2824   33.5449   47.7789 H   0  0  0  0  0  0  0  0  0  0  0  0
  1  2  1  0
  2  3  1  0
  3  4  2  0
  4  5  1  0
  5  6  2  0
  6  7  1  0
  7  8  2  0
  8  9  1  0
  9 10  2  0
  9 11  1  0
 11 12  1  0
 12 13  2  0
 13 14  1  0
 14 15  2  0
 15 16  1  0
 16 17  1  0
 17 18  1  0
 18 19  2  0
 19 20  1  0
 20 21  2  0
 20 22  1  0
 22 23  1  0
 23 24  2  0
 15 25  1  0
 25 26  2  0
 26 27  1  0
 27 28  1  0
 28 29  1  0
 28 30  1  0
  8 31  1  0
 31 32  2  0
 32 33  1  0
 33 34  2  0
 34  3  1  0
 33  6  1  0
 26 12  1  0
 23 17  1  0
  1 35  1  0
  1 36  1  0
  1 37  1  0
  4 38  1  0
  5 39  1  0
  7 40  1  0
 13 41  1  0
 14 42  1  0
 16 43  1  0
 16 44  1  0
 18 45  1  0
 19 46  1  0
 22 47  1  0
 25 48  1  0
 28 49  1  0
 31 50  1  0
 32 51  1  0
 34 52  1  0
M  CHG  1  11  -1
M  END
>  <UniqueID>  (44) 
41

>  <SMILES>  (44) 
COc1ccc2cc(C(=O)[N-]c3ccc(Cn4ccc(=O)[nH]c4=O)cc3OC(F)F)ccc2c1

>  <Energy>  (44) 
67.24274509616474

>  <Genealogy>  (44) 
COc1ccc2cc(C(=O)[N-]c3ccc(Cn4ccc(=O)[nH]c4=O)cc3OC(F)F)ccc2c1 (protonated)
COc1ccc2cc(C(=O)[N-]c3ccc(Cn4ccc(=O)[nH]c4=O)cc3OC(F)F)ccc2c1 (3D coordinates assigned)
COc1ccc2cc(C(=O)[N-]c3ccc(Cn4ccc(=O)[nH]c4=O)cc3OC(F)F)ccc2c1 (optimized conformer: 67.24274509616474 kcal/mol)

>  <smiles>  (44) 
COc1ccc2cc(C(=O)Nc3ccc(Cn4ccc(=O)[nH]c4=O)cc3OC(F)F)ccc2c1

>  <score_type>  (44) 
oracle

>  <origin>  (44) 
adg

>  <m_score__min__energy>  (44) 
-10.279999999999999

>  <m_primary>  (44) 
energy

$$$$
44:0
     RDKit          3D

 57 61  0  0  0  0  0  0  0  0999 V2000
   58.1250   26.3520   42.3890 O   0  0  0  0  0  0  0  0  0  0  0  0
   57.9490   26.7630   43.5680 C   0  0  0  0  0  0  0  0  0  0  0  0
   57.9610   28.2160   43.8600 C   0  0  0  0  0  0  0  0  0  0  0  0
   59.0270   28.7950   44.5720 C   0  0  0  0  0  0  0  0  0  0  0  0
   59.0320   30.1640   44.8520 C   0  0  0  0  0  0  0  0  0  0  0  0
   57.9760   30.9780   44.4210 C   0  0  0  0  0  0  0  0  0  0  0  0
   57.9950   32.7090   44.7610 S   0  0  0  0  0  0  0  0  0  0  0  0
   58.2840   33.4640   43.4930 O   0  0  0  0  0  0  0  0  0  0  0  0
   56.6370   33.1280   45.2510 O   0  0  0  0  0  0  0  0  0  0  0  0
   59.1990   33.1160   45.9600 N   0  0  0  0  0  0  0  0  0  0  0  0
   59.1510   34.5540   46.2690 C   0  0  0  0  0  0  0  0  0  0  0  0
   60.3610   34.9590   47.1330 C   0  0  0  0  0  0  0  0  0  0  0  0
   60.9690   33.7700   47.9150 C   0  0  0  0  0  0  0  0  0  0  0  0
   59.8490   32.8150   48.3670 C   0  0  0  0  0  0  0  0  0  0  0  0
   58.9980   32.3070   47.1810 C   0  0  0  0  0  0  0  0  0  0  0  0
   61.8610   33.0680   47.0720 O   0  0  0  0  0  0  0  0  0  0  0  0
   63.0500   32.9580   47.7830 C   0  0  0  0  0  0  0  0  0  0  0  0
   62.9860   33.9920   48.8630 C   0  0  0  0  0  0  0  0  0  0  0  0
   61.6350   34.2660   49.0580 O   0  0  0  0  0  0  0  0  0  0  0  0
   56.9100   30.4060   43.7160 C   0  0  0  0  0  0  0  0  0  0  0  0
   56.9000   29.0370   43.4390 C   0  0  0  0  0  0  0  0  0  0  0  0
   57.7390   25.8070   44.6180 N   0  0  0  0  0  0  0  0  0  0  0  0
   58.1700   26.1870   45.9690 C   0  0  0  0  0  0  0  0  0  0  0  0
   57.4600   25.3450   47.0290 C   0  0  0  0  0  0  0  0  0  0  0  0
   57.6900   23.8570   46.7670 C   0  0  0  0  0  0  0  0  0  0  0  0
   57.2980   23.4830   45.3600 C   0  0  0  0  0  0  0  0  0  0  0  0
   56.9320   22.1600   45.0750 C   0  0  0  0  0  0  0  0  0  0  0  0
   56.5770   21.7910   43.7760 C   0  0  0  0  0  0  0  0  0  0  0  0
   56.5920   22.7370   42.7510 C   0  0  0  0  0  0  0  0  0  0  0  0
   56.9740   24.0540   43.0180 C   0  0  0  0  0  0  0  0  0  0  0  0
   57.3520   24.4420   44.3210 C   0  0  0  0  0  0  0  0  0  0  0  0
   59.8629   28.1654   44.9109 H   0  0  0  0  0  0  0  0  0  0  0  0
   59.8689   30.6048   45.4135 H   0  0  0  0  0  0  0  0  0  0  0  0
   59.1680   35.1271   45.3302 H   0  0  0  0  0  0  0  0  0  0  0  0
   58.2272   34.7683   46.8263 H   0  0  0  0  0  0  0  0  0  0  0  0
   61.1362   35.3797   46.4757 H   0  0  0  0  0  0  0  0  0  0  0  0
   60.0074   35.6932   47.8719 H   0  0  0  0  0  0  0  0  0  0  0  0
   60.3038   31.9502   48.8722 H   0  0  0  0  0  0  0  0  0  0  0  0
   59.1846   33.3717   49.0442 H   0  0  0  0  0  0  0  0  0  0  0  0
   59.2777   31.2653   46.9653 H   0  0  0  0  0  0  0  0  0  0  0  0
   57.9390   32.3871   47.4676 H   0  0  0  0  0  0  0  0  0  0  0  0
   63.1408   31.9533   48.2215 H   0  0  0  0  0  0  0  0  0  0  0  0
   63.9230   33.1114   47.1316 H   0  0  0  0  0  0  0  0  0  0  0  0
   63.4341   33.6040   49.7896 H   0  0  0  0  0  0  0  0  0  0  0  0
   63.5429   34.8986   48.5838 H   0  0  0  0  0  0  0  0  0  0  0  0
   56.0757   31.0384   43.3784 H   0  0  0  0  0  0  0  0  0  0  0  0
   56.0557   28.5979   42.8873 H   0  0  0  0  0  0  0  0  0  0  0  0
   59.2558   26.0340   46.0563 H   0  0  0  0  0  0  0  0  0  0  0  0
   57.9148   27.2443   46.1333 H   0  0  0  0  0  0  0  0  0  0  0  0
   57.8553   25.6037   48.0224 H   0  0  0  0  0  0  0  0  0  0  0  0
   56.3806   25.5528   46.9867 H   0  0  0  0  0  0  0  0  0  0  0  0
   58.7554   23.6272   46.9155 H   0  0  0  0  0  0  0  0  0  0  0  0
   57.0671   23.2803   47.4666 H   0  0  0  0  0  0  0  0  0  0  0  0
   56.9245   21.4090   45.8787 H   0  0  0  0  0  0  0  0  0  0  0  0
   56.2850   20.7526   43.5606 H   0  0  0  0  0  0  0  0  0  0  0  0
   56.3025   22.4455   41.7306 H   0  0  0  0  0  0  0  0  0  0  0  0
   56.9802   24.7952   42.2052 H   0  0  0  0  0  0  0  0  0  0  0  0
  1  2  2  0
  2  3  1  0
  3  4  2  0
  4  5  1  0
  5  6  2  0
  6  7  1  0
  7  8  2  0
  7  9  2  0
  7 10  1  0
 10 11  1  0
 11 12  1  0
 12 13  1  0
 13 14  1  0
 14 15  1  0
 13 16  1  0
 16 17  1  0
 17 18  1  0
 18 19  1  0
  6 20  1  0
 20 21  2  0
  2 22  1  0
 22 23  1  0
 23 24  1  0
 24 25  1  0
 25 26  1  0
 26 27  2  0
 27 28  1  0
 28 29  2  0
 29 30  1  0
 30 31  2  0
 21  3  1  0
 31 22  1  0
 15 10  1  0
 31 26  1  0
 19 13  1  0
  4 32  1  0
  5 33  1  0
 11 34  1  0
 11 35  1  0
 12 36  1  0
 12 37  1  0
 14 38  1  0
 14 39  1  0
 15 40  1  0
 15 41  1  0
 17 42  1  0
 17 43  1  0
 18 44  1  0
 18 45  1  0
 20 46  1  0
 21 47  1  0
 23 48  1  0
 23 49  1  0
 24 50  1  0
 24 51  1  0
 25 52  1  0
 25 53  1  0
 27 54  1  0
 28 55  1  0
 29 56  1  0
 30 57  1  0
M  END
>  <UniqueID>  (45) 
42

>  <SMILES>  (45) 
O=C(c1ccc(S(=O)(=O)N2CCC3(CC2)OCCO3)cc1)N1CCCc2ccccc21

>  <Energy>  (45) 
68.77593173405208

>  <Genealogy>  (45) 
O=C(c1ccc(S(=O)(=O)N2CCC3(CC2)OCCO3)cc1)N1CCCc2ccccc21 (3D coordinates assigned)
O=C(c1ccc(S(=O)(=O)N2CCC3(CC2)OCCO3)cc1)N1CCCc2ccccc21 (nonaromatic ring conformer: 68.77593173405208 kcal/mol)

>  <smiles>  (45) 
O=C(c1ccc(S(=O)(=O)N2CCC3(CC2)OCCO3)cc1)N1CCCc2ccccc21

>  <score_type>  (45) 
oracle

>  <origin>  (45) 
adg

>  <m_score__min__energy>  (45) 
-10.640000000000001

>  <m_primary>  (45) 
energy

$$$$
45:0
     RDKit          3D

 54 56  0  0  0  0  0  0  0  0999 V2000
   57.7010   23.8470   44.7480 C   0  0  0  0  0  0  0  0  0  0  0  0
   56.3720   24.5880   44.6630 C   0  0  0  0  0  0  0  0  0  0  0  0
   56.1430   25.6580   46.0720 S   0  0  0  0  0  0  0  0  0  0  0  0
   56.2020   24.8430   47.3340 O   0  0  0  0  0  0  0  0  0  0  0  0
   54.7950   26.3170   45.9920 O   0  0  0  0  0  0  0  0  0  0  0  0
   57.4120   26.8790   46.1080 C   0  0  0  0  0  0  0  0  0  0  0  0
   57.1650   28.1730   45.6300 C   0  0  0  0  0  0  0  0  0  0  0  0
   58.1870   29.1250   45.6180 C   0  0  0  0  0  0  0  0  0  0  0  0
   59.4700   28.7950   46.0850 C   0  0  0  0  0  0  0  0  0  0  0  0
   60.5950   29.7910   45.9950 C   0  0  0  0  0  0  0  0  0  0  0  0
   60.9260   30.3390   47.3530 C   0  0  0  0  0  0  0  0  0  0  0  0
   61.9630   31.0400   47.4990 O   0  0  0  0  0  0  0  0  0  0  0  0
   60.1100   30.0020   48.4840 N   0  0  0  0  0  0  0  0  0  0  0  0
   60.0940   30.7360   49.7270 C   0  0  0  0  0  0  0  0  0  0  0  0
   60.5390   30.1400   50.9130 C   0  0  0  0  0  0  0  0  0  0  0  0
   60.5610   30.8650   52.0950 C   0  0  0  0  0  0  0  0  0  0  0  0
   60.1370   32.1930   52.1030 C   0  0  0  0  0  0  0  0  0  0  0  0
   60.1800   32.8320   53.1900 O   0  0  0  0  0  0  0  0  0  0  0  0
   59.6930   32.7920   50.9490 N   0  0  0  0  0  0  0  0  0  0  0  0
   59.2830   34.2090   50.9780 C   0  0  0  0  0  0  0  0  0  0  0  0
   59.7020   32.0950   49.7570 C   0  0  0  0  0  0  0  0  0  0  0  0
   59.3130   32.7580   48.4880 C   0  0  0  0  0  0  0  0  0  0  0  0
   58.1020   32.3940   47.8780 C   0  0  0  0  0  0  0  0  0  0  0  0
   57.7170   32.9830   46.6720 C   0  0  0  0  0  0  0  0  0  0  0  0
   58.5380   33.9310   46.0630 C   0  0  0  0  0  0  0  0  0  0  0  0
   59.7510   34.3000   46.6540 C   0  0  0  0  0  0  0  0  0  0  0  0
   60.5300   35.2200   46.0300 F   0  0  0  0  0  0  0  0  0  0  0  0
   60.1530   33.7150   47.8720 C   0  0  0  0  0  0  0  0  0  0  0  0
   61.4780   34.0840   48.4920 C   0  0  0  0  0  0  0  0  0  0  0  0
   59.7150   27.4970   46.5620 C   0  0  0  0  0  0  0  0  0  0  0  0
   58.6910   26.5450   46.5720 C   0  0  0  0  0  0  0  0  0  0  0  0
   57.9702   23.6969   45.8039 H   0  0  0  0  0  0  0  0  0  0  0  0
   57.6086   22.8702   44.2507 H   0  0  0  0  0  0  0  0  0  0  0  0
   58.4834   24.4391   44.2507 H   0  0  0  0  0  0  0  0  0  0  0  0
   56.3565   25.1941   43.7452 H   0  0  0  0  0  0  0  0  0  0  0  0
   55.5588   23.8473   44.6505 H   0  0  0  0  0  0  0  0  0  0  0  0
   56.1629   28.4398   45.2630 H   0  0  0  0  0  0  0  0  0  0  0  0
   57.9861   30.1386   45.2408 H   0  0  0  0  0  0  0  0  0  0  0  0
   61.4843   29.2951   45.5787 H   0  0  0  0  0  0  0  0  0  0  0  0
   60.2824   30.6210   45.3444 H   0  0  0  0  0  0  0  0  0  0  0  0
   59.4890   29.1680   48.3860 H   0  0  0  0  0  0  0  0  0  0  0  0
   60.8727   29.0919   50.9073 H   0  0  0  0  0  0  0  0  0  0  0  0
   60.9123   30.3931   53.0245 H   0  0  0  0  0  0  0  0  0  0  0  0
   59.1868   34.5416   52.0221 H   0  0  0  0  0  0  0  0  0  0  0  0
   60.0410   34.8206   50.4668 H   0  0  0  0  0  0  0  0  0  0  0  0
   58.3155   34.3213   50.4668 H   0  0  0  0  0  0  0  0  0  0  0  0
   57.4541   31.6420   48.3519 H   0  0  0  0  0  0  0  0  0  0  0  0
   56.7642   32.6985   46.2016 H   0  0  0  0  0  0  0  0  0  0  0  0
   58.2302   34.3913   45.1125 H   0  0  0  0  0  0  0  0  0  0  0  0
   61.3895   34.0593   49.5882 H   0  0  0  0  0  0  0  0  0  0  0  0
   62.2463   33.3656   48.1699 H   0  0  0  0  0  0  0  0  0  0  0  0
   61.7644   35.0961   48.1699 H   0  0  0  0  0  0  0  0  0  0  0  0
   60.7165   27.2282   46.9292 H   0  0  0  0  0  0  0  0  0  0  0  0
   58.8904   25.5298   46.9456 H   0  0  0  0  0  0  0  0  0  0  0  0
  1  2  1  0
  2  3  1  0
  3  4  2  0
  3  5  2  0
  3  6  1  0
  6  7  2  0
  7  8  1  0
  8  9  2  0
  9 10  1  0
 10 11  1  0
 11 12  2  0
 11 13  1  0
 13 14  1  0
 14 15  1  0
 15 16  2  0
 16 17  1  0
 17 18  2  0
 17 19  1  0
 19 20  1  0
 19 21  1  0
 21 22  1  0
 22 23  2  0
 23 24  1  0
 24 25  2  0
 25 26  1  0
 26 27  1  0
 26 28  2  0
 28 29  1  0
  9 30  1  0
 30 31  2  0
 31  6  1  0
 21 14  2  0
 28 22  1  0
  1 32  1  0
  1 33  1  0
  1 34  1  0
  2 35  1  0
  2 36  1  0
  7 37  1  0
  8 38  1  0
 10 39  1  0
 10 40  1  0
 13 41  1  0
 15 42  1  0
 16 43  1  0
 20 44  1  0
 20 45  1  0
 20 46  1  0
 23 47  1  0
 24 48  1  0
 25 49  1  0
 29 50  1  0
 29 51  1  0
 29 52  1  0
 30 53  1  0
 31 54  1  0
M  END
>  <UniqueID>  (46) 
43

>  <SMILES>  (46) 
CCS(=O)(=O)c1ccc(CC(=O)Nc2ccc(=O)n(C)c2-c2cccc(F)c2C)cc1

>  <Energy>  (46) 
64.09541243083795

>  <Genealogy>  (46) 
CCS(=O)(=O)c1ccc(CC(=O)Nc2ccc(=O)n(C)c2-c2cccc(F)c2C)cc1 (3D coordinates assigned)
CCS(=O)(=O)c1ccc(CC(=O)Nc2ccc(=O)n(C)c2-c2cccc(F)c2C)cc1 (optimized conformer: 64.09541243083795 kcal/mol)

>  <smiles>  (46) 
CCS(=O)(=O)c1ccc(CC(=O)Nc2ccc(=O)n(C)c2-c2cccc(F)c2C)cc1

>  <score_type>  (46) 
oracle

>  <origin>  (46) 
adg

>  <m_score__min__energy>  (46) 
-8.9900000000000002

>  <m_primary>  (46) 
energy

$$$$
46:0
     RDKit          3D

 35 37  0  0  0  0  0  0  0  0999 V2000
   59.2900   35.5940   44.8630 C   0  0  0  0  0  0  0  0  0  0  0  0
   58.8710   34.3540   45.5090 N   0  0  0  0  0  0  0  0  0  0  0  0
   58.7990   34.0800   46.8350 C   0  0  0  0  0  0  0  0  0  0  0  0
   59.1670   34.8800   47.7360 O   0  0  0  0  0  0  0  0  0  0  0  0
   58.2900   32.8870   47.0900 O   0  0  0  0  0  0  0  0  0  0  0  0
   58.0080   32.3670   45.9180 C   0  0  0  0  0  0  0  0  0  0  0  0
   57.4230   31.1380   45.6330 C   0  0  0  0  0  0  0  0  0  0  0  0
   57.1640   30.8350   44.2780 C   0  0  0  0  0  0  0  0  0  0  0  0
   56.3110   29.3580   43.8390 S   0  0  0  0  0  0  0  0  0  0  0  0
   57.0320   28.6450   42.7280 O   0  0  0  0  0  0  0  0  0  0  0  0
   54.9330   29.7210   43.3610 O   0  0  0  0  0  0  0  0  0  0  0  0
   56.1780   28.3160   45.2290 N   0  0  0  0  0  0  0  0  0  0  0  0
   57.3890   27.5140   45.4240 C   0  0  0  0  0  0  0  0  0  0  0  0
   58.5180   28.3510   45.9670 C   0  0  0  0  0  0  0  0  0  0  0  0
   59.5430   28.8040   45.1190 C   0  0  0  0  0  0  0  0  0  0  0  0
   60.5550   29.6310   45.6140 C   0  0  0  0  0  0  0  0  0  0  0  0
   60.5550   30.0090   46.9610 C   0  0  0  0  0  0  0  0  0  0  0  0
   61.9150   31.1730   47.6250 Br  0  0  0  0  0  0  0  0  0  0  0  0
   59.5520   29.5420   47.8170 C   0  0  0  0  0  0  0  0  0  0  0  0
   58.5410   28.7120   47.3250 C   0  0  0  0  0  0  0  0  0  0  0  0
   57.5270   31.7540   43.2620 C   0  0  0  0  0  0  0  0  0  0  0  0
   58.1260   32.9850   43.5880 C   0  0  0  0  0  0  0  0  0  0  0  0
   58.3510   33.2540   44.9370 C   0  0  0  0  0  0  0  0  0  0  0  0
   59.5422   36.3403   45.6307 H   0  0  0  0  0  0  0  0  0  0  0  0
   60.1727   35.4006   44.2357 H   0  0  0  0  0  0  0  0  0  0  0  0
   58.4709   35.9756   44.2357 H   0  0  0  0  0  0  0  0  0  0  0  0
   57.1710   30.4274   46.4340 H   0  0  0  0  0  0  0  0  0  0  0  0
   57.1710   26.7025   46.1339 H   0  0  0  0  0  0  0  0  0  0  0  0
   57.6963   27.1064   44.4496 H   0  0  0  0  0  0  0  0  0  0  0  0
   59.5488   28.5061   44.0601 H   0  0  0  0  0  0  0  0  0  0  0  0
   61.3523   29.9850   44.9439 H   0  0  0  0  0  0  0  0  0  0  0  0
   59.5591   29.8285   48.8790 H   0  0  0  0  0  0  0  0  0  0  0  0
   57.7596   28.3396   48.0038 H   0  0  0  0  0  0  0  0  0  0  0  0
   57.3386   31.5025   42.2078 H   0  0  0  0  0  0  0  0  0  0  0  0
   58.4061   33.7078   42.8075 H   0  0  0  0  0  0  0  0  0  0  0  0
  1  2  1  0
  2  3  1  0
  3  4  2  0
  3  5  1  0
  5  6  1  0
  6  7  2  0
  7  8  1  0
  8  9  1  0
  9 10  2  0
  9 11  2  0
  9 12  1  0
 12 13  1  0
 13 14  1  0
 14 15  2  0
 15 16  1  0
 16 17  2  0
 17 18  1  0
 17 19  1  0
 19 20  2  0
  8 21  2  0
 21 22  1  0
 22 23  2  0
 23  2  1  0
 23  6  1  0
 20 14  1  0
  1 24  1  0
  1 25  1  0
  1 26  1  0
  7 27  1  0
 13 28  1  0
 13 29  1  0
 15 30  1  0
 16 31  1  0
 19 32  1  0
 20 33  1  0
 21 34  1  0
 22 35  1  0
M  CHG  1  12  -1
M  END
>  <UniqueID>  (47) 
44

>  <SMILES>  (47) 
Cn1c(=O)oc2cc(S(=O)(=O)[N-]Cc3ccc(Br)cc3)ccc21

>  <Energy>  (47) 
72.56056826511053

>  <Genealogy>  (47) 
Cn1c(=O)oc2cc(S(=O)(=O)[N-]Cc3ccc(Br)cc3)ccc21 (protonated)
Cn1c(=O)oc2cc(S(=O)(=O)[N-]Cc3ccc(Br)cc3)ccc21 (3D coordinates assigned)
Cn1c(=O)oc2cc(S(=O)(=O)[N-]Cc3ccc(Br)cc3)ccc21 (optimized conformer: 72.56056826511053 kcal/mol)

>  <smiles>  (47) 
Cn1c(=O)oc2cc(S(=O)(=O)NCc3ccc(Br)cc3)ccc21

>  <score_type>  (47) 
oracle

>  <origin>  (47) 
adg

>  <m_score__min__energy>  (47) 
-8.7599999999999998

>  <m_primary>  (47) 
energy

$$$$
47:0
     RDKit          3D

 60 64  0  0  0  0  0  0  0  0999 V2000
   52.8530   24.0300   44.8760 C   0  0  0  0  0  0  0  0  0  0  0  0
   53.2460   22.7140   45.2540 O   0  0  0  0  0  0  0  0  0  0  0  0
   54.1950   22.4170   46.2450 C   0  0  0  0  0  0  0  0  0  0  0  0
   54.0440   22.8610   47.5750 C   0  0  0  0  0  0  0  0  0  0  0  0
   54.9770   22.4990   48.5500 C   0  0  0  0  0  0  0  0  0  0  0  0
   56.0630   21.6890   48.2160 C   0  0  0  0  0  0  0  0  0  0  0  0
   56.2290   21.2510   46.9010 C   0  0  0  0  0  0  0  0  0  0  0  0
   55.3190   21.6320   45.9060 C   0  0  0  0  0  0  0  0  0  0  0  0
   55.5230   21.1570   44.5660 N   0  0  0  0  0  0  0  0  0  0  0  0
   56.3420   21.7870   43.5710 C   0  0  0  0  0  0  0  0  0  0  0  0
   55.9250   21.8430   42.3850 O   0  0  0  0  0  0  0  0  0  0  0  0
   57.7060   22.3340   43.8960 C   0  0  0  0  0  0  0  0  0  0  0  0
   57.6780   23.0620   45.1240 O   0  0  0  0  0  0  0  0  0  0  0  0
   57.7640   24.4600   45.2380 C   0  0  0  0  0  0  0  0  0  0  0  0
   57.7050   25.2250   44.0680 C   0  0  0  0  0  0  0  0  0  0  0  0
   57.7980   26.6190   44.1210 C   0  0  0  0  0  0  0  0  0  0  0  0
   57.9590   27.2760   45.3540 C   0  0  0  0  0  0  0  0  0  0  0  0
   58.0830   28.7520   45.4090 C   0  0  0  0  0  0  0  0  0  0  0  0
   57.5180   29.6460   44.4920 C   0  0  0  0  0  0  0  0  0  0  0  0
   57.8760   30.8880   44.9590 C   0  0  0  0  0  0  0  0  0  0  0  0
   57.5780   32.1110   44.4630 N   0  0  0  0  0  0  0  0  0  0  0  0
   58.0470   33.2140   45.1210 C   0  0  0  0  0  0  0  0  0  0  0  0
   58.8090   33.0850   46.2650 N   0  0  0  0  0  0  0  0  0  0  0  0
   59.2660   34.2970   46.9640 C   0  0  0  0  0  0  0  0  0  0  0  0
   60.7130   34.1590   47.3600 C   0  0  0  0  0  0  0  0  0  0  0  0
   61.6870   33.8880   46.3840 C   0  0  0  0  0  0  0  0  0  0  0  0
   63.0350   33.7850   46.7430 C   0  0  0  0  0  0  0  0  0  0  0  0
   63.4190   33.9480   48.0750 C   0  0  0  0  0  0  0  0  0  0  0  0
   62.4570   34.2170   49.0520 C   0  0  0  0  0  0  0  0  0  0  0  0
   61.1080   34.3240   48.6990 C   0  0  0  0  0  0  0  0  0  0  0  0
   59.0990   31.8340   46.7650 C   0  0  0  0  0  0  0  0  0  0  0  0
   59.7840   31.6880   47.8150 O   0  0  0  0  0  0  0  0  0  0  0  0
   58.6140   30.7250   46.0840 C   0  0  0  0  0  0  0  0  0  0  0  0
   58.7540   29.4220   46.3830 N   0  0  0  0  0  0  0  0  0  0  0  0
   58.0140   26.5090   46.5300 C   0  0  0  0  0  0  0  0  0  0  0  0
   57.9100   25.1150   46.4770 C   0  0  0  0  0  0  0  0  0  0  0  0
   52.6731   24.6324   45.7786 H   0  0  0  0  0  0  0  0  0  0  0  0
   53.6518   24.4939   44.2787 H   0  0  0  0  0  0  0  0  0  0  0  0
   51.9306   23.9799   44.2787 H   0  0  0  0  0  0  0  0  0  0  0  0
   53.1873   23.4955   47.8462 H   0  0  0  0  0  0  0  0  0  0  0  0
   54.8551   22.8536   49.5841 H   0  0  0  0  0  0  0  0  0  0  0  0
   56.7884   21.3956   48.9891 H   0  0  0  0  0  0  0  0  0  0  0  0
   57.0797   20.6026   46.6443 H   0  0  0  0  0  0  0  0  0  0  0  0
   58.4174   21.4999   43.9868 H   0  0  0  0  0  0  0  0  0  0  0  0
   58.0162   23.0138   43.0887 H   0  0  0  0  0  0  0  0  0  0  0  0
   57.5842   24.7243   43.0960 H   0  0  0  0  0  0  0  0  0  0  0  0
   57.7449   27.2058   43.1921 H   0  0  0  0  0  0  0  0  0  0  0  0
   56.9217   29.4081   43.5988 H   0  0  0  0  0  0  0  0  0  0  0  0
   57.0000   32.2150   43.5990 H   0  0  0  0  0  0  0  0  0  0  0  0
   57.8142   34.2170   44.7339 H   0  0  0  0  0  0  0  0  0  0  0  0
   59.1536   35.1645   46.2971 H   0  0  0  0  0  0  0  0  0  0  0  0
   58.6591   34.4370   47.8707 H   0  0  0  0  0  0  0  0  0  0  0  0
   61.3882   33.7564   45.3336 H   0  0  0  0  0  0  0  0  0  0  0  0
   63.7935   33.5752   45.9745 H   0  0  0  0  0  0  0  0  0  0  0  0
   64.4793   33.8647   48.3557 H   0  0  0  0  0  0  0  0  0  0  0  0
   62.7614   34.3449   50.1013 H   0  0  0  0  0  0  0  0  0  0  0  0
   60.3542   34.5378   49.4710 H   0  0  0  0  0  0  0  0  0  0  0  0
   59.2850   29.0210   47.1860 H   0  0  0  0  0  0  0  0  0  0  0  0
   58.1400   27.0094   47.5014 H   0  0  0  0  0  0  0  0  0  0  0  0
   57.9423   24.5277   47.4065 H   0  0  0  0  0  0  0  0  0  0  0  0
  1  2  1  0
  2  3  1  0
  3  4  2  0
  4  5  1  0
  5  6  2  0
  6  7  1  0
  7  8  2  0
  8  9  1  0
  9 10  1  0
 10 11  2  0
 10 12  1  0
 12 13  1  0
 13 14  1  0
 14 15  2  0
 15 16  1  0
 16 17  2  0
 17 18  1  0
 18 19  2  0
 19 20  1  0
 20 21  1  0
 21 22  2  0
 22 23  1  0
 23 24  1  0
 24 25  1  0
 25 26  2  0
 26 27  1  0
 27 28  2  0
 28 29  1  0
 29 30  2  0
 23 31  1  0
 31 32  2  0
 31 33  1  0
 33 34  1  0
 17 35  1  0
 35 36  2  0
  8  3  1  0
 36 14  1  0
 34 18  1  0
 33 20  2  0
 30 25  1  0
  1 37  1  0
  1 38  1  0
  1 39  1  0
  4 40  1  0
  5 41  1  0
  6 42  1  0
  7 43  1  0
 12 44  1  0
 12 45  1  0
 15 46  1  0
 16 47  1  0
 19 48  1  0
 21 49  1  0
 22 50  1  0
 24 51  1  0
 24 52  1  0
 26 53  1  0
 27 54  1  0
 28 55  1  0
 29 56  1  0
 30 57  1  0
 34 58  1  0
 35 59  1  0
 36 60  1  0
M  CHG  2   9  -1  21   1
M  END
>  <UniqueID>  (48) 
45

>  <SMILES>  (48) 
COc1ccccc1[N-]C(=O)COc1ccc(-c2cc3[nH+]cn(Cc4ccccc4)c(=O)c3[nH]2)cc1

>  <Energy>  (48) 
110.0587464968428

>  <Genealogy>  (48) 
COc1ccccc1[N-]C(=O)COc1ccc(-c2cc3[nH+]cn(Cc4ccccc4)c(=O)c3[nH]2)cc1 (protonated)
COc1ccccc1[N-]C(=O)COc1ccc(-c2cc3[nH+]cn(Cc4ccccc4)c(=O)c3[nH]2)cc1 (3D coordinates assigned)
COc1ccccc1[N-]C(=O)COc1ccc(-c2cc3[nH+]cn(Cc4ccccc4)c(=O)c3[nH]2)cc1 (optimized conformer: 110.0587464968428 kcal/mol)

>  <smiles>  (48) 
COc1ccccc1NC(=O)COc1ccc(-c2cc3ncn(Cc4ccccc4)c(=O)c3[nH]2)cc1

>  <score_type>  (48) 
oracle

>  <origin>  (48) 
adg

>  <m_score__min__energy>  (48) 
-9.6300000000000008

>  <m_primary>  (48) 
energy

$$$$
48:0
     RDKit          3D

 62 63  0  0  0  0  0  0  0  0999 V2000
   64.1180   33.0730   47.1460 C   0  0  0  0  0  0  0  0  0  0  0  0
   62.6550   32.8730   47.4230 C   0  0  0  0  0  0  0  0  0  0  0  0
   61.7010   33.6130   46.7250 C   0  0  0  0  0  0  0  0  0  0  0  0
   60.3190   33.4130   46.9260 C   0  0  0  0  0  0  0  0  0  0  0  0
   59.3040   34.3200   46.1730 C   0  0  0  0  0  0  0  0  0  0  0  0
   59.3150   33.9580   44.6760 C   0  0  0  0  0  0  0  0  0  0  0  0
   59.6830   35.8200   46.3180 C   0  0  0  0  0  0  0  0  0  0  0  0
   57.8580   34.1840   46.7230 C   0  0  0  0  0  0  0  0  0  0  0  0
   59.9300   32.3160   47.7510 C   0  0  0  0  0  0  0  0  0  0  0  0
   58.6210   31.8410   47.6870 O   0  0  0  0  0  0  0  0  0  0  0  0
   58.1940   30.9690   46.6810 C   0  0  0  0  0  0  0  0  0  0  0  0
   57.8340   29.7920   46.9620 O   0  0  0  0  0  0  0  0  0  0  0  0
   58.1730   31.4260   45.3290 N   0  0  0  0  0  0  0  0  0  0  0  0
   57.3250   30.5740   44.0820 S   0  0  0  0  0  0  0  0  0  0  0  0
   57.2320   31.4340   42.8520 O   0  0  0  0  0  0  0  0  0  0  0  0
   55.9380   30.2540   44.5630 O   0  0  0  0  0  0  0  0  0  0  0  0
   58.1590   29.1020   43.6980 N   0  0  0  0  0  0  0  0  0  0  0  0
   58.3360   28.0180   44.6270 C   0  0  0  0  0  0  0  0  0  0  0  0
   59.5870   27.8400   45.2360 C   0  0  0  0  0  0  0  0  0  0  0  0
   59.7870   26.8080   46.1570 C   0  0  0  0  0  0  0  0  0  0  0  0
   58.7350   25.9540   46.4930 C   0  0  0  0  0  0  0  0  0  0  0  0
   57.4770   26.1240   45.9040 C   0  0  0  0  0  0  0  0  0  0  0  0
   56.1460   25.0680   46.3720 S   0  0  0  0  0  0  0  0  0  0  0  0
   54.6400   25.8250   45.9870 N   0  0  0  0  0  0  0  0  0  0  0  0
   56.2590   23.7650   45.6270 O   0  0  0  0  0  0  0  0  0  0  0  0
   56.2020   24.7860   47.8480 O   0  0  0  0  0  0  0  0  0  0  0  0
   57.2810   27.1470   44.9640 C   0  0  0  0  0  0  0  0  0  0  0  0
   60.8780   31.6610   48.5930 C   0  0  0  0  0  0  0  0  0  0  0  0
   60.4880   30.6250   49.6860 C   0  0  0  0  0  0  0  0  0  0  0  0
   60.0660   29.2750   49.0400 C   0  0  0  0  0  0  0  0  0  0  0  0
   59.3020   31.1690   50.5020 C   0  0  0  0  0  0  0  0  0  0  0  0
   61.6570   30.2930   50.6530 C   0  0  0  0  0  0  0  0  0  0  0  0
   62.2440   31.9130   48.3450 C   0  0  0  0  0  0  0  0  0  0  0  0
   64.6645   33.1477   48.0977 H   0  0  0  0  0  0  0  0  0  0  0  0
   64.5020   32.2190   46.5687 H   0  0  0  0  0  0  0  0  0  0  0  0
   64.2587   33.9987   46.5687 H   0  0  0  0  0  0  0  0  0  0  0  0
   62.0340   34.3707   46.0004 H   0  0  0  0  0  0  0  0  0  0  0  0
   59.3482   32.8643   44.5635 H   0  0  0  0  0  0  0  0  0  0  0  0
   58.4046   34.3483   44.1977 H   0  0  0  0  0  0  0  0  0  0  0  0
   60.2000   34.4029   44.1977 H   0  0  0  0  0  0  0  0  0  0  0  0
   59.7487   36.0801   47.3848 H   0  0  0  0  0  0  0  0  0  0  0  0
   60.6551   36.0008   45.8359 H   0  0  0  0  0  0  0  0  0  0  0  0
   58.9135   36.4409   45.8359 H   0  0  0  0  0  0  0  0  0  0  0  0
   57.8823   34.1863   47.8227 H   0  0  0  0  0  0  0  0  0  0  0  0
   57.2497   35.0289   46.3679 H   0  0  0  0  0  0  0  0  0  0  0  0
   57.4179   33.2405   46.3679 H   0  0  0  0  0  0  0  0  0  0  0  0
   58.4560   28.9730   42.7070 H   0  0  0  0  0  0  0  0  0  0  0  0
   60.4168   28.5177   44.9868 H   0  0  0  0  0  0  0  0  0  0  0  0
   60.7758   26.6683   46.6183 H   0  0  0  0  0  0  0  0  0  0  0  0
   58.8952   25.1460   47.2220 H   0  0  0  0  0  0  0  0  0  0  0  0
   54.6720   26.7910   46.3860 H   0  0  0  0  0  0  0  0  0  0  0  0
   56.2974   27.2698   44.4871 H   0  0  0  0  0  0  0  0  0  0  0  0
   59.8379   28.5454   49.8310 H   0  0  0  0  0  0  0  0  0  0  0  0
   59.1735   29.4302   48.4160 H   0  0  0  0  0  0  0  0  0  0  0  0
   60.8880   28.8943   48.4160 H   0  0  0  0  0  0  0  0  0  0  0  0
   59.5193   31.0693   51.5757 H   0  0  0  0  0  0  0  0  0  0  0  0
   59.1440   32.2296   50.2568 H   0  0  0  0  0  0  0  0  0  0  0  0
   58.3951   30.5969   50.2568 H   0  0  0  0  0  0  0  0  0  0  0  0
   61.3118   30.3910   51.6928 H   0  0  0  0  0  0  0  0  0  0  0  0
   61.9982   29.2624   50.4755 H   0  0  0  0  0  0  0  0  0  0  0  0
   62.4890   30.9904   50.4755 H   0  0  0  0  0  0  0  0  0  0  0  0
   63.0036   31.3368   48.8936 H   0  0  0  0  0  0  0  0  0  0  0  0
  1  2  1  0
  2  3  2  0
  3  4  1  0
  4  5  1  0
  5  6  1  0
  5  7  1  0
  5  8  1  0
  4  9  2  0
  9 10  1  0
 10 11  1  0
 11 12  2  0
 11 13  1  0
 13 14  1  0
 14 15  2  0
 14 16  2  0
 14 17  1  0
 17 18  1  0
 18 19  2  0
 19 20  1  0
 20 21  2  0
 21 22  1  0
 22 23  1  0
 23 24  1  0
 23 25  2  0
 23 26  2  0
 22 27  2  0
  9 28  1  0
 28 29  1  0
 29 30  1  0
 29 31  1  0
 29 32  1  0
 28 33  2  0
 33  2  1  0
 27 18  1  0
  1 34  1  0
  1 35  1  0
  1 36  1  0
  3 37  1  0
  6 38  1  0
  6 39  1  0
  6 40  1  0
  7 41  1  0
  7 42  1  0
  7 43  1  0
  8 44  1  0
  8 45  1  0
  8 46  1  0
 17 47  1  0
 19 48  1  0
 20 49  1  0
 21 50  1  0
 24 51  1  0
 27 52  1  0
 30 53  1  0
 30 54  1  0
 30 55  1  0
 31 56  1  0
 31 57  1  0
 31 58  1  0
 32 59  1  0
 32 60  1  0
 32 61  1  0
 33 62  1  0
M  CHG  2  13  -1  24  -1
M  END
>  <UniqueID>  (49) 
46

>  <SMILES>  (49) 
Cc1cc(C(C)(C)C)c(OC(=O)[N-]S(=O)(=O)Nc2cccc(S([NH-])(=O)=O)c2)c(C(C)(C)C)c1

>  <Energy>  (49) 
80.55408670746002

>  <Genealogy>  (49) 
Cc1cc(C(C)(C)C)c(OC(=O)[N-]S(=O)(=O)Nc2cccc(S([NH-])(=O)=O)c2)c(C(C)(C)C)c1 (protonated)
Cc1cc(C(C)(C)C)c(OC(=O)[N-]S(=O)(=O)Nc2cccc(S([NH-])(=O)=O)c2)c(C(C)(C)C)c1 (3D coordinates assigned)
Cc1cc(C(C)(C)C)c(OC(=O)[N-]S(=O)(=O)Nc2cccc(S([NH-])(=O)=O)c2)c(C(C)(C)C)c1 (optimized conformer: 80.55408670746002 kcal/mol)

>  <smiles>  (49) 
Cc1cc(C(C)(C)C)c(OC(=O)NS(=O)(=O)Nc2cccc(S(N)(=O)=O)c2)c(C(C)(C)C)c1

>  <score_type>  (49) 
oracle

>  <origin>  (49) 
adg

>  <m_score__min__energy>  (49) 
-14.73

>  <m_primary>  (49) 
energy

$$$$
49:0
     RDKit          3D

 40 42  0  0  0  0  0  0  0  0999 V2000
   57.7760   25.2650   46.8220 C   0  0  0  0  0  0  0  0  0  0  0  0
   57.4620   26.6310   46.2870 C   0  0  0  0  0  0  0  0  0  0  0  0
   56.2160   26.9000   45.7080 C   0  0  0  0  0  0  0  0  0  0  0  0
   55.9310   28.1470   45.2480 N   0  0  0  0  0  0  0  0  0  0  0  0
   56.8170   29.1730   45.3510 C   0  0  0  0  0  0  0  0  0  0  0  0
   56.5160   30.2960   44.8680 O   0  0  0  0  0  0  0  0  0  0  0  0
   58.0640   28.9640   45.9710 C   0  0  0  0  0  0  0  0  0  0  0  0
   59.0340   30.0170   46.1020 N   0  0  0  0  0  0  0  0  0  0  0  0
   59.8620   30.1830   47.2660 C   0  0  0  0  0  0  0  0  0  0  0  0
   59.8770   29.2890   48.1560 O   0  0  0  0  0  0  0  0  0  0  0  0
   60.6970   31.3450   47.4210 N   0  0  0  0  0  0  0  0  0  0  0  0
   62.1380   31.2980   47.2290 C   0  0  0  0  0  0  0  0  0  0  0  0
   62.6380   32.7160   47.4770 C   0  0  0  0  0  0  0  0  0  0  0  0
   61.5080   33.4350   48.2080 C   0  0  0  0  0  0  0  0  0  0  0  0
   60.2360   32.6430   47.8990 C   0  0  1  0  0  0  0  0  0  0  0  0
   59.3910   33.3450   46.8520 C   0  0  0  0  0  0  0  0  0  0  0  0
   59.9840   34.2950   46.0010 C   0  0  0  0  0  0  0  0  0  0  0  0
   59.2240   34.9350   45.0170 C   0  0  0  0  0  0  0  0  0  0  0  0
   57.8710   34.6260   44.8660 C   0  0  0  0  0  0  0  0  0  0  0  0
   57.2750   33.6730   45.6930 C   0  0  0  0  0  0  0  0  0  0  0  0
   58.0290   33.0300   46.6790 C   0  0  0  0  0  0  0  0  0  0  0  0
   58.3830   27.6770   46.4220 C   0  0  0  0  0  0  0  0  0  0  0  0
   57.7699   25.2916   47.9217 H   0  0  0  0  0  0  0  0  0  0  0  0
   57.0189   24.5497   46.4683 H   0  0  0  0  0  0  0  0  0  0  0  0
   58.7695   24.9521   46.4683 H   0  0  0  0  0  0  0  0  0  0  0  0
   55.4656   26.1000   45.6251 H   0  0  0  0  0  0  0  0  0  0  0  0
   59.2390   30.5820   45.2510 H   0  0  0  0  0  0  0  0  0  0  0  0
   62.5969   30.5997   47.9444 H   0  0  0  0  0  0  0  0  0  0  0  0
   62.4001   30.9477   46.2197 H   0  0  0  0  0  0  0  0  0  0  0  0
   63.5457   32.6987   48.0982 H   0  0  0  0  0  0  0  0  0  0  0  0
   62.8980   33.2233   46.5362 H   0  0  0  0  0  0  0  0  0  0  0  0
   61.6987   33.4447   49.2913 H   0  0  0  0  0  0  0  0  0  0  0  0
   61.4198   34.4823   47.8834 H   0  0  0  0  0  0  0  0  0  0  0  0
   59.5934   32.5451   48.7864 H   0  0  0  0  0  0  0  0  0  0  0  0
   61.0517   34.5359   46.1101 H   0  0  0  0  0  0  0  0  0  0  0  0
   59.6930   35.6831   44.3609 H   0  0  0  0  0  0  0  0  0  0  0  0
   57.2741   35.1342   44.0944 H   0  0  0  0  0  0  0  0  0  0  0  0
   56.2100   33.4273   45.5688 H   0  0  0  0  0  0  0  0  0  0  0  0
   57.5562   32.2740   47.3232 H   0  0  0  0  0  0  0  0  0  0  0  0
   59.3626   27.4868   46.8849 H   0  0  0  0  0  0  0  0  0  0  0  0
  1  2  1  0
  2  3  2  0
  3  4  1  0
  4  5  1  0
  5  6  2  0
  5  7  1  0
  7  8  1  0
  8  9  1  0
  9 10  2  0
  9 11  1  0
 11 12  1  0
 12 13  1  0
 13 14  1  0
 14 15  1  0
 15 16  1  0
 16 17  2  0
 17 18  1  0
 18 19  2  0
 19 20  1  0
 20 21  2  0
  7 22  2  0
 22  2  1  0
 15 11  1  0
 21 16  1  0
  1 23  1  0
  1 24  1  0
  1 25  1  0
  3 26  1  0
  8 27  1  0
 12 28  1  0
 12 29  1  0
 13 30  1  0
 13 31  1  0
 14 32  1  0
 14 33  1  0
 15 34  1  1
 17 35  1  0
 18 36  1  0
 19 37  1  0
 20 38  1  0
 21 39  1  0
 22 40  1  0
M  CHG  1   4  -1
M  END
>  <UniqueID>  (50) 
47

>  <SMILES>  (50) 
Cc1c[n-]c(=O)c(NC(=O)N2CCC[C@H]2c2ccccc2)c1

>  <Energy>  (50) 
46.451142531617954

>  <Genealogy>  (50) 
Cc1c[n-]c(=O)c(NC(=O)N2CCCC2c2ccccc2)c1 (protonated)
Cc1c[n-]c(=O)c(NC(=O)N2CCC[C@H]2c2ccccc2)c1 (chirality)
Cc1c[n-]c(=O)c(NC(=O)N2CCC[C@H]2c2ccccc2)c1 (3D coordinates assigned)
Cc1c[n-]c(=O)c(NC(=O)N2CCC[C@H]2c2ccccc2)c1 (nonaromatic ring conformer: 46.451142531617954 kcal/mol)

>  <smiles>  (50) 
Cc1c[nH]c(=O)c(NC(=O)N2CCCC2c2ccccc2)c1

>  <score_type>  (50) 
oracle

>  <origin>  (50) 
adg

>  <m_score__min__energy>  (50) 
-9.5500000000000007

>  <m_primary>  (50) 
energy

$$$$
50:0
     RDKit          3D

 66 70  0  0  0  0  0  0  0  0999 V2000
   59.4570   35.2617   51.5212 H   0  0  0  0  0  0  0  0  0  0  0  0
   59.1190   34.2230   51.6510 C   0  0  0  0  0  0  0  0  0  0  0  0
   58.4100   33.8610   52.8010 C   0  0  0  0  0  0  0  0  0  0  0  0
   58.1924   34.6169   53.5699 H   0  0  0  0  0  0  0  0  0  0  0  0
   57.9760   32.5430   52.9790 C   0  0  0  0  0  0  0  0  0  0  0  0
   57.4336   32.2597   53.8931 H   0  0  0  0  0  0  0  0  0  0  0  0
   58.2340   31.5850   51.9900 C   0  0  0  0  0  0  0  0  0  0  0  0
   57.7940   30.2620   52.1120 C   0  0  0  0  0  0  0  0  0  0  0  0
   57.2738   29.9360   53.0247 H   0  0  0  0  0  0  0  0  0  0  0  0
   58.0110   29.3810   51.1000 N   0  0  0  0  0  0  0  0  0  0  0  0
   58.6650   29.7560   49.9700 C   0  0  0  0  0  0  0  0  0  0  0  0
   58.8330   28.8960   49.0150 N   0  0  0  0  0  0  0  0  0  0  0  0
   60.0950   27.7070   49.0150 S   0  0  0  0  0  0  0  0  0  0  0  0
   61.1430   28.0900   48.0130 O   0  0  0  0  0  0  0  0  0  0  0  0
   59.5240   26.3720   48.6390 O   0  0  0  0  0  0  0  0  0  0  0  0
   60.8090   27.6000   50.6130 C   0  0  0  0  0  0  0  0  0  0  0  0
   61.4930   26.5170   51.1180 C   0  0  0  0  0  0  0  0  0  0  0  0
   61.7559   25.6013   50.5682 H   0  0  0  0  0  0  0  0  0  0  0  0
   61.7820   26.7810   52.4060 N   0  0  0  0  0  0  0  0  0  0  0  0
   62.4190   25.8780   53.3540 C   0  0  0  0  0  0  0  0  0  0  0  0
   62.1902   26.2024   54.3799 H   0  0  0  0  0  0  0  0  0  0  0  0
   62.0401   24.8570   53.1992 H   0  0  0  0  0  0  0  0  0  0  0  0
   63.5080   25.8924   53.1992 H   0  0  0  0  0  0  0  0  0  0  0  0
   61.2510   27.9930   52.6680 C   0  0  0  0  0  0  0  0  0  0  0  0
   61.2980   28.4887   53.6488 H   0  0  0  0  0  0  0  0  0  0  0  0
   60.6560   28.5220   51.5810 N   0  0  0  0  0  0  0  0  0  0  0  0
   60.1410   29.4290   51.5200 H   0  0  0  0  0  0  0  0  0  0  0  0
   59.1240   31.0310   49.8450 N   0  0  0  0  0  0  0  0  0  0  0  0
   58.9320   31.9520   50.8240 C   0  0  0  0  0  0  0  0  0  0  0  0
   59.4030   33.2640   50.6570 C   0  0  0  0  0  0  0  0  0  0  0  0
   60.1570   33.5640   49.5110 O   0  0  0  0  0  0  0  0  0  0  0  0
   61.4970   34.0520   49.5050 C   0  0  0  0  0  0  0  0  0  0  0  0
   61.4890   35.1395   49.6702 H   0  0  0  0  0  0  0  0  0  0  0  0
   62.0645   33.5560   50.3062 H   0  0  0  0  0  0  0  0  0  0  0  0
   62.1590   33.7500   48.1630 C   0  0  0  0  0  0  0  0  0  0  0  0
   62.4956   34.6893   47.7000 H   0  0  0  0  0  0  0  0  0  0  0  0
   63.0244   33.0895   48.3202 H   0  0  0  0  0  0  0  0  0  0  0  0
   61.1900   33.0880   47.2800 N   0  0  0  0  0  0  0  0  0  0  0  0
   60.2660   33.5590   47.4100 H   0  0  0  0  0  0  0  0  0  0  0  0
   61.0250   31.6790   47.6370 C   0  0  0  0  0  0  0  0  0  0  0  0
   62.0128   31.1999   47.7053 H   0  0  0  0  0  0  0  0  0  0  0  0
   60.5134   31.6041   48.6079 H   0  0  0  0  0  0  0  0  0  0  0  0
   60.2020   30.9860   46.5800 C   0  0  0  0  0  0  0  0  0  0  0  0
   60.6840   29.7940   46.0190 C   0  0  0  0  0  0  0  0  0  0  0  0
   61.6652   29.4057   46.3294 H   0  0  0  0  0  0  0  0  0  0  0  0
   59.9360   29.0960   45.0740 C   0  0  0  0  0  0  0  0  0  0  0  0
   60.3352   28.1692   44.6363 H   0  0  0  0  0  0  0  0  0  0  0  0
   58.6780   29.5680   44.6780 C   0  0  0  0  0  0  0  0  0  0  0  0
   57.9210   28.8580   43.7300 C   0  0  0  0  0  0  0  0  0  0  0  0
   58.3242   27.9357   43.2865 H   0  0  0  0  0  0  0  0  0  0  0  0
   56.6590   29.3190   43.3490 C   0  0  0  0  0  0  0  0  0  0  0  0
   56.0770   28.7671   42.5962 H   0  0  0  0  0  0  0  0  0  0  0  0
   56.1350   30.4790   43.9220 C   0  0  0  0  0  0  0  0  0  0  0  0
   55.1351   30.8313   43.6287 H   0  0  0  0  0  0  0  0  0  0  0  0
   56.8750   31.1940   44.8660 C   0  0  0  0  0  0  0  0  0  0  0  0
   56.4524   32.1055   45.3138 H   0  0  0  0  0  0  0  0  0  0  0  0
   58.1600   30.7570   45.2500 C   0  0  0  0  0  0  0  0  0  0  0  0
   58.9300   31.4750   46.1970 C   0  0  0  0  0  0  0  0  0  0  0  0
   58.4030   32.6610   46.7990 N   0  0  0  0  0  0  0  0  0  0  0  0
   58.3990   34.1750   45.9610 S   0  0  0  0  0  0  0  0  0  0  0  0
   56.9890   34.5790   45.6220 O   0  0  0  0  0  0  0  0  0  0  0  0
   59.0380   35.2400   46.8070 O   0  0  0  0  0  0  0  0  0  0  0  0
   59.3290   34.0040   44.4560 C   0  0  0  0  0  0  0  0  0  0  0  0
   60.3845   33.8099   44.6973 H   0  0  0  0  0  0  0  0  0  0  0  0
   58.9266   33.1648   43.8697 H   0  0  0  0  0  0  0  0  0  0  0  0
   59.2514   34.9315   43.8697 H   0  0  0  0  0  0  0  0  0  0  0  0
  1  2  1  0
  2  3  1  0
  3  4  1  0
  3  5  2  0
  5  6  1  0
  5  7  1  0
  7  8  2  0
  8  9  1  0
  8 10  1  0
 10 11  1  0
 11 12  2  0
 12 13  1  0
 13 14  2  0
 13 15  2  0
 13 16  1  0
 16 17  2  0
 17 18  1  0
 17 19  1  0
 19 20  1  0
 20 21  1  0
 20 22  1  0
 20 23  1  0
 19 24  1  0
 24 25  1  0
 24 26  2  0
 26 27  1  0
 11 28  1  0
 28 29  2  0
 29 30  1  0
 30 31  1  0
 31 32  1  0
 32 33  1  0
 32 34  1  0
 32 35  1  0
 35 36  1  0
 35 37  1  0
 35 38  1  0
 38 39  1  0
 38 40  1  0
 40 41  1  0
 40 42  1  0
 40 43  1  0
 43 44  2  0
 44 45  1  0
 44 46  1  0
 46 47  1  0
 46 48  2  0
 48 49  1  0
 49 50  1  0
 49 51  2  0
 51 52  1  0
 51 53  1  0
 53 54  1  0
 53 55  2  0
 55 56  1  0
 55 57  1  0
 57 58  2  0
 58 59  1  0
 59 60  1  0
 60 61  2  0
 60 62  2  0
 60 63  1  0
 63 64  1  0
 63 65  1  0
 63 66  1  0
 30  2  2  0
 58 43  1  0
 29  7  1  0
 57 48  1  0
 26 16  1  0
M  CHG  3  10  -1  26   1  59  -1
M  END
>  <UniqueID>  (51) 
48

>  <SMILES>  (51) 
Cn1c[nH+]c(S(=O)(=O)/N=c2\nc3c(OCCNCc4ccc5ccccc5c4[N-]S(C)(=O)=O)cccc3c[n-]2)c1

>  <Energy>  (51) 
108.30682888106205

>  <Genealogy>  (51) 
Cn1c[nH+]c(S(=O)(=O)N=c2nc3c(OCCNCc4ccc5ccccc5c4[N-]S(C)(=O)=O)cccc3c[n-]2)c1 (protonated)
Cn1c[nH+]c(S(=O)(=O)/N=c2\nc3c(OCCNCc4ccc5ccccc5c4[N-]S(C)(=O)=O)cccc3c[n-]2)c1 (cis-trans isomerization)
Cn1c[nH+]c(S(=O)(=O)/N=c2\nc3c(OCCNCc4ccc5ccccc5c4[N-]S(C)(=O)=O)cccc3c[n-]2)c1 (3D coordinates assigned)
Cn1c[nH+]c(S(=O)(=O)/N=c2\nc3c(OCCNCc4ccc5ccccc5c4[N-]S(C)(=O)=O)cccc3c[n-]2)c1 (optimized conformer: 108.30682888106205 kcal/mol)

>  <smiles>  (51) 
Cn1cnc(S(=O)(=O)N=c2nc3c(OCCNCc4ccc5ccccc5c4NS(C)(=O)=O)cccc3c[nH]2)c1

>  <score_type>  (51) 
oracle

>  <origin>  (51) 
adg

>  <m_score__min__energy>  (51) 
-10.9

>  <m_primary>  (51) 
energy

$$$$
51:0
     RDKit          3D

 42 44  0  0  0  0  0  0  0  0999 V2000
   61.0590   28.7990   45.0410 O   0  0  0  0  0  0  0  0  0  0  0  0
   60.3030   28.8670   46.0480 C   0  0  0  0  0  0  0  0  0  0  0  0
   60.7300   29.5850   47.2100 N   0  0  0  0  0  0  0  0  0  0  0  0
   59.8660   30.5000   47.9430 C   0  0  0  0  0  0  0  0  0  0  0  0
   60.3050   31.9450   47.7030 C   0  0  0  0  0  0  0  0  0  0  0  0
   59.4100   32.6300   46.7000 C   0  0  0  0  0  0  0  0  0  0  0  0
   59.6670   33.9570   46.3150 C   0  0  0  0  0  0  0  0  0  0  0  0
   58.8190   34.6040   45.4110 C   0  0  0  0  0  0  0  0  0  0  0  0
   57.7080   33.9340   44.8900 C   0  0  0  0  0  0  0  0  0  0  0  0
   57.4390   32.6190   45.2760 C   0  0  0  0  0  0  0  0  0  0  0  0
   58.2840   31.9680   46.1820 C   0  0  0  0  0  0  0  0  0  0  0  0
   58.9830   28.1950   46.0340 C   0  0  0  0  0  0  0  0  0  0  0  0
   57.9190   28.7220   45.2780 C   0  0  0  0  0  0  0  0  0  0  0  0
   56.6770   28.0790   45.2550 C   0  0  0  0  0  0  0  0  0  0  0  0
   56.4750   26.9000   45.9920 C   0  0  0  0  0  0  0  0  0  0  0  0
   55.2220   26.2030   45.9890 N   0  0  0  0  0  0  0  0  0  0  0  0
   55.0320   24.4900   46.1820 S   0  0  0  0  0  0  0  0  0  0  0  0
   53.5800   24.1290   46.0300 O   0  0  0  0  0  0  0  0  0  0  0  0
   55.4980   24.0960   47.5540 O   0  0  0  0  0  0  0  0  0  0  0  0
   56.0010   23.6480   44.9880 C   0  0  0  0  0  0  0  0  0  0  0  0
   55.6640   23.4710   43.6550 C   0  0  0  0  0  0  0  0  0  0  0  0
   56.6230   22.7370   42.9440 C   0  0  0  0  0  0  0  0  0  0  0  0
   57.7070   22.3400   43.7180 C   0  0  0  0  0  0  0  0  0  0  0  0
   57.4750   22.8990   45.2880 S   0  0  0  0  0  0  0  0  0  0  0  0
   57.5290   26.3790   46.7510 C   0  0  0  0  0  0  0  0  0  0  0  0
   58.7730   27.0160   46.7720 C   0  0  0  0  0  0  0  0  0  0  0  0
   58.8284   30.3735   47.6003 H   0  0  0  0  0  0  0  0  0  0  0  0
   59.9356   30.2769   49.0179 H   0  0  0  0  0  0  0  0  0  0  0  0
   60.2635   32.4950   48.6547 H   0  0  0  0  0  0  0  0  0  0  0  0
   61.3300   31.9349   47.3040 H   0  0  0  0  0  0  0  0  0  0  0  0
   60.5380   34.4883   46.7262 H   0  0  0  0  0  0  0  0  0  0  0  0
   59.0262   35.6413   45.1094 H   0  0  0  0  0  0  0  0  0  0  0  0
   57.0449   34.4432   44.1752 H   0  0  0  0  0  0  0  0  0  0  0  0
   56.5625   32.0947   44.8677 H   0  0  0  0  0  0  0  0  0  0  0  0
   58.0660   30.9346   46.4896 H   0  0  0  0  0  0  0  0  0  0  0  0
   58.0654   29.6468   44.7007 H   0  0  0  0  0  0  0  0  0  0  0  0
   55.8545   28.4984   44.6570 H   0  0  0  0  0  0  0  0  0  0  0  0
   54.7416   23.8649   43.2033 H   0  0  0  0  0  0  0  0  0  0  0  0
   56.5269   22.4977   41.8746 H   0  0  0  0  0  0  0  0  0  0  0  0
   58.5709   21.7584   43.3639 H   0  0  0  0  0  0  0  0  0  0  0  0
   57.3771   25.4601   47.3362 H   0  0  0  0  0  0  0  0  0  0  0  0
   59.5935   26.5924   47.3698 H   0  0  0  0  0  0  0  0  0  0  0  0
  1  2  2  0
  2  3  1  0
  3  4  1  0
  4  5  1  0
  5  6  1  0
  6  7  2  0
  7  8  1  0
  8  9  2  0
  9 10  1  0
 10 11  2  0
  2 12  1  0
 12 13  2  0
 13 14  1  0
 14 15  2  0
 15 16  1  0
 16 17  1  0
 17 18  2  0
 17 19  2  0
 17 20  1  0
 20 21  2  0
 21 22  1  0
 22 23  2  0
 23 24  1  0
 15 25  1  0
 25 26  2  0
 11  6  1  0
 26 12  1  0
 24 20  1  0
  4 27  1  0
  4 28  1  0
  5 29  1  0
  5 30  1  0
  7 31  1  0
  8 32  1  0
  9 33  1  0
 10 34  1  0
 11 35  1  0
 13 36  1  0
 14 37  1  0
 21 38  1  0
 22 39  1  0
 23 40  1  0
 25 41  1  0
 26 42  1  0
M  CHG  2   3  -1  16  -1
M  END
>  <UniqueID>  (52) 
49

>  <SMILES>  (52) 
O=C([N-]CCc1ccccc1)c1ccc([N-]S(=O)(=O)c2cccs2)cc1

>  <Energy>  (52) 
69.01158792590827

>  <Genealogy>  (52) 
O=C([N-]CCc1ccccc1)c1ccc([N-]S(=O)(=O)c2cccs2)cc1 (protonated)
O=C([N-]CCc1ccccc1)c1ccc([N-]S(=O)(=O)c2cccs2)cc1 (3D coordinates assigned)
O=C([N-]CCc1ccccc1)c1ccc([N-]S(=O)(=O)c2cccs2)cc1 (optimized conformer: 69.01158792590827 kcal/mol)

>  <smiles>  (52) 
O=C(NCCc1ccccc1)c1ccc(NS(=O)(=O)c2cccs2)cc1

>  <score_type>  (52) 
oracle

>  <origin>  (52) 
adg

>  <m_score__min__energy>  (52) 
-10.94

>  <m_primary>  (52) 
energy

$$$$
52:0
     RDKit          3D

 32 34  0  0  0  0  0  0  0  0999 V2000
   50.7000   32.6960   52.3800 C   0  0  0  0  0  0  0  0  0  0  0  0
   51.0370   32.3340   51.0100 N   0  0  0  0  0  0  0  0  0  0  0  0
   51.7200   31.1350   50.6220 C   0  0  0  0  0  0  0  0  0  0  0  0
   51.3320   30.5220   49.5930 O   0  0  0  0  0  0  0  0  0  0  0  0
   52.8330   30.5690   51.4100 C   0  0  0  0  0  0  0  0  0  0  0  0
   54.0310   31.2990   51.5810 C   0  0  0  0  0  0  0  0  0  0  0  0
   55.0420   30.6950   52.3180 C   0  0  0  0  0  0  0  0  0  0  0  0
   54.9000   29.4350   52.8490 C   0  0  0  0  0  0  0  0  0  0  0  0
   53.7260   28.7190   52.6550 C   0  0  0  0  0  0  0  0  0  0  0  0
   52.7200   29.3000   51.9330 N   0  0  0  0  0  0  0  0  0  0  0  0
   56.0070   29.0440   53.5170 N   0  0  0  0  0  0  0  0  0  0  0  0
   56.8610   30.0840   53.3970 C   0  0  0  0  0  0  0  0  0  0  0  0
   58.1530   30.1740   53.9130 C   0  0  0  0  0  0  0  0  0  0  0  0
   58.8890   31.3620   53.6700 C   0  0  0  0  0  0  0  0  0  0  0  0
   60.1940   31.5420   54.1500 O   0  0  0  0  0  0  0  0  0  0  0  0
   60.7670   32.8070   54.4610 C   0  0  0  0  0  0  0  0  0  0  0  0
   58.3030   32.4090   52.9200 C   0  0  0  0  0  0  0  0  0  0  0  0
   56.9980   32.2930   52.4090 C   0  0  0  0  0  0  0  0  0  0  0  0
   56.3050   31.1140   52.6680 C   0  0  0  0  0  0  0  0  0  0  0  0
   51.2798   32.0731   53.0770 H   0  0  0  0  0  0  0  0  0  0  0  0
   50.9402   33.7561   52.5488 H   0  0  0  0  0  0  0  0  0  0  0  0
   49.6255   32.5321   52.5488 H   0  0  0  0  0  0  0  0  0  0  0  0
   54.1576   32.3027   51.1490 H   0  0  0  0  0  0  0  0  0  0  0  0
   53.6079   27.7081   53.0723 H   0  0  0  0  0  0  0  0  0  0  0  0
   51.8380   28.7590   51.7890 H   0  0  0  0  0  0  0  0  0  0  0  0
   56.1680   28.1370   54.0080 H   0  0  0  0  0  0  0  0  0  0  0  0
   58.5894   29.3470   54.4923 H   0  0  0  0  0  0  0  0  0  0  0  0
   60.8211   32.9265   55.5532 H   0  0  0  0  0  0  0  0  0  0  0  0
   61.7795   32.8656   54.0351 H   0  0  0  0  0  0  0  0  0  0  0  0
   60.1433   33.6067   54.0351 H   0  0  0  0  0  0  0  0  0  0  0  0
   58.8774   33.3284   52.7337 H   0  0  0  0  0  0  0  0  0  0  0  0
   56.5409   33.1055   51.8251 H   0  0  0  0  0  0  0  0  0  0  0  0
  1  2  1  0
  2  3  1  0
  3  4  2  0
  3  5  1  0
  5  6  2  0
  6  7  1  0
  7  8  2  0
  8  9  1  0
  9 10  2  0
  8 11  1  0
 11 12  1  0
 12 13  2  0
 13 14  1  0
 14 15  1  0
 15 16  1  0
 14 17  2  0
 17 18  1  0
 18 19  2  0
 10  5  1  0
 19 12  1  0
 19  7  1  0
  1 20  1  0
  1 21  1  0
  1 22  1  0
  6 23  1  0
  9 24  1  0
 10 25  1  0
 11 26  1  0
 13 27  1  0
 16 28  1  0
 16 29  1  0
 16 30  1  0
 17 31  1  0
 18 32  1  0
M  CHG  2   2  -1  10   1
M  END
>  <UniqueID>  (53) 
50

>  <SMILES>  (53) 
C[N-]C(=O)c1cc2c(c[nH+]1)[nH]c1cc(OC)ccc12

>  <Energy>  (53) 
78.12119672990168

>  <Genealogy>  (53) 
C[N-]C(=O)c1cc2c(c[nH+]1)[nH]c1cc(OC)ccc12 (protonated)
C[N-]C(=O)c1cc2c(c[nH+]1)[nH]c1cc(OC)ccc12 (3D coordinates assigned)
C[N-]C(=O)c1cc2c(c[nH+]1)[nH]c1cc(OC)ccc12 (optimized conformer: 78.12119672990168 kcal/mol)

>  <smiles>  (53) 
CNC(=O)c1cc2c(cn1)[nH]c1cc(OC)ccc12

>  <score_type>  (53) 
oracle

>  <origin>  (53) 
adg

>  <m_score__min__energy>  (53) 
-6.7300000000000004

>  <m_primary>  (53) 
energy

$$$$
53:0
     RDKit          3D

 36 39  0  0  0  0  0  0  0  0999 V2000
   56.4150   28.9900   42.6700 N   0  0  0  0  0  0  0  0  0  0  0  0
   56.7710   29.2610   44.0290 C   0  0  0  0  0  0  0  0  0  0  0  0
   56.3800   30.3340   44.5610 O   0  0  0  0  0  0  0  0  0  0  0  0
   57.5380   28.2920   44.8410 C   0  0  0  0  0  0  0  0  0  0  0  0
   57.3960   26.9670   44.5610 N   0  0  0  0  0  0  0  0  0  0  0  0
   58.0590   26.0020   45.2490 C   0  0  0  0  0  0  0  0  0  0  0  0
   58.9180   26.3460   46.2910 C   0  0  0  0  0  0  0  0  0  0  0  0
   59.0810   27.6980   46.6340 C   0  0  0  0  0  0  0  0  0  0  0  0
   59.9020   28.0990   47.7040 C   0  0  0  0  0  0  0  0  0  0  0  0
   60.5390   27.2510   48.3860 O   0  0  0  0  0  0  0  0  0  0  0  0
   60.0070   29.4550   48.0270 C   0  0  0  0  0  0  0  0  0  0  0  0
   59.3010   30.4050   47.2760 C   0  0  0  0  0  0  0  0  0  0  0  0
   59.3580   31.8000   47.6060 N   0  0  0  0  0  0  0  0  0  0  0  0
   59.4630   32.3050   48.9760 C   0  0  0  0  0  0  0  0  0  0  0  0
   59.6270   33.8400   48.8540 C   0  0  0  0  0  0  0  0  0  0  0  0
   59.4970   34.0850   47.3910 C   0  0  0  0  0  0  0  0  0  0  0  0
   59.4700   35.3130   46.7290 C   0  0  0  0  0  0  0  0  0  0  0  0
   59.2630   35.3210   45.3400 C   0  0  0  0  0  0  0  0  0  0  0  0
   59.0680   34.1120   44.6460 C   0  0  0  0  0  0  0  0  0  0  0  0
   59.0930   32.8890   45.3360 C   0  0  0  0  0  0  0  0  0  0  0  0
   59.3410   32.9050   46.7150 C   0  0  0  0  0  0  0  0  0  0  0  0
   58.4980   29.9930   46.2600 N   0  0  0  0  0  0  0  0  0  0  0  0
   58.3790   28.6850   45.9040 C   0  0  0  0  0  0  0  0  0  0  0  0
   56.5260   28.0370   42.2590 H   0  0  0  0  0  0  0  0  0  0  0  0
   55.9300   29.7200   42.1030 H   0  0  0  0  0  0  0  0  0  0  0  0
   57.9174   24.9442   44.9826 H   0  0  0  0  0  0  0  0  0  0  0  0
   59.4639   25.5649   46.8404 H   0  0  0  0  0  0  0  0  0  0  0  0
   60.6410   29.7752   48.8670 H   0  0  0  0  0  0  0  0  0  0  0  0
   58.5528   32.0618   49.5437 H   0  0  0  0  0  0  0  0  0  0  0  0
   60.3111   31.8504   49.5090 H   0  0  0  0  0  0  0  0  0  0  0  0
   58.8388   34.3658   49.4128 H   0  0  0  0  0  0  0  0  0  0  0  0
   60.5786   34.2048   49.2679 H   0  0  0  0  0  0  0  0  0  0  0  0
   59.6077   36.2535   47.2826 H   0  0  0  0  0  0  0  0  0  0  0  0
   59.2532   36.2751   44.7926 H   0  0  0  0  0  0  0  0  0  0  0  0
   58.8955   34.1251   43.5597 H   0  0  0  0  0  0  0  0  0  0  0  0
   58.9218   31.9404   44.8061 H   0  0  0  0  0  0  0  0  0  0  0  0
  1  2  1  0
  2  3  2  0
  2  4  1  0
  4  5  2  0
  5  6  1  0
  6  7  2  0
  7  8  1  0
  8  9  1  0
  9 10  2  0
  9 11  1  0
 11 12  2  0
 12 13  1  0
 13 14  1  0
 14 15  1  0
 15 16  1  0
 16 17  2  0
 17 18  1  0
 18 19  2  0
 19 20  1  0
 20 21  2  0
 12 22  1  0
 22 23  1  0
 23  4  1  0
 23  8  2  0
 21 13  1  0
 21 16  1  0
  1 24  1  0
  1 25  1  0
  6 26  1  0
  7 27  1  0
 11 28  1  0
 14 29  1  0
 14 30  1  0
 15 31  1  0
 15 32  1  0
 17 33  1  0
 18 34  1  0
 19 35  1  0
 20 36  1  0
M  CHG  1  22  -1
M  END
>  <UniqueID>  (54) 
51

>  <SMILES>  (54) 
NC(=O)c1nccc2c(=O)cc(N3CCc4ccccc43)[n-]c12

>  <Energy>  (54) 
67.23103128316035

>  <Genealogy>  (54) 
NC(=O)c1nccc2c(=O)cc(N3CCc4ccccc43)[n-]c12 (protonated)
NC(=O)c1nccc2c(=O)cc(N3CCc4ccccc43)[n-]c12 (3D coordinates assigned)
NC(=O)c1nccc2c(=O)cc(N3CCc4ccccc43)[n-]c12 (nonaromatic ring conformer: 67.23103128316035 kcal/mol)

>  <smiles>  (54) 
NC(=O)c1nccc2c(=O)cc(N3CCc4ccccc43)[nH]c12

>  <score_type>  (54) 
oracle

>  <origin>  (54) 
adg

>  <m_score__min__energy>  (54) 
-9.0299999999999994

>  <m_primary>  (54) 
energy

$$$$
54:0
     RDKit          3D

 49 51  0  0  0  0  0  0  0  0999 V2000
   63.4780   31.7100   47.0980 C   0  0  0  0  0  0  0  0  0  0  0  0
   63.7000   33.2020   46.8470 C   0  0  0  0  0  0  0  0  0  0  0  0
   63.4110   34.0520   48.0900 C   0  0  0  0  0  0  0  0  0  0  0  0
   62.1520   33.6180   48.7800 C   0  0  0  0  0  0  0  0  0  0  0  0
   61.9350   33.6650   50.1570 C   0  0  0  0  0  0  0  0  0  0  0  0
   60.6330   33.2470   50.3080 C   0  0  0  0  0  0  0  0  0  0  0  0
   59.8870   33.1470   51.4360 N   0  0  0  0  0  0  0  0  0  0  0  0
   58.5790   32.7550   51.3180 C   0  0  0  0  0  0  0  0  0  0  0  0
   57.7230   32.6270   52.5360 C   0  0  0  0  0  0  0  0  0  0  0  0
   58.0530   32.4700   50.0830 N   0  0  0  0  0  0  0  0  0  0  0  0
   58.8030   32.5640   48.9450 C   0  0  0  0  0  0  0  0  0  0  0  0
   58.2230   32.2750   47.6670 N   0  0  0  0  0  0  0  0  0  0  0  0
   57.5900   33.3870   46.9320 C   0  0  0  0  0  0  0  0  0  0  0  0
   58.2150   33.6970   45.5610 C   0  0  0  0  0  0  0  0  0  0  0  0
   57.6380   32.8260   44.4370 C   0  0  0  0  0  0  0  0  0  0  0  0
   57.6250   31.4160   44.8470 N   0  0  0  0  0  0  0  0  0  0  0  0
   56.7240   30.4890   44.1930 C   0  0  0  0  0  0  0  0  0  0  0  0
   56.6370   30.3850   42.6990 C   0  0  0  0  0  0  0  0  0  0  0  0
   55.9880   29.7320   44.8840 O   0  0  0  0  0  0  0  0  0  0  0  0
   58.7510   30.9450   45.6600 C   0  0  0  0  0  0  0  0  0  0  0  0
   58.3560   30.9110   47.1370 C   0  0  0  0  0  0  0  0  0  0  0  0
   60.1280   32.9690   49.0760 C   0  0  0  0  0  0  0  0  0  0  0  0
   61.0440   33.1980   48.1200 N   0  0  0  0  0  0  0  0  0  0  0  0
   63.4498   31.5206   48.1812 H   0  0  0  0  0  0  0  0  0  0  0  0
   62.5239   31.4002   46.6467 H   0  0  0  0  0  0  0  0  0  0  0  0
   64.3006   31.1359   46.6467 H   0  0  0  0  0  0  0  0  0  0  0  0
   64.7469   33.3581   46.5476 H   0  0  0  0  0  0  0  0  0  0  0  0
   63.0038   33.5167   46.0556 H   0  0  0  0  0  0  0  0  0  0  0  0
   64.2530   33.9554   48.7912 H   0  0  0  0  0  0  0  0  0  0  0  0
   63.2827   35.0961   47.7685 H   0  0  0  0  0  0  0  0  0  0  0  0
   62.6431   33.9672   50.9427 H   0  0  0  0  0  0  0  0  0  0  0  0
   60.3000   33.3740   52.3680 H   0  0  0  0  0  0  0  0  0  0  0  0
   58.3490   32.7206   53.4356 H   0  0  0  0  0  0  0  0  0  0  0  0
   56.9621   33.4213   52.5345 H   0  0  0  0  0  0  0  0  0  0  0  0
   57.2277   31.6448   52.5345 H   0  0  0  0  0  0  0  0  0  0  0  0
   56.5311   33.1339   46.7753 H   0  0  0  0  0  0  0  0  0  0  0  0
   57.7365   34.2865   47.5480 H   0  0  0  0  0  0  0  0  0  0  0  0
   58.0271   34.7535   45.3193 H   0  0  0  0  0  0  0  0  0  0  0  0
   59.2914   33.4809   45.6298 H   0  0  0  0  0  0  0  0  0  0  0  0
   56.6102   33.1503   44.2167 H   0  0  0  0  0  0  0  0  0  0  0  0
   58.2652   32.9342   43.5398 H   0  0  0  0  0  0  0  0  0  0  0  0
   55.9530   29.5674   42.4276 H   0  0  0  0  0  0  0  0  0  0  0  0
   56.2582   31.3320   42.2870 H   0  0  0  0  0  0  0  0  0  0  0  0
   57.6360   30.1794   42.2870 H   0  0  0  0  0  0  0  0  0  0  0  0
   59.0351   29.9329   45.3361 H   0  0  0  0  0  0  0  0  0  0  0  0
   59.6002   31.6320   45.5306 H   0  0  0  0  0  0  0  0  0  0  0  0
   57.3948   30.3866   47.2424 H   0  0  0  0  0  0  0  0  0  0  0  0
   59.1396   30.3852   47.7022 H   0  0  0  0  0  0  0  0  0  0  0  0
   60.9230   33.1090   47.0870 H   0  0  0  0  0  0  0  0  0  0  0  0
  1  2  1  0
  2  3  1  0
  3  4  1  0
  4  5  2  0
  5  6  1  0
  6  7  2  0
  7  8  1  0
  8  9  1  0
  8 10  2  0
 10 11  1  0
 11 12  1  0
 12 13  1  0
 13 14  1  0
 14 15  1  0
 15 16  1  0
 16 17  1  0
 17 18  1  0
 17 19  2  0
 16 20  1  0
 20 21  1  0
 11 22  2  0
 22 23  1  0
 23  4  1  0
 22  6  1  0
 21 12  1  0
  1 24  1  0
  1 25  1  0
  1 26  1  0
  2 27  1  0
  2 28  1  0
  3 29  1  0
  3 30  1  0
  5 31  1  0
  7 32  1  0
  9 33  1  0
  9 34  1  0
  9 35  1  0
 13 36  1  0
 13 37  1  0
 14 38  1  0
 14 39  1  0
 15 40  1  0
 15 41  1  0
 18 42  1  0
 18 43  1  0
 18 44  1  0
 20 45  1  0
 20 46  1  0
 21 47  1  0
 21 48  1  0
 23 49  1  0
M  CHG  1   7   1
M  END
>  <UniqueID>  (55) 
52

>  <SMILES>  (55) 
CCCc1cc2[nH+]c(C)nc(N3CCCN(C(C)=O)CC3)c2[nH]1

>  <Energy>  (55) 
82.80489550211534

>  <Genealogy>  (55) 
CCCc1cc2[nH+]c(C)nc(N3CCCN(C(C)=O)CC3)c2[nH]1 (protonated)
CCCc1cc2[nH+]c(C)nc(N3CCCN(C(C)=O)CC3)c2[nH]1 (3D coordinates assigned)
CCCc1cc2[nH+]c(C)nc(N3CCCN(C(C)=O)CC3)c2[nH]1 (nonaromatic ring conformer: 82.80489550211534 kcal/mol)

>  <smiles>  (55) 
CCCc1cc2nc(C)nc(N3CCCN(C(C)=O)CC3)c2[nH]1

>  <score_type>  (55) 
oracle

>  <origin>  (55) 
adg

>  <m_score__min__energy>  (55) 
-3.9500000000000002

>  <m_primary>  (55) 
energy

$$$$
55:0
     RDKit          3D

 42 43  0  0  0  0  0  0  0  0999 V2000
   59.0110   33.5820   47.8140 C   0  0  0  0  0  0  0  0  0  0  0  0
   58.6250   33.0760   46.4560 C   0  0  0  0  0  0  0  0  0  0  0  0
   58.6860   33.9250   45.3440 C   0  0  0  0  0  0  0  0  0  0  0  0
   58.2950   33.4670   44.0870 C   0  0  0  0  0  0  0  0  0  0  0  0
   57.8300   32.1520   43.9140 C   0  0  0  0  0  0  0  0  0  0  0  0
   57.3950   31.7130   42.5400 C   0  0  0  0  0  0  0  0  0  0  0  0
   57.7290   31.3010   45.0410 C   0  0  0  0  0  0  0  0  0  0  0  0
   57.0980   29.6490   44.9120 S   0  0  0  0  0  0  0  0  0  0  0  0
   55.5980   29.7010   44.8380 O   0  0  0  0  0  0  0  0  0  0  0  0
   57.6170   28.9850   43.6660 O   0  0  0  0  0  0  0  0  0  0  0  0
   57.5760   28.7110   46.2950 N   0  0  0  0  0  0  0  0  0  0  0  0
   59.0190   28.4590   46.2540 C   0  0  0  0  0  0  0  0  0  0  0  0
   59.3460   27.2890   45.3210 C   0  0  0  0  0  0  0  0  0  0  0  0
   58.6220   26.0640   45.7330 N   0  0  0  0  0  0  0  0  0  0  0  0
   58.2900   26.0980   47.1740 C   0  0  0  0  0  0  0  0  0  0  0  0
   57.2050   25.0620   47.5050 C   0  0  0  0  0  0  0  0  0  0  0  0
   55.9810   25.2500   46.8040 O   0  0  0  0  0  0  0  0  0  0  0  0
   56.1130   26.0280   45.6230 C   0  0  0  0  0  0  0  0  0  0  0  0
   57.4380   25.7790   44.8820 C   0  0  0  0  0  0  0  0  0  0  0  0
   58.1310   31.7750   46.3020 C   0  0  0  0  0  0  0  0  0  0  0  0
   58.5358   32.9591   48.5861 H   0  0  0  0  0  0  0  0  0  0  0  0
   60.1042   33.5343   47.9260 H   0  0  0  0  0  0  0  0  0  0  0  0
   58.6761   34.6238   47.9260 H   0  0  0  0  0  0  0  0  0  0  0  0
   59.0442   34.9582   45.4631 H   0  0  0  0  0  0  0  0  0  0  0  0
   58.3510   34.1424   43.2206 H   0  0  0  0  0  0  0  0  0  0  0  0
   56.6234   30.9343   42.6310 H   0  0  0  0  0  0  0  0  0  0  0  0
   56.9840   32.5743   41.9929 H   0  0  0  0  0  0  0  0  0  0  0  0
   58.2600   31.3099   41.9929 H   0  0  0  0  0  0  0  0  0  0  0  0
   57.0830   27.7930   46.2130 H   0  0  0  0  0  0  0  0  0  0  0  0
   59.5317   29.3622   45.8915 H   0  0  0  0  0  0  0  0  0  0  0  0
   59.3590   28.2036   47.2685 H   0  0  0  0  0  0  0  0  0  0  0  0
   59.0507   27.5536   44.2949 H   0  0  0  0  0  0  0  0  0  0  0  0
   60.4269   27.0914   45.3717 H   0  0  0  0  0  0  0  0  0  0  0  0
   59.1944   25.8733   47.7585 H   0  0  0  0  0  0  0  0  0  0  0  0
   57.9119   27.0996   47.4266 H   0  0  0  0  0  0  0  0  0  0  0  0
   57.5946   24.0639   47.2560 H   0  0  0  0  0  0  0  0  0  0  0  0
   56.9758   25.1775   48.5746 H   0  0  0  0  0  0  0  0  0  0  0  0
   55.2816   25.7812   44.9463 H   0  0  0  0  0  0  0  0  0  0  0  0
   56.0988   27.0860   45.9236 H   0  0  0  0  0  0  0  0  0  0  0  0
   57.4744   24.7258   44.5665 H   0  0  0  0  0  0  0  0  0  0  0  0
   57.4732   26.4587   44.0178 H   0  0  0  0  0  0  0  0  0  0  0  0
   58.0565   31.1152   47.1790 H   0  0  0  0  0  0  0  0  0  0  0  0
  1  2  1  0
  2  3  2  0
  3  4  1  0
  4  5  2  0
  5  6  1  0
  5  7  1  0
  7  8  1  0
  8  9  2  0
  8 10  2  0
  8 11  1  0
 11 12  1  0
 12 13  1  0
 13 14  1  0
 14 15  1  0
 15 16  1  0
 16 17  1  0
 17 18  1  0
 18 19  1  0
  7 20  2  0
 20  2  1  0
 19 14  1  0
  1 21  1  0
  1 22  1  0
  1 23  1  0
  3 24  1  0
  4 25  1  0
  6 26  1  0
  6 27  1  0
  6 28  1  0
 11 29  1  0
 12 30  1  0
 12 31  1  0
 13 32  1  0
 13 33  1  0
 15 34  1  0
 15 35  1  0
 16 36  1  0
 16 37  1  0
 18 38  1  0
 18 39  1  0
 19 40  1  0
 19 41  1  0
 20 42  1  0
M  END
>  <UniqueID>  (56) 
53

>  <SMILES>  (56) 
Cc1ccc(C)c(S(=O)(=O)NCCN2CCOCC2)c1

>  <Energy>  (56) 
52.74367719597151

>  <Genealogy>  (56) 
Cc1ccc(C)c(S(=O)(=O)NCCN2CCOCC2)c1 (3D coordinates assigned)
Cc1ccc(C)c(S(=O)(=O)NCCN2CCOCC2)c1 (nonaromatic ring conformer: 52.74367719597151 kcal/mol)

>  <smiles>  (56) 
Cc1ccc(C)c(S(=O)(=O)NCCN2CCOCC2)c1

>  <score_type>  (56) 
oracle

>  <origin>  (56) 
adg

>  <m_score__min__energy>  (56) 
-7.9699999999999998

>  <m_primary>  (56) 
energy

$$$$
56:0
     RDKit          3D

 31 32  0  0  0  0  0  0  0  0999 V2000
   59.6410   33.4180   49.5080 C   0  0  0  0  0  0  0  0  0  0  0  0
   58.5980   33.0530   48.6090 O   0  0  0  0  0  0  0  0  0  0  0  0
   58.5980   33.3430   47.2360 C   0  0  0  0  0  0  0  0  0  0  0  0
   59.2130   34.5260   46.8080 C   0  0  0  0  0  0  0  0  0  0  0  0
   59.2460   34.8570   45.4510 C   0  0  0  0  0  0  0  0  0  0  0  0
   58.6610   34.0080   44.5080 C   0  0  0  0  0  0  0  0  0  0  0  0
   58.0330   32.8230   44.9180 C   0  0  0  0  0  0  0  0  0  0  0  0
   57.4300   31.9000   43.8930 C   0  0  0  0  0  0  0  0  0  0  0  0
   56.3610   31.1080   44.4920 N   0  0  0  0  0  0  0  0  0  0  0  0
   56.5010   29.7300   44.8530 C   0  0  0  0  0  0  0  0  0  0  0  0
   55.4880   28.9800   44.8760 O   0  0  0  0  0  0  0  0  0  0  0  0
   57.8030   29.2210   45.1720 N   0  0  0  0  0  0  0  0  0  0  0  0
   58.0810   27.8770   45.6000 C   0  0  0  0  0  0  0  0  0  0  0  0
   59.3540   27.3340   45.6970 C   0  0  0  0  0  0  0  0  0  0  0  0
   59.3540   26.0100   46.1490 C   0  0  0  0  0  0  0  0  0  0  0  0
   58.0850   25.5090   46.4110 C   0  0  0  0  0  0  0  0  0  0  0  0
   56.9580   26.7150   46.0800 S   0  0  0  0  0  0  0  0  0  0  0  0
   58.0070   32.4900   46.2830 C   0  0  0  0  0  0  0  0  0  0  0  0
   59.2917   33.2958   50.5439 H   0  0  0  0  0  0  0  0  0  0  0  0
   60.5150   32.7723   49.3372 H   0  0  0  0  0  0  0  0  0  0  0  0
   59.9217   34.4678   49.3372 H   0  0  0  0  0  0  0  0  0  0  0  0
   59.6735   35.1997   47.5456 H   0  0  0  0  0  0  0  0  0  0  0  0
   59.7333   35.7875   45.1245 H   0  0  0  0  0  0  0  0  0  0  0  0
   58.6932   34.2700   43.4402 H   0  0  0  0  0  0  0  0  0  0  0  0
   57.0196   32.4961   43.0646 H   0  0  0  0  0  0  0  0  0  0  0  0
   58.2110   31.2220   43.5183 H   0  0  0  0  0  0  0  0  0  0  0  0
   58.6090   29.8790   45.0930 H   0  0  0  0  0  0  0  0  0  0  0  0
   60.2700   27.8881   45.4443 H   0  0  0  0  0  0  0  0  0  0  0  0
   60.2729   25.4207   46.2843 H   0  0  0  0  0  0  0  0  0  0  0  0
   57.8555   24.4960   46.7733 H   0  0  0  0  0  0  0  0  0  0  0  0
   57.5224   31.5580   46.6093 H   0  0  0  0  0  0  0  0  0  0  0  0
  1  2  1  0
  2  3  1  0
  3  4  2  0
  4  5  1  0
  5  6  2  0
  6  7  1  0
  7  8  1  0
  8  9  1  0
  9 10  1  0
 10 11  2  0
 10 12  1  0
 12 13  1  0
 13 14  2  0
 14 15  1  0
 15 16  2  0
 16 17  1  0
  7 18  2  0
 18  3  1  0
 17 13  1  0
  1 19  1  0
  1 20  1  0
  1 21  1  0
  4 22  1  0
  5 23  1  0
  6 24  1  0
  8 25  1  0
  8 26  1  0
 12 27  1  0
 14 28  1  0
 15 29  1  0
 16 30  1  0
 18 31  1  0
M  CHG  1   9  -1
M  END
>  <UniqueID>  (57) 
54

>  <SMILES>  (57) 
COc1cccc(C[N-]C(=O)Nc2cccs2)c1

>  <Energy>  (57) 
55.19470700974826

>  <Genealogy>  (57) 
COc1cccc(C[N-]C(=O)Nc2cccs2)c1 (protonated)
COc1cccc(C[N-]C(=O)Nc2cccs2)c1 (3D coordinates assigned)
COc1cccc(C[N-]C(=O)Nc2cccs2)c1 (optimized conformer: 55.19470700974826 kcal/mol)

>  <smiles>  (57) 
COc1cccc(CNC(=O)Nc2cccs2)c1

>  <score_type>  (57) 
oracle

>  <origin>  (57) 
adg

>  <m_score__min__energy>  (57) 
-8.0700000000000003

>  <m_primary>  (57) 
energy

$$$$
57:0
     RDKit          3D

 50 53  0  0  0  0  0  0  0  0999 V2000
   59.3610   32.7980   49.2230 N   0  0  0  0  0  0  0  0  0  0  0  0
   59.1670   33.7350   48.1590 C   0  0  0  0  0  0  0  0  0  0  0  0
   59.2940   34.9660   48.4030 O   0  0  0  0  0  0  0  0  0  0  0  0
   58.8070   33.2930   46.7890 C   0  0  0  0  0  0  0  0  0  0  0  0
   58.5440   34.2460   45.7900 C   0  0  0  0  0  0  0  0  0  0  0  0
   58.2090   33.8440   44.4950 C   0  0  0  0  0  0  0  0  0  0  0  0
   58.1310   32.4860   44.1740 C   0  0  0  0  0  0  0  0  0  0  0  0
   57.7540   32.0290   42.5200 Cl  0  0  0  0  0  0  0  0  0  0  0  0
   58.3970   31.5180   45.1600 C   0  0  0  0  0  0  0  0  0  0  0  0
   58.3130   30.1140   44.8590 N   0  0  0  0  0  0  0  0  0  0  0  0
   59.5220   29.3660   44.5020 C   0  0  0  0  0  0  0  0  0  0  0  0
   59.9070   28.3860   45.6270 C   0  0  0  0  0  0  0  0  0  0  0  0
   58.6940   27.8990   46.4670 C   0  0  0  0  0  0  0  0  0  0  0  0
   58.5220   28.7260   47.6670 N   0  0  0  0  0  0  0  0  0  0  0  0
   59.4750   29.0830   48.4750 C   0  0  0  0  0  0  0  0  0  0  0  0
   60.2620   30.1590   48.1980 N   0  0  0  0  0  0  0  0  0  0  0  0
   61.2510   30.5540   49.0450 C   0  0  0  0  0  0  0  0  0  0  0  0
   62.0710   31.6900   48.7070 N   0  0  0  0  0  0  0  0  0  0  0  0
   62.6440   31.7320   47.4650 C   0  0  0  0  0  0  0  0  0  0  0  0
   63.4490   32.8080   47.0850 C   0  0  0  0  0  0  0  0  0  0  0  0
   63.6620   33.8520   47.9810 C   0  0  0  0  0  0  0  0  0  0  0  0
   63.0650   33.8160   49.2380 C   0  0  0  0  0  0  0  0  0  0  0  0
   62.2590   32.7270   49.5900 C   0  0  0  0  0  0  0  0  0  0  0  0
   61.6940   32.7270   50.7170 O   0  0  0  0  0  0  0  0  0  0  0  0
   61.4800   29.8170   50.2170 C   0  0  0  0  0  0  0  0  0  0  0  0
   60.6680   28.7160   50.4830 C   0  0  0  0  0  0  0  0  0  0  0  0
   59.6850   28.3710   49.6130 N   0  0  0  0  0  0  0  0  0  0  0  0
   57.3980   27.9410   45.6400 C   0  0  0  0  0  0  0  0  0  0  0  0
   57.0820   29.3750   45.1820 C   0  0  0  0  0  0  0  0  0  0  0  0
   58.7400   31.9280   46.4590 C   0  0  0  0  0  0  0  0  0  0  0  0
   59.6730   33.1350   50.1610 H   0  0  0  0  0  0  0  0  0  0  0  0
   59.1160   31.7910   49.1210 H   0  0  0  0  0  0  0  0  0  0  0  0
   58.6025   35.3179   46.0301 H   0  0  0  0  0  0  0  0  0  0  0  0
   58.0053   34.6008   43.7231 H   0  0  0  0  0  0  0  0  0  0  0  0
   59.3366   28.7997   43.5773 H   0  0  0  0  0  0  0  0  0  0  0  0
   60.3478   30.0775   44.3542 H   0  0  0  0  0  0  0  0  0  0  0  0
   60.3913   27.5085   45.1737 H   0  0  0  0  0  0  0  0  0  0  0  0
   60.5781   28.9262   46.3110 H   0  0  0  0  0  0  0  0  0  0  0  0
   58.8998   26.8607   46.7663 H   0  0  0  0  0  0  0  0  0  0  0  0
   62.4684   30.9083   46.7574 H   0  0  0  0  0  0  0  0  0  0  0  0
   63.9106   32.8304   46.0868 H   0  0  0  0  0  0  0  0  0  0  0  0
   64.2996   34.7021   47.6968 H   0  0  0  0  0  0  0  0  0  0  0  0
   63.2257   34.6385   49.9505 H   0  0  0  0  0  0  0  0  0  0  0  0
   62.2839   30.1024   50.9115 H   0  0  0  0  0  0  0  0  0  0  0  0
   60.8238   28.1263   51.3984 H   0  0  0  0  0  0  0  0  0  0  0  0
   57.5152   27.2984   44.7549 H   0  0  0  0  0  0  0  0  0  0  0  0
   56.5694   27.5836   46.2690 H   0  0  0  0  0  0  0  0  0  0  0  0
   56.4433   29.3334   44.2874 H   0  0  0  0  0  0  0  0  0  0  0  0
   56.5673   29.8971   46.0021 H   0  0  0  0  0  0  0  0  0  0  0  0
   58.9588   31.1719   47.2274 H   0  0  0  0  0  0  0  0  0  0  0  0
  1  2  1  0
  2  3  2  0
  2  4  1  0
  4  5  2  0
  5  6  1  0
  6  7  2  0
  7  8  1  0
  7  9  1  0
  9 10  1  0
 10 11  1  0
 11 12  1  0
 12 13  1  0
 13 14  1  0
 14 15  2  3
 15 16  1  0
 16 17  2  0
 17 18  1  0
 18 19  1  0
 19 20  2  0
 20 21  1  0
 21 22  2  0
 22 23  1  0
 23 24  2  0
 17 25  1  0
 25 26  2  0
 26 27  1  0
 13 28  1  0
 28 29  1  0
  9 30  2  0
 30  4  1  0
 29 10  1  0
 27 15  1  0
 23 18  1  0
  1 31  1  0
  1 32  1  0
  5 33  1  0
  6 34  1  0
 11 35  1  0
 11 36  1  0
 12 37  1  0
 12 38  1  0
 13 39  1  0
 19 40  1  0
 20 41  1  0
 21 42  1  0
 22 43  1  0
 25 44  1  0
 26 45  1  0
 28 46  1  0
 28 47  1  0
 29 48  1  0
 29 49  1  0
 30 50  1  0
M  CHG  1  27  -1
M  END
>  <UniqueID>  (58) 
55

>  <SMILES>  (58) 
NC(=O)c1ccc(Cl)c(N2CCC(N=c3nc(-n4ccccc4=O)cc[n-]3)CC2)c1

>  <Energy>  (58) 
71.17836726537872

>  <Genealogy>  (58) 
NC(=O)c1ccc(Cl)c(N2CCC(N=c3nc(-n4ccccc4=O)cc[n-]3)CC2)c1 (protonated)
NC(=O)c1ccc(Cl)c(N2CCC(N=c3nc(-n4ccccc4=O)cc[n-]3)CC2)c1 (3D coordinates assigned)
NC(=O)c1ccc(Cl)c(N2CCC(N=c3nc(-n4ccccc4=O)cc[n-]3)CC2)c1 (nonaromatic ring conformer: 71.17836726537872 kcal/mol)

>  <smiles>  (58) 
NC(=O)c1ccc(Cl)c(N2CCC(N=c3nc(-n4ccccc4=O)cc[nH]3)CC2)c1

>  <score_type>  (58) 
oracle

>  <origin>  (58) 
adg

>  <m_score__min__energy>  (58) 
-10.25

>  <m_primary>  (58) 
energy

$$$$
58:0
     RDKit          3D

 43 46  0  0  0  0  0  0  0  0999 V2000
   60.8770   27.3610   50.4400 C   0  0  0  0  0  0  0  0  0  0  0  0
   60.2530   28.4360   49.1670 S   0  0  0  0  0  0  0  0  0  0  0  0
   61.3620   29.3050   48.6460 O   0  0  0  0  0  0  0  0  0  0  0  0
   59.1760   29.3130   49.7420 O   0  0  0  0  0  0  0  0  0  0  0  0
   59.6060   27.4580   47.8530 C   0  0  0  0  0  0  0  0  0  0  0  0
   60.4410   26.6140   47.1110 C   0  0  0  0  0  0  0  0  0  0  0  0
   59.9230   25.8810   46.0410 C   0  0  0  0  0  0  0  0  0  0  0  0
   58.5770   26.0070   45.6900 C   0  0  0  0  0  0  0  0  0  0  0  0
   57.7330   26.8710   46.4090 C   0  0  0  0  0  0  0  0  0  0  0  0
   56.3230   27.0510   45.9860 C   0  0  0  0  0  0  0  0  0  0  0  0
   55.4670   26.1900   46.3190 O   0  0  0  0  0  0  0  0  0  0  0  0
   55.8850   28.1950   45.2350 N   0  0  0  0  0  0  0  0  0  0  0  0
   56.6630   29.3530   44.8910 C   0  0  0  0  0  0  0  0  0  0  0  0
   56.5270   29.9000   43.6100 C   0  0  0  0  0  0  0  0  0  0  0  0
   57.2450   31.0430   43.2520 C   0  0  0  0  0  0  0  0  0  0  0  0
   58.0990   31.6530   44.1740 C   0  0  0  0  0  0  0  0  0  0  0  0
   58.2600   31.1110   45.4590 C   0  0  0  0  0  0  0  0  0  0  0  0
   59.1300   31.7950   46.4410 C   0  0  0  0  0  0  0  0  0  0  0  0
   59.7250   31.1840   47.5020 N   0  0  0  0  0  0  0  0  0  0  0  0
   60.3670   32.1920   48.1060 C   0  0  0  0  0  0  0  0  0  0  0  0
   61.1150   32.1310   49.2340 N   0  0  0  0  0  0  0  0  0  0  0  0
   61.6880   33.2820   49.7020 C   0  0  0  0  0  0  0  0  0  0  0  0
   61.4990   34.5090   49.0190 C   0  0  0  0  0  0  0  0  0  0  0  0
   60.7140   34.5470   47.8520 C   0  0  0  0  0  0  0  0  0  0  0  0
   60.1590   33.3470   47.4260 C   0  0  0  0  0  0  0  0  0  0  0  0
   59.3900   33.0970   46.3960 O   0  0  0  0  0  0  0  0  0  0  0  0
   57.5680   29.9350   45.7960 C   0  0  0  0  0  0  0  0  0  0  0  0
   58.2510   27.5660   47.5150 C   0  0  0  0  0  0  0  0  0  0  0  0
   60.6331   27.7812   51.4269 H   0  0  0  0  0  0  0  0  0  0  0  0
   60.4151   26.3677   50.3401 H   0  0  0  0  0  0  0  0  0  0  0  0
   61.9686   27.2695   50.3401 H   0  0  0  0  0  0  0  0  0  0  0  0
   61.5064   26.5281   47.3711 H   0  0  0  0  0  0  0  0  0  0  0  0
   60.5768   25.2027   45.4732 H   0  0  0  0  0  0  0  0  0  0  0  0
   58.1752   25.4269   44.8462 H   0  0  0  0  0  0  0  0  0  0  0  0
   55.8514   29.4274   42.8818 H   0  0  0  0  0  0  0  0  0  0  0  0
   57.1378   31.4641   42.2414 H   0  0  0  0  0  0  0  0  0  0  0  0
   58.6484   32.5631   43.8916 H   0  0  0  0  0  0  0  0  0  0  0  0
   59.6760   30.1890   47.8110 H   0  0  0  0  0  0  0  0  0  0  0  0
   62.3001   33.2546   50.6155 H   0  0  0  0  0  0  0  0  0  0  0  0
   61.9649   35.4296   49.4003 H   0  0  0  0  0  0  0  0  0  0  0  0
   60.5473   35.4848   47.3017 H   0  0  0  0  0  0  0  0  0  0  0  0
   57.7360   29.4657   46.7766 H   0  0  0  0  0  0  0  0  0  0  0  0
   57.5868   28.2002   48.1204 H   0  0  0  0  0  0  0  0  0  0  0  0
  1  2  1  0
  2  3  2  0
  2  4  2  0
  2  5  1  0
  5  6  2  0
  6  7  1  0
  7  8  2  0
  8  9  1  0
  9 10  1  0
 10 11  2  0
 10 12  1  0
 12 13  1  0
 13 14  2  0
 14 15  1  0
 15 16  2  0
 16 17  1  0
 17 18  1  0
 18 19  2  0
 19 20  1  0
 20 21  2  0
 21 22  1  0
 22 23  2  0
 23 24  1  0
 24 25  2  0
 25 26  1  0
 17 27  2  0
  9 28  2  0
 28  5  1  0
 27 13  1  0
 26 18  1  0
 25 20  1  0
  1 29  1  0
  1 30  1  0
  1 31  1  0
  6 32  1  0
  7 33  1  0
  8 34  1  0
 14 35  1  0
 15 36  1  0
 16 37  1  0
 19 38  1  0
 22 39  1  0
 23 40  1  0
 24 41  1  0
 27 42  1  0
 28 43  1  0
M  CHG  2  12  -1  19   1
M  END
>  <UniqueID>  (59) 
56

>  <SMILES>  (59) 
CS(=O)(=O)c1cccc(C(=O)[N-]c2cccc(-c3[nH+]c4ncccc4o3)c2)c1

>  <Energy>  (59) 
91.88081223548608

>  <Genealogy>  (59) 
CS(=O)(=O)c1cccc(C(=O)[N-]c2cccc(-c3[nH+]c4ncccc4o3)c2)c1 (protonated)
CS(=O)(=O)c1cccc(C(=O)[N-]c2cccc(-c3[nH+]c4ncccc4o3)c2)c1 (3D coordinates assigned)
CS(=O)(=O)c1cccc(C(=O)[N-]c2cccc(-c3[nH+]c4ncccc4o3)c2)c1 (optimized conformer: 91.88081223548608 kcal/mol)

>  <smiles>  (59) 
CS(=O)(=O)c1cccc(C(=O)Nc2cccc(-c3nc4ncccc4o3)c2)c1

>  <score_type>  (59) 
oracle

>  <origin>  (59) 
adg

>  <m_score__min__energy>  (59) 
-9.4900000000000002

>  <m_primary>  (59) 
energy

$$$$
59:0
     RDKit          3D

 43 47  0  0  0  0  0  0  0  0999 V2000
   59.7575   34.9634   48.9045 H   0  0  0  0  0  0  0  0  0  0  0  0
   59.3750   34.4010   48.0400 C   0  0  0  0  0  0  0  0  0  0  0  0
   58.9560   33.7850   47.0930 C   0  0  0  0  0  0  0  0  0  0  0  0
   58.4550   33.0460   45.9630 C   0  0  0  0  0  0  0  0  0  0  0  0
   57.9660   31.7440   46.1420 C   0  0  0  0  0  0  0  0  0  0  0  0
   57.9840   31.2847   47.1413 H   0  0  0  0  0  0  0  0  0  0  0  0
   57.4540   31.0250   45.0520 C   0  0  0  0  0  0  0  0  0  0  0  0
   56.8570   29.7370   45.2410 N   0  0  0  0  0  0  0  0  0  0  0  0
   57.4890   28.6530   45.5790 C   0  0  0  0  0  0  0  0  0  0  0  0
   57.1280   27.4370   45.0750 N   0  0  0  0  0  0  0  0  0  0  0  0
   57.8020   26.3410   45.4980 C   0  0  0  0  0  0  0  0  0  0  0  0
   57.5550   25.0100   45.2060 C   0  0  0  0  0  0  0  0  0  0  0  0
   56.6140   24.4440   44.4400 C   0  0  0  0  0  0  0  0  0  0  0  0
   56.8956   24.1304   43.4239 H   0  0  0  0  0  0  0  0  0  0  0  0
   55.2300   24.2160   44.8720 C   0  0  0  0  0  0  0  0  0  0  0  0
   54.5090   23.1390   44.5120 N   0  0  0  0  0  0  0  0  0  0  0  0
   53.2860   23.4000   45.0200 C   0  0  0  0  0  0  0  0  0  0  0  0
   52.3180   22.6040   44.9030 O   0  0  0  0  0  0  0  0  0  0  0  0
   53.1770   24.5870   45.6530 N   0  0  0  0  0  0  0  0  0  0  0  0
   54.4140   25.0980   45.5450 C   0  0  0  0  0  0  0  0  0  0  0  0
   54.7700   26.3560   46.0230 O   0  0  0  0  0  0  0  0  0  0  0  0
   55.6890   26.5340   46.4060 H   0  0  0  0  0  0  0  0  0  0  0  0
   58.4810   24.3290   45.9820 C   0  0  0  0  0  0  0  0  0  0  0  0
   58.5976   23.2357   46.0135 H   0  0  0  0  0  0  0  0  0  0  0  0
   59.2180   25.2090   46.6930 N   0  0  0  0  0  0  0  0  0  0  0  0
   58.8010   26.4280   46.3930 N   0  0  0  0  0  0  0  0  0  0  0  0
   59.1840   27.6380   46.9100 C   0  0  0  0  0  0  0  0  0  0  0  0
   60.1530   27.8370   47.7720 N   0  0  0  0  0  0  0  0  0  0  0  0
   60.6720   28.8230   48.7420 C   0  0  0  0  0  0  0  0  0  0  0  0
   61.3535   28.0927   49.2027 H   0  0  0  0  0  0  0  0  0  0  0  0
   60.8070   30.2550   48.2780 C   0  0  0  0  0  0  0  0  0  0  0  0
   61.6611   30.8639   48.6092 H   0  0  0  0  0  0  0  0  0  0  0  0
   60.8277   30.7611   47.3015 H   0  0  0  0  0  0  0  0  0  0  0  0
   59.7080   29.8570   49.2800 C   0  0  0  0  0  0  0  0  0  0  0  0
   59.7746   30.1803   50.3293 H   0  0  0  0  0  0  0  0  0  0  0  0
   58.6135   29.9587   49.3208 H   0  0  0  0  0  0  0  0  0  0  0  0
   58.4990   28.7370   46.4900 N   0  0  0  0  0  0  0  0  0  0  0  0
   57.4090   31.6250   43.7880 C   0  0  0  0  0  0  0  0  0  0  0  0
   56.9726   31.0801   42.9379 H   0  0  0  0  0  0  0  0  0  0  0  0
   57.9170   32.9150   43.6020 C   0  0  0  0  0  0  0  0  0  0  0  0
   57.9035   33.3712   42.6011 H   0  0  0  0  0  0  0  0  0  0  0  0
   58.4420   33.6260   44.6860 C   0  0  0  0  0  0  0  0  0  0  0  0
   58.9200   34.8820   44.4920 F   0  0  0  0  0  0  0  0  0  0  0  0
  1  2  1  0
  2  3  3  0
  3  4  1  0
  4  5  2  0
  5  6  1  0
  5  7  1  0
  7  8  1  0
  8  9  2  3
  9 10  1  0
 10 11  2  0
 11 12  1  0
 12 13  2  3
 13 14  1  0
 13 15  1  0
 15 16  1  0
 16 17  1  0
 17 18  2  0
 17 19  1  0
 19 20  1  0
 20 21  1  0
 21 22  1  0
 12 23  1  0
 23 24  1  0
 23 25  2  0
 25 26  1  0
 26 27  1  0
 27 28  2  0
 28 29  1  0
 29 30  1  0
 29 31  1  0
 31 32  1  0
 31 33  1  0
 31 34  1  0
 34 35  1  0
 34 36  1  0
 27 37  1  0
  7 38  2  0
 38 39  1  0
 38 40  1  0
 40 41  1  0
 40 42  2  0
 42 43  1  0
 42  4  1  0
 37  9  1  0
 26 11  1  0
 34 29  1  0
 20 15  2  0
M  CHG  3  16  -1  19  -1  37  -1
M  END
>  <UniqueID>  (60) 
57

>  <SMILES>  (60) 
C#Cc1cc(N=c2nc3c(=Cc4[n-]c(=O)[n-]c4O)cnn3/c(=N\C3CC3)[n-]2)ccc1F

>  <Energy>  (60) 
417.4179179320141

>  <Genealogy>  (60) 
C#Cc1cc(N=c2nc3c(=Cc4[n-]c(=O)[n-]c4O)cnn3c(=NC3CC3)[n-]2)ccc1F (protonated)
C#Cc1cc(N=c2nc3c(=Cc4[n-]c(=O)[n-]c4O)cnn3/c(=N\C3CC3)[n-]2)ccc1F (cis-trans isomerization)
C#Cc1cc(N=c2nc3c(=Cc4[n-]c(=O)[n-]c4O)cnn3/c(=N\C3CC3)[n-]2)ccc1F (3D coordinates assigned)
C#Cc1cc(N=c2nc3c(=Cc4[n-]c(=O)[n-]c4O)cnn3/c(=N\C3CC3)[n-]2)ccc1F (nonaromatic ring conformer: 417.4179179320141 kcal/mol)

>  <smiles>  (60) 
C#Cc1cc(N=c2nc3c(=Cc4[nH]c(=O)[nH]c4O)cnn3c(=NC3CC3)[nH]2)ccc1F

>  <score_type>  (60) 
oracle

>  <origin>  (60) 
adg

>  <m_score__min__energy>  (60) 
-14.609999999999999

>  <m_primary>  (60) 
energy

$$$$
60:0
     RDKit          3D

 41 43  0  0  0  0  0  0  0  0999 V2000
   56.7460   21.1597   46.4875 H   0  0  0  0  0  0  0  0  0  0  0  0
   56.5290   21.9770   45.7840 C   0  0  0  0  0  0  0  0  0  0  0  0
   56.5260   23.3000   46.2350 C   0  0  0  0  0  0  0  0  0  0  0  0
   56.7337   23.5159   47.2934 H   0  0  0  0  0  0  0  0  0  0  0  0
   56.2600   24.3560   45.3480 C   0  0  0  0  0  0  0  0  0  0  0  0
   56.2620   25.7590   45.8330 C   0  0  0  0  0  0  0  0  0  0  0  0
   55.1690   26.3650   45.9890 O   0  0  0  0  0  0  0  0  0  0  0  0
   57.4830   26.4800   46.0570 N   0  0  0  0  0  0  0  0  0  0  0  0
   57.6690   27.7630   45.9190 C   0  0  0  0  0  0  0  0  0  0  0  0
   58.7980   28.3420   46.5050 C   0  0  0  0  0  0  0  0  0  0  0  0
   59.5109   27.7172   47.0630 H   0  0  0  0  0  0  0  0  0  0  0  0
   59.0190   29.7130   46.3810 C   0  0  0  0  0  0  0  0  0  0  0  0
   59.9027   30.1693   46.8509 H   0  0  0  0  0  0  0  0  0  0  0  0
   58.1190   30.5150   45.6590 C   0  0  0  0  0  0  0  0  0  0  0  0
   58.3340   31.9390   45.5250 N   0  0  0  0  0  0  0  0  0  0  0  0
   57.7260   32.7580   44.4860 C   0  0  0  0  0  0  0  0  0  0  0  0
   58.1332   32.4898   43.5000 H   0  0  0  0  0  0  0  0  0  0  0  0
   56.6372   32.6088   44.4393 H   0  0  0  0  0  0  0  0  0  0  0  0
   58.0790   34.1990   44.8310 C   0  0  0  0  0  0  0  0  0  0  0  0
   58.3763   34.7481   43.9254 H   0  0  0  0  0  0  0  0  0  0  0  0
   57.2216   34.7332   45.2664 H   0  0  0  0  0  0  0  0  0  0  0  0
   59.2450   34.1170   45.8090 C   0  0  0  0  0  0  0  0  0  0  0  0
   60.1992   34.2602   45.2808 H   0  0  0  0  0  0  0  0  0  0  0  0
   59.1827   34.8981   46.5810 H   0  0  0  0  0  0  0  0  0  0  0  0
   59.1780   32.7220   46.4150 C   0  0  0  0  0  0  0  0  0  0  0  0
   60.1843   32.2817   46.4732 H   0  0  0  0  0  0  0  0  0  0  0  0
   58.7731   32.7456   47.4375 H   0  0  0  0  0  0  0  0  0  0  0  0
   57.0080   29.8890   45.0670 C   0  0  0  0  0  0  0  0  0  0  0  0
   56.2900   30.4896   44.4893 H   0  0  0  0  0  0  0  0  0  0  0  0
   56.8100   28.5490   45.2000 N   0  0  0  0  0  0  0  0  0  0  0  0
   55.9870   28.1390   44.7060 H   0  0  0  0  0  0  0  0  0  0  0  0
   55.9770   24.0590   44.0020 C   0  0  0  0  0  0  0  0  0  0  0  0
   55.7518   24.8742   43.2987 H   0  0  0  0  0  0  0  0  0  0  0  0
   55.9800   22.7350   43.5520 C   0  0  0  0  0  0  0  0  0  0  0  0
   55.7090   22.4720   42.2500 F   0  0  0  0  0  0  0  0  0  0  0  0
   56.2560   21.6850   44.4350 C   0  0  0  0  0  0  0  0  0  0  0  0
   56.2480   20.3730   43.9370 O   0  0  0  0  0  0  0  0  0  0  0  0
   55.8690   19.2280   44.6930 C   0  0  0  0  0  0  0  0  0  0  0  0
   55.9445   19.4560   45.7665 H   0  0  0  0  0  0  0  0  0  0  0  0
   54.8322   18.9538   44.4484 H   0  0  0  0  0  0  0  0  0  0  0  0
   56.5375   18.3894   44.4484 H   0  0  0  0  0  0  0  0  0  0  0  0
  1  2  1  0
  2  3  2  0
  3  4  1  0
  3  5  1  0
  5  6  1  0
  6  7  2  0
  6  8  1  0
  8  9  2  0
  9 10  1  0
 10 11  1  0
 10 12  2  0
 12 13  1  0
 12 14  1  0
 14 15  1  0
 15 16  1  0
 16 17  1  0
 16 18  1  0
 16 19  1  0
 19 20  1  0
 19 21  1  0
 19 22  1  0
 22 23  1  0
 22 24  1  0
 22 25  1  0
 25 26  1  0
 25 27  1  0
 14 28  2  0
 28 29  1  0
 28 30  1  0
 30 31  1  0
  5 32  2  0
 32 33  1  0
 32 34  1  0
 34 35  1  0
 34 36  2  0
 36 37  1  0
 37 38  1  0
 38 39  1  0
 38 40  1  0
 38 41  1  0
 36  2  1  0
 30  9  1  0
 25 15  1  0
M  END
>  <UniqueID>  (61) 
58

>  <SMILES>  (61) 
COc1ccc(C(=O)/N=c2/ccc(N3CCCC3)c[nH]2)cc1F

>  <Energy>  (61) 
53.113320397952265

>  <Genealogy>  (61) 
COc1ccc(C(=O)/N=c2/ccc(N3CCCC3)c[nH]2)cc1F (cis-trans isomerization)
COc1ccc(C(=O)/N=c2/ccc(N3CCCC3)c[nH]2)cc1F (3D coordinates assigned)
COc1ccc(C(=O)/N=c2/ccc(N3CCCC3)c[nH]2)cc1F (nonaromatic ring conformer: 53.113320397952265 kcal/mol)

>  <smiles>  (61) 
COc1ccc(C(=O)N=c2ccc(N3CCCC3)c[nH]2)cc1F

>  <score_type>  (61) 
oracle

>  <origin>  (61) 
adg

>  <m_score__min__energy>  (61) 
-7.2699999999999996

>  <m_primary>  (61) 
energy

$$$$
61:0
     RDKit          3D

 57 61  0  0  0  0  0  0  0  0999 V2000
   57.2110   33.3730   47.8670 O   0  0  0  0  0  0  0  0  0  0  0  0
   58.1930   33.3800   47.0640 C   0  0  0  0  0  0  0  0  0  0  0  0
   59.2540   34.3170   47.3010 N   0  0  0  0  0  0  0  0  0  0  0  0
   60.6430   34.0350   47.5010 C   0  0  0  0  0  0  0  0  0  0  0  0
   61.4390   33.8060   46.3750 C   0  0  0  0  0  0  0  0  0  0  0  0
   62.8030   33.5440   46.5170 C   0  0  0  0  0  0  0  0  0  0  0  0
   63.3630   33.5120   47.7920 C   0  0  0  0  0  0  0  0  0  0  0  0
   62.5850   33.7510   48.8790 N   0  0  0  0  0  0  0  0  0  0  0  0
   61.2530   34.0330   48.7740 C   0  0  0  0  0  0  0  0  0  0  0  0
   60.4930   34.3000   49.9260 O   0  0  0  0  0  0  0  0  0  0  0  0
   59.5880   33.4080   50.5260 C   0  0  0  0  0  0  0  0  0  0  0  0
   58.9310   33.8010   51.7010 C   0  0  0  0  0  0  0  0  0  0  0  0
   58.0070   32.9430   52.3160 C   0  0  0  0  0  0  0  0  0  0  0  0
   57.7450   31.6840   51.7620 C   0  0  0  0  0  0  0  0  0  0  0  0
   58.4150   31.2710   50.6030 C   0  0  0  0  0  0  0  0  0  0  0  0
   58.1650   30.0220   50.0420 O   0  0  0  0  0  0  0  0  0  0  0  0
   59.3450   32.1210   50.0010 C   0  0  0  0  0  0  0  0  0  0  0  0
   58.1640   32.4990   45.8630 C   0  0  0  0  0  0  0  0  0  0  0  0
   57.9950   33.0190   44.5650 C   0  0  0  0  0  0  0  0  0  0  0  0
   57.9570   32.1650   43.4600 C   0  0  0  0  0  0  0  0  0  0  0  0
   58.0410   30.7830   43.6310 C   0  0  0  0  0  0  0  0  0  0  0  0
   58.1670   30.2370   44.9170 C   0  0  0  0  0  0  0  0  0  0  0  0
   58.1410   28.7630   45.1130 C   0  0  0  0  0  0  0  0  0  0  0  0
   58.2430   28.2040   46.4010 C   0  0  0  0  0  0  0  0  0  0  0  0
   58.2570   26.8150   46.5710 C   0  0  0  0  0  0  0  0  0  0  0  0
   58.1770   25.9650   45.4530 C   0  0  0  0  0  0  0  0  0  0  0  0
   58.2280   24.5690   45.5730 O   0  0  0  0  0  0  0  0  0  0  0  0
   57.6770   23.6460   44.6730 C   0  0  0  0  0  0  0  0  0  0  0  0
   56.5290   23.9330   43.9160 C   0  0  0  0  0  0  0  0  0  0  0  0
   56.0340   22.9920   43.0080 C   0  0  0  0  0  0  0  0  0  0  0  0
   56.6860   21.7690   42.8420 C   0  0  0  0  0  0  0  0  0  0  0  0
   57.8340   21.4850   43.5790 C   0  0  0  0  0  0  0  0  0  0  0  0
   58.3290   22.4260   44.4860 C   0  0  0  0  0  0  0  0  0  0  0  0
   58.0980   26.5220   44.1710 C   0  0  0  0  0  0  0  0  0  0  0  0
   58.0700   27.9060   43.9990 C   0  0  0  0  0  0  0  0  0  0  0  0
   58.2480   31.1020   46.0230 C   0  0  0  0  0  0  0  0  0  0  0  0
   60.9884   33.8323   45.3719 H   0  0  0  0  0  0  0  0  0  0  0  0
   63.4293   33.3646   45.6307 H   0  0  0  0  0  0  0  0  0  0  0  0
   64.4337   33.2935   47.9181 H   0  0  0  0  0  0  0  0  0  0  0  0
   59.1411   34.7864   52.1424 H   0  0  0  0  0  0  0  0  0  0  0  0
   57.4885   33.2592   53.2331 H   0  0  0  0  0  0  0  0  0  0  0  0
   57.0110   31.0173   52.2382 H   0  0  0  0  0  0  0  0  0  0  0  0
   58.9140   29.3830   49.8240 H   0  0  0  0  0  0  0  0  0  0  0  0
   59.8934   31.7841   49.1090 H   0  0  0  0  0  0  0  0  0  0  0  0
   57.8923   34.1046   44.4204 H   0  0  0  0  0  0  0  0  0  0  0  0
   57.8602   32.5852   42.4481 H   0  0  0  0  0  0  0  0  0  0  0  0
   58.0083   30.1192   42.7545 H   0  0  0  0  0  0  0  0  0  0  0  0
   58.3121   28.8630   47.2791 H   0  0  0  0  0  0  0  0  0  0  0  0
   58.3308   26.3867   47.5815 H   0  0  0  0  0  0  0  0  0  0  0  0
   56.0186   24.8998   44.0378 H   0  0  0  0  0  0  0  0  0  0  0  0
   55.1294   23.2158   42.4236 H   0  0  0  0  0  0  0  0  0  0  0  0
   56.2934   21.0290   42.1290 H   0  0  0  0  0  0  0  0  0  0  0  0
   58.3495   20.5223   43.4472 H   0  0  0  0  0  0  0  0  0  0  0  0
   59.2416   22.2030   45.0583 H   0  0  0  0  0  0  0  0  0  0  0  0
   58.0577   25.8624   43.2916 H   0  0  0  0  0  0  0  0  0  0  0  0
   57.9920   28.3299   42.9870 H   0  0  0  0  0  0  0  0  0  0  0  0
   58.3792   30.6803   47.0305 H   0  0  0  0  0  0  0  0  0  0  0  0
  1  2  2  0
  2  3  1  0
  3  4  1  0
  4  5  2  0
  5  6  1  0
  6  7  2  0
  7  8  1  0
  8  9  2  0
  9 10  1  0
 10 11  1  0
 11 12  2  0
 12 13  1  0
 13 14  2  0
 14 15  1  0
 15 16  1  0
 15 17  2  0
  2 18  1  0
 18 19  2  0
 19 20  1  0
 20 21  2  0
 21 22  1  0
 22 23  1  0
 23 24  2  0
 24 25  1  0
 25 26  2  0
 26 27  1  0
 27 28  1  0
 28 29  2  0
 29 30  1  0
 30 31  2  0
 31 32  1  0
 32 33  2  0
 26 34  1  0
 34 35  2  0
 22 36  2  0
  9  4  1  0
 17 11  1  0
 36 18  1  0
 35 23  1  0
 33 28  1  0
  5 37  1  0
  6 38  1  0
  7 39  1  0
 12 40  1  0
 13 41  1  0
 14 42  1  0
 16 43  1  0
 17 44  1  0
 19 45  1  0
 20 46  1  0
 21 47  1  0
 24 48  1  0
 25 49  1  0
 29 50  1  0
 30 51  1  0
 31 52  1  0
 32 53  1  0
 33 54  1  0
 34 55  1  0
 35 56  1  0
 36 57  1  0
M  CHG  1   3  -1
M  END
>  <UniqueID>  (62) 
59

>  <SMILES>  (62) 
O=C([N-]c1cccnc1Oc1cccc(O)c1)c1cccc(-c2ccc(Oc3ccccc3)cc2)c1

>  <Energy>  (62) 
91.32446973849676

>  <Genealogy>  (62) 
O=C([N-]c1cccnc1Oc1cccc(O)c1)c1cccc(-c2ccc(Oc3ccccc3)cc2)c1 (protonated)
O=C([N-]c1cccnc1Oc1cccc(O)c1)c1cccc(-c2ccc(Oc3ccccc3)cc2)c1 (3D coordinates assigned)
O=C([N-]c1cccnc1Oc1cccc(O)c1)c1cccc(-c2ccc(Oc3ccccc3)cc2)c1 (optimized conformer: 91.32446973849676 kcal/mol)

>  <smiles>  (62) 
O=C(Nc1cccnc1Oc1cccc(O)c1)c1cccc(-c2ccc(Oc3ccccc3)cc2)c1

>  <score_type>  (62) 
oracle

>  <origin>  (62) 
adg

>  <m_score__min__energy>  (62) 
-12.789999999999999

>  <m_primary>  (62) 
energy

$$$$
62:0
     RDKit          3D

 47 51  0  0  0  0  0  0  0  0999 V2000
   57.4750   33.9110   45.2820 C   0  0  0  0  0  0  0  0  0  0  0  0
   58.0610   32.5390   45.4220 C   0  0  0  0  0  0  0  0  0  0  0  0
   59.2780   32.2080   46.0220 C   0  0  0  0  0  0  0  0  0  0  0  0
   60.2220   33.1680   46.6840 C   0  0  0  0  0  0  0  0  0  0  0  0
   60.3500   32.8720   48.1210 N   0  0  0  0  0  0  0  0  0  0  0  0
   59.1810   32.3010   48.8010 C   0  0  0  0  0  0  0  0  0  0  0  0
   59.1050   32.4640   50.3110 C   0  0  0  0  0  0  0  0  0  0  0  0
   58.1240   31.6850   50.9680 C   0  0  0  0  0  0  0  0  0  0  0  0
   57.8240   31.8870   52.3160 C   0  0  0  0  0  0  0  0  0  0  0  0
   58.4620   32.9030   53.0250 C   0  0  0  0  0  0  0  0  0  0  0  0
   59.4310   33.6930   52.3970 C   0  0  0  0  0  0  0  0  0  0  0  0
   59.7820   33.4690   51.0560 C   0  0  0  0  0  0  0  0  0  0  0  0
   60.8400   34.2190   50.5410 O   0  0  0  0  0  0  0  0  0  0  0  0
   61.8950   33.6170   49.8630 C   0  0  0  0  0  0  0  0  0  0  0  0
   63.1990   33.7800   50.3450 C   0  0  0  0  0  0  0  0  0  0  0  0
   64.2690   33.1380   49.7160 C   0  0  0  0  0  0  0  0  0  0  0  0
   64.0360   32.3390   48.5940 C   0  0  0  0  0  0  0  0  0  0  0  0
   62.7380   32.2050   48.0860 C   0  0  0  0  0  0  0  0  0  0  0  0
   61.6570   32.8490   48.7190 C   0  0  0  0  0  0  0  0  0  0  0  0
   59.5060   30.8750   45.9460 N   0  0  0  0  0  0  0  0  0  0  0  0
   58.4360   30.3560   45.3170 C   0  0  0  0  0  0  0  0  0  0  0  0
   58.2050   29.0120   45.0280 C   0  0  0  0  0  0  0  0  0  0  0  0
   57.0000   28.6760   44.3840 C   0  0  0  0  0  0  0  0  0  0  0  0
   56.0590   29.6820   44.0440 C   0  0  0  0  0  0  0  0  0  0  0  0
   54.8590   29.3440   43.4170 O   0  0  0  0  0  0  0  0  0  0  0  0
   56.3260   31.0330   44.3430 C   0  0  0  0  0  0  0  0  0  0  0  0
   57.5310   31.3370   44.9830 C   0  0  0  0  0  0  0  0  0  0  0  0
   57.2935   34.3358   46.2803 H   0  0  0  0  0  0  0  0  0  0  0  0
   58.1766   34.5550   44.7315 H   0  0  0  0  0  0  0  0  0  0  0  0
   56.5247   33.8494   44.7315 H   0  0  0  0  0  0  0  0  0  0  0  0
   61.2111   33.0854   46.2097 H   0  0  0  0  0  0  0  0  0  0  0  0
   59.8248   34.1873   46.5690 H   0  0  0  0  0  0  0  0  0  0  0  0
   58.2853   32.7739   48.3719 H   0  0  0  0  0  0  0  0  0  0  0  0
   59.2606   31.2162   48.6373 H   0  0  0  0  0  0  0  0  0  0  0  0
   57.5878   30.9059   50.4063 H   0  0  0  0  0  0  0  0  0  0  0  0
   57.0851   31.2452   52.8180 H   0  0  0  0  0  0  0  0  0  0  0  0
   58.2037   33.0839   54.0788 H   0  0  0  0  0  0  0  0  0  0  0  0
   59.9237   34.4991   52.9604 H   0  0  0  0  0  0  0  0  0  0  0  0
   63.3824   34.4165   51.2232 H   0  0  0  0  0  0  0  0  0  0  0  0
   65.2913   33.2614   50.1030 H   0  0  0  0  0  0  0  0  0  0  0  0
   64.8728   31.8148   48.1092 H   0  0  0  0  0  0  0  0  0  0  0  0
   62.5617   31.5940   47.1884 H   0  0  0  0  0  0  0  0  0  0  0  0
   60.3370   30.3550   46.3100 H   0  0  0  0  0  0  0  0  0  0  0  0
   58.9409   28.2392   45.2948 H   0  0  0  0  0  0  0  0  0  0  0  0
   56.7857   27.6246   44.1421 H   0  0  0  0  0  0  0  0  0  0  0  0
   54.8460   28.7690   42.5810 H   0  0  0  0  0  0  0  0  0  0  0  0
   55.6081   31.8241   44.0808 H   0  0  0  0  0  0  0  0  0  0  0  0
  1  2  1  0
  2  3  2  0
  3  4  1  0
  4  5  1  0
  5  6  1  0
  6  7  1  0
  7  8  2  0
  8  9  1  0
  9 10  2  0
 10 11  1  0
 11 12  2  0
 12 13  1  0
 13 14  1  0
 14 15  2  0
 15 16  1  0
 16 17  2  0
 17 18  1  0
 18 19  2  0
  3 20  1  0
 20 21  1  0
 21 22  2  0
 22 23  1  0
 23 24  2  0
 24 25  1  0
 24 26  1  0
 26 27  2  0
 27  2  1  0
 19  5  1  0
 27 21  1  0
 12  7  1  0
 19 14  1  0
  1 28  1  0
  1 29  1  0
  1 30  1  0
  4 31  1  0
  4 32  1  0
  6 33  1  0
  6 34  1  0
  8 35  1  0
  9 36  1  0
 10 37  1  0
 11 38  1  0
 15 39  1  0
 16 40  1  0
 17 41  1  0
 18 42  1  0
 20 43  1  0
 22 44  1  0
 23 45  1  0
 25 46  1  0
 26 47  1  0
M  END
>  <UniqueID>  (63) 
60

>  <SMILES>  (63) 
Cc1c(CN2Cc3ccccc3Oc3ccccc32)[nH]c2ccc(O)cc12

>  <Energy>  (63) 
108.73831221331922

>  <Genealogy>  (63) 
Cc1c(CN2Cc3ccccc3Oc3ccccc32)[nH]c2ccc(O)cc12 (3D coordinates assigned)
Cc1c(CN2Cc3ccccc3Oc3ccccc32)[nH]c2ccc(O)cc12 (nonaromatic ring conformer: 108.73831221331922 kcal/mol)

>  <smiles>  (63) 
Cc1c(CN2Cc3ccccc3Oc3ccccc32)[nH]c2ccc(O)cc12

>  <score_type>  (63) 
oracle

>  <origin>  (63) 
adg

>  <m_score__min__energy>  (63) 
-8.4900000000000002

>  <m_primary>  (63) 
energy

$$$$
63:0
     RDKit          3D

 59 61  0  0  0  0  0  0  0  0999 V2000
   60.9260   33.8740   50.6980 N   0  0  0  0  0  0  0  0  0  0  0  0
   56.4500   29.4050   44.7230 C   0  0  0  0  0  0  0  0  0  0  0  0
   59.3080   33.7160   49.0390 C   0  0  0  0  0  0  0  0  0  0  0  0
   59.0210   33.7400   47.6790 C   0  0  0  0  0  0  0  0  0  0  0  0
   60.0140   33.9280   46.8010 N   0  0  0  0  0  0  0  0  0  0  0  0
   59.6400   33.9430   45.3810 C   0  0  0  0  0  0  0  0  0  0  0  0
   58.2440   34.5290   45.2520 C   0  0  0  0  0  0  0  0  0  0  0  0
   57.3570   33.5920   44.4920 C   0  0  0  0  0  0  0  0  0  0  0  0
   57.3930   32.2000   45.0450 C   0  0  0  0  0  0  0  0  0  0  0  0
   57.9590   31.2020   44.0470 C   0  0  0  0  0  0  0  0  0  0  0  0
   57.7040   29.8860   44.6440 N   0  0  0  0  0  0  0  0  0  0  0  0
   58.7230   29.1410   45.1220 C   0  0  0  0  0  0  0  0  0  0  0  0
   58.4740   27.9100   45.6790 C   0  0  0  0  0  0  0  0  0  0  0  0
   59.5060   27.0150   46.2280 C   0  0  0  0  0  0  0  0  0  0  0  0
   59.8750   27.3580   47.5510 O   0  0  0  0  0  0  0  0  0  0  0  0
   59.5490   28.5580   48.1520 C   0  0  0  0  0  0  0  0  0  0  0  0
   58.3690   28.8430   48.4810 O   0  0  0  0  0  0  0  0  0  0  0  0
   60.6080   29.5240   48.4130 C   0  0  0  0  0  0  0  0  0  0  0  0
   61.1560   30.2990   47.4100 C   0  0  0  0  0  0  0  0  0  0  0  0
   62.1630   31.2080   47.7080 C   0  0  0  0  0  0  0  0  0  0  0  0
   62.6580   31.3820   48.9790 C   0  0  0  0  0  0  0  0  0  0  0  0
   63.9270   32.5230   49.3670 S   0  0  0  0  0  0  0  0  0  0  0  0
   64.3270   33.5060   48.0260 N   0  0  0  0  0  0  0  0  0  0  0  0
   63.5600   33.4070   50.5120 O   0  0  0  0  0  0  0  0  0  0  0  0
   65.1500   31.7220   49.7260 O   0  0  0  0  0  0  0  0  0  0  0  0
   62.1130   30.6090   49.9810 C   0  0  0  0  0  0  0  0  0  0  0  0
   61.1120   29.7070   49.6850 C   0  0  0  0  0  0  0  0  0  0  0  0
   57.1550   27.4570   45.7350 C   0  0  0  0  0  0  0  0  0  0  0  0
   56.8900   26.3530   46.2300 O   0  0  0  0  0  0  0  0  0  0  0  0
   56.1500   28.2070   45.2580 N   0  0  0  0  0  0  0  0  0  0  0  0
   61.2720   34.0930   47.2150 C   0  0  0  0  0  0  0  0  0  0  0  0
   55.5010   30.0870   44.2840 O   0  0  0  0  0  0  0  0  0  0  0  0
   60.6070   33.8870   49.4580 C   0  0  0  0  0  0  0  0  0  0  0  0
   62.2010   34.2700   46.3710 O   0  0  0  0  0  0  0  0  0  0  0  0
   61.5730   34.0730   48.5390 N   0  0  0  0  0  0  0  0  0  0  0  0
   61.8540   33.5610   51.0170 H   0  0  0  0  0  0  0  0  0  0  0  0
   58.5037   33.5617   49.7734 H   0  0  0  0  0  0  0  0  0  0  0  0
   57.9874   33.6057   47.3275 H   0  0  0  0  0  0  0  0  0  0  0  0
   60.3543   34.5602   44.8164 H   0  0  0  0  0  0  0  0  0  0  0  0
   59.6560   32.9196   44.9780 H   0  0  0  0  0  0  0  0  0  0  0  0
   57.8245   34.6924   46.2557 H   0  0  0  0  0  0  0  0  0  0  0  0
   58.3048   35.4842   44.7098 H   0  0  0  0  0  0  0  0  0  0  0  0
   56.3235   33.9654   44.5410 H   0  0  0  0  0  0  0  0  0  0  0  0
   57.7209   33.5513   43.4547 H   0  0  0  0  0  0  0  0  0  0  0  0
   58.0210   32.1933   45.9481 H   0  0  0  0  0  0  0  0  0  0  0  0
   56.3599   31.9002   45.2747 H   0  0  0  0  0  0  0  0  0  0  0  0
   57.4483   31.2926   43.0770 H   0  0  0  0  0  0  0  0  0  0  0  0
   59.0291   31.3696   43.8550 H   0  0  0  0  0  0  0  0  0  0  0  0
   59.7541   29.5199   45.0655 H   0  0  0  0  0  0  0  0  0  0  0  0
   59.1174   25.9859   46.2260 H   0  0  0  0  0  0  0  0  0  0  0  0
   60.4014   27.1113   45.5963 H   0  0  0  0  0  0  0  0  0  0  0  0
   60.7953   30.1965   46.3759 H   0  0  0  0  0  0  0  0  0  0  0  0
   62.5826   31.8148   46.8921 H   0  0  0  0  0  0  0  0  0  0  0  0
   64.8890   33.0090   47.3030 H   0  0  0  0  0  0  0  0  0  0  0  0
   63.5060   34.0120   47.6260 H   0  0  0  0  0  0  0  0  0  0  0  0
   62.4752   30.7109   51.0146 H   0  0  0  0  0  0  0  0  0  0  0  0
   60.6943   29.1031   50.5040 H   0  0  0  0  0  0  0  0  0  0  0  0
   55.1480   27.8800   45.2930 H   0  0  0  0  0  0  0  0  0  0  0  0
   62.5530   34.2030   48.8330 H   0  0  0  0  0  0  0  0  0  0  0  0
  1  2  2  3
  2  3  1  0
  3  4  2  0
  4  5  1  0
  5  6  1  0
  6  7  1  0
  7  8  1  0
  8  9  1  0
  9 10  1  0
 10 11  1  0
 11 12  1  0
 12 13  2  0
 13 14  1  0
 14 15  1  0
 15 16  1  0
 16 17  2  0
 16 18  1  0
 18 19  2  0
 19 20  1  0
 20 21  2  0
 21 22  1  0
 22 23  1  0
 22 24  2  0
 22 25  2  0
 21 26  1  0
 26 27  2  0
 13 28  1  0
 28 29  2  0
 28 30  1  0
 30 31  1  0
 31 32  2  0
  5 33  1  0
 33 34  2  0
 33 35  1  0
 35  2  1  0
 31 11  1  0
 27 18  1  0
  1 36  1  0
  3 37  1  0
  4 38  1  0
  6 39  1  0
  6 40  1  0
  7 41  1  0
  7 42  1  0
  8 43  1  0
  8 44  1  0
  9 45  1  0
  9 46  1  0
 10 47  1  0
 10 48  1  0
 12 49  1  0
 14 50  1  0
 14 51  1  0
 19 52  1  0
 20 53  1  0
 23 54  1  0
 23 55  1  0
 26 56  1  0
 27 57  1  0
 30 58  1  0
 35 59  1  0
M  END
>  <smiles>  (64) 
N=c1ccn(CCCCCn2cc(COC(=O)c3ccc(S(N)(=O)=O)cc3)c(=O)[nH]c2=O)c(=O)[nH]1

>  <score_type>  (64) 
oracle

>  <origin>  (64) 
adg

>  <m_score__min__energy>  (64) 
-10.4

>  <m_primary>  (64) 
energy

$$$$
64:0
     RDKit          3D

 41 43  0  0  0  0  0  0  0  0999 V2000
   57.5580   21.4590   43.4760 C   0  0  0  0  0  0  0  0  0  0  0  0
   56.2290   21.9000   43.7430 O   0  0  0  0  0  0  0  0  0  0  0  0
   55.9100   23.1100   44.3800 C   0  0  0  0  0  0  0  0  0  0  0  0
   54.5600   23.4210   44.5770 C   0  0  0  0  0  0  0  0  0  0  0  0
   54.1900   24.6150   45.2010 C   0  0  0  0  0  0  0  0  0  0  0  0
   55.1680   25.5090   45.6420 C   0  0  0  0  0  0  0  0  0  0  0  0
   54.7760   26.7120   46.2170 O   0  0  0  0  0  0  0  0  0  0  0  0
   56.5310   25.2020   45.4720 C   0  0  0  0  0  0  0  0  0  0  0  0
   57.5930   26.1320   45.9140 C   0  0  0  0  0  0  0  0  0  0  0  0
   58.2580   26.9050   45.1030 N   0  0  0  0  0  0  0  0  0  0  0  0
   58.3620   28.3350   45.1890 C   0  0  0  0  0  0  0  0  0  0  0  0
   59.6030   28.9070   45.4960 C   0  0  0  0  0  0  0  0  0  0  0  0
   59.7340   30.2920   45.6200 C   0  0  0  0  0  0  0  0  0  0  0  0
   58.6220   31.1250   45.4730 C   0  0  0  0  0  0  0  0  0  0  0  0
   58.7980   32.5410   45.6280 N   0  0  0  0  0  0  0  0  0  0  0  0
   59.4010   33.3210   47.0530 S   0  0  0  0  0  0  0  0  0  0  0  0
   59.1830   34.8020   46.9300 O   0  0  0  0  0  0  0  0  0  0  0  0
   58.6550   32.8100   48.2520 O   0  0  0  0  0  0  0  0  0  0  0  0
   61.1210   33.0160   47.2140 C   0  0  0  0  0  0  0  0  0  0  0  0
   62.1330   33.8260   46.7200 C   0  0  0  0  0  0  0  0  0  0  0  0
   63.4130   33.3390   47.0070 C   0  0  0  0  0  0  0  0  0  0  0  0
   63.4070   32.1460   47.7200 C   0  0  0  0  0  0  0  0  0  0  0  0
   61.8080   31.7010   48.0040 S   0  0  0  0  0  0  0  0  0  0  0  0
   57.3670   30.5540   45.1920 C   0  0  0  0  0  0  0  0  0  0  0  0
   57.2310   29.1630   45.0690 C   0  0  0  0  0  0  0  0  0  0  0  0
   55.9710   28.6030   44.8580 O   0  0  0  0  0  0  0  0  0  0  0  0
   56.8960   24.0130   44.8240 C   0  0  0  0  0  0  0  0  0  0  0  0
   58.0842   21.2844   44.4261 H   0  0  0  0  0  0  0  0  0  0  0  0
   57.5248   20.5237   42.8980 H   0  0  0  0  0  0  0  0  0  0  0  0
   58.0905   22.2286   42.8980 H   0  0  0  0  0  0  0  0  0  0  0  0
   53.7836   22.7195   44.2377 H   0  0  0  0  0  0  0  0  0  0  0  0
   53.1255   24.8515   45.3453 H   0  0  0  0  0  0  0  0  0  0  0  0
   57.8346   26.1732   46.9864 H   0  0  0  0  0  0  0  0  0  0  0  0
   60.4812   28.2606   45.6406 H   0  0  0  0  0  0  0  0  0  0  0  0
   60.7198   30.7301   45.8350 H   0  0  0  0  0  0  0  0  0  0  0  0
   61.9484   34.7550   46.1606 H   0  0  0  0  0  0  0  0  0  0  0  0
   64.3359   33.8515   46.6978 H   0  0  0  0  0  0  0  0  0  0  0  0
   64.2970   31.5867   48.0442 H   0  0  0  0  0  0  0  0  0  0  0  0
   56.4870   31.2023   45.0680 H   0  0  0  0  0  0  0  0  0  0  0  0
   55.8580   27.6210   44.6380 H   0  0  0  0  0  0  0  0  0  0  0  0
   57.9595   23.7839   44.6613 H   0  0  0  0  0  0  0  0  0  0  0  0
  1  2  1  0
  2  3  1  0
  3  4  2  0
  4  5  1  0
  5  6  2  0
  6  7  1  0
  6  8  1  0
  8  9  1  0
  9 10  2  3
 10 11  1  0
 11 12  2  0
 12 13  1  0
 13 14  2  0
 14 15  1  0
 15 16  1  0
 16 17  2  0
 16 18  2  0
 16 19  1  0
 19 20  2  0
 20 21  1  0
 21 22  2  0
 22 23  1  0
 14 24  1  0
 24 25  2  0
 25 26  1  0
  8 27  2  0
 27  3  1  0
 25 11  1  0
 23 19  1  0
  1 28  1  0
  1 29  1  0
  1 30  1  0
  4 31  1  0
  5 32  1  0
  9 33  1  0
 12 34  1  0
 13 35  1  0
 20 36  1  0
 21 37  1  0
 22 38  1  0
 24 39  1  0
 26 40  1  0
 27 41  1  0
M  CHG  2   7  -1  15  -1
M  END
>  <UniqueID>  (65) 
61

>  <SMILES>  (65) 
COc1ccc([O-])c(C=Nc2ccc([N-]S(=O)(=O)c3cccs3)cc2O)c1

>  <Energy>  (65) 
85.39930548275885

>  <Genealogy>  (65) 
COc1ccc([O-])c(C=Nc2ccc([N-]S(=O)(=O)c3cccs3)cc2O)c1 (protonated)
COc1ccc([O-])c(C=Nc2ccc([N-]S(=O)(=O)c3cccs3)cc2O)c1 (3D coordinates assigned)
COc1ccc([O-])c(C=Nc2ccc([N-]S(=O)(=O)c3cccs3)cc2O)c1 (optimized conformer: 85.39930548275885 kcal/mol)

>  <smiles>  (65) 
COc1ccc(O)c(C=Nc2ccc(NS(=O)(=O)c3cccs3)cc2O)c1

>  <score_type>  (65) 
oracle

>  <origin>  (65) 
adg

>  <m_score__min__energy>  (65) 
-14.949999999999999

>  <m_primary>  (65) 
energy

$$$$
65:0
     RDKit          3D

 41 44  0  0  0  0  0  0  0  0999 V2000
   60.0170   23.8310   45.7140 O   0  0  0  0  0  0  0  0  0  0  0  0
   58.7980   23.5500   45.5400 C   0  0  0  0  0  0  0  0  0  0  0  0
   57.7890   24.5560   45.7210 N   0  0  0  0  0  0  0  0  0  0  0  0
   58.0620   25.9650   45.8070 C   0  0  0  0  0  0  0  0  0  0  0  0
   59.0360   26.4710   46.6850 C   0  0  0  0  0  0  0  0  0  0  0  0
   59.3000   27.8430   46.7330 C   0  0  0  0  0  0  0  0  0  0  0  0
   58.6040   28.7310   45.8970 C   0  0  0  0  0  0  0  0  0  0  0  0
   58.8720   30.1440   45.9500 N   0  0  0  0  0  0  0  0  0  0  0  0
   58.0610   31.2090   45.4400 C   0  0  0  0  0  0  0  0  0  0  0  0
   56.9390   31.0510   44.8890 O   0  0  0  0  0  0  0  0  0  0  0  0
   58.6970   32.4930   45.7070 C   0  0  0  0  0  0  0  0  0  0  0  0
   58.2890   33.7910   45.4060 C   0  0  0  0  0  0  0  0  0  0  0  0
   59.1230   34.8540   45.7960 C   0  0  0  0  0  0  0  0  0  0  0  0
   60.3360   34.5990   46.4720 C   0  0  0  0  0  0  0  0  0  0  0  0
   60.7250   33.2800   46.7670 C   0  0  0  0  0  0  0  0  0  0  0  0
   59.8800   32.2450   46.3700 C   0  0  0  0  0  0  0  0  0  0  0  0
   60.0060   30.8010   46.5280 C   0  0  0  0  0  0  0  0  0  0  0  0
   60.9870   30.2060   47.0500 O   0  0  0  0  0  0  0  0  0  0  0  0
   57.6460   28.2220   45.0060 C   0  0  0  0  0  0  0  0  0  0  0  0
   57.3850   26.8490   44.9560 C   0  0  0  0  0  0  0  0  0  0  0  0
   58.3980   22.1300   45.2400 C   0  0  1  0  0  0  0  0  0  0  0  0
   57.1770   21.7470   46.0440 C   0  0  0  0  0  0  0  0  0  0  0  0
   56.1120   21.3660   45.3500 C   0  0  0  0  0  0  0  0  0  0  0  0
   56.3950   21.4040   43.6470 S   0  0  0  0  0  0  0  0  0  0  0  0
   56.2700   20.0440   43.0220 O   0  0  0  0  0  0  0  0  0  0  0  0
   55.5240   22.4150   42.9540 O   0  0  0  0  0  0  0  0  0  0  0  0
   58.0840   21.9390   43.7370 C   0  0  0  0  0  0  0  0  0  0  0  0
   56.8080   24.2350   45.8890 H   0  0  0  0  0  0  0  0  0  0  0  0
   59.5937   25.7836   47.3380 H   0  0  0  0  0  0  0  0  0  0  0  0
   60.0579   28.2295   47.4303 H   0  0  0  0  0  0  0  0  0  0  0  0
   57.3421   33.9787   44.8786 H   0  0  0  0  0  0  0  0  0  0  0  0
   58.8286   35.8902   45.5731 H   0  0  0  0  0  0  0  0  0  0  0  0
   60.9816   35.4382   46.7702 H   0  0  0  0  0  0  0  0  0  0  0  0
   61.6673   33.0716   47.2949 H   0  0  0  0  0  0  0  0  0  0  0  0
   57.0973   28.9073   44.3432 H   0  0  0  0  0  0  0  0  0  0  0  0
   56.6428   26.4600   44.2434 H   0  0  0  0  0  0  0  0  0  0  0  0
   59.2463   21.4853   45.5133 H   0  0  0  0  0  0  0  0  0  0  0  0
   57.1714   21.7821   47.1434 H   0  0  0  0  0  0  0  0  0  0  0  0
   55.1589   21.0612   45.8069 H   0  0  0  0  0  0  0  0  0  0  0  0
   58.7486   21.1777   43.3025 H   0  0  0  0  0  0  0  0  0  0  0  0
   58.2393   22.8711   43.1739 H   0  0  0  0  0  0  0  0  0  0  0  0
  1  2  2  0
  2  3  1  0
  3  4  1  0
  4  5  2  0
  5  6  1  0
  6  7  2  0
  7  8  1  0
  8  9  1  0
  9 10  2  0
  9 11  1  0
 11 12  2  0
 12 13  1  0
 13 14  2  0
 14 15  1  0
 15 16  2  0
 16 17  1  0
 17 18  2  0
  7 19  1  0
 19 20  2  0
  2 21  1  0
 21 22  1  0
 22 23  2  0
 23 24  1  0
 24 25  2  0
 24 26  2  0
 24 27  1  0
 20  4  1  0
 27 21  1  0
 17  8  1  0
 16 11  1  0
  3 28  1  0
  5 29  1  0
  6 30  1  0
 12 31  1  0
 13 32  1  0
 14 33  1  0
 15 34  1  0
 19 35  1  0
 20 36  1  0
 21 37  1  1
 22 38  1  0
 23 39  1  0
 27 40  1  0
 27 41  1  0
M  END
>  <UniqueID>  (66) 
62

>  <SMILES>  (66) 
O=C(Nc1ccc(N2C(=O)c3ccccc3C2=O)cc1)[C@H]1C=CS(=O)(=O)C1

>  <Energy>  (66) 
91.10877729878733

>  <Genealogy>  (66) 
O=C(Nc1ccc(N2C(=O)c3ccccc3C2=O)cc1)[C@H]1C=CS(=O)(=O)C1 (chirality)
O=C(Nc1ccc(N2C(=O)c3ccccc3C2=O)cc1)[C@H]1C=CS(=O)(=O)C1 (3D coordinates assigned)
O=C(Nc1ccc(N2C(=O)c3ccccc3C2=O)cc1)[C@H]1C=CS(=O)(=O)C1 (nonaromatic ring conformer: 91.10877729878733 kcal/mol)

>  <smiles>  (66) 
O=C(Nc1ccc(N2C(=O)c3ccccc3C2=O)cc1)C1C=CS(=O)(=O)C1

>  <score_type>  (66) 
oracle

>  <origin>  (66) 
adg

>  <m_score__min__energy>  (66) 
-8.9600000000000009

>  <m_primary>  (66) 
energy

$$$$
66:0
     RDKit          3D

 67 71  0  0  0  0  0  0  0  0999 V2000
   54.2870   19.0440   45.9620 C   0  0  0  0  0  0  0  0  0  0  0  0
   53.8760   20.3660   45.6250 O   0  0  0  0  0  0  0  0  0  0  0  0
   54.6240   21.5250   45.8980 C   0  0  0  0  0  0  0  0  0  0  0  0
   54.2760   22.4050   46.9370 C   0  0  0  0  0  0  0  0  0  0  0  0
   55.0280   23.5520   47.1710 C   0  0  0  0  0  0  0  0  0  0  0  0
   56.1430   23.8490   46.3770 C   0  0  0  0  0  0  0  0  0  0  0  0
   56.8590   25.1240   46.6040 C   0  0  0  0  0  0  0  0  0  0  0  0
   56.1990   26.1890   46.7590 O   0  0  0  0  0  0  0  0  0  0  0  0
   58.2950   25.1680   46.5720 N   0  0  0  0  0  0  0  0  0  0  0  0
   59.0650   26.2720   47.0690 C   0  0  0  0  0  0  0  0  0  0  0  0
   59.5710   26.2260   48.3940 C   0  0  0  0  0  0  0  0  0  0  0  0
   60.3080   27.3030   48.9200 C   0  0  0  0  0  0  0  0  0  0  0  0
   60.4990   28.4100   48.1020 C   0  0  0  0  0  0  0  0  0  0  0  0
   61.1280   29.5230   48.3660 O   0  0  0  0  0  0  0  0  0  0  0  0
   61.0110   30.2690   47.2770 C   0  0  0  0  0  0  0  0  0  0  0  0
   61.5790   31.6280   47.1620 C   0  0  0  0  0  0  0  0  0  0  0  0
   62.9430   31.8580   47.4170 C   0  0  0  0  0  0  0  0  0  0  0  0
   63.4800   33.1380   47.2600 C   0  0  0  0  0  0  0  0  0  0  0  0
   62.6610   34.2010   46.8720 C   0  0  0  0  0  0  0  0  0  0  0  0
   61.2940   34.0000   46.6610 C   0  0  0  0  0  0  0  0  0  0  0  0
   60.4800   35.1220   46.2890 N   0  0  0  0  0  0  0  0  0  0  0  0
   59.4580   35.1230   45.2820 C   0  0  0  0  0  0  0  0  0  0  0  0
   59.2210   36.1720   44.6240 O   0  0  0  0  0  0  0  0  0  0  0  0
   58.7310   33.8720   44.9610 C   0  0  0  0  0  0  0  0  0  0  0  0
   58.0480   33.1610   45.9640 C   0  0  0  0  0  0  0  0  0  0  0  0
   57.3800   31.9700   45.6580 C   0  0  0  0  0  0  0  0  0  0  0  0
   57.3840   31.4710   44.3500 C   0  0  0  0  0  0  0  0  0  0  0  0
   56.5510   29.9630   43.9880 S   0  0  0  0  0  0  0  0  0  0  0  0
   55.3270   29.6810   45.1760 N   0  0  0  0  0  0  0  0  0  0  0  0
   57.5210   28.8140   44.0000 O   0  0  0  0  0  0  0  0  0  0  0  0
   55.9230   30.0540   42.6260 O   0  0  0  0  0  0  0  0  0  0  0  0
   58.0590   32.1760   43.3450 C   0  0  0  0  0  0  0  0  0  0  0  0
   58.7250   33.3690   43.6450 C   0  0  0  0  0  0  0  0  0  0  0  0
   60.7620   32.7030   46.7740 C   0  0  0  0  0  0  0  0  0  0  0  0
   60.3110   29.6600   46.2810 N   0  0  0  0  0  0  0  0  0  0  0  0
   60.0050   28.4750   46.8370 C   0  0  0  0  0  0  0  0  0  0  0  0
   59.2830   27.4250   46.2750 C   0  0  0  0  0  0  0  0  0  0  0  0
   56.5330   22.9480   45.3590 C   0  0  0  0  0  0  0  0  0  0  0  0
   57.6930   23.1920   44.6170 O   0  0  0  0  0  0  0  0  0  0  0  0
   58.8990   22.4640   44.8350 C   0  0  0  0  0  0  0  0  0  0  0  0
   55.7460   21.7930   45.0990 C   0  0  0  0  0  0  0  0  0  0  0  0
   56.0210   20.8730   44.0680 O   0  0  0  0  0  0  0  0  0  0  0  0
   56.8430   21.0970   42.9270 C   0  0  0  0  0  0  0  0  0  0  0  0
   54.3199   18.9380   47.0564 H   0  0  0  0  0  0  0  0  0  0  0  0
   53.5715   18.3200   45.5449 H   0  0  0  0  0  0  0  0  0  0  0  0
   55.2868   18.8533   45.5449 H   0  0  0  0  0  0  0  0  0  0  0  0
   53.4032   22.1855   47.5695 H   0  0  0  0  0  0  0  0  0  0  0  0
   54.7441   24.2322   47.9875 H   0  0  0  0  0  0  0  0  0  0  0  0
   58.7980   24.4030   46.0660 H   0  0  0  0  0  0  0  0  0  0  0  0
   59.3850   25.3385   49.0168 H   0  0  0  0  0  0  0  0  0  0  0  0
   60.7176   27.2699   49.9404 H   0  0  0  0  0  0  0  0  0  0  0  0
   63.5883   31.0281   47.7408 H   0  0  0  0  0  0  0  0  0  0  0  0
   64.5511   33.3094   47.4425 H   0  0  0  0  0  0  0  0  0  0  0  0
   63.0945   35.2022   46.7317 H   0  0  0  0  0  0  0  0  0  0  0  0
   58.0388   33.5434   46.9953 H   0  0  0  0  0  0  0  0  0  0  0  0
   56.8484   31.4224   46.4502 H   0  0  0  0  0  0  0  0  0  0  0  0
   54.4610   29.4060   44.6600 H   0  0  0  0  0  0  0  0  0  0  0  0
   58.0653   31.7896   42.3151 H   0  0  0  0  0  0  0  0  0  0  0  0
   59.2476   33.9182   42.8479 H   0  0  0  0  0  0  0  0  0  0  0  0
   59.6978   32.5289   46.5569 H   0  0  0  0  0  0  0  0  0  0  0  0
   58.8945   27.4888   45.2479 H   0  0  0  0  0  0  0  0  0  0  0  0
   59.0734   22.3587   45.9160 H   0  0  0  0  0  0  0  0  0  0  0  0
   58.8130   21.4668   44.3786 H   0  0  0  0  0  0  0  0  0  0  0  0
   59.7413   23.0047   44.3786 H   0  0  0  0  0  0  0  0  0  0  0  0
   57.8564   21.3732   43.2537 H   0  0  0  0  0  0  0  0  0  0  0  0
   56.8899   20.1789   42.3230 H   0  0  0  0  0  0  0  0  0  0  0  0
   56.4176   21.9120   42.3230 H   0  0  0  0  0  0  0  0  0  0  0  0
  1  2  1  0
  2  3  1  0
  3  4  2  0
  4  5  1  0
  5  6  2  0
  6  7  1  0
  7  8  2  0
  7  9  1  0
  9 10  1  0
 10 11  2  0
 11 12  1  0
 12 13  2  0
 13 14  1  0
 14 15  1  0
 15 16  1  0
 16 17  2  0
 17 18  1  0
 18 19  2  0
 19 20  1  0
 20 21  1  0
 21 22  1  0
 22 23  2  0
 22 24  1  0
 24 25  2  0
 25 26  1  0
 26 27  2  0
 27 28  1  0
 28 29  1  0
 28 30  2  0
 28 31  2  0
 27 32  1  0
 32 33  2  0
 20 34  2  0
 15 35  2  0
 35 36  1  0
 36 37  2  0
  6 38  1  0
 38 39  1  0
 39 40  1  0
 38 41  2  0
 41 42  1  0
 42 43  1  0
 41  3  1  0
 37 10  1  0
 36 13  1  0
 34 16  1  0
 33 24  1  0
  1 44  1  0
  1 45  1  0
  1 46  1  0
  4 47  1  0
  5 48  1  0
  9 49  1  0
 11 50  1  0
 12 51  1  0
 17 52  1  0
 18 53  1  0
 19 54  1  0
 25 55  1  0
 26 56  1  0
 29 57  1  0
 32 58  1  0
 33 59  1  0
 34 60  1  0
 37 61  1  0
 40 62  1  0
 40 63  1  0
 40 64  1  0
 43 65  1  0
 43 66  1  0
 43 67  1  0
M  CHG  2  21  -1  29  -1
M  END
>  <UniqueID>  (67) 
63

>  <SMILES>  (67) 
COc1ccc(C(=O)Nc2ccc3oc(-c4cccc([N-]C(=O)c5ccc(S([NH-])(=O)=O)cc5)c4)nc3c2)c(OC)c1OC

>  <Energy>  (67) 
130.69270083859868

>  <Genealogy>  (67) 
COc1ccc(C(=O)Nc2ccc3oc(-c4cccc([N-]C(=O)c5ccc(S([NH-])(=O)=O)cc5)c4)nc3c2)c(OC)c1OC (protonated)
COc1ccc(C(=O)Nc2ccc3oc(-c4cccc([N-]C(=O)c5ccc(S([NH-])(=O)=O)cc5)c4)nc3c2)c(OC)c1OC (3D coordinates assigned)
COc1ccc(C(=O)Nc2ccc3oc(-c4cccc([N-]C(=O)c5ccc(S([NH-])(=O)=O)cc5)c4)nc3c2)c(OC)c1OC (optimized conformer: 130.69270083859868 kcal/mol)

>  <smiles>  (67) 
COc1ccc(C(=O)Nc2ccc3oc(-c4cccc(NC(=O)c5ccc(S(N)(=O)=O)cc5)c4)nc3c2)c(OC)c1OC

>  <score_type>  (67) 
oracle

>  <origin>  (67) 
adg

>  <m_score__min__energy>  (67) 
-12.33

>  <m_primary>  (67) 
energy

$$$$
67:0
     RDKit          3D

 32 33  0  0  0  0  0  0  0  0999 V2000
   55.1470   28.0830   44.9520 H   0  0  0  0  0  0  0  0  0  0  0  0
   55.0710   28.9950   44.5230 O   0  0  0  0  0  0  0  0  0  0  0  0
   55.9810   30.0100   44.7480 N   0  0  0  0  0  0  0  0  0  0  0  0
   57.2470   29.9660   44.4390 C   0  0  0  0  0  0  0  0  0  0  0  0
   58.1900   30.8670   45.1500 C   0  0  0  0  0  0  0  0  0  0  0  0
   59.3000   30.3380   45.8300 C   0  0  0  0  0  0  0  0  0  0  0  0
   59.4811   29.2531   45.8149 H   0  0  0  0  0  0  0  0  0  0  0  0
   60.1810   31.1800   46.5290 C   0  0  0  0  0  0  0  0  0  0  0  0
   61.2970   30.6780   47.2150 O   0  0  0  0  0  0  0  0  0  0  0  0
   62.2520   31.4510   47.8920 C   0  0  0  0  0  0  0  0  0  0  0  0
   63.0830   32.2980   47.1490 C   0  0  0  0  0  0  0  0  0  0  0  0
   62.9843   32.3378   46.0542 H   0  0  0  0  0  0  0  0  0  0  0  0
   64.0380   33.0940   47.7900 C   0  0  0  0  0  0  0  0  0  0  0  0
   64.6945   33.7491   47.1986 H   0  0  0  0  0  0  0  0  0  0  0  0
   64.1580   33.0570   49.1810 C   0  0  0  0  0  0  0  0  0  0  0  0
   64.9130   33.6788   49.6844 H   0  0  0  0  0  0  0  0  0  0  0  0
   63.3190   32.2300   49.9340 C   0  0  0  0  0  0  0  0  0  0  0  0
   63.4102   32.2063   51.0300 H   0  0  0  0  0  0  0  0  0  0  0  0
   62.3640   31.4330   49.2950 C   0  0  0  0  0  0  0  0  0  0  0  0
   61.6986   30.7904   49.8903 H   0  0  0  0  0  0  0  0  0  0  0  0
   59.9740   32.5620   46.5080 C   0  0  0  0  0  0  0  0  0  0  0  0
   60.6734   33.2248   47.0386 H   0  0  0  0  0  0  0  0  0  0  0  0
   58.8830   33.1140   45.8170 C   0  0  0  0  0  0  0  0  0  0  0  0
   58.6260   34.6000   45.8620 C   0  0  0  0  0  0  0  0  0  0  0  0
   57.4460   34.9110   45.2090 F   0  0  0  0  0  0  0  0  0  0  0  0
   58.5330   35.0080   47.1800 F   0  0  0  0  0  0  0  0  0  0  0  0
   59.6540   35.2960   45.2480 F   0  0  0  0  0  0  0  0  0  0  0  0
   57.9790   32.2580   45.1670 C   0  0  0  0  0  0  0  0  0  0  0  0
   57.0957   32.6800   44.6653 H   0  0  0  0  0  0  0  0  0  0  0  0
   57.7360   29.0700   43.4290 N   0  0  0  0  0  0  0  0  0  0  0  0
   58.7490   28.8270   43.3820 H   0  0  0  0  0  0  0  0  0  0  0  0
   57.1220   28.6870   42.6800 H   0  0  0  0  0  0  0  0  0  0  0  0
  1  2  1  0
  2  3  1  0
  3  4  2  0
  4  5  1  0
  5  6  2  0
  6  7  1  0
  6  8  1  0
  8  9  1  0
  9 10  1  0
 10 11  2  0
 11 12  1  0
 11 13  1  0
 13 14  1  0
 13 15  2  0
 15 16  1  0
 15 17  1  0
 17 18  1  0
 17 19  2  0
 19 20  1  0
  8 21  2  0
 21 22  1  0
 21 23  1  0
 23 24  1  0
 24 25  1  0
 24 26  1  0
 24 27  1  0
 23 28  2  0
 28 29  1  0
  4 30  1  0
 30 31  1  0
 30 32  1  0
 28  5  1  0
 19 10  1  0
M  END
>  <UniqueID>  (68) 
64

>  <SMILES>  (68) 
N/C(=N\O)c1cc(Oc2ccccc2)cc(C(F)(F)F)c1

>  <Energy>  (68) 
44.627118807112424

>  <Genealogy>  (68) 
N/C(=N\O)c1cc(Oc2ccccc2)cc(C(F)(F)F)c1 (cis-trans isomerization)
N/C(=N\O)c1cc(Oc2ccccc2)cc(C(F)(F)F)c1 (3D coordinates assigned)
N/C(=N\O)c1cc(Oc2ccccc2)cc(C(F)(F)F)c1 (optimized conformer: 44.627118807112424 kcal/mol)

>  <smiles>  (68) 
NC(=NO)c1cc(Oc2ccccc2)cc(C(F)(F)F)c1

>  <score_type>  (68) 
oracle

>  <origin>  (68) 
adg

>  <m_score__min__energy>  (68) 
-7.6600000000000001

>  <m_primary>  (68) 
energy

$$$$
68:0
     RDKit          3D

 38 40  0  0  0  0  0  0  0  0999 V2000
   59.6410   35.1790   46.3350 C   0  0  0  0  0  0  0  0  0  0  0  0
   59.1220   34.9910   44.9360 C   0  0  0  0  0  0  0  0  0  0  0  0
   57.9080   34.0760   44.9110 C   0  0  0  0  0  0  0  0  0  0  0  0
   58.2170   32.7140   45.4460 C   0  0  0  0  0  0  0  0  0  0  0  0
   57.9500   31.6480   44.4260 C   0  0  0  0  0  0  0  0  0  0  0  0
   57.9380   31.9960   43.2160 O   0  0  0  0  0  0  0  0  0  0  0  0
   57.7200   30.2800   44.8710 C   0  0  0  0  0  0  0  0  0  0  0  0
   56.4380   29.7670   44.6850 C   0  0  0  0  0  0  0  0  0  0  0  0
   56.1020   28.5170   45.0540 N   0  0  0  0  0  0  0  0  0  0  0  0
   57.0380   27.7430   45.6210 C   0  0  0  0  0  0  0  0  0  0  0  0
   58.3320   28.2030   45.8310 C   0  0  0  0  0  0  0  0  0  0  0  0
   59.2770   27.3840   46.4170 C   0  0  0  0  0  0  0  0  0  0  0  0
   58.8840   26.1020   46.7820 C   0  0  0  0  0  0  0  0  0  0  0  0
   57.6140   25.6260   46.5850 C   0  0  0  0  0  0  0  0  0  0  0  0
   56.9850   24.4460   46.8420 N   0  0  0  0  0  0  0  0  0  0  0  0
   55.7070   24.5430   46.4290 C   0  0  0  0  0  0  0  0  0  0  0  0
   54.6260   23.5300   46.4890 C   0  0  0  0  0  0  0  0  0  0  0  0
   55.5210   25.7800   45.9100 N   0  0  0  0  0  0  0  0  0  0  0  0
   56.6840   26.4620   45.9970 C   0  0  0  0  0  0  0  0  0  0  0  0
   58.6950   29.4960   45.4530 C   0  0  0  0  0  0  0  0  0  0  0  0
   59.8430   29.9570   45.6190 O   0  0  0  0  0  0  0  0  0  0  0  0
   58.8605   34.8963   47.0567 H   0  0  0  0  0  0  0  0  0  0  0  0
   60.5269   34.5447   46.4858 H   0  0  0  0  0  0  0  0  0  0  0  0
   59.9152   36.2336   46.4858 H   0  0  0  0  0  0  0  0  0  0  0  0
   58.8394   35.9713   44.5247 H   0  0  0  0  0  0  0  0  0  0  0  0
   59.9163   34.5276   44.3323 H   0  0  0  0  0  0  0  0  0  0  0  0
   57.1128   34.5255   45.5238 H   0  0  0  0  0  0  0  0  0  0  0  0
   57.5907   33.9638   43.8637 H   0  0  0  0  0  0  0  0  0  0  0  0
   59.2780   32.6755   45.7336 H   0  0  0  0  0  0  0  0  0  0  0  0
   57.5681   32.5297   46.3149 H   0  0  0  0  0  0  0  0  0  0  0  0
   55.6732   30.4064   44.2200 H   0  0  0  0  0  0  0  0  0  0  0  0
   55.1430   28.1310   44.9170 H   0  0  0  0  0  0  0  0  0  0  0  0
   60.3054   27.7344   46.5889 H   0  0  0  0  0  0  0  0  0  0  0  0
   59.6262   25.4389   47.2505 H   0  0  0  0  0  0  0  0  0  0  0  0
   57.4250   23.6150   47.2840 H   0  0  0  0  0  0  0  0  0  0  0  0
   54.3893   23.3082   47.5401 H   0  0  0  0  0  0  0  0  0  0  0  0
   53.7292   23.9205   45.9857 H   0  0  0  0  0  0  0  0  0  0  0  0
   54.9575   22.6098   45.9857 H   0  0  0  0  0  0  0  0  0  0  0  0
  1  2  1  0
  2  3  1  0
  3  4  1  0
  4  5  1  0
  5  6  2  0
  5  7  1  0
  7  8  2  0
  8  9  1  0
  9 10  1  0
 10 11  2  0
 11 12  1  0
 12 13  2  0
 13 14  1  0
 14 15  1  0
 15 16  1  0
 16 17  1  0
 16 18  2  0
 18 19  1  0
 11 20  1  0
 20 21  2  0
 20  7  1  0
 19 10  1  0
 19 14  2  0
  1 22  1  0
  1 23  1  0
  1 24  1  0
  2 25  1  0
  2 26  1  0
  3 27  1  0
  3 28  1  0
  4 29  1  0
  4 30  1  0
  8 31  1  0
  9 32  1  0
 12 33  1  0
 13 34  1  0
 15 35  1  0
 17 36  1  0
 17 37  1  0
 17 38  1  0
M  END
>  <smiles>  (69) 
CCCCC(=O)c1c[nH]c2c(ccc3[nH]c(C)nc32)c1=O

>  <score_type>  (69) 
oracle

>  <origin>  (69) 
adg

>  <m_score__min__energy>  (69) 
-7.7800000000000002

>  <m_primary>  (69) 
energy

$$$$
69:0
     RDKit          3D

 49 51  0  0  0  0  0  0  0  0999 V2000
   60.7850   29.8100   46.0780 C   0  0  0  0  0  0  0  0  0  0  0  0
   60.3290   28.7060   45.3040 O   0  0  0  0  0  0  0  0  0  0  0  0
   59.3130   27.8180   45.6950 C   0  0  0  0  0  0  0  0  0  0  0  0
   59.4980   26.8980   46.7460 C   0  0  0  0  0  0  0  0  0  0  0  0
   58.4700   26.0300   47.1160 C   0  0  0  0  0  0  0  0  0  0  0  0
   57.2510   26.0620   46.4400 C   0  0  0  0  0  0  0  0  0  0  0  0
   57.0540   26.9660   45.3950 C   0  0  0  0  0  0  0  0  0  0  0  0
   58.0750   27.8600   45.0180 C   0  0  0  0  0  0  0  0  0  0  0  0
   57.8790   28.8030   43.9460 N   0  0  0  0  0  0  0  0  0  0  0  0
   56.7590   30.1260   44.0210 S   0  0  0  0  0  0  0  0  0  0  0  0
   55.5720   29.7270   44.8530 O   0  0  0  0  0  0  0  0  0  0  0  0
   56.2870   30.4560   42.6340 O   0  0  0  0  0  0  0  0  0  0  0  0
   57.5530   31.5470   44.6940 C   0  0  0  0  0  0  0  0  0  0  0  0
   57.7590   32.6720   43.8860 C   0  0  0  0  0  0  0  0  0  0  0  0
   58.4030   33.7990   44.4040 C   0  0  0  0  0  0  0  0  0  0  0  0
   58.8440   33.8080   45.7290 C   0  0  0  0  0  0  0  0  0  0  0  0
   58.6410   32.6890   46.5510 C   0  0  0  0  0  0  0  0  0  0  0  0
   59.1030   32.6970   47.9110 N   0  0  0  0  0  0  0  0  0  0  0  0
   58.7890   31.5800   48.7990 C   0  0  0  0  0  0  0  0  0  0  0  0
   59.9790   34.0610   48.5380 S   0  0  0  0  0  0  0  0  0  0  0  0
   59.6450   35.2880   47.7330 O   0  0  0  0  0  0  0  0  0  0  0  0
   59.5950   34.3160   49.9690 O   0  0  0  0  0  0  0  0  0  0  0  0
   61.7050   33.7070   48.4740 C   0  0  0  0  0  0  0  0  0  0  0  0
   62.4320   33.6350   49.6710 C   0  0  0  0  0  0  0  0  0  0  0  0
   63.7970   33.3320   49.6510 C   0  0  0  0  0  0  0  0  0  0  0  0
   64.4450   33.0960   48.4350 C   0  0  0  0  0  0  0  0  0  0  0  0
   63.7260   33.1550   47.2390 C   0  0  0  0  0  0  0  0  0  0  0  0
   62.3580   33.4560   47.2520 C   0  0  0  0  0  0  0  0  0  0  0  0
   61.6810   33.4970   46.0770 F   0  0  0  0  0  0  0  0  0  0  0  0
   57.9960   31.5570   46.0250 C   0  0  0  0  0  0  0  0  0  0  0  0
   60.6872   29.5731   47.1477 H   0  0  0  0  0  0  0  0  0  0  0  0
   61.8402   30.0122   45.8422 H   0  0  0  0  0  0  0  0  0  0  0  0
   60.1800   30.6979   45.8422 H   0  0  0  0  0  0  0  0  0  0  0  0
   60.4598   26.8638   47.2787 H   0  0  0  0  0  0  0  0  0  0  0  0
   58.6215   25.3196   47.9421 H   0  0  0  0  0  0  0  0  0  0  0  0
   56.4435   25.3739   46.7306 H   0  0  0  0  0  0  0  0  0  0  0  0
   56.0925   26.9804   44.8609 H   0  0  0  0  0  0  0  0  0  0  0  0
   58.5070   28.7740   43.1120 H   0  0  0  0  0  0  0  0  0  0  0  0
   57.4133   32.6687   42.8417 H   0  0  0  0  0  0  0  0  0  0  0  0
   58.5629   34.6811   43.7665 H   0  0  0  0  0  0  0  0  0  0  0  0
   59.3530   34.6967   46.1303 H   0  0  0  0  0  0  0  0  0  0  0  0
   58.8808   31.9065   49.8454 H   0  0  0  0  0  0  0  0  0  0  0  0
   57.7603   31.2394   48.6101 H   0  0  0  0  0  0  0  0  0  0  0  0
   59.4895   30.7532   48.6101 H   0  0  0  0  0  0  0  0  0  0  0  0
   61.9260   33.8178   50.6305 H   0  0  0  0  0  0  0  0  0  0  0  0
   64.3617   33.2793   50.5935 H   0  0  0  0  0  0  0  0  0  0  0  0
   65.5202   32.8640   48.4201 H   0  0  0  0  0  0  0  0  0  0  0  0
   64.2360   32.9644   46.2832 H   0  0  0  0  0  0  0  0  0  0  0  0
   57.8375   30.6734   46.6606 H   0  0  0  0  0  0  0  0  0  0  0  0
  1  2  1  0
  2  3  1  0
  3  4  2  0
  4  5  1  0
  5  6  2  0
  6  7  1  0
  7  8  2  0
  8  9  1  0
  9 10  1  0
 10 11  2  0
 10 12  2  0
 10 13  1  0
 13 14  2  0
 14 15  1  0
 15 16  2  0
 16 17  1  0
 17 18  1  0
 18 19  1  0
 18 20  1  0
 20 21  2  0
 20 22  2  0
 20 23  1  0
 23 24  2  0
 24 25  1  0
 25 26  2  0
 26 27  1  0
 27 28  2  0
 28 29  1  0
 17 30  2  0
  8  3  1  0
 30 13  1  0
 28 23  1  0
  1 31  1  0
  1 32  1  0
  1 33  1  0
  4 34  1  0
  5 35  1  0
  6 36  1  0
  7 37  1  0
  9 38  1  0
 14 39  1  0
 15 40  1  0
 16 41  1  0
 19 42  1  0
 19 43  1  0
 19 44  1  0
 24 45  1  0
 25 46  1  0
 26 47  1  0
 27 48  1  0
 30 49  1  0
M  END
>  <UniqueID>  (70) 
65

>  <SMILES>  (70) 
COc1ccccc1NS(=O)(=O)c1cccc(N(C)S(=O)(=O)c2ccccc2F)c1

>  <Energy>  (70) 
59.98302298393238

>  <Genealogy>  (70) 
COc1ccccc1NS(=O)(=O)c1cccc(N(C)S(=O)(=O)c2ccccc2F)c1 (3D coordinates assigned)
COc1ccccc1NS(=O)(=O)c1cccc(N(C)S(=O)(=O)c2ccccc2F)c1 (optimized conformer: 59.98302298393238 kcal/mol)

>  <smiles>  (70) 
COc1ccccc1NS(=O)(=O)c1cccc(N(C)S(=O)(=O)c2ccccc2F)c1

>  <score_type>  (70) 
oracle

>  <origin>  (70) 
adg

>  <m_score__min__energy>  (70) 
-10.23

>  <m_primary>  (70) 
energy

$$$$
70:0
     RDKit          3D

 25 26  0  0  0  0  0  0  0  0999 V2000
   57.5030   28.4500   43.7750 C   0  0  0  0  0  0  0  0  0  0  0  0
   56.5390   29.8430   44.3220 S   0  0  0  0  0  0  0  0  0  0  0  0
   55.2190   29.3430   44.8350 O   0  0  0  0  0  0  0  0  0  0  0  0
   56.2870   30.7890   43.1810 O   0  0  0  0  0  0  0  0  0  0  0  0
   57.3580   30.6680   45.6090 N   0  0  0  0  0  0  0  0  0  0  0  0
   57.9270   31.9880   45.5470 C   0  0  0  0  0  0  0  0  0  0  0  0
   57.2320   33.0580   44.9510 C   0  0  0  0  0  0  0  0  0  0  0  0
   57.7980   34.3330   44.8980 C   0  0  0  0  0  0  0  0  0  0  0  0
   59.0610   34.5660   45.4380 C   0  0  0  0  0  0  0  0  0  0  0  0
   59.7720   33.5200   46.0380 C   0  0  0  0  0  0  0  0  0  0  0  0
   61.0430   33.7420   46.5860 C   0  0  0  0  0  0  0  0  0  0  0  0
   61.7280   32.7200   47.1670 N   0  0  0  0  0  0  0  0  0  0  0  0
   61.2090   31.4650   47.2370 C   0  0  0  0  0  0  0  0  0  0  0  0
   59.9470   31.1920   46.7070 C   0  0  0  0  0  0  0  0  0  0  0  0
   59.2080   32.2210   46.0970 C   0  0  0  0  0  0  0  0  0  0  0  0
   57.8829   27.9010   44.6493 H   0  0  0  0  0  0  0  0  0  0  0  0
   56.8723   27.7830   43.1689 H   0  0  0  0  0  0  0  0  0  0  0  0
   58.3494   28.8052   43.1689 H   0  0  0  0  0  0  0  0  0  0  0  0
   56.2332   32.8874   44.5229 H   0  0  0  0  0  0  0  0  0  0  0  0
   57.2437   35.1583   44.4272 H   0  0  0  0  0  0  0  0  0  0  0  0
   59.5002   35.5735   45.3928 H   0  0  0  0  0  0  0  0  0  0  0  0
   61.4886   34.7469   46.5461 H   0  0  0  0  0  0  0  0  0  0  0  0
   62.6740   32.9030   47.5700 H   0  0  0  0  0  0  0  0  0  0  0  0
   61.7873   30.6601   47.7142 H   0  0  0  0  0  0  0  0  0  0  0  0
   59.5318   30.1751   46.7663 H   0  0  0  0  0  0  0  0  0  0  0  0
  1  2  1  0
  2  3  2  0
  2  4  2  0
  2  5  1  0
  5  6  1  0
  6  7  2  0
  7  8  1  0
  8  9  2  0
  9 10  1  0
 10 11  2  0
 11 12  1  0
 12 13  2  0
 13 14  1  0
 14 15  2  0
 15  6  1  0
 15 10  1  0
  1 16  1  0
  1 17  1  0
  1 18  1  0
  7 19  1  0
  8 20  1  0
  9 21  1  0
 11 22  1  0
 12 23  1  0
 13 24  1  0
 14 25  1  0
M  CHG  2   5  -1  12   1
M  END
>  <UniqueID>  (71) 
66

>  <SMILES>  (71) 
CS(=O)(=O)[N-]c1cccc2c[nH+]ccc12

>  <Energy>  (71) 
28.8649391878448

>  <Genealogy>  (71) 
CS(=O)(=O)[N-]c1cccc2c[nH+]ccc12 (protonated)
CS(=O)(=O)[N-]c1cccc2c[nH+]ccc12 (3D coordinates assigned)
CS(=O)(=O)[N-]c1cccc2c[nH+]ccc12 (optimized conformer: 28.8649391878448 kcal/mol)

>  <smiles>  (71) 
CS(=O)(=O)Nc1cccc2cnccc12

>  <score_type>  (71) 
oracle

>  <origin>  (71) 
adg

>  <m_score__min__energy>  (71) 
-6.4900000000000002

>  <m_primary>  (71) 
energy

$$$$
71:0
     RDKit          3D

 26 28  0  0  0  0  0  0  0  0999 V2000
   59.7870   35.0980   46.0000 C   0  0  0  0  0  0  0  0  0  0  0  0
   60.4380   33.8020   46.4030 C   0  0  0  0  0  0  0  0  0  0  0  0
   61.7200   33.8300   46.9780 C   0  0  0  0  0  0  0  0  0  0  0  0
   62.3530   32.6500   47.3610 C   0  0  0  0  0  0  0  0  0  0  0  0
   61.7190   31.4220   47.1800 C   0  0  0  0  0  0  0  0  0  0  0  0
   60.4400   31.3590   46.6110 C   0  0  0  0  0  0  0  0  0  0  0  0
   59.7860   32.5580   46.2160 C   0  0  0  0  0  0  0  0  0  0  0  0
   58.4720   32.4930   45.6300 N   0  0  0  0  0  0  0  0  0  0  0  0
   57.8570   31.2210   45.4610 C   0  0  0  0  0  0  0  0  0  0  0  0
   56.6320   31.0300   44.9260 N   0  0  0  0  0  0  0  0  0  0  0  0
   56.4980   29.6870   44.9800 C   0  0  0  0  0  0  0  0  0  0  0  0
   55.3690   29.0120   44.5290 O   0  0  0  0  0  0  0  0  0  0  0  0
   57.6180   29.0990   45.5320 C   0  0  0  0  0  0  0  0  0  0  0  0
   58.4700   30.0900   45.8320 N   0  0  0  0  0  0  0  0  0  0  0  0
   59.7950   29.9940   46.4370 C   0  0  0  0  0  0  0  0  0  0  0  0
   59.5038   35.6618   46.9011 H   0  0  0  0  0  0  0  0  0  0  0  0
   60.4933   35.6928   45.4022 H   0  0  0  0  0  0  0  0  0  0  0  0
   58.8882   34.8865   45.4022 H   0  0  0  0  0  0  0  0  0  0  0  0
   62.2288   34.7938   47.1271 H   0  0  0  0  0  0  0  0  0  0  0  0
   63.3573   32.6873   47.8081 H   0  0  0  0  0  0  0  0  0  0  0  0
   62.2265   30.4953   47.4861 H   0  0  0  0  0  0  0  0  0  0  0  0
   57.9530   33.3470   45.3250 H   0  0  0  0  0  0  0  0  0  0  0  0
   55.1430   28.0890   44.8800 H   0  0  0  0  0  0  0  0  0  0  0  0
   57.7806   28.0233   45.6947 H   0  0  0  0  0  0  0  0  0  0  0  0
   59.7015   29.5167   47.4236 H   0  0  0  0  0  0  0  0  0  0  0  0
   60.4329   29.3990   45.7669 H   0  0  0  0  0  0  0  0  0  0  0  0
  1  2  1  0
  2  3  2  0
  3  4  1  0
  4  5  2  0
  5  6  1  0
  6  7  2  0
  7  8  1  0
  8  9  1  0
  9 10  2  0
 10 11  1  0
 11 12  1  0
 11 13  2  0
 13 14  1  0
 14 15  1  0
  7  2  1  0
 14  9  1  0
 15  6  1  0
  1 16  1  0
  1 17  1  0
  1 18  1  0
  3 19  1  0
  4 20  1  0
  5 21  1  0
  8 22  1  0
 12 23  1  0
 13 24  1  0
 15 25  1  0
 15 26  1  0
M  END
>  <UniqueID>  (72) 
67

>  <SMILES>  (72) 
Cc1cccc2c1Nc1nc(O)cn1C2

>  <Energy>  (72) 
61.5402776836902

>  <Genealogy>  (72) 
Cc1cccc2c1Nc1nc(O)cn1C2 (3D coordinates assigned)
Cc1cccc2c1Nc1nc(O)cn1C2 (nonaromatic ring conformer: 61.5402776836902 kcal/mol)

>  <smiles>  (72) 
Cc1cccc2c1Nc1nc(O)cn1C2

>  <score_type>  (72) 
oracle

>  <origin>  (72) 
adg

>  <m_score__min__energy>  (72) 
-6.6699999999999999

>  <m_primary>  (72) 
energy

$$$$
72:0
     RDKit          3D

 48 51  0  0  0  0  0  0  0  0999 V2000
   55.6220   29.2460   44.9100 N   0  0  0  0  0  0  0  0  0  0  0  0
   57.3260   29.1970   45.1990 S   0  0  0  0  0  0  0  0  0  0  0  0
   58.0530   29.8180   44.0410 O   0  0  0  0  0  0  0  0  0  0  0  0
   57.6160   29.9930   46.4410 O   0  0  0  0  0  0  0  0  0  0  0  0
   57.8670   27.5220   45.4140 C   0  0  0  0  0  0  0  0  0  0  0  0
   57.3960   26.5420   44.5260 C   0  0  0  0  0  0  0  0  0  0  0  0
   57.8300   25.2180   44.6320 C   0  0  0  0  0  0  0  0  0  0  0  0
   58.7410   24.8590   45.6250 C   0  0  0  0  0  0  0  0  0  0  0  0
   59.2120   25.8190   46.5210 C   0  0  0  0  0  0  0  0  0  0  0  0
   58.7760   27.1510   46.4360 C   0  0  0  0  0  0  0  0  0  0  0  0
   59.2870   28.1190   47.4240 C   0  0  0  0  0  0  0  0  0  0  0  0
   60.5470   28.7070   47.2450 C   0  0  0  0  0  0  0  0  0  0  0  0
   61.0520   29.5970   48.1960 C   0  0  0  0  0  0  0  0  0  0  0  0
   60.3140   29.8920   49.3560 C   0  0  0  0  0  0  0  0  0  0  0  0
   60.8670   30.7860   50.3990 C   0  0  0  0  0  0  0  0  0  0  0  0
   60.7610   30.4560   51.6110 O   0  0  0  0  0  0  0  0  0  0  0  0
   61.4900   32.0380   50.0790 N   0  0  0  0  0  0  0  0  0  0  0  0
   61.5160   32.6740   48.7910 C   0  0  0  0  0  0  0  0  0  0  0  0
   62.7180   33.2220   48.3330 C   0  0  0  0  0  0  0  0  0  0  0  0
   62.7720   33.8630   47.0940 C   0  0  0  0  0  0  0  0  0  0  0  0
   61.6270   33.9540   46.2980 C   0  0  0  0  0  0  0  0  0  0  0  0
   60.4150   33.3860   46.7270 C   0  0  0  0  0  0  0  0  0  0  0  0
   59.1850   33.4930   45.9050 C   0  0  0  0  0  0  0  0  0  0  0  0
   58.5820   34.6150   45.7030 N   0  0  0  0  0  0  0  0  0  0  0  0
   57.4180   34.4110   44.8500 C   0  0  0  0  0  0  0  0  0  0  0  0
   57.3920   32.9020   44.5680 C   0  0  0  0  0  0  0  0  0  0  0  0
   58.5580   32.3970   45.2610 N   0  0  0  0  0  0  0  0  0  0  0  0
   60.3750   32.7280   47.9700 C   0  0  0  0  0  0  0  0  0  0  0  0
   59.0450   29.3140   49.5250 C   0  0  0  0  0  0  0  0  0  0  0  0
   58.5390   28.4260   48.5710 C   0  0  0  0  0  0  0  0  0  0  0  0
   55.1730   28.6340   45.6260 H   0  0  0  0  0  0  0  0  0  0  0  0
   56.6786   26.8189   43.7394 H   0  0  0  0  0  0  0  0  0  0  0  0
   57.4528   24.4583   43.9316 H   0  0  0  0  0  0  0  0  0  0  0  0
   59.0884   23.8181   45.7018 H   0  0  0  0  0  0  0  0  0  0  0  0
   59.9315   25.5298   47.3012 H   0  0  0  0  0  0  0  0  0  0  0  0
   61.1411   28.4663   46.3511 H   0  0  0  0  0  0  0  0  0  0  0  0
   62.0324   30.0696   48.0365 H   0  0  0  0  0  0  0  0  0  0  0  0
   63.6247   33.1478   48.9514 H   0  0  0  0  0  0  0  0  0  0  0  0
   63.7194   34.2981   46.7430 H   0  0  0  0  0  0  0  0  0  0  0  0
   61.6745   34.4734   45.3295 H   0  0  0  0  0  0  0  0  0  0  0  0
   56.4994   34.7234   45.3682 H   0  0  0  0  0  0  0  0  0  0  0  0
   57.4746   35.0034   43.9249 H   0  0  0  0  0  0  0  0  0  0  0  0
   56.4731   32.4457   44.9647 H   0  0  0  0  0  0  0  0  0  0  0  0
   57.4055   32.6716   43.4925 H   0  0  0  0  0  0  0  0  0  0  0  0
   58.8200   31.3890   45.3350 H   0  0  0  0  0  0  0  0  0  0  0  0
   59.4417   32.2508   48.3033 H   0  0  0  0  0  0  0  0  0  0  0  0
   58.4456   29.5616   50.4135 H   0  0  0  0  0  0  0  0  0  0  0  0
   57.5509   27.9663   48.7200 H   0  0  0  0  0  0  0  0  0  0  0  0
  1  2  1  0
  2  3  2  0
  2  4  2  0
  2  5  1  0
  5  6  2  0
  6  7  1  0
  7  8  2  0
  8  9  1  0
  9 10  2  0
 10 11  1  0
 11 12  2  0
 12 13  1  0
 13 14  2  0
 14 15  1  0
 15 16  2  0
 15 17  1  0
 17 18  1  0
 18 19  2  0
 19 20  1  0
 20 21  2  0
 21 22  1  0
 22 23  1  0
 23 24  2  0
 24 25  1  0
 25 26  1  0
 26 27  1  0
 22 28  2  0
 14 29  1  0
 29 30  2  0
 10  5  1  0
 30 11  1  0
 28 18  1  0
 27 23  1  0
  1 31  1  0
  6 32  1  0
  7 33  1  0
  8 34  1  0
  9 35  1  0
 12 36  1  0
 13 37  1  0
 19 38  1  0
 20 39  1  0
 21 40  1  0
 25 41  1  0
 25 42  1  0
 26 43  1  0
 26 44  1  0
 27 45  1  0
 28 46  1  0
 29 47  1  0
 30 48  1  0
M  CHG  2   1  -1  17  -1
M  END
>  <UniqueID>  (73) 
68

>  <SMILES>  (73) 
[NH-]S(=O)(=O)c1ccccc1-c1ccc(C(=O)[N-]c2cccc(C3=NCCN3)c2)cc1

>  <Energy>  (73) 
79.32192679109247

>  <Genealogy>  (73) 
[NH-]S(=O)(=O)c1ccccc1-c1ccc(C(=O)[N-]c2cccc(C3=NCCN3)c2)cc1 (protonated)
[NH-]S(=O)(=O)c1ccccc1-c1ccc(C(=O)[N-]c2cccc(C3=NCCN3)c2)cc1 (3D coordinates assigned)
[NH-]S(=O)(=O)c1ccccc1-c1ccc(C(=O)[N-]c2cccc(C3=NCCN3)c2)cc1 (nonaromatic ring conformer: 79.32192679109247 kcal/mol)

>  <smiles>  (73) 
NS(=O)(=O)c1ccccc1-c1ccc(C(=O)Nc2cccc(C3=NCCN3)c2)cc1

>  <score_type>  (73) 
oracle

>  <origin>  (73) 
adg

>  <m_score__min__energy>  (73) 
-13.050000000000001

>  <m_primary>  (73) 
energy

$$$$
73:0
     RDKit          3D

 57 60  0  0  0  0  0  0  0  0999 V2000
   56.2760   24.1190   44.5720 C   0  0  0  0  0  0  0  0  0  0  0  0
   55.5720   25.0670   45.4830 C   0  0  0  0  0  0  0  0  0  0  0  0
   54.5000   24.7070   46.0420 O   0  0  0  0  0  0  0  0  0  0  0  0
   56.1670   26.3000   45.7810 O   0  0  0  0  0  0  0  0  0  0  0  0
   57.5300   26.5010   46.0590 C   0  0  0  0  0  0  0  0  0  0  0  0
   58.1060   26.0840   47.2740 C   0  0  0  0  0  0  0  0  0  0  0  0
   59.4580   26.3210   47.5340 C   0  0  0  0  0  0  0  0  0  0  0  0
   60.2440   26.9920   46.5970 C   0  0  0  0  0  0  0  0  0  0  0  0
   59.6820   27.4260   45.3940 C   0  0  0  0  0  0  0  0  0  0  0  0
   58.3280   27.1770   45.1120 C   0  0  0  0  0  0  0  0  0  0  0  0
   57.7300   27.6620   43.8160 C   0  0  0  0  0  0  0  0  0  0  0  0
   57.7470   29.1220   43.7520 N   0  0  0  0  0  0  0  0  0  0  0  0
   56.6240   29.9050   44.1820 C   0  0  0  0  0  0  0  0  0  0  0  0
   55.6040   29.3360   44.6620 O   0  0  0  0  0  0  0  0  0  0  0  0
   56.6860   31.4050   44.0840 C   0  0  0  0  0  0  0  0  0  0  0  0
   57.6690   31.9670   45.0340 N   0  0  0  0  0  0  0  0  0  0  0  0
   58.2350   30.9190   45.9090 C   0  0  0  0  0  0  0  0  0  0  0  0
   59.4470   31.4670   46.6890 C   0  0  0  0  0  0  0  0  0  0  0  0
   59.3990   33.0020   46.8380 C   0  0  0  0  0  0  0  0  0  0  0  0
   60.2930   33.4620   47.9630 C   0  0  0  0  0  0  0  0  0  0  0  0
   59.8960   33.9970   49.1880 C   0  0  0  0  0  0  0  0  0  0  0  0
   60.9700   34.2290   49.9770 N   0  0  0  0  0  0  0  0  0  0  0  0
   62.0430   33.8330   49.2710 C   0  0  0  0  0  0  0  0  0  0  0  0
   63.3760   33.8570   49.6790 C   0  0  0  0  0  0  0  0  0  0  0  0
   64.3460   33.3700   48.7850 C   0  0  0  0  0  0  0  0  0  0  0  0
   63.9660   32.8710   47.5180 C   0  0  0  0  0  0  0  0  0  0  0  0
   62.6120   32.8550   47.1340 C   0  0  0  0  0  0  0  0  0  0  0  0
   61.6710   33.3520   48.0400 C   0  0  0  0  0  0  0  0  0  0  0  0
   57.9490   33.4780   47.0310 C   0  0  0  0  0  0  0  0  0  0  0  0
   57.0540   33.0430   45.8460 C   0  0  0  0  0  0  0  0  0  0  0  0
   56.8268   23.3773   45.1691 H   0  0  0  0  0  0  0  0  0  0  0  0
   55.5392   23.6048   43.9375 H   0  0  0  0  0  0  0  0  0  0  0  0
   56.9813   24.6757   43.9375 H   0  0  0  0  0  0  0  0  0  0  0  0
   57.4876   25.5683   48.0234 H   0  0  0  0  0  0  0  0  0  0  0  0
   59.9036   25.9779   48.4794 H   0  0  0  0  0  0  0  0  0  0  0  0
   61.3076   27.1796   46.8057 H   0  0  0  0  0  0  0  0  0  0  0  0
   60.3027   27.9656   44.6635 H   0  0  0  0  0  0  0  0  0  0  0  0
   58.3132   27.2572   42.9757 H   0  0  0  0  0  0  0  0  0  0  0  0
   56.6867   27.3182   43.7581 H   0  0  0  0  0  0  0  0  0  0  0  0
   58.5900   29.6180   43.3810 H   0  0  0  0  0  0  0  0  0  0  0  0
   56.9765   31.6852   43.0607 H   0  0  0  0  0  0  0  0  0  0  0  0
   55.6938   31.8096   44.3325 H   0  0  0  0  0  0  0  0  0  0  0  0
   57.4654   30.5870   46.6214 H   0  0  0  0  0  0  0  0  0  0  0  0
   58.5637   30.0736   45.2867 H   0  0  0  0  0  0  0  0  0  0  0  0
   59.4574   31.0140   47.6913 H   0  0  0  0  0  0  0  0  0  0  0  0
   60.3556   31.2109   46.1243 H   0  0  0  0  0  0  0  0  0  0  0  0
   59.7804   33.4570   45.9120 H   0  0  0  0  0  0  0  0  0  0  0  0
   58.8536   34.2020   49.4733 H   0  0  0  0  0  0  0  0  0  0  0  0
   60.9620   34.6220   50.9440 H   0  0  0  0  0  0  0  0  0  0  0  0
   63.6598   34.2445   50.6686 H   0  0  0  0  0  0  0  0  0  0  0  0
   65.4075   33.3773   49.0734 H   0  0  0  0  0  0  0  0  0  0  0  0
   64.7340   32.4925   46.8274 H   0  0  0  0  0  0  0  0  0  0  0  0
   62.3045   32.4641   46.1529 H   0  0  0  0  0  0  0  0  0  0  0  0
   57.5499   33.0446   47.9599 H   0  0  0  0  0  0  0  0  0  0  0  0
   57.9475   34.5768   47.0832 H   0  0  0  0  0  0  0  0  0  0  0  0
   56.0946   32.6802   46.2434 H   0  0  0  0  0  0  0  0  0  0  0  0
   56.9171   33.9173   45.1927 H   0  0  0  0  0  0  0  0  0  0  0  0
  1  2  1  0
  2  3  2  0
  2  4  1  0
  4  5  1  0
  5  6  2  0
  6  7  1  0
  7  8  2  0
  8  9  1  0
  9 10  2  0
 10 11  1  0
 11 12  1  0
 12 13  1  0
 13 14  2  0
 13 15  1  0
 15 16  1  0
 16 17  1  0
 17 18  1  0
 18 19  1  0
 19 20  1  0
 20 21  2  0
 21 22  1  0
 22 23  1  0
 23 24  2  0
 24 25  1  0
 25 26  2  0
 26 27  1  0
 27 28  2  0
 19 29  1  0
 29 30  1  0
 10  5  1  0
 30 16  1  0
 28 20  1  0
 28 23  1  0
  1 31  1  0
  1 32  1  0
  1 33  1  0
  6 34  1  0
  7 35  1  0
  8 36  1  0
  9 37  1  0
 11 38  1  0
 11 39  1  0
 12 40  1  0
 15 41  1  0
 15 42  1  0
 17 43  1  0
 17 44  1  0
 18 45  1  0
 18 46  1  0
 19 47  1  0
 21 48  1  0
 22 49  1  0
 24 50  1  0
 25 51  1  0
 26 52  1  0
 27 53  1  0
 29 54  1  0
 29 55  1  0
 30 56  1  0
 30 57  1  0
M  END
>  <UniqueID>  (74) 
69

>  <SMILES>  (74) 
CC(=O)Oc1ccccc1CNC(=O)CN1CCC(c2c[nH]c3ccccc23)CC1

>  <Energy>  (74) 
99.70391475823205

>  <Genealogy>  (74) 
CC(=O)Oc1ccccc1CNC(=O)CN1CCC(c2c[nH]c3ccccc23)CC1 (3D coordinates assigned)
CC(=O)Oc1ccccc1CNC(=O)CN1CCC(c2c[nH]c3ccccc23)CC1 (nonaromatic ring conformer: 99.70391475823205 kcal/mol)

>  <smiles>  (74) 
CC(=O)Oc1ccccc1CNC(=O)CN1CCC(c2c[nH]c3ccccc23)CC1

>  <score_type>  (74) 
oracle

>  <origin>  (74) 
adg

>  <m_score__min__energy>  (74) 
-10.24

>  <m_primary>  (74) 
energy

$$$$
74:0
     RDKit          3D

 57 60  0  0  0  0  0  0  0  0999 V2000
   56.2570   19.6150   45.6900 C   0  0  0  0  0  0  0  0  0  0  0  0
   57.5240   19.9690   46.4600 C   0  0  0  0  0  0  0  0  0  0  0  0
   57.3870   21.2360   47.1040 O   0  0  0  0  0  0  0  0  0  0  0  0
   57.3970   22.4850   46.4610 C   0  0  0  0  0  0  0  0  0  0  0  0
   57.7220   22.6410   45.1000 C   0  0  0  0  0  0  0  0  0  0  0  0
   57.7140   23.9110   44.5140 C   0  0  0  0  0  0  0  0  0  0  0  0
   57.4020   25.0460   45.2760 C   0  0  0  0  0  0  0  0  0  0  0  0
   57.3810   26.3380   44.6430 N   0  0  0  0  0  0  0  0  0  0  0  0
   58.3030   27.3960   44.9530 C   0  0  0  0  0  0  0  0  0  0  0  0
   59.4150   27.1200   45.4840 O   0  0  0  0  0  0  0  0  0  0  0  0
   57.9880   28.8040   44.6110 C   0  0  0  0  0  0  0  0  0  0  0  0
   57.1090   29.0960   43.5540 C   0  0  0  0  0  0  0  0  0  0  0  0
   56.8160   30.4200   43.2210 C   0  0  0  0  0  0  0  0  0  0  0  0
   57.3960   31.4680   43.9340 C   0  0  0  0  0  0  0  0  0  0  0  0
   58.2810   31.2020   44.9920 C   0  0  0  0  0  0  0  0  0  0  0  0
   58.8930   32.2820   45.7230 N   0  0  0  0  0  0  0  0  0  0  0  0
   58.3190   33.6400   45.6680 C   0  0  0  0  0  0  0  0  0  0  0  0
   58.1660   34.2160   47.0840 C   0  0  0  0  0  0  0  0  0  0  0  0
   59.4180   33.9700   47.8660 C   0  0  0  0  0  0  0  0  0  0  0  0
   59.8490   34.5940   49.0190 C   0  0  0  0  0  0  0  0  0  0  0  0
   61.0310   33.9620   49.3690 C   0  0  0  0  0  0  0  0  0  0  0  0
   61.3150   32.9760   48.4890 N   0  0  0  0  0  0  0  0  0  0  0  0
   62.5110   32.1340   48.5030 C   0  0  0  0  0  0  0  0  0  0  0  0
   63.7660   32.9620   48.2130 C   0  0  0  0  0  0  0  0  0  0  0  0
   64.0460   32.9690   46.8390 O   0  0  0  0  0  0  0  0  0  0  0  0
   60.3220   32.9770   47.5750 C   0  0  0  0  0  0  0  0  0  0  0  0
   60.2030   32.0840   46.3720 C   0  0  0  0  0  0  0  0  0  0  0  0
   58.5800   29.8690   45.3170 C   0  0  0  0  0  0  0  0  0  0  0  0
   57.0640   24.8870   46.6310 C   0  0  0  0  0  0  0  0  0  0  0  0
   57.0710   23.6170   47.2160 C   0  0  0  0  0  0  0  0  0  0  0  0
   55.4477   19.3889   46.3998 H   0  0  0  0  0  0  0  0  0  0  0  0
   55.9628   20.4653   45.0573 H   0  0  0  0  0  0  0  0  0  0  0  0
   56.4462   18.7353   45.0573 H   0  0  0  0  0  0  0  0  0  0  0  0
   57.7122   19.1963   47.2200 H   0  0  0  0  0  0  0  0  0  0  0  0
   58.3644   20.0216   45.7522 H   0  0  0  0  0  0  0  0  0  0  0  0
   57.9833   21.7603   44.4949 H   0  0  0  0  0  0  0  0  0  0  0  0
   57.9545   24.0203   43.4462 H   0  0  0  0  0  0  0  0  0  0  0  0
   56.7310   26.4740   43.8370 H   0  0  0  0  0  0  0  0  0  0  0  0
   56.6483   28.2752   42.9847 H   0  0  0  0  0  0  0  0  0  0  0  0
   56.1250   30.6368   42.3930 H   0  0  0  0  0  0  0  0  0  0  0  0
   57.1595   32.5085   43.6668 H   0  0  0  0  0  0  0  0  0  0  0  0
   58.9845   34.2911   45.0821 H   0  0  0  0  0  0  0  0  0  0  0  0
   57.3271   33.5886   45.1952 H   0  0  0  0  0  0  0  0  0  0  0  0
   57.9812   35.2985   47.0205 H   0  0  0  0  0  0  0  0  0  0  0  0
   57.3196   33.7259   47.5874 H   0  0  0  0  0  0  0  0  0  0  0  0
   59.3561   35.4217   49.5500 H   0  0  0  0  0  0  0  0  0  0  0  0
   61.6503   34.2251   50.2392 H   0  0  0  0  0  0  0  0  0  0  0  0
   62.6098   31.6652   49.4932 H   0  0  0  0  0  0  0  0  0  0  0  0
   62.4089   31.3657   47.7224 H   0  0  0  0  0  0  0  0  0  0  0  0
   63.6043   33.9951   48.5543 H   0  0  0  0  0  0  0  0  0  0  0  0
   64.6175   32.5140   48.7462 H   0  0  0  0  0  0  0  0  0  0  0  0
   64.8690   32.4280   46.7120 H   0  0  0  0  0  0  0  0  0  0  0  0
   61.0036   32.3267   45.6578 H   0  0  0  0  0  0  0  0  0  0  0  0
   60.2925   31.0351   46.6912 H   0  0  0  0  0  0  0  0  0  0  0  0
   59.2854   29.6540   46.1332 H   0  0  0  0  0  0  0  0  0  0  0  0
   56.7926   25.7659   47.2342 H   0  0  0  0  0  0  0  0  0  0  0  0
   56.8176   23.5067   48.2807 H   0  0  0  0  0  0  0  0  0  0  0  0
  1  2  1  0
  2  3  1  0
  3  4  1  0
  4  5  2  0
  5  6  1  0
  6  7  2  0
  7  8  1  0
  8  9  1  0
  9 10  2  0
  9 11  1  0
 11 12  2  0
 12 13  1  0
 13 14  2  0
 14 15  1  0
 15 16  1  0
 16 17  1  0
 17 18  1  0
 18 19  1  0
 19 20  1  0
 20 21  2  0
 21 22  1  0
 22 23  1  0
 23 24  1  0
 24 25  1  0
 22 26  1  0
 26 27  1  0
 15 28  2  0
  7 29  1  0
 29 30  2  0
 30  4  1  0
 28 11  1  0
 27 16  1  0
 26 19  2  0
  1 31  1  0
  1 32  1  0
  1 33  1  0
  2 34  1  0
  2 35  1  0
  5 36  1  0
  6 37  1  0
  8 38  1  0
 12 39  1  0
 13 40  1  0
 14 41  1  0
 17 42  1  0
 17 43  1  0
 18 44  1  0
 18 45  1  0
 20 46  1  0
 21 47  1  0
 23 48  1  0
 23 49  1  0
 24 50  1  0
 24 51  1  0
 25 52  1  0
 27 53  1  0
 27 54  1  0
 28 55  1  0
 29 56  1  0
 30 57  1  0
M  END
>  <UniqueID>  (75) 
70

>  <SMILES>  (75) 
CCOc1ccc(NC(=O)c2cccc(N3CCc4ccn(CCO)c4C3)c2)cc1

>  <Energy>  (75) 
92.62632261309209

>  <Genealogy>  (75) 
CCOc1ccc(NC(=O)c2cccc(N3CCc4ccn(CCO)c4C3)c2)cc1 (3D coordinates assigned)
CCOc1ccc(NC(=O)c2cccc(N3CCc4ccn(CCO)c4C3)c2)cc1 (nonaromatic ring conformer: 92.62632261309209 kcal/mol)

>  <smiles>  (75) 
CCOc1ccc(NC(=O)c2cccc(N3CCc4ccn(CCO)c4C3)c2)cc1

>  <score_type>  (75) 
oracle

>  <origin>  (75) 
adg

>  <m_score__min__energy>  (75) 
-8.3699999999999992

>  <m_primary>  (75) 
energy

$$$$
75:0
     RDKit          3D

 83 86  0  0  0  0  0  0  0  0999 V2000
   63.3030   33.8370   46.4540 C   0  0  0  0  0  0  0  0  0  0  0  0
   63.7290   33.3480   47.8460 C   0  0  0  0  0  0  0  0  0  0  0  0
   63.0250   34.1790   48.9280 C   0  0  0  0  0  0  0  0  0  0  0  0
   63.4210   31.8460   48.0520 C   0  0  0  0  0  0  0  0  0  0  0  0
   62.2520   31.5730   49.0100 C   0  0  0  0  0  0  0  0  0  0  0  0
   60.9780   31.9980   48.4310 N   0  0  0  0  0  0  0  0  0  0  0  0
   60.5570   31.5920   47.1180 C   0  0  0  0  0  0  0  0  0  0  0  0
   61.1930   30.6870   46.5130 O   0  0  0  0  0  0  0  0  0  0  0  0
   59.3730   32.2070   46.4720 C   0  0  0  0  0  0  0  0  0  0  0  0
   59.1530   33.5940   46.5310 C   0  0  0  0  0  0  0  0  0  0  0  0
   58.0240   34.1570   45.9320 C   0  0  0  0  0  0  0  0  0  0  0  0
   57.1120   33.3500   45.2500 C   0  0  0  0  0  0  0  0  0  0  0  0
   57.3320   31.9660   45.1490 C   0  0  0  0  0  0  0  0  0  0  0  0
   56.3990   31.0950   44.4940 N   0  0  0  0  0  0  0  0  0  0  0  0
   56.4080   29.6620   44.5220 C   0  0  0  0  0  0  0  0  0  0  0  0
   55.5880   29.0260   45.2380 O   0  0  0  0  0  0  0  0  0  0  0  0
   57.3990   28.9140   43.6880 C   0  0  0  0  0  0  0  0  0  0  0  0
   58.3100   28.1130   44.5770 C   0  0  0  0  0  0  0  0  0  0  0  0
   59.5090   28.6690   45.0500 C   0  0  0  0  0  0  0  0  0  0  0  0
   60.3140   27.9510   45.9410 C   0  0  0  0  0  0  0  0  0  0  0  0
   59.9290   26.6760   46.3660 C   0  0  0  0  0  0  0  0  0  0  0  0
   58.7460   26.0990   45.8790 C   0  0  0  0  0  0  0  0  0  0  0  0
   58.2900   24.8250   46.3480 N   0  0  0  0  0  0  0  0  0  0  0  0
   58.4430   23.5620   45.6870 C   0  0  0  0  0  0  0  0  0  0  0  0
   59.6020   23.0710   45.6130 O   0  0  0  0  0  0  0  0  0  0  0  0
   57.2390   22.7650   45.2090 C   0  0  0  0  0  0  0  0  0  0  0  0
   56.4480   22.1390   46.3870 C   0  0  0  0  0  0  0  0  0  0  0  0
   55.0170   21.7760   45.9830 C   0  0  0  0  0  0  0  0  0  0  0  0
   54.2950   22.9670   45.5000 N   0  0  0  0  0  0  0  0  0  0  0  0
   52.8600   23.0750   45.6340 C   0  0  0  0  0  0  0  0  0  0  0  0
   52.3030   24.1950   45.4600 O   0  0  0  0  0  0  0  0  0  0  0  0
   52.0190   21.8880   46.0470 C   0  0  0  0  0  0  0  0  0  0  0  0
   50.7960   22.2890   46.8860 C   0  0  0  0  0  0  0  0  0  0  0  0
   51.1850   22.4720   48.3290 C   0  0  0  0  0  0  0  0  0  0  0  0
   52.4940   22.1940   48.7550 C   0  0  0  0  0  0  0  0  0  0  0  0
   52.8600   22.4000   50.0900 C   0  0  0  0  0  0  0  0  0  0  0  0
   51.9250   22.8920   51.0050 C   0  0  0  0  0  0  0  0  0  0  0  0
   52.2800   23.0940   52.2980 F   0  0  0  0  0  0  0  0  0  0  0  0
   50.6230   23.1810   50.5860 C   0  0  0  0  0  0  0  0  0  0  0  0
   50.2540   22.9780   49.2540 C   0  0  0  0  0  0  0  0  0  0  0  0
   55.0560   24.1030   44.9510 C   0  0  0  0  0  0  0  0  0  0  0  0
   56.3440   23.6210   44.2740 C   0  0  0  0  0  0  0  0  0  0  0  0
   57.9290   26.8310   45.0080 C   0  0  0  0  0  0  0  0  0  0  0  0
   58.4530   31.4020   45.7730 C   0  0  0  0  0  0  0  0  0  0  0  0
   62.5838   34.6626   46.5596 H   0  0  0  0  0  0  0  0  0  0  0  0
   64.1872   34.1893   45.9026 H   0  0  0  0  0  0  0  0  0  0  0  0
   62.8328   33.0094   45.9026 H   0  0  0  0  0  0  0  0  0  0  0  0
   64.8184   33.4775   47.9258 H   0  0  0  0  0  0  0  0  0  0  0  0
   63.3293   33.8198   49.9222 H   0  0  0  0  0  0  0  0  0  0  0  0
   63.3059   35.2369   48.8186 H   0  0  0  0  0  0  0  0  0  0  0  0
   61.9353   34.0758   48.8186 H   0  0  0  0  0  0  0  0  0  0  0  0
   63.1766   31.4059   47.0740 H   0  0  0  0  0  0  0  0  0  0  0  0
   64.3164   31.3973   48.5070 H   0  0  0  0  0  0  0  0  0  0  0  0
   62.2070   30.4945   49.2217 H   0  0  0  0  0  0  0  0  0  0  0  0
   62.4206   32.1452   49.9342 H   0  0  0  0  0  0  0  0  0  0  0  0
   60.3290   32.5460   49.0380 H   0  0  0  0  0  0  0  0  0  0  0  0
   59.8747   34.2401   47.0523 H   0  0  0  0  0  0  0  0  0  0  0  0
   57.8527   35.2416   45.9980 H   0  0  0  0  0  0  0  0  0  0  0  0
   56.2189   33.7986   44.7905 H   0  0  0  0  0  0  0  0  0  0  0  0
   56.8648   28.2358   43.0063 H   0  0  0  0  0  0  0  0  0  0  0  0
   57.9971   29.6296   43.1048 H   0  0  0  0  0  0  0  0  0  0  0  0
   59.8165   29.6720   44.7192 H   0  0  0  0  0  0  0  0  0  0  0  0
   61.2528   28.3911   46.3083 H   0  0  0  0  0  0  0  0  0  0  0  0
   60.5543   26.1242   47.0833 H   0  0  0  0  0  0  0  0  0  0  0  0
   57.6112   21.9175   44.6146 H   0  0  0  0  0  0  0  0  0  0  0  0
   56.9662   21.2272   46.7189 H   0  0  0  0  0  0  0  0  0  0  0  0
   56.3962   22.8819   47.1965 H   0  0  0  0  0  0  0  0  0  0  0  0
   55.0478   21.0227   45.1820 H   0  0  0  0  0  0  0  0  0  0  0  0
   54.4914   21.3758   46.8626 H   0  0  0  0  0  0  0  0  0  0  0  0
   51.6696   21.3721   45.1404 H   0  0  0  0  0  0  0  0  0  0  0  0
   52.6490   21.2360   46.6699 H   0  0  0  0  0  0  0  0  0  0  0  0
   50.3851   23.2332   46.4991 H   0  0  0  0  0  0  0  0  0  0  0  0
   50.0410   21.4918   46.8189 H   0  0  0  0  0  0  0  0  0  0  0  0
   53.2346   21.8128   48.0365 H   0  0  0  0  0  0  0  0  0  0  0  0
   53.8849   22.1744   50.4196 H   0  0  0  0  0  0  0  0  0  0  0  0
   49.8878   23.5689   51.3064 H   0  0  0  0  0  0  0  0  0  0  0  0
   49.2308   23.2149   48.9271 H   0  0  0  0  0  0  0  0  0  0  0  0
   54.4349   24.6288   44.2109 H   0  0  0  0  0  0  0  0  0  0  0  0
   55.3240   24.7789   45.7765 H   0  0  0  0  0  0  0  0  0  0  0  0
   56.0729   23.0146   43.3972 H   0  0  0  0  0  0  0  0  0  0  0  0
   56.9217   24.5142   43.9941 H   0  0  0  0  0  0  0  0  0  0  0  0
   56.9802   26.3982   44.6581 H   0  0  0  0  0  0  0  0  0  0  0  0
   58.6164   30.3157   45.7160 H   0  0  0  0  0  0  0  0  0  0  0  0
  1  2  1  0
  2  3  1  0
  2  4  1  0
  4  5  1  0
  5  6  1  0
  6  7  1  0
  7  8  2  0
  7  9  1  0
  9 10  2  0
 10 11  1  0
 11 12  2  0
 12 13  1  0
 13 14  1  0
 14 15  1  0
 15 16  2  0
 15 17  1  0
 17 18  1  0
 18 19  2  0
 19 20  1  0
 20 21  2  0
 21 22  1  0
 22 23  1  0
 23 24  1  0
 24 25  2  0
 24 26  1  0
 26 27  1  0
 27 28  1  0
 28 29  1  0
 29 30  1  0
 30 31  2  0
 30 32  1  0
 32 33  1  0
 33 34  1  0
 34 35  2  0
 35 36  1  0
 36 37  2  0
 37 38  1  0
 37 39  1  0
 39 40  2  0
 29 41  1  0
 41 42  1  0
 22 43  2  0
 13 44  2  0
 44  9  1  0
 43 18  1  0
 42 26  1  0
 40 34  1  0
  1 45  1  0
  1 46  1  0
  1 47  1  0
  2 48  1  0
  3 49  1  0
  3 50  1  0
  3 51  1  0
  4 52  1  0
  4 53  1  0
  5 54  1  0
  5 55  1  0
  6 56  1  0
 10 57  1  0
 11 58  1  0
 12 59  1  0
 17 60  1  0
 17 61  1  0
 19 62  1  0
 20 63  1  0
 21 64  1  0
 26 65  1  0
 27 66  1  0
 27 67  1  0
 28 68  1  0
 28 69  1  0
 32 70  1  0
 32 71  1  0
 33 72  1  0
 33 73  1  0
 35 74  1  0
 36 75  1  0
 39 76  1  0
 40 77  1  0
 41 78  1  0
 41 79  1  0
 42 80  1  0
 42 81  1  0
 43 82  1  0
 44 83  1  0
M  CHG  2  14  -1  23  -1
M  END
>  <UniqueID>  (76) 
71

>  <SMILES>  (76) 
CC(C)CCNC(=O)c1cccc([N-]C(=O)Cc2cccc([N-]C(=O)C3CCN(C(=O)CCc4ccc(F)cc4)CC3)c2)c1

>  <Energy>  (76) 
88.4053035185229

>  <Genealogy>  (76) 
CC(C)CCNC(=O)c1cccc([N-]C(=O)Cc2cccc([N-]C(=O)C3CCN(C(=O)CCc4ccc(F)cc4)CC3)c2)c1 (protonated)
CC(C)CCNC(=O)c1cccc([N-]C(=O)Cc2cccc([N-]C(=O)C3CCN(C(=O)CCc4ccc(F)cc4)CC3)c2)c1 (3D coordinates assigned)
CC(C)CCNC(=O)c1cccc([N-]C(=O)Cc2cccc([N-]C(=O)C3CCN(C(=O)CCc4ccc(F)cc4)CC3)c2)c1 (nonaromatic ring conformer: 88.4053035185229 kcal/mol)

>  <smiles>  (76) 
CC(C)CCNC(=O)c1cccc(NC(=O)Cc2cccc(NC(=O)C3CCN(C(=O)CCc4ccc(F)cc4)CC3)c2)c1

>  <score_type>  (76) 
oracle

>  <origin>  (76) 
adg

>  <m_score__min__energy>  (76) 
-12.81

>  <m_primary>  (76) 
energy

$$$$
76:0
     RDKit          3D

 51 53  0  0  1  0  0  0  0  0999 V2000
   60.9400   26.7010   50.4500 C   0  0  0  0  0  0  0  0  0  0  0  0
   60.6980   27.7330   49.4300 N   0  0  0  0  0  0  0  0  0  0  0  0
   60.0100   28.8840   49.8600 C   0  0  0  0  0  0  0  0  0  0  0  0
   59.6680   28.9140   51.0970 O   0  0  0  0  0  0  0  0  0  0  0  0
   59.6510   30.0260   49.0740 C   0  0  0  0  0  0  0  0  0  0  0  0
   58.8490   31.0000   49.6920 C   0  0  0  0  0  0  0  0  0  0  0  0
   58.4310   32.0900   49.0250 N   0  0  0  0  0  0  0  0  0  0  0  0
   58.8170   32.1990   47.7490 C   0  0  0  0  0  0  0  0  0  0  0  0
   58.4320   33.1790   47.0650 N   0  0  0  0  0  0  0  0  0  0  0  0
   58.9850   34.4940   46.9290 C   0  0  0  0  0  0  0  0  0  0  0  0
   60.4430   34.2680   47.3120 C   0  0  0  0  0  0  0  0  0  0  0  0
   61.3720   33.8540   46.3900 C   0  0  0  0  0  0  0  0  0  0  0  0
   62.6470   33.6080   46.8700 C   0  0  0  0  0  0  0  0  0  0  0  0
   62.9460   33.7810   48.2260 C   0  0  0  0  0  0  0  0  0  0  0  0
   61.9930   34.1980   49.1210 C   0  0  0  0  0  0  0  0  0  0  0  0
   60.7150   34.4470   48.6560 C   0  0  0  0  0  0  0  0  0  0  0  0
   59.5940   31.2720   47.1260 N   0  0  0  0  0  0  0  0  0  0  0  0
   60.0280   30.1760   47.7620 C   0  0  0  0  0  0  0  0  0  0  0  0
   60.7780   29.3180   47.1230 N   0  0  0  0  0  0  0  0  0  0  0  0
   60.3630   28.8360   45.8290 C   0  0  0  0  0  0  0  0  0  0  0  0
   58.9940   28.2630   45.8760 C   0  0  0  0  0  0  0  0  0  0  0  0
   57.9080   28.8110   45.2290 C   0  0  0  0  0  0  0  0  0  0  0  0
   56.6540   28.2260   45.2470 C   0  0  0  0  0  0  0  0  0  0  0  0
   56.5020   27.0370   45.9520 C   0  0  0  0  0  0  0  0  0  0  0  0
   55.2360   26.4720   45.9510 O   0  0  0  0  0  0  0  0  0  0  0  0
   54.9620   25.1310   45.6150 C   0  0  0  0  0  0  0  0  0  0  0  0
   57.5680   26.4450   46.6240 C   0  0  0  0  0  0  0  0  0  0  0  0
   58.7990   27.0630   46.5800 C   0  0  0  0  0  0  0  0  0  0  0  0
   60.8361   27.1439   51.4515 H   0  0  0  0  0  0  0  0  0  0  0  0
   60.2080   25.8887   50.3306 H   0  0  0  0  0  0  0  0  0  0  0  0
   61.9568   26.2988   50.3306 H   0  0  0  0  0  0  0  0  0  0  0  0
   60.9920   27.6640   48.4580 H   0  0  0  0  0  0  0  0  0  0  0  0
   58.5568   30.8680   50.7442 H   0  0  0  0  0  0  0  0  0  0  0  0
   57.8460   32.8440   49.4150 H   0  0  0  0  0  0  0  0  0  0  0  0
   58.8957   34.8598   45.8955 H   0  0  0  0  0  0  0  0  0  0  0  0
   58.4784   35.2530   47.5432 H   0  0  0  0  0  0  0  0  0  0  0  0
   61.1172   33.7248   45.3277 H   0  0  0  0  0  0  0  0  0  0  0  0
   63.4336   33.2729   46.1779 H   0  0  0  0  0  0  0  0  0  0  0  0
   63.9668   33.5784   48.5822 H   0  0  0  0  0  0  0  0  0  0  0  0
   62.2403   34.3312   50.1845 H   0  0  0  0  0  0  0  0  0  0  0  0
   59.9260   34.7826   49.3451 H   0  0  0  0  0  0  0  0  0  0  0  0
   59.8100   31.4780   46.1270 H   0  0  0  0  0  0  0  0  0  0  0  0
   60.3762   29.6725   45.1147 H   0  0  0  0  0  0  0  0  0  0  0  0
   61.0587   28.0434   45.5162 H   0  0  0  0  0  0  0  0  0  0  0  0
   58.0433   29.7519   44.6755 H   0  0  0  0  0  0  0  0  0  0  0  0
   55.8050   28.6866   44.7207 H   0  0  0  0  0  0  0  0  0  0  0  0
   54.8412   24.5399   46.5348 H   0  0  0  0  0  0  0  0  0  0  0  0
   54.0355   25.0830   45.0240 H   0  0  0  0  0  0  0  0  0  0  0  0
   55.7954   24.7234   45.0240 H   0  0  0  0  0  0  0  0  0  0  0  0
   57.4307   25.5046   47.1779 H   0  0  0  0  0  0  0  0  0  0  0  0
   59.6487   26.6060   47.1084 H   0  0  0  0  0  0  0  0  0  0  0  0
  1  2  1  0
  2  3  1  0
  3  4  2  0
  3  5  1  0
  5  6  2  0
  6  7  1  0
  7  8  1  0
  8  9  2  0
  9 10  1  0
 10 11  1  0
 11 12  2  0
 12 13  1  0
 13 14  2  0
 14 15  1  0
 15 16  2  0
  8 17  1  0
 17 18  1  0
 18 19  2  0
 19 20  1  0
 20 21  1  0
 21 22  2  0
 22 23  1  0
 23 24  2  0
 24 25  1  0
 25 26  1  0
 24 27  1  0
 27 28  2  0
 18  5  1  0
 28 21  1  0
 16 11  1  0
  1 29  1  0
  1 30  1  0
  1 31  1  0
  2 32  1  0
  6 33  1  0
  7 34  1  0
 10 35  1  0
 10 36  1  0
 12 37  1  0
 13 38  1  0
 14 39  1  0
 15 40  1  0
 16 41  1  0
 17 42  1  0
 20 43  1  0
 20 44  1  0
 22 45  1  0
 23 46  1  0
 26 47  1  0
 26 48  1  0
 26 49  1  0
 27 50  1  0
 28 51  1  0
M  END
>  <smiles>  (77) 
CNC(=O)c1c[nH]c(=NCc2ccccc2)[nH]c1=NCc1ccc(OC)cc1

>  <score_type>  (77) 
oracle

>  <origin>  (77) 
adg

>  <m_score__min__energy>  (77) 
-7.8899999999999997

>  <m_primary>  (77) 
energy

$$$$
77:0
     RDKit          3D

 69 72  0  0  0  0  0  0  0  0999 V2000
   58.8070   31.8500   50.3610 C   0  0  0  0  0  0  0  0  0  0  0  0
   58.8950   33.2530   50.1450 O   0  0  0  0  0  0  0  0  0  0  0  0
   59.7650   33.8210   49.2070 C   0  0  0  0  0  0  0  0  0  0  0  0
   60.9120   34.2110   49.5640 O   0  0  0  0  0  0  0  0  0  0  0  0
   59.3400   33.9560   47.7960 C   0  0  0  0  0  0  0  0  0  0  0  0
   59.9940   34.8510   46.9320 C   0  0  0  0  0  0  0  0  0  0  0  0
   59.5950   34.9640   45.5970 C   0  0  0  0  0  0  0  0  0  0  0  0
   58.5430   34.1850   45.1090 C   0  0  0  0  0  0  0  0  0  0  0  0
   57.8880   33.2790   45.9580 C   0  0  0  0  0  0  0  0  0  0  0  0
   56.7890   32.4800   45.5030 N   0  0  0  0  0  0  0  0  0  0  0  0
   56.8440   31.4590   44.4990 C   0  0  0  0  0  0  0  0  0  0  0  0
   57.7760   31.4430   43.6520 O   0  0  0  0  0  0  0  0  0  0  0  0
   55.8690   30.4120   44.4830 N   0  0  0  0  0  0  0  0  0  0  0  0
   56.2020   29.0000   44.6390 C   0  0  0  0  0  0  0  0  0  0  0  0
   57.3690   28.6080   43.7220 C   0  0  0  0  0  0  0  0  0  0  0  0
   58.3570   27.6670   44.4240 C   0  0  0  0  0  0  0  0  0  0  0  0
   57.6670   26.7920   45.3850 N   0  0  0  0  0  0  0  0  0  0  0  0
   57.4640   27.2450   46.7670 C   0  0  0  0  0  0  0  0  0  0  0  0
   58.5820   28.1650   47.1700 C   0  0  0  0  0  0  0  0  0  0  0  0
   58.5240   29.5310   46.8600 C   0  0  0  0  0  0  0  0  0  0  0  0
   59.5440   30.3920   47.2730 C   0  0  0  0  0  0  0  0  0  0  0  0
   60.6350   29.9040   48.0150 C   0  0  0  0  0  0  0  0  0  0  0  0
   61.7200   30.8190   48.4520 C   0  0  0  0  0  0  0  0  0  0  0  0
   62.1400   30.8430   49.7940 C   0  0  0  0  0  0  0  0  0  0  0  0
   63.1650   31.7020   50.2010 C   0  0  0  0  0  0  0  0  0  0  0  0
   63.7810   32.5580   49.2780 C   0  0  0  0  0  0  0  0  0  0  0  0
   64.9110   33.4460   49.7070 C   0  0  0  0  0  0  0  0  0  0  0  0
   63.3780   32.5260   47.9360 C   0  0  0  0  0  0  0  0  0  0  0  0
   62.3520   31.6700   47.5260 C   0  0  0  0  0  0  0  0  0  0  0  0
   60.6810   28.5360   48.3360 C   0  0  0  0  0  0  0  0  0  0  0  0
   59.6610   27.6750   47.9210 C   0  0  0  0  0  0  0  0  0  0  0  0
   57.0860   25.5470   44.9570 C   0  0  0  0  0  0  0  0  0  0  0  0
   56.2460   24.8170   45.8140 C   0  0  0  0  0  0  0  0  0  0  0  0
   55.7190   23.5880   45.4060 C   0  0  0  0  0  0  0  0  0  0  0  0
   56.0280   23.0780   44.1410 C   0  0  0  0  0  0  0  0  0  0  0  0
   55.5230   21.8450   43.7460 O   0  0  0  0  0  0  0  0  0  0  0  0
   56.8490   23.8050   43.2770 C   0  0  0  0  0  0  0  0  0  0  0  0
   57.3770   25.0340   43.6820 C   0  0  0  0  0  0  0  0  0  0  0  0
   58.2780   33.1810   47.2990 C   0  0  0  0  0  0  0  0  0  0  0  0
   58.7942   31.6455   51.4417 H   0  0  0  0  0  0  0  0  0  0  0  0
   57.8830   31.4659   49.9042 H   0  0  0  0  0  0  0  0  0  0  0  0
   59.6758   31.3535   49.9042 H   0  0  0  0  0  0  0  0  0  0  0  0
   60.8246   35.4661   47.3084 H   0  0  0  0  0  0  0  0  0  0  0  0
   60.1111   35.6687   44.9285 H   0  0  0  0  0  0  0  0  0  0  0  0
   58.2279   34.2816   44.0595 H   0  0  0  0  0  0  0  0  0  0  0  0
   56.4861   28.8103   45.6846 H   0  0  0  0  0  0  0  0  0  0  0  0
   55.3224   28.3990   44.3649 H   0  0  0  0  0  0  0  0  0  0  0  0
   56.9673   28.1020   42.8317 H   0  0  0  0  0  0  0  0  0  0  0  0
   57.9093   29.5257   43.4465 H   0  0  0  0  0  0  0  0  0  0  0  0
   58.8587   27.0448   43.6682 H   0  0  0  0  0  0  0  0  0  0  0  0
   59.0897   28.2773   44.9723 H   0  0  0  0  0  0  0  0  0  0  0  0
   56.5061   27.7809   46.8387 H   0  0  0  0  0  0  0  0  0  0  0  0
   57.4516   26.3728   47.4372 H   0  0  0  0  0  0  0  0  0  0  0  0
   57.6713   29.9269   46.2888 H   0  0  0  0  0  0  0  0  0  0  0  0
   59.4935   31.4603   47.0158 H   0  0  0  0  0  0  0  0  0  0  0  0
   61.6584   30.1810   50.5287 H   0  0  0  0  0  0  0  0  0  0  0  0
   63.4900   31.7061   51.2519 H   0  0  0  0  0  0  0  0  0  0  0  0
   64.9540   33.4798   50.8056 H   0  0  0  0  0  0  0  0  0  0  0  0
   65.8588   33.0486   49.3150 H   0  0  0  0  0  0  0  0  0  0  0  0
   64.7489   34.4609   49.3150 H   0  0  0  0  0  0  0  0  0  0  0  0
   63.8721   33.1785   47.2011 H   0  0  0  0  0  0  0  0  0  0  0  0
   62.0363   31.6613   46.4723 H   0  0  0  0  0  0  0  0  0  0  0  0
   61.5262   28.1402   48.9182 H   0  0  0  0  0  0  0  0  0  0  0  0
   59.7045   26.6079   48.1846 H   0  0  0  0  0  0  0  0  0  0  0  0
   56.0018   25.2140   46.8104 H   0  0  0  0  0  0  0  0  0  0  0  0
   55.0605   23.0215   46.0808 H   0  0  0  0  0  0  0  0  0  0  0  0
   57.0805   23.4102   42.2767 H   0  0  0  0  0  0  0  0  0  0  0  0
   58.0242   25.6030   42.9984 H   0  0  0  0  0  0  0  0  0  0  0  0
   57.7476   32.4901   47.9708 H   0  0  0  0  0  0  0  0  0  0  0  0
  1  2  1  0
  2  3  1  0
  3  4  2  0
  3  5  1  0
  5  6  2  0
  6  7  1  0
  7  8  2  0
  8  9  1  0
  9 10  1  0
 10 11  1  0
 11 12  2  0
 11 13  1  0
 13 14  1  0
 14 15  1  0
 15 16  1  0
 16 17  1  0
 17 18  1  0
 18 19  1  0
 19 20  2  0
 20 21  1  0
 21 22  2  0
 22 23  1  0
 23 24  2  0
 24 25  1  0
 25 26  2  0
 26 27  1  0
 26 28  1  0
 28 29  2  0
 22 30  1  0
 30 31  2  0
 17 32  1  0
 32 33  2  0
 33 34  1  0
 34 35  2  0
 35 36  1  0
 35 37  1  0
 37 38  2  0
  9 39  2  0
 39  5  1  0
 31 19  1  0
 38 32  1  0
 29 23  1  0
  1 40  1  0
  1 41  1  0
  1 42  1  0
  6 43  1  0
  7 44  1  0
  8 45  1  0
 14 46  1  0
 14 47  1  0
 15 48  1  0
 15 49  1  0
 16 50  1  0
 16 51  1  0
 18 52  1  0
 18 53  1  0
 20 54  1  0
 21 55  1  0
 24 56  1  0
 25 57  1  0
 27 58  1  0
 27 59  1  0
 27 60  1  0
 28 61  1  0
 29 62  1  0
 30 63  1  0
 31 64  1  0
 33 65  1  0
 34 66  1  0
 37 67  1  0
 38 68  1  0
 39 69  1  0
M  CHG  3  10  -1  13  -1  36  -1
M  END
>  <UniqueID>  (78) 
72

>  <SMILES>  (78) 
COC(=O)c1cccc([N-]C(=O)[N-]CCCN(Cc2ccc(-c3ccc(C)cc3)cc2)c2ccc([O-])cc2)c1

>  <Energy>  (78) 
70.75545121801346

>  <Genealogy>  (78) 
COC(=O)c1cccc([N-]C(=O)[N-]CCCN(Cc2ccc(-c3ccc(C)cc3)cc2)c2ccc([O-])cc2)c1 (protonated)
COC(=O)c1cccc([N-]C(=O)[N-]CCCN(Cc2ccc(-c3ccc(C)cc3)cc2)c2ccc([O-])cc2)c1 (3D coordinates assigned)
COC(=O)c1cccc([N-]C(=O)[N-]CCCN(Cc2ccc(-c3ccc(C)cc3)cc2)c2ccc([O-])cc2)c1 (optimized conformer: 70.75545121801346 kcal/mol)

>  <smiles>  (78) 
COC(=O)c1cccc(NC(=O)NCCCN(Cc2ccc(-c3ccc(C)cc3)cc2)c2ccc(O)cc2)c1

>  <score_type>  (78) 
oracle

>  <origin>  (78) 
adg

>  <m_score__min__energy>  (78) 
-13.949999999999999

>  <m_primary>  (78) 
energy

$$$$
78:0
     RDKit          3D

 52 55  0  0  0  0  0  0  0  0999 V2000
   54.7670   28.9710   44.8210 H   0  0  0  0  0  0  0  0  0  0  0  0
   55.4570   29.6650   45.1850 N   0  0  0  0  0  0  0  0  0  0  0  0
   56.8340   29.5850   44.8260 C   0  0  0  0  0  0  0  0  0  0  0  0
   57.1850   28.8510   43.8660 O   0  0  0  0  0  0  0  0  0  0  0  0
   57.8390   30.3050   45.6290 C   0  0  0  0  0  0  0  0  0  0  0  0
   58.2330   31.6050   45.3890 C   0  0  0  0  0  0  0  0  0  0  0  0
   57.9643   32.2001   44.5037 H   0  0  0  0  0  0  0  0  0  0  0  0
   59.0030   32.0310   46.4170 N   0  0  0  0  0  0  0  0  0  0  0  0
   59.5990   33.3750   46.6110 C   0  0  0  0  0  0  0  0  0  0  0  0
   58.7930   34.4100   45.7870 C   0  0  0  0  0  0  0  0  0  0  0  0
   57.8184   34.5674   46.2723 H   0  0  0  0  0  0  0  0  0  0  0  0
   58.6739   34.0115   44.7687 H   0  0  0  0  0  0  0  0  0  0  0  0
   59.4870   35.7040   45.6870 C   0  0  0  0  0  0  0  0  0  0  0  0
   60.0310   36.7220   45.6090 N   0  0  0  0  0  0  0  0  0  0  0  0
   61.1040   33.4160   46.2140 C   0  0  0  0  0  0  0  0  0  0  0  0
   61.2055   33.0559   45.1796 H   0  0  0  0  0  0  0  0  0  0  0  0
   61.4477   34.4558   46.3169 H   0  0  0  0  0  0  0  0  0  0  0  0
   61.9850   32.5380   47.1330 C   0  0  0  0  0  0  0  0  0  0  0  0
   62.4680   31.7584   46.5256 H   0  0  0  0  0  0  0  0  0  0  0  0
   62.7350   33.1854   47.6108 H   0  0  0  0  0  0  0  0  0  0  0  0
   61.1870   31.8910   48.1980 N   0  0  0  0  0  0  0  0  0  0  0  0
   62.0230   31.0240   49.0470 C   0  0  0  0  0  0  0  0  0  0  0  0
   62.6551   30.3869   48.4110 H   0  0  0  0  0  0  0  0  0  0  0  0
   62.6618   31.6461   49.6911 H   0  0  0  0  0  0  0  0  0  0  0  0
   61.1420   30.1630   49.8980 C   0  0  0  0  0  0  0  0  0  0  0  0
   61.6120   29.4600   51.3520 S   0  0  0  0  0  0  0  0  0  0  0  0
   60.0820   28.8430   51.6820 C   0  0  0  0  0  0  0  0  0  0  0  0
   59.8000   28.2483   52.5634 H   0  0  0  0  0  0  0  0  0  0  0  0
   59.2370   29.2180   50.6430 C   0  0  0  0  0  0  0  0  0  0  0  0
   58.1725   28.9421   50.6156 H   0  0  0  0  0  0  0  0  0  0  0  0
   59.8290   29.9520   49.6640 N   0  0  0  0  0  0  0  0  0  0  0  0
   59.3170   30.3240   48.8340 H   0  0  0  0  0  0  0  0  0  0  0  0
   60.4680   32.9030   48.9980 C   0  0  0  0  0  0  0  0  0  0  0  0
   59.8696   32.3919   49.7666 H   0  0  0  0  0  0  0  0  0  0  0  0
   61.2111   33.5698   49.4597 H   0  0  0  0  0  0  0  0  0  0  0  0
   59.5280   33.7600   48.1160 C   0  0  0  0  0  0  0  0  0  0  0  0
   58.4944   33.6217   48.4660 H   0  0  0  0  0  0  0  0  0  0  0  0
   59.8520   34.8073   48.2062 H   0  0  0  0  0  0  0  0  0  0  0  0
   59.0980   31.0620   47.3190 N   0  0  0  0  0  0  0  0  0  0  0  0
   58.4240   29.9950   46.8580 C   0  0  0  0  0  0  0  0  0  0  0  0
   58.4060   28.8660   47.5100 N   0  0  0  0  0  0  0  0  0  0  0  0
   58.5670   27.5440   46.9810 C   0  0  0  0  0  0  0  0  0  0  0  0
   59.8440   26.9740   46.8400 C   0  0  0  0  0  0  0  0  0  0  0  0
   60.7384   27.5616   47.0945 H   0  0  0  0  0  0  0  0  0  0  0  0
   59.9800   25.6620   46.3770 C   0  0  0  0  0  0  0  0  0  0  0  0
   60.9815   25.2263   46.2465 H   0  0  0  0  0  0  0  0  0  0  0  0
   58.8450   24.9040   46.0800 C   0  0  0  0  0  0  0  0  0  0  0  0
   58.9780   23.6300   45.6330 F   0  0  0  0  0  0  0  0  0  0  0  0
   57.5710   25.4530   46.2550 C   0  0  0  0  0  0  0  0  0  0  0  0
   56.6775   24.8530   46.0280 H   0  0  0  0  0  0  0  0  0  0  0  0
   57.4330   26.7660   46.7190 C   0  0  0  0  0  0  0  0  0  0  0  0
   56.4299   27.1883   46.8784 H   0  0  0  0  0  0  0  0  0  0  0  0
  1  2  1  0
  2  3  1  0
  3  4  2  0
  3  5  1  0
  5  6  2  0
  6  7  1  0
  6  8  1  0
  8  9  1  0
  9 10  1  0
 10 11  1  0
 10 12  1  0
 10 13  1  0
 13 14  3  0
  9 15  1  0
 15 16  1  0
 15 17  1  0
 15 18  1  0
 18 19  1  0
 18 20  1  0
 18 21  1  0
 21 22  1  0
 22 23  1  0
 22 24  1  0
 22 25  1  0
 25 26  1  0
 26 27  1  0
 27 28  1  0
 27 29  2  0
 29 30  1  0
 29 31  1  0
 31 32  1  0
 21 33  1  0
 33 34  1  0
 33 35  1  0
 33 36  1  0
 36 37  1  0
 36 38  1  0
  8 39  1  0
 39 40  1  0
 40 41  2  0
 41 42  1  0
 42 43  2  0
 43 44  1  0
 43 45  1  0
 45 46  1  0
 45 47  2  0
 47 48  1  0
 47 49  1  0
 49 50  1  0
 49 51  2  0
 51 52  1  0
 40  5  1  0
 51 42  1  0
 36  9  1  0
 31 25  2  0
M  CHG  3   2  -1  31   1  39  -1
M  END
>  <UniqueID>  (79) 
73

>  <SMILES>  (79) 
N#CCC1(n2cc(C([NH-])=O)/c(=N\c3ccc(F)cc3)[n-]2)CCN(Cc2[nH+]ccs2)CC1

>  <Energy>  (79) 
133.06668993842868

>  <Genealogy>  (79) 
N#CCC1(n2cc(C([NH-])=O)c(=Nc3ccc(F)cc3)[n-]2)CCN(Cc2[nH+]ccs2)CC1 (protonated)
N#CCC1(n2cc(C([NH-])=O)/c(=N\c3ccc(F)cc3)[n-]2)CCN(Cc2[nH+]ccs2)CC1 (cis-trans isomerization)
N#CCC1(n2cc(C([NH-])=O)/c(=N\c3ccc(F)cc3)[n-]2)CCN(Cc2[nH+]ccs2)CC1 (3D coordinates assigned)
N#CCC1(n2cc(C([NH-])=O)/c(=N\c3ccc(F)cc3)[n-]2)CCN(Cc2[nH+]ccs2)CC1 (nonaromatic ring conformer: 133.06668993842868 kcal/mol)

>  <smiles>  (79) 
N#CCC1(n2cc(C(N)=O)c(=Nc3ccc(F)cc3)[nH]2)CCN(Cc2nccs2)CC1

>  <score_type>  (79) 
oracle

>  <origin>  (79) 
adg

>  <m_score__min__energy>  (79) 
-10.109999999999999

>  <m_primary>  (79) 
energy

$$$$
79:0
     RDKit          3D

 43 46  0  0  0  0  0  0  0  0999 V2000
   54.5130   24.5370   46.0180 O   0  0  0  0  0  0  0  0  0  0  0  0
   55.4960   25.3160   46.1060 C   0  0  0  0  0  0  0  0  0  0  0  0
   56.7320   24.8890   46.4680 N   0  0  0  0  0  0  0  0  0  0  0  0
   57.4430   26.0250   46.4280 C   0  0  0  0  0  0  0  0  0  0  0  0
   58.7930   26.1950   46.7160 C   0  0  0  0  0  0  0  0  0  0  0  0
   59.3280   27.4910   46.6080 C   0  0  0  0  0  0  0  0  0  0  0  0
   58.5140   28.5860   46.2140 C   0  0  0  0  0  0  0  0  0  0  0  0
   59.1050   29.8940   46.1120 N   0  0  0  0  0  0  0  0  0  0  0  0
   58.7740   30.8720   45.0740 C   0  0  0  0  0  0  0  0  0  0  0  0
   58.9370   32.2810   45.5920 C   0  0  0  0  0  0  0  0  0  0  0  0
   57.9810   33.2590   45.2680 C   0  0  0  0  0  0  0  0  0  0  0  0
   58.1170   34.5660   45.7410 C   0  0  0  0  0  0  0  0  0  0  0  0
   59.2040   34.9080   46.5460 C   0  0  0  0  0  0  0  0  0  0  0  0
   60.1560   33.9440   46.8850 C   0  0  0  0  0  0  0  0  0  0  0  0
   60.0300   32.6200   46.4190 C   0  0  0  0  0  0  0  0  0  0  0  0
   60.9620   31.6210   46.7510 O   0  0  0  0  0  0  0  0  0  0  0  0
   61.4330   31.3300   48.0680 C   0  0  0  0  0  0  0  0  0  0  0  0
   60.2900   31.2870   49.0460 C   0  0  0  0  0  0  0  0  0  0  0  0
   59.9110   32.4500   49.7370 C   0  0  0  0  0  0  0  0  0  0  0  0
   58.8450   32.4160   50.6410 C   0  0  0  0  0  0  0  0  0  0  0  0
   58.1460   31.2250   50.8570 C   0  0  0  0  0  0  0  0  0  0  0  0
   56.8090   31.1840   51.9920 Cl  0  0  0  0  0  0  0  0  0  0  0  0
   58.5100   30.0660   50.1630 C   0  0  0  0  0  0  0  0  0  0  0  0
   59.5750   30.0960   49.2570 C   0  0  0  0  0  0  0  0  0  0  0  0
   57.1410   28.3650   45.9410 C   0  0  0  0  0  0  0  0  0  0  0  0
   56.6500   27.0670   46.0580 C   0  0  0  0  0  0  0  0  0  0  0  0
   55.3950   26.6450   45.8440 N   0  0  0  0  0  0  0  0  0  0  0  0
   59.4212   25.3441   47.0182 H   0  0  0  0  0  0  0  0  0  0  0  0
   60.3918   27.6590   46.8318 H   0  0  0  0  0  0  0  0  0  0  0  0
   59.8650   30.1510   46.7830 H   0  0  0  0  0  0  0  0  0  0  0  0
   59.4431   30.7247   44.2134 H   0  0  0  0  0  0  0  0  0  0  0  0
   57.7258   30.7261   44.7740 H   0  0  0  0  0  0  0  0  0  0  0  0
   57.1197   32.9932   44.6375 H   0  0  0  0  0  0  0  0  0  0  0  0
   57.3666   35.3263   45.4787 H   0  0  0  0  0  0  0  0  0  0  0  0
   59.3114   35.9389   46.9144 H   0  0  0  0  0  0  0  0  0  0  0  0
   61.0104   34.2202   47.5204 H   0  0  0  0  0  0  0  0  0  0  0  0
   61.9400   30.3538   48.0624 H   0  0  0  0  0  0  0  0  0  0  0  0
   62.1315   32.1219   48.3761 H   0  0  0  0  0  0  0  0  0  0  0  0
   60.4549   33.3907   49.5662 H   0  0  0  0  0  0  0  0  0  0  0  0
   58.5558   33.3283   51.1833 H   0  0  0  0  0  0  0  0  0  0  0  0
   57.9576   29.1296   50.3302 H   0  0  0  0  0  0  0  0  0  0  0  0
   59.8537   29.1845   48.7080 H   0  0  0  0  0  0  0  0  0  0  0  0
   56.4821   29.1947   45.6452 H   0  0  0  0  0  0  0  0  0  0  0  0
  1  2  2  0
  2  3  1  0
  3  4  1  0
  4  5  2  0
  5  6  1  0
  6  7  2  0
  7  8  1  0
  8  9  1  0
  9 10  1  0
 10 11  2  0
 11 12  1  0
 12 13  2  0
 13 14  1  0
 14 15  2  0
 15 16  1  0
 16 17  1  0
 17 18  1  0
 18 19  2  0
 19 20  1  0
 20 21  2  0
 21 22  1  0
 21 23  1  0
 23 24  2  0
  7 25  1  0
 25 26  2  0
 26 27  1  0
 27  2  1  0
 26  4  1  0
 15 10  1  0
 24 18  1  0
  5 28  1  0
  6 29  1  0
  8 30  1  0
  9 31  1  0
  9 32  1  0
 11 33  1  0
 12 34  1  0
 13 35  1  0
 14 36  1  0
 17 37  1  0
 17 38  1  0
 19 39  1  0
 20 40  1  0
 23 41  1  0
 24 42  1  0
 25 43  1  0
M  CHG  2   3  -1  27  -1
M  END
>  <UniqueID>  (80) 
74

>  <SMILES>  (80) 
O=c1[n-]c2ccc(NCc3ccccc3OCc3ccc(Cl)cc3)cc2[n-]1

>  <Energy>  (80) 
81.89798187933964

>  <Genealogy>  (80) 
O=c1[n-]c2ccc(NCc3ccccc3OCc3ccc(Cl)cc3)cc2[n-]1 (protonated)
O=c1[n-]c2ccc(NCc3ccccc3OCc3ccc(Cl)cc3)cc2[n-]1 (3D coordinates assigned)
O=c1[n-]c2ccc(NCc3ccccc3OCc3ccc(Cl)cc3)cc2[n-]1 (optimized conformer: 81.89798187933964 kcal/mol)

>  <smiles>  (80) 
O=c1[nH]c2ccc(NCc3ccccc3OCc3ccc(Cl)cc3)cc2[nH]1

>  <score_type>  (80) 
oracle

>  <origin>  (80) 
adg

>  <m_score__min__energy>  (80) 
-12.59

>  <m_primary>  (80) 
energy

$$$$
80:0
     RDKit          3D

 28 29  0  0  0  0  0  0  0  0999 V2000
   54.8640   26.3300   45.9800 N   0  0  0  0  0  0  0  0  0  0  0  0
   56.3040   25.4010   46.2020 S   0  0  0  0  0  0  0  0  0  0  0  0
   56.2760   24.7720   47.5660 O   0  0  0  0  0  0  0  0  0  0  0  0
   56.3660   24.3130   45.1670 O   0  0  0  0  0  0  0  0  0  0  0  0
   57.7110   26.4500   46.0350 C   0  0  0  0  0  0  0  0  0  0  0  0
   57.5510   27.8170   45.7630 C   0  0  0  0  0  0  0  0  0  0  0  0
   58.6740   28.6540   45.6300 C   0  0  0  0  0  0  0  0  0  0  0  0
   58.5330   30.0530   45.3300 N   0  0  0  0  0  0  0  0  0  0  0  0
   57.3390   30.6440   44.7950 C   0  0  0  0  0  0  0  0  0  0  0  0
   56.2550   29.9990   44.7760 O   0  0  0  0  0  0  0  0  0  0  0  0
   57.3740   32.0390   44.2520 C   0  0  0  0  0  0  0  0  0  0  0  0
   58.0200   32.9250   45.2130 N   0  0  0  0  0  0  0  0  0  0  0  0
   57.4500   33.8880   45.9550 C   0  0  0  0  0  0  0  0  0  0  0  0
   58.3700   34.4230   46.7790 N   0  0  0  0  0  0  0  0  0  0  0  0
   59.4920   33.7610   46.5280 N   0  0  0  0  0  0  0  0  0  0  0  0
   59.2830   32.8510   45.5890 N   0  0  0  0  0  0  0  0  0  0  0  0
   59.9580   28.0990   45.7330 C   0  0  0  0  0  0  0  0  0  0  0  0
   60.1200   26.7380   46.0010 C   0  0  0  0  0  0  0  0  0  0  0  0
   59.0030   25.9140   46.1570 C   0  0  0  0  0  0  0  0  0  0  0  0
   59.1810   24.5930   46.4140 F   0  0  0  0  0  0  0  0  0  0  0  0
   55.1450   27.3360   45.9960 H   0  0  0  0  0  0  0  0  0  0  0  0
   56.5405   28.2373   45.6530 H   0  0  0  0  0  0  0  0  0  0  0  0
   59.3200   30.6920   45.5840 H   0  0  0  0  0  0  0  0  0  0  0  0
   57.9386   32.0497   43.3080 H   0  0  0  0  0  0  0  0  0  0  0  0
   56.3456   32.3853   44.0717 H   0  0  0  0  0  0  0  0  0  0  0  0
   56.3945   34.1926   45.8982 H   0  0  0  0  0  0  0  0  0  0  0  0
   60.8426   28.7395   45.6019 H   0  0  0  0  0  0  0  0  0  0  0  0
   61.1309   26.3134   46.0895 H   0  0  0  0  0  0  0  0  0  0  0  0
  1  2  1  0
  2  3  2  0
  2  4  2  0
  2  5  1  0
  5  6  2  0
  6  7  1  0
  7  8  1  0
  8  9  1  0
  9 10  2  0
  9 11  1  0
 11 12  1  0
 12 13  1  0
 13 14  2  0
 14 15  1  0
 15 16  2  0
  7 17  2  0
 17 18  1  0
 18 19  2  0
 19 20  1  0
 19  5  1  0
 16 12  1  0
  1 21  1  0
  6 22  1  0
  8 23  1  0
 11 24  1  0
 11 25  1  0
 13 26  1  0
 17 27  1  0
 18 28  1  0
M  CHG  1   1  -1
M  END
>  <UniqueID>  (81) 
75

>  <SMILES>  (81) 
[NH-]S(=O)(=O)c1cc(NC(=O)Cn2cnnn2)ccc1F

>  <Energy>  (81) 
69.22905706835779

>  <Genealogy>  (81) 
[NH-]S(=O)(=O)c1cc(NC(=O)Cn2cnnn2)ccc1F (protonated)
[NH-]S(=O)(=O)c1cc(NC(=O)Cn2cnnn2)ccc1F (3D coordinates assigned)
[NH-]S(=O)(=O)c1cc(NC(=O)Cn2cnnn2)ccc1F (optimized conformer: 69.22905706835779 kcal/mol)

>  <smiles>  (81) 
NS(=O)(=O)c1cc(NC(=O)Cn2cnnn2)ccc1F

>  <score_type>  (81) 
oracle

>  <origin>  (81) 
adg

>  <m_score__min__energy>  (81) 
-10.279999999999999

>  <m_primary>  (81) 
energy

$$$$
81:0
     RDKit          3D

 42 44  0  0  0  0  0  0  0  0999 V2000
   59.1240   29.2330   49.5480 O   0  0  0  0  0  0  0  0  0  0  0  0
   59.6570   29.9420   48.6470 C   0  0  0  0  0  0  0  0  0  0  0  0
   59.5220   29.5130   47.2280 C   0  0  0  0  0  0  0  0  0  0  0  0
   60.5500   28.8160   46.5640 C   0  0  0  0  0  0  0  0  0  0  0  0
   60.3930   28.4170   45.2340 C   0  0  0  0  0  0  0  0  0  0  0  0
   59.2070   28.6980   44.5520 C   0  0  0  0  0  0  0  0  0  0  0  0
   58.1690   29.3760   45.1990 C   0  0  0  0  0  0  0  0  0  0  0  0
   56.6650   29.6890   44.3370 S   0  0  0  0  0  0  0  0  0  0  0  0
   55.5780   28.8380   44.9320 O   0  0  0  0  0  0  0  0  0  0  0  0
   56.8000   29.3560   42.8780 O   0  0  0  0  0  0  0  0  0  0  0  0
   56.2340   31.3610   44.5010 N   0  0  0  0  0  0  0  0  0  0  0  0
   57.1470   32.4200   44.8220 C   0  0  0  0  0  0  0  0  0  0  0  0
   56.9980   33.0860   46.0460 C   0  0  0  0  0  0  0  0  0  0  0  0
   57.8720   34.1180   46.4030 C   0  0  0  0  0  0  0  0  0  0  0  0
   58.9030   34.4940   45.5350 C   0  0  0  0  0  0  0  0  0  0  0  0
   59.9990   35.7890   45.9830 Cl  0  0  0  0  0  0  0  0  0  0  0  0
   59.0570   33.8380   44.3110 C   0  0  0  0  0  0  0  0  0  0  0  0
   58.1840   32.8050   43.9510 C   0  0  0  0  0  0  0  0  0  0  0  0
   58.3270   29.7820   46.5310 C   0  0  0  0  0  0  0  0  0  0  0  0
   60.4100   31.1240   49.0250 N   0  0  0  0  0  0  0  0  0  0  0  0
   61.7280   31.1700   48.3360 C   0  0  0  0  0  0  0  0  0  0  0  0
   61.7140   32.1320   47.1330 C   0  0  0  0  0  0  0  0  0  0  0  0
   61.3880   33.4700   47.4850 O   0  0  0  0  0  0  0  0  0  0  0  0
   60.4910   33.5720   48.5840 C   0  0  0  0  0  0  0  0  0  0  0  0
   59.5940   32.3360   48.7740 C   0  0  0  0  0  0  0  0  0  0  0  0
   61.4840   28.5838   47.0966 H   0  0  0  0  0  0  0  0  0  0  0  0
   61.2057   27.8801   44.7228 H   0  0  0  0  0  0  0  0  0  0  0  0
   59.0892   28.3854   43.5039 H   0  0  0  0  0  0  0  0  0  0  0  0
   56.1879   32.7951   46.7309 H   0  0  0  0  0  0  0  0  0  0  0  0
   57.7488   34.6342   47.3665 H   0  0  0  0  0  0  0  0  0  0  0  0
   59.8669   34.1344   43.6282 H   0  0  0  0  0  0  0  0  0  0  0  0
   58.3083   32.2928   42.9855 H   0  0  0  0  0  0  0  0  0  0  0  0
   57.5098   30.3162   47.0378 H   0  0  0  0  0  0  0  0  0  0  0  0
   60.6210   31.0800   50.0500 H   0  0  0  0  0  0  0  0  0  0  0  0
   62.4920   31.5071   49.0520 H   0  0  0  0  0  0  0  0  0  0  0  0
   61.9528   30.1601   47.9623 H   0  0  0  0  0  0  0  0  0  0  0  0
   62.7119   32.1263   46.6701 H   0  0  0  0  0  0  0  0  0  0  0  0
   60.9340   31.7781   46.4428 H   0  0  0  0  0  0  0  0  0  0  0  0
   61.0816   33.7155   49.5009 H   0  0  0  0  0  0  0  0  0  0  0  0
   59.8240   34.4211   48.3738 H   0  0  0  0  0  0  0  0  0  0  0  0
   58.9258   32.5043   49.6314 H   0  0  0  0  0  0  0  0  0  0  0  0
   59.0088   32.1818   47.8554 H   0  0  0  0  0  0  0  0  0  0  0  0
  1  2  2  0
  2  3  1  0
  3  4  2  0
  4  5  1  0
  5  6  2  0
  6  7  1  0
  7  8  1  0
  8  9  2  0
  8 10  2  0
  8 11  1  0
 11 12  1  0
 12 13  2  0
 13 14  1  0
 14 15  2  0
 15 16  1  0
 15 17  1  0
 17 18  2  0
  7 19  2  0
  2 20  1  0
 20 21  1  0
 21 22  1  0
 22 23  1  0
 23 24  1  0
 24 25  1  0
 19  3  1  0
 25 20  1  0
 18 12  1  0
  4 26  1  0
  5 27  1  0
  6 28  1  0
 13 29  1  0
 14 30  1  0
 17 31  1  0
 18 32  1  0
 19 33  1  0
 20 34  1  0
 21 35  1  0
 21 36  1  0
 22 37  1  0
 22 38  1  0
 24 39  1  0
 24 40  1  0
 25 41  1  0
 25 42  1  0
M  CHG  2  11  -1  20   1
M  END
>  <UniqueID>  (82) 
76

>  <SMILES>  (82) 
O=C(c1cccc(S(=O)(=O)[N-]c2ccc(Cl)cc2)c1)[NH+]1CCOCC1

>  <Energy>  (82) 
65.23104086020483

>  <Genealogy>  (82) 
O=C(c1cccc(S(=O)(=O)[N-]c2ccc(Cl)cc2)c1)[NH+]1CCOCC1 (protonated)
O=C(c1cccc(S(=O)(=O)[N-]c2ccc(Cl)cc2)c1)[NH+]1CCOCC1 (3D coordinates assigned)
O=C(c1cccc(S(=O)(=O)[N-]c2ccc(Cl)cc2)c1)[NH+]1CCOCC1 (nonaromatic ring conformer: 65.23104086020483 kcal/mol)

>  <smiles>  (82) 
O=C(c1cccc(S(=O)(=O)Nc2ccc(Cl)cc2)c1)N1CCOCC1

>  <score_type>  (82) 
oracle

>  <origin>  (82) 
adg

>  <m_score__min__energy>  (82) 
-8.2599999999999998

>  <m_primary>  (82) 
energy

$$$$
82:0
     RDKit          3D

 41 43  0  0  0  0  0  0  0  0999 V2000
   55.2900   29.3020   44.8640 N   0  0  0  0  0  0  0  0  0  0  0  0
   56.9850   29.6060   44.7180 S   0  0  0  0  0  0  0  0  0  0  0  0
   57.3680   30.8090   45.5320 O   0  0  0  0  0  0  0  0  0  0  0  0
   57.2970   29.8740   43.2730 O   0  0  0  0  0  0  0  0  0  0  0  0
   57.9010   28.2000   45.2520 C   0  0  0  0  0  0  0  0  0  0  0  0
   57.5810   26.6320   44.7360 S   0  0  0  0  0  0  0  0  0  0  0  0
   58.6940   25.8680   45.7340 C   0  0  0  0  0  0  0  0  0  0  0  0
   59.3290   26.8360   46.4990 C   0  0  0  0  0  0  0  0  0  0  0  0
   58.8960   28.1470   46.2340 C   0  0  0  0  0  0  0  0  0  0  0  0
   59.4580   29.3170   46.9420 C   0  0  0  0  0  0  0  0  0  0  0  0
   60.4340   30.1210   46.3340 C   0  0  0  0  0  0  0  0  0  0  0  0
   60.9830   31.2070   47.0210 C   0  0  0  0  0  0  0  0  0  0  0  0
   60.5780   31.4960   48.3340 C   0  0  0  0  0  0  0  0  0  0  0  0
   61.1940   32.6570   49.0800 C   0  0  0  0  0  0  0  0  0  0  0  0
   61.0720   33.9270   48.3410 N   0  0  0  0  0  0  0  0  0  0  0  0
   59.7000   34.4530   48.2920 C   0  0  0  0  0  0  0  0  0  0  0  0
   59.0320   34.1990   46.9610 C   0  0  0  0  0  0  0  0  0  0  0  0
   59.7380   34.4010   45.7640 C   0  0  0  0  0  0  0  0  0  0  0  0
   59.1180   34.1710   44.5320 C   0  0  0  0  0  0  0  0  0  0  0  0
   57.7930   33.7320   44.4870 C   0  0  0  0  0  0  0  0  0  0  0  0
   57.0800   33.5360   45.6730 C   0  0  0  0  0  0  0  0  0  0  0  0
   57.6930   33.7770   46.9060 C   0  0  0  0  0  0  0  0  0  0  0  0
   59.6290   30.6690   48.9540 C   0  0  0  0  0  0  0  0  0  0  0  0
   59.0700   29.5910   48.2620 C   0  0  0  0  0  0  0  0  0  0  0  0
   55.1610   28.6030   45.6280 H   0  0  0  0  0  0  0  0  0  0  0  0
   58.8868   24.7858   45.7745 H   0  0  0  0  0  0  0  0  0  0  0  0
   60.1015   26.5990   47.2454 H   0  0  0  0  0  0  0  0  0  0  0  0
   60.7689   29.8952   45.3108 H   0  0  0  0  0  0  0  0  0  0  0  0
   61.7373   31.8395   46.5300 H   0  0  0  0  0  0  0  0  0  0  0  0
   60.6869   32.7626   50.0504 H   0  0  0  0  0  0  0  0  0  0  0  0
   62.2657   32.4440   49.2069 H   0  0  0  0  0  0  0  0  0  0  0  0
   61.4750   33.8570   47.3770 H   0  0  0  0  0  0  0  0  0  0  0  0
   59.1078   33.9687   49.0824 H   0  0  0  0  0  0  0  0  0  0  0  0
   59.7534   35.5420   48.4376 H   0  0  0  0  0  0  0  0  0  0  0  0
   60.7834   34.7417   45.7957 H   0  0  0  0  0  0  0  0  0  0  0  0
   59.6743   34.3360   43.5975 H   0  0  0  0  0  0  0  0  0  0  0  0
   57.3102   33.5403   43.5174 H   0  0  0  0  0  0  0  0  0  0  0  0
   56.0359   33.1919   45.6362 H   0  0  0  0  0  0  0  0  0  0  0  0
   57.1246   33.6357   47.8371 H   0  0  0  0  0  0  0  0  0  0  0  0
   59.3231   30.8704   49.9912 H   0  0  0  0  0  0  0  0  0  0  0  0
   58.3214   28.9537   48.7553 H   0  0  0  0  0  0  0  0  0  0  0  0
  1  2  1  0
  2  3  2  0
  2  4  2  0
  2  5  1  0
  5  6  1  0
  6  7  1  0
  7  8  2  0
  8  9  1  0
  9 10  1  0
 10 11  2  0
 11 12  1  0
 12 13  2  0
 13 14  1  0
 14 15  1  0
 15 16  1  0
 16 17  1  0
 17 18  2  0
 18 19  1  0
 19 20  2  0
 20 21  1  0
 21 22  2  0
 13 23  1  0
 23 24  2  0
  9  5  2  0
 24 10  1  0
 22 17  1  0
  1 25  1  0
  7 26  1  0
  8 27  1  0
 11 28  1  0
 12 29  1  0
 14 30  1  0
 14 31  1  0
 15 32  1  0
 16 33  1  0
 16 34  1  0
 18 35  1  0
 19 36  1  0
 20 37  1  0
 21 38  1  0
 22 39  1  0
 23 40  1  0
 24 41  1  0
M  CHG  1   1  -1
M  END
>  <UniqueID>  (83) 
77

>  <SMILES>  (83) 
[NH-]S(=O)(=O)c1sccc1-c1ccc(CNCc2ccccc2)cc1

>  <Energy>  (83) 
74.18659208304292

>  <Genealogy>  (83) 
[NH-]S(=O)(=O)c1sccc1-c1ccc(CNCc2ccccc2)cc1 (protonated)
[NH-]S(=O)(=O)c1sccc1-c1ccc(CNCc2ccccc2)cc1 (3D coordinates assigned)
[NH-]S(=O)(=O)c1sccc1-c1ccc(CNCc2ccccc2)cc1 (optimized conformer: 74.18659208304292 kcal/mol)

>  <smiles>  (83) 
NS(=O)(=O)c1sccc1-c1ccc(CNCc2ccccc2)cc1

>  <score_type>  (83) 
oracle

>  <origin>  (83) 
adg

>  <m_score__min__energy>  (83) 
-11.470000000000001

>  <m_primary>  (83) 
energy

$$$$
83:0
     RDKit          3D

 48 50  0  0  0  0  0  0  0  0999 V2000
   64.8130   33.0930   49.6760 C   0  0  0  0  0  0  0  0  0  0  0  0
   63.5690   33.6710   50.3500 C   0  0  0  0  0  0  0  0  0  0  0  0
   62.7710   34.5940   49.4200 C   0  0  0  0  0  0  0  0  0  0  0  0
   62.0310   33.8180   48.3660 C   0  0  0  0  0  0  0  0  0  0  0  0
   62.6860   33.1230   47.5410 O   0  0  0  0  0  0  0  0  0  0  0  0
   60.5930   33.8180   48.3450 N   0  0  0  0  0  0  0  0  0  0  0  0
   59.8060   33.1990   47.3120 C   0  0  0  0  0  0  0  0  0  0  0  0
   59.4790   33.8830   46.1260 C   0  0  0  0  0  0  0  0  0  0  0  0
   58.7010   33.2610   45.1430 C   0  0  0  0  0  0  0  0  0  0  0  0
   58.2270   31.9580   45.3380 C   0  0  0  0  0  0  0  0  0  0  0  0
   57.2540   31.1870   44.0850 S   0  0  0  0  0  0  0  0  0  0  0  0
   55.8000   31.1950   44.4910 O   0  0  0  0  0  0  0  0  0  0  0  0
   57.4070   31.9870   42.8160 O   0  0  0  0  0  0  0  0  0  0  0  0
   57.7530   29.5480   43.7790 N   0  0  0  0  0  0  0  0  0  0  0  0
   58.6150   28.7880   44.6400 C   0  0  0  0  0  0  0  0  0  0  0  0
   60.0100   28.9740   44.6050 C   0  0  0  0  0  0  0  0  0  0  0  0
   60.8480   28.2000   45.4130 C   0  0  0  0  0  0  0  0  0  0  0  0
   60.3020   27.2450   46.2740 C   0  0  0  0  0  0  0  0  0  0  0  0
   58.9160   27.0720   46.3390 C   0  0  0  0  0  0  0  0  0  0  0  0
   58.0600   27.8490   45.5400 C   0  0  0  0  0  0  0  0  0  0  0  0
   56.5910   27.6590   45.6440 C   0  0  0  0  0  0  0  0  0  0  0  0
   55.8260   28.5780   45.2350 O   0  0  0  0  0  0  0  0  0  0  0  0
   56.0130   26.5350   46.3250 N   0  0  0  0  0  0  0  0  0  0  0  0
   55.6260   25.4170   45.7800 C   0  0  0  0  0  0  0  0  0  0  0  0
   54.3690   24.9470   45.9290 N   0  0  0  0  0  0  0  0  0  0  0  0
   54.1700   23.8060   45.2130 C   0  0  0  0  0  0  0  0  0  0  0  0
   55.2730   23.3560   44.4930 C   0  0  0  0  0  0  0  0  0  0  0  0
   56.5340   24.4450   44.7370 S   0  0  0  0  0  0  0  0  0  0  0  0
   58.5290   31.2840   46.5320 C   0  0  0  0  0  0  0  0  0  0  0  0
   59.3060   31.9050   47.5140 C   0  0  0  0  0  0  0  0  0  0  0  0
   65.5262   32.7616   50.4451 H   0  0  0  0  0  0  0  0  0  0  0  0
   64.5256   32.2362   49.0489 H   0  0  0  0  0  0  0  0  0  0  0  0
   65.2825   33.8652   49.0489 H   0  0  0  0  0  0  0  0  0  0  0  0
   62.9200   32.8402   50.6640 H   0  0  0  0  0  0  0  0  0  0  0  0
   63.9032   34.2709   51.2093 H   0  0  0  0  0  0  0  0  0  0  0  0
   62.0448   35.1625   50.0196 H   0  0  0  0  0  0  0  0  0  0  0  0
   63.4795   35.2674   48.9154 H   0  0  0  0  0  0  0  0  0  0  0  0
   60.0960   34.1750   49.1910 H   0  0  0  0  0  0  0  0  0  0  0  0
   59.8368   34.9116   45.9711 H   0  0  0  0  0  0  0  0  0  0  0  0
   58.4609   33.7979   44.2134 H   0  0  0  0  0  0  0  0  0  0  0  0
   60.4434   29.7333   43.9375 H   0  0  0  0  0  0  0  0  0  0  0  0
   61.9378   28.3430   45.3708 H   0  0  0  0  0  0  0  0  0  0  0  0
   60.9628   26.6287   46.9013 H   0  0  0  0  0  0  0  0  0  0  0  0
   58.4919   26.3210   47.0217 H   0  0  0  0  0  0  0  0  0  0  0  0
   53.2055   23.2771   45.2042 H   0  0  0  0  0  0  0  0  0  0  0  0
   55.3138   22.4481   43.8732 H   0  0  0  0  0  0  0  0  0  0  0  0
   58.1527   30.2633   46.6953 H   0  0  0  0  0  0  0  0  0  0  0  0
   59.5267   31.3746   48.4520 H   0  0  0  0  0  0  0  0  0  0  0  0
  1  2  1  0
  2  3  1  0
  3  4  1  0
  4  5  2  0
  4  6  1  0
  6  7  1  0
  7  8  2  0
  8  9  1  0
  9 10  2  0
 10 11  1  0
 11 12  2  0
 11 13  2  0
 11 14  1  0
 14 15  1  0
 15 16  2  0
 16 17  1  0
 17 18  2  0
 18 19  1  0
 19 20  2  0
 20 21  1  0
 21 22  2  0
 21 23  1  0
 23 24  2  3
 24 25  1  0
 25 26  1  0
 26 27  2  0
 27 28  1  0
 10 29  1  0
 29 30  2  0
 30  7  1  0
 20 15  1  0
 28 24  1  0
  1 31  1  0
  1 32  1  0
  1 33  1  0
  2 34  1  0
  2 35  1  0
  3 36  1  0
  3 37  1  0
  6 38  1  0
  8 39  1  0
  9 40  1  0
 16 41  1  0
 17 42  1  0
 18 43  1  0
 19 44  1  0
 26 45  1  0
 27 46  1  0
 29 47  1  0
 30 48  1  0
M  CHG  2  14  -1  25  -1
M  END
>  <UniqueID>  (84) 
78

>  <SMILES>  (84) 
CCCC(=O)Nc1ccc(S(=O)(=O)[N-]c2ccccc2C(=O)N=c2[n-]ccs2)cc1

>  <Energy>  (84) 
94.61385528583673

>  <Genealogy>  (84) 
CCCC(=O)Nc1ccc(S(=O)(=O)[N-]c2ccccc2C(=O)N=c2[n-]ccs2)cc1 (protonated)
CCCC(=O)Nc1ccc(S(=O)(=O)[N-]c2ccccc2C(=O)N=c2[n-]ccs2)cc1 (3D coordinates assigned)
CCCC(=O)Nc1ccc(S(=O)(=O)[N-]c2ccccc2C(=O)N=c2[n-]ccs2)cc1 (optimized conformer: 94.61385528583673 kcal/mol)

>  <smiles>  (84) 
CCCC(=O)Nc1ccc(S(=O)(=O)Nc2ccccc2C(=O)N=c2[nH]ccs2)cc1

>  <score_type>  (84) 
oracle

>  <origin>  (84) 
adg

>  <m_score__min__energy>  (84) 
-12.470000000000001

>  <m_primary>  (84) 
energy

$$$$
84:0
     RDKit          3D

 29 31  0  0  0  0  0  0  0  0999 V2000
   56.6310   23.4090   43.3680 C   0  0  0  0  0  0  0  0  0  0  0  0
   57.2780   24.1270   44.4120 O   0  0  0  0  0  0  0  0  0  0  0  0
   57.4170   25.5230   44.4440 C   0  0  0  0  0  0  0  0  0  0  0  0
   57.7780   26.2730   43.3100 C   0  0  0  0  0  0  0  0  0  0  0  0
   57.9040   27.6630   43.3920 C   0  0  0  0  0  0  0  0  0  0  0  0
   57.6720   28.3310   44.6080 C   0  0  0  0  0  0  0  0  0  0  0  0
   57.7990   29.8030   44.7230 C   0  0  0  0  0  0  0  0  0  0  0  0
   58.1790   30.6330   43.7140 N   0  0  0  0  0  0  0  0  0  0  0  0
   58.1480   31.8480   44.2810 C   0  0  0  0  0  0  0  0  0  0  0  0
   58.4460   33.0830   43.7070 C   0  0  0  0  0  0  0  0  0  0  0  0
   58.3340   34.2220   44.5280 C   0  0  0  0  0  0  0  0  0  0  0  0
   57.9340   34.0960   45.8790 C   0  0  0  0  0  0  0  0  0  0  0  0
   57.6410   32.8300   46.4220 C   0  0  0  0  0  0  0  0  0  0  0  0
   57.7620   31.7270   45.5810 C   0  0  0  0  0  0  0  0  0  0  0  0
   57.5490   30.4630   45.8450 O   0  0  0  0  0  0  0  0  0  0  0  0
   57.3130   27.5760   45.7370 C   0  0  0  0  0  0  0  0  0  0  0  0
   57.1860   26.1860   45.6530 C   0  0  0  0  0  0  0  0  0  0  0  0
   55.9548   22.6586   43.8035 H   0  0  0  0  0  0  0  0  0  0  0  0
   56.0518   24.1079   42.7467 H   0  0  0  0  0  0  0  0  0  0  0  0
   57.3862   22.9054   42.7467 H   0  0  0  0  0  0  0  0  0  0  0  0
   57.9623   25.7628   42.3530 H   0  0  0  0  0  0  0  0  0  0  0  0
   58.1868   28.2389   42.4985 H   0  0  0  0  0  0  0  0  0  0  0  0
   58.4360   30.4060   42.7300 H   0  0  0  0  0  0  0  0  0  0  0  0
   58.7562   33.1647   42.6548 H   0  0  0  0  0  0  0  0  0  0  0  0
   58.5592   35.2166   44.1157 H   0  0  0  0  0  0  0  0  0  0  0  0
   57.8512   34.9932   46.5099 H   0  0  0  0  0  0  0  0  0  0  0  0
   57.3285   32.7169   47.4706 H   0  0  0  0  0  0  0  0  0  0  0  0
   57.1301   28.0830   46.6959 H   0  0  0  0  0  0  0  0  0  0  0  0
   56.9020   25.6094   46.5456 H   0  0  0  0  0  0  0  0  0  0  0  0
  1  2  1  0
  2  3  1  0
  3  4  2  0
  4  5  1  0
  5  6  2  0
  6  7  1  0
  7  8  2  0
  8  9  1  0
  9 10  2  0
 10 11  1  0
 11 12  2  0
 12 13  1  0
 13 14  2  0
 14 15  1  0
  6 16  1  0
 16 17  2  0
 17  3  1  0
 15  7  1  0
 14  9  1  0
  1 18  1  0
  1 19  1  0
  1 20  1  0
  4 21  1  0
  5 22  1  0
  8 23  1  0
 10 24  1  0
 11 25  1  0
 12 26  1  0
 13 27  1  0
 16 28  1  0
 17 29  1  0
M  CHG  1   8   1
M  END
>  <UniqueID>  (85) 
79

>  <SMILES>  (85) 
COc1ccc(-c2[nH+]c3ccccc3o2)cc1

>  <Energy>  (85) 
71.192866259989

>  <Genealogy>  (85) 
COc1ccc(-c2[nH+]c3ccccc3o2)cc1 (protonated)
COc1ccc(-c2[nH+]c3ccccc3o2)cc1 (3D coordinates assigned)
COc1ccc(-c2[nH+]c3ccccc3o2)cc1 (optimized conformer: 71.192866259989 kcal/mol)

>  <smiles>  (85) 
COc1ccc(-c2nc3ccccc3o2)cc1

>  <score_type>  (85) 
oracle

>  <origin>  (85) 
adg

>  <m_score__min__energy>  (85) 
-4.4699999999999998

>  <m_primary>  (85) 
energy

$$$$
85:0
     RDKit          3D

 39 41  0  0  0  0  0  0  0  0999 V2000
   56.2005   31.4492   42.4586 H   0  0  0  0  0  0  0  0  0  0  0  0
   57.0080   31.2520   43.1790 C   0  0  0  0  0  0  0  0  0  0  0  0
   56.9530   30.0040   43.9690 C   0  0  0  0  0  0  0  0  0  0  0  0
   56.0650   29.9010   44.8580 O   0  0  0  0  0  0  0  0  0  0  0  0
   57.8930   28.9340   43.7740 N   0  0  0  0  0  0  0  0  0  0  0  0
   58.7340   29.0750   43.1700 H   0  0  0  0  0  0  0  0  0  0  0  0
   57.7780   27.6590   44.4790 C   0  0  0  0  0  0  0  0  0  0  0  0
   56.7179   27.4552   44.6904 H   0  0  0  0  0  0  0  0  0  0  0  0
   58.1955   26.8610   43.8474 H   0  0  0  0  0  0  0  0  0  0  0  0
   58.5420   27.7100   45.7740 C   0  0  0  0  0  0  0  0  0  0  0  0
   59.4880   26.7140   46.0700 C   0  0  0  0  0  0  0  0  0  0  0  0
   59.6532   25.8885   45.3620 H   0  0  0  0  0  0  0  0  0  0  0  0
   60.2210   26.7670   47.2610 C   0  0  0  0  0  0  0  0  0  0  0  0
   60.9567   25.9821   47.4904 H   0  0  0  0  0  0  0  0  0  0  0  0
   60.0170   27.8180   48.1580 C   0  0  0  0  0  0  0  0  0  0  0  0
   59.0580   28.8020   47.8810 C   0  0  0  0  0  0  0  0  0  0  0  0
   58.3330   28.7600   46.6860 C   0  0  0  0  0  0  0  0  0  0  0  0
   57.5996   29.5479   46.4594 H   0  0  0  0  0  0  0  0  0  0  0  0
   58.8400   29.8200   48.8140 O   0  0  0  0  0  0  0  0  0  0  0  0
   59.3620   29.7290   50.1420 C   0  0  0  0  0  0  0  0  0  0  0  0
   59.4198   30.7367   50.5793 H   0  0  0  0  0  0  0  0  0  0  0  0
   58.6967   29.0945   50.7460 H   0  0  0  0  0  0  0  0  0  0  0  0
   60.7640   29.1050   50.1200 C   0  0  0  0  0  0  0  0  0  0  0  0
   61.4739   29.8224   49.6825 H   0  0  0  0  0  0  0  0  0  0  0  0
   61.0632   28.8599   51.1497 H   0  0  0  0  0  0  0  0  0  0  0  0
   60.7610   27.9070   49.3380 O   0  0  0  0  0  0  0  0  0  0  0  0
   57.9910   32.1560   43.2950 C   0  0  0  0  0  0  0  0  0  0  0  0
   58.6241   32.3493   42.4164 H   0  0  0  0  0  0  0  0  0  0  0  0
   58.2740   32.9110   44.5410 C   0  0  0  0  0  0  0  0  0  0  0  0
   59.0490   34.0900   44.5580 C   0  0  0  0  0  0  0  0  0  0  0  0
   59.4626   34.4866   43.6190 H   0  0  0  0  0  0  0  0  0  0  0  0
   59.2940   34.7570   45.7630 C   0  0  0  0  0  0  0  0  0  0  0  0
   59.8921   35.6802   45.7667 H   0  0  0  0  0  0  0  0  0  0  0  0
   58.7820   34.2550   46.9610 C   0  0  0  0  0  0  0  0  0  0  0  0
   58.9734   34.7841   47.9062 H   0  0  0  0  0  0  0  0  0  0  0  0
   58.0270   33.0810   46.9580 C   0  0  0  0  0  0  0  0  0  0  0  0
   57.6263   32.6838   47.9023 H   0  0  0  0  0  0  0  0  0  0  0  0
   57.7790   32.4090   45.7580 C   0  0  0  0  0  0  0  0  0  0  0  0
   57.1914   31.4791   45.7654 H   0  0  0  0  0  0  0  0  0  0  0  0
  1  2  1  0
  2  3  1  0
  3  4  2  0
  3  5  1  0
  5  6  1  0
  5  7  1  0
  7  8  1  0
  7  9  1  0
  7 10  1  0
 10 11  2  0
 11 12  1  0
 11 13  1  0
 13 14  1  0
 13 15  2  0
 15 16  1  0
 16 17  2  0
 17 18  1  0
 16 19  1  0
 19 20  1  0
 20 21  1  0
 20 22  1  0
 20 23  1  0
 23 24  1  0
 23 25  1  0
 23 26  1  0
  2 27  2  0
 27 28  1  0
 27 29  1  0
 29 30  2  0
 30 31  1  0
 30 32  1  0
 32 33  1  0
 32 34  2  0
 34 35  1  0
 34 36  1  0
 36 37  1  0
 36 38  2  0
 38 39  1  0
 17 10  1  0
 38 29  1  0
 26 15  1  0
M  END
>  <UniqueID>  (86) 
80

>  <SMILES>  (86) 
O=C(/C=C/c1ccccc1)NCc1ccc2c(c1)OCCO2

>  <Energy>  (86) 
42.70522388853634

>  <Genealogy>  (86) 
O=C(/C=C/c1ccccc1)NCc1ccc2c(c1)OCCO2 (cis-trans isomerization)
O=C(/C=C/c1ccccc1)NCc1ccc2c(c1)OCCO2 (3D coordinates assigned)
O=C(/C=C/c1ccccc1)NCc1ccc2c(c1)OCCO2 (nonaromatic ring conformer: 42.70522388853634 kcal/mol)

>  <smiles>  (86) 
O=C(C=Cc1ccccc1)NCc1ccc2c(c1)OCCO2

>  <score_type>  (86) 
oracle

>  <origin>  (86) 
adg

>  <m_score__min__energy>  (86) 
-7.4900000000000002

>  <m_primary>  (86) 
energy

$$$$
86:0
     RDKit          3D

 33 34  0  0  0  0  0  0  0  0999 V2000
   55.4820   29.4650   44.4870 C   0  0  0  0  0  0  0  0  0  0  0  0
   55.9380   28.3020   45.2400 N   0  0  0  0  0  0  0  0  0  0  0  0
   57.6500   28.1110   45.0270 S   0  0  0  0  0  0  0  0  0  0  0  0
   57.9470   27.8750   43.5730 O   0  0  0  0  0  0  0  0  0  0  0  0
   58.1250   26.9260   45.8200 O   0  0  0  0  0  0  0  0  0  0  0  0
   58.4780   29.5100   45.5610 O   0  0  0  0  0  0  0  0  0  0  0  0
   58.3690   30.7740   44.9670 C   0  0  0  0  0  0  0  0  0  0  0  0
   58.4300   31.8700   45.7670 N   0  0  0  0  0  0  0  0  0  0  0  0
   58.3170   33.1230   45.2610 C   0  0  0  0  0  0  0  0  0  0  0  0
   58.3750   34.5340   46.3600 S   0  0  0  0  0  0  0  0  0  0  0  0
   59.9420   34.0250   47.0690 C   0  0  0  0  0  0  0  0  0  0  0  0
   61.0680   33.8770   46.2480 C   0  0  0  0  0  0  0  0  0  0  0  0
   62.2880   33.4730   46.8010 C   0  0  0  0  0  0  0  0  0  0  0  0
   62.3850   33.2190   48.1720 C   0  0  0  0  0  0  0  0  0  0  0  0
   61.2640   33.3700   48.9930 C   0  0  0  0  0  0  0  0  0  0  0  0
   60.0430   33.7740   48.4430 C   0  0  0  0  0  0  0  0  0  0  0  0
   58.1420   33.3030   43.8900 C   0  0  0  0  0  0  0  0  0  0  0  0
   58.0970   32.1750   43.0660 C   0  0  0  0  0  0  0  0  0  0  0  0
   57.8670   32.3290   41.5930 C   0  0  0  0  0  0  0  0  0  0  0  0
   58.1970   30.9310   43.6200 N   0  0  0  0  0  0  0  0  0  0  0  0
   55.1719   30.2558   45.1859 H   0  0  0  0  0  0  0  0  0  0  0  0
   56.3013   29.8360   43.8536 H   0  0  0  0  0  0  0  0  0  0  0  0
   54.6289   29.1803   43.8536 H   0  0  0  0  0  0  0  0  0  0  0  0
   60.9927   34.0784   45.1692 H   0  0  0  0  0  0  0  0  0  0  0  0
   63.1715   33.3552   46.1563 H   0  0  0  0  0  0  0  0  0  0  0  0
   63.3444   32.9000   48.6052 H   0  0  0  0  0  0  0  0  0  0  0  0
   61.3420   33.1711   50.0720 H   0  0  0  0  0  0  0  0  0  0  0  0
   59.1617   33.8946   49.0901 H   0  0  0  0  0  0  0  0  0  0  0  0
   58.0413   34.3126   43.4650 H   0  0  0  0  0  0  0  0  0  0  0  0
   56.9638   32.9337   41.4242 H   0  0  0  0  0  0  0  0  0  0  0  0
   58.7339   32.8294   41.1369 H   0  0  0  0  0  0  0  0  0  0  0  0
   57.7345   31.3368   41.1369 H   0  0  0  0  0  0  0  0  0  0  0  0
   58.1390   30.1010   42.9920 H   0  0  0  0  0  0  0  0  0  0  0  0
  1  2  1  0
  2  3  1  0
  3  4  2  0
  3  5  2  0
  3  6  1  0
  6  7  1  0
  7  8  2  0
  8  9  1  0
  9 10  1  0
 10 11  1  0
 11 12  2  0
 12 13  1  0
 13 14  2  0
 14 15  1  0
 15 16  2  0
  9 17  2  0
 17 18  1  0
 18 19  1  0
 18 20  2  0
 20  7  1  0
 16 11  1  0
  1 21  1  0
  1 22  1  0
  1 23  1  0
 12 24  1  0
 13 25  1  0
 14 26  1  0
 15 27  1  0
 16 28  1  0
 17 29  1  0
 19 30  1  0
 19 31  1  0
 19 32  1  0
 20 33  1  0
M  CHG  2   2  -1  20   1
M  END
>  <UniqueID>  (87) 
81

>  <SMILES>  (87) 
C[N-]S(=O)(=O)Oc1nc(Sc2ccccc2)cc(C)[nH+]1

>  <Energy>  (87) 
23.481888746485776

>  <Genealogy>  (87) 
C[N-]S(=O)(=O)Oc1nc(Sc2ccccc2)cc(C)[nH+]1 (protonated)
C[N-]S(=O)(=O)Oc1nc(Sc2ccccc2)cc(C)[nH+]1 (3D coordinates assigned)
C[N-]S(=O)(=O)Oc1nc(Sc2ccccc2)cc(C)[nH+]1 (optimized conformer: 23.481888746485776 kcal/mol)

>  <smiles>  (87) 
CNS(=O)(=O)Oc1nc(C)cc(Sc2ccccc2)n1

>  <score_type>  (87) 
oracle

>  <origin>  (87) 
adg

>  <m_score__min__energy>  (87) 
-8.1899999999999995

>  <m_primary>  (87) 
energy

$$$$
87:0
     RDKit          3D

 38 39  0  0  0  0  0  0  0  0999 V2000
   57.0440   27.9470   45.5420 C   0  0  0  0  0  0  0  0  0  0  0  0
   57.6760   28.7140   44.4640 N   0  0  0  0  0  0  0  0  0  0  0  0
   56.6710   29.3780   43.6200 C   0  0  0  0  0  0  0  0  0  0  0  0
   56.3940   30.7960   44.1280 C   0  0  0  0  0  0  0  0  0  0  0  0
   57.2170   31.0940   45.2550 O   0  0  0  0  0  0  0  0  0  0  0  0
   57.9550   32.2770   45.4440 C   0  0  0  0  0  0  0  0  0  0  0  0
   57.7660   33.4160   44.6340 C   0  0  0  0  0  0  0  0  0  0  0  0
   58.4970   34.5820   44.8700 C   0  0  0  0  0  0  0  0  0  0  0  0
   59.4230   34.6290   45.9120 C   0  0  0  0  0  0  0  0  0  0  0  0
   59.6280   33.5080   46.7170 C   0  0  0  0  0  0  0  0  0  0  0  0
   58.9080   32.3230   46.4840 C   0  0  0  0  0  0  0  0  0  0  0  0
   59.1490   31.1460   47.3490 C   0  0  0  0  0  0  0  0  0  0  0  0
   58.8290   31.2190   48.7160 C   0  0  0  0  0  0  0  0  0  0  0  0
   59.0370   30.1200   49.5510 C   0  0  0  0  0  0  0  0  0  0  0  0
   58.5880   30.2290   51.4040 Br  0  0  0  0  0  0  0  0  0  0  0  0
   59.5700   28.9390   49.0310 C   0  0  0  0  0  0  0  0  0  0  0  0
   59.9040   28.8560   47.6770 C   0  0  0  0  0  0  0  0  0  0  0  0
   59.7040   29.9600   46.8240 C   0  0  0  0  0  0  0  0  0  0  0  0
   60.0570   29.9170   45.4650 O   0  0  0  0  0  0  0  0  0  0  0  0
   60.7640   28.8460   44.8460 C   0  0  0  0  0  0  0  0  0  0  0  0
   57.3708   28.3437   46.5145 H   0  0  0  0  0  0  0  0  0  0  0  0
   55.9504   28.0321   45.4601 H   0  0  0  0  0  0  0  0  0  0  0  0
   57.3367   26.8898   45.4601 H   0  0  0  0  0  0  0  0  0  0  0  0
   58.2570   29.4590   44.9170 H   0  0  0  0  0  0  0  0  0  0  0  0
   57.0442   29.4305   42.5866 H   0  0  0  0  0  0  0  0  0  0  0  0
   55.7368   28.7985   43.6577 H   0  0  0  0  0  0  0  0  0  0  0  0
   56.6066   31.5162   43.3242 H   0  0  0  0  0  0  0  0  0  0  0  0
   55.3387   30.8651   44.4306 H   0  0  0  0  0  0  0  0  0  0  0  0
   57.0375   33.3856   43.8104 H   0  0  0  0  0  0  0  0  0  0  0  0
   58.3423   35.4653   44.2329 H   0  0  0  0  0  0  0  0  0  0  0  0
   59.9925   35.5512   46.0994 H   0  0  0  0  0  0  0  0  0  0  0  0
   60.3575   33.5516   47.5391 H   0  0  0  0  0  0  0  0  0  0  0  0
   58.4118   32.1486   49.1304 H   0  0  0  0  0  0  0  0  0  0  0  0
   59.7274   28.0717   49.6890 H   0  0  0  0  0  0  0  0  0  0  0  0
   60.3257   27.9233   47.2742 H   0  0  0  0  0  0  0  0  0  0  0  0
   61.1942   28.1944   45.6208 H   0  0  0  0  0  0  0  0  0  0  0  0
   60.0723   28.2636   44.2196 H   0  0  0  0  0  0  0  0  0  0  0  0
   61.5714   29.2532   44.2196 H   0  0  0  0  0  0  0  0  0  0  0  0
  1  2  1  0
  2  3  1  0
  3  4  1  0
  4  5  1  0
  5  6  1  0
  6  7  2  0
  7  8  1  0
  8  9  2  0
  9 10  1  0
 10 11  2  0
 11 12  1  0
 12 13  2  0
 13 14  1  0
 14 15  1  0
 14 16  2  0
 16 17  1  0
 17 18  2  0
 18 19  1  0
 19 20  1  0
 11  6  1  0
 18 12  1  0
  1 21  1  0
  1 22  1  0
  1 23  1  0
  2 24  1  0
  3 25  1  0
  3 26  1  0
  4 27  1  0
  4 28  1  0
  7 29  1  0
  8 30  1  0
  9 31  1  0
 10 32  1  0
 13 33  1  0
 16 34  1  0
 17 35  1  0
 20 36  1  0
 20 37  1  0
 20 38  1  0
M  END
>  <UniqueID>  (88) 
82

>  <SMILES>  (88) 
CNCCOc1ccccc1-c1cc(Br)ccc1OC

>  <Energy>  (88) 
41.87089885577843

>  <Genealogy>  (88) 
CNCCOc1ccccc1-c1cc(Br)ccc1OC (3D coordinates assigned)
CNCCOc1ccccc1-c1cc(Br)ccc1OC (optimized conformer: 41.87089885577843 kcal/mol)

>  <smiles>  (88) 
CNCCOc1ccccc1-c1cc(Br)ccc1OC

>  <score_type>  (88) 
oracle

>  <origin>  (88) 
adg

>  <m_score__min__energy>  (88) 
-7.1399999999999997

>  <m_primary>  (88) 
energy

$$$$
88:0
     RDKit          3D

 42 44  0  0  0  0  0  0  0  0999 V2000
   56.8651   33.5140   44.0267 H   0  0  0  0  0  0  0  0  0  0  0  0
   57.5440   33.5990   44.8880 C   0  0  0  0  0  0  0  0  0  0  0  0
   57.4180   32.7200   45.9670 C   0  0  0  0  0  0  0  0  0  0  0  0
   56.6400   31.9425   45.9531 H   0  0  0  0  0  0  0  0  0  0  0  0
   58.2780   32.8260   47.0640 C   0  0  0  0  0  0  0  0  0  0  0  0
   58.1736   32.1328   47.9117 H   0  0  0  0  0  0  0  0  0  0  0  0
   59.2790   33.8190   47.0870 C   0  0  0  0  0  0  0  0  0  0  0  0
   60.1730   33.9670   48.1620 O   0  0  0  0  0  0  0  0  0  0  0  0
   61.5960   33.9980   48.0510 C   0  0  0  0  0  0  0  0  0  0  0  0
   62.0190   34.4535   48.9585 H   0  0  0  0  0  0  0  0  0  0  0  0
   61.8685   34.5892   47.1643 H   0  0  0  0  0  0  0  0  0  0  0  0
   62.1450   32.6150   47.8940 C   0  0  0  0  0  0  0  0  0  0  0  0
   63.1220   32.4180   47.1220 O   0  0  0  0  0  0  0  0  0  0  0  0
   61.4950   31.5190   48.5490 N   0  0  0  0  0  0  0  0  0  0  0  0
   60.6830   30.5110   47.9290 C   0  0  0  0  0  0  0  0  0  0  0  0
   60.0480   29.5670   48.7450 C   0  0  0  0  0  0  0  0  0  0  0  0
   60.1573   29.6283   49.8378 H   0  0  0  0  0  0  0  0  0  0  0  0
   59.2760   28.5470   48.1810 C   0  0  0  0  0  0  0  0  0  0  0  0
   58.7746   27.8152   48.8315 H   0  0  0  0  0  0  0  0  0  0  0  0
   59.1390   28.4540   46.7900 C   0  0  0  0  0  0  0  0  0  0  0  0
   58.1670   27.1790   46.0620 S   0  0  0  0  0  0  0  0  0  0  0  0
   57.9680   26.0390   47.0230 O   0  0  0  0  0  0  0  0  0  0  0  0
   58.8810   26.6580   44.8460 O   0  0  0  0  0  0  0  0  0  0  0  0
   56.6220   27.8130   45.5890 N   0  0  0  0  0  0  0  0  0  0  0  0
   56.4560   28.8830   44.8720 C   0  0  0  0  0  0  0  0  0  0  0  0
   55.4140   29.7160   45.0390 N   0  0  0  0  0  0  0  0  0  0  0  0
   55.5560   30.6650   44.1590 O   0  0  0  0  0  0  0  0  0  0  0  0
   56.6380   30.4830   43.4360 C   0  0  0  0  0  0  0  0  0  0  0  0
   57.0670   31.3760   42.3220 C   0  0  0  0  0  0  0  0  0  0  0  0
   57.5081   32.2942   42.7372 H   0  0  0  0  0  0  0  0  0  0  0  0
   57.8143   30.8574   41.7034 H   0  0  0  0  0  0  0  0  0  0  0  0
   56.1952   31.6353   41.7034 H   0  0  0  0  0  0  0  0  0  0  0  0
   57.2720   29.3310   43.8490 C   0  0  0  0  0  0  0  0  0  0  0  0
   58.1973   28.8799   43.4613 H   0  0  0  0  0  0  0  0  0  0  0  0
   59.7880   29.3840   45.9680 C   0  0  0  0  0  0  0  0  0  0  0  0
   59.6865   29.3137   44.8749 H   0  0  0  0  0  0  0  0  0  0  0  0
   60.5640   30.4010   46.5310 C   0  0  0  0  0  0  0  0  0  0  0  0
   61.0838   31.1183   45.8788 H   0  0  0  0  0  0  0  0  0  0  0  0
   59.3960   34.6970   45.9990 C   0  0  0  0  0  0  0  0  0  0  0  0
   60.3550   35.6570   46.0030 F   0  0  0  0  0  0  0  0  0  0  0  0
   58.5330   34.5860   44.9040 C   0  0  0  0  0  0  0  0  0  0  0  0
   58.6330   35.2769   44.0539 H   0  0  0  0  0  0  0  0  0  0  0  0
  1  2  1  0
  2  3  2  0
  3  4  1  0
  3  5  1  0
  5  6  1  0
  5  7  2  0
  7  8  1  0
  8  9  1  0
  9 10  1  0
  9 11  1  0
  9 12  1  0
 12 13  2  0
 12 14  1  0
 14 15  1  0
 15 16  2  0
 16 17  1  0
 16 18  1  0
 18 19  1  0
 18 20  2  0
 20 21  1  0
 21 22  2  0
 21 23  2  0
 21 24  1  0
 24 25  2  0
 25 26  1  0
 26 27  1  0
 27 28  1  0
 28 29  1  0
 29 30  1  0
 29 31  1  0
 29 32  1  0
 28 33  2  0
 33 34  1  0
 20 35  1  0
 35 36  1  0
 35 37  2  0
 37 38  1  0
  7 39  1  0
 39 40  1  0
 39 41  2  0
 41 42  1  0
 41  2  1  0
 37 15  1  0
 33 25  1  0
M  CHG  2  14  -1  26  -1
M  END
>  <UniqueID>  (89) 
83

>  <SMILES>  (89) 
Cc1c/c(=N\S(=O)(=O)c2ccc([N-]C(=O)COc3ccccc3F)cc2)[n-]o1

>  <Energy>  (89) 
79.97808909087264

>  <Genealogy>  (89) 
Cc1cc(=NS(=O)(=O)c2ccc([N-]C(=O)COc3ccccc3F)cc2)[n-]o1 (protonated)
Cc1c/c(=N\S(=O)(=O)c2ccc([N-]C(=O)COc3ccccc3F)cc2)[n-]o1 (cis-trans isomerization)
Cc1c/c(=N\S(=O)(=O)c2ccc([N-]C(=O)COc3ccccc3F)cc2)[n-]o1 (3D coordinates assigned)
Cc1c/c(=N\S(=O)(=O)c2ccc([N-]C(=O)COc3ccccc3F)cc2)[n-]o1 (optimized conformer: 79.97808909087264 kcal/mol)

>  <smiles>  (89) 
Cc1cc(=NS(=O)(=O)c2ccc(NC(=O)COc3ccccc3F)cc2)[nH]o1

>  <score_type>  (89) 
oracle

>  <origin>  (89) 
adg

>  <m_score__min__energy>  (89) 
-11.49

>  <m_primary>  (89) 
energy

$$$$
89:0
     RDKit          3D

 35 37  0  0  1  0  0  0  0  0999 V2000
   56.2770   20.7110   43.3420 O   0  0  0  0  0  0  0  0  0  0  0  0
   56.1680   21.8560   44.1140 C   0  0  0  0  0  0  0  0  0  0  0  0
   55.7470   21.8230   45.4260 C   0  0  0  0  0  0  0  0  0  0  0  0
   55.6320   22.9530   46.2070 C   0  0  0  0  0  0  0  0  0  0  0  0
   55.9580   24.1570   45.6340 C   0  0  0  0  0  0  0  0  0  0  0  0
   55.8870   25.4030   46.3200 N   0  0  0  0  0  0  0  0  0  0  0  0
   56.9010   26.1930   46.3280 C   0  0  0  0  0  0  0  0  0  0  0  0
   57.7060   26.1070   47.4250 N   0  0  0  0  0  0  0  0  0  0  0  0
   58.7950   26.8880   47.5360 C   0  0  0  0  0  0  0  0  0  0  0  0
   59.0880   27.7660   46.5400 C   0  0  0  0  0  0  0  0  0  0  0  0
   58.2600   27.8470   45.4230 C   0  0  0  0  0  0  0  0  0  0  0  0
   58.5460   28.6810   44.4850 N   0  0  0  0  0  0  0  0  0  0  0  0
   58.2090   30.0590   44.5130 C   0  0  0  0  0  0  0  0  0  0  0  0
   57.6790   30.7390   43.4380 C   0  0  0  0  0  0  0  0  0  0  0  0
   57.3960   32.0870   43.6040 C   0  0  0  0  0  0  0  0  0  0  0  0
   57.6230   32.7600   44.7840 C   0  0  0  0  0  0  0  0  0  0  0  0
   57.2570   34.4730   44.9760 Cl  0  0  0  0  0  0  0  0  0  0  0  0
   58.1590   32.0710   45.8700 C   0  0  0  0  0  0  0  0  0  0  0  0
   58.4760   32.8530   47.4050 Cl  0  0  0  0  0  0  0  0  0  0  0  0
   58.4370   30.7390   45.7040 C   0  0  0  0  0  0  0  0  0  0  0  0
   57.1690   27.0510   45.3310 N   0  0  0  0  0  0  0  0  0  0  0  0
   56.3850   24.1930   44.3020 C   0  0  0  0  0  0  0  0  0  0  0  0
   56.4950   23.0620   43.5340 C   0  0  0  0  0  0  0  0  0  0  0  0
   56.9590   19.9780   43.5260 H   0  0  0  0  0  0  0  0  0  0  0  0
   55.4909   20.8499   45.8704 H   0  0  0  0  0  0  0  0  0  0  0  0
   55.2915   22.8921   47.2512 H   0  0  0  0  0  0  0  0  0  0  0  0
   57.4740   25.4210   48.2000 H   0  0  0  0  0  0  0  0  0  0  0  0
   59.4418   26.8173   48.4230 H   0  0  0  0  0  0  0  0  0  0  0  0
   59.9763   28.4104   46.6162 H   0  0  0  0  0  0  0  0  0  0  0  0
   57.4870   30.2307   42.4816 H   0  0  0  0  0  0  0  0  0  0  0  0
   56.9713   32.6431   42.7552 H   0  0  0  0  0  0  0  0  0  0  0  0
   58.8603   30.1821   46.5529 H   0  0  0  0  0  0  0  0  0  0  0  0
   56.5280   27.0860   44.5100 H   0  0  0  0  0  0  0  0  0  0  0  0
   56.6420   25.1643   43.8542 H   0  0  0  0  0  0  0  0  0  0  0  0
   56.8334   23.1161   42.4887 H   0  0  0  0  0  0  0  0  0  0  0  0
  1  2  1  0
  2  3  2  0
  3  4  1  0
  4  5  2  0
  5  6  1  0
  6  7  2  0
  7  8  1  0
  8  9  1  0
  9 10  2  0
 10 11  1  0
 11 12  2  0
 12 13  1  0
 13 14  2  0
 14 15  1  0
 15 16  2  0
 16 17  1  0
 16 18  1  0
 18 19  1  0
 18 20  2  0
 11 21  1  0
  5 22  1  0
 22 23  2  0
 23  2  1  0
 21  7  1  0
 20 13  1  0
  1 24  1  0
  3 25  1  0
  4 26  1  0
  8 27  1  0
  9 28  1  0
 10 29  1  0
 14 30  1  0
 15 31  1  0
 20 32  1  0
 21 33  1  0
 22 34  1  0
 23 35  1  0
M  END
>  <smiles>  (90) 
Oc1ccc(N=c2[nH]ccc(=Nc3ccc(Cl)c(Cl)c3)[nH]2)cc1

>  <score_type>  (90) 
oracle

>  <origin>  (90) 
adg

>  <m_score__min__energy>  (90) 
-9.0899999999999999

>  <m_primary>  (90) 
energy

$$$$
90:0
     RDKit          3D

 49 52  0  0  0  0  0  0  0  0999 V2000
   59.5620   33.8180   51.3920 C   0  0  0  0  0  0  0  0  0  0  0  0
   59.8230   33.3220   49.9700 C   0  0  0  0  0  0  0  0  0  0  0  0
   58.9100   32.1190   49.6330 C   0  0  0  0  0  0  0  0  0  0  0  0
   59.4150   31.1010   48.6430 N   0  0  1  0  0  0  0  0  0  0  0  0
   58.7580   31.1480   47.3260 C   0  0  0  0  0  0  0  0  0  0  0  0
   58.2470   29.9350   46.8050 C   0  0  0  0  0  0  0  0  0  0  0  0
   57.5600   29.8950   45.5910 C   0  0  0  0  0  0  0  0  0  0  0  0
   57.0090   28.5990   45.0720 C   0  0  0  0  0  0  0  0  0  0  0  0
   57.2460   27.5740   45.9730 F   0  0  0  0  0  0  0  0  0  0  0  0
   57.6150   28.2850   43.8700 F   0  0  0  0  0  0  0  0  0  0  0  0
   55.6460   28.7170   44.8780 F   0  0  0  0  0  0  0  0  0  0  0  0
   57.3830   31.0360   44.8850 N   0  0  0  0  0  0  0  0  0  0  0  0
   57.8720   32.2300   45.3020 C   0  0  0  0  0  0  0  0  0  0  0  0
   57.6630   33.3570   44.4990 C   0  0  0  0  0  0  0  0  0  0  0  0
   58.1830   34.5940   44.8730 C   0  0  0  0  0  0  0  0  0  0  0  0
   58.9250   34.7080   46.0450 C   0  0  0  0  0  0  0  0  0  0  0  0
   59.1340   33.5910   46.8580 C   0  0  0  0  0  0  0  0  0  0  0  0
   58.5960   32.3290   46.5230 C   0  0  0  0  0  0  0  0  0  0  0  0
   60.8610   30.7100   48.5430 C   0  0  2  0  0  0  0  0  0  0  0  0
   61.4190   30.0700   49.8450 C   0  0  0  0  0  0  0  0  0  0  0  0
   62.6830   30.8550   50.2400 C   0  0  0  0  0  0  0  0  0  0  0  0
   62.8310   31.8710   49.1720 C   0  0  0  0  0  0  0  0  0  0  0  0
   63.9060   32.7520   49.0270 C   0  0  0  0  0  0  0  0  0  0  0  0
   63.9860   33.5360   47.8660 C   0  0  0  0  0  0  0  0  0  0  0  0
   63.0260   33.3900   46.8520 C   0  0  0  0  0  0  0  0  0  0  0  0
   61.9640   32.4870   47.0120 C   0  0  0  0  0  0  0  0  0  0  0  0
   61.8350   31.7940   48.2210 C   0  0  0  0  0  0  0  0  0  0  0  0
   59.9487   33.0831   52.1134 H   0  0  0  0  0  0  0  0  0  0  0  0
   60.0696   34.7822   51.5430 H   0  0  0  0  0  0  0  0  0  0  0  0
   58.4799   33.9457   51.5430 H   0  0  0  0  0  0  0  0  0  0  0  0
   59.6214   34.1380   49.2604 H   0  0  0  0  0  0  0  0  0  0  0  0
   60.8724   33.0009   49.8950 H   0  0  0  0  0  0  0  0  0  0  0  0
   58.7091   31.5873   50.5748 H   0  0  0  0  0  0  0  0  0  0  0  0
   58.0347   32.5686   49.1413 H   0  0  0  0  0  0  0  0  0  0  0  0
   59.0190   30.2270   49.0670 H   0  0  0  0  0  0  0  0  0  0  0  0
   58.3948   29.0028   47.3699 H   0  0  0  0  0  0  0  0  0  0  0  0
   57.0850   33.2655   43.5676 H   0  0  0  0  0  0  0  0  0  0  0  0
   58.0076   35.4788   44.2434 H   0  0  0  0  0  0  0  0  0  0  0  0
   59.3487   35.6816   46.3324 H   0  0  0  0  0  0  0  0  0  0  0  0
   59.7292   33.6967   47.7770 H   0  0  0  0  0  0  0  0  0  0  0  0
   60.8017   30.0059   47.7000 H   0  0  0  0  0  0  0  0  0  0  0  0
   60.6695   30.1362   50.6474 H   0  0  0  0  0  0  0  0  0  0  0  0
   61.6562   29.0080   49.6845 H   0  0  0  0  0  0  0  0  0  0  0  0
   62.5524   31.3363   51.2204 H   0  0  0  0  0  0  0  0  0  0  0  0
   63.5683   30.2084   50.3308 H   0  0  0  0  0  0  0  0  0  0  0  0
   64.6757   32.8295   49.8090 H   0  0  0  0  0  0  0  0  0  0  0  0
   64.8013   34.2653   47.7503 H   0  0  0  0  0  0  0  0  0  0  0  0
   63.1066   33.9848   45.9302 H   0  0  0  0  0  0  0  0  0  0  0  0
   61.2422   32.3259   46.1977 H   0  0  0  0  0  0  0  0  0  0  0  0
  1  2  1  0
  2  3  1  0
  3  4  1  0
  4  5  1  0
  5  6  2  0
  6  7  1  0
  7  8  1  0
  8  9  1  0
  8 10  1  0
  8 11  1  0
  7 12  2  0
 12 13  1  0
 13 14  2  0
 14 15  1  0
 15 16  2  0
 16 17  1  0
 17 18  2  0
  4 19  1  0
 19 20  1  0
 20 21  1  0
 21 22  1  0
 22 23  2  0
 23 24  1  0
 24 25  2  0
 25 26  1  0
 26 27  2  0
 18  5  1  0
 27 19  1  0
 18 13  1  0
 27 22  1  0
  1 28  1  0
  1 29  1  0
  1 30  1  0
  2 31  1  0
  2 32  1  0
  3 33  1  0
  3 34  1  0
  4 35  1  1
  6 36  1  0
 14 37  1  0
 15 38  1  0
 16 39  1  0
 17 40  1  0
 19 41  1  6
 20 42  1  0
 20 43  1  0
 21 44  1  0
 21 45  1  0
 23 46  1  0
 24 47  1  0
 25 48  1  0
 26 49  1  0
M  CHG  1   4   1
M  END
>  <UniqueID>  (91) 
84

>  <SMILES>  (91) 
CCC[N@@H+](c1cc(C(F)(F)F)nc2ccccc12)[C@@H]1CCc2ccccc21

>  <Energy>  (91) 
97.17120527636004

>  <Genealogy>  (91) 
CCC[NH+](c1cc(C(F)(F)F)nc2ccccc12)C1CCc2ccccc21 (protonated)
CCC[N@@H+](c1cc(C(F)(F)F)nc2ccccc12)[C@@H]1CCc2ccccc21 (chirality)
CCC[N@@H+](c1cc(C(F)(F)F)nc2ccccc12)[C@@H]1CCc2ccccc21 (3D coordinates assigned)
CCC[N@@H+](c1cc(C(F)(F)F)nc2ccccc12)[C@@H]1CCc2ccccc21 (nonaromatic ring conformer: 97.17120527636004 kcal/mol)

>  <smiles>  (91) 
CCCN(c1cc(C(F)(F)F)nc2ccccc12)C1CCc2ccccc21

>  <score_type>  (91) 
oracle

>  <origin>  (91) 
adg

>  <m_score__min__energy>  (91) 
-6.4299999999999997

>  <m_primary>  (91) 
energy

$$$$
91:0
     RDKit          3D

 39 42  0  0  0  0  0  0  0  0999 V2000
   54.7850   26.3410   46.0010 N   0  0  0  0  0  0  0  0  0  0  0  0
   56.4750   25.9930   46.0850 S   0  0  0  0  0  0  0  0  0  0  0  0
   56.9020   25.2630   44.8430 O   0  0  0  0  0  0  0  0  0  0  0  0
   56.7440   25.1150   47.2760 O   0  0  0  0  0  0  0  0  0  0  0  0
   57.3790   27.4950   46.2340 C   0  0  0  0  0  0  0  0  0  0  0  0
   56.9060   28.6700   45.6000 C   0  0  0  0  0  0  0  0  0  0  0  0
   57.6080   29.8820   45.7240 C   0  0  0  0  0  0  0  0  0  0  0  0
   58.7840   29.8780   46.4790 C   0  0  0  0  0  0  0  0  0  0  0  0
   59.2280   28.7540   47.1100 C   0  0  0  0  0  0  0  0  0  0  0  0
   58.5550   27.5390   47.0120 C   0  0  0  0  0  0  0  0  0  0  0  0
   60.3340   29.0180   47.8270 N   0  0  0  0  0  0  0  0  0  0  0  0
   60.5420   30.3430   47.6000 C   0  0  0  0  0  0  0  0  0  0  0  0
   61.6950   31.0640   48.1860 C   0  0  0  0  0  0  0  0  0  0  0  0
   61.8690   31.0820   49.5800 C   0  0  0  0  0  0  0  0  0  0  0  0
   62.9580   31.7520   50.1470 C   0  0  0  0  0  0  0  0  0  0  0  0
   63.8890   32.3970   49.3280 C   0  0  0  0  0  0  0  0  0  0  0  0
   65.2540   33.2350   50.0410 Cl  0  0  0  0  0  0  0  0  0  0  0  0
   63.7350   32.3640   47.9390 C   0  0  0  0  0  0  0  0  0  0  0  0
   62.6470   31.6960   47.3680 C   0  0  0  0  0  0  0  0  0  0  0  0
   59.6070   30.8990   46.7780 N   0  0  0  0  0  0  0  0  0  0  0  0
   59.4350   32.2830   46.4240 C   0  0  0  0  0  0  0  0  0  0  0  0
   58.8900   32.6330   45.1780 C   0  0  0  0  0  0  0  0  0  0  0  0
   58.7340   33.9780   44.8320 C   0  0  0  0  0  0  0  0  0  0  0  0
   59.1190   34.9810   45.7250 C   0  0  0  0  0  0  0  0  0  0  0  0
   59.6620   34.6400   46.9680 C   0  0  0  0  0  0  0  0  0  0  0  0
   59.8180   33.2960   47.3190 C   0  0  0  0  0  0  0  0  0  0  0  0
   54.5970   27.1010   46.6930 H   0  0  0  0  0  0  0  0  0  0  0  0
   55.9813   28.6340   45.0054 H   0  0  0  0  0  0  0  0  0  0  0  0
   57.2440   30.8019   45.2431 H   0  0  0  0  0  0  0  0  0  0  0  0
   58.9289   26.6409   47.5255 H   0  0  0  0  0  0  0  0  0  0  0  0
   61.1453   30.5667   50.2286 H   0  0  0  0  0  0  0  0  0  0  0  0
   63.0820   31.7713   51.2398 H   0  0  0  0  0  0  0  0  0  0  0  0
   64.4715   32.8648   47.2934 H   0  0  0  0  0  0  0  0  0  0  0  0
   62.5360   31.6652   46.2740 H   0  0  0  0  0  0  0  0  0  0  0  0
   58.5850   31.8462   44.4723 H   0  0  0  0  0  0  0  0  0  0  0  0
   58.3072   34.2474   43.8546 H   0  0  0  0  0  0  0  0  0  0  0  0
   58.9951   36.0390   45.4505 H   0  0  0  0  0  0  0  0  0  0  0  0
   59.9666   35.4302   47.6700 H   0  0  0  0  0  0  0  0  0  0  0  0
   60.2419   33.0307   48.2988 H   0  0  0  0  0  0  0  0  0  0  0  0
  1  2  1  0
  2  3  2  0
  2  4  2  0
  2  5  1  0
  5  6  2  0
  6  7  1  0
  7  8  2  0
  8  9  1  0
  9 10  2  0
  9 11  1  0
 11 12  2  0
 12 13  1  0
 13 14  2  0
 14 15  1  0
 15 16  2  0
 16 17  1  0
 16 18  1  0
 18 19  2  0
 12 20  1  0
 20 21  1  0
 21 22  2  0
 22 23  1  0
 23 24  2  0
 24 25  1  0
 25 26  2  0
 10  5  1  0
 19 13  1  0
 26 21  1  0
 20  8  1  0
  1 27  1  0
  6 28  1  0
  7 29  1  0
 10 30  1  0
 14 31  1  0
 15 32  1  0
 18 33  1  0
 19 34  1  0
 22 35  1  0
 23 36  1  0
 24 37  1  0
 25 38  1  0
 26 39  1  0
M  CHG  1   1  -1
M  END
>  <UniqueID>  (92) 
85

>  <SMILES>  (92) 
[NH-]S(=O)(=O)c1ccc2c(c1)nc(-c1ccc(Cl)cc1)n2-c1ccccc1

>  <Energy>  (92) 
90.48832486149722

>  <Genealogy>  (92) 
[NH-]S(=O)(=O)c1ccc2c(c1)nc(-c1ccc(Cl)cc1)n2-c1ccccc1 (protonated)
[NH-]S(=O)(=O)c1ccc2c(c1)nc(-c1ccc(Cl)cc1)n2-c1ccccc1 (3D coordinates assigned)
[NH-]S(=O)(=O)c1ccc2c(c1)nc(-c1ccc(Cl)cc1)n2-c1ccccc1 (optimized conformer: 90.48832486149722 kcal/mol)

>  <smiles>  (92) 
NS(=O)(=O)c1ccc2c(c1)nc(-c1ccc(Cl)cc1)n2-c1ccccc1

>  <score_type>  (92) 
oracle

>  <origin>  (92) 
adg

>  <m_score__min__energy>  (92) 
-12

>  <m_primary>  (92) 
energy

$$$$
92:0
     RDKit          3D

 51 54  0  0  0  0  0  0  0  0999 V2000
   56.5380   30.8400   51.2480 O   0  0  0  0  0  0  0  0  0  0  0  0
   57.7890   30.9250   51.3570 C   0  0  0  0  0  0  0  0  0  0  0  0
   58.6160   30.0600   50.5670 N   0  0  0  0  0  0  0  0  0  0  0  0
   60.0730   30.1140   50.5030 C   0  0  0  0  0  0  0  0  0  0  0  0
   60.5290   30.1670   49.0810 C   0  0  0  0  0  0  0  0  0  0  0  0
   59.9520   29.5220   48.0090 C   0  0  0  0  0  0  0  0  0  0  0  0
   60.6370   29.9240   46.9260 N   0  0  0  0  0  0  0  0  0  0  0  0
   60.4450   29.4700   45.5540 C   0  0  0  0  0  0  0  0  0  0  0  0
   58.9800   29.4570   45.2220 C   0  0  0  0  0  0  0  0  0  0  0  0
   58.1820   28.3620   45.5950 C   0  0  0  0  0  0  0  0  0  0  0  0
   56.8290   28.3260   45.2430 C   0  0  0  0  0  0  0  0  0  0  0  0
   56.2670   29.3760   44.5120 C   0  0  0  0  0  0  0  0  0  0  0  0
   54.9550   29.3400   44.1700 F   0  0  0  0  0  0  0  0  0  0  0  0
   57.0580   30.4640   44.1260 C   0  0  0  0  0  0  0  0  0  0  0  0
   58.4120   30.5020   44.4750 C   0  0  0  0  0  0  0  0  0  0  0  0
   61.5890   30.7600   47.3130 N   0  0  0  0  0  0  0  0  0  0  0  0
   61.5400   30.9350   48.6250 N   0  0  0  0  0  0  0  0  0  0  0  0
   58.3630   31.9310   52.2710 C   0  0  0  0  0  0  0  0  0  0  0  0
   58.1630   31.7650   53.6500 C   0  0  0  0  0  0  0  0  0  0  0  0
   58.6210   32.7230   54.5560 C   0  0  0  0  0  0  0  0  0  0  0  0
   59.2970   33.8520   54.0940 C   0  0  0  0  0  0  0  0  0  0  0  0
   59.5210   34.0240   52.7270 C   0  0  0  0  0  0  0  0  0  0  0  0
   59.0730   33.0660   51.8000 C   0  0  0  0  0  0  0  0  0  0  0  0
   59.4080   33.2490   50.3670 C   0  0  0  0  0  0  0  0  0  0  0  0
   60.4640   33.8600   50.0430 O   0  0  0  0  0  0  0  0  0  0  0  0
   58.5480   32.7100   49.3500 N   0  0  0  0  0  0  0  0  0  0  0  0
   58.6050   33.0860   47.9630 C   0  0  0  0  0  0  0  0  0  0  0  0
   57.4230   33.1140   47.2080 C   0  0  0  0  0  0  0  0  0  0  0  0
   57.4520   33.5030   45.8640 C   0  0  0  0  0  0  0  0  0  0  0  0
   58.6580   33.8830   45.2690 C   0  0  0  0  0  0  0  0  0  0  0  0
   59.8360   33.8770   46.0170 C   0  0  0  0  0  0  0  0  0  0  0  0
   59.8130   33.4860   47.3610 C   0  0  0  0  0  0  0  0  0  0  0  0
   60.4262   31.0121   51.0309 H   0  0  0  0  0  0  0  0  0  0  0  0
   60.4853   29.2111   50.9771 H   0  0  0  0  0  0  0  0  0  0  0  0
   59.1043   28.8215   48.0348 H   0  0  0  0  0  0  0  0  0  0  0  0
   60.9689   30.1512   44.8674 H   0  0  0  0  0  0  0  0  0  0  0  0
   60.8502   28.4528   45.4482 H   0  0  0  0  0  0  0  0  0  0  0  0
   58.6227   27.5310   46.1653 H   0  0  0  0  0  0  0  0  0  0  0  0
   56.2063   27.4699   45.5420 H   0  0  0  0  0  0  0  0  0  0  0  0
   56.6152   31.2889   43.5485 H   0  0  0  0  0  0  0  0  0  0  0  0
   59.0344   31.3537   44.1632 H   0  0  0  0  0  0  0  0  0  0  0  0
   57.6401   30.8710   54.0207 H   0  0  0  0  0  0  0  0  0  0  0  0
   58.4488   32.5875   55.6340 H   0  0  0  0  0  0  0  0  0  0  0  0
   59.6544   34.6084   54.8083 H   0  0  0  0  0  0  0  0  0  0  0  0
   60.0535   34.9183   52.3711 H   0  0  0  0  0  0  0  0  0  0  0  0
   57.9100   31.9250   49.6180 H   0  0  0  0  0  0  0  0  0  0  0  0
   56.4686   32.8288   47.6747 H   0  0  0  0  0  0  0  0  0  0  0  0
   56.5233   33.5097   45.2745 H   0  0  0  0  0  0  0  0  0  0  0  0
   58.6787   34.1866   44.2119 H   0  0  0  0  0  0  0  0  0  0  0  0
   60.7845   34.1801   45.5497 H   0  0  0  0  0  0  0  0  0  0  0  0
   60.7426   33.4914   47.9490 H   0  0  0  0  0  0  0  0  0  0  0  0
  1  2  2  0
  2  3  1  0
  3  4  1  0
  4  5  1  0
  5  6  2  0
  6  7  1  0
  7  8  1  0
  8  9  1  0
  9 10  2  0
 10 11  1  0
 11 12  2  0
 12 13  1  0
 12 14  1  0
 14 15  2  0
  7 16  1  0
 16 17  2  0
  2 18  1  0
 18 19  2  0
 19 20  1  0
 20 21  2  0
 21 22  1  0
 22 23  2  0
 23 24  1  0
 24 25  2  0
 24 26  1  0
 26 27  1  0
 27 28  2  0
 28 29  1  0
 29 30  2  0
 30 31  1  0
 31 32  2  0
 17  5  1  0
 23 18  1  0
 32 27  1  0
 15  9  1  0
  4 33  1  0
  4 34  1  0
  6 35  1  0
  8 36  1  0
  8 37  1  0
 10 38  1  0
 11 39  1  0
 14 40  1  0
 15 41  1  0
 19 42  1  0
 20 43  1  0
 21 44  1  0
 22 45  1  0
 26 46  1  0
 28 47  1  0
 29 48  1  0
 30 49  1  0
 31 50  1  0
 32 51  1  0
M  CHG  1   3  -1
M  END
>  <UniqueID>  (93) 
86

>  <SMILES>  (93) 
O=C([N-]Cc1cn(Cc2ccc(F)cc2)nn1)c1ccccc1C(=O)Nc1ccccc1

>  <Energy>  (93) 
99.91491717446065

>  <Genealogy>  (93) 
O=C([N-]Cc1cn(Cc2ccc(F)cc2)nn1)c1ccccc1C(=O)Nc1ccccc1 (protonated)
O=C([N-]Cc1cn(Cc2ccc(F)cc2)nn1)c1ccccc1C(=O)Nc1ccccc1 (3D coordinates assigned)
O=C([N-]Cc1cn(Cc2ccc(F)cc2)nn1)c1ccccc1C(=O)Nc1ccccc1 (optimized conformer: 99.91491717446065 kcal/mol)

>  <smiles>  (93) 
O=C(NCc1cn(Cc2ccc(F)cc2)nn1)c1ccccc1C(=O)Nc1ccccc1

>  <score_type>  (93) 
oracle

>  <origin>  (93) 
adg

>  <m_score__min__energy>  (93) 
-11.93

>  <m_primary>  (93) 
energy

$$$$
93:0
     RDKit          3D

 39 41  0  0  0  0  0  0  0  0999 V2000
   56.4970   30.2020   43.5560 C   0  0  0  0  0  0  0  0  0  0  0  0
   56.4820   30.8280   44.8350 O   0  0  0  0  0  0  0  0  0  0  0  0
   57.3920   31.8130   45.2540 C   0  0  0  0  0  0  0  0  0  0  0  0
   57.0970   33.1850   45.1360 C   0  0  0  0  0  0  0  0  0  0  0  0
   57.9980   34.1470   45.5930 C   0  0  0  0  0  0  0  0  0  0  0  0
   59.2060   33.7610   46.1840 C   0  0  0  0  0  0  0  0  0  0  0  0
   60.1840   34.8070   46.6480 C   0  0  0  0  0  0  0  0  0  0  0  0
   61.0280   34.2690   47.7150 N   0  0  0  0  0  0  0  0  0  0  0  0
   60.6710   34.1990   48.9840 N   0  0  0  0  0  0  0  0  0  0  0  0
   61.7350   33.7320   49.6610 C   0  0  0  0  0  0  0  0  0  0  0  0
   61.7350   33.4570   51.1270 C   0  0  0  0  0  0  0  0  0  0  0  0
   62.7890   33.4890   48.8500 N   0  0  0  0  0  0  0  0  0  0  0  0
   62.3060   33.8410   47.6380 C   0  0  0  0  0  0  0  0  0  0  0  0
   63.1330   33.8220   46.3910 C   0  0  0  0  0  0  0  0  0  0  0  0
   59.5130   32.3990   46.2980 C   0  0  0  0  0  0  0  0  0  0  0  0
   58.6210   31.4170   45.8280 C   0  0  0  0  0  0  0  0  0  0  0  0
   58.9910   29.9860   45.9480 C   0  0  0  0  0  0  0  0  0  0  0  0
   59.6220   29.2530   44.9260 C   0  0  0  0  0  0  0  0  0  0  0  0
   59.8920   27.9370   45.2680 C   0  0  0  0  0  0  0  0  0  0  0  0
   59.3580   27.6850   46.8400 S   0  0  0  0  0  0  0  0  0  0  0  0
   58.7780   29.2390   47.1050 C   0  0  0  0  0  0  0  0  0  0  0  0
   56.5232   29.1096   43.6827 H   0  0  0  0  0  0  0  0  0  0  0  0
   55.5918   30.4849   42.9987 H   0  0  0  0  0  0  0  0  0  0  0  0
   57.3876   30.5279   42.9987 H   0  0  0  0  0  0  0  0  0  0  0  0
   56.1475   33.5010   44.6793 H   0  0  0  0  0  0  0  0  0  0  0  0
   57.7573   35.2152   45.4881 H   0  0  0  0  0  0  0  0  0  0  0  0
   60.8176   35.1131   45.8025 H   0  0  0  0  0  0  0  0  0  0  0  0
   59.6275   35.6745   47.0324 H   0  0  0  0  0  0  0  0  0  0  0  0
   59.7390   34.4680   49.3710 H   0  0  0  0  0  0  0  0  0  0  0  0
   62.7721   33.3894   51.4874 H   0  0  0  0  0  0  0  0  0  0  0  0
   61.2165   34.2721   51.6530 H   0  0  0  0  0  0  0  0  0  0  0  0
   61.2165   32.5067   51.3218 H   0  0  0  0  0  0  0  0  0  0  0  0
   64.1996   33.7975   46.6588 H   0  0  0  0  0  0  0  0  0  0  0  0
   62.8830   32.9294   45.7988 H   0  0  0  0  0  0  0  0  0  0  0  0
   62.9243   34.7252   45.7988 H   0  0  0  0  0  0  0  0  0  0  0  0
   60.4630   32.0932   46.7606 H   0  0  0  0  0  0  0  0  0  0  0  0
   59.8773   29.6841   43.9467 H   0  0  0  0  0  0  0  0  0  0  0  0
   60.3727   27.1878   44.6217 H   0  0  0  0  0  0  0  0  0  0  0  0
   58.3108   29.6039   48.0316 H   0  0  0  0  0  0  0  0  0  0  0  0
  1  2  1  0
  2  3  1  0
  3  4  2  0
  4  5  1  0
  5  6  2  0
  6  7  1  0
  7  8  1  0
  8  9  1  0
  9 10  2  0
 10 11  1  0
 10 12  1  0
 12 13  2  0
 13 14  1  0
  6 15  1  0
 15 16  2  0
 16 17  1  0
 17 18  1  0
 18 19  2  0
 19 20  1  0
 20 21  1  0
 16  3  1  0
 21 17  2  0
 13  8  1  0
  1 22  1  0
  1 23  1  0
  1 24  1  0
  4 25  1  0
  5 26  1  0
  7 27  1  0
  7 28  1  0
  9 29  1  0
 11 30  1  0
 11 31  1  0
 11 32  1  0
 14 33  1  0
 14 34  1  0
 14 35  1  0
 15 36  1  0
 18 37  1  0
 19 38  1  0
 21 39  1  0
M  CHG  1   9   1
M  END
>  <UniqueID>  (94) 
87

>  <SMILES>  (94) 
COc1ccc(Cn2[nH+]c(C)nc2C)cc1-c1ccsc1

>  <Energy>  (94) 
100.49015428544423

>  <Genealogy>  (94) 
COc1ccc(Cn2[nH+]c(C)nc2C)cc1-c1ccsc1 (protonated)
COc1ccc(Cn2[nH+]c(C)nc2C)cc1-c1ccsc1 (3D coordinates assigned)
COc1ccc(Cn2[nH+]c(C)nc2C)cc1-c1ccsc1 (optimized conformer: 100.49015428544423 kcal/mol)

>  <smiles>  (94) 
COc1ccc(Cn2nc(C)nc2C)cc1-c1ccsc1

>  <score_type>  (94) 
oracle

>  <origin>  (94) 
adg

>  <m_score__min__energy>  (94) 
-6.0499999999999998

>  <m_primary>  (94) 
energy

$$$$
94:0
     RDKit          3D

 39 40  0  0  0  0  0  0  0  0999 V2000
   57.9610   21.5410   43.7460 C   0  0  0  0  0  0  0  0  0  0  0  0
   56.8570   22.5510   43.7660 C   0  0  0  0  0  0  0  0  0  0  0  0
   55.9140   22.4300   42.9380 O   0  0  0  0  0  0  0  0  0  0  0  0
   56.8470   23.6830   44.7220 C   0  0  0  0  0  0  0  0  0  0  0  0
   56.4880   23.6150   46.0640 C   0  0  0  0  0  0  0  0  0  0  0  0
   56.0530   22.3890   46.8040 C   0  0  0  0  0  0  0  0  0  0  0  0
   56.5790   24.8300   46.6340 N   0  0  0  0  0  0  0  0  0  0  0  0
   56.9800   25.6930   45.6800 C   0  0  0  0  0  0  0  0  0  0  0  0
   57.1640   27.1350   45.9360 C   0  0  0  0  0  0  0  0  0  0  0  0
   57.4370   27.5190   47.1050 O   0  0  0  0  0  0  0  0  0  0  0  0
   56.9460   28.1010   44.8970 N   0  0  0  0  0  0  0  0  0  0  0  0
   57.4540   29.4460   44.9310 C   0  0  0  0  0  0  0  0  0  0  0  0
   56.8910   30.4630   44.1410 C   0  0  0  0  0  0  0  0  0  0  0  0
   57.3890   31.7670   44.2070 C   0  0  0  0  0  0  0  0  0  0  0  0
   58.4510   32.0820   45.0760 C   0  0  0  0  0  0  0  0  0  0  0  0
   58.9840   33.3790   45.1680 O   0  0  0  0  0  0  0  0  0  0  0  0
   58.4260   34.4350   45.9460 C   0  0  0  0  0  0  0  0  0  0  0  0
   59.4060   34.9530   46.7700 F   0  0  0  0  0  0  0  0  0  0  0  0
   57.3930   33.9500   46.7270 F   0  0  0  0  0  0  0  0  0  0  0  0
   58.9970   31.0700   45.8800 C   0  0  0  0  0  0  0  0  0  0  0  0
   60.3160   31.4260   46.9850 Cl  0  0  0  0  0  0  0  0  0  0  0  0
   58.4960   29.7660   45.8120 C   0  0  0  0  0  0  0  0  0  0  0  0
   57.1860   25.0140   44.4820 C   0  0  0  0  0  0  0  0  0  0  0  0
   57.7630   25.5800   43.2170 C   0  0  0  0  0  0  0  0  0  0  0  0
   58.2417   21.2842   44.7781 H   0  0  0  0  0  0  0  0  0  0  0  0
   57.6202   20.6355   43.2226 H   0  0  0  0  0  0  0  0  0  0  0  0
   58.8326   21.9609   43.2226 H   0  0  0  0  0  0  0  0  0  0  0  0
   56.1179   22.5719   47.8867 H   0  0  0  0  0  0  0  0  0  0  0  0
   55.0143   22.1473   46.5346 H   0  0  0  0  0  0  0  0  0  0  0  0
   56.7071   21.5467   46.5346 H   0  0  0  0  0  0  0  0  0  0  0  0
   56.3570   25.0640   47.6280 H   0  0  0  0  0  0  0  0  0  0  0  0
   56.2960   27.8410   44.1200 H   0  0  0  0  0  0  0  0  0  0  0  0
   56.0534   30.2311   43.4667 H   0  0  0  0  0  0  0  0  0  0  0  0
   56.9483   32.5527   43.5757 H   0  0  0  0  0  0  0  0  0  0  0  0
   58.0400   35.2163   45.2748 H   0  0  0  0  0  0  0  0  0  0  0  0
   58.9240   28.9839   46.4563 H   0  0  0  0  0  0  0  0  0  0  0  0
   58.5278   26.3302   43.4664 H   0  0  0  0  0  0  0  0  0  0  0  0
   58.2209   24.7711   42.6288 H   0  0  0  0  0  0  0  0  0  0  0  0
   56.9631   26.0534   42.6288 H   0  0  0  0  0  0  0  0  0  0  0  0
  1  2  1  0
  2  3  2  0
  2  4  1  0
  4  5  2  0
  5  6  1  0
  5  7  1  0
  7  8  1  0
  8  9  1  0
  9 10  2  0
  9 11  1  0
 11 12  1  0
 12 13  2  0
 13 14  1  0
 14 15  2  0
 15 16  1  0
 16 17  1  0
 17 18  1  0
 17 19  1  0
 15 20  1  0
 20 21  1  0
 20 22  2  0
  8 23  2  0
 23 24  1  0
 23  4  1  0
 22 12  1  0
  1 25  1  0
  1 26  1  0
  1 27  1  0
  6 28  1  0
  6 29  1  0
  6 30  1  0
  7 31  1  0
 11 32  1  0
 13 33  1  0
 14 34  1  0
 17 35  1  0
 22 36  1  0
 24 37  1  0
 24 38  1  0
 24 39  1  0
M  END
>  <UniqueID>  (95) 
88

>  <SMILES>  (95) 
CC(=O)c1c(C)[nH]c(C(=O)Nc2ccc(OC(F)F)c(Cl)c2)c1C

>  <Energy>  (95) 
70.79526953781412

>  <Genealogy>  (95) 
CC(=O)c1c(C)[nH]c(C(=O)Nc2ccc(OC(F)F)c(Cl)c2)c1C (3D coordinates assigned)
CC(=O)c1c(C)[nH]c(C(=O)Nc2ccc(OC(F)F)c(Cl)c2)c1C (optimized conformer: 70.79526953781412 kcal/mol)

>  <smiles>  (95) 
CC(=O)c1c(C)[nH]c(C(=O)Nc2ccc(OC(F)F)c(Cl)c2)c1C

>  <score_type>  (95) 
oracle

>  <origin>  (95) 
adg

>  <m_score__min__energy>  (95) 
-6.9400000000000004

>  <m_primary>  (95) 
energy

$$$$
95:0
     RDKit          3D

 28 30  0  0  0  0  0  0  0  0999 V2000
   58.7891   28.4955   46.7872 H   0  0  0  0  0  0  0  0  0  0  0  0
   57.8220   28.1410   46.4010 C   0  0  0  0  0  0  0  0  0  0  0  0
   57.3410   27.0320   46.8860 N   0  0  0  0  0  0  0  0  0  0  0  0
   57.0730   25.8730   46.1290 N   0  0  0  0  0  0  0  0  0  0  0  0
   55.7940   25.5740   45.7420 C   0  0  0  0  0  0  0  0  0  0  0  0
   54.8380   26.3380   46.0440 O   0  0  0  0  0  0  0  0  0  0  0  0
   55.5380   24.4430   45.0360 N   0  0  0  0  0  0  0  0  0  0  0  0
   56.5270   23.5740   44.7150 C   0  0  0  0  0  0  0  0  0  0  0  0
   56.2330   22.4190   43.9810 C   0  0  0  0  0  0  0  0  0  0  0  0
   55.2008   22.2216   43.6559 H   0  0  0  0  0  0  0  0  0  0  0  0
   57.2520   21.5160   43.6610 C   0  0  0  0  0  0  0  0  0  0  0  0
   57.0200   20.6087   43.0839 H   0  0  0  0  0  0  0  0  0  0  0  0
   58.5650   21.7640   44.0730 C   0  0  0  0  0  0  0  0  0  0  0  0
   59.3631   21.0509   43.8191 H   0  0  0  0  0  0  0  0  0  0  0  0
   58.8670   22.9160   44.8070 C   0  0  0  0  0  0  0  0  0  0  0  0
   59.9010   23.1072   45.1300 H   0  0  0  0  0  0  0  0  0  0  0  0
   57.8480   23.8300   45.1320 C   0  0  0  0  0  0  0  0  0  0  0  0
   58.0950   25.0050   45.8630 C   0  0  0  0  0  0  0  0  0  0  0  0
   59.2630   25.2700   46.2640 O   0  0  0  0  0  0  0  0  0  0  0  0
   57.1510   28.9530   45.3650 C   0  0  0  0  0  0  0  0  0  0  0  0
   57.7930   29.8790   44.5680 C   0  0  0  0  0  0  0  0  0  0  0  0
   58.8525   30.1703   44.6186 H   0  0  0  0  0  0  0  0  0  0  0  0
   56.8420   30.3670   43.6950 C   0  0  0  0  0  0  0  0  0  0  0  0
   56.9915   31.1345   42.9213 H   0  0  0  0  0  0  0  0  0  0  0  0
   55.6660   29.7030   43.9830 C   0  0  0  0  0  0  0  0  0  0  0  0
   54.7101   29.8589   43.4615 H   0  0  0  0  0  0  0  0  0  0  0  0
   55.8600   28.8380   44.9940 N   0  0  0  0  0  0  0  0  0  0  0  0
   55.1450   28.1760   45.3690 H   0  0  0  0  0  0  0  0  0  0  0  0
  1  2  1  0
  2  3  2  0
  3  4  1  0
  4  5  1  0
  5  6  2  0
  5  7  1  0
  7  8  1  0
  8  9  2  0
  9 10  1  0
  9 11  1  0
 11 12  1  0
 11 13  2  0
 13 14  1  0
 13 15  1  0
 15 16  1  0
 15 17  2  0
 17 18  1  0
 18 19  2  0
  2 20  1  0
 20 21  2  0
 21 22  1  0
 21 23  1  0
 23 24  1  0
 23 25  2  0
 25 26  1  0
 25 27  1  0
 27 28  1  0
 18  4  1  0
 27 20  1  0
 17  8  1  0
M  CHG  1   7  -1
M  END
>  <UniqueID>  (96) 
89

>  <SMILES>  (96) 
O=c1[n-]c2ccccc2c(=O)n1/N=C\c1ccc[nH]1

>  <Energy>  (96) 
72.13262059949027

>  <Genealogy>  (96) 
O=c1[n-]c2ccccc2c(=O)n1N=Cc1ccc[nH]1 (protonated)
O=c1[n-]c2ccccc2c(=O)n1/N=C\c1ccc[nH]1 (cis-trans isomerization)
O=c1[n-]c2ccccc2c(=O)n1/N=C\c1ccc[nH]1 (3D coordinates assigned)
O=c1[n-]c2ccccc2c(=O)n1/N=C\c1ccc[nH]1 (optimized conformer: 72.13262059949027 kcal/mol)

>  <smiles>  (96) 
O=c1[nH]c2ccccc2c(=O)n1N=Cc1ccc[nH]1

>  <score_type>  (96) 
oracle

>  <origin>  (96) 
adg

>  <m_score__min__energy>  (96) 
-8.7699999999999996

>  <m_primary>  (96) 
energy

$$$$
