0:0
     RDKit          3D

 69 73  0  0  0  0  0  0  0  0999 V2000
   56.3630   30.2050   43.0490 O   0  0  0  0  0  0  0  0  0  0  0  0
   56.8300   30.4370   44.1960 C   0  0  0  0  0  0  0  0  0  0  0  0
   56.4920   31.6670   44.8450 N   0  0  0  0  0  0  0  0  0  0  0  0
   57.4410   32.6970   45.1640 C   0  0  0  0  0  0  0  0  0  0  0  0
   58.2000   33.3310   44.1640 C   0  0  0  0  0  0  0  0  0  0  0  0
   59.2040   34.2380   44.5130 C   0  0  0  0  0  0  0  0  0  0  0  0
   59.4550   34.5290   45.8560 C   0  0  0  0  0  0  0  0  0  0  0  0
   58.6810   33.9230   46.8650 C   0  0  0  0  0  0  0  0  0  0  0  0
   58.8900   34.1840   48.2290 O   0  0  0  0  0  0  0  0  0  0  0  0
   59.6190   33.3330   49.1120 C   0  0  0  0  0  0  0  0  0  0  0  0
   60.9280   32.9440   48.4810 C   0  0  0  0  0  0  0  0  0  0  0  0
   62.0130   33.8360   48.4670 C   0  0  0  0  0  0  0  0  0  0  0  0
   63.2200   33.4650   47.8640 C   0  0  0  0  0  0  0  0  0  0  0  0
   63.3490   32.2050   47.2710 C   0  0  0  0  0  0  0  0  0  0  0  0
   62.2710   31.3170   47.2760 C   0  0  0  0  0  0  0  0  0  0  0  0
   61.0620   31.6840   47.8720 C   0  0  0  0  0  0  0  0  0  0  0  0
   57.6710   33.0170   46.5070 C   0  0  0  0  0  0  0  0  0  0  0  0
   57.7710   29.4770   44.8150 C   0  0  0  0  0  0  0  0  0  0  0  0
   59.1320   29.7930   44.9540 C   0  0  0  0  0  0  0  0  0  0  0  0
   59.9990   28.9040   45.5940 C   0  0  0  0  0  0  0  0  0  0  0  0
   59.4950   27.6990   46.1080 C   0  0  0  0  0  0  0  0  0  0  0  0
   60.3600   26.7530   46.8350 C   0  0  0  0  0  0  0  0  0  0  0  0
   60.7740   25.7190   46.2440 O   0  0  0  0  0  0  0  0  0  0  0  0
   60.7290   27.0050   48.2000 N   0  0  0  0  0  0  0  0  0  0  0  0
   60.5430   28.2690   48.9180 C   0  0  0  0  0  0  0  0  0  0  0  0
   59.0700   28.6980   48.8940 C   0  0  0  0  0  0  0  0  0  0  0  0
   58.8730   30.0540   49.6090 C   0  0  0  0  0  0  0  0  0  0  0  0
   59.8210   30.2780   50.7370 N   0  0  0  0  0  0  0  0  0  0  0  0
   59.2430   31.1760   51.7590 C   0  0  0  0  0  0  0  0  0  0  0  0
   57.8350   30.7630   52.0980 C   0  0  0  0  0  0  0  0  0  0  0  0
   57.5910   29.5890   52.8270 C   0  0  0  0  0  0  0  0  0  0  0  0
   56.2830   29.2210   53.1540 C   0  0  0  0  0  0  0  0  0  0  0  0
   55.2110   30.0330   52.7750 C   0  0  0  0  0  0  0  0  0  0  0  0
   55.4430   31.2020   52.0480 C   0  0  0  0  0  0  0  0  0  0  0  0
   56.7490   31.5640   51.7050 C   0  0  0  0  0  0  0  0  0  0  0  0
   60.2650   29.0140   51.3550 C   0  0  0  0  0  0  0  0  0  0  0  0
   61.1100   28.2050   50.3590 C   0  0  0  0  0  0  0  0  0  0  0  0
   58.1730   27.4120   45.9580 N   0  0  0  0  0  0  0  0  0  0  0  0
   57.3130   28.2530   45.3220 C   0  0  0  0  0  0  0  0  0  0  0  0
   58.0027   33.1122   43.1042 H   0  0  0  0  0  0  0  0  0  0  0  0
   59.7994   34.7250   43.7267 H   0  0  0  0  0  0  0  0  0  0  0  0
   60.2573   35.2316   46.1257 H   0  0  0  0  0  0  0  0  0  0  0  0
   59.8123   33.8652   50.0551 H   0  0  0  0  0  0  0  0  0  0  0  0
   59.0289   32.4264   49.3117 H   0  0  0  0  0  0  0  0  0  0  0  0
   61.9136   34.8284   48.9311 H   0  0  0  0  0  0  0  0  0  0  0  0
   64.0683   34.1652   47.8564 H   0  0  0  0  0  0  0  0  0  0  0  0
   64.2996   31.9133   46.8006 H   0  0  0  0  0  0  0  0  0  0  0  0
   62.3742   30.3262   46.8095 H   0  0  0  0  0  0  0  0  0  0  0  0
   60.2125   30.9852   47.8648 H   0  0  0  0  0  0  0  0  0  0  0  0
   57.0534   32.5533   47.2903 H   0  0  0  0  0  0  0  0  0  0  0  0
   59.5170   30.7441   44.5575 H   0  0  0  0  0  0  0  0  0  0  0  0
   61.0673   29.1462   45.6943 H   0  0  0  0  0  0  0  0  0  0  0  0
   61.1220   29.0425   48.3923 H   0  0  0  0  0  0  0  0  0  0  0  0
   58.7403   28.7919   47.8488 H   0  0  0  0  0  0  0  0  0  0  0  0
   58.4759   27.9363   49.4202 H   0  0  0  0  0  0  0  0  0  0  0  0
   59.0128   30.8589   48.8724 H   0  0  0  0  0  0  0  0  0  0  0  0
   57.8594   30.0487   50.0362 H   0  0  0  0  0  0  0  0  0  0  0  0
   59.8605   31.1325   52.6683 H   0  0  0  0  0  0  0  0  0  0  0  0
   59.2236   32.2003   51.3584 H   0  0  0  0  0  0  0  0  0  0  0  0
   58.4331   28.9555   53.1425 H   0  0  0  0  0  0  0  0  0  0  0  0
   56.0972   28.2906   53.7106 H   0  0  0  0  0  0  0  0  0  0  0  0
   54.1838   29.7511   53.0496 H   0  0  0  0  0  0  0  0  0  0  0  0
   54.5983   31.8382   51.7451 H   0  0  0  0  0  0  0  0  0  0  0  0
   56.9277   32.4809   51.1242 H   0  0  0  0  0  0  0  0  0  0  0  0
   60.8693   29.2379   52.2464 H   0  0  0  0  0  0  0  0  0  0  0  0
   59.3815   28.4234   51.6391 H   0  0  0  0  0  0  0  0  0  0  0  0
   62.1335   28.6079   50.3545 H   0  0  0  0  0  0  0  0  0  0  0  0
   61.0935   27.1532   50.6805 H   0  0  0  0  0  0  0  0  0  0  0  0
   56.2560   27.9718   45.2054 H   0  0  0  0  0  0  0  0  0  0  0  0
  1  2  2  0
  2  3  1  0
  3  4  1  0
  4  5  2  0
  5  6  1  0
  6  7  2  0
  7  8  1  0
  8  9  1  0
  9 10  1  0
 10 11  1  0
 11 12  2  0
 12 13  1  0
 13 14  2  0
 14 15  1  0
 15 16  2  0
  8 17  2  0
  2 18  1  0
 18 19  2  0
 19 20  1  0
 20 21  2  0
 21 22  1  0
 22 23  2  0
 22 24  1  0
 24 25  1  0
 25 26  1  0
 26 27  1  0
 27 28  1  0
 28 29  1  0
 29 30  1  0
 30 31  2  0
 31 32  1  0
 32 33  2  0
 33 34  1  0
 34 35  2  0
 28 36  1  0
 36 37  1  0
 21 38  1  0
 38 39  2  0
 17  4  1  0
 39 18  1  0
 16 11  1  0
 37 25  1  0
 35 30  1  0
  5 40  1  0
  6 41  1  0
  7 42  1  0
 10 43  1  0
 10 44  1  0
 12 45  1  0
 13 46  1  0
 14 47  1  0
 15 48  1  0
 16 49  1  0
 17 50  1  0
 19 51  1  0
 20 52  1  0
 25 53  1  0
 26 54  1  0
 26 55  1  0
 27 56  1  0
 27 57  1  0
 29 58  1  0
 29 59  1  0
 31 60  1  0
 32 61  1  0
 33 62  1  0
 34 63  1  0
 35 64  1  0
 36 65  1  0
 36 66  1  0
 37 67  1  0
 37 68  1  0
 39 69  1  0
M  CHG  2   3  -1  24  -1
M  END
>  <UniqueID>  (1) 
1

>  <SMILES>  (1) 
O=C([N-]c1cccc(OCc2ccccc2)c1)c1ccc(C(=O)[N-]C2CCN(Cc3ccccc3)CC2)nc1

>  <Energy>  (1) 
90.44496684586399

>  <Genealogy>  (1) 
O=C([N-]c1cccc(OCc2ccccc2)c1)c1ccc(C(=O)[N-]C2CCN(Cc3ccccc3)CC2)nc1 (protonated)
O=C([N-]c1cccc(OCc2ccccc2)c1)c1ccc(C(=O)[N-]C2CCN(Cc3ccccc3)CC2)nc1 (3D coordinates assigned)
O=C([N-]c1cccc(OCc2ccccc2)c1)c1ccc(C(=O)[N-]C2CCN(Cc3ccccc3)CC2)nc1 (nonaromatic ring conformer: 90.44496684586399 kcal/mol)

>  <smiles>  (1) 
O=C(Nc1cccc(OCc2ccccc2)c1)c1ccc(C(=O)NC2CCN(Cc3ccccc3)CC2)nc1

>  <score_type>  (1) 
oracle

>  <origin>  (1) 
adg

>  <m_score__min__energy>  (1) 
-13.08

>  <m_primary>  (1) 
energy

$$$$
1:0
     RDKit          3D

 52 54  0  0  0  0  0  0  0  0999 V2000
   54.1520   25.2780   45.8930 O   0  0  0  0  0  0  0  0  0  0  0  0
   55.3400   25.5970   45.6160 C   0  0  0  0  0  0  0  0  0  0  0  0
   56.2180   24.6190   44.8760 C   0  0  0  0  0  0  0  0  0  0  0  0
   56.6200   23.4240   45.7530 C   0  0  0  0  0  0  0  0  0  0  0  0
   55.8920   23.4440   47.0240 N   0  0  0  0  0  0  0  0  0  0  0  0
   56.2380   22.6010   48.1330 C   0  0  0  0  0  0  0  0  0  0  0  0
   57.3190   21.9540   48.1240 O   0  0  0  0  0  0  0  0  0  0  0  0
   55.4090   22.5370   49.3000 N   0  0  0  0  0  0  0  0  0  0  0  0
   53.9770   22.4340   49.3250 C   0  0  0  0  0  0  0  0  0  0  0  0
   53.2360   22.6630   50.5000 C   0  0  0  0  0  0  0  0  0  0  0  0
   51.8400   22.5750   50.4790 C   0  0  0  0  0  0  0  0  0  0  0  0
   51.1750   22.2860   49.2850 C   0  0  0  0  0  0  0  0  0  0  0  0
   51.9020   22.0950   48.1070 C   0  0  0  0  0  0  0  0  0  0  0  0
   53.2970   22.1740   48.1260 C   0  0  0  0  0  0  0  0  0  0  0  0
   55.8150   26.8950   45.9990 N   0  0  0  0  0  0  0  0  0  0  0  0
   57.1490   27.3990   45.8230 C   0  0  0  0  0  0  0  0  0  0  0  0
   58.2660   26.6610   46.2590 C   0  0  0  0  0  0  0  0  0  0  0  0
   59.5580   27.1630   46.0860 C   0  0  0  0  0  0  0  0  0  0  0  0
   59.7510   28.4080   45.4830 C   0  0  0  0  0  0  0  0  0  0  0  0
   58.6520   29.1610   45.0670 C   0  0  0  0  0  0  0  0  0  0  0  0
   57.3470   28.6750   45.2570 C   0  0  0  0  0  0  0  0  0  0  0  0
   56.2060   29.5200   44.8590 C   0  0  0  0  0  0  0  0  0  0  0  0
   55.1350   28.9690   44.4920 O   0  0  0  0  0  0  0  0  0  0  0  0
   56.2980   30.9510   44.8290 N   0  0  0  0  0  0  0  0  0  0  0  0
   57.3210   31.7180   44.1200 C   0  0  0  0  0  0  0  0  0  0  0  0
   57.9690   32.7290   45.0300 C   0  0  0  0  0  0  0  0  0  0  0  0
   58.6900   33.8100   44.4960 C   0  0  0  0  0  0  0  0  0  0  0  0
   59.2780   34.7540   45.3430 C   0  0  0  0  0  0  0  0  0  0  0  0
   59.1570   34.6230   46.7290 C   0  0  0  0  0  0  0  0  0  0  0  0
   58.4490   33.5460   47.2690 C   0  0  0  0  0  0  0  0  0  0  0  0
   57.8570   32.6010   46.4240 C   0  0  0  0  0  0  0  0  0  0  0  0
   55.6711   24.2460   43.9975 H   0  0  0  0  0  0  0  0  0  0  0  0
   57.1371   25.1460   44.5803 H   0  0  0  0  0  0  0  0  0  0  0  0
   56.3882   22.4906   45.2191 H   0  0  0  0  0  0  0  0  0  0  0  0
   57.6980   23.4872   45.9628 H   0  0  0  0  0  0  0  0  0  0  0  0
   55.1280   24.1480   47.1350 H   0  0  0  0  0  0  0  0  0  0  0  0
   53.7560   22.9117   51.4369 H   0  0  0  0  0  0  0  0  0  0  0  0
   51.2654   22.7335   51.4035 H   0  0  0  0  0  0  0  0  0  0  0  0
   50.0778   22.2087   49.2721 H   0  0  0  0  0  0  0  0  0  0  0  0
   51.3760   21.8824   47.1646 H   0  0  0  0  0  0  0  0  0  0  0  0
   53.8653   22.0314   47.1951 H   0  0  0  0  0  0  0  0  0  0  0  0
   58.1202   25.6822   46.7393 H   0  0  0  0  0  0  0  0  0  0  0  0
   60.4248   26.5769   46.4252 H   0  0  0  0  0  0  0  0  0  0  0  0
   60.7700   28.7953   45.3359 H   0  0  0  0  0  0  0  0  0  0  0  0
   58.8079   30.1391   44.5884 H   0  0  0  0  0  0  0  0  0  0  0  0
   58.0907   31.0282   43.7435 H   0  0  0  0  0  0  0  0  0  0  0  0
   56.8415   32.2539   43.2876 H   0  0  0  0  0  0  0  0  0  0  0  0
   58.7924   33.9142   43.4057 H   0  0  0  0  0  0  0  0  0  0  0  0
   59.8366   35.6009   44.9180 H   0  0  0  0  0  0  0  0  0  0  0  0
   59.6188   35.3672   47.3945 H   0  0  0  0  0  0  0  0  0  0  0  0
   58.3570   33.4410   48.3601 H   0  0  0  0  0  0  0  0  0  0  0  0
   57.3015   31.7542   46.8534 H   0  0  0  0  0  0  0  0  0  0  0  0
  1  2  2  0
  2  3  1  0
  3  4  1  0
  4  5  1  0
  5  6  1  0
  6  7  2  0
  6  8  1  0
  8  9  1  0
  9 10  2  0
 10 11  1  0
 11 12  2  0
 12 13  1  0
 13 14  2  0
  2 15  1  0
 15 16  1  0
 16 17  2  0
 17 18  1  0
 18 19  2  0
 19 20  1  0
 20 21  2  0
 21 22  1  0
 22 23  2  0
 22 24  1  0
 24 25  1  0
 25 26  1  0
 26 27  2  0
 27 28  1  0
 28 29  2  0
 29 30  1  0
 30 31  2  0
 14  9  1  0
 21 16  1  0
 31 26  1  0
  3 32  1  0
  3 33  1  0
  4 34  1  0
  4 35  1  0
  5 36  1  0
 10 37  1  0
 11 38  1  0
 12 39  1  0
 13 40  1  0
 14 41  1  0
 17 42  1  0
 18 43  1  0
 19 44  1  0
 20 45  1  0
 25 46  1  0
 25 47  1  0
 27 48  1  0
 28 49  1  0
 29 50  1  0
 30 51  1  0
 31 52  1  0
M  CHG  3   8  -1  15  -1  24  -1
M  END
>  <UniqueID>  (2) 
2

>  <SMILES>  (2) 
O=C(CCNC(=O)[N-]c1ccccc1)[N-]c1ccccc1C(=O)[N-]Cc1ccccc1

>  <Energy>  (2) 
62.85116011060888

>  <Genealogy>  (2) 
O=C(CCNC(=O)[N-]c1ccccc1)[N-]c1ccccc1C(=O)[N-]Cc1ccccc1 (protonated)
O=C(CCNC(=O)[N-]c1ccccc1)[N-]c1ccccc1C(=O)[N-]Cc1ccccc1 (3D coordinates assigned)
O=C(CCNC(=O)[N-]c1ccccc1)[N-]c1ccccc1C(=O)[N-]Cc1ccccc1 (optimized conformer: 62.85116011060888 kcal/mol)

>  <smiles>  (2) 
O=C(CCNC(=O)Nc1ccccc1)Nc1ccccc1C(=O)NCc1ccccc1

>  <score_type>  (2) 
oracle

>  <origin>  (2) 
adg

>  <m_score__min__energy>  (2) 
-14.550000000000001

>  <m_primary>  (2) 
energy

$$$$
2:0
     RDKit          3D

 43 46  0  0  0  0  0  0  0  0999 V2000
   57.3810   23.1270   47.9260 N   0  0  0  0  0  0  0  0  0  0  0  0
   57.2600   24.2700   47.3330 C   0  0  0  0  0  0  0  0  0  0  0  0
   56.0340   24.7180   46.9480 N   0  0  0  0  0  0  0  0  0  0  0  0
   55.8830   25.9150   46.3250 C   0  0  0  0  0  0  0  0  0  0  0  0
   54.7290   26.2960   45.9870 O   0  0  0  0  0  0  0  0  0  0  0  0
   57.0120   26.7100   46.0660 C   0  0  0  0  0  0  0  0  0  0  0  0
   56.9390   27.9570   45.4230 C   0  0  0  0  0  0  0  0  0  0  0  0
   58.1050   28.7120   45.2230 C   0  0  0  0  0  0  0  0  0  0  0  0
   58.0430   30.0500   44.5900 C   0  0  0  0  0  0  0  0  0  0  0  0
   57.4000   30.2290   43.3550 C   0  0  0  0  0  0  0  0  0  0  0  0
   57.3440   31.4950   42.7710 C   0  0  0  0  0  0  0  0  0  0  0  0
   57.9020   32.5970   43.4260 C   0  0  0  0  0  0  0  0  0  0  0  0
   58.5220   32.4440   44.6700 C   0  0  0  0  0  0  0  0  0  0  0  0
   59.0070   33.6170   45.3420 N   0  0  0  0  0  0  0  0  0  0  0  0
   58.7110   34.0640   46.9960 S   0  0  0  0  0  0  0  0  0  0  0  0
   58.9900   35.5280   47.2010 O   0  0  0  0  0  0  0  0  0  0  0  0
   57.2590   33.8210   47.2930 O   0  0  0  0  0  0  0  0  0  0  0  0
   59.6790   33.0740   48.1300 C   0  0  0  0  0  0  0  0  0  0  0  0
   61.1200   32.9870   47.7120 C   0  0  0  0  0  0  0  0  0  0  0  0
   61.6430   33.9110   46.7890 C   0  0  0  0  0  0  0  0  0  0  0  0
   62.9900   33.8550   46.4240 C   0  0  0  0  0  0  0  0  0  0  0  0
   63.8220   32.8670   46.9610 C   0  0  0  0  0  0  0  0  0  0  0  0
   63.3090   31.9390   47.8720 C   0  0  0  0  0  0  0  0  0  0  0  0
   61.9640   32.0000   48.2510 C   0  0  0  0  0  0  0  0  0  0  0  0
   58.6130   31.1610   45.2350 C   0  0  0  0  0  0  0  0  0  0  0  0
   59.3340   28.1870   45.6640 C   0  0  0  0  0  0  0  0  0  0  0  0
   59.3860   26.9720   46.2710 N   0  0  0  0  0  0  0  0  0  0  0  0
   58.2690   26.2300   46.4820 C   0  0  0  0  0  0  0  0  0  0  0  0
   58.3650   25.0250   47.1000 N   0  0  0  0  0  0  0  0  0  0  0  0
   57.7400   23.0550   48.9030 H   0  0  0  0  0  0  0  0  0  0  0  0
   55.9684   28.3414   45.0765 H   0  0  0  0  0  0  0  0  0  0  0  0
   56.9393   29.3693   42.8465 H   0  0  0  0  0  0  0  0  0  0  0  0
   56.8594   31.6264   41.7923 H   0  0  0  0  0  0  0  0  0  0  0  0
   57.8529   33.5918   42.9592 H   0  0  0  0  0  0  0  0  0  0  0  0
   59.6263   33.5269   49.1310 H   0  0  0  0  0  0  0  0  0  0  0  0
   59.2635   32.0555   48.1319 H   0  0  0  0  0  0  0  0  0  0  0  0
   60.9887   34.6804   46.3532 H   0  0  0  0  0  0  0  0  0  0  0  0
   63.3973   34.5890   45.7131 H   0  0  0  0  0  0  0  0  0  0  0  0
   64.8807   32.8202   46.6662 H   0  0  0  0  0  0  0  0  0  0  0  0
   63.9634   31.1604   48.2910 H   0  0  0  0  0  0  0  0  0  0  0  0
   61.5649   31.2729   48.9736 H   0  0  0  0  0  0  0  0  0  0  0  0
   59.1362   31.0244   46.1929 H   0  0  0  0  0  0  0  0  0  0  0  0
   60.2589   28.7639   45.5164 H   0  0  0  0  0  0  0  0  0  0  0  0
  1  2  2  3
  2  3  1  0
  3  4  1  0
  4  5  2  0
  4  6  1  0
  6  7  2  0
  7  8  1  0
  8  9  1  0
  9 10  2  0
 10 11  1  0
 11 12  2  0
 12 13  1  0
 13 14  1  0
 14 15  1  0
 15 16  2  0
 15 17  2  0
 15 18  1  0
 18 19  1  0
 19 20  2  0
 20 21  1  0
 21 22  2  0
 22 23  1  0
 23 24  2  0
 13 25  2  0
  8 26  2  0
 26 27  1  0
 27 28  2  0
 28 29  1  0
 29  2  1  0
 28  6  1  0
 25  9  1  0
 24 19  1  0
  1 30  1  0
  7 31  1  0
 10 32  1  0
 11 33  1  0
 12 34  1  0
 18 35  1  0
 18 36  1  0
 20 37  1  0
 21 38  1  0
 22 39  1  0
 23 40  1  0
 24 41  1  0
 25 42  1  0
 26 43  1  0
M  CHG  3   3  -1  14  -1  29  -1
M  END
>  <UniqueID>  (3) 
3

>  <SMILES>  (3) 
N=c1[n-]c(=O)c2cc(-c3cccc([N-]S(=O)(=O)Cc4ccccc4)c3)cnc2[n-]1

>  <Energy>  (3) 
53.29641572683192

>  <Genealogy>  (3) 
N=c1[n-]c(=O)c2cc(-c3cccc([N-]S(=O)(=O)Cc4ccccc4)c3)cnc2[n-]1 (protonated)
N=c1[n-]c(=O)c2cc(-c3cccc([N-]S(=O)(=O)Cc4ccccc4)c3)cnc2[n-]1 (3D coordinates assigned)
N=c1[n-]c(=O)c2cc(-c3cccc([N-]S(=O)(=O)Cc4ccccc4)c3)cnc2[n-]1 (optimized conformer: 53.29641572683192 kcal/mol)

>  <smiles>  (3) 
N=c1[nH]c(=O)c2cc(-c3cccc(NS(=O)(=O)Cc4ccccc4)c3)cnc2[nH]1

>  <score_type>  (3) 
oracle

>  <origin>  (3) 
adg

>  <m_score__min__energy>  (3) 
-14.07

>  <m_primary>  (3) 
energy

$$$$
3:0
     RDKit          3D

 73 77  0  0  0  0  0  0  0  0999 V2000
   60.0063   27.0626   49.1961 H   0  0  0  0  0  0  0  0  0  0  0  0
   59.4670   26.9920   48.2400 C   0  0  0  0  0  0  0  0  0  0  0  0
   59.1464   26.0106   47.8606 H   0  0  0  0  0  0  0  0  0  0  0  0
   59.2000   28.1040   47.5360 C   0  0  0  0  0  0  0  0  0  0  0  0
   58.5270   28.1600   46.3140 C   0  0  0  0  0  0  0  0  0  0  0  0
   57.9830   27.1320   45.6310 C   0  0  0  0  0  0  0  0  0  0  0  0
   58.0700   27.1392   44.5345 H   0  0  0  0  0  0  0  0  0  0  0  0
   57.2790   25.9990   46.2600 C   0  0  0  0  0  0  0  0  0  0  0  0
   57.9070   24.8880   46.6850 N   0  0  0  0  0  0  0  0  0  0  0  0
   56.8990   24.1000   47.1150 C   0  0  0  0  0  0  0  0  0  0  0  0
   57.0920   22.9550   47.5990 O   0  0  0  0  0  0  0  0  0  0  0  0
   55.6650   24.6290   46.9680 N   0  0  0  0  0  0  0  0  0  0  0  0
   55.9210   25.8250   46.4150 C   0  0  0  0  0  0  0  0  0  0  0  0
   54.9280   26.7100   46.0100 O   0  0  0  0  0  0  0  0  0  0  0  0
   58.4920   29.4970   45.9500 C   0  0  0  0  0  0  0  0  0  0  0  0
   58.0179   29.9182   45.0512 H   0  0  0  0  0  0  0  0  0  0  0  0
   59.1660   30.2010   46.9310 C   0  0  0  0  0  0  0  0  0  0  0  0
   59.4320   31.6640   46.8780 C   0  0  0  0  0  0  0  0  0  0  0  0
   60.3200   32.0950   46.0930 O   0  0  0  0  0  0  0  0  0  0  0  0
   58.6400   32.5970   47.6620 N   0  0  0  0  0  0  0  0  0  0  0  0
   58.1980   32.0550   48.4420 H   0  0  0  0  0  0  0  0  0  0  0  0
   59.4770   33.6460   48.3060 C   0  0  0  0  0  0  0  0  0  0  0  0
   59.0587   33.8633   49.2999 H   0  0  0  0  0  0  0  0  0  0  0  0
   60.5026   33.2521   48.3613 H   0  0  0  0  0  0  0  0  0  0  0  0
   59.5400   34.9620   47.5050 C   0  0  0  0  0  0  0  0  0  0  0  0
   58.7292   35.6279   47.8354 H   0  0  0  0  0  0  0  0  0  0  0  0
   60.5141   35.4425   47.6790 H   0  0  0  0  0  0  0  0  0  0  0  0
   59.3890   34.6880   46.0680 N   0  0  0  0  0  0  0  0  0  0  0  0
   59.6480   35.9010   45.2780 C   0  0  0  0  0  0  0  0  0  0  0  0
   59.8289   36.7483   45.9558 H   0  0  0  0  0  0  0  0  0  0  0  0
   60.5328   35.7435   44.6437 H   0  0  0  0  0  0  0  0  0  0  0  0
   58.7761   36.1186   44.6437 H   0  0  0  0  0  0  0  0  0  0  0  0
   58.0450   34.1530   45.7690 C   0  0  0  0  0  0  0  0  0  0  0  0
   57.3387   34.9933   45.6975 H   0  0  0  0  0  0  0  0  0  0  0  0
   58.1096   33.5972   44.8219 H   0  0  0  0  0  0  0  0  0  0  0  0
   57.5420   33.1730   46.8560 C   0  0  0  0  0  0  0  0  0  0  0  0
   56.8594   33.7139   47.5279 H   0  0  0  0  0  0  0  0  0  0  0  0
   57.0366   32.3413   46.3432 H   0  0  0  0  0  0  0  0  0  0  0  0
   59.5780   29.3570   47.9110 N   0  0  0  0  0  0  0  0  0  0  0  0
   60.2790   29.7300   49.1490 C   0  0  0  0  0  0  0  0  0  0  0  0
   60.6845   28.8244   49.6238 H   0  0  0  0  0  0  0  0  0  0  0  0
   61.0966   30.4237   48.9033 H   0  0  0  0  0  0  0  0  0  0  0  0
   59.3050   30.4250   50.1250 C   0  0  0  0  0  0  0  0  0  0  0  0
   58.7878   31.2294   49.5815 H   0  0  0  0  0  0  0  0  0  0  0  0
   58.6182   29.6482   50.4923 H   0  0  0  0  0  0  0  0  0  0  0  0
   59.9560   31.0140   51.3160 N   0  0  0  0  0  0  0  0  0  0  0  0
   59.6980   32.4590   51.5140 C   0  0  0  0  0  0  0  0  0  0  0  0
   58.8692   32.7659   50.8591 H   0  0  0  0  0  0  0  0  0  0  0  0
   59.4452   32.6198   52.5724 H   0  0  0  0  0  0  0  0  0  0  0  0
   60.9350   33.3090   51.1830 C   0  0  0  0  0  0  0  0  0  0  0  0
   61.1880   33.1670   50.1220 H   0  0  0  0  0  0  0  0  0  0  0  0
   60.6896   34.3589   51.4008 H   0  0  0  0  0  0  0  0  0  0  0  0
   62.1130   32.9370   52.0090 N   0  0  0  0  0  0  0  0  0  0  0  0
   63.3800   33.2650   51.3200 C   0  0  0  0  0  0  0  0  0  0  0  0
   63.6365   34.3158   51.5199 H   0  0  0  0  0  0  0  0  0  0  0  0
   64.1677   32.5970   51.6986 H   0  0  0  0  0  0  0  0  0  0  0  0
   63.2540   33.0630   49.8310 C   0  0  0  0  0  0  0  0  0  0  0  0
   63.0200   34.1630   48.9900 C   0  0  0  0  0  0  0  0  0  0  0  0
   62.9473   35.1736   49.4182 H   0  0  0  0  0  0  0  0  0  0  0  0
   62.8790   33.9800   47.6110 C   0  0  0  0  0  0  0  0  0  0  0  0
   62.6965   34.8456   46.9572 H   0  0  0  0  0  0  0  0  0  0  0  0
   62.9700   32.6970   47.0630 C   0  0  0  0  0  0  0  0  0  0  0  0
   62.8628   32.5539   45.9776 H   0  0  0  0  0  0  0  0  0  0  0  0
   63.1970   31.5970   47.8930 C   0  0  0  0  0  0  0  0  0  0  0  0
   63.2666   30.5880   47.4605 H   0  0  0  0  0  0  0  0  0  0  0  0
   63.3360   31.7760   49.2730 C   0  0  0  0  0  0  0  0  0  0  0  0
   63.5101   30.9064   49.9238 H   0  0  0  0  0  0  0  0  0  0  0  0
   62.0970   31.5230   52.4630 C   0  0  0  0  0  0  0  0  0  0  0  0
   63.1344   31.1739   52.5725 H   0  0  0  0  0  0  0  0  0  0  0  0
   61.5584   31.4811   53.4212 H   0  0  0  0  0  0  0  0  0  0  0  0
   61.3700   30.6080   51.4730 C   0  0  0  0  0  0  0  0  0  0  0  0
   61.8713   30.6651   50.4955 H   0  0  0  0  0  0  0  0  0  0  0  0
   61.3982   29.5791   51.8610 H   0  0  0  0  0  0  0  0  0  0  0  0
  1  2  1  0
  2  3  1  0
  2  4  2  0
  4  5  1  0
  5  6  2  0
  6  7  1  0
  6  8  1  0
  8  9  1  0
  9 10  1  0
 10 11  2  0
 10 12  1  0
 12 13  1  0
 13 14  1  0
  5 15  1  0
 15 16  1  0
 15 17  2  0
 17 18  1  0
 18 19  2  0
 18 20  1  0
 20 21  1  0
 20 22  1  0
 22 23  1  0
 22 24  1  0
 22 25  1  0
 25 26  1  0
 25 27  1  0
 25 28  1  0
 28 29  1  0
 29 30  1  0
 29 31  1  0
 29 32  1  0
 28 33  1  0
 33 34  1  0
 33 35  1  0
 33 36  1  0
 36 37  1  0
 36 38  1  0
 17 39  1  0
 39 40  1  0
 40 41  1  0
 40 42  1  0
 40 43  1  0
 43 44  1  0
 43 45  1  0
 43 46  1  0
 46 47  1  0
 47 48  1  0
 47 49  1  0
 47 50  1  0
 50 51  1  0
 50 52  1  0
 50 53  1  0
 53 54  1  0
 54 55  1  0
 54 56  1  0
 54 57  1  0
 57 58  2  0
 58 59  1  0
 58 60  1  0
 60 61  1  0
 60 62  2  0
 62 63  1  0
 62 64  1  0
 64 65  1  0
 64 66  2  0
 66 67  1  0
 53 68  1  0
 68 69  1  0
 68 70  1  0
 68 71  1  0
 71 72  1  0
 71 73  1  0
 39  4  1  0
 71 46  1  0
 13  8  2  0
 36 20  1  0
 66 57  1  0
M  CHG  4   9  -1  12  -1  14  -1  20   1
M  END
>  <UniqueID>  (4) 
4

>  <SMILES>  (4) 
C=c1/c(=C/c2[n-]c(=O)[n-]c2[O-])cc(C(=O)[NH+]2CCN(C)CC2)n1CCN1CCN(Cc2ccccc2)CC1

>  <Energy>  (4) 
170.538079804613

>  <Genealogy>  (4) 
C=c1c(=Cc2[n-]c(=O)[n-]c2[O-])cc(C(=O)[NH+]2CCN(C)CC2)n1CCN1CCN(Cc2ccccc2)CC1 (protonated)
C=c1/c(=C/c2[n-]c(=O)[n-]c2[O-])cc(C(=O)[NH+]2CCN(C)CC2)n1CCN1CCN(Cc2ccccc2)CC1 (cis-trans isomerization)
C=c1/c(=C/c2[n-]c(=O)[n-]c2[O-])cc(C(=O)[NH+]2CCN(C)CC2)n1CCN1CCN(Cc2ccccc2)CC1 (3D coordinates assigned)
C=c1/c(=C/c2[n-]c(=O)[n-]c2[O-])cc(C(=O)[NH+]2CCN(C)CC2)n1CCN1CCN(Cc2ccccc2)CC1 (nonaromatic ring conformer: 170.538079804613 kcal/mol)

>  <smiles>  (4) 
C=c1c(=Cc2[nH]c(=O)[nH]c2O)cc(C(=O)N2CCN(C)CC2)n1CCN1CCN(Cc2ccccc2)CC1

>  <score_type>  (4) 
oracle

>  <origin>  (4) 
adg

>  <m_score__min__energy>  (4) 
-16.199999999999999

>  <m_primary>  (4) 
energy

$$$$
4:0
     RDKit          3D

 60 63  0  0  0  0  0  0  0  0999 V2000
   56.5970   24.7930   44.5000 N   0  0  0  0  0  0  0  0  0  0  0  0
   56.4580   25.7140   45.9580 S   0  0  0  0  0  0  0  0  0  0  0  0
   55.1300   26.4220   45.9870 O   0  0  0  0  0  0  0  0  0  0  0  0
   56.5390   24.7920   47.1450 O   0  0  0  0  0  0  0  0  0  0  0  0
   57.7660   26.8930   46.0280 C   0  0  0  0  0  0  0  0  0  0  0  0
   59.0120   26.5340   46.5620 C   0  0  0  0  0  0  0  0  0  0  0  0
   60.0510   27.4690   46.6090 C   0  0  0  0  0  0  0  0  0  0  0  0
   59.8530   28.7630   46.1130 C   0  0  0  0  0  0  0  0  0  0  0  0
   58.6130   29.1310   45.5660 C   0  0  0  0  0  0  0  0  0  0  0  0
   58.3980   30.5310   45.0510 C   0  0  0  0  0  0  0  0  0  0  0  0
   57.2230   30.6090   44.0610 C   0  0  0  0  0  0  0  0  0  0  0  0
   57.4150   31.6340   42.9270 C   0  0  0  0  0  0  0  0  0  0  0  0
   58.4150   32.7820   43.2070 C   0  0  0  0  0  0  0  0  0  0  0  0
   58.4790   33.2830   44.6000 N   0  0  0  0  0  0  0  0  0  0  0  0
   59.4970   34.3110   44.8840 C   0  0  0  0  0  0  0  0  0  0  0  0
   59.3470   34.8950   46.3050 C   0  0  0  0  0  0  0  0  0  0  0  0
   58.6610   33.9790   47.2480 N   0  0  0  0  0  0  0  0  0  0  0  0
   59.5160   33.0160   47.9960 C   0  0  2  0  0  0  0  0  0  0  0  0
   59.2640   33.1010   49.5250 C   0  0  0  0  0  0  0  0  0  0  0  0
   60.5330   33.7030   50.1640 C   0  0  0  0  0  0  0  0  0  0  0  0
   61.5340   33.6670   49.0700 C   0  0  0  0  0  0  0  0  0  0  0  0
   62.9030   33.9440   49.1840 C   0  0  0  0  0  0  0  0  0  0  0  0
   63.7170   33.8110   48.0490 C   0  0  0  0  0  0  0  0  0  0  0  0
   63.1590   33.3910   46.8230 C   0  0  0  0  0  0  0  0  0  0  0  0
   61.7800   33.1160   46.7310 C   0  0  0  0  0  0  0  0  0  0  0  0
   60.9790   33.2870   47.8660 C   0  0  0  0  0  0  0  0  0  0  0  0
   57.3690   33.4230   46.7660 C   0  0  0  0  0  0  0  0  0  0  0  0
   57.1890   33.5530   45.2470 C   0  0  0  0  0  0  0  0  0  0  0  0
   57.5710   28.1890   45.5300 C   0  0  0  0  0  0  0  0  0  0  0  0
   56.6440   25.4790   43.7120 H   0  0  0  0  0  0  0  0  0  0  0  0
   55.7010   24.2650   44.3880 H   0  0  0  0  0  0  0  0  0  0  0  0
   59.1724   25.5152   46.9446 H   0  0  0  0  0  0  0  0  0  0  0  0
   61.0248   27.1873   47.0361 H   0  0  0  0  0  0  0  0  0  0  0  0
   60.6729   29.4953   46.1519 H   0  0  0  0  0  0  0  0  0  0  0  0
   58.1885   31.1942   45.9032 H   0  0  0  0  0  0  0  0  0  0  0  0
   59.3100   30.8404   44.5195 H   0  0  0  0  0  0  0  0  0  0  0  0
   57.0879   29.6157   43.6081 H   0  0  0  0  0  0  0  0  0  0  0  0
   56.3467   30.9390   44.6383 H   0  0  0  0  0  0  0  0  0  0  0  0
   57.7685   31.0899   42.0388 H   0  0  0  0  0  0  0  0  0  0  0  0
   56.4363   32.1199   42.7999 H   0  0  0  0  0  0  0  0  0  0  0  0
   59.4188   32.4235   42.9351 H   0  0  0  0  0  0  0  0  0  0  0  0
   58.0539   33.6324   42.6100 H   0  0  0  0  0  0  0  0  0  0  0  0
   60.4951   33.8583   44.7894 H   0  0  0  0  0  0  0  0  0  0  0  0
   59.3626   35.1311   44.1633 H   0  0  0  0  0  0  0  0  0  0  0  0
   60.3500   35.1147   46.6995 H   0  0  0  0  0  0  0  0  0  0  0  0
   58.7265   35.7994   46.2209 H   0  0  0  0  0  0  0  0  0  0  0  0
   59.2480   32.0425   47.5595 H   0  0  0  0  0  0  0  0  0  0  0  0
   58.3970   33.7465   49.7287 H   0  0  0  0  0  0  0  0  0  0  0  0
   59.0518   32.1053   49.9417 H   0  0  0  0  0  0  0  0  0  0  0  0
   60.3521   34.7362   50.4952 H   0  0  0  0  0  0  0  0  0  0  0  0
   60.8608   33.1515   51.0576 H   0  0  0  0  0  0  0  0  0  0  0  0
   63.3318   34.2601   50.1464 H   0  0  0  0  0  0  0  0  0  0  0  0
   64.7920   34.0345   48.1151 H   0  0  0  0  0  0  0  0  0  0  0  0
   63.8016   33.2780   45.9374 H   0  0  0  0  0  0  0  0  0  0  0  0
   61.3404   32.7727   45.7829 H   0  0  0  0  0  0  0  0  0  0  0  0
   57.3243   32.3571   47.0343 H   0  0  0  0  0  0  0  0  0  0  0  0
   56.5638   34.0009   47.2432 H   0  0  0  0  0  0  0  0  0  0  0  0
   56.4400   32.8266   44.8986 H   0  0  0  0  0  0  0  0  0  0  0  0
   56.8453   34.5668   44.9937 H   0  0  0  0  0  0  0  0  0  0  0  0
   56.5950   28.4705   45.1079 H   0  0  0  0  0  0  0  0  0  0  0  0
  1  2  1  0
  2  3  2  0
  2  4  2  0
  2  5  1  0
  5  6  2  0
  6  7  1  0
  7  8  2  0
  8  9  1  0
  9 10  1  0
 10 11  1  0
 11 12  1  0
 12 13  1  0
 13 14  1  0
 14 15  1  0
 15 16  1  0
 16 17  1  0
 17 18  1  0
 18 19  1  0
 19 20  1  0
 20 21  1  0
 21 22  2  0
 22 23  1  0
 23 24  2  0
 24 25  1  0
 25 26  2  0
 17 27  1  0
 27 28  1  0
  9 29  2  0
 29  5  1  0
 28 14  1  0
 26 18  1  0
 26 21  1  0
  1 30  1  0
  1 31  1  0
  6 32  1  0
  7 33  1  0
  8 34  1  0
 10 35  1  0
 10 36  1  0
 11 37  1  0
 11 38  1  0
 12 39  1  0
 12 40  1  0
 13 41  1  0
 13 42  1  0
 15 43  1  0
 15 44  1  0
 16 45  1  0
 16 46  1  0
 18 47  1  6
 19 48  1  0
 19 49  1  0
 20 50  1  0
 20 51  1  0
 22 52  1  0
 23 53  1  0
 24 54  1  0
 25 55  1  0
 27 56  1  0
 27 57  1  0
 28 58  1  0
 28 59  1  0
 29 60  1  0
M  END
>  <UniqueID>  (5) 
5

>  <SMILES>  (5) 
NS(=O)(=O)c1cccc(CCCCN2CCN([C@@H]3CCc4ccccc43)CC2)c1

>  <Energy>  (5) 
88.3300557850789

>  <Genealogy>  (5) 
NS(=O)(=O)c1cccc(CCCCN2CCN([C@@H]3CCc4ccccc43)CC2)c1 (chirality)
NS(=O)(=O)c1cccc(CCCCN2CCN([C@@H]3CCc4ccccc43)CC2)c1 (3D coordinates assigned)
NS(=O)(=O)c1cccc(CCCCN2CCN([C@@H]3CCc4ccccc43)CC2)c1 (nonaromatic ring conformer: 88.3300557850789 kcal/mol)

>  <smiles>  (5) 
NS(=O)(=O)c1cccc(CCCCN2CCN(C3CCc4ccccc43)CC2)c1

>  <score_type>  (5) 
oracle

>  <origin>  (5) 
adg

>  <m_score__min__energy>  (5) 
-10.550000000000001

>  <m_primary>  (5) 
energy

$$$$
5:0
     RDKit          3D

 33 35  0  0  0  0  0  0  0  0999 V2000
   57.0030   22.7930   47.5850 O   0  0  0  0  0  0  0  0  0  0  0  0
   56.8420   23.9290   47.0680 C   0  0  0  0  0  0  0  0  0  0  0  0
   55.6330   24.5160   46.9640 N   0  0  0  0  0  0  0  0  0  0  0  0
   55.9150   25.6870   46.3690 C   0  0  0  0  0  0  0  0  0  0  0  0
   54.9430   26.6340   46.0590 O   0  0  0  0  0  0  0  0  0  0  0  0
   57.2720   25.7760   46.1270 C   0  0  0  0  0  0  0  0  0  0  0  0
   58.0250   26.9210   45.5170 C   0  0  0  0  0  0  0  0  0  0  0  0
   58.8420   27.6270   46.5680 C   0  0  0  0  0  0  0  0  0  0  0  0
   59.9520   26.9790   47.1390 C   0  0  0  0  0  0  0  0  0  0  0  0
   60.7060   27.6080   48.1310 C   0  0  0  0  0  0  0  0  0  0  0  0
   60.3520   28.8830   48.5770 C   0  0  0  0  0  0  0  0  0  0  0  0
   61.0980   29.5010   49.5730 O   0  0  0  0  0  0  0  0  0  0  0  0
   59.2450   29.5340   48.0270 C   0  0  0  0  0  0  0  0  0  0  0  0
   58.4870   28.9170   47.0150 C   0  0  0  0  0  0  0  0  0  0  0  0
   57.3510   29.5430   46.4760 O   0  0  0  0  0  0  0  0  0  0  0  0
   57.2630   30.1050   45.1940 C   0  0  0  0  0  0  0  0  0  0  0  0
   58.2820   30.9260   44.6750 C   0  0  0  0  0  0  0  0  0  0  0  0
   58.1720   31.4540   43.3850 C   0  0  0  0  0  0  0  0  0  0  0  0
   57.0530   31.1580   42.6010 C   0  0  0  0  0  0  0  0  0  0  0  0
   56.0470   30.3280   43.1030 C   0  0  0  0  0  0  0  0  0  0  0  0
   56.1530   29.7990   44.3940 C   0  0  0  0  0  0  0  0  0  0  0  0
   55.1480   28.9730   44.8830 O   0  0  0  0  0  0  0  0  0  0  0  0
   57.8680   24.6560   46.5760 N   0  0  0  0  0  0  0  0  0  0  0  0
   55.1490   27.4570   45.5080 H   0  0  0  0  0  0  0  0  0  0  0  0
   58.6948   26.5384   44.7327 H   0  0  0  0  0  0  0  0  0  0  0  0
   57.3064   27.6324   45.0839 H   0  0  0  0  0  0  0  0  0  0  0  0
   60.2279   25.9691   46.8014 H   0  0  0  0  0  0  0  0  0  0  0  0
   61.5804   27.0985   48.5621 H   0  0  0  0  0  0  0  0  0  0  0  0
   58.9644   30.5347   48.3873 H   0  0  0  0  0  0  0  0  0  0  0  0
   59.1678   31.1529   45.2864 H   0  0  0  0  0  0  0  0  0  0  0  0
   58.9663   32.1026   42.9868 H   0  0  0  0  0  0  0  0  0  0  0  0
   56.9643   31.5786   41.5885 H   0  0  0  0  0  0  0  0  0  0  0  0
   55.1705   30.0902   42.4823 H   0  0  0  0  0  0  0  0  0  0  0  0
  1  2  2  0
  2  3  1  0
  3  4  1  0
  4  5  1  0
  4  6  2  0
  6  7  1  0
  7  8  1  0
  8  9  2  0
  9 10  1  0
 10 11  2  0
 11 12  1  0
 11 13  1  0
 13 14  2  0
 14 15  1  0
 15 16  1  0
 16 17  2  0
 17 18  1  0
 18 19  2  0
 19 20  1  0
 20 21  2  0
 21 22  1  0
  6 23  1  0
 23  2  1  0
 14  8  1  0
 21 16  1  0
  5 24  1  0
  7 25  1  0
  7 26  1  0
  9 27  1  0
 10 28  1  0
 13 29  1  0
 17 30  1  0
 18 31  1  0
 19 32  1  0
 20 33  1  0
M  CHG  4   3  -1  12  -1  22  -1  23  -1
M  END
>  <UniqueID>  (6) 
6

>  <SMILES>  (6) 
O=c1[n-]c(O)c(Cc2ccc([O-])cc2Oc2ccccc2[O-])[n-]1

>  <Energy>  (6) 
70.1372717870345

>  <Genealogy>  (6) 
O=c1[n-]c(O)c(Cc2ccc([O-])cc2Oc2ccccc2[O-])[n-]1 (protonated)
O=c1[n-]c(O)c(Cc2ccc([O-])cc2Oc2ccccc2[O-])[n-]1 (3D coordinates assigned)
O=c1[n-]c(O)c(Cc2ccc([O-])cc2Oc2ccccc2[O-])[n-]1 (optimized conformer: 70.1372717870345 kcal/mol)

>  <smiles>  (6) 
O=c1[nH]c(O)c(Cc2ccc(O)cc2Oc2ccccc2O)[nH]1

>  <score_type>  (6) 
oracle

>  <origin>  (6) 
adg

>  <m_score__min__energy>  (6) 
-16.539999999999999

>  <m_primary>  (6) 
energy

$$$$
6:0
     RDKit          3D

 72 77  0  0  0  0  0  0  0  0999 V2000
   62.0320   30.6910   49.8100 N   0  0  0  0  0  0  0  0  0  0  0  0
   62.5020   31.8710   50.4750 C   0  0  0  0  0  0  0  0  0  0  0  0
   63.0460   31.7550   51.7640 C   0  0  0  0  0  0  0  0  0  0  0  0
   63.6110   32.8650   52.3970 C   0  0  0  0  0  0  0  0  0  0  0  0
   63.6490   34.0970   51.7450 C   0  0  0  0  0  0  0  0  0  0  0  0
   63.1020   34.2290   50.4660 C   0  0  0  0  0  0  0  0  0  0  0  0
   62.4970   33.1340   49.8360 C   0  0  0  0  0  0  0  0  0  0  0  0
   61.9120   33.3340   48.5430 N   0  0  0  0  0  0  0  0  0  0  0  0
   60.6220   33.9180   48.3140 C   0  0  0  0  0  0  0  0  0  0  0  0
   60.2380   34.8900   49.0230 O   0  0  0  0  0  0  0  0  0  0  0  0
   59.7590   33.4110   47.2230 C   0  0  0  0  0  0  0  0  0  0  0  0
   59.7420   34.0490   45.9690 C   0  0  0  0  0  0  0  0  0  0  0  0
   58.9450   33.5550   44.9320 C   0  0  0  0  0  0  0  0  0  0  0  0
   58.1440   32.4220   45.1310 C   0  0  0  0  0  0  0  0  0  0  0  0
   57.2980   31.8880   44.0050 C   0  0  0  0  0  0  0  0  0  0  0  0
   56.1810   31.1070   44.5230 N   0  0  0  0  0  0  0  0  0  0  0  0
   56.2500   29.7020   44.7950 C   0  0  0  0  0  0  0  0  0  0  0  0
   55.2010   29.0020   44.7460 O   0  0  0  0  0  0  0  0  0  0  0  0
   57.5470   29.0700   45.1320 C   0  0  0  0  0  0  0  0  0  0  0  0
   58.4950   28.8060   44.1280 C   0  0  0  0  0  0  0  0  0  0  0  0
   59.7250   28.2310   44.4520 C   0  0  0  0  0  0  0  0  0  0  0  0
   60.0180   27.8930   45.7760 C   0  0  0  0  0  0  0  0  0  0  0  0
   59.0670   28.1150   46.7870 C   0  0  0  0  0  0  0  0  0  0  0  0
   59.3240   27.7840   48.1610 N   0  0  0  0  0  0  0  0  0  0  0  0
   59.7700   28.6780   49.1860 C   0  0  0  0  0  0  0  0  0  0  0  0
   60.9210   28.5210   49.6740 O   0  0  0  0  0  0  0  0  0  0  0  0
   58.9530   29.7770   49.6070 N   0  0  0  0  0  0  0  0  0  0  0  0
   59.3530   30.7570   50.6170 C   0  0  1  0  0  0  0  0  0  0  0  0
   58.3460   31.9410   50.6190 C   0  0  2  0  0  0  0  0  0  0  0  0
   58.9560   33.1860   51.2160 C   0  0  0  0  0  0  0  0  0  0  0  0
   59.3550   33.2790   52.4910 C   0  0  0  0  0  0  0  0  0  0  0  0
   59.2390   32.1490   53.4830 C   0  0  1  0  0  0  0  0  0  0  0  0
   57.7630   31.7660   53.7430 C   0  0  0  0  0  0  0  0  0  0  0  0
   57.1700   30.8560   52.6460 C   0  0  1  0  0  0  0  0  0  0  0  0
   57.0000   31.5860   51.2960 C   0  0  0  0  0  0  0  0  0  0  0  0
   58.0460   29.6110   52.4670 C   0  0  0  0  0  0  0  0  0  0  0  0
   59.4400   30.0500   51.9920 C   0  0  2  0  0  0  0  0  0  0  0  0
   60.1050   30.9360   53.0700 C   0  0  0  0  0  0  0  0  0  0  0  0
   57.8490   28.7280   46.4630 C   0  0  0  0  0  0  0  0  0  0  0  0
   58.1490   31.7880   46.3830 C   0  0  0  0  0  0  0  0  0  0  0  0
   58.9510   32.2760   47.4190 C   0  0  0  0  0  0  0  0  0  0  0  0
   61.0770   30.6660   49.3840 H   0  0  0  0  0  0  0  0  0  0  0  0
   62.5710   29.7980   49.8340 H   0  0  0  0  0  0  0  0  0  0  0  0
   63.0273   30.7833   52.2792 H   0  0  0  0  0  0  0  0  0  0  0  0
   64.0263   32.7669   53.4108 H   0  0  0  0  0  0  0  0  0  0  0  0
   64.1099   34.9657   52.2379 H   0  0  0  0  0  0  0  0  0  0  0  0
   63.1468   35.1996   49.9503 H   0  0  0  0  0  0  0  0  0  0  0  0
   60.3606   34.9434   45.8033 H   0  0  0  0  0  0  0  0  0  0  0  0
   58.9465   34.0585   43.9540 H   0  0  0  0  0  0  0  0  0  0  0  0
   56.9067   32.7310   43.4166 H   0  0  0  0  0  0  0  0  0  0  0  0
   57.9208   31.2373   43.3736 H   0  0  0  0  0  0  0  0  0  0  0  0
   58.2662   29.0540   43.0810 H   0  0  0  0  0  0  0  0  0  0  0  0
   60.4668   28.0431   43.6618 H   0  0  0  0  0  0  0  0  0  0  0  0
   60.9942   27.4526   46.0273 H   0  0  0  0  0  0  0  0  0  0  0  0
   60.3446   31.1750   50.3890 H   0  0  0  0  0  0  0  0  0  0  0  0
   58.1147   32.1519   49.5645 H   0  0  0  0  0  0  0  0  0  0  0  0
   59.0797   34.0660   50.5676 H   0  0  0  0  0  0  0  0  0  0  0  0
   59.7903   34.2297   52.8327 H   0  0  0  0  0  0  0  0  0  0  0  0
   59.6412   32.5072   54.4421 H   0  0  0  0  0  0  0  0  0  0  0  0
   57.1658   32.6884   53.7930 H   0  0  0  0  0  0  0  0  0  0  0  0
   57.7323   31.2030   54.6875 H   0  0  0  0  0  0  0  0  0  0  0  0
   56.1648   30.5588   52.9794 H   0  0  0  0  0  0  0  0  0  0  0  0
   56.4405   32.5169   51.4703 H   0  0  0  0  0  0  0  0  0  0  0  0
   56.4656   30.9020   50.6204 H   0  0  0  0  0  0  0  0  0  0  0  0
   58.1328   29.0791   53.4259 H   0  0  0  0  0  0  0  0  0  0  0  0
   57.5925   28.9388   51.7236 H   0  0  0  0  0  0  0  0  0  0  0  0
   60.0753   29.1632   51.8507 H   0  0  0  0  0  0  0  0  0  0  0  0
   60.2915   30.3200   53.9621 H   0  0  0  0  0  0  0  0  0  0  0  0
   61.0360   31.3318   52.6381 H   0  0  0  0  0  0  0  0  0  0  0  0
   57.1207   28.9443   47.2585 H   0  0  0  0  0  0  0  0  0  0  0  0
   57.5185   30.9023   46.5501 H   0  0  0  0  0  0  0  0  0  0  0  0
   58.9503   31.7686   48.3950 H   0  0  0  0  0  0  0  0  0  0  0  0
  1  2  1  0
  2  3  2  0
  3  4  1  0
  4  5  2  0
  5  6  1  0
  6  7  2  0
  7  8  1  0
  8  9  1  0
  9 10  2  0
  9 11  1  0
 11 12  2  0
 12 13  1  0
 13 14  2  0
 14 15  1  0
 15 16  1  0
 16 17  1  0
 17 18  2  0
 17 19  1  0
 19 20  2  0
 20 21  1  0
 21 22  2  0
 22 23  1  0
 23 24  1  0
 24 25  1  0
 25 26  2  0
 25 27  1  0
 27 28  1  0
 28 29  1  0
 29 30  1  0
 30 31  2  0
 31 32  1  0
 32 33  1  0
 33 34  1  0
 34 35  1  0
 34 36  1  0
 36 37  1  0
 37 38  1  0
 23 39  2  0
 14 40  1  0
 40 41  2  0
  7  2  1  0
 41 11  1  0
 39 19  1  0
 37 28  1  0
 35 29  1  0
 38 32  1  0
  1 42  1  0
  1 43  1  0
  3 44  1  0
  4 45  1  0
  5 46  1  0
  6 47  1  0
 12 48  1  0
 13 49  1  0
 15 50  1  0
 15 51  1  0
 20 52  1  0
 21 53  1  0
 22 54  1  0
 28 55  1  6
 29 56  1  6
 30 57  1  0
 31 58  1  0
 32 59  1  1
 33 60  1  0
 33 61  1  0
 34 62  1  1
 35 63  1  0
 35 64  1  0
 36 65  1  0
 36 66  1  0
 37 67  1  6
 38 68  1  0
 38 69  1  0
 39 70  1  0
 40 71  1  0
 41 72  1  0
M  CHG  4   8  -1  16  -1  24  -1  27  -1
M  END
>  <UniqueID>  (7) 
7

>  <SMILES>  (7) 
Nc1ccccc1[N-]C(=O)c1ccc(C[N-]C(=O)c2cccc([N-]C(=O)[N-][C@@H]3C4CC5C=C[C@@H]3CC(C5)C4)c2)cc1

>  <Energy>  (7) 
85.98463049996052

>  <Genealogy>  (7) 
Nc1ccccc1[N-]C(=O)c1ccc(C[N-]C(=O)c2cccc([N-]C(=O)[N-]C3C4C=CC5CC(C4)CC3C5)c2)cc1 (protonated)
Nc1ccccc1[N-]C(=O)c1ccc(C[N-]C(=O)c2cccc([N-]C(=O)[N-][C@@H]3C4CC5C=C[C@@H]3CC(C5)C4)c2)cc1 (chirality)
Nc1ccccc1[N-]C(=O)c1ccc(C[N-]C(=O)c2cccc([N-]C(=O)[N-][C@@H]3C4CC5C=C[C@@H]3CC(C5)C4)c2)cc1 (3D coordinates assigned)
Nc1ccccc1[N-]C(=O)c1ccc(C[N-]C(=O)c2cccc([N-]C(=O)[N-][C@@H]3C4CC5C=C[C@@H]3CC(C5)C4)c2)cc1 (nonaromatic ring conformer: 85.98463049996052 kcal/mol)

>  <smiles>  (7) 
Nc1ccccc1NC(=O)c1ccc(CNC(=O)c2cccc(NC(=O)NC3C4C=CC5CC(C4)CC3C5)c2)cc1

>  <score_type>  (7) 
oracle

>  <origin>  (7) 
adg

>  <m_score__min__energy>  (7) 
-16.07

>  <m_primary>  (7) 
energy

$$$$
7:0
     RDKit          3D

 48 50  0  0  0  0  0  0  0  0999 V2000
   55.0180   26.3710   46.0120 O   0  0  0  0  0  0  0  0  0  0  0  0
   55.5980   25.2530   46.0300 C   0  0  0  0  0  0  0  0  0  0  0  0
   56.9900   25.1300   45.4660 C   0  0  0  0  0  0  0  0  0  0  0  0
   57.3900   26.3620   44.7850 N   0  0  0  0  0  0  0  0  0  0  0  0
   57.5380   27.5830   45.3210 C   0  0  0  0  0  0  0  0  0  0  0  0
   57.2650   27.8950   46.6510 O   0  0  0  0  0  0  0  0  0  0  0  0
   57.9980   28.4450   44.3430 C   0  0  0  0  0  0  0  0  0  0  0  0
   58.2630   29.9120   44.4870 C   0  0  0  0  0  0  0  0  0  0  0  0
   56.9820   30.6480   44.7120 C   0  0  0  0  0  0  0  0  0  0  0  0
   55.8820   30.0720   44.4910 O   0  0  0  0  0  0  0  0  0  0  0  0
   57.0120   31.9900   45.2070 N   0  0  0  0  0  0  0  0  0  0  0  0
   58.2460   32.6940   45.5490 C   0  0  0  0  0  0  0  0  0  0  0  0
   58.1670   33.3230   46.9330 C   0  0  0  0  0  0  0  0  0  0  0  0
   59.0610   34.5560   46.8770 C   0  0  0  0  0  0  0  0  0  0  0  0
   59.2780   34.8810   45.3990 C   0  0  0  0  0  0  0  0  0  0  0  0
   58.4810   33.8580   44.6010 C   0  0  0  0  0  0  0  0  0  0  0  0
   58.1420   27.7690   43.1820 N   0  0  0  0  0  0  0  0  0  0  0  0
   57.7720   26.5080   43.4980 C   0  0  0  0  0  0  0  0  0  0  0  0
   57.7900   25.5620   42.6670 O   0  0  0  0  0  0  0  0  0  0  0  0
   54.8790   24.1170   46.5290 N   0  0  0  0  0  0  0  0  0  0  0  0
   54.3510   23.0220   45.7190 C   0  0  0  0  0  0  0  0  0  0  0  0
   55.4110   22.4800   44.7990 C   0  0  0  0  0  0  0  0  0  0  0  0
   56.3070   21.5010   45.2590 C   0  0  0  0  0  0  0  0  0  0  0  0
   57.2930   20.9920   44.4080 C   0  0  0  0  0  0  0  0  0  0  0  0
   57.3930   21.4570   43.0940 C   0  0  0  0  0  0  0  0  0  0  0  0
   56.5060   22.4330   42.6290 C   0  0  0  0  0  0  0  0  0  0  0  0
   55.5200   22.9460   43.4760 C   0  0  0  0  0  0  0  0  0  0  0  0
   57.6941   24.9275   46.2865 H   0  0  0  0  0  0  0  0  0  0  0  0
   57.0015   24.3066   44.7367 H   0  0  0  0  0  0  0  0  0  0  0  0
   56.5020   27.4560   47.1510 H   0  0  0  0  0  0  0  0  0  0  0  0
   58.9327   30.0779   45.3437 H   0  0  0  0  0  0  0  0  0  0  0  0
   58.7336   30.2840   43.5650 H   0  0  0  0  0  0  0  0  0  0  0  0
   59.0463   31.9414   45.4937 H   0  0  0  0  0  0  0  0  0  0  0  0
   57.1309   33.6106   47.1650 H   0  0  0  0  0  0  0  0  0  0  0  0
   58.4905   32.6221   47.7167 H   0  0  0  0  0  0  0  0  0  0  0  0
   58.5712   35.4015   47.3822 H   0  0  0  0  0  0  0  0  0  0  0  0
   60.0194   34.3705   47.3840 H   0  0  0  0  0  0  0  0  0  0  0  0
   58.9185   35.8968   45.1781 H   0  0  0  0  0  0  0  0  0  0  0  0
   60.3459   34.8390   45.1387 H   0  0  0  0  0  0  0  0  0  0  0  0
   57.5222   34.2875   44.2752 H   0  0  0  0  0  0  0  0  0  0  0  0
   59.0167   33.5424   43.6936 H   0  0  0  0  0  0  0  0  0  0  0  0
   54.0036   22.2169   46.3831 H   0  0  0  0  0  0  0  0  0  0  0  0
   53.5171   23.4028   45.1111 H   0  0  0  0  0  0  0  0  0  0  0  0
   56.2328   21.1331   46.2930 H   0  0  0  0  0  0  0  0  0  0  0  0
   57.9910   20.2244   44.7735 H   0  0  0  0  0  0  0  0  0  0  0  0
   58.1691   21.0555   42.4258 H   0  0  0  0  0  0  0  0  0  0  0  0
   56.5846   22.7977   41.5942 H   0  0  0  0  0  0  0  0  0  0  0  0
   54.8270   23.7165   43.1072 H   0  0  0  0  0  0  0  0  0  0  0  0
  1  2  2  0
  2  3  1  0
  3  4  1  0
  4  5  1  0
  5  6  1  0
  5  7  2  0
  7  8  1  0
  8  9  1  0
  9 10  2  0
  9 11  1  0
 11 12  1  0
 12 13  1  0
 13 14  1  0
 14 15  1  0
 15 16  1  0
  7 17  1  0
 17 18  1  0
 18 19  2  0
  2 20  1  0
 20 21  1  0
 21 22  1  0
 22 23  2  0
 23 24  1  0
 24 25  2  0
 25 26  1  0
 26 27  2  0
 18  4  1  0
 27 22  1  0
 16 12  1  0
  3 28  1  0
  3 29  1  0
  6 30  1  0
  8 31  1  0
  8 32  1  0
 12 33  1  0
 13 34  1  0
 13 35  1  0
 14 36  1  0
 14 37  1  0
 15 38  1  0
 15 39  1  0
 16 40  1  0
 16 41  1  0
 21 42  1  0
 21 43  1  0
 23 44  1  0
 24 45  1  0
 25 46  1  0
 26 47  1  0
 27 48  1  0
M  CHG  3  11  -1  17  -1  20  -1
M  END
>  <UniqueID>  (8) 
8

>  <SMILES>  (8) 
O=C(Cn1c(O)c(CC(=O)[N-]C2CCCC2)[n-]c1=O)[N-]Cc1ccccc1

>  <Energy>  (8) 
72.91154076536488

>  <Genealogy>  (8) 
O=C(Cn1c(O)c(CC(=O)[N-]C2CCCC2)[n-]c1=O)[N-]Cc1ccccc1 (protonated)
O=C(Cn1c(O)c(CC(=O)[N-]C2CCCC2)[n-]c1=O)[N-]Cc1ccccc1 (3D coordinates assigned)
O=C(Cn1c(O)c(CC(=O)[N-]C2CCCC2)[n-]c1=O)[N-]Cc1ccccc1 (nonaromatic ring conformer: 72.91154076536488 kcal/mol)

>  <smiles>  (8) 
O=C(Cn1c(O)c(CC(=O)NC2CCCC2)[nH]c1=O)NCc1ccccc1

>  <score_type>  (8) 
oracle

>  <origin>  (8) 
adg

>  <m_score__min__energy>  (8) 
-14.15

>  <m_primary>  (8) 
energy

$$$$
8:0
     RDKit          3D

 40 41  0  0  0  0  0  0  0  0999 V2000
   61.9500   33.6430   49.4730 N   0  0  0  0  0  0  0  0  0  0  0  0
   63.0960   33.0790   48.3060 S   0  0  0  0  0  0  0  0  0  0  0  0
   62.9840   31.5860   48.1800 O   0  0  0  0  0  0  0  0  0  0  0  0
   64.4840   33.4320   48.7610 O   0  0  0  0  0  0  0  0  0  0  0  0
   62.7790   33.8470   46.7240 C   0  0  0  0  0  0  0  0  0  0  0  0
   61.2810   33.8300   46.4050 C   0  0  0  0  0  0  0  0  0  0  0  0
   60.6030   32.6850   47.0370 N   0  0  0  0  0  0  0  0  0  0  0  0
   59.1400   32.8370   47.1400 C   0  0  0  0  0  0  0  0  0  0  0  0
   58.4120   32.2990   45.9290 C   0  0  0  0  0  0  0  0  0  0  0  0
   57.8110   31.0310   45.9810 C   0  0  0  0  0  0  0  0  0  0  0  0
   57.1980   30.4820   44.8490 C   0  0  0  0  0  0  0  0  0  0  0  0
   56.6150   29.1760   44.9500 N   0  0  0  0  0  0  0  0  0  0  0  0
   57.3160   27.9260   44.9360 C   0  0  0  0  0  0  0  0  0  0  0  0
   57.5260   27.3130   43.8540 O   0  0  0  0  0  0  0  0  0  0  0  0
   57.9080   27.4070   46.2060 C   0  0  0  0  0  0  0  0  0  0  0  0
   57.2360   26.1280   46.5920 C   0  0  0  0  0  0  0  0  0  0  0  0
   57.8880   25.0390   47.0380 N   0  0  0  0  0  0  0  0  0  0  0  0
   56.9020   24.1260   47.1790 C   0  0  0  0  0  0  0  0  0  0  0  0
   57.1180   22.9550   47.5890 O   0  0  0  0  0  0  0  0  0  0  0  0
   55.6700   24.5610   46.8390 N   0  0  0  0  0  0  0  0  0  0  0  0
   55.9010   25.8290   46.4620 C   0  0  0  0  0  0  0  0  0  0  0  0
   54.9150   26.6980   46.0020 O   0  0  0  0  0  0  0  0  0  0  0  0
   57.1400   31.2370   43.6640 C   0  0  0  0  0  0  0  0  0  0  0  0
   57.7260   32.5040   43.6080 C   0  0  0  0  0  0  0  0  0  0  0  0
   58.3680   33.0340   44.7310 C   0  0  0  0  0  0  0  0  0  0  0  0
   58.9400   34.2610   44.6510 F   0  0  0  0  0  0  0  0  0  0  0  0
   61.0000   33.5360   49.0520 H   0  0  0  0  0  0  0  0  0  0  0  0
   63.1307   34.8889   46.7514 H   0  0  0  0  0  0  0  0  0  0  0  0
   63.3133   33.2845   45.9442 H   0  0  0  0  0  0  0  0  0  0  0  0
   60.8271   34.7614   46.7744 H   0  0  0  0  0  0  0  0  0  0  0  0
   61.1632   33.7397   45.3151 H   0  0  0  0  0  0  0  0  0  0  0  0
   60.9910   32.5680   48.0030 H   0  0  0  0  0  0  0  0  0  0  0  0
   58.7914   32.2937   48.0306 H   0  0  0  0  0  0  0  0  0  0  0  0
   58.9212   33.9128   47.2090 H   0  0  0  0  0  0  0  0  0  0  0  0
   57.8221   30.4625   46.9226 H   0  0  0  0  0  0  0  0  0  0  0  0
   58.9831   27.2253   46.0604 H   0  0  0  0  0  0  0  0  0  0  0  0
   57.7627   28.1493   47.0047 H   0  0  0  0  0  0  0  0  0  0  0  0
   55.1590   27.5110   45.4490 H   0  0  0  0  0  0  0  0  0  0  0  0
   56.6315   30.8286   42.7782 H   0  0  0  0  0  0  0  0  0  0  0  0
   57.6820   33.0870   42.6763 H   0  0  0  0  0  0  0  0  0  0  0  0
  1  2  1  0
  2  3  2  0
  2  4  2  0
  2  5  1  0
  5  6  1  0
  6  7  1  0
  7  8  1  0
  8  9  1  0
  9 10  2  0
 10 11  1  0
 11 12  1  0
 12 13  1  0
 13 14  2  0
 13 15  1  0
 15 16  1  0
 16 17  1  0
 17 18  1  0
 18 19  2  0
 18 20  1  0
 20 21  1  0
 21 22  1  0
 11 23  2  0
 23 24  1  0
 24 25  2  0
 25 26  1  0
 25  9  1  0
 21 16  2  0
  1 27  1  0
  5 28  1  0
  5 29  1  0
  6 30  1  0
  6 31  1  0
  7 32  1  0
  8 33  1  0
  8 34  1  0
 10 35  1  0
 15 36  1  0
 15 37  1  0
 22 38  1  0
 23 39  1  0
 24 40  1  0
M  CHG  4   1  -1  12  -1  17  -1  20  -1
M  END
>  <UniqueID>  (9) 
9

>  <SMILES>  (9) 
[NH-]S(=O)(=O)CCNCc1cc([N-]C(=O)Cc2[n-]c(=O)[n-]c2O)ccc1F

>  <Energy>  (9) 
63.01444222426139

>  <Genealogy>  (9) 
[NH-]S(=O)(=O)CCNCc1cc([N-]C(=O)Cc2[n-]c(=O)[n-]c2O)ccc1F (protonated)
[NH-]S(=O)(=O)CCNCc1cc([N-]C(=O)Cc2[n-]c(=O)[n-]c2O)ccc1F (3D coordinates assigned)
[NH-]S(=O)(=O)CCNCc1cc([N-]C(=O)Cc2[n-]c(=O)[n-]c2O)ccc1F (optimized conformer: 63.01444222426139 kcal/mol)

>  <smiles>  (9) 
NS(=O)(=O)CCNCc1cc(NC(=O)Cc2[nH]c(=O)[nH]c2O)ccc1F

>  <score_type>  (9) 
oracle

>  <origin>  (9) 
adg

>  <m_score__min__energy>  (9) 
-15.68

>  <m_primary>  (9) 
energy

$$$$
9:0
     RDKit          3D

 52 54  0  0  0  0  0  0  0  0999 V2000
   54.7760   27.0880   45.3070 H   0  0  0  0  0  0  0  0  0  0  0  0
   54.7760   26.3760   46.0260 O   0  0  0  0  0  0  0  0  0  0  0  0
   55.4960   25.1790   45.9300 C   0  0  0  0  0  0  0  0  0  0  0  0
   54.8360   24.0270   45.4550 C   0  0  0  0  0  0  0  0  0  0  0  0
   53.4200   24.1000   45.0330 C   0  0  0  0  0  0  0  0  0  0  0  0
   52.9529   25.0831   44.8737 H   0  0  0  0  0  0  0  0  0  0  0  0
   52.7400   23.0540   44.8530 O   0  0  0  0  0  0  0  0  0  0  0  0
   55.5300   22.8070   45.3870 C   0  0  0  0  0  0  0  0  0  0  0  0
   55.0162   21.9059   45.0209 H   0  0  0  0  0  0  0  0  0  0  0  0
   56.8640   22.7310   45.7800 C   0  0  0  0  0  0  0  0  0  0  0  0
   57.3966   21.7699   45.7295 H   0  0  0  0  0  0  0  0  0  0  0  0
   57.5260   23.8690   46.2370 C   0  0  0  0  0  0  0  0  0  0  0  0
   58.5821   23.8014   46.5371 H   0  0  0  0  0  0  0  0  0  0  0  0
   56.8570   25.1020   46.3180 C   0  0  0  0  0  0  0  0  0  0  0  0
   57.5960   26.3170   46.7340 C   0  0  0  0  0  0  0  0  0  0  0  0
   57.4865   26.6715   47.7695 H   0  0  0  0  0  0  0  0  0  0  0  0
   58.3920   27.0020   45.9020 C   0  0  0  0  0  0  0  0  0  0  0  0
   59.4576   27.1032   46.1554 H   0  0  0  0  0  0  0  0  0  0  0  0
   57.8970   27.6270   44.6580 C   0  0  0  0  0  0  0  0  0  0  0  0
   57.6630   26.8820   43.6670 O   0  0  0  0  0  0  0  0  0  0  0  0
   57.6820   29.0870   44.5260 C   0  0  0  0  0  0  0  0  0  0  0  0
   58.7700   29.9400   44.2770 C   0  0  0  0  0  0  0  0  0  0  0  0
   59.7810   29.5185   44.1757 H   0  0  0  0  0  0  0  0  0  0  0  0
   58.5800   31.3170   44.1570 C   0  0  0  0  0  0  0  0  0  0  0  0
   59.4417   31.9742   43.9685 H   0  0  0  0  0  0  0  0  0  0  0  0
   57.2910   31.8690   44.2760 C   0  0  0  0  0  0  0  0  0  0  0  0
   57.0460   33.2490   44.1870 O   0  0  0  0  0  0  0  0  0  0  0  0
   57.1380   34.1710   45.2730 C   0  0  0  0  0  0  0  0  0  0  0  0
   56.6445   35.1119   44.9882 H   0  0  0  0  0  0  0  0  0  0  0  0
   56.6462   33.7269   46.1510 H   0  0  0  0  0  0  0  0  0  0  0  0
   58.5730   34.4550   45.6220 C   0  0  0  0  0  0  0  0  0  0  0  0
   59.2340   35.2470   44.8940 O   0  0  0  0  0  0  0  0  0  0  0  0
   59.2050   33.8420   46.7640 N   0  0  0  0  0  0  0  0  0  0  0  0
   60.3160   34.5460   47.4240 C   0  0  0  0  0  0  0  0  0  0  0  0
   61.1590   34.6199   46.7212 H   0  0  0  0  0  0  0  0  0  0  0  0
   59.9618   35.5443   47.7206 H   0  0  0  0  0  0  0  0  0  0  0  0
   60.7840   33.8090   48.6870 C   0  0  0  0  0  0  0  0  0  0  0  0
   61.3609   32.9194   48.3940 H   0  0  0  0  0  0  0  0  0  0  0  0
   61.4107   34.4885   49.2833 H   0  0  0  0  0  0  0  0  0  0  0  0
   59.5810   33.3740   49.5330 C   0  0  0  0  0  0  0  0  0  0  0  0
   59.9476   32.7825   50.3849 H   0  0  0  0  0  0  0  0  0  0  0  0
   59.0617   34.2872   49.8590 H   0  0  0  0  0  0  0  0  0  0  0  0
   58.5610   32.5200   48.7430 C   0  0  0  0  0  0  0  0  0  0  0  0
   58.6076   31.4868   49.1175 H   0  0  0  0  0  0  0  0  0  0  0  0
   57.5709   32.9743   48.8958 H   0  0  0  0  0  0  0  0  0  0  0  0
   58.8210   32.5010   47.2310 C   0  0  0  0  0  0  0  0  0  0  0  0
   59.6338   31.7932   47.0111 H   0  0  0  0  0  0  0  0  0  0  0  0
   57.9017   32.1904   46.7129 H   0  0  0  0  0  0  0  0  0  0  0  0
   56.2030   31.0160   44.4970 C   0  0  0  0  0  0  0  0  0  0  0  0
   55.1894   31.4367   44.5724 H   0  0  0  0  0  0  0  0  0  0  0  0
   56.3890   29.6360   44.6230 C   0  0  0  0  0  0  0  0  0  0  0  0
   55.2890   28.8230   44.8660 O   0  0  0  0  0  0  0  0  0  0  0  0
  1  2  1  0
  2  3  1  0
  3  4  2  0
  4  5  1  0
  5  6  1  0
  5  7  2  0
  4  8  1  0
  8  9  1  0
  8 10  2  0
 10 11  1  0
 10 12  1  0
 12 13  1  0
 12 14  2  0
 14 15  1  0
 15 16  1  0
 15 17  2  0
 17 18  1  0
 17 19  1  0
 19 20  2  0
 19 21  1  0
 21 22  2  0
 22 23  1  0
 22 24  1  0
 24 25  1  0
 24 26  2  0
 26 27  1  0
 27 28  1  0
 28 29  1  0
 28 30  1  0
 28 31  1  0
 31 32  2  0
 31 33  1  0
 33 34  1  0
 34 35  1  0
 34 36  1  0
 34 37  1  0
 37 38  1  0
 37 39  1  0
 37 40  1  0
 40 41  1  0
 40 42  1  0
 40 43  1  0
 43 44  1  0
 43 45  1  0
 43 46  1  0
 46 47  1  0
 46 48  1  0
 26 49  1  0
 49 50  1  0
 49 51  2  0
 51 52  1  0
 14  3  1  0
 51 21  1  0
 46 33  1  0
M  CHG  1  52  -1
M  END
>  <UniqueID>  (10) 
10

>  <SMILES>  (10) 
O=Cc1cccc(/C=C/C(=O)c2ccc(OCC(=O)N3CCCCC3)cc2[O-])c1O

>  <Energy>  (10) 
66.18575036664748

>  <Genealogy>  (10) 
O=Cc1cccc(C=CC(=O)c2ccc(OCC(=O)N3CCCCC3)cc2[O-])c1O (protonated)
O=Cc1cccc(/C=C/C(=O)c2ccc(OCC(=O)N3CCCCC3)cc2[O-])c1O (cis-trans isomerization)
O=Cc1cccc(/C=C/C(=O)c2ccc(OCC(=O)N3CCCCC3)cc2[O-])c1O (3D coordinates assigned)
O=Cc1cccc(/C=C/C(=O)c2ccc(OCC(=O)N3CCCCC3)cc2[O-])c1O (nonaromatic ring conformer: 66.18575036664748 kcal/mol)

>  <smiles>  (10) 
O=Cc1cccc(C=CC(=O)c2ccc(OCC(=O)N3CCCCC3)cc2O)c1O

>  <score_type>  (10) 
oracle

>  <origin>  (10) 
adg

>  <m_score__min__energy>  (10) 
-13.24

>  <m_primary>  (10) 
energy

$$$$
10:0
     RDKit          3D

 44 46  0  0  0  0  0  0  0  0999 V2000
   54.2650   29.3600   51.5740 O   0  0  0  0  0  0  0  0  0  0  0  0
   54.0940   29.4350   52.8190 C   0  0  0  0  0  0  0  0  0  0  0  0
   55.1530   28.8940   53.7430 C   0  0  0  0  0  0  0  0  0  0  0  0
   56.0930   30.0010   54.2340 C   0  0  0  0  0  0  0  0  0  0  0  0
   57.1000   30.3010   53.2170 N   0  0  0  0  0  0  0  0  0  0  0  0
   56.9300   31.3500   52.2520 C   0  0  0  0  0  0  0  0  0  0  0  0
   55.8700   32.0320   52.2370 O   0  0  0  0  0  0  0  0  0  0  0  0
   57.9870   31.6340   51.2680 C   0  0  0  0  0  0  0  0  0  0  0  0
   58.5630   30.7250   50.4070 C   0  0  0  0  0  0  0  0  0  0  0  0
   59.4560   31.3680   49.6970 O   0  0  0  0  0  0  0  0  0  0  0  0
   59.4410   32.6190   50.0990 C   0  0  0  0  0  0  0  0  0  0  0  0
   60.3200   33.6840   49.5250 C   0  0  0  0  0  0  0  0  0  0  0  0
   59.5540   34.6030   48.7470 O   0  0  0  0  0  0  0  0  0  0  0  0
   59.1170   34.3840   47.4300 C   0  0  0  0  0  0  0  0  0  0  0  0
   59.6950   35.0320   46.3200 C   0  0  0  0  0  0  0  0  0  0  0  0
   59.2160   34.7780   45.0300 C   0  0  0  0  0  0  0  0  0  0  0  0
   58.1630   33.8810   44.8360 C   0  0  0  0  0  0  0  0  0  0  0  0
   57.5870   33.2340   45.9320 C   0  0  0  0  0  0  0  0  0  0  0  0
   58.0630   33.4840   47.2220 C   0  0  0  0  0  0  0  0  0  0  0  0
   58.5390   32.8480   51.0760 N   0  0  0  0  0  0  0  0  0  0  0  0
   52.8140   29.8540   53.3170 N   0  0  0  0  0  0  0  0  0  0  0  0
   52.1000   30.8720   52.9250 C   0  0  0  0  0  0  0  0  0  0  0  0
   52.1860   31.2720   51.5840 C   0  0  0  0  0  0  0  0  0  0  0  0
   51.4400   32.3630   51.1340 C   0  0  0  0  0  0  0  0  0  0  0  0
   50.6420   33.0460   51.9970 N   0  0  0  0  0  0  0  0  0  0  0  0
   50.5490   32.6980   53.3060 C   0  0  0  0  0  0  0  0  0  0  0  0
   51.2790   31.6130   53.8000 C   0  0  0  0  0  0  0  0  0  0  0  0
   54.6647   28.4289   54.6120 H   0  0  0  0  0  0  0  0  0  0  0  0
   55.7507   28.1568   53.1869 H   0  0  0  0  0  0  0  0  0  0  0  0
   55.5070   30.9082   54.4429 H   0  0  0  0  0  0  0  0  0  0  0  0
   56.5996   29.6600   55.1489 H   0  0  0  0  0  0  0  0  0  0  0  0
   57.9460   29.6900   53.1660 H   0  0  0  0  0  0  0  0  0  0  0  0
   58.3176   29.6555   50.3302 H   0  0  0  0  0  0  0  0  0  0  0  0
   60.8121   34.2273   50.3451 H   0  0  0  0  0  0  0  0  0  0  0  0
   61.0720   33.2112   48.8762 H   0  0  0  0  0  0  0  0  0  0  0  0
   60.5246   35.7391   46.4680 H   0  0  0  0  0  0  0  0  0  0  0  0
   59.6699   35.2861   44.1664 H   0  0  0  0  0  0  0  0  0  0  0  0
   57.7876   33.6842   43.8210 H   0  0  0  0  0  0  0  0  0  0  0  0
   56.7581   32.5272   45.7795 H   0  0  0  0  0  0  0  0  0  0  0  0
   57.6067   32.9703   48.0810 H   0  0  0  0  0  0  0  0  0  0  0  0
   52.8402   30.7271   50.8875 H   0  0  0  0  0  0  0  0  0  0  0  0
   51.4981   32.6704   50.0794 H   0  0  0  0  0  0  0  0  0  0  0  0
   49.8967   33.2721   53.9805 H   0  0  0  0  0  0  0  0  0  0  0  0
   51.2135   31.3392   54.8634 H   0  0  0  0  0  0  0  0  0  0  0  0
  1  2  2  0
  2  3  1  0
  3  4  1  0
  4  5  1  0
  5  6  1  0
  6  7  2  0
  6  8  1  0
  8  9  2  0
  9 10  1  0
 10 11  1  0
 11 12  1  0
 12 13  1  0
 13 14  1  0
 14 15  2  0
 15 16  1  0
 16 17  2  0
 17 18  1  0
 18 19  2  0
 11 20  2  0
  2 21  1  0
 21 22  2  3
 22 23  1  0
 23 24  2  0
 24 25  1  0
 25 26  1  0
 26 27  2  0
 20  8  1  0
 27 22  1  0
 19 14  1  0
  3 28  1  0
  3 29  1  0
  4 30  1  0
  4 31  1  0
  5 32  1  0
  9 33  1  0
 12 34  1  0
 12 35  1  0
 15 36  1  0
 16 37  1  0
 17 38  1  0
 18 39  1  0
 19 40  1  0
 23 41  1  0
 24 42  1  0
 26 43  1  0
 27 44  1  0
M  CHG  1  25  -1
M  END
>  <UniqueID>  (11) 
11

>  <SMILES>  (11) 
O=C(CCNC(=O)c1coc(COc2ccccc2)n1)N=c1cc[n-]cc1

>  <Energy>  (11) 
79.43182568497873

>  <Genealogy>  (11) 
O=C(CCNC(=O)c1coc(COc2ccccc2)n1)N=c1cc[n-]cc1 (protonated)
O=C(CCNC(=O)c1coc(COc2ccccc2)n1)N=c1cc[n-]cc1 (3D coordinates assigned)
O=C(CCNC(=O)c1coc(COc2ccccc2)n1)N=c1cc[n-]cc1 (optimized conformer: 79.43182568497873 kcal/mol)

>  <smiles>  (11) 
O=C(CCNC(=O)c1coc(COc2ccccc2)n1)N=c1cc[nH]cc1

>  <score_type>  (11) 
oracle

>  <origin>  (11) 
adg

>  <m_score__min__energy>  (11) 
-9.5600000000000005

>  <m_primary>  (11) 
energy

$$$$
11:0
     RDKit          3D

 66 70  0  0  0  0  0  0  0  0999 V2000
   58.8330   30.0060   43.1110 H   0  0  0  0  0  0  0  0  0  0  0  0
   59.0600   30.0840   44.1280 N   0  0  0  0  0  0  0  0  0  0  0  0
   57.8450   31.0850   44.8400 S   0  0  0  0  0  0  0  0  0  0  0  0
   57.4450   32.1580   43.8670 O   0  0  0  0  0  0  0  0  0  0  0  0
   56.6370   30.2550   45.1680 O   0  0  0  0  0  0  0  0  0  0  0  0
   58.4780   31.8150   46.3120 C   0  0  0  0  0  0  0  0  0  0  0  0
   58.9810   33.1230   46.2960 C   0  0  0  0  0  0  0  0  0  0  0  0
   58.9721   33.7027   45.3612 H   0  0  0  0  0  0  0  0  0  0  0  0
   59.4940   33.6930   47.4650 C   0  0  0  0  0  0  0  0  0  0  0  0
   59.8957   34.7168   47.4441 H   0  0  0  0  0  0  0  0  0  0  0  0
   59.4990   32.9630   48.6690 C   0  0  0  0  0  0  0  0  0  0  0  0
   60.0500   33.4960   49.8850 N   0  0  0  0  0  0  0  0  0  0  0  0
   59.5340   33.4280   51.0770 C   0  0  0  0  0  0  0  0  0  0  0  0
   58.5270   32.5570   51.3650 N   0  0  0  0  0  0  0  0  0  0  0  0
   57.9980   32.4540   52.6150 C   0  0  0  0  0  0  0  0  0  0  0  0
   56.9000   31.4800   52.8640 C   0  0  0  0  0  0  0  0  0  0  0  0
   55.9310   31.2470   51.8710 C   0  0  0  0  0  0  0  0  0  0  0  0
   55.9854   31.7950   50.9188 H   0  0  0  0  0  0  0  0  0  0  0  0
   54.9000   30.3270   52.0810 C   0  0  0  0  0  0  0  0  0  0  0  0
   54.1446   30.1651   51.2980 H   0  0  0  0  0  0  0  0  0  0  0  0
   54.8220   29.6100   53.2810 C   0  0  0  0  0  0  0  0  0  0  0  0
   53.7510   28.6710   53.4740 N   0  0  0  0  0  0  0  0  0  0  0  0
   52.7810   29.0570   53.4730 H   0  0  0  0  0  0  0  0  0  0  0  0
   53.9530   27.2460   53.5670 C   0  0  0  0  0  0  0  0  0  0  0  0
   55.1200   26.7750   53.4890 O   0  0  0  0  0  0  0  0  0  0  0  0
   52.8120   26.3100   53.7400 C   0  0  0  0  0  0  0  0  0  0  0  0
   51.6780   26.6620   54.4960 C   0  0  0  0  0  0  0  0  0  0  0  0
   51.6334   27.6439   54.9898 H   0  0  0  0  0  0  0  0  0  0  0  0
   50.6090   25.7720   54.6230 C   0  0  0  0  0  0  0  0  0  0  0  0
   49.7311   26.0541   55.2228 H   0  0  0  0  0  0  0  0  0  0  0  0
   50.6480   24.5280   53.9940 C   0  0  0  0  0  0  0  0  0  0  0  0
   49.7996   23.8355   54.0976 H   0  0  0  0  0  0  0  0  0  0  0  0
   51.7650   24.1550   53.2290 C   0  0  0  0  0  0  0  0  0  0  0  0
   51.7910   22.8870   52.5420 N   0  0  0  0  0  0  0  0  0  0  0  0
   52.6000   22.7210   51.3300 C   0  0  0  0  0  0  0  0  0  0  0  0
   53.6336   22.4766   51.6162 H   0  0  0  0  0  0  0  0  0  0  0  0
   52.5751   23.6592   50.7563 H   0  0  0  0  0  0  0  0  0  0  0  0
   52.0370   21.5880   50.4520 C   0  0  0  0  0  0  0  0  0  0  0  0
   52.4263   20.6265   50.8181 H   0  0  0  0  0  0  0  0  0  0  0  0
   52.3507   21.7711   49.4137 H   0  0  0  0  0  0  0  0  0  0  0  0
   50.5580   21.5510   50.4870 N   0  0  0  0  0  0  0  0  0  0  0  0
   49.9650   22.7440   49.8520 C   0  0  0  0  0  0  0  0  0  0  0  0
   49.6191   23.4400   50.6304 H   0  0  0  0  0  0  0  0  0  0  0  0
   50.7212   23.2404   49.2261 H   0  0  0  0  0  0  0  0  0  0  0  0
   49.1127   22.4408   49.2261 H   0  0  0  0  0  0  0  0  0  0  0  0
   50.0140   21.3220   51.8510 C   0  0  0  0  0  0  0  0  0  0  0  0
   49.8093   20.2474   51.9668 H   0  0  0  0  0  0  0  0  0  0  0  0
   49.1056   21.9359   51.9407 H   0  0  0  0  0  0  0  0  0  0  0  0
   50.9650   21.7600   52.9820 C   0  0  0  0  0  0  0  0  0  0  0  0
   51.6167   20.9170   53.2553 H   0  0  0  0  0  0  0  0  0  0  0  0
   50.3680   22.0713   53.8519 H   0  0  0  0  0  0  0  0  0  0  0  0
   52.8380   25.0550   53.1010 C   0  0  0  0  0  0  0  0  0  0  0  0
   53.7106   24.7747   52.4928 H   0  0  0  0  0  0  0  0  0  0  0  0
   55.7600   29.8650   54.2930 C   0  0  0  0  0  0  0  0  0  0  0  0
   55.6860   29.3339   55.2534 H   0  0  0  0  0  0  0  0  0  0  0  0
   56.7880   30.7900   54.0880 C   0  0  0  0  0  0  0  0  0  0  0  0
   57.5165   30.9812   54.8897 H   0  0  0  0  0  0  0  0  0  0  0  0
   58.5290   33.2580   53.6390 C   0  0  0  0  0  0  0  0  0  0  0  0
   58.1359   33.1917   54.6642 H   0  0  0  0  0  0  0  0  0  0  0  0
   59.5620   34.1400   53.3310 C   0  0  0  0  0  0  0  0  0  0  0  0
   59.9864   34.7841   54.1153 H   0  0  0  0  0  0  0  0  0  0  0  0
   60.0460   34.2060   52.0640 N   0  0  0  0  0  0  0  0  0  0  0  0
   59.0320   31.6430   48.6670 C   0  0  0  0  0  0  0  0  0  0  0  0
   59.0717   31.0490   49.5920 H   0  0  0  0  0  0  0  0  0  0  0  0
   58.5160   31.0740   47.5000 C   0  0  0  0  0  0  0  0  0  0  0  0
   58.1384   30.0409   47.5142 H   0  0  0  0  0  0  0  0  0  0  0  0
  1  2  1  0
  2  3  1  0
  3  4  2  0
  3  5  2  0
  3  6  1  0
  6  7  2  0
  7  8  1  0
  7  9  1  0
  9 10  1  0
  9 11  2  0
 11 12  1  0
 12 13  2  0
 13 14  1  0
 14 15  2  0
 15 16  1  0
 16 17  2  0
 17 18  1  0
 17 19  1  0
 19 20  1  0
 19 21  2  0
 21 22  1  0
 22 23  1  0
 22 24  1  0
 24 25  2  0
 24 26  1  0
 26 27  2  0
 27 28  1  0
 27 29  1  0
 29 30  1  0
 29 31  2  0
 31 32  1  0
 31 33  1  0
 33 34  1  0
 34 35  1  0
 35 36  1  0
 35 37  1  0
 35 38  1  0
 38 39  1  0
 38 40  1  0
 38 41  1  0
 41 42  1  0
 42 43  1  0
 42 44  1  0
 42 45  1  0
 41 46  1  0
 46 47  1  0
 46 48  1  0
 46 49  1  0
 49 50  1  0
 49 51  1  0
 33 52  2  0
 52 53  1  0
 21 54  1  0
 54 55  1  0
 54 56  2  0
 56 57  1  0
 15 58  1  0
 58 59  1  0
 58 60  2  0
 60 61  1  0
 60 62  1  0
 11 63  1  0
 63 64  1  0
 63 65  2  0
 65 66  1  0
 65  6  1  0
 62 13  1  0
 56 16  1  0
 52 26  1  0
 49 34  1  0
M  CHG  2   2  -1  62  -1
M  END
>  <UniqueID>  (12) 
12

>  <SMILES>  (12) 
CN1CCN(c2cccc(C(=O)Nc3ccc(-c4cc[n-]/c(=N/c5ccc(S([NH-])(=O)=O)cc5)n4)cc3)c2)CC1

>  <Energy>  (12) 
100.67807485102416

>  <Genealogy>  (12) 
CN1CCN(c2cccc(C(=O)Nc3ccc(-c4cc[n-]c(=Nc5ccc(S([NH-])(=O)=O)cc5)n4)cc3)c2)CC1 (protonated)
CN1CCN(c2cccc(C(=O)Nc3ccc(-c4cc[n-]/c(=N/c5ccc(S([NH-])(=O)=O)cc5)n4)cc3)c2)CC1 (cis-trans isomerization)
CN1CCN(c2cccc(C(=O)Nc3ccc(-c4cc[n-]/c(=N/c5ccc(S([NH-])(=O)=O)cc5)n4)cc3)c2)CC1 (3D coordinates assigned)
CN1CCN(c2cccc(C(=O)Nc3ccc(-c4cc[n-]/c(=N/c5ccc(S([NH-])(=O)=O)cc5)n4)cc3)c2)CC1 (nonaromatic ring conformer: 100.67807485102416 kcal/mol)

>  <smiles>  (12) 
CN1CCN(c2cccc(C(=O)Nc3ccc(-c4cc[nH]c(=Nc5ccc(S(N)(=O)=O)cc5)n4)cc3)c2)CC1

>  <score_type>  (12) 
oracle

>  <origin>  (12) 
adg

>  <m_score__min__energy>  (12) 
-13.73

>  <m_primary>  (12) 
energy

$$$$
12:0
     RDKit          3D

 41 42  0  0  0  0  0  0  0  0999 V2000
   59.6420   29.4660   47.6990 C   0  0  0  0  0  0  0  0  0  0  0  0
   58.9380   30.1970   46.8210 C   0  0  0  0  0  0  0  0  0  0  0  0
   58.3490   29.7260   45.6420 C   0  0  0  0  0  0  0  0  0  0  0  0
   58.4140   28.4810   45.1330 C   0  0  0  0  0  0  0  0  0  0  0  0
   57.5530   27.3660   45.5930 C   0  0  0  0  0  0  0  0  0  0  0  0
   56.1530   27.4800   45.6230 C   0  0  0  0  0  0  0  0  0  0  0  0
   55.5240   28.6520   45.2180 O   0  0  0  0  0  0  0  0  0  0  0  0
   55.3990   26.4440   46.0740 N   0  0  0  0  0  0  0  0  0  0  0  0
   55.9750   25.2970   46.5150 C   0  0  0  0  0  0  0  0  0  0  0  0
   55.2550   24.3500   46.9240 O   0  0  0  0  0  0  0  0  0  0  0  0
   57.3260   25.1740   46.5230 N   0  0  0  0  0  0  0  0  0  0  0  0
   58.1260   26.1800   46.0810 C   0  0  0  0  0  0  0  0  0  0  0  0
   59.3760   26.0320   46.1060 O   0  0  0  0  0  0  0  0  0  0  0  0
   57.7050   30.8120   45.0670 C   0  0  0  0  0  0  0  0  0  0  0  0
   57.9130   31.8860   45.9080 C   0  0  0  0  0  0  0  0  0  0  0  0
   57.3940   33.2700   45.6590 C   0  0  0  0  0  0  0  0  0  0  0  0
   58.6760   31.5230   46.9660 N   0  0  0  0  0  0  0  0  0  0  0  0
   59.0740   32.3970   48.0790 C   0  0  0  0  0  0  0  0  0  0  0  0
   59.8240   33.6220   47.5490 C   0  0  0  0  0  0  0  0  0  0  0  0
   61.2320   33.5780   47.9350 N   0  0  0  0  0  0  0  0  0  0  0  0
   62.2300   32.6780   47.4330 C   0  0  0  0  0  0  0  0  0  0  0  0
   61.8780   31.5210   47.0840 O   0  0  0  0  0  0  0  0  0  0  0  0
   63.6830   33.0450   47.3410 C   0  0  0  0  0  0  0  0  0  0  0  0
   64.0600   33.7180   48.5230 O   0  0  0  0  0  0  0  0  0  0  0  0
   64.5230   32.7810   49.4690 C   0  0  0  0  0  0  0  0  0  0  0  0
   60.0626   29.9408   48.5977 H   0  0  0  0  0  0  0  0  0  0  0  0
   59.7985   28.3920   47.5200 H   0  0  0  0  0  0  0  0  0  0  0  0
   59.1438   28.2813   44.3346 H   0  0  0  0  0  0  0  0  0  0  0  0
   57.1387   30.8161   44.1240 H   0  0  0  0  0  0  0  0  0  0  0  0
   57.2066   33.7699   46.6208 H   0  0  0  0  0  0  0  0  0  0  0  0
   58.1383   33.8433   45.0867 H   0  0  0  0  0  0  0  0  0  0  0  0
   56.4563   33.2125   45.0867 H   0  0  0  0  0  0  0  0  0  0  0  0
   58.1753   32.7276   48.6203 H   0  0  0  0  0  0  0  0  0  0  0  0
   59.7359   31.8366   48.7556 H   0  0  0  0  0  0  0  0  0  0  0  0
   59.7518   33.6416   46.4515 H   0  0  0  0  0  0  0  0  0  0  0  0
   59.3694   34.5262   47.9800 H   0  0  0  0  0  0  0  0  0  0  0  0
   64.2876   32.1333   47.2263 H   0  0  0  0  0  0  0  0  0  0  0  0
   63.8483   33.6980   46.4713 H   0  0  0  0  0  0  0  0  0  0  0  0
   64.3351   33.1612   50.4840 H   0  0  0  0  0  0  0  0  0  0  0  0
   63.9924   31.8274   49.3306 H   0  0  0  0  0  0  0  0  0  0  0  0
   65.6028   32.6232   49.3306 H   0  0  0  0  0  0  0  0  0  0  0  0
  1  2  2  0
  2  3  1  0
  3  4  2  3
  4  5  1  0
  5  6  2  0
  6  7  1  0
  6  8  1  0
  8  9  1  0
  9 10  2  0
  9 11  1  0
 11 12  1  0
 12 13  2  0
  3 14  1  0
 14 15  2  0
 15 16  1  0
 15 17  1  0
 17 18  1  0
 18 19  1  0
 19 20  1  0
 20 21  1  0
 21 22  2  0
 21 23  1  0
 23 24  1  0
 24 25  1  0
 17  2  1  0
 12  5  1  0
  1 26  1  0
  1 27  1  0
  4 28  1  0
 14 29  1  0
 16 30  1  0
 16 31  1  0
 16 32  1  0
 18 33  1  0
 18 34  1  0
 19 35  1  0
 19 36  1  0
 23 37  1  0
 23 38  1  0
 25 39  1  0
 25 40  1  0
 25 41  1  0
M  CHG  4   7  -1   8  -1  11  -1  20  -1
M  END
>  <UniqueID>  (13) 
13

>  <SMILES>  (13) 
C=c1c(=Cc2c([O-])[n-]c(=O)[n-]c2=O)cc(C)n1CC[N-]C(=O)COC

>  <Energy>  (13) 
75.2422888202395

>  <Genealogy>  (13) 
C=c1c(=Cc2c([O-])[n-]c(=O)[n-]c2=O)cc(C)n1CC[N-]C(=O)COC (protonated)
C=c1c(=Cc2c([O-])[n-]c(=O)[n-]c2=O)cc(C)n1CC[N-]C(=O)COC (3D coordinates assigned)
C=c1c(=Cc2c([O-])[n-]c(=O)[n-]c2=O)cc(C)n1CC[N-]C(=O)COC (optimized conformer: 75.2422888202395 kcal/mol)

>  <smiles>  (13) 
C=c1c(=Cc2c(O)[nH]c(=O)[nH]c2=O)cc(C)n1CCNC(=O)COC

>  <score_type>  (13) 
oracle

>  <origin>  (13) 
adg

>  <m_score__min__energy>  (13) 
-15.130000000000001

>  <m_primary>  (13) 
energy

$$$$
13:0
     RDKit          3D

 69 72  0  0  0  0  0  0  0  0999 V2000
   58.0250   32.3290   42.3420 C   0  0  0  0  0  0  0  0  0  0  0  0
   57.4570   32.2820   43.6470 O   0  0  0  0  0  0  0  0  0  0  0  0
   57.9940   31.4600   44.6440 C   0  0  0  0  0  0  0  0  0  0  0  0
   58.8840   32.0320   45.4970 N   0  0  0  0  0  0  0  0  0  0  0  0
   59.8820   31.4560   46.2350 C   0  0  0  0  0  0  0  0  0  0  0  0
   60.9530   32.3800   46.7540 C   0  0  0  0  0  0  0  0  0  0  0  0
   62.0030   31.9040   47.2680 O   0  0  0  0  0  0  0  0  0  0  0  0
   60.8240   33.8060   46.6710 N   0  0  0  0  0  0  0  0  0  0  0  0
   60.0010   34.5900   47.5820 C   0  0  0  0  0  0  0  0  0  0  0  0
   59.5750   33.7210   48.7320 C   0  0  0  0  0  0  0  0  0  0  0  0
   60.3310   33.7130   49.9150 C   0  0  0  0  0  0  0  0  0  0  0  0
   60.0310   32.8110   50.9360 C   0  0  0  0  0  0  0  0  0  0  0  0
   58.9780   31.8960   50.7840 C   0  0  0  0  0  0  0  0  0  0  0  0
   58.7110   30.8860   51.8220 C   0  0  0  0  0  0  0  0  0  0  0  0
   59.6950   30.3280   52.3810 O   0  0  0  0  0  0  0  0  0  0  0  0
   57.3640   30.5460   52.2230 N   0  0  0  0  0  0  0  0  0  0  0  0
   57.1870   29.4730   53.2140 C   0  0  0  0  0  0  0  0  0  0  0  0
   55.7330   28.9890   53.2550 C   0  0  0  0  0  0  0  0  0  0  0  0
   54.8460   30.0830   53.3560 O   0  0  0  0  0  0  0  0  0  0  0  0
   54.9070   30.8360   52.1640 C   0  0  0  0  0  0  0  0  0  0  0  0
   56.2730   31.5120   52.0150 C   0  0  0  0  0  0  0  0  0  0  0  0
   58.1890   31.9390   49.6250 C   0  0  0  0  0  0  0  0  0  0  0  0
   58.4950   32.8360   48.5980 C   0  0  0  0  0  0  0  0  0  0  0  0
   59.9270   30.0780   46.5630 C   0  0  0  0  0  0  0  0  0  0  0  0
   61.0700   29.5650   46.9090 N   0  0  0  0  0  0  0  0  0  0  0  0
   58.7940   29.2490   46.6490 C   0  0  0  0  0  0  0  0  0  0  0  0
   58.7800   28.2290   47.6140 O   0  0  0  0  0  0  0  0  0  0  0  0
   59.5190   27.0160   47.4730 C   0  0  0  0  0  0  0  0  0  0  0  0
   57.7070   29.2640   45.7720 C   0  0  0  0  0  0  0  0  0  0  0  0
   56.7470   28.2530   45.9220 O   0  0  0  0  0  0  0  0  0  0  0  0
   56.8840   26.9560   45.4030 C   0  0  0  0  0  0  0  0  0  0  0  0
   56.1870   25.9120   46.0210 C   0  0  0  0  0  0  0  0  0  0  0  0
   56.2830   24.6080   45.5320 C   0  0  0  0  0  0  0  0  0  0  0  0
   57.0750   24.3290   44.4070 C   0  0  0  0  0  0  0  0  0  0  0  0
   57.2030   22.9530   43.8850 C   0  0  0  0  0  0  0  0  0  0  0  0
   56.2020   22.2610   43.4190 N   0  0  0  0  0  0  0  0  0  0  0  0
   56.2670   20.9300   43.0600 O   0  0  0  0  0  0  0  0  0  0  0  0
   57.8100   25.3640   43.8160 C   0  0  0  0  0  0  0  0  0  0  0  0
   57.7110   26.6700   44.3010 C   0  0  0  0  0  0  0  0  0  0  0  0
   57.5290   30.1420   44.7060 C   0  0  0  0  0  0  0  0  0  0  0  0
   56.3770   29.6390   43.4620 Cl  0  0  0  0  0  0  0  0  0  0  0  0
   59.1184   32.4195   42.4211 H   0  0  0  0  0  0  0  0  0  0  0  0
   57.7717   31.4068   41.7984 H   0  0  0  0  0  0  0  0  0  0  0  0
   57.6236   33.1970   41.7984 H   0  0  0  0  0  0  0  0  0  0  0  0
   58.9320   33.0680   45.3830 H   0  0  0  0  0  0  0  0  0  0  0  0
   60.5820   35.4437   47.9610 H   0  0  0  0  0  0  0  0  0  0  0  0
   59.1129   34.9632   47.0509 H   0  0  0  0  0  0  0  0  0  0  0  0
   61.1637   34.4212   50.0374 H   0  0  0  0  0  0  0  0  0  0  0  0
   60.6221   32.8170   51.8637 H   0  0  0  0  0  0  0  0  0  0  0  0
   57.8389   28.6279   52.9478 H   0  0  0  0  0  0  0  0  0  0  0  0
   57.4499   29.8689   54.2060 H   0  0  0  0  0  0  0  0  0  0  0  0
   55.5126   28.4291   52.3342 H   0  0  0  0  0  0  0  0  0  0  0  0
   55.5998   28.3430   54.1353 H   0  0  0  0  0  0  0  0  0  0  0  0
   54.7404   30.1674   51.3065 H   0  0  0  0  0  0  0  0  0  0  0  0
   54.1311   31.6149   52.1998 H   0  0  0  0  0  0  0  0  0  0  0  0
   56.3561   31.9365   51.0036 H   0  0  0  0  0  0  0  0  0  0  0  0
   56.3568   32.3046   52.7731 H   0  0  0  0  0  0  0  0  0  0  0  0
   57.3262   31.2642   49.5241 H   0  0  0  0  0  0  0  0  0  0  0  0
   57.8869   32.8481   47.6815 H   0  0  0  0  0  0  0  0  0  0  0  0
   61.8530   30.1020   47.3420 H   0  0  0  0  0  0  0  0  0  0  0  0
   59.7621   26.6169   48.4688 H   0  0  0  0  0  0  0  0  0  0  0  0
   58.9152   26.2809   46.9208 H   0  0  0  0  0  0  0  0  0  0  0  0
   60.4492   27.2154   46.9208 H   0  0  0  0  0  0  0  0  0  0  0  0
   55.5583   26.1204   46.8993 H   0  0  0  0  0  0  0  0  0  0  0  0
   55.7352   23.7949   46.0308 H   0  0  0  0  0  0  0  0  0  0  0  0
   58.1991   22.4864   43.8900 H   0  0  0  0  0  0  0  0  0  0  0  0
   57.0480   20.3380   43.3190 H   0  0  0  0  0  0  0  0  0  0  0  0
   58.4703   25.1469   42.9634 H   0  0  0  0  0  0  0  0  0  0  0  0
   58.2816   27.4780   43.8198 H   0  0  0  0  0  0  0  0  0  0  0  0
  1  2  1  0
  2  3  1  0
  3  4  1  0
  4  5  2  0
  5  6  1  0
  6  7  2  0
  6  8  1  0
  8  9  1  0
  9 10  1  0
 10 11  2  0
 11 12  1  0
 12 13  2  0
 13 14  1  0
 14 15  2  0
 14 16  1  0
 16 17  1  0
 17 18  1  0
 18 19  1  0
 19 20  1  0
 20 21  1  0
 13 22  1  0
 22 23  2  0
  5 24  1  0
 24 25  2  3
 24 26  1  0
 26 27  1  0
 27 28  1  0
 26 29  2  0
 29 30  1  0
 30 31  1  0
 31 32  2  0
 32 33  1  0
 33 34  2  0
 34 35  1  0
 35 36  2  3
 36 37  1  0
 34 38  1  0
 38 39  2  0
 29 40  1  0
 40 41  1  0
 40  3  2  0
 23 10  1  0
 39 31  1  0
 21 16  1  0
  1 42  1  0
  1 43  1  0
  1 44  1  0
  4 45  1  0
  9 46  1  0
  9 47  1  0
 11 48  1  0
 12 49  1  0
 17 50  1  0
 17 51  1  0
 18 52  1  0
 18 53  1  0
 20 54  1  0
 20 55  1  0
 21 56  1  0
 21 57  1  0
 22 58  1  0
 23 59  1  0
 25 60  1  0
 28 61  1  0
 28 62  1  0
 28 63  1  0
 32 64  1  0
 33 65  1  0
 35 66  1  0
 37 67  1  0
 38 68  1  0
 39 69  1  0
M  CHG  2   4   1   8  -1
M  END
>  <UniqueID>  (14) 
14

>  <SMILES>  (14) 
COc1[nH+]c(C(=O)[N-]Cc2ccc(C(=O)N3CCOCC3)cc2)c(=N)c(OC)c(Oc2ccc(C=NO)cc2)c1Cl

>  <Energy>  (14) 
146.15069988361586

>  <Genealogy>  (14) 
COc1[nH+]c(C(=O)[N-]Cc2ccc(C(=O)N3CCOCC3)cc2)c(=N)c(OC)c(Oc2ccc(C=NO)cc2)c1Cl (protonated)
COc1[nH+]c(C(=O)[N-]Cc2ccc(C(=O)N3CCOCC3)cc2)c(=N)c(OC)c(Oc2ccc(C=NO)cc2)c1Cl (3D coordinates assigned)
COc1[nH+]c(C(=O)[N-]Cc2ccc(C(=O)N3CCOCC3)cc2)c(=N)c(OC)c(Oc2ccc(C=NO)cc2)c1Cl (nonaromatic ring conformer: 146.15069988361586 kcal/mol)

>  <smiles>  (14) 
COc1nc(C(=O)NCc2ccc(C(=O)N3CCOCC3)cc2)c(=N)c(OC)c(Oc2ccc(C=NO)cc2)c1Cl

>  <score_type>  (14) 
oracle

>  <origin>  (14) 
adg

>  <m_score__min__energy>  (14) 
-8.6799999999999997

>  <m_primary>  (14) 
energy

$$$$
14:0
     RDKit          3D

 49 51  0  0  0  0  0  0  0  0999 V2000
   57.5940   30.1480   50.6120 H   0  0  0  0  0  0  0  0  0  0  0  0
   57.2940   29.8460   51.5650 N   0  0  0  0  0  0  0  0  0  0  0  0
   56.6390   31.2390   52.3530 S   0  0  0  0  0  0  0  0  0  0  0  0
   55.2000   31.4080   51.9550 O   0  0  0  0  0  0  0  0  0  0  0  0
   56.7190   31.0490   53.8410 O   0  0  0  0  0  0  0  0  0  0  0  0
   57.5830   32.6890   51.8980 C   0  0  0  0  0  0  0  0  0  0  0  0
   57.6730   33.3447   52.7766 H   0  0  0  0  0  0  0  0  0  0  0  0
   57.0544   33.1956   51.0770 H   0  0  0  0  0  0  0  0  0  0  0  0
   58.9880   32.3260   51.4050 C   0  0  0  0  0  0  0  0  0  0  0  0
   59.0557   31.2338   51.2928 H   0  0  0  0  0  0  0  0  0  0  0  0
   59.7166   32.6912   52.1437 H   0  0  0  0  0  0  0  0  0  0  0  0
   59.2870   32.9550   50.1180 N   0  0  0  0  0  0  0  0  0  0  0  0
   59.9120   33.7920   50.0840 H   0  0  0  0  0  0  0  0  0  0  0  0
   58.8070   32.3990   48.8860 C   0  0  0  0  0  0  0  0  0  0  0  0
   58.1800   31.3040   48.8980 O   0  0  0  0  0  0  0  0  0  0  0  0
   59.0400   33.0990   47.6020 C   0  0  0  0  0  0  0  0  0  0  0  0
   59.2680   34.4870   47.6020 C   0  0  0  0  0  0  0  0  0  0  0  0
   59.3001   35.0340   48.5558 H   0  0  0  0  0  0  0  0  0  0  0  0
   59.4540   35.1770   46.4020 C   0  0  0  0  0  0  0  0  0  0  0  0
   59.6357   36.2618   46.4155 H   0  0  0  0  0  0  0  0  0  0  0  0
   59.4100   34.4940   45.1860 C   0  0  0  0  0  0  0  0  0  0  0  0
   59.5509   35.0407   44.2419 H   0  0  0  0  0  0  0  0  0  0  0  0
   59.1870   33.1160   45.1690 C   0  0  0  0  0  0  0  0  0  0  0  0
   59.1561   32.5803   44.2088 H   0  0  0  0  0  0  0  0  0  0  0  0
   59.0020   32.4090   46.3660 C   0  0  0  0  0  0  0  0  0  0  0  0
   58.8300   30.9820   46.3120 N   0  0  0  0  0  0  0  0  0  0  0  0
   59.5970   30.0690   46.9470 C   0  0  0  0  0  0  0  0  0  0  0  0
   60.7290   30.3940   47.8740 C   0  0  0  0  0  0  0  0  0  0  0  0
   60.3894   30.2965   48.9157 H   0  0  0  0  0  0  0  0  0  0  0  0
   61.5620   29.6987   47.6933 H   0  0  0  0  0  0  0  0  0  0  0  0
   61.0664   31.4253   47.6933 H   0  0  0  0  0  0  0  0  0  0  0  0
   59.1500   28.7920   46.6730 C   0  0  0  0  0  0  0  0  0  0  0  0
   59.5665   27.8518   47.0636 H   0  0  0  0  0  0  0  0  0  0  0  0
   58.0720   28.9260   45.8080 C   0  0  0  0  0  0  0  0  0  0  0  0
   57.3220   27.9230   45.3090 C   0  0  0  0  0  0  0  0  0  0  0  0
   56.7310   28.1160   44.4015 H   0  0  0  0  0  0  0  0  0  0  0  0
   57.2520   26.5760   45.9180 C   0  0  0  0  0  0  0  0  0  0  0  0
   56.0070   26.0090   46.2290 C   0  0  0  0  0  0  0  0  0  0  0  0
   54.8320   26.7160   46.0020 O   0  0  0  0  0  0  0  0  0  0  0  0
   55.9430   24.7630   46.7650 N   0  0  0  0  0  0  0  0  0  0  0  0
   57.0680   24.0400   46.9960 C   0  0  0  0  0  0  0  0  0  0  0  0
   56.9830   22.8900   47.5000 O   0  0  0  0  0  0  0  0  0  0  0  0
   58.2830   24.5540   46.6800 N   0  0  0  0  0  0  0  0  0  0  0  0
   58.4020   25.7950   46.1410 C   0  0  0  0  0  0  0  0  0  0  0  0
   59.5450   26.2240   45.8260 O   0  0  0  0  0  0  0  0  0  0  0  0
   57.8970   30.2980   45.6050 C   0  0  0  0  0  0  0  0  0  0  0  0
   56.9550   30.8820   44.8480 C   0  0  0  0  0  0  0  0  0  0  0  0
   56.9176   31.9782   44.7650 H   0  0  0  0  0  0  0  0  0  0  0  0
   56.2203   30.2644   44.3106 H   0  0  0  0  0  0  0  0  0  0  0  0
  1  2  1  0
  2  3  1  0
  3  4  2  0
  3  5  2  0
  3  6  1  0
  6  7  1  0
  6  8  1  0
  6  9  1  0
  9 10  1  0
  9 11  1  0
  9 12  1  0
 12 13  1  0
 12 14  1  0
 14 15  2  0
 14 16  1  0
 16 17  2  0
 17 18  1  0
 17 19  1  0
 19 20  1  0
 19 21  2  0
 21 22  1  0
 21 23  1  0
 23 24  1  0
 23 25  2  0
 25 26  1  0
 26 27  1  0
 27 28  1  0
 28 29  1  0
 28 30  1  0
 28 31  1  0
 27 32  2  0
 32 33  1  0
 32 34  1  0
 34 35  2  0
 35 36  1  0
 35 37  1  0
 37 38  2  0
 38 39  1  0
 38 40  1  0
 40 41  1  0
 41 42  2  0
 41 43  1  0
 43 44  1  0
 44 45  2  0
 34 46  1  0
 46 47  2  0
 47 48  1  0
 47 49  1  0
 25 16  1  0
 46 26  1  0
 44 37  1  0
M  CHG  4   2  -1  39  -1  40  -1  43  -1
M  END
>  <UniqueID>  (15) 
15

>  <SMILES>  (15) 
C=c1/c(=C/c2c([O-])[n-]c(=O)[n-]c2=O)cc(C)n1-c1ccccc1C(=O)NCCS([NH-])(=O)=O

>  <Energy>  (15) 
91.05329806186218

>  <Genealogy>  (15) 
C=c1c(=Cc2c([O-])[n-]c(=O)[n-]c2=O)cc(C)n1-c1ccccc1C(=O)NCCS([NH-])(=O)=O (protonated)
C=c1/c(=C/c2c([O-])[n-]c(=O)[n-]c2=O)cc(C)n1-c1ccccc1C(=O)NCCS([NH-])(=O)=O (cis-trans isomerization)
C=c1/c(=C/c2c([O-])[n-]c(=O)[n-]c2=O)cc(C)n1-c1ccccc1C(=O)NCCS([NH-])(=O)=O (3D coordinates assigned)
C=c1/c(=C/c2c([O-])[n-]c(=O)[n-]c2=O)cc(C)n1-c1ccccc1C(=O)NCCS([NH-])(=O)=O (optimized conformer: 91.05329806186218 kcal/mol)

>  <smiles>  (15) 
C=c1c(=Cc2c(O)[nH]c(=O)[nH]c2=O)cc(C)n1-c1ccccc1C(=O)NCCS(N)(=O)=O

>  <score_type>  (15) 
oracle

>  <origin>  (15) 
adg

>  <m_score__min__energy>  (15) 
-17.77

>  <m_primary>  (15) 
energy

$$$$
15:0
     RDKit          3D

 46 48  0  0  0  0  0  0  0  0999 V2000
   58.6040   26.0530   47.4920 C   0  0  0  0  0  0  0  0  0  0  0  0
   58.7550   25.4840   46.0840 C   0  0  0  0  0  0  0  0  0  0  0  0
   57.6160   25.8820   45.2400 N   0  0  0  0  0  0  0  0  0  0  0  0
   57.8780   26.6980   44.0430 C   0  0  0  0  0  0  0  0  0  0  0  0
   57.6340   28.1600   44.3260 C   0  0  0  0  0  0  0  0  0  0  0  0
   56.9730   28.9650   43.3840 C   0  0  0  0  0  0  0  0  0  0  0  0
   56.7370   30.3170   43.6520 C   0  0  0  0  0  0  0  0  0  0  0  0
   57.1670   30.8870   44.8550 C   0  0  0  0  0  0  0  0  0  0  0  0
   56.8970   32.2430   45.0910 O   0  0  0  0  0  0  0  0  0  0  0  0
   57.7820   33.1590   45.6800 C   0  0  0  0  0  0  0  0  0  0  0  0
   58.4750   34.0510   44.8530 C   0  0  0  0  0  0  0  0  0  0  0  0
   59.3760   34.9700   45.4010 C   0  0  0  0  0  0  0  0  0  0  0  0
   59.6000   34.9930   46.7800 C   0  0  0  0  0  0  0  0  0  0  0  0
   58.9270   34.0940   47.6120 C   0  0  0  0  0  0  0  0  0  0  0  0
   58.0260   33.1750   47.0670 C   0  0  0  0  0  0  0  0  0  0  0  0
   57.8080   30.0780   45.8080 C   0  0  0  0  0  0  0  0  0  0  0  0
   58.0480   28.7270   45.5410 C   0  0  0  0  0  0  0  0  0  0  0  0
   56.2700   25.6230   45.7040 C   0  0  0  0  0  0  0  0  0  0  0  0
   55.5140   26.5950   45.9840 O   0  0  0  0  0  0  0  0  0  0  0  0
   55.7240   24.2220   45.8190 C   0  0  0  0  0  0  0  0  0  0  0  0
   56.2990   23.3230   44.7660 C   0  0  0  0  0  0  0  0  0  0  0  0
   55.9260   23.2900   43.4290 C   0  0  0  0  0  0  0  0  0  0  0  0
   56.5930   22.3010   42.6970 C   0  0  0  0  0  0  0  0  0  0  0  0
   57.4790   21.5460   43.4570 C   0  0  0  0  0  0  0  0  0  0  0  0
   57.4320   22.1110   45.0400 S   0  0  0  0  0  0  0  0  0  0  0  0
   58.8131   25.2649   48.2303 H   0  0  0  0  0  0  0  0  0  0  0  0
   59.3131   26.8825   47.6303 H   0  0  0  0  0  0  0  0  0  0  0  0
   57.5769   26.4217   47.6303 H   0  0  0  0  0  0  0  0  0  0  0  0
   59.6858   25.8644   45.6381 H   0  0  0  0  0  0  0  0  0  0  0  0
   58.7842   24.3861   46.1461 H   0  0  0  0  0  0  0  0  0  0  0  0
   58.9250   26.5603   43.7350 H   0  0  0  0  0  0  0  0  0  0  0  0
   57.1970   26.3760   43.2414 H   0  0  0  0  0  0  0  0  0  0  0  0
   56.6392   28.5298   42.4305 H   0  0  0  0  0  0  0  0  0  0  0  0
   56.2096   30.9366   42.9118 H   0  0  0  0  0  0  0  0  0  0  0  0
   58.3100   34.0291   43.7657 H   0  0  0  0  0  0  0  0  0  0  0  0
   59.9086   35.6751   44.7458 H   0  0  0  0  0  0  0  0  0  0  0  0
   60.3058   35.7185   47.2107 H   0  0  0  0  0  0  0  0  0  0  0  0
   59.1067   34.1098   48.6971 H   0  0  0  0  0  0  0  0  0  0  0  0
   57.5058   32.4619   47.7234 H   0  0  0  0  0  0  0  0  0  0  0  0
   58.1227   30.5100   46.7694 H   0  0  0  0  0  0  0  0  0  0  0  0
   58.5641   28.1051   46.2872 H   0  0  0  0  0  0  0  0  0  0  0  0
   55.9774   23.8193   46.8108 H   0  0  0  0  0  0  0  0  0  0  0  0
   54.6334   24.2630   45.6816 H   0  0  0  0  0  0  0  0  0  0  0  0
   55.1824   23.9714   42.9900 H   0  0  0  0  0  0  0  0  0  0  0  0
   56.4314   22.1366   41.6214 H   0  0  0  0  0  0  0  0  0  0  0  0
   58.1039   20.7202   43.0862 H   0  0  0  0  0  0  0  0  0  0  0  0
  1  2  1  0
  2  3  1  0
  3  4  1  0
  4  5  1  0
  5  6  2  0
  6  7  1  0
  7  8  2  0
  8  9  1  0
  9 10  1  0
 10 11  2  0
 11 12  1  0
 12 13  2  0
 13 14  1  0
 14 15  2  0
  8 16  1  0
 16 17  2  0
  3 18  1  0
 18 19  2  0
 18 20  1  0
 20 21  1  0
 21 22  2  0
 22 23  1  0
 23 24  2  0
 24 25  1  0
 17  5  1  0
 25 21  1  0
 15 10  1  0
  1 26  1  0
  1 27  1  0
  1 28  1  0
  2 29  1  0
  2 30  1  0
  4 31  1  0
  4 32  1  0
  6 33  1  0
  7 34  1  0
 11 35  1  0
 12 36  1  0
 13 37  1  0
 14 38  1  0
 15 39  1  0
 16 40  1  0
 17 41  1  0
 20 42  1  0
 20 43  1  0
 22 44  1  0
 23 45  1  0
 24 46  1  0
M  END
>  <UniqueID>  (16) 
16

>  <SMILES>  (16) 
CCN(Cc1ccc(Oc2ccccc2)cc1)C(=O)Cc1cccs1

>  <Energy>  (16) 
76.07605666717694

>  <Genealogy>  (16) 
CCN(Cc1ccc(Oc2ccccc2)cc1)C(=O)Cc1cccs1 (3D coordinates assigned)
CCN(Cc1ccc(Oc2ccccc2)cc1)C(=O)Cc1cccs1 (optimized conformer: 76.07605666717694 kcal/mol)

>  <smiles>  (16) 
CCN(Cc1ccc(Oc2ccccc2)cc1)C(=O)Cc1cccs1

>  <score_type>  (16) 
oracle

>  <origin>  (16) 
adg

>  <m_score__min__energy>  (16) 
-8.2100000000000009

>  <m_primary>  (16) 
energy

$$$$
16:0
     RDKit          3D

 65 69  0  0  1  0  0  0  0  0999 V2000
   55.1410   29.5710   43.7580 C   0  0  0  0  0  0  0  0  0  0  0  0
   55.9310   28.6710   44.5380 O   0  0  0  0  0  0  0  0  0  0  0  0
   57.2330   29.0250   44.8740 C   0  0  0  0  0  0  0  0  0  0  0  0
   57.5280   30.3340   45.2280 C   0  0  0  0  0  0  0  0  0  0  0  0
   58.8130   30.6970   45.5640 C   0  0  0  0  0  0  0  0  0  0  0  0
   59.0890   32.0950   45.9360 C   0  0  0  0  0  0  0  0  0  0  0  0
   58.3710   33.1540   45.4480 C   0  0  0  0  0  0  0  0  0  0  0  0
   58.6920   34.4390   45.8430 C   0  0  0  0  0  0  0  0  0  0  0  0
   59.7310   34.6860   46.7290 C   0  0  0  0  0  0  0  0  0  0  0  0
   60.0280   35.9560   47.1030 F   0  0  0  0  0  0  0  0  0  0  0  0
   60.4690   33.6120   47.2330 C   0  0  0  0  0  0  0  0  0  0  0  0
   61.4860   33.9270   48.1060 O   0  0  0  0  0  0  0  0  0  0  0  0
   62.8540   33.8380   47.8980 C   0  0  0  0  0  0  0  0  0  0  0  0
   63.1100   33.7630   46.4070 C   0  0  0  0  0  0  0  0  0  0  0  0
   63.3380   32.5420   48.5580 C   0  0  0  0  0  0  0  0  0  0  0  0
   60.1350   32.3460   46.8290 C   0  0  0  0  0  0  0  0  0  0  0  0
   59.7940   29.7380   45.5400 C   0  0  0  0  0  0  0  0  0  0  0  0
   59.5480   28.4200   45.1930 C   0  0  0  0  0  0  0  0  0  0  0  0
   58.2580   28.0750   44.8600 C   0  0  0  0  0  0  0  0  0  0  0  0
   57.8710   26.7580   44.4870 N   0  0  0  0  0  0  0  0  0  0  0  0
   57.7840   26.4100   43.1770 C   0  0  0  0  0  0  0  0  0  0  0  0
   58.0550   27.2840   42.3110 O   0  0  0  0  0  0  0  0  0  0  0  0
   57.4090   25.1360   42.8090 C   0  0  0  0  0  0  0  0  0  0  0  0
   57.1260   24.2270   43.8160 C   0  0  0  0  0  0  0  0  0  0  0  0
   57.2110   24.5700   45.1540 C   0  0  0  0  0  0  0  0  0  0  0  0
   56.9270   23.6620   46.1480 C   0  0  0  0  0  0  0  0  0  0  0  0
   57.0050   23.9840   47.5090 C   0  0  0  0  0  0  0  0  0  0  0  0
   56.6510   22.7860   48.7170 S   0  0  0  0  0  0  0  0  0  0  0  0
   57.2550   21.5060   48.0820 O   0  0  0  0  0  0  0  0  0  0  0  0
   57.4910   22.8770   49.9530 O   0  0  0  0  0  0  0  0  0  0  0  0
   55.0340   22.3650   48.9040 N   0  0  0  0  0  0  0  0  0  0  0  0
   54.3490   22.1720   49.9470 C   0  0  0  0  0  0  0  0  0  0  0  0
   53.2240   22.8530   50.1490 N   0  0  0  0  0  0  0  0  0  0  0  0
   52.5280   22.6080   51.2800 C   0  0  0  0  0  0  0  0  0  0  0  0
   52.9480   21.6980   52.1940 N   0  0  0  0  0  0  0  0  0  0  0  0
   54.0940   20.9920   52.0050 C   0  0  0  0  0  0  0  0  0  0  0  0
   54.7990   21.2440   50.8550 C   0  0  0  0  0  0  0  0  0  0  0  0
   55.9230   20.5920   50.6080 F   0  0  0  0  0  0  0  0  0  0  0  0
   57.3880   25.2770   47.7850 C   0  0  0  0  0  0  0  0  0  0  0  0
   57.6760   26.2020   46.7780 C   0  0  0  0  0  0  0  0  0  0  0  0
   57.5920   25.8610   45.4470 C   0  0  0  0  0  0  0  0  0  0  0  0
   54.5649   30.2273   44.4269 H   0  0  0  0  0  0  0  0  0  0  0  0
   55.8000   30.1817   43.1234 H   0  0  0  0  0  0  0  0  0  0  0  0
   54.4500   28.9967   43.1234 H   0  0  0  0  0  0  0  0  0  0  0  0
   56.7278   31.0886   45.2403 H   0  0  0  0  0  0  0  0  0  0  0  0
   57.5426   32.9828   44.7449 H   0  0  0  0  0  0  0  0  0  0  0  0
   58.1110   35.2846   45.4462 H   0  0  0  0  0  0  0  0  0  0  0  0
   63.3791   34.7074   48.3205 H   0  0  0  0  0  0  0  0  0  0  0  0
   64.1517   33.4578   46.2287 H   0  0  0  0  0  0  0  0  0  0  0  0
   62.4296   33.0264   45.9547 H   0  0  0  0  0  0  0  0  0  0  0  0
   62.9346   34.7503   45.9547 H   0  0  0  0  0  0  0  0  0  0  0  0
   63.2975   32.6503   49.6519 H   0  0  0  0  0  0  0  0  0  0  0  0
   62.6905   31.7086   48.2479 H   0  0  0  0  0  0  0  0  0  0  0  0
   64.3733   32.3370   48.2479 H   0  0  0  0  0  0  0  0  0  0  0  0
   60.7113   31.4955   47.2219 H   0  0  0  0  0  0  0  0  0  0  0  0
   60.8205   30.0286   45.8080 H   0  0  0  0  0  0  0  0  0  0  0  0
   60.3564   27.6741   45.1839 H   0  0  0  0  0  0  0  0  0  0  0  0
   57.3366   24.8497   41.7494 H   0  0  0  0  0  0  0  0  0  0  0  0
   56.8254   23.2044   43.5442 H   0  0  0  0  0  0  0  0  0  0  0  0
   56.6268   22.6430   45.8626 H   0  0  0  0  0  0  0  0  0  0  0  0
   51.5954   23.1612   51.4650 H   0  0  0  0  0  0  0  0  0  0  0  0
   52.3520   21.5620   53.0520 H   0  0  0  0  0  0  0  0  0  0  0  0
   54.4408   20.2517   52.7410 H   0  0  0  0  0  0  0  0  0  0  0  0
   57.4703   25.5933   48.8353 H   0  0  0  0  0  0  0  0  0  0  0  0
   57.9760   27.2235   47.0545 H   0  0  0  0  0  0  0  0  0  0  0  0
  1  2  1  0
  2  3  1  0
  3  4  2  0
  4  5  1  0
  5  6  1  0
  6  7  2  0
  7  8  1  0
  8  9  2  0
  9 10  1  0
  9 11  1  0
 11 12  1  0
 12 13  1  0
 13 14  1  0
 13 15  1  0
 11 16  2  0
  5 17  2  0
 17 18  1  0
 18 19  2  0
 19 20  1  0
 20 21  1  0
 21 22  2  0
 21 23  1  0
 23 24  2  0
 24 25  1  0
 25 26  2  0
 26 27  1  0
 27 28  1  0
 28 29  2  0
 28 30  2  0
 28 31  1  0
 31 32  2  0
 32 33  1  0
 33 34  2  0
 34 35  1  0
 35 36  1  0
 36 37  2  0
 37 38  1  0
 27 39  2  0
 39 40  1  0
 40 41  2  0
 19  3  1  0
 41 20  1  0
 16  6  1  0
 41 25  1  0
 37 32  1  0
  1 42  1  0
  1 43  1  0
  1 44  1  0
  4 45  1  0
  7 46  1  0
  8 47  1  0
 13 48  1  0
 14 49  1  0
 14 50  1  0
 14 51  1  0
 15 52  1  0
 15 53  1  0
 15 54  1  0
 16 55  1  0
 17 56  1  0
 18 57  1  0
 23 58  1  0
 24 59  1  0
 26 60  1  0
 34 61  1  0
 35 62  1  0
 36 63  1  0
 39 64  1  0
 40 65  1  0
M  END
>  <smiles>  (17) 
COc1cc(-c2ccc(F)c(OC(C)C)c2)ccc1-n1c(=O)ccc2cc(S(=O)(=O)N=c3nc[nH]cc3F)ccc21

>  <score_type>  (17) 
oracle

>  <origin>  (17) 
adg

>  <m_score__min__energy>  (17) 
-10.449999999999999

>  <m_primary>  (17) 
energy

$$$$
17:0
     RDKit          3D

 30 31  0  0  0  0  0  0  0  0999 V2000
   61.0800   34.0880   49.1070 C   0  0  0  0  0  0  0  0  0  0  0  0
   59.6330   33.8340   48.7020 C   0  0  0  0  0  0  0  0  0  0  0  0
   59.4170   34.1710   47.2550 C   0  0  0  0  0  0  0  0  0  0  0  0
   59.7380   35.3670   46.7270 N   0  0  0  0  0  0  0  0  0  0  0  0
   59.4010   35.2340   45.4290 C   0  0  0  0  0  0  0  0  0  0  0  0
   59.5490   36.1610   44.5900 O   0  0  0  0  0  0  0  0  0  0  0  0
   58.8950   34.0300   45.0990 N   0  0  0  0  0  0  0  0  0  0  0  0
   58.9030   33.3530   46.2620 C   0  0  0  0  0  0  0  0  0  0  0  0
   58.4600   31.9480   46.3970 C   0  0  0  0  0  0  0  0  0  0  0  0
   58.9660   31.2250   47.2940 O   0  0  0  0  0  0  0  0  0  0  0  0
   57.4680   31.3700   45.5360 N   0  0  0  0  0  0  0  0  0  0  0  0
   57.6900   30.3190   44.5450 C   0  0  0  0  0  0  0  0  0  0  0  0
   57.5510   28.9470   45.1650 C   0  0  0  0  0  0  0  0  0  0  0  0
   58.7000   28.2470   45.5730 C   0  0  0  0  0  0  0  0  0  0  0  0
   58.5910   26.9770   46.1460 C   0  0  0  0  0  0  0  0  0  0  0  0
   57.3370   26.3850   46.3020 C   0  0  0  0  0  0  0  0  0  0  0  0
   56.1870   27.0560   45.8770 C   0  0  0  0  0  0  0  0  0  0  0  0
   54.9430   26.4550   46.0250 O   0  0  0  0  0  0  0  0  0  0  0  0
   56.2880   28.3300   45.3010 C   0  0  0  0  0  0  0  0  0  0  0  0
   55.1330   28.9730   44.8660 O   0  0  0  0  0  0  0  0  0  0  0  0
   61.1567   34.1015   50.2042 H   0  0  0  0  0  0  0  0  0  0  0  0
   61.7192   33.2883   48.7045 H   0  0  0  0  0  0  0  0  0  0  0  0
   61.4086   35.0576   48.7045 H   0  0  0  0  0  0  0  0  0  0  0  0
   59.3941   32.7726   48.8646 H   0  0  0  0  0  0  0  0  0  0  0  0
   58.9785   34.4721   49.3140 H   0  0  0  0  0  0  0  0  0  0  0  0
   56.9505   30.4248   43.7375 H   0  0  0  0  0  0  0  0  0  0  0  0
   58.7115   30.4217   44.1502 H   0  0  0  0  0  0  0  0  0  0  0  0
   59.6924   28.7025   45.4402 H   0  0  0  0  0  0  0  0  0  0  0  0
   59.4950   26.4433   46.4745 H   0  0  0  0  0  0  0  0  0  0  0  0
   57.2535   25.3885   46.7603 H   0  0  0  0  0  0  0  0  0  0  0  0
  1  2  1  0
  2  3  1  0
  3  4  1  0
  4  5  1  0
  5  6  2  0
  5  7  1  0
  7  8  1  0
  8  9  1  0
  9 10  2  0
  9 11  1  0
 11 12  1  0
 12 13  1  0
 13 14  2  0
 14 15  1  0
 15 16  2  0
 16 17  1  0
 17 18  1  0
 17 19  2  0
 19 20  1  0
  8  3  2  0
 19 13  1  0
  1 21  1  0
  1 22  1  0
  1 23  1  0
  2 24  1  0
  2 25  1  0
 12 26  1  0
 12 27  1  0
 14 28  1  0
 15 29  1  0
 16 30  1  0
M  CHG  5   4  -1   7  -1  11  -1  18  -1  20  -1
M  END
>  <UniqueID>  (18) 
17

>  <SMILES>  (18) 
CCc1[n-]c(=O)[n-]c1C(=O)[N-]Cc1cccc([O-])c1[O-]

>  <Energy>  (18) 
57.03125854301302

>  <Genealogy>  (18) 
CCc1[n-]c(=O)[n-]c1C(=O)[N-]Cc1cccc([O-])c1[O-] (protonated)
CCc1[n-]c(=O)[n-]c1C(=O)[N-]Cc1cccc([O-])c1[O-] (3D coordinates assigned)
CCc1[n-]c(=O)[n-]c1C(=O)[N-]Cc1cccc([O-])c1[O-] (optimized conformer: 57.03125854301302 kcal/mol)

>  <smiles>  (18) 
CCc1[nH]c(=O)[nH]c1C(=O)NCc1cccc(O)c1O

>  <score_type>  (18) 
oracle

>  <origin>  (18) 
adg

>  <m_score__min__energy>  (18) 
-17.210000000000001

>  <m_primary>  (18) 
energy

$$$$
18:0
     RDKit          3D

 48 51  0  0  0  0  0  0  0  0999 V2000
   57.1515   31.9896   52.1607 H   0  0  0  0  0  0  0  0  0  0  0  0
   56.0590   31.9190   52.2680 C   0  0  0  0  0  0  0  0  0  0  0  0
   55.4371   32.8208   52.1679 H   0  0  0  0  0  0  0  0  0  0  0  0
   55.4850   30.7330   52.5210 C   0  0  0  0  0  0  0  0  0  0  0  0
   54.1160   30.4660   52.6860 C   0  0  0  0  0  0  0  0  0  0  0  0
   53.0300   31.2310   52.4590 C   0  0  0  0  0  0  0  0  0  0  0  0
   52.6667   31.8452   53.2961 H   0  0  0  0  0  0  0  0  0  0  0  0
   52.2850   31.3190   51.1900 C   0  0  0  0  0  0  0  0  0  0  0  0
   52.2790   30.3680   50.2350 N   0  0  0  0  0  0  0  0  0  0  0  0
   51.3510   30.8120   49.3590 C   0  0  0  0  0  0  0  0  0  0  0  0
   51.0660   30.1920   48.3010 O   0  0  0  0  0  0  0  0  0  0  0  0
   50.7470   31.9690   49.7100 N   0  0  0  0  0  0  0  0  0  0  0  0
   51.3400   32.2660   50.8780 C   0  0  0  0  0  0  0  0  0  0  0  0
   51.0200   33.3800   51.6490 O   0  0  0  0  0  0  0  0  0  0  0  0
   54.0270   29.1620   53.1520 C   0  0  0  0  0  0  0  0  0  0  0  0
   53.1086   28.6312   53.4432 H   0  0  0  0  0  0  0  0  0  0  0  0
   55.3110   28.6590   53.1800 C   0  0  0  0  0  0  0  0  0  0  0  0
   55.6820   27.3050   53.7070 C   0  0  0  0  0  0  0  0  0  0  0  0
   55.6764   27.3254   54.8068 H   0  0  0  0  0  0  0  0  0  0  0  0
   54.9547   26.5608   53.3504 H   0  0  0  0  0  0  0  0  0  0  0  0
   56.6871   27.0355   53.3504 H   0  0  0  0  0  0  0  0  0  0  0  0
   56.1950   29.6080   52.8000 N   0  0  0  0  0  0  0  0  0  0  0  0
   57.6260   29.4640   52.8090 C   0  0  0  0  0  0  0  0  0  0  0  0
   58.2810   29.0350   53.9700 C   0  0  0  0  0  0  0  0  0  0  0  0
   57.7021   28.8337   54.8834 H   0  0  0  0  0  0  0  0  0  0  0  0
   59.6660   28.8620   53.9720 C   0  0  0  0  0  0  0  0  0  0  0  0
   60.1769   28.5279   54.8871 H   0  0  0  0  0  0  0  0  0  0  0  0
   60.4040   29.1130   52.8120 C   0  0  0  0  0  0  0  0  0  0  0  0
   61.4946   28.9694   52.8159 H   0  0  0  0  0  0  0  0  0  0  0  0
   59.7620   29.5470   51.6430 C   0  0  0  0  0  0  0  0  0  0  0  0
   60.7080   29.8200   50.1740 S   0  0  0  0  0  0  0  0  0  0  0  0
   62.1470   30.0540   50.5520 O   0  0  0  0  0  0  0  0  0  0  0  0
   60.6580   28.5690   49.3430 O   0  0  0  0  0  0  0  0  0  0  0  0
   60.0890   31.1450   49.2050 N   0  0  0  0  0  0  0  0  0  0  0  0
   59.7400   32.3260   49.9920 C   0  0  0  0  0  0  0  0  0  0  0  0
   58.7438   32.2048   50.4424 H   0  0  0  0  0  0  0  0  0  0  0  0
   60.4518   32.4872   50.8150 H   0  0  0  0  0  0  0  0  0  0  0  0
   59.7410   33.4930   49.0170 C   0  0  0  0  0  0  0  0  0  0  0  0
   58.7206   33.7024   48.6635 H   0  0  0  0  0  0  0  0  0  0  0  0
   60.1095   34.4195   49.4816 H   0  0  0  0  0  0  0  0  0  0  0  0
   60.6250   33.0410   47.8630 C   0  0  0  0  0  0  0  0  0  0  0  0
   60.0600   33.0472   46.9192 H   0  0  0  0  0  0  0  0  0  0  0  0
   61.4880   33.7082   47.7211 H   0  0  0  0  0  0  0  0  0  0  0  0
   61.0540   31.6260   48.2180 C   0  0  0  0  0  0  0  0  0  0  0  0
   61.0363   30.9860   47.3235 H   0  0  0  0  0  0  0  0  0  0  0  0
   62.0795   31.6049   48.6154 H   0  0  0  0  0  0  0  0  0  0  0  0
   58.3670   29.7220   51.6440 C   0  0  0  0  0  0  0  0  0  0  0  0
   57.7220   30.1210   50.5180 F   0  0  0  0  0  0  0  0  0  0  0  0
  1  2  1  0
  2  3  1  0
  2  4  2  0
  4  5  1  0
  5  6  2  0
  6  7  1  0
  6  8  1  0
  8  9  1  0
  9 10  1  0
 10 11  2  0
 10 12  1  0
 12 13  1  0
 13 14  1  0
  5 15  1  0
 15 16  1  0
 15 17  2  0
 17 18  1  0
 18 19  1  0
 18 20  1  0
 18 21  1  0
 17 22  1  0
 22 23  1  0
 23 24  2  0
 24 25  1  0
 24 26  1  0
 26 27  1  0
 26 28  2  0
 28 29  1  0
 28 30  1  0
 30 31  1  0
 31 32  2  0
 31 33  2  0
 31 34  1  0
 34 35  1  0
 35 36  1  0
 35 37  1  0
 35 38  1  0
 38 39  1  0
 38 40  1  0
 38 41  1  0
 41 42  1  0
 41 43  1  0
 41 44  1  0
 44 45  1  0
 44 46  1  0
 30 47  2  0
 47 48  1  0
 22  4  1  0
 47 23  1  0
 13  8  2  0
 44 34  1  0
M  CHG  3   9  -1  12  -1  14  -1
M  END
>  <UniqueID>  (19) 
18

>  <SMILES>  (19) 
C=c1/c(=C\c2[n-]c(=O)[n-]c2[O-])cc(C)n1-c1cccc(S(=O)(=O)N2CCCC2)c1F

>  <Energy>  (19) 
130.87522201278992

>  <Genealogy>  (19) 
C=c1c(=Cc2[n-]c(=O)[n-]c2[O-])cc(C)n1-c1cccc(S(=O)(=O)N2CCCC2)c1F (protonated)
C=c1/c(=C\c2[n-]c(=O)[n-]c2[O-])cc(C)n1-c1cccc(S(=O)(=O)N2CCCC2)c1F (cis-trans isomerization)
C=c1/c(=C\c2[n-]c(=O)[n-]c2[O-])cc(C)n1-c1cccc(S(=O)(=O)N2CCCC2)c1F (3D coordinates assigned)
C=c1/c(=C\c2[n-]c(=O)[n-]c2[O-])cc(C)n1-c1cccc(S(=O)(=O)N2CCCC2)c1F (nonaromatic ring conformer: 130.87522201278992 kcal/mol)

>  <smiles>  (19) 
C=c1c(=Cc2[nH]c(=O)[nH]c2O)cc(C)n1-c1cccc(S(=O)(=O)N2CCCC2)c1F

>  <score_type>  (19) 
oracle

>  <origin>  (19) 
adg

>  <m_score__min__energy>  (19) 
-16.82

>  <m_primary>  (19) 
energy

$$$$
19:0
     RDKit          3D

 60 63  0  0  0  0  0  0  0  0999 V2000
   57.0502   28.7807   42.7045 H   0  0  0  0  0  0  0  0  0  0  0  0
   57.3000   28.9520   43.7620 C   0  0  0  0  0  0  0  0  0  0  0  0
   56.3550   29.7570   44.5630 C   0  0  0  0  0  0  0  0  0  0  0  0
   55.1870   29.3220   44.7550 O   0  0  0  0  0  0  0  0  0  0  0  0
   56.7300   31.0520   45.0530 N   0  0  0  0  0  0  0  0  0  0  0  0
   57.6900   31.9270   44.3880 C   0  0  0  0  0  0  0  0  0  0  0  0
   58.4817   31.3155   43.9306 H   0  0  0  0  0  0  0  0  0  0  0  0
   57.1671   32.5081   43.6141 H   0  0  0  0  0  0  0  0  0  0  0  0
   58.3070   32.8770   45.3790 C   0  0  0  0  0  0  0  0  0  0  0  0
   58.2870   32.5710   46.7540 C   0  0  0  0  0  0  0  0  0  0  0  0
   57.8118   31.6419   47.1019 H   0  0  0  0  0  0  0  0  0  0  0  0
   58.8690   33.4440   47.6780 C   0  0  0  0  0  0  0  0  0  0  0  0
   58.8520   33.2006   48.7506 H   0  0  0  0  0  0  0  0  0  0  0  0
   59.4730   34.6270   47.2390 C   0  0  0  0  0  0  0  0  0  0  0  0
   59.9329   35.3125   47.9660 H   0  0  0  0  0  0  0  0  0  0  0  0
   59.4920   34.9380   45.8750 C   0  0  0  0  0  0  0  0  0  0  0  0
   59.9631   35.8711   45.5322 H   0  0  0  0  0  0  0  0  0  0  0  0
   58.9150   34.0680   44.9470 C   0  0  0  0  0  0  0  0  0  0  0  0
   58.9366   34.3157   43.8755 H   0  0  0  0  0  0  0  0  0  0  0  0
   58.4380   28.4140   44.2230 C   0  0  0  0  0  0  0  0  0  0  0  0
   58.8433   27.5489   43.6777 H   0  0  0  0  0  0  0  0  0  0  0  0
   59.1950   28.8860   45.4040 C   0  0  0  0  0  0  0  0  0  0  0  0
   60.3200   29.7140   45.2620 C   0  0  0  0  0  0  0  0  0  0  0  0
   60.6576   30.0118   44.2583 H   0  0  0  0  0  0  0  0  0  0  0  0
   61.0120   30.1610   46.3890 C   0  0  0  0  0  0  0  0  0  0  0  0
   61.9093   30.7860   46.2702 H   0  0  0  0  0  0  0  0  0  0  0  0
   60.5670   29.8160   47.6670 C   0  0  0  0  0  0  0  0  0  0  0  0
   61.1304   30.1501   48.5507 H   0  0  0  0  0  0  0  0  0  0  0  0
   59.4030   29.0440   47.8310 C   0  0  0  0  0  0  0  0  0  0  0  0
   58.8990   28.7090   49.1380 N   0  0  0  0  0  0  0  0  0  0  0  0
   58.0130   28.1640   49.2140 H   0  0  0  0  0  0  0  0  0  0  0  0
   59.5690   29.3410   50.6100 S   0  0  0  0  0  0  0  0  0  0  0  0
   59.7840   28.2170   51.5850 O   0  0  0  0  0  0  0  0  0  0  0  0
   60.8900   29.9950   50.3130 O   0  0  0  0  0  0  0  0  0  0  0  0
   58.4440   30.4940   51.3240 C   0  0  0  0  0  0  0  0  0  0  0  0
   58.6370   31.8740   51.1750 C   0  0  0  0  0  0  0  0  0  0  0  0
   59.5301   32.2511   50.6553 H   0  0  0  0  0  0  0  0  0  0  0  0
   57.6960   32.7710   51.6860 C   0  0  0  0  0  0  0  0  0  0  0  0
   57.8492   33.8538   51.5676 H   0  0  0  0  0  0  0  0  0  0  0  0
   56.5610   32.2960   52.3470 C   0  0  0  0  0  0  0  0  0  0  0  0
   55.8146   33.0062   52.7324 H   0  0  0  0  0  0  0  0  0  0  0  0
   56.3680   30.9150   52.5220 C   0  0  0  0  0  0  0  0  0  0  0  0
   55.1320   30.4080   53.2180 C   0  0  0  0  0  0  0  0  0  0  0  0
   55.3665   29.4648   53.7332 H   0  0  0  0  0  0  0  0  0  0  0  0
   54.7965   31.1612   53.9461 H   0  0  0  0  0  0  0  0  0  0  0  0
   54.0590   30.1740   52.2430 N   0  0  0  0  0  0  0  0  0  0  0  0
   52.9540   30.8510   52.0770 C   0  0  0  0  0  0  0  0  0  0  0  0
   52.0930   31.1940   53.1420 C   0  0  0  0  0  0  0  0  0  0  0  0
   52.3269   30.8738   54.1680 H   0  0  0  0  0  0  0  0  0  0  0  0
   50.9400   31.9440   52.8840 C   0  0  0  0  0  0  0  0  0  0  0  0
   50.2638   32.2114   53.7094 H   0  0  0  0  0  0  0  0  0  0  0  0
   50.6530   32.3430   51.6170 N   0  0  0  0  0  0  0  0  0  0  0  0
   51.4590   32.0240   50.5700 C   0  0  0  0  0  0  0  0  0  0  0  0
   51.1960   32.3534   49.5540 H   0  0  0  0  0  0  0  0  0  0  0  0
   52.6230   31.2770   50.7830 C   0  0  0  0  0  0  0  0  0  0  0  0
   53.2777   31.0243   49.9359 H   0  0  0  0  0  0  0  0  0  0  0  0
   57.3160   30.0170   52.0060 C   0  0  0  0  0  0  0  0  0  0  0  0
   57.1729   28.9343   52.1375 H   0  0  0  0  0  0  0  0  0  0  0  0
   58.7230   28.5820   46.6910 C   0  0  0  0  0  0  0  0  0  0  0  0
   57.8122   27.9764   46.8082 H   0  0  0  0  0  0  0  0  0  0  0  0
  1  2  1  0
  2  3  1  0
  3  4  2  0
  3  5  1  0
  5  6  1  0
  6  7  1  0
  6  8  1  0
  6  9  1  0
  9 10  2  0
 10 11  1  0
 10 12  1  0
 12 13  1  0
 12 14  2  0
 14 15  1  0
 14 16  1  0
 16 17  1  0
 16 18  2  0
 18 19  1  0
  2 20  2  0
 20 21  1  0
 20 22  1  0
 22 23  2  0
 23 24  1  0
 23 25  1  0
 25 26  1  0
 25 27  2  0
 27 28  1  0
 27 29  1  0
 29 30  1  0
 30 31  1  0
 30 32  1  0
 32 33  2  0
 32 34  2  0
 32 35  1  0
 35 36  2  0
 36 37  1  0
 36 38  1  0
 38 39  1  0
 38 40  2  0
 40 41  1  0
 40 42  1  0
 42 43  1  0
 43 44  1  0
 43 45  1  0
 43 46  1  0
 46 47  2  3
 47 48  1  0
 48 49  1  0
 48 50  2  0
 50 51  1  0
 50 52  1  0
 52 53  1  0
 53 54  1  0
 53 55  2  0
 55 56  1  0
 42 57  2  0
 57 58  1  0
 29 59  2  0
 59 60  1  0
 18  9  1  0
 59 22  1  0
 57 35  1  0
 55 47  1  0
M  CHG  2   5  -1  52  -1
M  END
>  <UniqueID>  (20) 
19

>  <SMILES>  (20) 
O=C(/C=C\c1cccc(NS(=O)(=O)c2cccc(CN=c3cc[n-]cc3)c2)c1)[N-]Cc1ccccc1

>  <Energy>  (20) 
73.1955464803559

>  <Genealogy>  (20) 
O=C(C=Cc1cccc(NS(=O)(=O)c2cccc(CN=c3cc[n-]cc3)c2)c1)[N-]Cc1ccccc1 (protonated)
O=C(/C=C\c1cccc(NS(=O)(=O)c2cccc(CN=c3cc[n-]cc3)c2)c1)[N-]Cc1ccccc1 (cis-trans isomerization)
O=C(/C=C\c1cccc(NS(=O)(=O)c2cccc(CN=c3cc[n-]cc3)c2)c1)[N-]Cc1ccccc1 (3D coordinates assigned)
O=C(/C=C\c1cccc(NS(=O)(=O)c2cccc(CN=c3cc[n-]cc3)c2)c1)[N-]Cc1ccccc1 (optimized conformer: 73.1955464803559 kcal/mol)

>  <smiles>  (20) 
O=C(C=Cc1cccc(NS(=O)(=O)c2cccc(CN=c3cc[nH]cc3)c2)c1)NCc1ccccc1

>  <score_type>  (20) 
oracle

>  <origin>  (20) 
adg

>  <m_score__min__energy>  (20) 
-14.73

>  <m_primary>  (20) 
energy

$$$$
20:0
     RDKit          3D

 53 56  0  0  0  0  0  0  0  0999 V2000
   60.0150   36.2500   46.0690 O   0  0  0  0  0  0  0  0  0  0  0  0
   59.4690   35.1170   46.0050 C   0  0  0  0  0  0  0  0  0  0  0  0
   59.1260   34.6010   44.7940 N   0  0  0  0  0  0  0  0  0  0  0  0
   58.5340   33.3820   44.6920 C   0  0  0  0  0  0  0  0  0  0  0  0
   58.1890   32.8590   43.4410 C   0  0  0  0  0  0  0  0  0  0  0  0
   57.5880   31.5990   43.3540 C   0  0  0  0  0  0  0  0  0  0  0  0
   57.3240   30.8580   44.5170 C   0  0  0  0  0  0  0  0  0  0  0  0
   56.6170   29.2480   44.4090 S   0  0  0  0  0  0  0  0  0  0  0  0
   57.0020   28.5980   43.1090 O   0  0  0  0  0  0  0  0  0  0  0  0
   55.1190   29.3700   44.4510 O   0  0  0  0  0  0  0  0  0  0  0  0
   57.1430   28.2610   45.7400 N   0  0  0  0  0  0  0  0  0  0  0  0
   57.6150   26.9490   45.2840 C   0  0  0  0  0  0  0  0  0  0  0  0
   59.0780   26.7210   45.6750 C   0  0  0  0  0  0  0  0  0  0  0  0
   59.6830   27.9450   46.3120 C   0  0  0  0  0  0  0  0  0  0  0  0
   59.8540   28.0100   47.7040 C   0  0  0  0  0  0  0  0  0  0  0  0
   60.4420   29.1340   48.2910 C   0  0  0  0  0  0  0  0  0  0  0  0
   60.8690   30.2050   47.4940 C   0  0  0  0  0  0  0  0  0  0  0  0
   61.6080   31.6270   48.2330 S   0  0  0  0  0  0  0  0  0  0  0  0
   62.0520   32.5690   47.1490 O   0  0  0  0  0  0  0  0  0  0  0  0
   62.8260   31.2040   49.0070 O   0  0  0  0  0  0  0  0  0  0  0  0
   60.5000   32.4540   49.3010 N   0  0  0  0  0  0  0  0  0  0  0  0
   59.5210   31.5110   49.8660 C   0  0  0  0  0  0  0  0  0  0  0  0
   58.5480   32.2430   50.8180 C   0  0  0  0  0  0  0  0  0  0  0  0
   58.9280   33.5880   51.0510 O   0  0  0  0  0  0  0  0  0  0  0  0
   60.2730   33.6370   51.4830 C   0  0  0  0  0  0  0  0  0  0  0  0
   61.2330   33.1500   50.3770 C   0  0  0  0  0  0  0  0  0  0  0  0
   60.7100   30.1370   46.1020 C   0  0  0  0  0  0  0  0  0  0  0  0
   60.1240   29.0130   45.5140 C   0  0  0  0  0  0  0  0  0  0  0  0
   57.6670   31.3830   45.7720 C   0  0  0  0  0  0  0  0  0  0  0  0
   58.2720   32.6400   45.8610 C   0  0  0  0  0  0  0  0  0  0  0  0
   58.6180   33.1580   47.0690 N   0  0  0  0  0  0  0  0  0  0  0  0
   59.2100   34.3780   47.1680 C   0  0  0  0  0  0  0  0  0  0  0  0
   59.5190   34.8340   48.3020 O   0  0  0  0  0  0  0  0  0  0  0  0
   58.3901   33.4378   42.5274 H   0  0  0  0  0  0  0  0  0  0  0  0
   57.3209   31.1867   42.3698 H   0  0  0  0  0  0  0  0  0  0  0  0
   56.9945   26.1650   45.7427 H   0  0  0  0  0  0  0  0  0  0  0  0
   57.5375   26.9125   44.1873 H   0  0  0  0  0  0  0  0  0  0  0  0
   59.1300   25.8854   46.3885 H   0  0  0  0  0  0  0  0  0  0  0  0
   59.6457   26.4950   44.7603 H   0  0  0  0  0  0  0  0  0  0  0  0
   59.5236   27.1723   48.3357 H   0  0  0  0  0  0  0  0  0  0  0  0
   60.5701   29.1782   49.3826 H   0  0  0  0  0  0  0  0  0  0  0  0
   59.9900   33.1650   48.7230 H   0  0  0  0  0  0  0  0  0  0  0  0
   58.9482   31.0508   49.0474 H   0  0  0  0  0  0  0  0  0  0  0  0
   60.0596   30.7385   50.4345 H   0  0  0  0  0  0  0  0  0  0  0  0
   57.5426   32.2324   50.3717 H   0  0  0  0  0  0  0  0  0  0  0  0
   58.5663   31.7177   51.7843 H   0  0  0  0  0  0  0  0  0  0  0  0
   60.5272   34.6740   51.7476 H   0  0  0  0  0  0  0  0  0  0  0  0
   60.3828   32.9758   52.3552 H   0  0  0  0  0  0  0  0  0  0  0  0
   61.7580   34.0174   49.9503 H   0  0  0  0  0  0  0  0  0  0  0  0
   61.9486   32.4440   50.8235 H   0  0  0  0  0  0  0  0  0  0  0  0
   61.0480   30.9720   45.4707 H   0  0  0  0  0  0  0  0  0  0  0  0
   60.0076   28.9646   44.4212 H   0  0  0  0  0  0  0  0  0  0  0  0
   57.4600   30.8059   46.6853 H   0  0  0  0  0  0  0  0  0  0  0  0
  1  2  2  0
  2  3  1  0
  3  4  1  0
  4  5  2  0
  5  6  1  0
  6  7  2  0
  7  8  1  0
  8  9  2  0
  8 10  2  0
  8 11  1  0
 11 12  1  0
 12 13  1  0
 13 14  1  0
 14 15  2  0
 15 16  1  0
 16 17  2  0
 17 18  1  0
 18 19  2  0
 18 20  2  0
 18 21  1  0
 21 22  1  0
 22 23  1  0
 23 24  1  0
 24 25  1  0
 25 26  1  0
 17 27  1  0
 27 28  2  0
  7 29  1  0
 29 30  2  0
 30 31  1  0
 31 32  1  0
 32 33  2  0
 32  2  1  0
 30  4  1  0
 28 14  1  0
 26 21  1  0
  5 34  1  0
  6 35  1  0
 12 36  1  0
 12 37  1  0
 13 38  1  0
 13 39  1  0
 15 40  1  0
 16 41  1  0
 21 42  1  0
 22 43  1  0
 22 44  1  0
 23 45  1  0
 23 46  1  0
 25 47  1  0
 25 48  1  0
 26 49  1  0
 26 50  1  0
 27 51  1  0
 28 52  1  0
 29 53  1  0
M  CHG  4   3  -1  11  -1  21   1  31  -1
M  END
>  <UniqueID>  (21) 
20

>  <SMILES>  (21) 
O=c1[n-]c2ccc(S(=O)(=O)[N-]CCc3ccc(S(=O)(=O)[NH+]4CCOCC4)cc3)cc2[n-]c1=O

>  <Energy>  (21) 
64.29479918448352

>  <Genealogy>  (21) 
O=c1[n-]c2ccc(S(=O)(=O)[N-]CCc3ccc(S(=O)(=O)[NH+]4CCOCC4)cc3)cc2[n-]c1=O (protonated)
O=c1[n-]c2ccc(S(=O)(=O)[N-]CCc3ccc(S(=O)(=O)[NH+]4CCOCC4)cc3)cc2[n-]c1=O (3D coordinates assigned)
O=c1[n-]c2ccc(S(=O)(=O)[N-]CCc3ccc(S(=O)(=O)[NH+]4CCOCC4)cc3)cc2[n-]c1=O (nonaromatic ring conformer: 64.29479918448352 kcal/mol)

>  <smiles>  (21) 
O=c1[nH]c2ccc(S(=O)(=O)NCCc3ccc(S(=O)(=O)N4CCOCC4)cc3)cc2[nH]c1=O

>  <score_type>  (21) 
oracle

>  <origin>  (21) 
adg

>  <m_score__min__energy>  (21) 
-13.359999999999999

>  <m_primary>  (21) 
energy

$$$$
21:0
     RDKit          3D

 35 37  0  0  0  0  0  0  0  0999 V2000
   57.9050   32.2670   51.6080 O   0  0  0  0  0  0  0  0  0  0  0  0
   58.0000   31.1530   51.0270 C   0  0  0  0  0  0  0  0  0  0  0  0
   59.0610   30.9420   49.9970 C   0  0  0  0  0  0  0  0  0  0  0  0
   59.0970   32.1110   49.0600 C   0  0  0  0  0  0  0  0  0  0  0  0
   59.4610   33.4100   49.3440 C   0  0  0  0  0  0  0  0  0  0  0  0
   59.9370   33.9020   50.5560 O   0  0  0  0  0  0  0  0  0  0  0  0
   59.2540   34.1560   48.2020 C   0  0  0  0  0  0  0  0  0  0  0  0
   58.7580   33.3780   47.2170 N   0  0  0  0  0  0  0  0  0  0  0  0
   58.6590   32.1430   47.7500 C   0  0  0  0  0  0  0  0  0  0  0  0
   58.1650   31.0500   47.0490 O   0  0  0  0  0  0  0  0  0  0  0  0
   57.1050   30.0800   51.3450 N   0  0  0  0  0  0  0  0  0  0  0  0
   55.9810   30.1540   52.2340 C   0  0  0  0  0  0  0  0  0  0  0  0
   56.2140   30.1480   53.6150 C   0  0  0  0  0  0  0  0  0  0  0  0
   55.1440   30.1790   54.5120 C   0  0  0  0  0  0  0  0  0  0  0  0
   53.8310   30.2040   54.0380 C   0  0  0  0  0  0  0  0  0  0  0  0
   53.5790   30.1970   52.6580 C   0  0  0  0  0  0  0  0  0  0  0  0
   52.1650   30.1570   52.1460 C   0  0  0  0  0  0  0  0  0  0  0  0
   51.4370   31.4020   52.5480 C   0  0  0  0  0  0  0  0  0  0  0  0
   51.1130   31.7090   53.8170 N   0  0  0  0  0  0  0  0  0  0  0  0
   50.4170   32.8590   53.6890 C   0  0  0  0  0  0  0  0  0  0  0  0
   49.9400   33.4760   54.6770 O   0  0  0  0  0  0  0  0  0  0  0  0
   50.2680   33.2950   52.4190 N   0  0  0  0  0  0  0  0  0  0  0  0
   50.9140   32.3570   51.7090 C   0  0  0  0  0  0  0  0  0  0  0  0
   51.0190   32.3700   50.3240 O   0  0  0  0  0  0  0  0  0  0  0  0
   54.6570   30.1570   51.7590 C   0  0  0  0  0  0  0  0  0  0  0  0
   60.0374   30.8415   50.4935 H   0  0  0  0  0  0  0  0  0  0  0  0
   58.8390   30.0269   49.4284 H   0  0  0  0  0  0  0  0  0  0  0  0
   59.5840   33.5570   51.4390 H   0  0  0  0  0  0  0  0  0  0  0  0
   59.4634   35.2318   48.1077 H   0  0  0  0  0  0  0  0  0  0  0  0
   57.2457   30.1187   53.9954 H   0  0  0  0  0  0  0  0  0  0  0  0
   55.3363   30.1837   55.5951 H   0  0  0  0  0  0  0  0  0  0  0  0
   52.9918   30.2293   54.7486 H   0  0  0  0  0  0  0  0  0  0  0  0
   52.1774   30.0810   51.0487 H   0  0  0  0  0  0  0  0  0  0  0  0
   51.6510   29.2846   52.5758 H   0  0  0  0  0  0  0  0  0  0  0  0
   54.4648   30.1278   50.6763 H   0  0  0  0  0  0  0  0  0  0  0  0
  1  2  2  0
  2  3  1  0
  3  4  1  0
  4  5  1  0
  5  6  1  0
  5  7  2  0
  7  8  1  0
  8  9  1  0
  9 10  1  0
  2 11  1  0
 11 12  1  0
 12 13  2  0
 13 14  1  0
 14 15  2  0
 15 16  1  0
 16 17  1  0
 17 18  1  0
 18 19  1  0
 19 20  1  0
 20 21  2  0
 20 22  1  0
 22 23  1  0
 23 24  1  0
 16 25  2  0
  9  4  2  0
 25 12  1  0
 23 18  2  0
  3 26  1  0
  3 27  1  0
  6 28  1  0
  7 29  1  0
 13 30  1  0
 14 31  1  0
 15 32  1  0
 17 33  1  0
 17 34  1  0
 25 35  1  0
M  CHG  6   8  -1  10  -1  11  -1  19  -1  22  -1  24  -1
M  END
>  <UniqueID>  (22) 
21

>  <SMILES>  (22) 
O=C(Cc1c(O)c[n-]c1[O-])[N-]c1cccc(Cc2[n-]c(=O)[n-]c2[O-])c1

>  <Energy>  (22) 
92.59796800675328

>  <Genealogy>  (22) 
O=C(Cc1c(O)c[n-]c1[O-])[N-]c1cccc(Cc2[n-]c(=O)[n-]c2[O-])c1 (protonated)
O=C(Cc1c(O)c[n-]c1[O-])[N-]c1cccc(Cc2[n-]c(=O)[n-]c2[O-])c1 (3D coordinates assigned)
O=C(Cc1c(O)c[n-]c1[O-])[N-]c1cccc(Cc2[n-]c(=O)[n-]c2[O-])c1 (optimized conformer: 92.59796800675328 kcal/mol)

>  <smiles>  (22) 
O=C(Cc1c(O)c[nH]c1O)Nc1cccc(Cc2[nH]c(=O)[nH]c2O)c1

>  <score_type>  (22) 
oracle

>  <origin>  (22) 
adg

>  <m_score__min__energy>  (22) 
-17.559999999999999

>  <m_primary>  (22) 
energy

$$$$
22:0
     RDKit          3D

 43 46  0  0  0  0  0  0  0  0999 V2000
   57.3300   30.1860   51.2820 O   0  0  0  0  0  0  0  0  0  0  0  0
   58.1680   30.8370   50.6030 C   0  0  0  0  0  0  0  0  0  0  0  0
   58.3750   32.2370   50.7490 N   0  0  0  0  0  0  0  0  0  0  0  0
   59.4140   32.5460   49.8280 C   0  0  0  0  0  0  0  0  0  0  0  0
   60.0400   33.7840   49.6930 C   0  0  0  0  0  0  0  0  0  0  0  0
   61.1430   33.8850   48.8320 C   0  0  0  0  0  0  0  0  0  0  0  0
   61.6260   32.7450   48.1590 C   0  0  0  0  0  0  0  0  0  0  0  0
   63.0510   32.8700   47.1420 Cl  0  0  0  0  0  0  0  0  0  0  0  0
   60.9940   31.5010   48.3230 C   0  0  0  0  0  0  0  0  0  0  0  0
   59.8450   31.4330   49.1230 C   0  0  0  0  0  0  0  0  0  0  0  0
   59.0300   30.2820   49.5550 C   0  0  0  0  0  0  0  0  0  0  0  0
   58.9850   29.0170   49.1100 C   0  0  0  0  0  0  0  0  0  0  0  0
   59.3730   28.5970   47.7570 C   0  0  0  0  0  0  0  0  0  0  0  0
   60.3880   27.7120   47.4610 C   0  0  0  0  0  0  0  0  0  0  0  0
   60.3690   27.5630   46.0900 C   0  0  0  0  0  0  0  0  0  0  0  0
   59.3370   28.3700   45.6380 C   0  0  0  0  0  0  0  0  0  0  0  0
   58.8740   28.5300   44.2480 C   0  0  0  0  0  0  0  0  0  0  0  0
   57.6560   28.9500   43.8760 C   0  0  0  0  0  0  0  0  0  0  0  0
   56.8860   30.0220   44.5440 C   0  0  0  0  0  0  0  0  0  0  0  0
   55.6590   29.8450   44.7770 O   0  0  0  0  0  0  0  0  0  0  0  0
   57.5110   31.3290   44.8760 C   0  0  0  0  0  0  0  0  0  0  0  0
   57.8470   31.6610   46.2010 C   0  0  0  0  0  0  0  0  0  0  0  0
   58.4260   32.8980   46.5000 C   0  0  0  0  0  0  0  0  0  0  0  0
   58.6760   33.8350   45.4820 C   0  0  0  0  0  0  0  0  0  0  0  0
   59.2700   35.1100   45.7870 N   0  0  0  0  0  0  0  0  0  0  0  0
   59.6250   35.8830   44.8720 O   0  0  0  0  0  0  0  0  0  0  0  0
   59.4570   35.5000   47.0930 O   0  0  0  0  0  0  0  0  0  0  0  0
   58.3340   33.5080   44.1610 C   0  0  0  0  0  0  0  0  0  0  0  0
   57.7550   32.2720   43.8610 C   0  0  0  0  0  0  0  0  0  0  0  0
   58.7510   28.9550   46.6570 O   0  0  0  0  0  0  0  0  0  0  0  0
   57.9180   32.8800   51.4340 H   0  0  0  0  0  0  0  0  0  0  0  0
   59.6776   34.6615   50.2487 H   0  0  0  0  0  0  0  0  0  0  0  0
   61.6330   34.8583   48.6816 H   0  0  0  0  0  0  0  0  0  0  0  0
   61.3923   30.5997   47.8341 H   0  0  0  0  0  0  0  0  0  0  0  0
   58.6334   28.2413   49.8061 H   0  0  0  0  0  0  0  0  0  0  0  0
   61.0719   27.2251   48.1718 H   0  0  0  0  0  0  0  0  0  0  0  0
   61.0351   26.9339   45.4813 H   0  0  0  0  0  0  0  0  0  0  0  0
   59.5879   28.2841   43.4481 H   0  0  0  0  0  0  0  0  0  0  0  0
   57.1937   28.4594   43.0068 H   0  0  0  0  0  0  0  0  0  0  0  0
   57.6524   30.9408   47.0093 H   0  0  0  0  0  0  0  0  0  0  0  0
   58.6882   33.1402   47.5405 H   0  0  0  0  0  0  0  0  0  0  0  0
   58.5234   34.2312   43.3541 H   0  0  0  0  0  0  0  0  0  0  0  0
   57.4874   32.0341   42.8209 H   0  0  0  0  0  0  0  0  0  0  0  0
  1  2  2  0
  2  3  1  0
  3  4  1  0
  4  5  2  0
  5  6  1  0
  6  7  2  0
  7  8  1  0
  7  9  1  0
  9 10  2  0
 10 11  1  0
 11 12  2  3
 12 13  1  0
 13 14  2  0
 14 15  1  0
 15 16  2  0
 16 17  1  0
 17 18  2  3
 18 19  1  0
 19 20  2  0
 19 21  1  0
 21 22  2  0
 22 23  1  0
 23 24  2  0
 24 25  1  0
 25 26  2  0
 25 27  1  0
 24 28  1  0
 28 29  2  0
 16 30  1  0
 11  2  1  0
 30 13  1  0
 10  4  1  0
 29 21  1  0
  3 31  1  0
  5 32  1  0
  6 33  1  0
  9 34  1  0
 12 35  1  0
 14 36  1  0
 15 37  1  0
 17 38  1  0
 18 39  1  0
 22 40  1  0
 23 41  1  0
 28 42  1  0
 29 43  1  0
M  CHG  2  25   1  27  -1
M  END
>  <UniqueID>  (23) 
22

>  <SMILES>  (23) 
O=C1Nc2ccc(Cl)cc2C1=Cc1ccc(C=CC(=O)c2ccc([N+](=O)[O-])cc2)o1

>  <Energy>  (23) 
119.68591373731694

>  <Genealogy>  (23) 
O=C1Nc2ccc(Cl)cc2C1=Cc1ccc(C=CC(=O)c2ccc([N+](=O)[O-])cc2)o1 (3D coordinates assigned)
O=C1Nc2ccc(Cl)cc2C1=Cc1ccc(C=CC(=O)c2ccc([N+](=O)[O-])cc2)o1 (nonaromatic ring conformer: 119.68591373731694 kcal/mol)

>  <smiles>  (23) 
O=C1Nc2ccc(Cl)cc2C1=Cc1ccc(C=CC(=O)c2ccc([N+](=O)[O-])cc2)o1

>  <score_type>  (23) 
oracle

>  <origin>  (23) 
adg

>  <m_score__min__energy>  (23) 
-9.5500000000000007

>  <m_primary>  (23) 
energy

$$$$
23:0
     RDKit          3D

 34 36  0  0  0  0  0  0  0  0999 V2000
   55.1600   26.3210   46.7690 H   0  0  0  0  0  0  0  0  0  0  0  0
   54.5370   26.2140   45.9780 O   0  0  0  0  0  0  0  0  0  0  0  0
   54.0540   24.9590   45.6220 C   0  0  0  0  0  0  0  0  0  0  0  0
   52.7570   24.6880   45.3990 N   0  0  0  0  0  0  0  0  0  0  0  0
   52.7810   23.3780   45.0750 C   0  0  0  0  0  0  0  0  0  0  0  0
   51.7390   22.7320   44.7860 O   0  0  0  0  0  0  0  0  0  0  0  0
   54.0080   22.8130   45.0800 N   0  0  0  0  0  0  0  0  0  0  0  0
   54.8130   23.8280   45.4420 C   0  0  0  0  0  0  0  0  0  0  0  0
   56.3020   23.7280   45.5340 C   0  0  0  0  0  0  0  0  0  0  0  0
   56.7589   24.4990   44.8961 H   0  0  0  0  0  0  0  0  0  0  0  0
   56.6182   22.7296   45.1974 H   0  0  0  0  0  0  0  0  0  0  0  0
   56.7420   23.9310   46.9480 C   0  0  0  0  0  0  0  0  0  0  0  0
   57.0660   22.9310   47.6440 O   0  0  0  0  0  0  0  0  0  0  0  0
   56.7370   25.2590   47.4970 N   0  0  0  0  0  0  0  0  0  0  0  0
   57.5000   26.2580   47.1620 C   0  0  0  0  0  0  0  0  0  0  0  0
   57.1560   27.1190   46.1820 N   0  0  0  0  0  0  0  0  0  0  0  0
   58.0940   28.0910   45.9900 C   0  0  0  0  0  0  0  0  0  0  0  0
   57.9110   29.1480   44.9620 C   0  0  0  0  0  0  0  0  0  0  0  0
   58.6350   30.3510   45.0590 C   0  0  0  0  0  0  0  0  0  0  0  0
   59.3332   30.5002   45.8958 H   0  0  0  0  0  0  0  0  0  0  0  0
   58.4760   31.3580   44.1030 C   0  0  0  0  0  0  0  0  0  0  0  0
   59.0428   32.2960   44.1970 H   0  0  0  0  0  0  0  0  0  0  0  0
   57.5980   31.1790   43.0250 C   0  0  0  0  0  0  0  0  0  0  0  0
   57.3990   32.2760   42.0210 C   0  0  0  0  0  0  0  0  0  0  0  0
   57.2265   33.2269   42.5463 H   0  0  0  0  0  0  0  0  0  0  0  0
   58.2960   32.3630   41.3903 H   0  0  0  0  0  0  0  0  0  0  0  0
   56.5286   32.0424   41.3903 H   0  0  0  0  0  0  0  0  0  0  0  0
   56.8550   29.9940   42.9340 C   0  0  0  0  0  0  0  0  0  0  0  0
   56.1434   29.8570   42.1064 H   0  0  0  0  0  0  0  0  0  0  0  0
   57.0130   28.9850   43.8890 C   0  0  0  0  0  0  0  0  0  0  0  0
   56.4309   28.0557   43.8016 H   0  0  0  0  0  0  0  0  0  0  0  0
   59.2010   27.9990   46.8420 C   0  0  0  0  0  0  0  0  0  0  0  0
   60.0636   28.6815   46.8535 H   0  0  0  0  0  0  0  0  0  0  0  0
   58.9860   26.6660   47.8450 S   0  0  0  0  0  0  0  0  0  0  0  0
  1  2  1  0
  2  3  1  0
  3  4  1  0
  4  5  1  0
  5  6  2  0
  5  7  1  0
  7  8  1  0
  8  9  1  0
  9 10  1  0
  9 11  1  0
  9 12  1  0
 12 13  2  0
 12 14  1  0
 14 15  2  0
 15 16  1  0
 16 17  1  0
 17 18  1  0
 18 19  2  0
 19 20  1  0
 19 21  1  0
 21 22  1  0
 21 23  2  0
 23 24  1  0
 24 25  1  0
 24 26  1  0
 24 27  1  0
 23 28  1  0
 28 29  1  0
 28 30  2  0
 30 31  1  0
 17 32  2  0
 32 33  1  0
 32 34  1  0
  8  3  2  0
 34 15  1  0
 30 18  1  0
M  CHG  3   4  -1   7  -1  16  -1
M  END
>  <UniqueID>  (24) 
23

>  <SMILES>  (24) 
Cc1ccc(-c2cs/c(=N\C(=O)Cc3[n-]c(=O)[n-]c3O)[n-]2)cc1

>  <Energy>  (24) 
97.4464315484568

>  <Genealogy>  (24) 
Cc1ccc(-c2csc(=NC(=O)Cc3[n-]c(=O)[n-]c3O)[n-]2)cc1 (protonated)
Cc1ccc(-c2cs/c(=N\C(=O)Cc3[n-]c(=O)[n-]c3O)[n-]2)cc1 (cis-trans isomerization)
Cc1ccc(-c2cs/c(=N\C(=O)Cc3[n-]c(=O)[n-]c3O)[n-]2)cc1 (3D coordinates assigned)
Cc1ccc(-c2cs/c(=N\C(=O)Cc3[n-]c(=O)[n-]c3O)[n-]2)cc1 (optimized conformer: 97.4464315484568 kcal/mol)

>  <smiles>  (24) 
Cc1ccc(-c2csc(=NC(=O)Cc3[nH]c(=O)[nH]c3O)[nH]2)cc1

>  <score_type>  (24) 
oracle

>  <origin>  (24) 
adg

>  <m_score__min__energy>  (24) 
-13.300000000000001

>  <m_primary>  (24) 
energy

$$$$
24:0
     RDKit          3D

 67 71  0  0  0  0  0  0  0  0999 V2000
   60.1210   30.3500   47.1720 N   0  0  0  0  0  0  0  0  0  0  0  0
   59.1190   31.0080   46.3790 C   0  0  0  0  0  0  0  0  0  0  0  0
   58.4930   32.1930   46.7860 C   0  0  0  0  0  0  0  0  0  0  0  0
   58.6210   32.8790   48.0870 C   0  0  0  0  0  0  0  0  0  0  0  0
   57.8220   32.6040   49.0200 O   0  0  0  0  0  0  0  0  0  0  0  0
   59.5770   33.9290   48.2840 N   0  0  0  0  0  0  0  0  0  0  0  0
   60.9830   33.8400   48.0050 C   0  0  0  0  0  0  0  0  0  0  0  0
   61.4520   33.9360   46.6810 C   0  0  0  0  0  0  0  0  0  0  0  0
   62.8100   33.8000   46.3980 C   0  0  0  0  0  0  0  0  0  0  0  0
   63.7160   33.5520   47.4280 C   0  0  0  0  0  0  0  0  0  0  0  0
   63.2660   33.4360   48.7450 C   0  0  0  0  0  0  0  0  0  0  0  0
   61.8980   33.5710   49.0510 C   0  0  0  0  0  0  0  0  0  0  0  0
   61.4420   33.4780   50.4660 C   0  0  0  0  0  0  0  0  0  0  0  0
   62.1820   33.9420   51.3800 O   0  0  0  0  0  0  0  0  0  0  0  0
   60.1960   32.8240   50.8130 N   0  0  0  0  0  0  0  0  0  0  0  0
   60.3920   31.3700   50.8570 C   0  0  0  0  0  0  0  0  0  0  0  0
   59.0590   30.6410   51.0520 C   0  0  0  0  0  0  0  0  0  0  0  0
   58.1190   31.3130   51.9770 N   0  0  0  0  0  0  0  0  0  0  0  0
   56.8520   30.6530   52.2950 C   0  0  0  0  0  0  0  0  0  0  0  0
   55.6090   31.2220   51.9190 C   0  0  0  0  0  0  0  0  0  0  0  0
   54.4030   30.5860   52.2260 C   0  0  0  0  0  0  0  0  0  0  0  0
   54.4020   29.3710   52.9080 C   0  0  0  0  0  0  0  0  0  0  0  0
   55.6070   28.7850   53.2820 C   0  0  0  0  0  0  0  0  0  0  0  0
   56.8200   29.4120   52.9800 C   0  0  0  0  0  0  0  0  0  0  0  0
   58.3430   32.6960   52.4570 C   0  0  0  0  0  0  0  0  0  0  0  0
   59.7270   33.2730   52.1310 C   0  0  0  0  0  0  0  0  0  0  0  0
   57.4900   32.7120   45.5400 S   0  0  0  0  0  0  0  0  0  0  0  0
   57.8770   31.4270   44.5370 C   0  0  0  0  0  0  0  0  0  0  0  0
   57.2790   31.2720   43.0170 S   0  0  0  0  0  0  0  0  0  0  0  0
   58.7600   30.5740   45.1250 N   0  0  0  0  0  0  0  0  0  0  0  0
   59.3210   29.3870   44.4630 C   0  0  0  0  0  0  0  0  0  0  0  0
   58.2180   28.3620   44.1890 C   0  0  0  0  0  0  0  0  0  0  0  0
   58.1030   27.3870   45.3270 C   0  0  0  0  0  0  0  0  0  0  0  0
   59.1550   27.2450   46.2470 C   0  0  0  0  0  0  0  0  0  0  0  0
   59.0340   26.3600   47.3240 C   0  0  0  0  0  0  0  0  0  0  0  0
   57.8600   25.6190   47.4940 C   0  0  0  0  0  0  0  0  0  0  0  0
   56.8040   25.7670   46.5910 C   0  0  0  0  0  0  0  0  0  0  0  0
   56.9210   26.6500   45.5130 C   0  0  0  0  0  0  0  0  0  0  0  0
   60.1350   29.3120   47.2700 H   0  0  0  0  0  0  0  0  0  0  0  0
   60.8130   30.8800   47.7410 H   0  0  0  0  0  0  0  0  0  0  0  0
   60.7404   34.1200   45.8626 H   0  0  0  0  0  0  0  0  0  0  0  0
   63.1670   33.8884   45.3613 H   0  0  0  0  0  0  0  0  0  0  0  0
   64.7876   33.4474   47.2030 H   0  0  0  0  0  0  0  0  0  0  0  0
   63.9873   33.2372   49.5514 H   0  0  0  0  0  0  0  0  0  0  0  0
   59.4620   33.0670   50.1050 H   0  0  0  0  0  0  0  0  0  0  0  0
   60.8474   31.0398   49.9117 H   0  0  0  0  0  0  0  0  0  0  0  0
   61.0491   31.1310   51.7061 H   0  0  0  0  0  0  0  0  0  0  0  0
   58.5699   30.5518   50.0707 H   0  0  0  0  0  0  0  0  0  0  0  0
   59.2992   29.6675   51.5043 H   0  0  0  0  0  0  0  0  0  0  0  0
   55.5936   32.1791   51.3771 H   0  0  0  0  0  0  0  0  0  0  0  0
   53.4498   31.0469   51.9277 H   0  0  0  0  0  0  0  0  0  0  0  0
   53.4500   28.8760   53.1503 H   0  0  0  0  0  0  0  0  0  0  0  0
   55.6057   27.8242   53.8176 H   0  0  0  0  0  0  0  0  0  0  0  0
   57.7648   28.9345   53.2788 H   0  0  0  0  0  0  0  0  0  0  0  0
   57.5841   33.3455   51.9963 H   0  0  0  0  0  0  0  0  0  0  0  0
   58.2732   32.6586   53.5541 H   0  0  0  0  0  0  0  0  0  0  0  0
   59.6672   34.3714   52.1349 H   0  0  0  0  0  0  0  0  0  0  0  0
   60.4385   32.9191   52.8916 H   0  0  0  0  0  0  0  0  0  0  0  0
   59.7829   29.6866   43.5107 H   0  0  0  0  0  0  0  0  0  0  0  0
   60.0765   28.9331   45.1212 H   0  0  0  0  0  0  0  0  0  0  0  0
   57.2595   28.8875   44.0657 H   0  0  0  0  0  0  0  0  0  0  0  0
   58.4705   27.8077   43.2730 H   0  0  0  0  0  0  0  0  0  0  0  0
   60.0769   27.8315   46.1203 H   0  0  0  0  0  0  0  0  0  0  0  0
   59.8632   26.2469   48.0379 H   0  0  0  0  0  0  0  0  0  0  0  0
   57.7680   24.9199   48.3383 H   0  0  0  0  0  0  0  0  0  0  0  0
   55.8789   25.1879   46.7284 H   0  0  0  0  0  0  0  0  0  0  0  0
   56.0848   26.7681   44.8081 H   0  0  0  0  0  0  0  0  0  0  0  0
  1  2  1  0
  2  3  2  0
  3  4  1  0
  4  5  2  0
  4  6  1  0
  6  7  1  0
  7  8  2  0
  8  9  1  0
  9 10  2  0
 10 11  1  0
 11 12  2  0
 12 13  1  0
 13 14  2  0
 13 15  1  0
 15 16  1  0
 16 17  1  0
 17 18  1  0
 18 19  1  0
 19 20  2  0
 20 21  1  0
 21 22  2  0
 22 23  1  0
 23 24  2  0
 18 25  1  0
 25 26  1  0
  3 27  1  0
 27 28  1  0
 28 29  2  0
 28 30  1  0
 30 31  1  0
 31 32  1  0
 32 33  1  0
 33 34  2  0
 34 35  1  0
 35 36  2  0
 36 37  1  0
 37 38  2  0
 30  2  1  0
 38 33  1  0
 12  7  1  0
 26 15  1  0
 24 19  1  0
  1 39  1  0
  1 40  1  0
  8 41  1  0
  9 42  1  0
 10 43  1  0
 11 44  1  0
 15 45  1  0
 16 46  1  0
 16 47  1  0
 17 48  1  0
 17 49  1  0
 20 50  1  0
 21 51  1  0
 22 52  1  0
 23 53  1  0
 24 54  1  0
 25 55  1  0
 25 56  1  0
 26 57  1  0
 26 58  1  0
 31 59  1  0
 31 60  1  0
 32 61  1  0
 32 62  1  0
 34 63  1  0
 35 64  1  0
 36 65  1  0
 37 66  1  0
 38 67  1  0
M  CHG  2   6  -1  15   1
M  END
>  <UniqueID>  (25) 
24

>  <SMILES>  (25) 
Nc1c(C(=O)[N-]c2ccccc2C(=O)[NH+]2CCN(c3ccccc3)CC2)sc(=S)n1CCc1ccccc1

>  <Energy>  (25) 
123.36012755033458

>  <Genealogy>  (25) 
Nc1c(C(=O)[N-]c2ccccc2C(=O)[NH+]2CCN(c3ccccc3)CC2)sc(=S)n1CCc1ccccc1 (protonated)
Nc1c(C(=O)[N-]c2ccccc2C(=O)[NH+]2CCN(c3ccccc3)CC2)sc(=S)n1CCc1ccccc1 (3D coordinates assigned)
Nc1c(C(=O)[N-]c2ccccc2C(=O)[NH+]2CCN(c3ccccc3)CC2)sc(=S)n1CCc1ccccc1 (nonaromatic ring conformer: 123.36012755033458 kcal/mol)

>  <smiles>  (25) 
Nc1c(C(=O)Nc2ccccc2C(=O)N2CCN(c3ccccc3)CC2)sc(=S)n1CCc1ccccc1

>  <score_type>  (25) 
oracle

>  <origin>  (25) 
adg

>  <m_score__min__energy>  (25) 
-8.7799999999999994

>  <m_primary>  (25) 
energy

$$$$
25:0
     RDKit          3D

 50 52  0  0  0  0  0  0  0  0999 V2000
   60.5210   34.2080   47.6830 C   0  0  0  0  0  0  0  0  0  0  0  0
   59.0300   34.4590   47.4940 C   0  0  0  0  0  0  0  0  0  0  0  0
   58.5660   33.8490   46.2460 N   0  0  0  0  0  0  0  0  0  0  0  0
   58.1540   34.5140   45.1500 C   0  0  0  0  0  0  0  0  0  0  0  0
   57.7130   33.5940   44.2220 C   0  0  0  0  0  0  0  0  0  0  0  0
   57.8430   32.3590   44.7450 N   0  0  0  0  0  0  0  0  0  0  0  0
   58.3570   32.5400   45.9780 C   0  0  0  0  0  0  0  0  0  0  0  0
   58.6600   31.4090   46.9180 C   0  0  0  0  0  0  0  0  0  0  0  0
   59.2140   30.2700   46.1840 N   0  0  0  0  0  0  0  0  0  0  0  0
   58.0150   29.5390   45.1540 S   0  0  0  0  0  0  0  0  0  0  0  0
   58.2580   29.9910   43.7420 O   0  0  0  0  0  0  0  0  0  0  0  0
   56.6470   29.9850   45.5860 O   0  0  0  0  0  0  0  0  0  0  0  0
   58.1230   27.7730   45.2120 C   0  0  0  0  0  0  0  0  0  0  0  0
   57.7960   27.0230   44.0740 C   0  0  0  0  0  0  0  0  0  0  0  0
   57.8700   25.6290   44.0930 C   0  0  0  0  0  0  0  0  0  0  0  0
   58.2550   24.9550   45.2620 C   0  0  0  0  0  0  0  0  0  0  0  0
   58.3440   23.4760   45.2760 C   0  0  0  0  0  0  0  0  0  0  0  0
   59.4510   22.9280   45.5350 O   0  0  0  0  0  0  0  0  0  0  0  0
   57.1900   22.6530   45.0210 N   0  0  0  0  0  0  0  0  0  0  0  0
   56.6850   22.5250   43.6530 C   0  0  0  0  0  0  0  0  0  0  0  0
   55.5130   23.4350   43.4140 C   0  0  0  0  0  0  0  0  0  0  0  0
   54.5970   23.7310   44.3430 C   0  0  0  0  0  0  0  0  0  0  0  0
   54.9150   24.2730   45.6770 C   0  0  0  0  0  0  0  0  0  0  0  0
   54.7000   25.4930   45.9040 O   0  0  0  0  0  0  0  0  0  0  0  0
   55.5980   23.4370   46.7250 C   0  0  0  0  0  0  0  0  0  0  0  0
   56.3240   22.2320   46.1280 C   0  0  0  0  0  0  0  0  0  0  0  0
   58.5790   25.7020   46.4060 C   0  0  0  0  0  0  0  0  0  0  0  0
   58.5060   27.1000   46.3910 C   0  0  0  0  0  0  0  0  0  0  0  0
   58.8870   27.9630   47.8780 Cl  0  0  0  0  0  0  0  0  0  0  0  0
   60.7529   34.1690   48.7576 H   0  0  0  0  0  0  0  0  0  0  0  0
   60.7941   33.2512   47.2139 H   0  0  0  0  0  0  0  0  0  0  0  0
   61.0923   35.0226   47.2139 H   0  0  0  0  0  0  0  0  0  0  0  0
   58.4783   34.0211   48.3390 H   0  0  0  0  0  0  0  0  0  0  0  0
   58.8526   35.5437   47.4497 H   0  0  0  0  0  0  0  0  0  0  0  0
   58.1670   35.6059   45.0173 H   0  0  0  0  0  0  0  0  0  0  0  0
   57.3206   33.8292   43.2217 H   0  0  0  0  0  0  0  0  0  0  0  0
   57.5860   31.4570   44.2890 H   0  0  0  0  0  0  0  0  0  0  0  0
   59.3904   31.7468   47.6680 H   0  0  0  0  0  0  0  0  0  0  0  0
   57.7283   31.0961   47.4119 H   0  0  0  0  0  0  0  0  0  0  0  0
   57.4776   27.5384   43.1559 H   0  0  0  0  0  0  0  0  0  0  0  0
   57.6252   25.0559   43.1866 H   0  0  0  0  0  0  0  0  0  0  0  0
   57.4892   22.7846   42.9488 H   0  0  0  0  0  0  0  0  0  0  0  0
   56.3540   21.4870   43.5018 H   0  0  0  0  0  0  0  0  0  0  0  0
   55.4018   23.8843   42.4161 H   0  0  0  0  0  0  0  0  0  0  0  0
   53.5390   23.5591   44.0960 H   0  0  0  0  0  0  0  0  0  0  0  0
   56.3305   24.0638   47.2546 H   0  0  0  0  0  0  0  0  0  0  0  0
   54.8236   23.0572   47.4077 H   0  0  0  0  0  0  0  0  0  0  0  0
   56.9375   21.7560   46.9072 H   0  0  0  0  0  0  0  0  0  0  0  0
   55.5780   21.5195   45.7461 H   0  0  0  0  0  0  0  0  0  0  0  0
   58.8935   25.1833   47.3236 H   0  0  0  0  0  0  0  0  0  0  0  0
  1  2  1  0
  2  3  1  0
  3  4  1  0
  4  5  2  0
  5  6  1  0
  6  7  2  0
  7  8  1  0
  8  9  1  0
  9 10  1  0
 10 11  2  0
 10 12  2  0
 10 13  1  0
 13 14  2  0
 14 15  1  0
 15 16  2  0
 16 17  1  0
 17 18  2  0
 17 19  1  0
 19 20  1  0
 20 21  1  0
 21 22  2  0
 22 23  1  0
 23 24  2  0
 23 25  1  0
 25 26  1  0
 16 27  1  0
 27 28  2  0
 28 29  1  0
  7  3  1  0
 28 13  1  0
 26 19  1  0
  1 30  1  0
  1 31  1  0
  1 32  1  0
  2 33  1  0
  2 34  1  0
  4 35  1  0
  5 36  1  0
  6 37  1  0
  8 38  1  0
  8 39  1  0
 14 40  1  0
 15 41  1  0
 20 42  1  0
 20 43  1  0
 21 44  1  0
 22 45  1  0
 25 46  1  0
 25 47  1  0
 26 48  1  0
 26 49  1  0
 27 50  1  0
M  CHG  2   6   1   9  -1
M  END
>  <UniqueID>  (26) 
25

>  <SMILES>  (26) 
CCn1cc[nH+]c1C[N-]S(=O)(=O)c1ccc(C(=O)N2CC=CC(=O)CC2)cc1Cl

>  <Energy>  (26) 
86.50245360521382

>  <Genealogy>  (26) 
CCn1cc[nH+]c1C[N-]S(=O)(=O)c1ccc(C(=O)N2CC=CC(=O)CC2)cc1Cl (protonated)
CCn1cc[nH+]c1C[N-]S(=O)(=O)c1ccc(C(=O)N2CC=CC(=O)CC2)cc1Cl (3D coordinates assigned)
CCn1cc[nH+]c1C[N-]S(=O)(=O)c1ccc(C(=O)N2CC=CC(=O)CC2)cc1Cl (nonaromatic ring conformer: 86.50245360521382 kcal/mol)

>  <smiles>  (26) 
CCn1ccnc1CNS(=O)(=O)c1ccc(C(=O)N2CC=CC(=O)CC2)cc1Cl

>  <score_type>  (26) 
oracle

>  <origin>  (26) 
adg

>  <m_score__min__energy>  (26) 
-6.6900000000000004

>  <m_primary>  (26) 
energy

$$$$
26:0
     RDKit          3D

 68 72  0  0  0  0  0  0  0  0999 V2000
   58.8330   34.1730   45.7250 C   0  0  0  0  0  0  0  0  0  0  0  0
   58.4710   32.9370   44.9430 C   0  0  0  0  0  0  0  0  0  0  0  0
   57.9260   33.0780   43.6600 C   0  0  0  0  0  0  0  0  0  0  0  0
   57.6140   31.9390   42.9180 C   0  0  0  0  0  0  0  0  0  0  0  0
   57.1190   32.0550   41.7680 O   0  0  0  0  0  0  0  0  0  0  0  0
   57.8350   30.7300   43.4170 O   0  0  0  0  0  0  0  0  0  0  0  0
   58.3540   30.5300   44.6260 C   0  0  0  0  0  0  0  0  0  0  0  0
   58.5710   29.2200   45.0860 C   0  0  0  0  0  0  0  0  0  0  0  0
   59.1300   29.0060   46.3510 C   0  0  0  0  0  0  0  0  0  0  0  0
   59.4720   30.0830   47.1770 C   0  0  0  0  0  0  0  0  0  0  0  0
   60.0260   29.7930   48.4380 O   0  0  0  0  0  0  0  0  0  0  0  0
   59.3180   29.6900   49.6750 C   0  0  0  0  0  0  0  0  0  0  0  0
   58.8470   31.0700   50.1570 C   0  0  0  0  0  0  0  0  0  0  0  0
   58.4120   31.0150   51.5680 N   0  0  0  0  0  0  0  0  0  0  0  0
   57.3920   32.0520   51.8830 C   0  0  0  0  0  0  0  0  0  0  0  0
   55.9880   31.4590   52.0750 C   0  0  0  0  0  0  0  0  0  0  0  0
   55.9890   30.4630   53.1720 N   0  0  0  0  0  0  0  0  0  0  0  0
   54.7290   29.6920   53.2810 C   0  0  0  0  0  0  0  0  0  0  0  0
   53.6150   30.2070   52.3900 C   0  0  0  0  0  0  0  0  0  0  0  0
   53.4570   29.7200   51.0840 C   0  0  0  0  0  0  0  0  0  0  0  0
   52.4300   30.2010   50.2690 C   0  0  0  0  0  0  0  0  0  0  0  0
   51.5410   31.1620   50.7540 C   0  0  0  0  0  0  0  0  0  0  0  0
   51.6670   31.6520   52.0640 C   0  0  0  0  0  0  0  0  0  0  0  0
   50.7140   32.6600   52.5790 C   0  0  0  0  0  0  0  0  0  0  0  0
   49.9570   32.3900   53.5480 O   0  0  0  0  0  0  0  0  0  0  0  0
   50.6390   33.9210   51.9980 O   0  0  0  0  0  0  0  0  0  0  0  0
   52.7100   31.1670   52.8760 C   0  0  0  0  0  0  0  0  0  0  0  0
   57.2210   29.6440   53.2620 C   0  0  0  0  0  0  0  0  0  0  0  0
   58.0080   29.6410   51.9460 C   0  0  0  0  0  0  0  0  0  0  0  0
   59.2340   31.3960   46.7290 C   0  0  0  0  0  0  0  0  0  0  0  0
   58.6930   31.6340   45.4490 C   0  0  0  0  0  0  0  0  0  0  0  0
   59.3610   27.6960   46.7890 O   0  0  0  0  0  0  0  0  0  0  0  0
   58.8040   26.5350   46.1580 C   0  0  0  0  0  0  0  0  0  0  0  0
   57.5620   26.0980   46.9460 C   0  0  0  0  0  0  0  0  0  0  0  0
   59.8580   25.4230   46.1890 C   0  0  0  0  0  0  0  0  0  0  0  0
   58.4040   26.8060   44.7190 C   0  0  0  0  0  0  0  0  0  0  0  0
   58.2580   28.0460   44.2470 C   0  0  0  0  0  0  0  0  0  0  0  0
   58.7698   33.9572   46.8018 H   0  0  0  0  0  0  0  0  0  0  0  0
   59.8587   34.4796   45.4721 H   0  0  0  0  0  0  0  0  0  0  0  0
   58.1348   34.9845   45.4721 H   0  0  0  0  0  0  0  0  0  0  0  0
   57.7456   34.0791   43.2412 H   0  0  0  0  0  0  0  0  0  0  0  0
   58.4419   29.0398   49.5348 H   0  0  0  0  0  0  0  0  0  0  0  0
   59.9951   29.2671   50.4318 H   0  0  0  0  0  0  0  0  0  0  0  0
   59.6763   31.7866   50.0634 H   0  0  0  0  0  0  0  0  0  0  0  0
   57.9943   31.3864   49.5382 H   0  0  0  0  0  0  0  0  0  0  0  0
   57.6870   32.5667   52.8093 H   0  0  0  0  0  0  0  0  0  0  0  0
   57.3474   32.7458   51.0306 H   0  0  0  0  0  0  0  0  0  0  0  0
   55.2844   32.2678   52.3215 H   0  0  0  0  0  0  0  0  0  0  0  0
   55.6827   30.9605   51.1432 H   0  0  0  0  0  0  0  0  0  0  0  0
   54.9372   28.6473   53.0065 H   0  0  0  0  0  0  0  0  0  0  0  0
   54.3807   29.7942   54.3194 H   0  0  0  0  0  0  0  0  0  0  0  0
   54.1466   28.9542   50.6993 H   0  0  0  0  0  0  0  0  0  0  0  0
   52.3212   29.8217   49.2422 H   0  0  0  0  0  0  0  0  0  0  0  0
   50.7361   31.5381   50.1054 H   0  0  0  0  0  0  0  0  0  0  0  0
   52.8182   31.5440   53.9037 H   0  0  0  0  0  0  0  0  0  0  0  0
   57.8614   30.0526   54.0575 H   0  0  0  0  0  0  0  0  0  0  0  0
   56.9241   28.6079   53.4820 H   0  0  0  0  0  0  0  0  0  0  0  0
   58.9087   29.0212   52.0665 H   0  0  0  0  0  0  0  0  0  0  0  0
   57.3642   29.2334   51.1527 H   0  0  0  0  0  0  0  0  0  0  0  0
   59.4728   32.2460   47.3850 H   0  0  0  0  0  0  0  0  0  0  0  0
   57.7676   26.1703   48.0242 H   0  0  0  0  0  0  0  0  0  0  0  0
   56.7159   26.7524   46.6894 H   0  0  0  0  0  0  0  0  0  0  0  0
   57.3121   25.0580   46.6894 H   0  0  0  0  0  0  0  0  0  0  0  0
   60.0958   25.1722   47.2333 H   0  0  0  0  0  0  0  0  0  0  0  0
   59.4656   24.5315   45.6780 H   0  0  0  0  0  0  0  0  0  0  0  0
   60.7693   25.7672   45.6780 H   0  0  0  0  0  0  0  0  0  0  0  0
   58.2291   25.9547   44.0447 H   0  0  0  0  0  0  0  0  0  0  0  0
   57.8993   28.1954   43.2179 H   0  0  0  0  0  0  0  0  0  0  0  0
  1  2  1  0
  2  3  2  0
  3  4  1  0
  4  5  2  0
  4  6  1  0
  6  7  1  0
  7  8  2  0
  8  9  1  0
  9 10  2  0
 10 11  1  0
 11 12  1  0
 12 13  1  0
 13 14  1  0
 14 15  1  0
 15 16  1  0
 16 17  1  0
 17 18  1  0
 18 19  1  0
 19 20  2  0
 20 21  1  0
 21 22  2  0
 22 23  1  0
 23 24  1  0
 24 25  2  0
 24 26  1  0
 23 27  2  0
 17 28  1  0
 28 29  1  0
 10 30  1  0
 30 31  2  0
  9 32  1  0
 32 33  1  0
 33 34  1  0
 33 35  1  0
 33 36  1  0
 36 37  2  0
 31  2  1  0
 31  7  1  0
 37  8  1  0
 29 14  1  0
 27 19  1  0
  1 38  1  0
  1 39  1  0
  1 40  1  0
  3 41  1  0
 12 42  1  0
 12 43  1  0
 13 44  1  0
 13 45  1  0
 15 46  1  0
 15 47  1  0
 16 48  1  0
 16 49  1  0
 18 50  1  0
 18 51  1  0
 20 52  1  0
 21 53  1  0
 22 54  1  0
 27 55  1  0
 28 56  1  0
 28 57  1  0
 29 58  1  0
 29 59  1  0
 30 60  1  0
 34 61  1  0
 34 62  1  0
 34 63  1  0
 35 64  1  0
 35 65  1  0
 35 66  1  0
 36 67  1  0
 37 68  1  0
M  CHG  1  26  -1
M  END
>  <UniqueID>  (27) 
26

>  <SMILES>  (27) 
Cc1cc(=O)oc2c3c(c(OCCN4CCN(Cc5cccc(C(=O)[O-])c5)CC4)cc12)OC(C)(C)C=C3

>  <Energy>  (27) 
91.99956210394275

>  <Genealogy>  (27) 
Cc1cc(=O)oc2c3c(c(OCCN4CCN(Cc5cccc(C(=O)[O-])c5)CC4)cc12)OC(C)(C)C=C3 (protonated)
Cc1cc(=O)oc2c3c(c(OCCN4CCN(Cc5cccc(C(=O)[O-])c5)CC4)cc12)OC(C)(C)C=C3 (3D coordinates assigned)
Cc1cc(=O)oc2c3c(c(OCCN4CCN(Cc5cccc(C(=O)[O-])c5)CC4)cc12)OC(C)(C)C=C3 (nonaromatic ring conformer: 91.99956210394275 kcal/mol)

>  <smiles>  (27) 
Cc1cc(=O)oc2c3c(c(OCCN4CCN(Cc5cccc(C(=O)O)c5)CC4)cc12)OC(C)(C)C=C3

>  <score_type>  (27) 
oracle

>  <origin>  (27) 
adg

>  <m_score__min__energy>  (27) 
-14.359999999999999

>  <m_primary>  (27) 
energy

$$$$
27:0
     RDKit          3D

 59 63  0  0  0  0  0  0  0  0999 V2000
   58.7767   31.0346   43.7578 H   0  0  0  0  0  0  0  0  0  0  0  0
   58.4920   30.0440   44.1420 C   0  0  0  0  0  0  0  0  0  0  0  0
   58.2335   29.2360   43.4418 H   0  0  0  0  0  0  0  0  0  0  0  0
   58.4600   29.8210   45.4660 C   0  0  0  0  0  0  0  0  0  0  0  0
   58.1180   28.6170   46.0900 C   0  0  0  0  0  0  0  0  0  0  0  0
   57.7970   27.4490   45.4970 C   0  0  0  0  0  0  0  0  0  0  0  0
   57.9617   27.3579   44.4132 H   0  0  0  0  0  0  0  0  0  0  0  0
   57.2390   26.2870   46.2120 C   0  0  0  0  0  0  0  0  0  0  0  0
   57.9940   25.2830   46.6870 N   0  0  0  0  0  0  0  0  0  0  0  0
   57.0850   24.4110   47.1770 C   0  0  0  0  0  0  0  0  0  0  0  0
   57.4140   23.3290   47.7290 O   0  0  0  0  0  0  0  0  0  0  0  0
   55.7990   24.7860   47.0190 N   0  0  0  0  0  0  0  0  0  0  0  0
   55.9110   25.9690   46.3960 C   0  0  0  0  0  0  0  0  0  0  0  0
   54.8220   26.7150   45.9620 O   0  0  0  0  0  0  0  0  0  0  0  0
   58.2330   28.8390   47.4540 C   0  0  0  0  0  0  0  0  0  0  0  0
   58.0591   28.1068   48.2563 H   0  0  0  0  0  0  0  0  0  0  0  0
   58.6080   30.1570   47.6080 C   0  0  0  0  0  0  0  0  0  0  0  0
   58.8420   30.7920   48.9180 C   0  0  0  0  0  0  0  0  0  0  0  0
   58.3030   31.9070   49.1560 O   0  0  0  0  0  0  0  0  0  0  0  0
   59.7100   30.1890   49.8950 N   0  0  0  0  0  0  0  0  0  0  0  0
   60.8150   29.3200   49.4640 C   0  0  0  0  0  0  0  0  0  0  0  0
   60.4016   28.3829   49.0628 H   0  0  0  0  0  0  0  0  0  0  0  0
   61.3952   29.8444   48.6904 H   0  0  0  0  0  0  0  0  0  0  0  0
   61.7430   28.9970   50.6400 C   0  0  0  0  0  0  0  0  0  0  0  0
   61.2621   28.2486   51.2870 H   0  0  0  0  0  0  0  0  0  0  0  0
   62.6924   28.6023   50.2490 H   0  0  0  0  0  0  0  0  0  0  0  0
   62.0150   30.2090   51.4210 N   0  0  0  0  0  0  0  0  0  0  0  0
   62.4320   30.9280   50.7830 H   0  0  0  0  0  0  0  0  0  0  0  0
   60.8010   30.7730   52.0480 C   0  0  0  0  0  0  0  0  0  0  0  0
   60.7437   30.4026   53.0822 H   0  0  0  0  0  0  0  0  0  0  0  0
   60.8963   31.8673   51.9902 H   0  0  0  0  0  0  0  0  0  0  0  0
   59.4860   30.4060   51.3300 C   0  0  0  0  0  0  0  0  0  0  0  0
   59.0795   29.4851   51.7735 H   0  0  0  0  0  0  0  0  0  0  0  0
   58.7776   31.2388   51.4511 H   0  0  0  0  0  0  0  0  0  0  0  0
   58.7580   30.7600   46.4030 N   0  0  0  0  0  0  0  0  0  0  0  0
   59.3060   32.1060   46.1640 C   0  0  0  0  0  0  0  0  0  0  0  0
   59.6534   32.1750   45.1226 H   0  0  0  0  0  0  0  0  0  0  0  0
   58.5165   32.8485   46.3522 H   0  0  0  0  0  0  0  0  0  0  0  0
   60.4610   32.3810   47.0900 C   0  0  0  0  0  0  0  0  0  0  0  0
   61.5520   31.4980   47.1390 C   0  0  0  0  0  0  0  0  0  0  0  0
   61.5583   30.6010   46.5023 H   0  0  0  0  0  0  0  0  0  0  0  0
   62.6300   31.7520   47.9920 C   0  0  0  0  0  0  0  0  0  0  0  0
   63.4841   31.0591   48.0142 H   0  0  0  0  0  0  0  0  0  0  0  0
   62.6300   32.8860   48.8210 C   0  0  0  0  0  0  0  0  0  0  0  0
   63.7800   33.1590   49.7170 C   0  0  0  0  0  0  0  0  0  0  0  0
   65.0710   32.7330   49.3520 C   0  0  0  0  0  0  0  0  0  0  0  0
   65.2209   32.1942   48.4048 H   0  0  0  0  0  0  0  0  0  0  0  0
   66.1640   32.9900   50.1850 C   0  0  0  0  0  0  0  0  0  0  0  0
   67.1698   32.6557   49.8906 H   0  0  0  0  0  0  0  0  0  0  0  0
   65.9800   33.6710   51.3910 C   0  0  0  0  0  0  0  0  0  0  0  0
   66.8414   33.8763   52.0436 H   0  0  0  0  0  0  0  0  0  0  0  0
   64.7030   34.0910   51.7680 C   0  0  0  0  0  0  0  0  0  0  0  0
   64.5599   34.6221   52.7206 H   0  0  0  0  0  0  0  0  0  0  0  0
   63.6050   33.8390   50.9390 C   0  0  0  0  0  0  0  0  0  0  0  0
   62.3700   34.2280   51.3490 F   0  0  0  0  0  0  0  0  0  0  0  0
   61.5350   33.7650   48.7760 C   0  0  0  0  0  0  0  0  0  0  0  0
   61.5250   34.6582   49.4180 H   0  0  0  0  0  0  0  0  0  0  0  0
   60.4590   33.5130   47.9220 C   0  0  0  0  0  0  0  0  0  0  0  0
   59.6045   34.2053   47.9007 H   0  0  0  0  0  0  0  0  0  0  0  0
  1  2  1  0
  2  3  1  0
  2  4  2  0
  4  5  1  0
  5  6  2  0
  6  7  1  0
  6  8  1  0
  8  9  1  0
  9 10  1  0
 10 11  2  0
 10 12  1  0
 12 13  1  0
 13 14  1  0
  5 15  1  0
 15 16  1  0
 15 17  2  0
 17 18  1  0
 18 19  2  0
 18 20  1  0
 20 21  1  0
 21 22  1  0
 21 23  1  0
 21 24  1  0
 24 25  1  0
 24 26  1  0
 24 27  1  0
 27 28  1  0
 27 29  1  0
 29 30  1  0
 29 31  1  0
 29 32  1  0
 32 33  1  0
 32 34  1  0
 17 35  1  0
 35 36  1  0
 36 37  1  0
 36 38  1  0
 36 39  1  0
 39 40  2  0
 40 41  1  0
 40 42  1  0
 42 43  1  0
 42 44  2  0
 44 45  1  0
 45 46  2  0
 46 47  1  0
 46 48  1  0
 48 49  1  0
 48 50  2  0
 50 51  1  0
 50 52  1  0
 52 53  1  0
 52 54  2  0
 54 55  1  0
 44 56  1  0
 56 57  1  0
 56 58  2  0
 58 59  1  0
 35  4  1  0
 58 39  1  0
 13  8  2  0
 32 20  1  0
 54 45  1  0
M  CHG  3   9  -1  12  -1  14  -1
M  END
>  <UniqueID>  (28) 
27

>  <SMILES>  (28) 
C=c1/c(=C/c2[n-]c(=O)[n-]c2[O-])cc(C(=O)N2CCNCC2)n1Cc1ccc(-c2ccccc2F)cc1

>  <Energy>  (28) 
145.33721045563874

>  <Genealogy>  (28) 
C=c1c(=Cc2[n-]c(=O)[n-]c2[O-])cc(C(=O)N2CCNCC2)n1Cc1ccc(-c2ccccc2F)cc1 (protonated)
C=c1/c(=C/c2[n-]c(=O)[n-]c2[O-])cc(C(=O)N2CCNCC2)n1Cc1ccc(-c2ccccc2F)cc1 (cis-trans isomerization)
C=c1/c(=C/c2[n-]c(=O)[n-]c2[O-])cc(C(=O)N2CCNCC2)n1Cc1ccc(-c2ccccc2F)cc1 (3D coordinates assigned)
C=c1/c(=C/c2[n-]c(=O)[n-]c2[O-])cc(C(=O)N2CCNCC2)n1Cc1ccc(-c2ccccc2F)cc1 (nonaromatic ring conformer: 145.33721045563874 kcal/mol)

>  <smiles>  (28) 
C=c1c(=Cc2[nH]c(=O)[nH]c2O)cc(C(=O)N2CCNCC2)n1Cc1ccc(-c2ccccc2F)cc1

>  <score_type>  (28) 
oracle

>  <origin>  (28) 
adg

>  <m_score__min__energy>  (28) 
-16.02

>  <m_primary>  (28) 
energy

$$$$
28:0
     RDKit          3D

 50 52  0  0  0  0  0  0  0  0999 V2000
   64.1644   34.4632   51.8230 H   0  0  0  0  0  0  0  0  0  0  0  0
   63.7610   34.0340   50.8940 C   0  0  0  0  0  0  0  0  0  0  0  0
   62.4120   34.2000   50.5770 C   0  0  0  0  0  0  0  0  0  0  0  0
   61.7558   34.7690   51.2519 H   0  0  0  0  0  0  0  0  0  0  0  0
   61.8920   33.6440   49.4020 C   0  0  0  0  0  0  0  0  0  0  0  0
   60.8260   33.7712   49.1624 H   0  0  0  0  0  0  0  0  0  0  0  0
   62.7250   32.9230   48.5250 C   0  0  0  0  0  0  0  0  0  0  0  0
   62.1540   32.3500   47.2800 C   0  0  0  0  0  0  0  0  0  0  0  0
   61.7550   33.1310   46.3740 O   0  0  0  0  0  0  0  0  0  0  0  0
   61.9690   30.8670   47.0830 C   0  0  0  0  0  0  0  0  0  0  0  0
   62.4129   30.3316   47.9353 H   0  0  0  0  0  0  0  0  0  0  0  0
   62.4634   30.5709   46.1461 H   0  0  0  0  0  0  0  0  0  0  0  0
   60.4960   30.5170   46.9880 C   0  0  0  0  0  0  0  0  0  0  0  0
   59.9740   30.0550   45.8890 N   0  0  0  0  0  0  0  0  0  0  0  0
   60.0360   28.6950   45.3710 C   0  0  0  0  0  0  0  0  0  0  0  0
   60.3579   28.7112   44.3193 H   0  0  0  0  0  0  0  0  0  0  0  0
   60.7577   28.0999   45.9498 H   0  0  0  0  0  0  0  0  0  0  0  0
   58.6640   28.0920   45.4740 C   0  0  0  0  0  0  0  0  0  0  0  0
   58.4840   26.8310   46.0660 C   0  0  0  0  0  0  0  0  0  0  0  0
   59.3584   26.2483   46.3914 H   0  0  0  0  0  0  0  0  0  0  0  0
   57.1970   26.3140   46.2430 C   0  0  0  0  0  0  0  0  0  0  0  0
   57.0625   25.3225   46.7001 H   0  0  0  0  0  0  0  0  0  0  0  0
   56.0810   27.0530   45.8410 C   0  0  0  0  0  0  0  0  0  0  0  0
   54.8050   26.5360   46.0260 O   0  0  0  0  0  0  0  0  0  0  0  0
   56.2520   28.3170   45.2630 C   0  0  0  0  0  0  0  0  0  0  0  0
   55.1450   29.0630   44.8750 O   0  0  0  0  0  0  0  0  0  0  0  0
   57.5400   28.8360   45.0820 C   0  0  0  0  0  0  0  0  0  0  0  0
   57.6715   29.8306   44.6309 H   0  0  0  0  0  0  0  0  0  0  0  0
   59.5930   30.7550   48.1460 C   0  0  0  0  0  0  0  0  0  0  0  0
   59.3950   29.8320   48.9800 O   0  0  0  0  0  0  0  0  0  0  0  0
   58.9600   32.0370   48.3550 N   0  0  0  0  0  0  0  0  0  0  0  0
   58.6490   32.8980   47.2440 C   0  0  0  0  0  0  0  0  0  0  0  0
   59.2370   34.1710   47.1480 C   0  0  0  0  0  0  0  0  0  0  0  0
   59.9068   34.5265   47.9448 H   0  0  0  0  0  0  0  0  0  0  0  0
   58.9740   34.9870   46.0440 C   0  0  0  0  0  0  0  0  0  0  0  0
   59.4388   35.9814   45.9720 H   0  0  0  0  0  0  0  0  0  0  0  0
   58.1210   34.5400   45.0320 C   0  0  0  0  0  0  0  0  0  0  0  0
   57.9118   35.1845   44.1655 H   0  0  0  0  0  0  0  0  0  0  0  0
   57.5330   33.2750   45.1190 C   0  0  0  0  0  0  0  0  0  0  0  0
   56.8627   32.9245   44.3204 H   0  0  0  0  0  0  0  0  0  0  0  0
   57.7960   32.4550   46.2200 C   0  0  0  0  0  0  0  0  0  0  0  0
   57.3332   31.4592   46.2846 H   0  0  0  0  0  0  0  0  0  0  0  0
   58.3890   32.3470   49.6660 C   0  0  0  0  0  0  0  0  0  0  0  0
   59.0626   31.9813   50.4551 H   0  0  0  0  0  0  0  0  0  0  0  0
   58.2661   33.4357   49.7643 H   0  0  0  0  0  0  0  0  0  0  0  0
   57.4091   31.8570   49.7643 H   0  0  0  0  0  0  0  0  0  0  0  0
   64.0900   32.7820   48.8460 C   0  0  0  0  0  0  0  0  0  0  0  0
   64.7598   32.2431   48.1597 H   0  0  0  0  0  0  0  0  0  0  0  0
   64.5990   33.3230   50.0320 C   0  0  0  0  0  0  0  0  0  0  0  0
   65.6608   33.1881   50.2858 H   0  0  0  0  0  0  0  0  0  0  0  0
  1  2  1  0
  2  3  2  0
  3  4  1  0
  3  5  1  0
  5  6  1  0
  5  7  2  0
  7  8  1  0
  8  9  2  0
  8 10  1  0
 10 11  1  0
 10 12  1  0
 10 13  1  0
 13 14  2  0
 14 15  1  0
 15 16  1  0
 15 17  1  0
 15 18  1  0
 18 19  2  0
 19 20  1  0
 19 21  1  0
 21 22  1  0
 21 23  2  0
 23 24  1  0
 23 25  1  0
 25 26  1  0
 25 27  2  0
 27 28  1  0
 13 29  1  0
 29 30  2  0
 29 31  1  0
 31 32  1  0
 32 33  2  0
 33 34  1  0
 33 35  1  0
 35 36  1  0
 35 37  2  0
 37 38  1  0
 37 39  1  0
 39 40  1  0
 39 41  2  0
 41 42  1  0
 31 43  1  0
 43 44  1  0
 43 45  1  0
 43 46  1  0
  7 47  1  0
 47 48  1  0
 47 49  2  0
 49 50  1  0
 49  2  1  0
 27 18  1  0
 41 32  1  0
M  CHG  2  24  -1  26  -1
M  END
>  <UniqueID>  (29) 
28

>  <SMILES>  (29) 
CN(C(=O)/C(CC(=O)c1ccccc1)=N/Cc1ccc([O-])c([O-])c1)c1ccccc1

>  <Energy>  (29) 
58.05420318417412

>  <Genealogy>  (29) 
CN(C(=O)C(CC(=O)c1ccccc1)=NCc1ccc([O-])c([O-])c1)c1ccccc1 (protonated)
CN(C(=O)/C(CC(=O)c1ccccc1)=N/Cc1ccc([O-])c([O-])c1)c1ccccc1 (cis-trans isomerization)
CN(C(=O)/C(CC(=O)c1ccccc1)=N/Cc1ccc([O-])c([O-])c1)c1ccccc1 (3D coordinates assigned)
CN(C(=O)/C(CC(=O)c1ccccc1)=N/Cc1ccc([O-])c([O-])c1)c1ccccc1 (optimized conformer: 58.05420318417412 kcal/mol)

>  <smiles>  (29) 
CN(C(=O)C(CC(=O)c1ccccc1)=NCc1ccc(O)c(O)c1)c1ccccc1

>  <score_type>  (29) 
oracle

>  <origin>  (29) 
adg

>  <m_score__min__energy>  (29) 
-15.81

>  <m_primary>  (29) 
energy

$$$$
29:0
     RDKit          3D

 41 43  0  0  0  0  0  0  0  0999 V2000
   60.0988   29.7233   48.3323 H   0  0  0  0  0  0  0  0  0  0  0  0
   59.6630   29.2520   47.4390 C   0  0  0  0  0  0  0  0  0  0  0  0
   59.7895   28.1725   47.2695 H   0  0  0  0  0  0  0  0  0  0  0  0
   58.9770   29.9940   46.5560 C   0  0  0  0  0  0  0  0  0  0  0  0
   58.3660   29.5530   45.3810 C   0  0  0  0  0  0  0  0  0  0  0  0
   58.3460   28.2920   44.9030 C   0  0  0  0  0  0  0  0  0  0  0  0
   58.9996   28.0541   44.0508 H   0  0  0  0  0  0  0  0  0  0  0  0
   57.5050   27.2130   45.4490 C   0  0  0  0  0  0  0  0  0  0  0  0
   56.1270   27.3990   45.6260 C   0  0  0  0  0  0  0  0  0  0  0  0
   55.5200   28.5940   45.2540 O   0  0  0  0  0  0  0  0  0  0  0  0
   55.3730   26.4050   46.1610 N   0  0  0  0  0  0  0  0  0  0  0  0
   55.9330   25.2280   46.5430 C   0  0  0  0  0  0  0  0  0  0  0  0
   55.2150   24.3200   47.0330 O   0  0  0  0  0  0  0  0  0  0  0  0
   57.2700   25.0330   46.3980 N   0  0  0  0  0  0  0  0  0  0  0  0
   58.0660   25.9960   45.8680 C   0  0  0  0  0  0  0  0  0  0  0  0
   59.3030   25.7860   45.7530 O   0  0  0  0  0  0  0  0  0  0  0  0
   57.8010   30.7150   44.8400 C   0  0  0  0  0  0  0  0  0  0  0  0
   57.0180   30.8660   43.5720 C   0  0  0  0  0  0  0  0  0  0  0  0
   55.9643   31.0692   43.8137 H   0  0  0  0  0  0  0  0  0  0  0  0
   57.4274   31.7017   42.9856 H   0  0  0  0  0  0  0  0  0  0  0  0
   57.0873   29.9379   42.9856 H   0  0  0  0  0  0  0  0  0  0  0  0
   58.0660   31.7630   45.6440 N   0  0  0  0  0  0  0  0  0  0  0  0
   58.7700   31.3280   46.6750 N   0  0  0  0  0  0  0  0  0  0  0  0
   59.2510   32.2190   47.7350 C   0  0  0  0  0  0  0  0  0  0  0  0
   58.6180   33.1181   47.7645 H   0  0  0  0  0  0  0  0  0  0  0  0
   59.2017   31.6827   48.6942 H   0  0  0  0  0  0  0  0  0  0  0  0
   60.6890   32.6320   47.4840 C   0  0  0  0  0  0  0  0  0  0  0  0
   61.7210   31.8410   48.0250 C   0  0  0  0  0  0  0  0  0  0  0  0
   61.4706   30.9147   48.5629 H   0  0  0  0  0  0  0  0  0  0  0  0
   63.0570   32.2180   47.8870 C   0  0  0  0  0  0  0  0  0  0  0  0
   63.8513   31.5931   48.3213 H   0  0  0  0  0  0  0  0  0  0  0  0
   63.3870   33.3830   47.2010 C   0  0  0  0  0  0  0  0  0  0  0  0
   64.4401   33.6881   47.1118 H   0  0  0  0  0  0  0  0  0  0  0  0
   62.3840   34.1650   46.6260 C   0  0  0  0  0  0  0  0  0  0  0  0
   62.6527   35.0838   46.0842 H   0  0  0  0  0  0  0  0  0  0  0  0
   61.0330   33.7890   46.7330 C   0  0  0  0  0  0  0  0  0  0  0  0
   60.0260   34.6180   46.0370 C   0  0  0  0  0  0  0  0  0  0  0  0
   59.8930   35.8310   46.3510 O   0  0  0  0  0  0  0  0  0  0  0  0
   59.2450   34.0790   44.9700 N   0  0  0  0  0  0  0  0  0  0  0  0
   59.4090   33.1070   44.6260 H   0  0  0  0  0  0  0  0  0  0  0  0
   58.5280   34.6690   44.4930 H   0  0  0  0  0  0  0  0  0  0  0  0
  1  2  1  0
  2  3  1  0
  2  4  2  0
  4  5  1  0
  5  6  2  0
  6  7  1  0
  6  8  1  0
  8  9  2  0
  9 10  1  0
  9 11  1  0
 11 12  1  0
 12 13  2  0
 12 14  1  0
 14 15  1  0
 15 16  2  0
  5 17  1  0
 17 18  1  0
 18 19  1  0
 18 20  1  0
 18 21  1  0
 17 22  2  0
 22 23  1  0
 23 24  1  0
 24 25  1  0
 24 26  1  0
 24 27  1  0
 27 28  2  0
 28 29  1  0
 28 30  1  0
 30 31  1  0
 30 32  2  0
 32 33  1  0
 32 34  1  0
 34 35  1  0
 34 36  2  0
 36 37  1  0
 37 38  2  0
 37 39  1  0
 39 40  1  0
 39 41  1  0
 23  4  1  0
 36 27  1  0
 15  8  1  0
M  CHG  3  10  -1  11  -1  14  -1
M  END
>  <UniqueID>  (30) 
29

>  <SMILES>  (30) 
C=c1/c(=C/c2c([O-])[n-]c(=O)[n-]c2=O)c(C)nn1Cc1ccccc1C(N)=O

>  <Energy>  (30) 
93.96637896910896

>  <Genealogy>  (30) 
C=c1c(=Cc2c([O-])[n-]c(=O)[n-]c2=O)c(C)nn1Cc1ccccc1C(N)=O (protonated)
C=c1/c(=C/c2c([O-])[n-]c(=O)[n-]c2=O)c(C)nn1Cc1ccccc1C(N)=O (cis-trans isomerization)
C=c1/c(=C/c2c([O-])[n-]c(=O)[n-]c2=O)c(C)nn1Cc1ccccc1C(N)=O (3D coordinates assigned)
C=c1/c(=C/c2c([O-])[n-]c(=O)[n-]c2=O)c(C)nn1Cc1ccccc1C(N)=O (optimized conformer: 93.96637896910896 kcal/mol)

>  <smiles>  (30) 
C=c1c(=Cc2c(O)[nH]c(=O)[nH]c2=O)c(C)nn1Cc1ccccc1C(N)=O

>  <score_type>  (30) 
oracle

>  <origin>  (30) 
adg

>  <m_score__min__energy>  (30) 
-16.109999999999999

>  <m_primary>  (30) 
energy

$$$$
30:0
     RDKit          3D

 58 61  0  0  0  0  0  0  0  0999 V2000
   60.7402   33.3675   48.1320 H   0  0  0  0  0  0  0  0  0  0  0  0
   59.8340   32.9720   47.6500 C   0  0  0  0  0  0  0  0  0  0  0  0
   58.9390   33.8530   47.1800 C   0  0  0  0  0  0  0  0  0  0  0  0
   59.1060   34.9178   47.3998 H   0  0  0  0  0  0  0  0  0  0  0  0
   57.7220   33.4880   46.3730 C   0  0  0  0  0  0  0  0  0  0  0  0
   57.4048   32.4690   46.6396 H   0  0  0  0  0  0  0  0  0  0  0  0
   56.9216   34.2088   46.5962 H   0  0  0  0  0  0  0  0  0  0  0  0
   58.0860   33.5530   44.5870 S   0  0  0  0  0  0  0  0  0  0  0  0
   57.4500   31.9140   44.2330 C   0  0  0  0  0  0  0  0  0  0  0  0
   57.2280   31.0360   45.2490 N   0  0  0  0  0  0  0  0  0  0  0  0
   56.7520   29.7850   45.0160 C   0  0  0  0  0  0  0  0  0  0  0  0
   56.5853   29.0955   45.8567 H   0  0  0  0  0  0  0  0  0  0  0  0
   56.4740   29.3730   43.7110 C   0  0  0  0  0  0  0  0  0  0  0  0
   56.0930   28.3594   43.5173 H   0  0  0  0  0  0  0  0  0  0  0  0
   56.6850   30.2620   42.6540 C   0  0  0  0  0  0  0  0  0  0  0  0
   56.4677   29.9531   41.6209 H   0  0  0  0  0  0  0  0  0  0  0  0
   57.1720   31.5420   42.9140 C   0  0  0  0  0  0  0  0  0  0  0  0
   57.3359   32.2521   42.0901 H   0  0  0  0  0  0  0  0  0  0  0  0
   59.6830   31.5080   47.5630 C   0  0  0  0  0  0  0  0  0  0  0  0
   59.1420   30.7960   48.6440 C   0  0  0  0  0  0  0  0  0  0  0  0
   58.7969   31.3359   49.5381 H   0  0  0  0  0  0  0  0  0  0  0  0
   59.0400   29.4040   48.5890 C   0  0  0  0  0  0  0  0  0  0  0  0
   58.6368   28.8500   49.4495 H   0  0  0  0  0  0  0  0  0  0  0  0
   59.4500   28.7090   47.4400 C   0  0  0  0  0  0  0  0  0  0  0  0
   59.4160   27.2380   47.4020 C   0  0  0  0  0  0  0  0  0  0  0  0
   60.4960   26.5960   47.4890 O   0  0  0  0  0  0  0  0  0  0  0  0
   58.1800   26.5180   47.3240 N   0  0  0  0  0  0  0  0  0  0  0  0
   57.4830   26.2350   46.0760 C   0  0  0  0  0  0  0  0  0  0  0  0
   57.9626   25.3810   45.5753 H   0  0  0  0  0  0  0  0  0  0  0  0
   57.5299   27.1203   45.4249 H   0  0  0  0  0  0  0  0  0  0  0  0
   56.0560   25.9060   46.3580 C   0  0  0  0  0  0  0  0  0  0  0  0
   55.1450   26.6990   45.9930 O   0  0  0  0  0  0  0  0  0  0  0  0
   55.7320   24.6790   47.0180 N   0  0  0  0  0  0  0  0  0  0  0  0
   56.7100   23.6390   47.3340 C   0  0  2  0  0  0  0  0  0  0  0  0
   57.6239   24.1066   47.7292 H   0  0  0  0  0  0  0  0  0  0  0  0
   57.0530   22.8630   46.0850 C   0  0  0  0  0  0  0  0  0  0  0  0
   58.2530   23.0890   45.3900 C   0  0  0  0  0  0  0  0  0  0  0  0
   58.9837   23.8164   45.7734 H   0  0  0  0  0  0  0  0  0  0  0  0
   58.5160   22.3870   44.2100 C   0  0  0  0  0  0  0  0  0  0  0  0
   59.4571   22.5600   43.6673 H   0  0  0  0  0  0  0  0  0  0  0  0
   57.5860   21.4650   43.7170 C   0  0  0  0  0  0  0  0  0  0  0  0
   57.7964   20.9180   42.7861 H   0  0  0  0  0  0  0  0  0  0  0  0
   56.3890   21.2370   44.4050 C   0  0  0  0  0  0  0  0  0  0  0  0
   55.6564   20.5171   44.0112 H   0  0  0  0  0  0  0  0  0  0  0  0
   56.1240   21.9270   45.5970 C   0  0  0  0  0  0  0  0  0  0  0  0
   54.8240   21.7400   46.3360 C   0  0  0  0  0  0  0  0  0  0  0  0
   54.3639   20.7930   46.0173 H   0  0  0  0  0  0  0  0  0  0  0  0
   54.1668   22.5906   46.1023 H   0  0  0  0  0  0  0  0  0  0  0  0
   55.0460   21.7020   47.8610 C   0  0  0  0  0  0  0  0  0  0  0  0
   55.3508   20.6814   48.1358 H   0  0  0  0  0  0  0  0  0  0  0  0
   54.0944   22.0124   48.3172 H   0  0  0  0  0  0  0  0  0  0  0  0
   56.1230   22.6860   48.3940 C   0  0  0  0  0  0  0  0  0  0  0  0
   56.9483   22.0939   48.8162 H   0  0  0  0  0  0  0  0  0  0  0  0
   55.6202   23.3221   49.1373 H   0  0  0  0  0  0  0  0  0  0  0  0
   59.9330   29.4260   46.3360 C   0  0  0  0  0  0  0  0  0  0  0  0
   60.2242   28.8910   45.4200 H   0  0  0  0  0  0  0  0  0  0  0  0
   60.0460   30.8190   46.3950 C   0  0  0  0  0  0  0  0  0  0  0  0
   60.4204   31.3762   45.5236 H   0  0  0  0  0  0  0  0  0  0  0  0
  1  2  1  0
  2  3  2  0
  3  4  1  0
  3  5  1  0
  5  6  1  0
  5  7  1  0
  5  8  1  0
  8  9  1  0
  9 10  2  0
 10 11  1  0
 11 12  1  0
 11 13  2  0
 13 14  1  0
 13 15  1  0
 15 16  1  0
 15 17  2  0
 17 18  1  0
  2 19  1  0
 19 20  2  0
 20 21  1  0
 20 22  1  0
 22 23  1  0
 22 24  2  0
 24 25  1  0
 25 26  2  0
 25 27  1  0
 27 28  1  0
 28 29  1  0
 28 30  1  0
 28 31  1  0
 31 32  2  0
 31 33  1  0
 33 34  1  0
 34 35  1  1
 34 36  1  0
 36 37  2  0
 37 38  1  0
 37 39  1  0
 39 40  1  0
 39 41  2  0
 41 42  1  0
 41 43  1  0
 43 44  1  0
 43 45  2  0
 45 46  1  0
 46 47  1  0
 46 48  1  0
 46 49  1  0
 49 50  1  0
 49 51  1  0
 49 52  1  0
 52 53  1  0
 52 54  1  0
 24 55  1  0
 55 56  1  0
 55 57  2  0
 57 58  1  0
 17  9  1  0
 57 19  1  0
 52 34  1  0
 45 36  1  0
M  CHG  2  27  -1  33  -1
M  END
>  <UniqueID>  (31) 
30

>  <SMILES>  (31) 
O=C(C[N-]C(=O)c1ccc(/C=C\CSc2ccccn2)cc1)[N-][C@H]1CCCc2ccccc21

>  <Energy>  (31) 
66.56984526264343

>  <Genealogy>  (31) 
O=C(C[N-]C(=O)c1ccc(C=CCSc2ccccn2)cc1)[N-]C1CCCc2ccccc21 (protonated)
O=C(C[N-]C(=O)c1ccc(C=CCSc2ccccn2)cc1)[N-][C@H]1CCCc2ccccc21 (chirality)
O=C(C[N-]C(=O)c1ccc(/C=C\CSc2ccccn2)cc1)[N-][C@H]1CCCc2ccccc21 (cis-trans isomerization)
O=C(C[N-]C(=O)c1ccc(/C=C\CSc2ccccn2)cc1)[N-][C@H]1CCCc2ccccc21 (3D coordinates assigned)
O=C(C[N-]C(=O)c1ccc(/C=C\CSc2ccccn2)cc1)[N-][C@H]1CCCc2ccccc21 (nonaromatic ring conformer: 66.56984526264343 kcal/mol)

>  <smiles>  (31) 
O=C(CNC(=O)c1ccc(C=CCSc2ccccn2)cc1)NC1CCCc2ccccc21

>  <score_type>  (31) 
oracle

>  <origin>  (31) 
adg

>  <m_score__min__energy>  (31) 
-12.81

>  <m_primary>  (31) 
energy

$$$$
31:0
     RDKit          3D

 59 62  0  0  0  0  0  0  0  0999 V2000
   57.4100   32.0370   41.5950 C   0  0  0  0  0  0  0  0  0  0  0  0
   58.2070   32.4190   42.8490 C   0  0  0  0  0  0  0  0  0  0  0  0
   57.4090   32.2620   44.0800 N   0  0  0  0  0  0  0  0  0  0  0  0
   57.0440   33.4410   44.8840 C   0  0  0  0  0  0  0  0  0  0  0  0
   57.9750   33.6180   46.0590 C   0  0  0  0  0  0  0  0  0  0  0  0
   59.0040   34.5700   46.0130 C   0  0  0  0  0  0  0  0  0  0  0  0
   59.8850   34.7120   47.0900 C   0  0  0  0  0  0  0  0  0  0  0  0
   59.7470   33.9060   48.2320 C   0  0  0  0  0  0  0  0  0  0  0  0
   60.6770   34.0470   49.3720 C   0  0  0  0  0  0  0  0  0  0  0  0
   60.2140   34.0520   50.5460 O   0  0  0  0  0  0  0  0  0  0  0  0
   62.1010   34.1360   49.1700 N   0  0  0  0  0  0  0  0  0  0  0  0
   62.7510   33.2530   48.1870 C   0  0  0  0  0  0  0  0  0  0  0  0
   64.2410   33.0720   48.4990 C   0  0  0  0  0  0  0  0  0  0  0  0
   64.4210   32.9090   49.9490 N   0  0  0  0  0  0  0  0  0  0  0  0
   65.0010   31.7070   50.5000 C   0  0  0  0  0  0  0  0  0  0  0  0
   64.1890   30.7360   51.1100 C   0  0  0  0  0  0  0  0  0  0  0  0
   64.7730   29.5960   51.6650 C   0  0  0  0  0  0  0  0  0  0  0  0
   66.1570   29.4330   51.6150 C   0  0  0  0  0  0  0  0  0  0  0  0
   66.9400   30.4190   51.0110 C   0  0  0  0  0  0  0  0  0  0  0  0
   66.3560   31.5270   50.4760 N   0  0  0  0  0  0  0  0  0  0  0  0
   63.8740   33.9270   50.8600 C   0  0  0  0  0  0  0  0  0  0  0  0
   62.9350   34.8890   50.1190 C   0  0  0  0  0  0  0  0  0  0  0  0
   58.6930   32.9800   48.2920 C   0  0  0  0  0  0  0  0  0  0  0  0
   57.8180   32.8350   47.2130 C   0  0  0  0  0  0  0  0  0  0  0  0
   57.2270   30.9470   44.6460 C   0  0  0  0  0  0  0  0  0  0  0  0
   56.0630   30.5160   44.8630 O   0  0  0  0  0  0  0  0  0  0  0  0
   58.3710   30.0810   44.9920 C   0  0  0  0  0  0  0  0  0  0  0  0
   59.0500   30.0570   46.1970 C   0  0  0  0  0  0  0  0  0  0  0  0
   60.0490   29.1100   46.0610 C   0  0  0  0  0  0  0  0  0  0  0  0
   59.9440   28.6070   44.7820 C   0  0  0  0  0  0  0  0  0  0  0  0
   58.9270   29.2050   44.1340 N   0  0  0  0  0  0  0  0  0  0  0  0
   56.4551   31.5793   41.8928 H   0  0  0  0  0  0  0  0  0  0  0  0
   57.2135   32.9388   40.9966 H   0  0  0  0  0  0  0  0  0  0  0  0
   57.9899   31.3190   40.9966 H   0  0  0  0  0  0  0  0  0  0  0  0
   59.0946   31.7727   42.9163 H   0  0  0  0  0  0  0  0  0  0  0  0
   58.4917   33.4779   42.7613 H   0  0  0  0  0  0  0  0  0  0  0  0
   57.0959   34.3373   44.2484 H   0  0  0  0  0  0  0  0  0  0  0  0
   56.0245   33.2938   45.2700 H   0  0  0  0  0  0  0  0  0  0  0  0
   59.1188   35.2086   45.1248 H   0  0  0  0  0  0  0  0  0  0  0  0
   60.6907   35.4593   47.0424 H   0  0  0  0  0  0  0  0  0  0  0  0
   62.2586   32.2696   48.2082 H   0  0  0  0  0  0  0  0  0  0  0  0
   62.6584   33.7137   47.1924 H   0  0  0  0  0  0  0  0  0  0  0  0
   64.6186   32.1788   47.9798 H   0  0  0  0  0  0  0  0  0  0  0  0
   64.7977   33.9571   48.1573 H   0  0  0  0  0  0  0  0  0  0  0  0
   63.0984   30.8735   51.1500 H   0  0  0  0  0  0  0  0  0  0  0  0
   64.1437   28.8290   52.1401 H   0  0  0  0  0  0  0  0  0  0  0  0
   66.6270   28.5371   52.0468 H   0  0  0  0  0  0  0  0  0  0  0  0
   68.0327   30.3003   50.9672 H   0  0  0  0  0  0  0  0  0  0  0  0
   66.9710   32.2400   50.0260 H   0  0  0  0  0  0  0  0  0  0  0  0
   63.3133   33.4258   51.6628 H   0  0  0  0  0  0  0  0  0  0  0  0
   64.7106   34.5081   51.2751 H   0  0  0  0  0  0  0  0  0  0  0  0
   62.2887   35.4018   50.8466 H   0  0  0  0  0  0  0  0  0  0  0  0
   63.5334   35.6303   49.5691 H   0  0  0  0  0  0  0  0  0  0  0  0
   58.5557   32.3654   49.1939 H   0  0  0  0  0  0  0  0  0  0  0  0
   56.9999   32.1017   47.2682 H   0  0  0  0  0  0  0  0  0  0  0  0
   58.8378   30.6690   47.0861 H   0  0  0  0  0  0  0  0  0  0  0  0
   60.7840   28.8157   46.8247 H   0  0  0  0  0  0  0  0  0  0  0  0
   60.5955   27.8310   44.3538 H   0  0  0  0  0  0  0  0  0  0  0  0
   58.6270   29.0110   43.1530 H   0  0  0  0  0  0  0  0  0  0  0  0
  1  2  1  0
  2  3  1  0
  3  4  1  0
  4  5  1  0
  5  6  2  0
  6  7  1  0
  7  8  2  0
  8  9  1  0
  9 10  2  0
  9 11  1  0
 11 12  1  0
 12 13  1  0
 13 14  1  0
 14 15  1  0
 15 16  2  0
 16 17  1  0
 17 18  2  0
 18 19  1  0
 19 20  2  0
 14 21  1  0
 21 22  1  0
  8 23  1  0
 23 24  2  0
  3 25  1  0
 25 26  2  0
 25 27  1  0
 27 28  2  0
 28 29  1  0
 29 30  2  0
 30 31  1  0
 24  5  1  0
 31 27  1  0
 22 11  1  0
 20 15  1  0
  1 32  1  0
  1 33  1  0
  1 34  1  0
  2 35  1  0
  2 36  1  0
  4 37  1  0
  4 38  1  0
  6 39  1  0
  7 40  1  0
 12 41  1  0
 12 42  1  0
 13 43  1  0
 13 44  1  0
 16 45  1  0
 17 46  1  0
 18 47  1  0
 19 48  1  0
 20 49  1  0
 21 50  1  0
 21 51  1  0
 22 52  1  0
 22 53  1  0
 23 54  1  0
 24 55  1  0
 28 56  1  0
 29 57  1  0
 30 58  1  0
 31 59  1  0
M  CHG  1  20   1
M  END
>  <UniqueID>  (32) 
31

>  <SMILES>  (32) 
CCN(Cc1ccc(C(=O)N2CCN(c3cccc[nH+]3)CC2)cc1)C(=O)c1ccc[nH]1

>  <Energy>  (32) 
99.02972979272295

>  <Genealogy>  (32) 
CCN(Cc1ccc(C(=O)N2CCN(c3cccc[nH+]3)CC2)cc1)C(=O)c1ccc[nH]1 (protonated)
CCN(Cc1ccc(C(=O)N2CCN(c3cccc[nH+]3)CC2)cc1)C(=O)c1ccc[nH]1 (3D coordinates assigned)
CCN(Cc1ccc(C(=O)N2CCN(c3cccc[nH+]3)CC2)cc1)C(=O)c1ccc[nH]1 (nonaromatic ring conformer: 99.02972979272295 kcal/mol)

>  <smiles>  (32) 
CCN(Cc1ccc(C(=O)N2CCN(c3ccccn3)CC2)cc1)C(=O)c1ccc[nH]1

>  <score_type>  (32) 
oracle

>  <origin>  (32) 
adg

>  <m_score__min__energy>  (32) 
-8.0199999999999996

>  <m_primary>  (32) 
energy

$$$$
32:0
     RDKit          3D

 52 55  0  0  0  0  0  0  0  0999 V2000
   64.0050   31.6220   47.6560 H   0  0  0  0  0  0  0  0  0  0  0  0
   63.1060   31.5490   47.1940 O   0  0  0  0  0  0  0  0  0  0  0  0
   61.9130   31.6330   47.9090 C   0  0  0  0  0  0  0  0  0  0  0  0
   60.9740   30.5950   47.8560 C   0  0  0  0  0  0  0  0  0  0  0  0
   61.1827   29.6957   47.2579 H   0  0  0  0  0  0  0  0  0  0  0  0
   59.7720   30.7000   48.5620 C   0  0  0  0  0  0  0  0  0  0  0  0
   59.0485   29.8718   48.5363 H   0  0  0  0  0  0  0  0  0  0  0  0
   59.4830   31.8570   49.3040 C   0  0  0  0  0  0  0  0  0  0  0  0
   58.1930   31.9860   50.0760 C   0  0  0  0  0  0  0  0  0  0  0  0
   57.4284   32.4212   49.4157 H   0  0  0  0  0  0  0  0  0  0  0  0
   58.3870   32.6287   50.9474 H   0  0  0  0  0  0  0  0  0  0  0  0
   57.7110   30.7080   50.5680 N   0  0  0  0  0  0  0  0  0  0  0  0
   58.0610   30.1280   51.6710 C   0  0  0  0  0  0  0  0  0  0  0  0
   58.9879   29.5357   51.6637 H   0  0  0  0  0  0  0  0  0  0  0  0
   57.2910   30.2050   52.9650 C   0  0  0  0  0  0  0  0  0  0  0  0
   57.6324   31.0846   53.5305 H   0  0  0  0  0  0  0  0  0  0  0  0
   57.4742   29.2774   53.5271 H   0  0  0  0  0  0  0  0  0  0  0  0
   55.8120   30.3230   52.7290 C   0  0  0  0  0  0  0  0  0  0  0  0
   54.7910   29.8100   53.5400 C   0  0  0  0  0  0  0  0  0  0  0  0
   54.9370   29.0900   54.8160 C   0  0  0  0  0  0  0  0  0  0  0  0
   54.0470   29.2260   55.6960 O   0  0  0  0  0  0  0  0  0  0  0  0
   56.0880   28.2880   55.1090 N   0  0  0  0  0  0  0  0  0  0  0  0
   56.3370   26.9480   54.6540 C   0  0  0  0  0  0  0  0  0  0  0  0
   55.3140   25.9830   54.6640 C   0  0  0  0  0  0  0  0  0  0  0  0
   54.3004   26.2666   54.9837 H   0  0  0  0  0  0  0  0  0  0  0  0
   55.5730   24.6690   54.2720 C   0  0  0  0  0  0  0  0  0  0  0  0
   54.7662   23.9215   54.2896 H   0  0  0  0  0  0  0  0  0  0  0  0
   56.8530   24.3020   53.8580 C   0  0  0  0  0  0  0  0  0  0  0  0
   57.0492   23.2719   53.5258 H   0  0  0  0  0  0  0  0  0  0  0  0
   57.8850   25.2410   53.8650 C   0  0  0  0  0  0  0  0  0  0  0  0
   58.8920   24.9476   53.5336 H   0  0  0  0  0  0  0  0  0  0  0  0
   57.6480   26.5580   54.2920 C   0  0  0  0  0  0  0  0  0  0  0  0
   58.7900   27.5390   54.2890 C   0  0  0  0  0  0  0  0  0  0  0  0
   59.0697   27.7793   55.3254 H   0  0  0  0  0  0  0  0  0  0  0  0
   59.6526   27.0960   53.7697 H   0  0  0  0  0  0  0  0  0  0  0  0
   58.4821   28.4585   53.7697 H   0  0  0  0  0  0  0  0  0  0  0  0
   53.6200   30.3380   53.0310 C   0  0  0  0  0  0  0  0  0  0  0  0
   52.2970   30.2230   53.4620 C   0  0  0  0  0  0  0  0  0  0  0  0
   52.0385   29.6240   54.3476 H   0  0  0  0  0  0  0  0  0  0  0  0
   51.3050   30.8980   52.7270 C   0  0  0  0  0  0  0  0  0  0  0  0
   50.2507   30.8173   53.0301 H   0  0  0  0  0  0  0  0  0  0  0  0
   51.6540   31.6790   51.6020 C   0  0  0  0  0  0  0  0  0  0  0  0
   50.6660   32.3400   50.8850 O   0  0  0  0  0  0  0  0  0  0  0  0
   53.0000   31.7930   51.2060 C   0  0  0  0  0  0  0  0  0  0  0  0
   53.2862   32.4065   50.3390 H   0  0  0  0  0  0  0  0  0  0  0  0
   53.9590   31.1040   51.9470 C   0  0  0  0  0  0  0  0  0  0  0  0
   55.2890   31.1170   51.7640 N   0  0  0  0  0  0  0  0  0  0  0  0
   55.8140   31.6800   51.0590 H   0  0  0  0  0  0  0  0  0  0  0  0
   60.4500   32.8730   49.3910 C   0  0  0  0  0  0  0  0  0  0  0  0
   60.2592   33.7579   50.0160 H   0  0  0  0  0  0  0  0  0  0  0  0
   61.6540   32.7650   48.6870 C   0  0  0  0  0  0  0  0  0  0  0  0
   62.3985   33.5726   48.7458 H   0  0  0  0  0  0  0  0  0  0  0  0
  1  2  1  0
  2  3  1  0
  3  4  2  0
  4  5  1  0
  4  6  1  0
  6  7  1  0
  6  8  2  0
  8  9  1  0
  9 10  1  0
  9 11  1  0
  9 12  1  0
 12 13  2  0
 13 14  1  0
 13 15  1  0
 15 16  1  0
 15 17  1  0
 15 18  1  0
 18 19  2  0
 19 20  1  0
 20 21  2  0
 20 22  1  0
 22 23  1  0
 23 24  2  0
 24 25  1  0
 24 26  1  0
 26 27  1  0
 26 28  2  0
 28 29  1  0
 28 30  1  0
 30 31  1  0
 30 32  2  0
 32 33  1  0
 33 34  1  0
 33 35  1  0
 33 36  1  0
 19 37  1  0
 37 38  2  0
 38 39  1  0
 38 40  1  0
 40 41  1  0
 40 42  2  0
 42 43  1  0
 42 44  1  0
 44 45  1  0
 44 46  2  0
 46 47  1  0
 47 48  1  0
  8 49  1  0
 49 50  1  0
 49 51  2  0
 51 52  1  0
 51  3  1  0
 47 18  1  0
 32 23  1  0
 46 37  1  0
M  CHG  2  22  -1  43  -1
M  END
>  <UniqueID>  (33) 
32

>  <SMILES>  (33) 
Cc1ccccc1[N-]C(=O)c1c(C/C=N\Cc2ccc(O)cc2)[nH]c2cc([O-])ccc12

>  <Energy>  (33) 
93.41685190216823

>  <Genealogy>  (33) 
Cc1ccccc1[N-]C(=O)c1c(CC=NCc2ccc(O)cc2)[nH]c2cc([O-])ccc12 (protonated)
Cc1ccccc1[N-]C(=O)c1c(C/C=N\Cc2ccc(O)cc2)[nH]c2cc([O-])ccc12 (cis-trans isomerization)
Cc1ccccc1[N-]C(=O)c1c(C/C=N\Cc2ccc(O)cc2)[nH]c2cc([O-])ccc12 (3D coordinates assigned)
Cc1ccccc1[N-]C(=O)c1c(C/C=N\Cc2ccc(O)cc2)[nH]c2cc([O-])ccc12 (optimized conformer: 93.41685190216823 kcal/mol)

>  <smiles>  (33) 
Cc1ccccc1NC(=O)c1c(CC=NCc2ccc(O)cc2)[nH]c2cc(O)ccc12

>  <score_type>  (33) 
oracle

>  <origin>  (33) 
adg

>  <m_score__min__energy>  (33) 
-11.42

>  <m_primary>  (33) 
energy

$$$$
33:0
     RDKit          3D

 54 57  0  0  0  0  0  0  0  0999 V2000
   60.2880   29.0350   44.6660 C   0  0  0  0  0  0  0  0  0  0  0  0
   58.8140   28.7550   44.8180 C   0  0  0  0  0  0  0  0  0  0  0  0
   58.3170   27.6520   45.5290 C   0  0  0  0  0  0  0  0  0  0  0  0
   59.0980   26.6040   46.2080 C   0  0  0  0  0  0  0  0  0  0  0  0
   60.3430   26.5430   46.0340 O   0  0  0  0  0  0  0  0  0  0  0  0
   58.4560   25.5980   47.0020 N   0  0  0  0  0  0  0  0  0  0  0  0
   57.3970   24.7410   46.5570 C   0  0  0  0  0  0  0  0  0  0  0  0
   56.4260   24.2440   47.4450 C   0  0  0  0  0  0  0  0  0  0  0  0
   55.4040   23.4180   46.9790 C   0  0  0  0  0  0  0  0  0  0  0  0
   55.3470   23.0670   45.6280 C   0  0  0  0  0  0  0  0  0  0  0  0
   54.3430   22.2690   45.1840 F   0  0  0  0  0  0  0  0  0  0  0  0
   56.3280   23.5290   44.7440 C   0  0  0  0  0  0  0  0  0  0  0  0
   56.2780   23.0810   43.0490 Cl  0  0  0  0  0  0  0  0  0  0  0  0
   57.3540   24.3580   45.2120 C   0  0  0  0  0  0  0  0  0  0  0  0
   56.6400   27.7780   45.6300 S   0  0  0  0  0  0  0  0  0  0  0  0
   56.6020   29.2240   44.7880 C   0  0  0  0  0  0  0  0  0  0  0  0
   55.5440   29.8650   44.5470 O   0  0  0  0  0  0  0  0  0  0  0  0
   57.8410   29.6420   44.4240 N   0  0  0  0  0  0  0  0  0  0  0  0
   58.0990   30.9570   43.8160 C   0  0  0  0  0  0  0  0  0  0  0  0
   58.2450   32.0120   44.8820 C   0  0  0  0  0  0  0  0  0  0  0  0
   57.3670   33.1050   44.9290 C   0  0  0  0  0  0  0  0  0  0  0  0
   57.5250   34.0930   45.9030 C   0  0  0  0  0  0  0  0  0  0  0  0
   58.5450   33.9880   46.8500 C   0  0  0  0  0  0  0  0  0  0  0  0
   59.4130   32.8820   46.8420 C   0  0  0  0  0  0  0  0  0  0  0  0
   60.5100   32.7550   47.8830 C   0  0  0  0  0  0  0  0  0  0  0  0
   61.8270   32.3120   47.3500 N   0  0  0  0  0  0  0  0  0  0  0  0
   62.6970   31.6920   48.3600 C   0  0  0  0  0  0  0  0  0  0  0  0
   63.7090   32.7360   48.8080 C   0  0  0  0  0  0  0  0  0  0  0  0
   63.6590   33.8380   47.7620 C   0  0  0  0  0  0  0  0  0  0  0  0
   62.6170   33.3940   46.7430 C   0  0  0  0  0  0  0  0  0  0  0  0
   59.2710   31.9110   45.8360 C   0  0  0  0  0  0  0  0  0  0  0  0
   60.7491   29.1226   45.6609 H   0  0  0  0  0  0  0  0  0  0  0  0
   60.7627   28.2110   44.1131 H   0  0  0  0  0  0  0  0  0  0  0  0
   60.4274   29.9757   44.1131 H   0  0  0  0  0  0  0  0  0  0  0  0
   56.4731   24.5082   48.5118 H   0  0  0  0  0  0  0  0  0  0  0  0
   54.6411   23.0419   47.6765 H   0  0  0  0  0  0  0  0  0  0  0  0
   58.1313   24.7106   44.5181 H   0  0  0  0  0  0  0  0  0  0  0  0
   59.0263   30.9075   43.2263 H   0  0  0  0  0  0  0  0  0  0  0  0
   57.2508   31.2216   43.1675 H   0  0  0  0  0  0  0  0  0  0  0  0
   56.5509   33.1841   44.1957 H   0  0  0  0  0  0  0  0  0  0  0  0
   56.8438   34.9564   45.9240 H   0  0  0  0  0  0  0  0  0  0  0  0
   58.6705   34.7757   47.6075 H   0  0  0  0  0  0  0  0  0  0  0  0
   60.6461   33.7375   48.3585 H   0  0  0  0  0  0  0  0  0  0  0  0
   60.1817   31.9749   48.5856 H   0  0  0  0  0  0  0  0  0  0  0  0
   61.6240   31.5970   46.6100 H   0  0  0  0  0  0  0  0  0  0  0  0
   62.0954   31.3613   49.2195 H   0  0  0  0  0  0  0  0  0  0  0  0
   63.2109   30.8158   47.9380 H   0  0  0  0  0  0  0  0  0  0  0  0
   63.4366   33.1338   49.7967 H   0  0  0  0  0  0  0  0  0  0  0  0
   64.7186   32.3086   48.8974 H   0  0  0  0  0  0  0  0  0  0  0  0
   63.3620   34.7913   48.2235 H   0  0  0  0  0  0  0  0  0  0  0  0
   64.6416   33.9977   47.2939 H   0  0  0  0  0  0  0  0  0  0  0  0
   61.9603   34.2385   46.4871 H   0  0  0  0  0  0  0  0  0  0  0  0
   63.1054   33.0430   45.8220 H   0  0  0  0  0  0  0  0  0  0  0  0
   59.9706   31.0631   45.7953 H   0  0  0  0  0  0  0  0  0  0  0  0
  1  2  1  0
  2  3  2  0
  3  4  1  0
  4  5  2  0
  4  6  1  0
  6  7  1  0
  7  8  2  0
  8  9  1  0
  9 10  2  0
 10 11  1  0
 10 12  1  0
 12 13  1  0
 12 14  2  0
  3 15  1  0
 15 16  1  0
 16 17  2  0
 16 18  1  0
 18 19  1  0
 19 20  1  0
 20 21  2  0
 21 22  1  0
 22 23  2  0
 23 24  1  0
 24 25  1  0
 25 26  1  0
 26 27  1  0
 27 28  1  0
 28 29  1  0
 29 30  1  0
 24 31  2  0
 18  2  1  0
 31 20  1  0
 14  7  1  0
 30 26  1  0
  1 32  1  0
  1 33  1  0
  1 34  1  0
  8 35  1  0
  9 36  1  0
 14 37  1  0
 19 38  1  0
 19 39  1  0
 21 40  1  0
 22 41  1  0
 23 42  1  0
 25 43  1  0
 25 44  1  0
 26 45  1  0
 27 46  1  0
 27 47  1  0
 28 48  1  0
 28 49  1  0
 29 50  1  0
 29 51  1  0
 30 52  1  0
 30 53  1  0
 31 54  1  0
M  CHG  2   6  -1  26   1
M  END
>  <UniqueID>  (34) 
33

>  <SMILES>  (34) 
Cc1c(C(=O)[N-]c2ccc(F)c(Cl)c2)sc(=O)n1Cc1cccc(C[NH+]2CCCC2)c1

>  <Energy>  (34) 
100.31398035608872

>  <Genealogy>  (34) 
Cc1c(C(=O)[N-]c2ccc(F)c(Cl)c2)sc(=O)n1Cc1cccc(C[NH+]2CCCC2)c1 (protonated)
Cc1c(C(=O)[N-]c2ccc(F)c(Cl)c2)sc(=O)n1Cc1cccc(C[NH+]2CCCC2)c1 (3D coordinates assigned)
Cc1c(C(=O)[N-]c2ccc(F)c(Cl)c2)sc(=O)n1Cc1cccc(C[NH+]2CCCC2)c1 (nonaromatic ring conformer: 100.31398035608872 kcal/mol)

>  <smiles>  (34) 
Cc1c(C(=O)Nc2ccc(F)c(Cl)c2)sc(=O)n1Cc1cccc(CN2CCCC2)c1

>  <score_type>  (34) 
oracle

>  <origin>  (34) 
adg

>  <m_score__min__energy>  (34) 
-9.2899999999999991

>  <m_primary>  (34) 
energy

$$$$
34:0
     RDKit          3D

 63 68  0  0  0  0  0  0  0  0999 V2000
   63.3270   33.3770   46.7910 N   0  0  0  0  0  0  0  0  0  0  0  0
   62.5970   32.5390   47.1170 C   0  0  0  0  0  0  0  0  0  0  0  0
   61.6930   31.4940   47.5240 C   0  0  0  0  0  0  0  0  0  0  0  0
   61.1080   30.7420   46.5550 N   0  0  0  0  0  0  0  0  0  0  0  0
   60.2510   29.7290   46.8390 C   0  0  0  0  0  0  0  0  0  0  0  0
   59.6840   28.9850   45.7980 C   0  0  0  0  0  0  0  0  0  0  0  0
   58.7990   27.9340   46.0780 C   0  0  0  0  0  0  0  0  0  0  0  0
   58.2360   27.0960   44.9620 C   0  0  0  0  0  0  0  0  0  0  0  0
   57.6780   25.8550   45.5050 N   0  0  0  0  0  0  0  0  0  0  0  0
   58.5390   24.6700   45.6970 C   0  0  0  0  0  0  0  0  0  0  0  0
   57.8880   23.3950   45.1180 C   0  0  0  0  0  0  0  0  0  0  0  0
   56.4610   23.2720   45.5770 C   0  0  0  0  0  0  0  0  0  0  0  0
   55.7370   22.0780   45.6620 C   0  0  0  0  0  0  0  0  0  0  0  0
   54.4120   22.2890   46.0300 C   0  0  0  0  0  0  0  0  0  0  0  0
   53.2000   21.0400   46.2430 S   0  0  0  0  0  0  0  0  0  0  0  0
   53.7340   19.5820   45.4890 N   0  0  0  0  0  0  0  0  0  0  0  0
   51.9070   21.4870   45.6210 O   0  0  0  0  0  0  0  0  0  0  0  0
   52.9830   20.7870   47.7090 O   0  0  0  0  0  0  0  0  0  0  0  0
   54.1270   23.9410   46.2280 S   0  0  0  0  0  0  0  0  0  0  0  0
   55.7000   24.3940   45.8520 C   0  0  0  0  0  0  0  0  0  0  0  0
   56.2680   25.7360   45.7800 C   0  0  0  0  0  0  0  0  0  0  0  0
   55.5410   26.7540   45.9340 O   0  0  0  0  0  0  0  0  0  0  0  0
   58.4990   27.6230   47.4130 C   0  0  0  0  0  0  0  0  0  0  0  0
   59.0570   28.3660   48.4570 C   0  0  0  0  0  0  0  0  0  0  0  0
   59.9390   29.4240   48.1790 C   0  0  0  0  0  0  0  0  0  0  0  0
   60.5280   30.1840   49.2040 C   0  0  0  0  0  0  0  0  0  0  0  0
   60.2400   29.9000   50.5370 O   0  0  0  0  0  0  0  0  0  0  0  0
   61.4130   31.2340   48.8860 C   0  0  0  0  0  0  0  0  0  0  0  0
   62.0620   32.0270   50.0070 C   0  0  0  0  0  0  0  0  0  0  0  0
   61.0210   32.5670   50.9710 C   0  0  0  0  0  0  0  0  0  0  0  0
   61.2340   32.4060   52.3530 C   0  0  0  0  0  0  0  0  0  0  0  0
   60.2810   32.8360   53.2780 C   0  0  0  0  0  0  0  0  0  0  0  0
   59.1040   33.4390   52.8400 C   0  0  0  0  0  0  0  0  0  0  0  0
   58.8830   33.6330   51.4770 C   0  0  0  0  0  0  0  0  0  0  0  0
   59.8390   33.2230   50.5310 C   0  0  0  0  0  0  0  0  0  0  0  0
   59.5790   33.5300   49.1060 C   0  0  0  0  0  0  0  0  0  0  0  0
   58.6050   32.8110   48.3910 C   0  0  0  0  0  0  0  0  0  0  0  0
   58.3420   33.1220   47.0530 C   0  0  0  0  0  0  0  0  0  0  0  0
   59.0420   34.1560   46.4240 C   0  0  0  0  0  0  0  0  0  0  0  0
   60.0040   34.8830   47.1320 C   0  0  0  0  0  0  0  0  0  0  0  0
   60.2680   34.5780   48.4710 C   0  0  0  0  0  0  0  0  0  0  0  0
   59.9340   29.2261   44.7543 H   0  0  0  0  0  0  0  0  0  0  0  0
   57.4429   27.6584   44.4476 H   0  0  0  0  0  0  0  0  0  0  0  0
   59.0390   26.8521   44.2508 H   0  0  0  0  0  0  0  0  0  0  0  0
   59.5004   24.8414   45.1908 H   0  0  0  0  0  0  0  0  0  0  0  0
   58.6849   24.5219   46.7772 H   0  0  0  0  0  0  0  0  0  0  0  0
   57.9110   23.4447   44.0194 H   0  0  0  0  0  0  0  0  0  0  0  0
   58.4504   22.5184   45.4720 H   0  0  0  0  0  0  0  0  0  0  0  0
   56.1664   21.0855   45.4608 H   0  0  0  0  0  0  0  0  0  0  0  0
   52.9520   19.2440   44.8860 H   0  0  0  0  0  0  0  0  0  0  0  0
   57.8195   26.7881   47.6396 H   0  0  0  0  0  0  0  0  0  0  0  0
   58.8050   28.1218   49.4995 H   0  0  0  0  0  0  0  0  0  0  0  0
   62.7540   31.3716   50.5562 H   0  0  0  0  0  0  0  0  0  0  0  0
   62.6019   32.8773   49.5650 H   0  0  0  0  0  0  0  0  0  0  0  0
   62.1627   31.9356   52.7085 H   0  0  0  0  0  0  0  0  0  0  0  0
   60.4597   32.6985   54.3546 H   0  0  0  0  0  0  0  0  0  0  0  0
   58.3479   33.7626   53.5705 H   0  0  0  0  0  0  0  0  0  0  0  0
   57.9520   34.1113   51.1387 H   0  0  0  0  0  0  0  0  0  0  0  0
   58.0481   32.0014   48.8854 H   0  0  0  0  0  0  0  0  0  0  0  0
   57.5839   32.5527   46.4952 H   0  0  0  0  0  0  0  0  0  0  0  0
   58.8357   34.3979   45.3709 H   0  0  0  0  0  0  0  0  0  0  0  0
   60.5538   35.6959   46.6351 H   0  0  0  0  0  0  0  0  0  0  0  0
   61.0167   35.1596   49.0288 H   0  0  0  0  0  0  0  0  0  0  0  0
  1  2  3  0
  2  3  1  0
  3  4  2  0
  4  5  1  0
  5  6  2  0
  6  7  1  0
  7  8  1  0
  8  9  1  0
  9 10  1  0
 10 11  1  0
 11 12  1  0
 12 13  1  0
 13 14  2  0
 14 15  1  0
 15 16  1  0
 15 17  2  0
 15 18  2  0
 14 19  1  0
 19 20  1  0
 20 21  1  0
 21 22  2  0
  7 23  2  0
 23 24  1  0
 24 25  2  0
 25 26  1  0
 26 27  1  0
 26 28  2  0
 28 29  1  0
 29 30  1  0
 30 31  2  0
 31 32  1  0
 32 33  2  0
 33 34  1  0
 34 35  2  0
 35 36  1  0
 36 37  2  0
 37 38  1  0
 38 39  2  0
 39 40  1  0
 40 41  2  0
 28  3  1  0
 35 30  1  0
 41 36  1  0
 25  5  1  0
 21  9  1  0
 20 12  2  0
  6 42  1  0
  8 43  1  0
  8 44  1  0
 10 45  1  0
 10 46  1  0
 11 47  1  0
 11 48  1  0
 13 49  1  0
 16 50  1  0
 23 51  1  0
 24 52  1  0
 29 53  1  0
 29 54  1  0
 31 55  1  0
 32 56  1  0
 33 57  1  0
 34 58  1  0
 37 59  1  0
 38 60  1  0
 39 61  1  0
 40 62  1  0
 41 63  1  0
M  CHG  2  16  -1  27  -1
M  END
>  <UniqueID>  (35) 
34

>  <SMILES>  (35) 
N#Cc1nc2cc(CN3CCc4cc(S([NH-])(=O)=O)sc4C3=O)ccc2c([O-])c1Cc1ccccc1-c1ccccc1

>  <Energy>  (35) 
110.15219559141023

>  <Genealogy>  (35) 
N#Cc1nc2cc(CN3CCc4cc(S([NH-])(=O)=O)sc4C3=O)ccc2c([O-])c1Cc1ccccc1-c1ccccc1 (protonated)
N#Cc1nc2cc(CN3CCc4cc(S([NH-])(=O)=O)sc4C3=O)ccc2c([O-])c1Cc1ccccc1-c1ccccc1 (3D coordinates assigned)
N#Cc1nc2cc(CN3CCc4cc(S([NH-])(=O)=O)sc4C3=O)ccc2c([O-])c1Cc1ccccc1-c1ccccc1 (nonaromatic ring conformer: 110.15219559141023 kcal/mol)

>  <smiles>  (35) 
N#Cc1nc2cc(CN3CCc4cc(S(N)(=O)=O)sc4C3=O)ccc2c(O)c1Cc1ccccc1-c1ccccc1

>  <score_type>  (35) 
oracle

>  <origin>  (35) 
adg

>  <m_score__min__energy>  (35) 
-13.16

>  <m_primary>  (35) 
energy

$$$$
35:0
     RDKit          3D

 47 50  0  0  0  0  0  0  0  0999 V2000
   57.4810   31.8090   42.3470 C   0  0  0  0  0  0  0  0  0  0  0  0
   57.4890   30.9210   43.5510 C   0  0  0  0  0  0  0  0  0  0  0  0
   56.5850   29.8750   43.7260 C   0  0  0  0  0  0  0  0  0  0  0  0
   56.8990   29.1610   45.2190 S   0  0  0  0  0  0  0  0  0  0  0  0
   58.1430   30.2230   45.5900 C   0  0  0  0  0  0  0  0  0  0  0  0
   58.8620   30.1300   46.6700 N   0  0  0  0  0  0  0  0  0  0  0  0
   60.2540   30.4500   46.7810 C   0  0  0  0  0  0  0  0  0  0  0  0
   61.1260   29.7050   46.2570 O   0  0  0  0  0  0  0  0  0  0  0  0
   60.6740   31.6700   47.5520 C   0  0  2  0  0  0  0  0  0  0  0  0
   59.4060   32.3760   48.0980 C   0  0  0  0  0  0  0  0  0  0  0  0
   58.7290   33.1390   46.9970 C   0  0  0  0  0  0  0  0  0  0  0  0
   57.3410   33.0990   46.7980 C   0  0  0  0  0  0  0  0  0  0  0  0
   56.7680   33.8190   45.7440 C   0  0  0  0  0  0  0  0  0  0  0  0
   57.5780   34.5850   44.8970 C   0  0  0  0  0  0  0  0  0  0  0  0
   58.9630   34.6280   45.0950 C   0  0  0  0  0  0  0  0  0  0  0  0
   59.5390   33.8930   46.1420 C   0  0  0  0  0  0  0  0  0  0  0  0
   61.0170   33.9040   46.4120 C   0  0  0  0  0  0  0  0  0  0  0  0
   61.5110   32.5300   46.6590 N   0  0  0  0  0  0  0  0  0  0  0  0
   63.1820   32.5730   47.1760 S   0  0  0  0  0  0  0  0  0  0  0  0
   63.8180   31.2340   46.9220 O   0  0  0  0  0  0  0  0  0  0  0  0
   63.9280   33.6020   46.3720 O   0  0  0  0  0  0  0  0  0  0  0  0
   63.3130   32.9710   48.8910 C   0  0  0  0  0  0  0  0  0  0  0  0
   62.3830   33.8310   49.4940 C   0  0  0  0  0  0  0  0  0  0  0  0
   62.5010   34.1570   50.8480 C   0  0  0  0  0  0  0  0  0  0  0  0
   63.5450   33.6250   51.6100 C   0  0  0  0  0  0  0  0  0  0  0  0
   64.4690   32.7600   51.0190 C   0  0  0  0  0  0  0  0  0  0  0  0
   64.3530   32.4300   49.6650 C   0  0  0  0  0  0  0  0  0  0  0  0
   58.3460   31.1170   44.5920 N   0  0  0  0  0  0  0  0  0  0  0  0
   57.4715   32.8612   42.6675 H   0  0  0  0  0  0  0  0  0  0  0  0
   58.3809   31.6174   41.7441 H   0  0  0  0  0  0  0  0  0  0  0  0
   56.5847   31.6013   41.7441 H   0  0  0  0  0  0  0  0  0  0  0  0
   55.8038   29.5694   43.0144 H   0  0  0  0  0  0  0  0  0  0  0  0
   61.2936   31.4181   48.4253 H   0  0  0  0  0  0  0  0  0  0  0  0
   58.7127   31.6215   48.4980 H   0  0  0  0  0  0  0  0  0  0  0  0
   59.6972   33.0752   48.8957 H   0  0  0  0  0  0  0  0  0  0  0  0
   56.7047   32.5031   47.4689 H   0  0  0  0  0  0  0  0  0  0  0  0
   55.6808   33.7832   45.5808 H   0  0  0  0  0  0  0  0  0  0  0  0
   57.1243   35.1551   44.0729 H   0  0  0  0  0  0  0  0  0  0  0  0
   59.5971   35.2355   44.4325 H   0  0  0  0  0  0  0  0  0  0  0  0
   61.5406   34.3255   45.5413 H   0  0  0  0  0  0  0  0  0  0  0  0
   61.2102   34.5166   47.3049 H   0  0  0  0  0  0  0  0  0  0  0  0
   61.5581   34.2502   48.8992 H   0  0  0  0  0  0  0  0  0  0  0  0
   61.7705   34.8339   51.3151 H   0  0  0  0  0  0  0  0  0  0  0  0
   63.6389   33.8872   52.6741 H   0  0  0  0  0  0  0  0  0  0  0  0
   65.2886   32.3380   51.6192 H   0  0  0  0  0  0  0  0  0  0  0  0
   65.0790   31.7440   49.2042 H   0  0  0  0  0  0  0  0  0  0  0  0
   59.0840   31.8530   44.5880 H   0  0  0  0  0  0  0  0  0  0  0  0
  1  2  1  0
  2  3  2  0
  3  4  1  0
  4  5  1  0
  5  6  2  3
  6  7  1  0
  7  8  2  0
  7  9  1  0
  9 10  1  0
 10 11  1  0
 11 12  2  0
 12 13  1  0
 13 14  2  0
 14 15  1  0
 15 16  2  0
 16 17  1  0
 17 18  1  0
 18 19  1  0
 19 20  2  0
 19 21  2  0
 19 22  1  0
 22 23  2  0
 23 24  1  0
 24 25  2  0
 25 26  1  0
 26 27  2  0
  5 28  1  0
 28  2  1  0
 18  9  1  0
 27 22  1  0
 16 11  1  0
  1 29  1  0
  1 30  1  0
  1 31  1  0
  3 32  1  0
  9 33  1  1
 10 34  1  0
 10 35  1  0
 12 36  1  0
 13 37  1  0
 14 38  1  0
 15 39  1  0
 17 40  1  0
 17 41  1  0
 23 42  1  0
 24 43  1  0
 25 44  1  0
 26 45  1  0
 27 46  1  0
 28 47  1  0
M  END
>  <UniqueID>  (36) 
35

>  <SMILES>  (36) 
Cc1csc(=NC(=O)[C@@H]2Cc3ccccc3CN2S(=O)(=O)c2ccccc2)[nH]1

>  <Energy>  (36) 
91.78737525726537

>  <Genealogy>  (36) 
Cc1csc(=NC(=O)[C@@H]2Cc3ccccc3CN2S(=O)(=O)c2ccccc2)[nH]1 (chirality)
Cc1csc(=NC(=O)[C@@H]2Cc3ccccc3CN2S(=O)(=O)c2ccccc2)[nH]1 (3D coordinates assigned)
Cc1csc(=NC(=O)[C@@H]2Cc3ccccc3CN2S(=O)(=O)c2ccccc2)[nH]1 (nonaromatic ring conformer: 91.78737525726537 kcal/mol)

>  <smiles>  (36) 
Cc1csc(=NC(=O)C2Cc3ccccc3CN2S(=O)(=O)c2ccccc2)[nH]1

>  <score_type>  (36) 
oracle

>  <origin>  (36) 
adg

>  <m_score__min__energy>  (36) 
-8.9399999999999995

>  <m_primary>  (36) 
energy

$$$$
36:0
     RDKit          3D

 54 57  0  0  0  0  0  0  0  0999 V2000
   53.8330   28.9600   54.5450 C   0  0  0  0  0  0  0  0  0  0  0  0
   54.3890   29.6990   53.5700 C   0  0  0  0  0  0  0  0  0  0  0  0
   53.7140   30.2750   52.4830 C   0  0  0  0  0  0  0  0  0  0  0  0
   52.3990   30.4620   52.2580 C   0  0  0  0  0  0  0  0  0  0  0  0
   51.8080   30.8790   50.9760 C   0  0  0  0  0  0  0  0  0  0  0  0
   51.7100   30.0960   49.8860 N   0  0  0  0  0  0  0  0  0  0  0  0
   51.0140   30.8600   49.0160 C   0  0  0  0  0  0  0  0  0  0  0  0
   50.7280   30.4740   47.8530 O   0  0  0  0  0  0  0  0  0  0  0  0
   50.6420   32.0670   49.4930 N   0  0  0  0  0  0  0  0  0  0  0  0
   51.1450   32.0580   50.7380 C   0  0  0  0  0  0  0  0  0  0  0  0
   51.0030   33.1070   51.6380 O   0  0  0  0  0  0  0  0  0  0  0  0
   54.6910   30.6950   51.6000 C   0  0  0  0  0  0  0  0  0  0  0  0
   55.9080   30.4340   52.1940 C   0  0  0  0  0  0  0  0  0  0  0  0
   57.2010   30.7430   51.5530 C   0  0  0  0  0  0  0  0  0  0  0  0
   57.9750   29.7860   51.2650 O   0  0  0  0  0  0  0  0  0  0  0  0
   57.6560   32.1120   51.4140 N   0  0  0  0  0  0  0  0  0  0  0  0
   58.9090   32.1900   50.6090 C   0  0  0  0  0  0  0  0  0  0  0  0
   60.1010   32.7530   51.3970 C   0  0  0  0  0  0  0  0  0  0  0  0
   59.7730   34.0590   51.9860 N   0  0  0  0  0  0  0  0  0  0  0  0
   58.4650   34.0930   52.6770 C   0  0  0  0  0  0  0  0  0  0  0  0
   57.7780   32.7210   52.7580 C   0  0  0  0  0  0  0  0  0  0  0  0
   55.7330   29.8480   53.4060 N   0  0  0  0  0  0  0  0  0  0  0  0
   56.7800   29.6360   54.4230 C   0  0  0  0  0  0  0  0  0  0  0  0
   57.5750   28.3920   54.1100 C   0  0  0  0  0  0  0  0  0  0  0  0
   56.9880   27.1250   54.2470 C   0  0  0  0  0  0  0  0  0  0  0  0
   57.7200   25.9740   53.9500 C   0  0  0  0  0  0  0  0  0  0  0  0
   59.0360   26.0750   53.4970 C   0  0  0  0  0  0  0  0  0  0  0  0
   59.6340   27.3300   53.3320 C   0  0  0  0  0  0  0  0  0  0  0  0
   60.9540   27.3780   52.8520 O   0  0  0  0  0  0  0  0  0  0  0  0
   61.3520   27.9320   51.5990 C   0  0  0  0  0  0  0  0  0  0  0  0
   61.1000   27.0320   50.5790 F   0  0  0  0  0  0  0  0  0  0  0  0
   62.7090   28.1930   51.6360 F   0  0  0  0  0  0  0  0  0  0  0  0
   60.6790   29.1170   51.3600 F   0  0  0  0  0  0  0  0  0  0  0  0
   58.8990   28.4880   53.6510 C   0  0  0  0  0  0  0  0  0  0  0  0
   54.4595   28.5553   55.3536 H   0  0  0  0  0  0  0  0  0  0  0  0
   52.7514   28.7597   54.5345 H   0  0  0  0  0  0  0  0  0  0  0  0
   51.7120   30.2893   53.0996 H   0  0  0  0  0  0  0  0  0  0  0  0
   54.5288   31.1505   50.6120 H   0  0  0  0  0  0  0  0  0  0  0  0
   56.9160   32.6550   50.9100 H   0  0  0  0  0  0  0  0  0  0  0  0
   59.1656   31.1779   50.2628 H   0  0  0  0  0  0  0  0  0  0  0  0
   58.7171   32.8771   49.7717 H   0  0  0  0  0  0  0  0  0  0  0  0
   60.3639   32.0510   52.2021 H   0  0  0  0  0  0  0  0  0  0  0  0
   60.9478   32.8823   50.7069 H   0  0  0  0  0  0  0  0  0  0  0  0
   60.5240   34.2880   52.6810 H   0  0  0  0  0  0  0  0  0  0  0  0
   58.6216   34.4648   53.7004 H   0  0  0  0  0  0  0  0  0  0  0  0
   57.8064   34.7502   52.0902 H   0  0  0  0  0  0  0  0  0  0  0  0
   58.3738   32.0571   53.4016 H   0  0  0  0  0  0  0  0  0  0  0  0
   56.7695   32.8567   53.1757 H   0  0  0  0  0  0  0  0  0  0  0  0
   57.4553   30.5042   54.4341 H   0  0  0  0  0  0  0  0  0  0  0  0
   56.3022   29.5154   55.4065 H   0  0  0  0  0  0  0  0  0  0  0  0
   55.9464   27.0382   54.5899 H   0  0  0  0  0  0  0  0  0  0  0  0
   57.2576   24.9836   54.0735 H   0  0  0  0  0  0  0  0  0  0  0  0
   59.6069   25.1630   53.2682 H   0  0  0  0  0  0  0  0  0  0  0  0
   59.3664   29.4775   53.5396 H   0  0  0  0  0  0  0  0  0  0  0  0
  1  2  2  0
  2  3  1  0
  3  4  2  3
  4  5  1  0
  5  6  1  0
  6  7  1  0
  7  8  2  0
  7  9  1  0
  9 10  1  0
 10 11  1  0
  3 12  1  0
 12 13  2  0
 13 14  1  0
 14 15  2  0
 14 16  1  0
 16 17  1  0
 17 18  1  0
 18 19  1  0
 19 20  1  0
 20 21  1  0
 13 22  1  0
 22 23  1  0
 23 24  1  0
 24 25  2  0
 25 26  1  0
 26 27  2  0
 27 28  1  0
 28 29  1  0
 29 30  1  0
 30 31  1  0
 30 32  1  0
 30 33  1  0
 28 34  2  0
 22  2  1  0
 34 24  1  0
 10  5  2  0
 21 16  1  0
  1 35  1  0
  1 36  1  0
  4 37  1  0
 12 38  1  0
 16 39  1  0
 17 40  1  0
 17 41  1  0
 18 42  1  0
 18 43  1  0
 19 44  1  0
 20 45  1  0
 20 46  1  0
 21 47  1  0
 21 48  1  0
 23 49  1  0
 23 50  1  0
 25 51  1  0
 26 52  1  0
 27 53  1  0
 34 54  1  0
M  CHG  4   6  -1   9  -1  11  -1  16   1
M  END
>  <UniqueID>  (37) 
36

>  <SMILES>  (37) 
C=c1c(=Cc2[n-]c(=O)[n-]c2[O-])cc(C(=O)[NH+]2CCNCC2)n1Cc1cccc(OC(F)(F)F)c1

>  <Energy>  (37) 
144.08009915021597

>  <Genealogy>  (37) 
C=c1c(=Cc2[n-]c(=O)[n-]c2[O-])cc(C(=O)[NH+]2CCNCC2)n1Cc1cccc(OC(F)(F)F)c1 (protonated)
C=c1c(=Cc2[n-]c(=O)[n-]c2[O-])cc(C(=O)[NH+]2CCNCC2)n1Cc1cccc(OC(F)(F)F)c1 (3D coordinates assigned)
C=c1c(=Cc2[n-]c(=O)[n-]c2[O-])cc(C(=O)[NH+]2CCNCC2)n1Cc1cccc(OC(F)(F)F)c1 (nonaromatic ring conformer: 144.08009915021597 kcal/mol)

>  <smiles>  (37) 
C=c1c(=Cc2[nH]c(=O)[nH]c2O)cc(C(=O)N2CCNCC2)n1Cc1cccc(OC(F)(F)F)c1

>  <score_type>  (37) 
oracle

>  <origin>  (37) 
adg

>  <m_score__min__energy>  (37) 
-15.1

>  <m_primary>  (37) 
energy

$$$$
37:0
     RDKit          3D

 62 66  0  0  0  0  0  0  0  0999 V2000
   63.3690   34.1630   46.0670 C   0  0  0  0  0  0  0  0  0  0  0  0
   62.4380   33.6770   46.9050 C   0  0  0  0  0  0  0  0  0  0  0  0
   61.0010   33.6510   46.5140 C   0  0  0  0  0  0  0  0  0  0  0  0
   60.4840   34.7360   46.1230 O   0  0  0  0  0  0  0  0  0  0  0  0
   60.1760   32.4600   46.6110 N   0  0  0  0  0  0  0  0  0  0  0  0
   60.7570   31.1750   47.0710 C   0  0  0  0  0  0  0  0  0  0  0  0
   59.7310   30.0330   47.2470 C   0  0  0  0  0  0  0  0  0  0  0  0
   58.7060   30.1320   46.2160 N   0  0  0  0  0  0  0  0  0  0  0  0
   58.1750   31.2940   45.8390 C   0  0  0  0  0  0  0  0  0  0  0  0
   57.0520   31.1240   45.1200 N   0  0  0  0  0  0  0  0  0  0  0  0
   56.8670   29.8110   45.0130 N   0  0  0  0  0  0  0  0  0  0  0  0
   57.8700   29.2130   45.6880 C   0  0  0  0  0  0  0  0  0  0  0  0
   57.9960   27.7530   45.8350 C   0  0  0  0  0  0  0  0  0  0  0  0
   59.2640   27.1660   45.9690 C   0  0  0  0  0  0  0  0  0  0  0  0
   59.3970   25.7750   46.0550 C   0  0  0  0  0  0  0  0  0  0  0  0
   58.2630   24.9600   45.9890 C   0  0  0  0  0  0  0  0  0  0  0  0
   58.3900   23.6120   46.0700 F   0  0  0  0  0  0  0  0  0  0  0  0
   56.9980   25.5370   45.8470 C   0  0  0  0  0  0  0  0  0  0  0  0
   56.8600   26.9290   45.7640 C   0  0  0  0  0  0  0  0  0  0  0  0
   55.6220   27.4670   45.6270 F   0  0  0  0  0  0  0  0  0  0  0  0
   58.7320   32.5940   46.3010 C   0  0  0  0  0  0  0  0  0  0  0  0
   62.8060   33.3460   48.3140 C   0  0  0  0  0  0  0  0  0  0  0  0
   64.1070   32.9100   48.6060 C   0  0  0  0  0  0  0  0  0  0  0  0
   64.4890   32.6620   49.9210 C   0  0  0  0  0  0  0  0  0  0  0  0
   63.5790   32.8350   50.9660 C   0  0  0  0  0  0  0  0  0  0  0  0
   62.2550   33.2380   50.7090 C   0  0  0  0  0  0  0  0  0  0  0  0
   61.2960   33.4850   51.8610 C   0  0  0  0  0  0  0  0  0  0  0  0
   59.9320   32.9630   51.5960 N   0  0  0  0  0  0  0  0  0  0  0  0
   59.0500   33.1760   52.7640 C   0  0  0  0  0  0  0  0  0  0  0  0
   57.6450   32.5600   52.5640 C   0  0  0  0  0  0  0  0  0  0  0  0
   57.4550   31.9780   51.1600 C   0  0  0  0  0  0  0  0  0  0  0  0
   58.5920   31.0150   50.7980 C   0  0  0  0  0  0  0  0  0  0  0  0
   59.9740   31.5260   51.2540 C   0  0  0  0  0  0  0  0  0  0  0  0
   61.8760   33.5120   49.3660 C   0  0  0  0  0  0  0  0  0  0  0  0
   60.5850   33.9470   49.0450 O   0  0  0  0  0  0  0  0  0  0  0  0
   64.4269   34.1764   46.3682 H   0  0  0  0  0  0  0  0  0  0  0  0
   63.0733   34.5475   45.0797 H   0  0  0  0  0  0  0  0  0  0  0  0
   61.5059   30.8529   46.3325 H   0  0  0  0  0  0  0  0  0  0  0  0
   61.1867   31.3648   48.0656 H   0  0  0  0  0  0  0  0  0  0  0  0
   60.2440   29.0638   47.1610 H   0  0  0  0  0  0  0  0  0  0  0  0
   59.2607   30.1147   48.2380 H   0  0  0  0  0  0  0  0  0  0  0  0
   60.1596   27.8035   46.0067 H   0  0  0  0  0  0  0  0  0  0  0  0
   60.3930   25.3236   46.1744 H   0  0  0  0  0  0  0  0  0  0  0  0
   56.1060   24.8950   45.8001 H   0  0  0  0  0  0  0  0  0  0  0  0
   58.6001   33.3461   45.5092 H   0  0  0  0  0  0  0  0  0  0  0  0
   58.2001   32.9051   47.2122 H   0  0  0  0  0  0  0  0  0  0  0  0
   64.8300   32.7632   47.7901 H   0  0  0  0  0  0  0  0  0  0  0  0
   65.5141   32.3276   50.1386 H   0  0  0  0  0  0  0  0  0  0  0  0
   63.9006   32.6542   52.0023 H   0  0  0  0  0  0  0  0  0  0  0  0
   61.6926   32.9914   52.7605 H   0  0  0  0  0  0  0  0  0  0  0  0
   61.2136   34.5736   51.9957 H   0  0  0  0  0  0  0  0  0  0  0  0
   59.5157   32.7138   53.6469 H   0  0  0  0  0  0  0  0  0  0  0  0
   58.9243   34.2609   52.8952 H   0  0  0  0  0  0  0  0  0  0  0  0
   57.5039   31.7560   53.3014 H   0  0  0  0  0  0  0  0  0  0  0  0
   56.9055   33.3636   52.6960 H   0  0  0  0  0  0  0  0  0  0  0  0
   56.4995   31.4342   51.1237 H   0  0  0  0  0  0  0  0  0  0  0  0
   57.4584   32.8070   50.4369 H   0  0  0  0  0  0  0  0  0  0  0  0
   58.3988   30.0455   51.2804 H   0  0  0  0  0  0  0  0  0  0  0  0
   58.6159   30.9269   49.7018 H   0  0  0  0  0  0  0  0  0  0  0  0
   60.2916   30.9565   52.1399 H   0  0  0  0  0  0  0  0  0  0  0  0
   60.6845   31.3881   50.4256 H   0  0  0  0  0  0  0  0  0  0  0  0
   59.7850   33.8740   49.6590 H   0  0  0  0  0  0  0  0  0  0  0  0
  1  2  2  0
  2  3  1  0
  3  4  2  0
  3  5  1  0
  5  6  1  0
  6  7  1  0
  7  8  1  0
  8  9  1  0
  9 10  2  0
 10 11  1  0
 11 12  2  0
 12 13  1  0
 13 14  2  0
 14 15  1  0
 15 16  2  0
 16 17  1  0
 16 18  1  0
 18 19  2  0
 19 20  1  0
  9 21  1  0
  2 22  1  0
 22 23  2  0
 23 24  1  0
 24 25  2  0
 25 26  1  0
 26 27  1  0
 27 28  1  0
 28 29  1  0
 29 30  1  0
 30 31  1  0
 31 32  1  0
 32 33  1  0
 26 34  2  0
 34 35  1  0
 21  5  1  0
 34 22  1  0
 12  8  1  0
 19 13  1  0
 33 28  1  0
  1 36  1  0
  1 37  1  0
  6 38  1  0
  6 39  1  0
  7 40  1  0
  7 41  1  0
 14 42  1  0
 15 43  1  0
 18 44  1  0
 21 45  1  0
 21 46  1  0
 23 47  1  0
 24 48  1  0
 25 49  1  0
 27 50  1  0
 27 51  1  0
 29 52  1  0
 29 53  1  0
 30 54  1  0
 30 55  1  0
 31 56  1  0
 31 57  1  0
 32 58  1  0
 32 59  1  0
 33 60  1  0
 33 61  1  0
 35 62  1  0
M  END
>  <UniqueID>  (38) 
37

>  <SMILES>  (38) 
C=C(C(=O)N1CCn2c(nnc2-c2ccc(F)cc2F)C1)c1cccc(CN2CCCCC2)c1O

>  <Energy>  (38) 
135.33792865583823

>  <Genealogy>  (38) 
C=C(C(=O)N1CCn2c(nnc2-c2ccc(F)cc2F)C1)c1cccc(CN2CCCCC2)c1O (3D coordinates assigned)
C=C(C(=O)N1CCn2c(nnc2-c2ccc(F)cc2F)C1)c1cccc(CN2CCCCC2)c1O (nonaromatic ring conformer: 135.33792865583823 kcal/mol)

>  <smiles>  (38) 
C=C(C(=O)N1CCn2c(nnc2-c2ccc(F)cc2F)C1)c1cccc(CN2CCCCC2)c1O

>  <score_type>  (38) 
oracle

>  <origin>  (38) 
adg

>  <m_score__min__energy>  (38) 
-11.26

>  <m_primary>  (38) 
energy

$$$$
38:0
     RDKit          3D

 70 75  0  0  0  0  0  0  0  0999 V2000
   60.9353   30.4065   51.9318 H   0  0  0  0  0  0  0  0  0  0  0  0
   60.0580   30.3740   51.2690 C   0  0  0  0  0  0  0  0  0  0  0  0
   59.0400   31.1820   51.6050 C   0  0  0  0  0  0  0  0  0  0  0  0
   59.1914   32.2630   51.4692 H   0  0  0  0  0  0  0  0  0  0  0  0
   57.7420   30.7490   52.1380 C   0  0  0  0  0  0  0  0  0  0  0  0
   57.6960   29.7300   53.0980 C   0  0  0  0  0  0  0  0  0  0  0  0
   58.6287   29.3005   53.4923 H   0  0  0  0  0  0  0  0  0  0  0  0
   56.4630   29.2620   53.5520 C   0  0  0  0  0  0  0  0  0  0  0  0
   56.4191   28.5026   54.3466 H   0  0  0  0  0  0  0  0  0  0  0  0
   55.2830   29.7620   52.9930 C   0  0  0  0  0  0  0  0  0  0  0  0
   54.0280   29.3000   53.4180 C   0  0  0  0  0  0  0  0  0  0  0  0
   53.9613   28.5460   54.2162 H   0  0  0  0  0  0  0  0  0  0  0  0
   52.8630   29.7970   52.8280 C   0  0  0  0  0  0  0  0  0  0  0  0
   51.8804   29.4426   53.1728 H   0  0  0  0  0  0  0  0  0  0  0  0
   52.9410   30.7440   51.8000 C   0  0  0  0  0  0  0  0  0  0  0  0
   51.4750   31.3620   51.0590 Cl  0  0  0  0  0  0  0  0  0  0  0  0
   54.1880   31.2110   51.3710 C   0  0  0  0  0  0  0  0  0  0  0  0
   54.2466   31.9508   50.5591 H   0  0  0  0  0  0  0  0  0  0  0  0
   55.3660   30.7380   51.9740 C   0  0  0  0  0  0  0  0  0  0  0  0
   56.5840   31.2170   51.5850 N   0  0  0  0  0  0  0  0  0  0  0  0
   56.6380   31.9410   50.8320 H   0  0  0  0  0  0  0  0  0  0  0  0
   60.1510   29.4390   50.1130 C   0  0  0  0  0  0  0  0  0  0  0  0
   60.4410   28.0940   50.3920 C   0  0  0  0  0  0  0  0  0  0  0  0
   60.5145   27.7603   51.4376 H   0  0  0  0  0  0  0  0  0  0  0  0
   60.6370   27.1760   49.3620 C   0  0  0  0  0  0  0  0  0  0  0  0
   60.8576   26.1245   49.5981 H   0  0  0  0  0  0  0  0  0  0  0  0
   60.5540   27.5880   48.0340 C   0  0  0  0  0  0  0  0  0  0  0  0
   60.7069   26.8566   47.2267 H   0  0  0  0  0  0  0  0  0  0  0  0
   60.2780   28.9230   47.7160 C   0  0  0  0  0  0  0  0  0  0  0  0
   60.1880   29.2700   46.3210 N   0  0  0  0  0  0  0  0  0  0  0  0
   59.6690   28.5380   45.2030 C   0  0  0  0  0  0  0  0  0  0  0  0
   60.3430   28.3940   44.1510 O   0  0  0  0  0  0  0  0  0  0  0  0
   58.3650   27.8410   45.3250 C   0  0  0  0  0  0  0  0  0  0  0  0
   58.4000   26.5170   45.8080 C   0  0  0  0  0  0  0  0  0  0  0  0
   59.3621   25.9879   45.8748 H   0  0  0  0  0  0  0  0  0  0  0  0
   57.2320   25.8720   46.2010 C   0  0  0  0  0  0  0  0  0  0  0  0
   57.2662   24.8383   46.5755 H   0  0  0  0  0  0  0  0  0  0  0  0
   56.0210   26.5490   46.1150 C   0  0  0  0  0  0  0  0  0  0  0  0
   55.0946   26.0639   46.4562 H   0  0  0  0  0  0  0  0  0  0  0  0
   55.9810   27.8090   45.6100 N   0  0  0  0  0  0  0  0  0  0  0  0
   57.0900   28.4700   45.1750 C   0  0  0  0  0  0  0  0  0  0  0  0
   56.9000   29.6400   44.6220 N   0  0  0  0  0  0  0  0  0  0  0  0
   57.3850   30.9280   45.0200 C   0  0  0  0  0  0  0  0  0  0  0  0
   57.3890   32.0070   44.1230 C   0  0  0  0  0  0  0  0  0  0  0  0
   57.0243   31.8679   43.0946 H   0  0  0  0  0  0  0  0  0  0  0  0
   57.8550   33.2560   44.5340 C   0  0  0  0  0  0  0  0  0  0  0  0
   57.8562   34.0993   43.8277 H   0  0  0  0  0  0  0  0  0  0  0  0
   58.3200   33.4410   45.8380 C   0  0  0  0  0  0  0  0  0  0  0  0
   58.7230   34.4182   46.1425 H   0  0  0  0  0  0  0  0  0  0  0  0
   58.2750   32.3830   46.7630 C   0  0  0  0  0  0  0  0  0  0  0  0
   58.7960   32.5700   48.1380 C   0  0  0  0  0  0  0  0  0  0  0  0
   58.0250   32.3660   49.1160 O   0  0  0  0  0  0  0  0  0  0  0  0
   60.1510   32.9950   48.3780 N   0  0  0  0  0  0  0  0  0  0  0  0
   60.4800   33.7410   49.5900 C   0  0  0  0  0  0  0  0  0  0  0  0
   59.6905   34.4803   49.7905 H   0  0  0  0  0  0  0  0  0  0  0  0
   60.5564   33.0448   50.4382 H   0  0  0  0  0  0  0  0  0  0  0  0
   61.8230   34.4650   49.4010 C   0  0  0  0  0  0  0  0  0  0  0  0
   61.6901   35.2315   48.6233 H   0  0  0  0  0  0  0  0  0  0  0  0
   62.0881   34.8794   50.3849 H   0  0  0  0  0  0  0  0  0  0  0  0
   62.9100   33.6320   49.0170 O   0  0  0  0  0  0  0  0  0  0  0  0
   62.5380   32.4170   48.3840 C   0  0  0  0  0  0  0  0  0  0  0  0
   63.3603   32.1079   47.7219 H   0  0  0  0  0  0  0  0  0  0  0  0
   62.3393   31.6920   49.1870 H   0  0  0  0  0  0  0  0  0  0  0  0
   61.2540   32.5070   47.5460 C   0  0  0  0  0  0  0  0  0  0  0  0
   61.4133   33.2007   46.7073 H   0  0  0  0  0  0  0  0  0  0  0  0
   61.0025   31.5086   47.1588 H   0  0  0  0  0  0  0  0  0  0  0  0
   57.7930   31.1310   46.3460 C   0  0  0  0  0  0  0  0  0  0  0  0
   57.7351   30.3020   47.0667 H   0  0  0  0  0  0  0  0  0  0  0  0
   60.0730   29.8480   48.7640 C   0  0  0  0  0  0  0  0  0  0  0  0
   59.8501   30.8986   48.5263 H   0  0  0  0  0  0  0  0  0  0  0  0
  1  2  1  0
  2  3  2  3
  3  4  1  0
  3  5  1  0
  5  6  2  0
  6  7  1  0
  6  8  1  0
  8  9  1  0
  8 10  2  0
 10 11  1  0
 11 12  1  0
 11 13  2  0
 13 14  1  0
 13 15  1  0
 15 16  1  0
 15 17  2  0
 17 18  1  0
 17 19  1  0
 19 20  2  0
 20 21  1  0
  2 22  1  0
 22 23  2  0
 23 24  1  0
 23 25  1  0
 25 26  1  0
 25 27  2  0
 27 28  1  0
 27 29  1  0
 29 30  1  0
 30 31  1  0
 31 32  2  0
 31 33  1  0
 33 34  2  0
 34 35  1  0
 34 36  1  0
 36 37  1  0
 36 38  2  0
 38 39  1  0
 38 40  1  0
 40 41  1  0
 41 42  2  0
 42 43  1  0
 43 44  2  0
 44 45  1  0
 44 46  1  0
 46 47  1  0
 46 48  2  0
 48 49  1  0
 48 50  1  0
 50 51  1  0
 51 52  2  0
 51 53  1  0
 53 54  1  0
 54 55  1  0
 54 56  1  0
 54 57  1  0
 57 58  1  0
 57 59  1  0
 57 60  1  0
 60 61  1  0
 61 62  1  0
 61 63  1  0
 61 64  1  0
 64 65  1  0
 64 66  1  0
 50 67  2  0
 67 68  1  0
 29 69  2  0
 69 70  1  0
 20  5  1  0
 69 22  1  0
 19 10  1  0
 41 33  1  0
 67 43  1  0
 64 53  1  0
M  CHG  3  20   1  30  -1  40  -1
M  END
>  <UniqueID>  (39) 
38

>  <SMILES>  (39) 
O=C([N-]c1cccc(C=Cc2ccc3ccc(Cl)cc3[nH+]2)c1)c1ccc[n-]/c1=N/c1cccc(C(=O)N2CCOCC2)c1

>  <Energy>  (39) 
127.36219730207274

>  <Genealogy>  (39) 
O=C([N-]c1cccc(C=Cc2ccc3ccc(Cl)cc3[nH+]2)c1)c1ccc[n-]c1=Nc1cccc(C(=O)N2CCOCC2)c1 (protonated)
O=C([N-]c1cccc(C=Cc2ccc3ccc(Cl)cc3[nH+]2)c1)c1ccc[n-]/c1=N/c1cccc(C(=O)N2CCOCC2)c1 (cis-trans isomerization)
O=C([N-]c1cccc(C=Cc2ccc3ccc(Cl)cc3[nH+]2)c1)c1ccc[n-]/c1=N/c1cccc(C(=O)N2CCOCC2)c1 (3D coordinates assigned)
O=C([N-]c1cccc(C=Cc2ccc3ccc(Cl)cc3[nH+]2)c1)c1ccc[n-]/c1=N/c1cccc(C(=O)N2CCOCC2)c1 (nonaromatic ring conformer: 127.36219730207274 kcal/mol)

>  <smiles>  (39) 
O=C(Nc1cccc(C=Cc2ccc3ccc(Cl)cc3n2)c1)c1ccc[nH]c1=Nc1cccc(C(=O)N2CCOCC2)c1

>  <score_type>  (39) 
oracle

>  <origin>  (39) 
adg

>  <m_score__min__energy>  (39) 
-12.9

>  <m_primary>  (39) 
energy

$$$$
39:0
     RDKit          3D

 55 58  0  0  0  0  0  0  0  0999 V2000
   65.7516   29.6777   53.1871 H   0  0  0  0  0  0  0  0  0  0  0  0
   65.8550   29.5090   52.1050 C   0  0  0  0  0  0  0  0  0  0  0  0
   65.8630   30.5860   51.2920 C   0  0  0  0  0  0  0  0  0  0  0  0
   67.1300   31.1510   50.6820 C   0  0  0  0  0  0  0  0  0  0  0  0
   67.2391   30.7641   49.6581 H   0  0  0  0  0  0  0  0  0  0  0  0
   67.9837   30.8448   51.3045 H   0  0  0  0  0  0  0  0  0  0  0  0
   67.0860   32.6870   50.6360 C   0  0  0  0  0  0  0  0  0  0  0  0
   67.7984   33.0291   49.8708 H   0  0  0  0  0  0  0  0  0  0  0  0
   67.3410   33.0393   51.6464 H   0  0  0  0  0  0  0  0  0  0  0  0
   65.6940   33.2760   50.3000 C   0  0  0  0  0  0  0  0  0  0  0  0
   65.8108   34.0204   49.4986 H   0  0  0  0  0  0  0  0  0  0  0  0
   65.2935   33.7280   51.2194 H   0  0  0  0  0  0  0  0  0  0  0  0
   64.7330   32.2470   49.8530 N   0  0  2  0  0  0  0  0  0  0  0  0
   65.1110   31.7670   49.0020 H   0  0  0  0  0  0  0  0  0  0  0  0
   63.4660   32.8700   49.5210 C   0  0  0  0  0  0  0  0  0  0  0  0
   63.2620   34.0780   49.8310 O   0  0  0  0  0  0  0  0  0  0  0  0
   62.3980   32.1300   48.7990 C   0  0  0  0  0  0  0  0  0  0  0  0
   62.0970   32.4650   47.4660 C   0  0  0  0  0  0  0  0  0  0  0  0
   62.6566   33.2697   46.9666 H   0  0  0  0  0  0  0  0  0  0  0  0
   61.0940   31.7850   46.7710 C   0  0  0  0  0  0  0  0  0  0  0  0
   60.8654   32.0603   45.7308 H   0  0  0  0  0  0  0  0  0  0  0  0
   60.3780   30.7540   47.3930 C   0  0  0  0  0  0  0  0  0  0  0  0
   59.3460   30.0530   46.6770 N   0  0  0  0  0  0  0  0  0  0  0  0
   58.2120   30.6020   46.1880 C   0  0  0  0  0  0  0  0  0  0  0  0
   57.8180   32.0410   46.3440 C   0  0  0  0  0  0  0  0  0  0  0  0
   57.7502   32.2887   47.4136 H   0  0  0  0  0  0  0  0  0  0  0  0
   58.5737   32.6819   45.8664 H   0  0  0  0  0  0  0  0  0  0  0  0
   56.8412   32.2076   45.8664 H   0  0  0  0  0  0  0  0  0  0  0  0
   57.4420   29.6420   45.5640 C   0  0  0  0  0  0  0  0  0  0  0  0
   56.4630   29.7943   45.0862 H   0  0  0  0  0  0  0  0  0  0  0  0
   58.1420   28.4470   45.6560 C   0  0  0  0  0  0  0  0  0  0  0  0
   57.7320   27.2450   45.2080 C   0  0  0  0  0  0  0  0  0  0  0  0
   57.7991   27.0471   44.1280 H   0  0  0  0  0  0  0  0  0  0  0  0
   57.1990   26.1780   46.0740 C   0  0  0  0  0  0  0  0  0  0  0  0
   57.9570   25.1920   46.5830 N   0  0  0  0  0  0  0  0  0  0  0  0
   57.0650   24.4110   47.2290 C   0  0  0  0  0  0  0  0  0  0  0  0
   57.4020   23.3720   47.8540 O   0  0  0  0  0  0  0  0  0  0  0  0
   55.7830   24.8230   47.1410 N   0  0  0  0  0  0  0  0  0  0  0  0
   55.8810   25.9360   46.3970 C   0  0  0  0  0  0  0  0  0  0  0  0
   54.7850   26.6840   45.9840 O   0  0  0  0  0  0  0  0  0  0  0  0
   59.3160   28.7340   46.3620 C   0  0  0  0  0  0  0  0  0  0  0  0
   60.2720   27.8570   46.7100 C   0  0  0  0  0  0  0  0  0  0  0  0
   61.1562   28.1997   47.2675 H   0  0  0  0  0  0  0  0  0  0  0  0
   60.1708   26.7961   46.4374 H   0  0  0  0  0  0  0  0  0  0  0  0
   60.6850   30.4010   48.7140 C   0  0  0  0  0  0  0  0  0  0  0  0
   60.1332   29.5855   49.2043 H   0  0  0  0  0  0  0  0  0  0  0  0
   61.6880   31.0790   49.4120 C   0  0  0  0  0  0  0  0  0  0  0  0
   61.9246   30.7902   50.4467 H   0  0  0  0  0  0  0  0  0  0  0  0
   64.5440   31.2150   50.8960 C   0  0  0  0  0  0  0  0  0  0  0  0
   63.8755   30.4320   50.5086 H   0  0  0  0  0  0  0  0  0  0  0  0
   64.1072   31.6947   51.7843 H   0  0  0  0  0  0  0  0  0  0  0  0
   65.9790   28.0940   51.6190 C   0  0  0  0  0  0  0  0  0  0  0  0
   66.0386   27.4140   52.4815 H   0  0  0  0  0  0  0  0  0  0  0  0
   65.0999   27.8372   51.0097 H   0  0  0  0  0  0  0  0  0  0  0  0
   66.8893   27.9940   51.0097 H   0  0  0  0  0  0  0  0  0  0  0  0
  1  2  1  0
  2  3  2  3
  3  4  1  0
  4  5  1  0
  4  6  1  0
  4  7  1  0
  7  8  1  0
  7  9  1  0
  7 10  1  0
 10 11  1  0
 10 12  1  0
 10 13  1  0
 13 14  1  6
 13 15  1  0
 15 16  2  0
 15 17  1  0
 17 18  2  0
 18 19  1  0
 18 20  1  0
 20 21  1  0
 20 22  2  0
 22 23  1  0
 23 24  1  0
 24 25  1  0
 25 26  1  0
 25 27  1  0
 25 28  1  0
 24 29  2  0
 29 30  1  0
 29 31  1  0
 31 32  2  0
 32 33  1  0
 32 34  1  0
 34 35  1  0
 35 36  1  0
 36 37  2  0
 36 38  1  0
 38 39  1  0
 39 40  1  0
 31 41  1  0
 41 42  2  0
 42 43  1  0
 42 44  1  0
 22 45  1  0
 45 46  1  0
 45 47  2  0
 47 48  1  0
 13 49  1  0
 49 50  1  0
 49 51  1  0
  2 52  1  0
 52 53  1  0
 52 54  1  0
 52 55  1  0
 49  3  1  0
 47 17  1  0
 41 23  1  0
 39 34  2  0
M  CHG  4  13   1  35  -1  38  -1  40  -1
M  END
>  <UniqueID>  (40) 
39

>  <SMILES>  (40) 
C=c1/c(=C/c2[n-]c(=O)[n-]c2[O-])cc(C)n1-c1ccc(C(=O)[N@H+]2CCCC(=CC)C2)cc1

>  <Energy>  (40) 
136.60658649534903

>  <Genealogy>  (40) 
C=c1c(=Cc2[n-]c(=O)[n-]c2[O-])cc(C)n1-c1ccc(C(=O)[NH+]2CCCC(=CC)C2)cc1 (protonated)
C=c1c(=Cc2[n-]c(=O)[n-]c2[O-])cc(C)n1-c1ccc(C(=O)[N@H+]2CCCC(=CC)C2)cc1 (chirality)
C=c1/c(=C/c2[n-]c(=O)[n-]c2[O-])cc(C)n1-c1ccc(C(=O)[N@H+]2CCCC(=CC)C2)cc1 (cis-trans isomerization)
C=c1/c(=C/c2[n-]c(=O)[n-]c2[O-])cc(C)n1-c1ccc(C(=O)[N@H+]2CCCC(=CC)C2)cc1 (3D coordinates assigned)
C=c1/c(=C/c2[n-]c(=O)[n-]c2[O-])cc(C)n1-c1ccc(C(=O)[N@H+]2CCCC(=CC)C2)cc1 (nonaromatic ring conformer: 136.60658649534903 kcal/mol)

>  <smiles>  (40) 
C=c1c(=Cc2[nH]c(=O)[nH]c2O)cc(C)n1-c1ccc(C(=O)N2CCCC(=CC)C2)cc1

>  <score_type>  (40) 
oracle

>  <origin>  (40) 
adg

>  <m_score__min__energy>  (40) 
-15.44

>  <m_primary>  (40) 
energy

$$$$
40:0
     RDKit          3D

 29 30  0  0  0  0  0  0  0  0999 V2000
   60.8480   28.7230   45.2570 C   0  0  0  0  0  0  0  0  0  0  0  0
   60.2670   27.9920   46.3860 N   0  0  0  0  0  0  0  0  0  0  0  0
   59.7990   26.6550   45.9900 C   0  0  0  0  0  0  0  0  0  0  0  0
   58.2880   26.5610   45.9680 C   0  0  0  0  0  0  0  0  0  0  0  0
   57.6640   25.3440   46.2770 C   0  0  0  0  0  0  0  0  0  0  0  0
   56.2650   25.2390   46.2820 C   0  0  0  0  0  0  0  0  0  0  0  0
   55.6180   23.9450   46.5980 C   0  0  0  0  0  0  0  0  0  0  0  0
   54.4110   23.5930   45.9680 C   0  0  0  0  0  0  0  0  0  0  0  0
   53.7970   22.3670   46.2450 C   0  0  0  0  0  0  0  0  0  0  0  0
   52.6050   22.0290   45.6160 O   0  0  0  0  0  0  0  0  0  0  0  0
   54.3830   21.4820   47.1530 C   0  0  0  0  0  0  0  0  0  0  0  0
   55.5830   21.8200   47.7850 C   0  0  0  0  0  0  0  0  0  0  0  0
   56.2020   23.0450   47.5140 C   0  0  0  0  0  0  0  0  0  0  0  0
   57.3850   23.3670   48.1720 O   0  0  0  0  0  0  0  0  0  0  0  0
   55.5050   26.3820   45.9750 C   0  0  0  0  0  0  0  0  0  0  0  0
   54.1160   26.3340   45.9850 O   0  0  0  0  0  0  0  0  0  0  0  0
   56.1270   27.5530   45.6820 N   0  0  0  0  0  0  0  0  0  0  0  0
   57.4800   27.6750   45.6710 C   0  0  0  0  0  0  0  0  0  0  0  0
   57.9950   28.7910   45.3960 O   0  0  0  0  0  0  0  0  0  0  0  0
   61.4907   29.5316   45.6354 H   0  0  0  0  0  0  0  0  0  0  0  0
   61.4479   28.0343   44.6440 H   0  0  0  0  0  0  0  0  0  0  0  0
   60.0417   29.1520   44.6440 H   0  0  0  0  0  0  0  0  0  0  0  0
   59.4650   28.5460   46.7670 H   0  0  0  0  0  0  0  0  0  0  0  0
   60.1826   26.4290   44.9842 H   0  0  0  0  0  0  0  0  0  0  0  0
   60.1714   25.9335   46.7321 H   0  0  0  0  0  0  0  0  0  0  0  0
   58.2772   24.4631   46.5178 H   0  0  0  0  0  0  0  0  0  0  0  0
   53.9463   24.2869   45.2521 H   0  0  0  0  0  0  0  0  0  0  0  0
   53.8997   20.5182   47.3709 H   0  0  0  0  0  0  0  0  0  0  0  0
   56.0425   21.1200   48.4983 H   0  0  0  0  0  0  0  0  0  0  0  0
  1  2  1  0
  2  3  1  0
  3  4  1  0
  4  5  2  0
  5  6  1  0
  6  7  1  0
  7  8  2  0
  8  9  1  0
  9 10  1  0
  9 11  2  0
 11 12  1  0
 12 13  2  0
 13 14  1  0
  6 15  2  0
 15 16  1  0
 15 17  1  0
 17 18  1  0
 18 19  2  0
 18  4  1  0
 13  7  1  0
  1 20  1  0
  1 21  1  0
  1 22  1  0
  2 23  1  0
  3 24  1  0
  3 25  1  0
  5 26  1  0
  8 27  1  0
 11 28  1  0
 12 29  1  0
M  CHG  4  10  -1  14  -1  16  -1  17  -1
M  END
>  <UniqueID>  (41) 
40

>  <SMILES>  (41) 
CNCc1cc(-c2cc([O-])ccc2[O-])c([O-])[n-]c1=O

>  <Energy>  (41) 
38.285876950423756

>  <Genealogy>  (41) 
CNCc1cc(-c2cc([O-])ccc2[O-])c([O-])[n-]c1=O (protonated)
CNCc1cc(-c2cc([O-])ccc2[O-])c([O-])[n-]c1=O (3D coordinates assigned)
CNCc1cc(-c2cc([O-])ccc2[O-])c([O-])[n-]c1=O (optimized conformer: 38.285876950423756 kcal/mol)

>  <smiles>  (41) 
CNCc1cc(-c2cc(O)ccc2O)c(O)[nH]c1=O

>  <score_type>  (41) 
oracle

>  <origin>  (41) 
adg

>  <m_score__min__energy>  (41) 
-14.98

>  <m_primary>  (41) 
energy

$$$$
41:0
     RDKit          3D

 54 57  0  0  0  0  0  0  0  0999 V2000
   56.8330   31.2820   51.9930 C   0  0  0  0  0  0  0  0  0  0  0  0
   57.2210   30.1250   51.2580 O   0  0  0  0  0  0  0  0  0  0  0  0
   58.5390   29.8340   50.8770 C   0  0  0  0  0  0  0  0  0  0  0  0
   59.5740   29.6560   51.8160 C   0  0  0  0  0  0  0  0  0  0  0  0
   60.8720   29.3740   51.3850 C   0  0  0  0  0  0  0  0  0  0  0  0
   61.1500   29.2610   50.0200 C   0  0  0  0  0  0  0  0  0  0  0  0
   60.1270   29.4190   49.0730 C   0  0  0  0  0  0  0  0  0  0  0  0
   60.4310   29.3150   47.5970 C   0  0  0  0  0  0  0  0  0  0  0  0
   59.1880   29.2980   46.7970 N   0  0  0  0  0  0  0  0  0  0  0  0
   58.6070   28.0800   46.5540 C   0  0  0  0  0  0  0  0  0  0  0  0
   57.4110   27.9620   45.8320 C   0  0  0  0  0  0  0  0  0  0  0  0
   56.8200   26.6180   45.6100 C   0  0  0  0  0  0  0  0  0  0  0  0
   55.9370   26.1930   46.4040 O   0  0  0  0  0  0  0  0  0  0  0  0
   57.1910   25.8320   44.4660 N   0  0  0  0  0  0  0  0  0  0  0  0
   56.9770   24.4130   44.3650 C   0  0  0  0  0  0  0  0  0  0  0  0
   56.6050   23.8150   43.1520 C   0  0  0  0  0  0  0  0  0  0  0  0
   56.3850   22.4380   43.0810 C   0  0  0  0  0  0  0  0  0  0  0  0
   56.5240   21.6310   44.2220 C   0  0  0  0  0  0  0  0  0  0  0  0
   56.2750   20.1500   44.1130 C   0  0  0  0  0  0  0  0  0  0  0  0
   56.8620   22.2310   45.4580 C   0  0  0  0  0  0  0  0  0  0  0  0
   57.0070   21.4100   46.7130 C   0  0  0  0  0  0  0  0  0  0  0  0
   57.0860   23.6180   45.5140 C   0  0  0  0  0  0  0  0  0  0  0  0
   56.8150   29.1280   45.3250 C   0  0  0  0  0  0  0  0  0  0  0  0
   55.7660   29.0620   44.6250 O   0  0  0  0  0  0  0  0  0  0  0  0
   57.3970   30.3730   45.5770 C   0  0  0  0  0  0  0  0  0  0  0  0
   56.8090   31.5050   45.0990 N   0  0  0  0  0  0  0  0  0  0  0  0
   57.3330   32.7370   45.3160 C   0  0  0  0  0  0  0  0  0  0  0  0
   56.7530   33.7550   44.8560 O   0  0  0  0  0  0  0  0  0  0  0  0
   58.5100   32.8730   46.0500 C   0  0  0  0  0  0  0  0  0  0  0  0
   59.1420   31.7360   46.5510 C   0  0  0  0  0  0  0  0  0  0  0  0
   58.5960   30.4520   46.3250 C   0  0  0  0  0  0  0  0  0  0  0  0
   58.8270   29.7210   49.5120 C   0  0  0  0  0  0  0  0  0  0  0  0
   56.9033   31.0725   53.0706 H   0  0  0  0  0  0  0  0  0  0  0  0
   57.4996   32.1190   51.7380 H   0  0  0  0  0  0  0  0  0  0  0  0
   55.7965   31.5479   51.7380 H   0  0  0  0  0  0  0  0  0  0  0  0
   59.3591   29.7394   52.8916 H   0  0  0  0  0  0  0  0  0  0  0  0
   61.6778   29.2405   52.1218 H   0  0  0  0  0  0  0  0  0  0  0  0
   62.1762   29.0471   49.6864 H   0  0  0  0  0  0  0  0  0  0  0  0
   61.0412   30.1787   47.2942 H   0  0  0  0  0  0  0  0  0  0  0  0
   60.9744   28.3755   47.4178 H   0  0  0  0  0  0  0  0  0  0  0  0
   59.0928   27.1701   46.9362 H   0  0  0  0  0  0  0  0  0  0  0  0
   57.5360   26.3380   43.6190 H   0  0  0  0  0  0  0  0  0  0  0  0
   56.4858   24.4347   42.2510 H   0  0  0  0  0  0  0  0  0  0  0  0
   56.1000   21.9808   42.1220 H   0  0  0  0  0  0  0  0  0  0  0  0
   56.2019   19.7153   45.1208 H   0  0  0  0  0  0  0  0  0  0  0  0
   55.3349   19.9753   43.5693 H   0  0  0  0  0  0  0  0  0  0  0  0
   57.1063   19.6775   43.5693 H   0  0  0  0  0  0  0  0  0  0  0  0
   56.8920   22.0609   47.5923 H   0  0  0  0  0  0  0  0  0  0  0  0
   56.2330   20.6286   46.7315 H   0  0  0  0  0  0  0  0  0  0  0  0
   58.0019   20.9411   46.7315 H   0  0  0  0  0  0  0  0  0  0  0  0
   57.3507   24.0859   46.4737 H   0  0  0  0  0  0  0  0  0  0  0  0
   58.9370   33.8701   46.2326 H   0  0  0  0  0  0  0  0  0  0  0  0
   60.0734   31.8389   47.1270 H   0  0  0  0  0  0  0  0  0  0  0  0
   58.0255   29.8705   48.7736 H   0  0  0  0  0  0  0  0  0  0  0  0
  1  2  1  0
  2  3  1  0
  3  4  2  0
  4  5  1  0
  5  6  2  0
  6  7  1  0
  7  8  1  0
  8  9  1  0
  9 10  1  0
 10 11  2  0
 11 12  1  0
 12 13  2  0
 12 14  1  0
 14 15  1  0
 15 16  2  0
 16 17  1  0
 17 18  2  0
 18 19  1  0
 18 20  1  0
 20 21  1  0
 20 22  2  0
 11 23  1  0
 23 24  2  0
 23 25  1  0
 25 26  1  0
 26 27  1  0
 27 28  2  0
 27 29  1  0
 29 30  2  0
 30 31  1  0
  7 32  2  0
 32  3  1  0
 31  9  1  0
 22 15  1  0
 31 25  2  0
  1 33  1  0
  1 34  1  0
  1 35  1  0
  4 36  1  0
  5 37  1  0
  6 38  1  0
  8 39  1  0
  8 40  1  0
 10 41  1  0
 14 42  1  0
 16 43  1  0
 17 44  1  0
 19 45  1  0
 19 46  1  0
 19 47  1  0
 21 48  1  0
 21 49  1  0
 21 50  1  0
 22 51  1  0
 29 52  1  0
 30 53  1  0
 32 54  1  0
M  CHG  1  26  -1
M  END
>  <UniqueID>  (42) 
41

>  <SMILES>  (42) 
COc1cccc(Cn2cc(C(=O)Nc3ccc(C)c(C)c3)c(=O)c3[n-]c(=O)ccc32)c1

>  <Energy>  (42) 
73.92050177730879

>  <Genealogy>  (42) 
COc1cccc(Cn2cc(C(=O)Nc3ccc(C)c(C)c3)c(=O)c3[n-]c(=O)ccc32)c1 (protonated)
COc1cccc(Cn2cc(C(=O)Nc3ccc(C)c(C)c3)c(=O)c3[n-]c(=O)ccc32)c1 (3D coordinates assigned)
COc1cccc(Cn2cc(C(=O)Nc3ccc(C)c(C)c3)c(=O)c3[n-]c(=O)ccc32)c1 (optimized conformer: 73.92050177730879 kcal/mol)

>  <smiles>  (42) 
COc1cccc(Cn2cc(C(=O)Nc3ccc(C)c(C)c3)c(=O)c3[nH]c(=O)ccc32)c1

>  <score_type>  (42) 
oracle

>  <origin>  (42) 
adg

>  <m_score__min__energy>  (42) 
-10.01

>  <m_primary>  (42) 
energy

$$$$
42:0
     RDKit          3D

 56 58  0  0  0  0  0  0  0  0999 V2000
   55.4510   23.7570   45.7980 C   0  0  0  0  0  0  0  0  0  0  0  0
   56.1300   24.5380   44.6690 C   0  0  0  0  0  0  0  0  0  0  0  0
   57.0190   23.6320   43.8090 C   0  0  0  0  0  0  0  0  0  0  0  0
   56.8800   25.6830   45.2010 N   0  0  0  0  0  0  0  0  0  0  0  0
   57.9950   25.5820   46.1060 C   0  0  0  0  0  0  0  0  0  0  0  0
   58.5090   24.4580   46.3610 O   0  0  0  0  0  0  0  0  0  0  0  0
   58.5460   26.7960   46.7490 C   0  0  0  0  0  0  0  0  0  0  0  0
   59.4750   26.6650   47.7960 C   0  0  0  0  0  0  0  0  0  0  0  0
   60.0110   27.7960   48.4150 C   0  0  0  0  0  0  0  0  0  0  0  0
   59.6330   29.0710   47.9940 C   0  0  0  0  0  0  0  0  0  0  0  0
   58.7070   29.2190   46.9600 C   0  0  0  0  0  0  0  0  0  0  0  0
   58.1430   28.0900   46.3440 C   0  0  0  0  0  0  0  0  0  0  0  0
   57.1820   28.2490   45.2910 N   0  0  0  0  0  0  0  0  0  0  0  0
   56.5690   29.4820   44.8960 C   0  0  0  0  0  0  0  0  0  0  0  0
   55.3130   29.5510   44.8680 O   0  0  0  0  0  0  0  0  0  0  0  0
   57.3710   30.7350   44.6730 C   0  0  0  0  0  0  0  0  0  0  0  0
   56.6520   31.8810   45.2190 N   0  0  0  0  0  0  0  0  0  0  0  0
   57.2730   33.1350   45.5260 C   0  0  0  0  0  0  0  0  0  0  0  0
   56.6530   34.2130   45.3060 O   0  0  0  0  0  0  0  0  0  0  0  0
   58.6370   33.1730   46.0940 C   0  0  0  0  0  0  0  0  0  0  0  0
   59.6600   33.9030   45.4720 C   0  0  0  0  0  0  0  0  0  0  0  0
   60.9040   33.9420   46.0170 N   0  0  0  0  0  0  0  0  0  0  0  0
   61.2020   33.2940   47.1730 C   0  0  0  0  0  0  0  0  0  0  0  0
   60.2160   32.5610   47.8450 C   0  0  0  0  0  0  0  0  0  0  0  0
   60.5190   31.8710   49.1480 C   0  0  0  0  0  0  0  0  0  0  0  0
   59.5410   32.2900   50.2120 C   0  0  0  0  0  0  0  0  0  0  0  0
   59.7710   33.4550   50.9640 C   0  0  0  0  0  0  0  0  0  0  0  0
   58.8770   33.8290   51.9720 C   0  0  0  0  0  0  0  0  0  0  0  0
   57.7530   33.0420   52.2400 C   0  0  0  0  0  0  0  0  0  0  0  0
   57.5220   31.8760   51.5030 C   0  0  0  0  0  0  0  0  0  0  0  0
   58.4140   31.4970   50.4940 C   0  0  0  0  0  0  0  0  0  0  0  0
   58.9320   32.4950   47.2880 C   0  0  0  0  0  0  0  0  0  0  0  0
   55.7900   24.1470   46.7691 H   0  0  0  0  0  0  0  0  0  0  0  0
   54.3598   23.8708   45.7179 H   0  0  0  0  0  0  0  0  0  0  0  0
   55.7154   22.6923   45.7179 H   0  0  0  0  0  0  0  0  0  0  0  0
   55.3400   24.9300   44.0116 H   0  0  0  0  0  0  0  0  0  0  0  0
   57.6390   23.0001   44.4619 H   0  0  0  0  0  0  0  0  0  0  0  0
   56.3868   22.9939   43.1740 H   0  0  0  0  0  0  0  0  0  0  0  0
   57.6690   24.2520   43.1740 H   0  0  0  0  0  0  0  0  0  0  0  0
   56.5670   26.6350   44.9060 H   0  0  0  0  0  0  0  0  0  0  0  0
   59.7822   25.6631   48.1304 H   0  0  0  0  0  0  0  0  0  0  0  0
   60.7332   27.6813   49.2367 H   0  0  0  0  0  0  0  0  0  0  0  0
   60.0647   29.9600   48.4769 H   0  0  0  0  0  0  0  0  0  0  0  0
   58.4173   30.2261   46.6256 H   0  0  0  0  0  0  0  0  0  0  0  0
   58.3448   30.6405   45.1759 H   0  0  0  0  0  0  0  0  0  0  0  0
   57.5260   30.8818   43.5939 H   0  0  0  0  0  0  0  0  0  0  0  0
   59.4543   34.4468   44.5382 H   0  0  0  0  0  0  0  0  0  0  0  0
   62.2215   33.3452   47.5828 H   0  0  0  0  0  0  0  0  0  0  0  0
   60.4518   30.7825   49.0043 H   0  0  0  0  0  0  0  0  0  0  0  0
   61.5329   32.1518   49.4693 H   0  0  0  0  0  0  0  0  0  0  0  0
   60.6567   34.0742   50.7590 H   0  0  0  0  0  0  0  0  0  0  0  0
   59.0584   34.7439   52.5551 H   0  0  0  0  0  0  0  0  0  0  0  0
   57.0496   33.3402   53.0314 H   0  0  0  0  0  0  0  0  0  0  0  0
   56.6385   31.2566   51.7168 H   0  0  0  0  0  0  0  0  0  0  0  0
   58.2335   30.5764   49.9197 H   0  0  0  0  0  0  0  0  0  0  0  0
   58.1490   31.9076   47.7898 H   0  0  0  0  0  0  0  0  0  0  0  0
  1  2  1  0
  2  3  1  0
  2  4  1  0
  4  5  1  0
  5  6  2  0
  5  7  1  0
  7  8  2  0
  8  9  1  0
  9 10  2  0
 10 11  1  0
 11 12  2  0
 12 13  1  0
 13 14  1  0
 14 15  2  0
 14 16  1  0
 16 17  1  0
 17 18  1  0
 18 19  2  0
 18 20  1  0
 20 21  2  0
 21 22  1  0
 22 23  2  0
 23 24  1  0
 24 25  1  0
 25 26  1  0
 26 27  2  0
 27 28  1  0
 28 29  2  0
 29 30  1  0
 30 31  2  0
 24 32  2  0
 12  7  1  0
 32 20  1  0
 31 26  1  0
  1 33  1  0
  1 34  1  0
  1 35  1  0
  2 36  1  0
  3 37  1  0
  3 38  1  0
  3 39  1  0
  4 40  1  0
  8 41  1  0
  9 42  1  0
 10 43  1  0
 11 44  1  0
 16 45  1  0
 16 46  1  0
 21 47  1  0
 23 48  1  0
 25 49  1  0
 25 50  1  0
 27 51  1  0
 28 52  1  0
 29 53  1  0
 30 54  1  0
 31 55  1  0
 32 56  1  0
M  CHG  2  13  -1  17  -1
M  END
>  <UniqueID>  (43) 
42

>  <SMILES>  (43) 
CC(C)NC(=O)c1ccccc1[N-]C(=O)C[N-]C(=O)c1cncc(Cc2ccccc2)c1

>  <Energy>  (43) 
57.76299802416044

>  <Genealogy>  (43) 
CC(C)NC(=O)c1ccccc1[N-]C(=O)C[N-]C(=O)c1cncc(Cc2ccccc2)c1 (protonated)
CC(C)NC(=O)c1ccccc1[N-]C(=O)C[N-]C(=O)c1cncc(Cc2ccccc2)c1 (3D coordinates assigned)
CC(C)NC(=O)c1ccccc1[N-]C(=O)C[N-]C(=O)c1cncc(Cc2ccccc2)c1 (optimized conformer: 57.76299802416044 kcal/mol)

>  <smiles>  (43) 
CC(C)NC(=O)c1ccccc1NC(=O)CNC(=O)c1cncc(Cc2ccccc2)c1

>  <score_type>  (43) 
oracle

>  <origin>  (43) 
adg

>  <m_score__min__energy>  (43) 
-12.49

>  <m_primary>  (43) 
energy

$$$$
43:0
     RDKit          3D

 70 73  0  0  0  0  0  0  0  0999 V2000
   55.2950   30.0760   53.6550 C   0  0  0  0  0  0  0  0  0  0  0  0
   56.4020   31.0470   53.5760 N   0  0  0  0  0  0  0  0  0  0  0  0
   57.1340   31.0930   54.8530 C   0  0  0  0  0  0  0  0  0  0  0  0
   57.3130   30.8430   52.4170 C   0  0  0  0  0  0  0  0  0  0  0  0
   58.3790   29.7620   52.7480 C   0  0  0  0  0  0  0  0  0  0  0  0
   59.7710   30.0710   52.1680 C   0  0  0  0  0  0  0  0  0  0  0  0
   59.6530   30.6760   50.8360 N   0  0  0  0  0  0  0  0  0  0  0  0
   60.5640   30.2910   49.7960 C   0  0  0  0  0  0  0  0  0  0  0  0
   61.8000   30.2500   50.0400 O   0  0  0  0  0  0  0  0  0  0  0  0
   60.0710   29.9500   48.4440 C   0  0  0  0  0  0  0  0  0  0  0  0
   60.8190   30.2940   47.3050 C   0  0  0  0  0  0  0  0  0  0  0  0
   60.3420   29.9900   46.0260 C   0  0  0  0  0  0  0  0  0  0  0  0
   59.1160   29.3300   45.8690 C   0  0  0  0  0  0  0  0  0  0  0  0
   58.4790   28.9690   44.2680 S   0  0  1  0  0  6  0  0  0  0  0  0
   57.7620   27.6480   44.3130 O   0  0  0  0  0  0  0  0  0  0  0  0
   57.5050   30.1020   43.8040 N   0  0  0  0  0  0  0  0  0  0  0  0
   57.9570   31.4120   43.3920 C   0  0  0  0  0  0  0  0  0  0  0  0
   57.9140   32.3820   44.5360 C   0  0  0  0  0  0  0  0  0  0  0  0
   59.0660   33.0810   44.9260 C   0  0  0  0  0  0  0  0  0  0  0  0
   59.0060   33.9690   46.0040 C   0  0  0  0  0  0  0  0  0  0  0  0
   60.1670   34.6630   46.3760 O   0  0  0  0  0  0  0  0  0  0  0  0
   61.1720   34.1680   47.2170 C   0  0  0  0  0  0  0  0  0  0  0  0
   62.4060   33.7180   46.7150 C   0  0  0  0  0  0  0  0  0  0  0  0
   63.3860   33.2360   47.5860 C   0  0  0  0  0  0  0  0  0  0  0  0
   63.1550   33.2140   48.9680 C   0  0  0  0  0  0  0  0  0  0  0  0
   64.3840   32.5810   50.0570 S   0  0  0  0  0  0  0  0  0  0  0  0
   64.2250   33.3700   51.6430 C   0  0  0  0  0  0  0  0  0  0  0  0
   65.7530   32.8480   49.4970 O   0  0  0  0  0  0  0  0  0  0  0  0
   64.2080   31.0970   50.2150 O   0  0  0  0  0  0  0  0  0  0  0  0
   61.9320   33.6790   49.4710 C   0  0  0  0  0  0  0  0  0  0  0  0
   60.9510   34.1600   48.6000 C   0  0  0  0  0  0  0  0  0  0  0  0
   57.7780   34.1730   46.6570 C   0  0  0  0  0  0  0  0  0  0  0  0
   56.6530   33.4600   46.2410 C   0  0  0  0  0  0  0  0  0  0  0  0
   56.7440   32.5880   45.2020 N   0  0  0  0  0  0  0  0  0  0  0  0
   58.3820   28.9590   47.0020 C   0  0  0  0  0  0  0  0  0  0  0  0
   58.8550   29.2640   48.2800 C   0  0  0  0  0  0  0  0  0  0  0  0
   58.7810   31.8430   50.6280 C   0  0  0  0  0  0  0  0  0  0  0  0
   57.9470   32.1490   51.8760 C   0  0  0  0  0  0  0  0  0  0  0  0
   55.0615   29.8712   54.7102 H   0  0  0  0  0  0  0  0  0  0  0  0
   54.4066   30.4914   53.1568 H   0  0  0  0  0  0  0  0  0  0  0  0
   55.5911   29.1410   53.1568 H   0  0  0  0  0  0  0  0  0  0  0  0
   56.4187   31.0481   55.6875 H   0  0  0  0  0  0  0  0  0  0  0  0
   57.8214   30.2363   54.9127 H   0  0  0  0  0  0  0  0  0  0  0  0
   57.7087   32.0290   54.9127 H   0  0  0  0  0  0  0  0  0  0  0  0
   56.6898   30.4762   51.5881 H   0  0  0  0  0  0  0  0  0  0  0  0
   58.4674   29.6843   53.8417 H   0  0  0  0  0  0  0  0  0  0  0  0
   58.0392   28.8224   52.2878 H   0  0  0  0  0  0  0  0  0  0  0  0
   60.2945   30.7696   52.8372 H   0  0  0  0  0  0  0  0  0  0  0  0
   60.3359   29.1311   52.0818 H   0  0  0  0  0  0  0  0  0  0  0  0
   61.7859   30.8057   47.4203 H   0  0  0  0  0  0  0  0  0  0  0  0
   60.9312   30.2699   45.1403 H   0  0  0  0  0  0  0  0  0  0  0  0
   59.5170   28.8960   43.3760 H   0  0  0  0  0  0  0  0  0  0  0  0
   58.9908   31.3361   43.0238 H   0  0  0  0  0  0  0  0  0  0  0  0
   57.2900   31.7783   42.5977 H   0  0  0  0  0  0  0  0  0  0  0  0
   60.0125   32.9310   44.3859 H   0  0  0  0  0  0  0  0  0  0  0  0
   62.6003   33.7456   45.6326 H   0  0  0  0  0  0  0  0  0  0  0  0
   64.3435   32.8720   47.1852 H   0  0  0  0  0  0  0  0  0  0  0  0
   64.3749   32.6261   52.4393 H   0  0  0  0  0  0  0  0  0  0  0  0
   64.9813   34.1634   51.7353 H   0  0  0  0  0  0  0  0  0  0  0  0
   63.2204   33.8085   51.7353 H   0  0  0  0  0  0  0  0  0  0  0  0
   61.7440   33.6652   50.5547 H   0  0  0  0  0  0  0  0  0  0  0  0
   59.9987   34.5349   49.0032 H   0  0  0  0  0  0  0  0  0  0  0  0
   57.7045   34.8888   47.4890 H   0  0  0  0  0  0  0  0  0  0  0  0
   55.6909   33.6037   46.7546 H   0  0  0  0  0  0  0  0  0  0  0  0
   57.4278   28.4245   46.8849 H   0  0  0  0  0  0  0  0  0  0  0  0
   58.2724   28.9656   49.1640 H   0  0  0  0  0  0  0  0  0  0  0  0
   59.4046   32.7177   50.3913 H   0  0  0  0  0  0  0  0  0  0  0  0
   58.0933   31.6172   49.7997 H   0  0  0  0  0  0  0  0  0  0  0  0
   58.5945   32.5881   52.6492 H   0  0  0  0  0  0  0  0  0  0  0  0
   57.1485   32.8588   51.6141 H   0  0  0  0  0  0  0  0  0  0  0  0
  1  2  1  0
  2  3  1  0
  2  4  1  0
  4  5  1  0
  5  6  1  0
  6  7  1  0
  7  8  1  0
  8  9  2  0
  8 10  1  0
 10 11  2  0
 11 12  1  0
 12 13  2  0
 13 14  1  0
 14 15  2  0
 14 16  2  0
 16 17  1  0
 17 18  1  0
 18 19  2  0
 19 20  1  0
 20 21  1  0
 21 22  1  0
 22 23  2  0
 23 24  1  0
 24 25  2  0
 25 26  1  0
 26 27  1  0
 26 28  2  0
 26 29  2  0
 25 30  1  0
 30 31  2  0
 20 32  2  0
 32 33  1  0
 33 34  2  0
 13 35  1  0
 35 36  2  0
  7 37  1  0
 37 38  1  0
 38  4  1  0
 36 10  1  0
 34 18  1  0
 31 22  1  0
  1 39  1  0
  1 40  1  0
  1 41  1  0
  3 42  1  0
  3 43  1  0
  3 44  1  0
  4 45  1  0
  5 46  1  0
  5 47  1  0
  6 48  1  0
  6 49  1  0
 11 50  1  0
 12 51  1  0
 14 52  1  6
 17 53  1  0
 17 54  1  0
 19 55  1  0
 23 56  1  0
 24 57  1  0
 27 58  1  0
 27 59  1  0
 27 60  1  0
 30 61  1  0
 31 62  1  0
 32 63  1  0
 33 64  1  0
 35 65  1  0
 36 66  1  0
 37 67  1  0
 37 68  1  0
 38 69  1  0
 38 70  1  0
M  END
>  <UniqueID>  (44) 
43

>  <SMILES>  (44) 
CN(C)C1CCN(C(=O)c2ccc([S@@H](=O)=NCc3cc(Oc4ccc(S(C)(=O)=O)cc4)ccn3)cc2)CC1

>  <Energy>  (44) 
88.28735927350543

>  <Genealogy>  (44) 
CN(C)C1CCN(C(=O)c2ccc([S@@H](=O)=NCc3cc(Oc4ccc(S(C)(=O)=O)cc4)ccn3)cc2)CC1 (chirality)
CN(C)C1CCN(C(=O)c2ccc([S@@H](=O)=NCc3cc(Oc4ccc(S(C)(=O)=O)cc4)ccn3)cc2)CC1 (3D coordinates assigned)
CN(C)C1CCN(C(=O)c2ccc([S@@H](=O)=NCc3cc(Oc4ccc(S(C)(=O)=O)cc4)ccn3)cc2)CC1 (nonaromatic ring conformer: 88.28735927350543 kcal/mol)

>  <smiles>  (44) 
CN(C)C1CCN(C(=O)c2ccc([SH](=O)=NCc3cc(Oc4ccc(S(C)(=O)=O)cc4)ccn3)cc2)CC1

>  <score_type>  (44) 
oracle

>  <origin>  (44) 
adg

>  <m_score__min__energy>  (44) 
-10.390000000000001

>  <m_primary>  (44) 
energy

$$$$
44:0
     RDKit          3D

 43 46  0  0  0  0  0  0  0  0999 V2000
   54.1632   20.6836   48.0130 H   0  0  0  0  0  0  0  0  0  0  0  0
   54.5620   21.6460   47.6600 C   0  0  0  0  0  0  0  0  0  0  0  0
   55.7070   22.1440   48.1950 N   0  0  0  0  0  0  0  0  0  0  0  0
   56.2350   23.3290   47.7860 C   0  0  0  0  0  0  0  0  0  0  0  0
   57.1656   23.7000   48.2404 H   0  0  0  0  0  0  0  0  0  0  0  0
   55.5950   24.0830   46.7830 C   0  0  0  0  0  0  0  0  0  0  0  0
   56.1440   25.3790   46.3150 C   0  0  0  0  0  0  0  0  0  0  0  0
   55.3800   26.4410   45.9940 N   0  0  0  0  0  0  0  0  0  0  0  0
   56.2730   27.3820   45.6320 C   0  0  0  0  0  0  0  0  0  0  0  0
   55.9020   28.5580   45.2170 N   0  0  0  0  0  0  0  0  0  0  0  0
   56.7060   29.7500   45.1910 C   0  0  0  0  0  0  0  0  0  0  0  0
   57.6910   29.9160   46.1710 C   0  0  0  0  0  0  0  0  0  0  0  0
   57.8214   29.1494   46.9490 H   0  0  0  0  0  0  0  0  0  0  0  0
   58.5110   31.0490   46.1690 C   0  0  0  0  0  0  0  0  0  0  0  0
   59.2789   31.1699   46.9473 H   0  0  0  0  0  0  0  0  0  0  0  0
   58.3600   32.0290   45.1830 C   0  0  0  0  0  0  0  0  0  0  0  0
   59.2240   33.1750   45.2040 N   0  0  0  0  0  0  0  0  0  0  0  0
   59.6080   33.9230   46.3670 C   0  0  0  0  0  0  0  0  0  0  0  0
   58.8320   34.8210   46.7870 O   0  0  0  0  0  0  0  0  0  0  0  0
   60.9060   33.7060   47.0500 C   0  0  0  0  0  0  0  0  0  0  0  0
   62.1020   33.7250   46.3140 C   0  0  0  0  0  0  0  0  0  0  0  0
   62.0731   33.9015   45.2286 H   0  0  0  0  0  0  0  0  0  0  0  0
   63.3290   33.5210   46.9520 C   0  0  0  0  0  0  0  0  0  0  0  0
   64.2606   33.5467   46.3677 H   0  0  0  0  0  0  0  0  0  0  0  0
   63.3780   33.2840   48.3320 C   0  0  0  0  0  0  0  0  0  0  0  0
   64.6330   33.0760   48.9830 N   0  0  0  0  0  0  0  0  0  0  0  0
   65.5020   32.9100   48.4290 H   0  0  0  0  0  0  0  0  0  0  0  0
   64.7030   33.0840   50.0260 H   0  0  0  0  0  0  0  0  0  0  0  0
   62.1860   33.2480   49.0680 C   0  0  0  0  0  0  0  0  0  0  0  0
   62.2169   33.0591   50.1512 H   0  0  0  0  0  0  0  0  0  0  0  0
   60.9580   33.4510   48.4320 C   0  0  0  0  0  0  0  0  0  0  0  0
   60.0267   33.4111   49.0160 H   0  0  0  0  0  0  0  0  0  0  0  0
   57.4120   31.8390   44.1620 C   0  0  0  0  0  0  0  0  0  0  0  0
   57.3163   32.5830   43.3575 H   0  0  0  0  0  0  0  0  0  0  0  0
   56.5910   30.7080   44.1660 C   0  0  0  0  0  0  0  0  0  0  0  0
   55.8514   30.5657   43.3643 H   0  0  0  0  0  0  0  0  0  0  0  0
   57.5580   26.9740   45.6910 N   0  0  0  0  0  0  0  0  0  0  0  0
   57.4740   25.7070   46.1290 C   0  0  0  0  0  0  0  0  0  0  0  0
   58.3274   25.0372   46.3107 H   0  0  0  0  0  0  0  0  0  0  0  0
   54.4100   23.5750   46.2260 C   0  0  0  0  0  0  0  0  0  0  0  0
   53.8875   24.1417   45.4412 H   0  0  0  0  0  0  0  0  0  0  0  0
   53.8920   22.3550   46.6630 C   0  0  0  0  0  0  0  0  0  0  0  0
   52.9647   21.9565   46.2256 H   0  0  0  0  0  0  0  0  0  0  0  0
  1  2  1  0
  2  3  2  0
  3  4  1  0
  4  5  1  0
  4  6  2  0
  6  7  1  0
  7  8  1  0
  8  9  1  0
  9 10  2  0
 10 11  1  0
 11 12  2  0
 12 13  1  0
 12 14  1  0
 14 15  1  0
 14 16  2  0
 16 17  1  0
 17 18  1  0
 18 19  2  0
 18 20  1  0
 20 21  2  0
 21 22  1  0
 21 23  1  0
 23 24  1  0
 23 25  2  0
 25 26  1  0
 26 27  1  0
 26 28  1  0
 25 29  1  0
 29 30  1  0
 29 31  2  0
 31 32  1  0
 16 33  1  0
 33 34  1  0
 33 35  2  0
 35 36  1  0
  9 37  1  0
 37 38  1  0
 38 39  1  0
  6 40  1  0
 40 41  1  0
 40 42  2  0
 42 43  1  0
 42  2  1  0
 38  7  2  0
 35 11  1  0
 31 20  1  0
M  CHG  3   8  -1  17  -1  37  -1
M  END
>  <UniqueID>  (45) 
44

>  <SMILES>  (45) 
Nc1ccc(C(=O)[N-]c2ccc(/N=c3\[n-]cc(-c4cccnc4)[n-]3)cc2)cc1

>  <Energy>  (45) 
89.77142994790441

>  <Genealogy>  (45) 
Nc1ccc(C(=O)[N-]c2ccc(N=c3[n-]cc(-c4cccnc4)[n-]3)cc2)cc1 (protonated)
Nc1ccc(C(=O)[N-]c2ccc(/N=c3\[n-]cc(-c4cccnc4)[n-]3)cc2)cc1 (cis-trans isomerization)
Nc1ccc(C(=O)[N-]c2ccc(/N=c3\[n-]cc(-c4cccnc4)[n-]3)cc2)cc1 (3D coordinates assigned)
Nc1ccc(C(=O)[N-]c2ccc(/N=c3\[n-]cc(-c4cccnc4)[n-]3)cc2)cc1 (optimized conformer: 89.77142994790441 kcal/mol)

>  <smiles>  (45) 
Nc1ccc(C(=O)Nc2ccc(N=c3[nH]cc(-c4cccnc4)[nH]3)cc2)cc1

>  <score_type>  (45) 
oracle

>  <origin>  (45) 
adg

>  <m_score__min__energy>  (45) 
-12.550000000000001

>  <m_primary>  (45) 
energy

$$$$
45:0
     RDKit          3D

 56 59  0  0  0  0  0  0  0  0999 V2000
   54.7510   30.8120   51.2570 C   0  0  0  0  0  0  0  0  0  0  0  0
   54.6590   30.5270   52.5650 C   0  0  0  0  0  0  0  0  0  0  0  0
   53.5040   30.5540   53.3630 C   0  0  0  0  0  0  0  0  0  0  0  0
   52.2040   30.6950   53.0360 C   0  0  0  0  0  0  0  0  0  0  0  0
   51.6710   30.9420   51.6860 C   0  0  0  0  0  0  0  0  0  0  0  0
   51.9270   30.1410   50.6350 N   0  0  0  0  0  0  0  0  0  0  0  0
   51.3740   30.8010   49.5950 C   0  0  0  0  0  0  0  0  0  0  0  0
   51.3940   30.3510   48.4200 O   0  0  0  0  0  0  0  0  0  0  0  0
   50.8090   31.9870   49.9130 N   0  0  0  0  0  0  0  0  0  0  0  0
   51.0190   32.0680   51.2360 C   0  0  0  0  0  0  0  0  0  0  0  0
   50.6540   33.1620   52.0110 O   0  0  0  0  0  0  0  0  0  0  0  0
   53.9370   30.4200   54.6730 C   0  0  0  0  0  0  0  0  0  0  0  0
   55.3060   30.2550   54.6280 C   0  0  0  0  0  0  0  0  0  0  0  0
   56.1980   30.1420   55.8260 C   0  0  0  0  0  0  0  0  0  0  0  0
   55.7410   30.3060   53.3530 N   0  0  0  0  0  0  0  0  0  0  0  0
   57.1220   30.3730   52.9580 C   0  0  0  0  0  0  0  0  0  0  0  0
   57.6750   29.3620   52.1600 C   0  0  0  0  0  0  0  0  0  0  0  0
   59.0270   29.4100   51.8040 C   0  0  0  0  0  0  0  0  0  0  0  0
   59.8320   30.4820   52.2180 C   0  0  0  0  0  0  0  0  0  0  0  0
   61.2750   30.4730   51.9150 C   0  0  0  0  0  0  0  0  0  0  0  0
   61.9450   29.4820   52.3190 O   0  0  0  0  0  0  0  0  0  0  0  0
   61.9350   31.4840   51.1070 N   0  0  0  0  0  0  0  0  0  0  0  0
   61.4110   32.8640   51.2640 C   0  0  0  0  0  0  0  0  0  0  0  0
   60.1800   33.1530   50.3900 C   0  0  0  0  0  0  0  0  0  0  0  0
   60.4740   32.8300   48.9880 N   0  0  0  0  0  0  0  0  0  0  0  0
   59.0910   33.2070   47.9890 S   0  0  0  0  0  0  0  0  0  0  0  0
   59.2530   32.4230   46.3970 C   0  0  0  0  0  0  0  0  0  0  0  0
   58.9630   34.6970   47.7980 O   0  0  0  0  0  0  0  0  0  0  0  0
   57.8410   32.6880   48.6450 O   0  0  0  0  0  0  0  0  0  0  0  0
   60.7850   31.4010   48.8720 C   0  0  0  0  0  0  0  0  0  0  0  0
   62.0410   31.0700   49.6900 C   0  0  0  0  0  0  0  0  0  0  0  0
   59.2780   31.4870   53.0270 C   0  0  0  0  0  0  0  0  0  0  0  0
   57.9280   31.4350   53.3930 C   0  0  0  0  0  0  0  0  0  0  0  0
   57.4030   32.4150   54.1720 F   0  0  0  0  0  0  0  0  0  0  0  0
   55.7243   30.7515   50.7480 H   0  0  0  0  0  0  0  0  0  0  0  0
   53.8531   31.1061   50.6937 H   0  0  0  0  0  0  0  0  0  0  0  0
   51.4729   30.6184   53.8543 H   0  0  0  0  0  0  0  0  0  0  0  0
   53.3091   30.4412   55.5759 H   0  0  0  0  0  0  0  0  0  0  0  0
   55.5935   30.2186   56.7418 H   0  0  0  0  0  0  0  0  0  0  0  0
   56.7149   29.1712   55.8080 H   0  0  0  0  0  0  0  0  0  0  0  0
   56.9407   30.9532   55.8080 H   0  0  0  0  0  0  0  0  0  0  0  0
   57.0450   28.5297   51.8132 H   0  0  0  0  0  0  0  0  0  0  0  0
   59.4615   28.6027   51.1961 H   0  0  0  0  0  0  0  0  0  0  0  0
   62.9180   31.5230   51.4700 H   0  0  0  0  0  0  0  0  0  0  0  0
   61.1333   33.0137   52.3178 H   0  0  0  0  0  0  0  0  0  0  0  0
   62.2066   33.5519   50.9418 H   0  0  0  0  0  0  0  0  0  0  0  0
   59.3351   32.5394   50.7360 H   0  0  0  0  0  0  0  0  0  0  0  0
   59.9227   34.2196   50.4691 H   0  0  0  0  0  0  0  0  0  0  0  0
   59.4738   31.3543   46.5353 H   0  0  0  0  0  0  0  0  0  0  0  0
   58.3130   32.5336   45.8365 H   0  0  0  0  0  0  0  0  0  0  0  0
   60.0722   32.8971   45.8365 H   0  0  0  0  0  0  0  0  0  0  0  0
   59.9372   30.8116   49.2513 H   0  0  0  0  0  0  0  0  0  0  0  0
   60.9666   31.1552   47.8153 H   0  0  0  0  0  0  0  0  0  0  0  0
   62.2062   29.9831   49.6540 H   0  0  0  0  0  0  0  0  0  0  0  0
   62.8787   31.6281   49.2463 H   0  0  0  0  0  0  0  0  0  0  0  0
   59.9078   32.3191   53.3748 H   0  0  0  0  0  0  0  0  0  0  0  0
  1  2  2  0
  2  3  1  0
  3  4  2  3
  4  5  1  0
  5  6  1  0
  6  7  1  0
  7  8  2  0
  7  9  1  0
  9 10  1  0
 10 11  1  0
  3 12  1  0
 12 13  2  0
 13 14  1  0
 13 15  1  0
 15 16  1  0
 16 17  2  0
 17 18  1  0
 18 19  2  0
 19 20  1  0
 20 21  2  0
 20 22  1  0
 22 23  1  0
 23 24  1  0
 24 25  1  0
 25 26  1  0
 26 27  1  0
 26 28  2  0
 26 29  2  0
 25 30  1  0
 30 31  1  0
 19 32  1  0
 32 33  2  0
 33 34  1  0
 15  2  1  0
 33 16  1  0
 10  5  2  0
 31 22  1  0
  1 35  1  0
  1 36  1  0
  4 37  1  0
 12 38  1  0
 14 39  1  0
 14 40  1  0
 14 41  1  0
 17 42  1  0
 18 43  1  0
 22 44  1  0
 23 45  1  0
 23 46  1  0
 24 47  1  0
 24 48  1  0
 27 49  1  0
 27 50  1  0
 27 51  1  0
 30 52  1  0
 30 53  1  0
 31 54  1  0
 31 55  1  0
 32 56  1  0
M  CHG  4   6  -1   9  -1  11  -1  22   1
M  END
>  <UniqueID>  (46) 
45

>  <SMILES>  (46) 
C=c1c(=Cc2[n-]c(=O)[n-]c2[O-])cc(C)n1-c1ccc(C(=O)[NH+]2CCN(S(C)(=O)=O)CC2)cc1F

>  <Energy>  (46) 
144.6505052577221

>  <Genealogy>  (46) 
C=c1c(=Cc2[n-]c(=O)[n-]c2[O-])cc(C)n1-c1ccc(C(=O)[NH+]2CCN(S(C)(=O)=O)CC2)cc1F (protonated)
C=c1c(=Cc2[n-]c(=O)[n-]c2[O-])cc(C)n1-c1ccc(C(=O)[NH+]2CCN(S(C)(=O)=O)CC2)cc1F (3D coordinates assigned)
C=c1c(=Cc2[n-]c(=O)[n-]c2[O-])cc(C)n1-c1ccc(C(=O)[NH+]2CCN(S(C)(=O)=O)CC2)cc1F (nonaromatic ring conformer: 144.6505052577221 kcal/mol)

>  <smiles>  (46) 
C=c1c(=Cc2[nH]c(=O)[nH]c2O)cc(C)n1-c1ccc(C(=O)N2CCN(S(C)(=O)=O)CC2)cc1F

>  <score_type>  (46) 
oracle

>  <origin>  (46) 
adg

>  <m_score__min__energy>  (46) 
-15.289999999999999

>  <m_primary>  (46) 
energy

$$$$
46:0
     RDKit          3D

 46 49  0  0  0  0  0  0  0  0999 V2000
   60.3200   29.4740   45.0350 C   0  0  0  0  0  0  0  0  0  0  0  0
   59.7340   29.3500   46.2350 C   0  0  0  0  0  0  0  0  0  0  0  0
   58.8490   28.3400   46.6280 C   0  0  0  0  0  0  0  0  0  0  0  0
   58.4460   27.2800   45.9000 C   0  0  0  0  0  0  0  0  0  0  0  0
   57.1380   26.6200   46.0600 C   0  0  0  0  0  0  0  0  0  0  0  0
   57.0010   25.3360   46.4300 N   0  0  0  0  0  0  0  0  0  0  0  0
   55.6670   25.1320   46.3690 C   0  0  0  0  0  0  0  0  0  0  0  0
   55.1350   24.0290   46.6620 O   0  0  0  0  0  0  0  0  0  0  0  0
   54.9490   26.1980   45.9580 N   0  0  0  0  0  0  0  0  0  0  0  0
   55.8950   27.1290   45.7550 C   0  0  0  0  0  0  0  0  0  0  0  0
   55.6280   28.3980   45.2550 O   0  0  0  0  0  0  0  0  0  0  0  0
   58.5180   28.6040   47.9510 C   0  0  0  0  0  0  0  0  0  0  0  0
   59.1880   29.7560   48.3040 C   0  0  0  0  0  0  0  0  0  0  0  0
   59.1320   30.3860   49.6630 C   0  0  0  0  0  0  0  0  0  0  0  0
   59.9420   30.2010   47.2720 N   0  0  0  0  0  0  0  0  0  0  0  0
   60.8050   31.3530   47.2930 C   0  0  0  0  0  0  0  0  0  0  0  0
   62.1960   31.1710   47.2440 C   0  0  0  0  0  0  0  0  0  0  0  0
   63.0500   32.2740   47.1710 C   0  0  0  0  0  0  0  0  0  0  0  0
   62.5220   33.5660   47.1290 C   0  0  0  0  0  0  0  0  0  0  0  0
   61.1400   33.7590   47.1770 C   0  0  0  0  0  0  0  0  0  0  0  0
   60.2730   32.6640   47.2810 C   0  0  0  0  0  0  0  0  0  0  0  0
   58.8950   32.9050   47.3410 O   0  0  0  0  0  0  0  0  0  0  0  0
   58.1460   33.3930   46.2630 C   0  0  0  0  0  0  0  0  0  0  0  0
   57.6860   34.5670   46.2960 O   0  0  0  0  0  0  0  0  0  0  0  0
   57.9090   32.5370   45.0820 C   0  0  0  0  0  0  0  0  0  0  0  0
   57.4210   31.2280   45.2320 C   0  0  0  0  0  0  0  0  0  0  0  0
   57.2260   30.4300   44.1030 C   0  0  0  0  0  0  0  0  0  0  0  0
   57.5090   30.9150   42.8630 N   0  0  0  0  0  0  0  0  0  0  0  0
   57.9840   32.1780   42.6890 C   0  0  0  0  0  0  0  0  0  0  0  0
   58.1930   33.0090   43.7910 C   0  0  0  0  0  0  0  0  0  0  0  0
   61.0019   30.3148   44.8402 H   0  0  0  0  0  0  0  0  0  0  0  0
   60.1187   28.7349   44.2456 H   0  0  0  0  0  0  0  0  0  0  0  0
   59.1353   26.8832   45.1401 H   0  0  0  0  0  0  0  0  0  0  0  0
   57.8509   28.0094   48.5924 H   0  0  0  0  0  0  0  0  0  0  0  0
   59.2016   29.6035   50.4330 H   0  0  0  0  0  0  0  0  0  0  0  0
   59.9713   31.0879   49.7766 H   0  0  0  0  0  0  0  0  0  0  0  0
   58.1821   30.9289   49.7766 H   0  0  0  0  0  0  0  0  0  0  0  0
   62.6158   30.1544   47.2632 H   0  0  0  0  0  0  0  0  0  0  0  0
   64.1395   32.1246   47.1466 H   0  0  0  0  0  0  0  0  0  0  0  0
   63.1956   34.4327   47.0580 H   0  0  0  0  0  0  0  0  0  0  0  0
   60.7292   34.7785   47.1328 H   0  0  0  0  0  0  0  0  0  0  0  0
   57.1938   30.8340   46.2336 H   0  0  0  0  0  0  0  0  0  0  0  0
   56.8422   29.4054   44.2160 H   0  0  0  0  0  0  0  0  0  0  0  0
   57.3590   30.3050   42.0290 H   0  0  0  0  0  0  0  0  0  0  0  0
   58.2042   32.5458   41.6760 H   0  0  0  0  0  0  0  0  0  0  0  0
   58.5786   34.0293   43.6483 H   0  0  0  0  0  0  0  0  0  0  0  0
  1  2  2  0
  2  3  1  0
  3  4  2  3
  4  5  1  0
  5  6  1  0
  6  7  1  0
  7  8  2  0
  7  9  1  0
  9 10  1  0
 10 11  1  0
  3 12  1  0
 12 13  2  0
 13 14  1  0
 13 15  1  0
 15 16  1  0
 16 17  2  0
 17 18  1  0
 18 19  2  0
 19 20  1  0
 20 21  2  0
 21 22  1  0
 22 23  1  0
 23 24  2  0
 23 25  1  0
 25 26  2  0
 26 27  1  0
 27 28  2  0
 28 29  1  0
 29 30  2  0
 15  2  1  0
 21 16  1  0
 30 25  1  0
 10  5  2  0
  1 31  1  0
  1 32  1  0
  4 33  1  0
 12 34  1  0
 14 35  1  0
 14 36  1  0
 14 37  1  0
 17 38  1  0
 18 39  1  0
 19 40  1  0
 20 41  1  0
 26 42  1  0
 27 43  1  0
 28 44  1  0
 29 45  1  0
 30 46  1  0
M  CHG  4   6  -1   9  -1  11  -1  28   1
M  END
>  <UniqueID>  (47) 
46

>  <SMILES>  (47) 
C=c1c(=Cc2[n-]c(=O)[n-]c2[O-])cc(C)n1-c1ccccc1OC(=O)c1cc[nH+]cc1

>  <Energy>  (47) 
126.2040565373409

>  <Genealogy>  (47) 
C=c1c(=Cc2[n-]c(=O)[n-]c2[O-])cc(C)n1-c1ccccc1OC(=O)c1cc[nH+]cc1 (protonated)
C=c1c(=Cc2[n-]c(=O)[n-]c2[O-])cc(C)n1-c1ccccc1OC(=O)c1cc[nH+]cc1 (3D coordinates assigned)
C=c1c(=Cc2[n-]c(=O)[n-]c2[O-])cc(C)n1-c1ccccc1OC(=O)c1cc[nH+]cc1 (optimized conformer: 126.2040565373409 kcal/mol)

>  <smiles>  (47) 
C=c1c(=Cc2[nH]c(=O)[nH]c2O)cc(C)n1-c1ccccc1OC(=O)c1ccncc1

>  <score_type>  (47) 
oracle

>  <origin>  (47) 
adg

>  <m_score__min__energy>  (47) 
-15.6

>  <m_primary>  (47) 
energy

$$$$
47:0
     RDKit          3D

 37 40  0  0  0  0  0  0  0  0999 V2000
   58.2370   29.3108   43.0769 H   0  0  0  0  0  0  0  0  0  0  0  0
   58.4060   29.6360   44.1140 C   0  0  0  0  0  0  0  0  0  0  0  0
   58.5550   30.8780   44.4740 N   0  0  0  0  0  0  0  0  0  0  0  0
   58.7530   30.8670   45.8840 C   0  0  0  0  0  0  0  0  0  0  0  0
   58.9360   31.9740   46.7100 C   0  0  0  0  0  0  0  0  0  0  0  0
   58.9563   32.9923   46.2945 H   0  0  0  0  0  0  0  0  0  0  0  0
   59.0940   31.7530   48.0900 C   0  0  0  0  0  0  0  0  0  0  0  0
   59.2444   32.6076   48.7661 H   0  0  0  0  0  0  0  0  0  0  0  0
   59.0610   30.4420   48.6140 C   0  0  0  0  0  0  0  0  0  0  0  0
   59.2130   30.2380   49.9800 O   0  0  0  0  0  0  0  0  0  0  0  0
   58.8740   29.3410   47.7590 C   0  0  0  0  0  0  0  0  0  0  0  0
   58.8423   28.3145   48.1531 H   0  0  0  0  0  0  0  0  0  0  0  0
   58.7300   29.5940   46.3940 C   0  0  0  0  0  0  0  0  0  0  0  0
   58.4910   28.7190   45.2630 C   0  0  0  0  0  0  0  0  0  0  0  0
   58.3950   27.3870   45.2730 C   0  0  0  0  0  0  0  0  0  0  0  0
   59.2657   26.7914   44.9613 H   0  0  0  0  0  0  0  0  0  0  0  0
   57.1690   26.6860   45.6850 C   0  0  0  0  0  0  0  0  0  0  0  0
   55.8930   27.1950   45.6190 C   0  0  0  0  0  0  0  0  0  0  0  0
   55.5580   28.4870   45.2340 O   0  0  0  0  0  0  0  0  0  0  0  0
   54.9900   26.2650   45.9810 N   0  0  0  0  0  0  0  0  0  0  0  0
   55.7550   25.1830   46.2430 C   0  0  0  0  0  0  0  0  0  0  0  0
   55.2670   24.0800   46.6050 O   0  0  0  0  0  0  0  0  0  0  0  0
   57.0800   25.3920   46.0630 N   0  0  0  0  0  0  0  0  0  0  0  0
   58.1520   24.3920   46.1730 C   0  0  0  0  0  0  0  0  0  0  0  0
   59.0598   24.7839   45.6910 H   0  0  0  0  0  0  0  0  0  0  0  0
   58.3359   24.1925   47.2390 H   0  0  0  0  0  0  0  0  0  0  0  0
   57.7580   23.0980   45.5040 C   0  0  0  0  0  0  0  0  0  0  0  0
   57.7590   23.0030   44.1010 C   0  0  0  0  0  0  0  0  0  0  0  0
   58.0735   23.8655   43.4950 H   0  0  0  0  0  0  0  0  0  0  0  0
   57.3630   21.8200   43.4720 C   0  0  0  0  0  0  0  0  0  0  0  0
   57.3584   21.7565   42.3738 H   0  0  0  0  0  0  0  0  0  0  0  0
   56.9730   20.7180   44.2360 C   0  0  0  0  0  0  0  0  0  0  0  0
   56.6595   19.7878   43.7396 H   0  0  0  0  0  0  0  0  0  0  0  0
   56.9810   20.7970   45.6320 C   0  0  0  0  0  0  0  0  0  0  0  0
   56.6781   19.9263   46.2321 H   0  0  0  0  0  0  0  0  0  0  0  0
   57.3730   21.9800   46.2680 C   0  0  0  0  0  0  0  0  0  0  0  0
   57.3740   22.0360   47.6580 O   0  0  0  0  0  0  0  0  0  0  0  0
  1  2  1  0
  2  3  2  0
  3  4  1  0
  4  5  2  0
  5  6  1  0
  5  7  1  0
  7  8  1  0
  7  9  2  0
  9 10  1  0
  9 11  1  0
 11 12  1  0
 11 13  2  0
 13 14  1  0
 14 15  2  0
 15 16  1  0
 15 17  1  0
 17 18  2  0
 18 19  1  0
 18 20  1  0
 20 21  1  0
 21 22  2  0
 21 23  1  0
 23 24  1  0
 24 25  1  0
 24 26  1  0
 24 27  1  0
 27 28  2  0
 28 29  1  0
 28 30  1  0
 30 31  1  0
 30 32  2  0
 32 33  1  0
 32 34  1  0
 34 35  1  0
 34 36  2  0
 36 37  1  0
 14  2  1  0
 23 17  1  0
 36 27  1  0
 13  4  1  0
M  CHG  4  10  -1  19  -1  20  -1  37  -1
M  END
>  <UniqueID>  (48) 
47

>  <SMILES>  (48) 
O=c1[n-]c([O-])c(/C=C2\C=Nc3ccc([O-])cc32)n1Cc1ccccc1[O-]

>  <Energy>  (48) 
109.13081922629748

>  <Genealogy>  (48) 
O=c1[n-]c([O-])c(C=C2C=Nc3ccc([O-])cc32)n1Cc1ccccc1[O-] (protonated)
O=c1[n-]c([O-])c(/C=C2\C=Nc3ccc([O-])cc32)n1Cc1ccccc1[O-] (cis-trans isomerization)
O=c1[n-]c([O-])c(/C=C2\C=Nc3ccc([O-])cc32)n1Cc1ccccc1[O-] (3D coordinates assigned)
O=c1[n-]c([O-])c(/C=C2\C=Nc3ccc([O-])cc32)n1Cc1ccccc1[O-] (nonaromatic ring conformer: 109.13081922629748 kcal/mol)

>  <smiles>  (48) 
O=c1[nH]c(O)c(C=C2C=Nc3ccc(O)cc32)n1Cc1ccccc1O

>  <score_type>  (48) 
oracle

>  <origin>  (48) 
adg

>  <m_score__min__energy>  (48) 
-15.35

>  <m_primary>  (48) 
energy

$$$$
48:0
     RDKit          3D

 32 33  0  0  0  0  0  0  0  0999 V2000
   59.2340   29.4060   46.9650 C   0  0  0  0  0  0  0  0  0  0  0  0
   58.1480   30.0630   46.1250 C   0  0  0  0  0  0  0  0  0  0  0  0
   57.1420   29.2230   45.5710 C   0  0  0  0  0  0  0  0  0  0  0  0
   57.1430   27.7470   45.7430 C   0  0  0  0  0  0  0  0  0  0  0  0
   55.9250   27.0390   45.9570 N   0  0  0  0  0  0  0  0  0  0  0  0
   58.2320   27.1130   45.7370 O   0  0  0  0  0  0  0  0  0  0  0  0
   56.1050   29.8200   44.8460 C   0  0  0  0  0  0  0  0  0  0  0  0
   55.1840   29.1260   44.3370 O   0  0  0  0  0  0  0  0  0  0  0  0
   56.0900   31.1560   44.6700 N   0  0  0  0  0  0  0  0  0  0  0  0
   57.0550   31.9590   45.1720 C   0  0  0  0  0  0  0  0  0  0  0  0
   56.9590   33.1990   44.9610 O   0  0  0  0  0  0  0  0  0  0  0  0
   58.1070   31.4360   45.8940 N   0  0  0  0  0  0  0  0  0  0  0  0
   59.1310   32.3750   46.4410 C   0  0  0  0  0  0  0  0  0  0  0  0
   58.8020   32.8200   47.8970 C   0  0  0  0  0  0  0  0  0  0  0  0
   59.2790   34.2350   48.2440 C   0  0  0  0  0  0  0  0  0  0  0  0
   60.4120   34.6290   47.4040 N   0  0  0  0  0  0  0  0  0  0  0  0
   59.9520   34.8090   46.0240 C   0  0  0  0  0  0  0  0  0  0  0  0
   59.4880   33.4810   45.4060 C   0  0  0  0  0  0  0  0  0  0  0  0
   59.0059   29.5440   48.0322 H   0  0  0  0  0  0  0  0  0  0  0  0
   59.2756   28.3311   46.7349 H   0  0  0  0  0  0  0  0  0  0  0  0
   60.2054   29.8681   46.7349 H   0  0  0  0  0  0  0  0  0  0  0  0
   55.1430   27.0940   45.2680 H   0  0  0  0  0  0  0  0  0  0  0  0
   60.0870   31.8488   46.5794 H   0  0  0  0  0  0  0  0  0  0  0  0
   57.7110   32.7809   48.0316 H   0  0  0  0  0  0  0  0  0  0  0  0
   59.3386   32.1321   48.5669 H   0  0  0  0  0  0  0  0  0  0  0  0
   58.4514   34.9422   48.0861 H   0  0  0  0  0  0  0  0  0  0  0  0
   59.6020   34.2473   49.2954 H   0  0  0  0  0  0  0  0  0  0  0  0
   60.7520   35.5590   47.7460 H   0  0  0  0  0  0  0  0  0  0  0  0
   59.1118   35.5190   46.0173 H   0  0  0  0  0  0  0  0  0  0  0  0
   60.7934   35.1913   45.4274 H   0  0  0  0  0  0  0  0  0  0  0  0
   58.5953   33.6802   44.7950 H   0  0  0  0  0  0  0  0  0  0  0  0
   60.3354   33.0971   44.8191 H   0  0  0  0  0  0  0  0  0  0  0  0
  1  2  1  0
  2  3  2  0
  3  4  1  0
  4  5  1  0
  4  6  2  0
  3  7  1  0
  7  8  2  0
  7  9  1  0
  9 10  1  0
 10 11  2  0
 10 12  1  0
 12 13  1  0
 13 14  1  0
 14 15  1  0
 15 16  1  0
 16 17  1  0
 17 18  1  0
 12  2  1  0
 18 13  1  0
  1 19  1  0
  1 20  1  0
  1 21  1  0
  5 22  1  0
 13 23  1  0
 14 24  1  0
 14 25  1  0
 15 26  1  0
 15 27  1  0
 16 28  1  0
 17 29  1  0
 17 30  1  0
 18 31  1  0
 18 32  1  0
M  CHG  2   5  -1   9  -1
M  END
>  <UniqueID>  (49) 
48

>  <SMILES>  (49) 
Cc1c(C([NH-])=O)c(=O)[n-]c(=O)n1C1CCNCC1

>  <Energy>  (49) 
59.274590514351964

>  <Genealogy>  (49) 
Cc1c(C([NH-])=O)c(=O)[n-]c(=O)n1C1CCNCC1 (protonated)
Cc1c(C([NH-])=O)c(=O)[n-]c(=O)n1C1CCNCC1 (3D coordinates assigned)
Cc1c(C([NH-])=O)c(=O)[n-]c(=O)n1C1CCNCC1 (nonaromatic ring conformer: 59.274590514351964 kcal/mol)

>  <smiles>  (49) 
Cc1c(C(N)=O)c(=O)[nH]c(=O)n1C1CCNCC1

>  <score_type>  (49) 
oracle

>  <origin>  (49) 
adg

>  <m_score__min__energy>  (49) 
-10.31

>  <m_primary>  (49) 
energy

$$$$
49:0
     RDKit          3D

 55 58  0  0  0  0  0  0  0  0999 V2000
   58.8350   35.0660   44.8820 O   0  0  0  0  0  0  0  0  0  0  0  0
   59.0930   34.1160   45.6690 C   0  0  0  0  0  0  0  0  0  0  0  0
   58.4190   32.7860   45.4560 C   0  0  0  0  0  0  0  0  0  0  0  0
   57.4280   32.8520   44.2940 C   0  0  0  0  0  0  0  0  0  0  0  0
   57.7180   31.7880   43.3320 N   0  0  0  0  0  0  0  0  0  0  0  0
   56.8070   30.3660   43.7380 S   0  0  0  0  0  0  0  0  0  0  0  0
   55.5620   30.7540   44.4890 O   0  0  0  0  0  0  0  0  0  0  0  0
   56.4040   29.6620   42.4750 O   0  0  0  0  0  0  0  0  0  0  0  0
   57.7930   29.2780   44.7110 C   0  0  0  0  0  0  0  0  0  0  0  0
   58.1570   28.0140   44.2210 C   0  0  0  0  0  0  0  0  0  0  0  0
   58.9050   27.1410   45.0170 C   0  0  0  0  0  0  0  0  0  0  0  0
   59.2970   27.5260   46.3030 C   0  0  0  0  0  0  0  0  0  0  0  0
   58.9280   28.7840   46.8000 C   0  0  0  0  0  0  0  0  0  0  0  0
   58.1740   29.6570   46.0060 C   0  0  0  0  0  0  0  0  0  0  0  0
   59.2870   29.1380   48.1410 N   0  0  0  0  0  0  0  0  0  0  0  0
   60.0870   28.2480   48.9250 C   0  0  0  0  0  0  0  0  0  0  0  0
   60.3010   28.5000   50.1400 O   0  0  0  0  0  0  0  0  0  0  0  0
   60.7380   27.0580   48.2780 C   0  0  0  0  0  0  0  0  0  0  0  0
   60.0330   26.6430   47.1040 O   0  0  0  0  0  0  0  0  0  0  0  0
   59.9330   34.3670   46.8020 N   0  0  0  0  0  0  0  0  0  0  0  0
   61.0590   33.5760   47.2120 C   0  0  0  0  0  0  0  0  0  0  0  0
   62.3430   33.8370   46.6970 C   0  0  0  0  0  0  0  0  0  0  0  0
   63.4450   33.1000   47.1350 C   0  0  0  0  0  0  0  0  0  0  0  0
   63.2830   32.1070   48.1020 C   0  0  0  0  0  0  0  0  0  0  0  0
   62.0190   31.8580   48.6450 C   0  0  0  0  0  0  0  0  0  0  0  0
   60.9030   32.6000   48.2200 C   0  0  0  0  0  0  0  0  0  0  0  0
   59.5740   32.3200   48.8040 C   0  0  0  0  0  0  0  0  0  0  0  0
   58.6870   31.7890   48.0810 O   0  0  0  0  0  0  0  0  0  0  0  0
   59.2720   32.6490   50.1720 N   0  0  0  0  0  0  0  0  0  0  0  0
   58.0320   32.2540   50.8200 C   0  0  0  0  0  0  0  0  0  0  0  0
   58.1070   32.8260   52.2300 C   0  0  0  0  0  0  0  0  0  0  0  0
   59.1700   33.9210   52.1720 C   0  0  0  0  0  0  0  0  0  0  0  0
   60.0510   33.5760   50.9800 C   0  0  0  0  0  0  0  0  0  0  0  0
   59.1836   32.0271   45.2336 H   0  0  0  0  0  0  0  0  0  0  0  0
   57.8681   32.5226   46.3709 H   0  0  0  0  0  0  0  0  0  0  0  0
   56.4053   32.7269   44.6791 H   0  0  0  0  0  0  0  0  0  0  0  0
   57.5199   33.8276   43.7941 H   0  0  0  0  0  0  0  0  0  0  0  0
   57.8532   27.7095   43.2086 H   0  0  0  0  0  0  0  0  0  0  0  0
   59.1855   26.1499   44.6310 H   0  0  0  0  0  0  0  0  0  0  0  0
   57.8802   30.6415   46.3989 H   0  0  0  0  0  0  0  0  0  0  0  0
   58.9420   30.0300   48.5630 H   0  0  0  0  0  0  0  0  0  0  0  0
   61.7688   27.3227   48.0000 H   0  0  0  0  0  0  0  0  0  0  0  0
   60.7254   26.2263   48.9978 H   0  0  0  0  0  0  0  0  0  0  0  0
   62.4790   34.6273   45.9441 H   0  0  0  0  0  0  0  0  0  0  0  0
   64.4423   33.3024   46.7173 H   0  0  0  0  0  0  0  0  0  0  0  0
   64.1506   31.5197   48.4373 H   0  0  0  0  0  0  0  0  0  0  0  0
   61.8969   31.0766   49.4096 H   0  0  0  0  0  0  0  0  0  0  0  0
   57.1678   32.6707   50.2819 H   0  0  0  0  0  0  0  0  0  0  0  0
   57.9079   31.1611   50.8299 H   0  0  0  0  0  0  0  0  0  0  0  0
   57.1354   33.2491   52.5251 H   0  0  0  0  0  0  0  0  0  0  0  0
   58.3588   32.0526   52.9705 H   0  0  0  0  0  0  0  0  0  0  0  0
   58.6997   34.9051   52.0294 H   0  0  0  0  0  0  0  0  0  0  0  0
   59.7507   33.9733   53.1048 H   0  0  0  0  0  0  0  0  0  0  0  0
   60.2884   34.4820   50.4032 H   0  0  0  0  0  0  0  0  0  0  0  0
   61.0082   33.1353   51.2956 H   0  0  0  0  0  0  0  0  0  0  0  0
  1  2  2  0
  2  3  1  0
  3  4  1  0
  4  5  1  0
  5  6  1  0
  6  7  2  0
  6  8  2  0
  6  9  1  0
  9 10  2  0
 10 11  1  0
 11 12  2  0
 12 13  1  0
 13 14  2  0
 13 15  1  0
 15 16  1  0
 16 17  2  0
 16 18  1  0
 18 19  1  0
  2 20  1  0
 20 21  1  0
 21 22  2  0
 22 23  1  0
 23 24  2  0
 24 25  1  0
 25 26  2  0
 26 27  1  0
 27 28  2  0
 27 29  1  0
 29 30  1  0
 30 31  1  0
 31 32  1  0
 32 33  1  0
 14  9  1  0
 26 21  1  0
 33 29  1  0
 19 12  1  0
  3 34  1  0
  3 35  1  0
  4 36  1  0
  4 37  1  0
 10 38  1  0
 11 39  1  0
 14 40  1  0
 15 41  1  0
 18 42  1  0
 18 43  1  0
 22 44  1  0
 23 45  1  0
 24 46  1  0
 25 47  1  0
 30 48  1  0
 30 49  1  0
 31 50  1  0
 31 51  1  0
 32 52  1  0
 32 53  1  0
 33 54  1  0
 33 55  1  0
M  CHG  2   5  -1  20  -1
M  END
>  <UniqueID>  (50) 
49

>  <SMILES>  (50) 
O=C(CC[N-]S(=O)(=O)c1ccc2c(c1)NC(=O)CO2)[N-]c1ccccc1C(=O)N1CCCC1

>  <Energy>  (50) 
64.13490367513849

>  <Genealogy>  (50) 
O=C(CC[N-]S(=O)(=O)c1ccc2c(c1)NC(=O)CO2)[N-]c1ccccc1C(=O)N1CCCC1 (protonated)
O=C(CC[N-]S(=O)(=O)c1ccc2c(c1)NC(=O)CO2)[N-]c1ccccc1C(=O)N1CCCC1 (3D coordinates assigned)
O=C(CC[N-]S(=O)(=O)c1ccc2c(c1)NC(=O)CO2)[N-]c1ccccc1C(=O)N1CCCC1 (nonaromatic ring conformer: 64.13490367513849 kcal/mol)

>  <smiles>  (50) 
O=C1COc2ccc(S(=O)(=O)NCCC(=O)Nc3ccccc3C(=O)N3CCCC3)cc2N1

>  <score_type>  (50) 
oracle

>  <origin>  (50) 
adg

>  <m_score__min__energy>  (50) 
-13.050000000000001

>  <m_primary>  (50) 
energy

$$$$
50:0
     RDKit          3D

 46 49  0  0  0  0  0  0  0  0999 V2000
   65.4290   32.6370   50.9690 C   0  0  0  0  0  0  0  0  0  0  0  0
   64.1970   32.9300   50.1660 C   0  0  0  0  0  0  0  0  0  0  0  0
   64.2810   33.0360   48.7590 C   0  0  0  0  0  0  0  0  0  0  0  0
   63.1300   33.2820   47.9940 C   0  0  0  0  0  0  0  0  0  0  0  0
   61.9050   33.4060   48.6540 C   0  0  0  0  0  0  0  0  0  0  0  0
   61.8170   33.2990   50.0150 C   0  0  0  0  0  0  0  0  0  0  0  0
   62.9450   33.0540   50.7990 C   0  0  0  0  0  0  0  0  0  0  0  0
   60.4120   33.4950   50.4690 C   0  0  0  0  0  0  0  0  0  0  0  0
   59.6450   33.7750   49.1550 C   0  0  0  0  0  0  0  0  0  0  0  0
   60.6340   33.6720   48.0850 N   0  0  0  0  0  0  0  0  0  0  0  0
   60.2760   33.9830   46.4140 S   0  0  0  0  0  0  0  0  0  0  0  0
   59.7630   35.3850   46.2410 O   0  0  0  0  0  0  0  0  0  0  0  0
   61.5470   33.8410   45.6250 O   0  0  0  0  0  0  0  0  0  0  0  0
   59.0850   32.8270   45.8240 C   0  0  0  0  0  0  0  0  0  0  0  0
   58.7120   31.7300   46.6120 C   0  0  0  0  0  0  0  0  0  0  0  0
   57.7740   30.8080   46.1400 C   0  0  0  0  0  0  0  0  0  0  0  0
   57.2040   30.9620   44.8650 C   0  0  0  0  0  0  0  0  0  0  0  0
   56.2210   29.9790   44.3470 C   0  0  0  0  0  0  0  0  0  0  0  0
   55.8440   30.0580   43.1480 O   0  0  0  0  0  0  0  0  0  0  0  0
   55.6440   28.9650   45.1810 N   0  0  0  0  0  0  0  0  0  0  0  0
   56.2840   27.7580   45.6170 C   0  0  0  0  0  0  0  0  0  0  0  0
   57.6790   27.6210   45.6200 C   0  0  0  0  0  0  0  0  0  0  0  0
   58.2320   26.4150   46.0520 C   0  0  0  0  0  0  0  0  0  0  0  0
   59.4840   26.2700   46.0820 O   0  0  0  0  0  0  0  0  0  0  0  0
   57.4200   25.3940   46.4410 N   0  0  0  0  0  0  0  0  0  0  0  0
   56.0670   25.5350   46.4070 C   0  0  0  0  0  0  0  0  0  0  0  0
   55.3230   24.5810   46.7590 O   0  0  0  0  0  0  0  0  0  0  0  0
   55.5130   26.7050   45.9940 N   0  0  0  0  0  0  0  0  0  0  0  0
   57.5600   32.0780   44.0890 C   0  0  0  0  0  0  0  0  0  0  0  0
   58.4950   33.0020   44.5660 C   0  0  0  0  0  0  0  0  0  0  0  0
   65.1899   32.6939   52.0412 H   0  0  0  0  0  0  0  0  0  0  0  0
   65.7926   31.6273   50.7274 H   0  0  0  0  0  0  0  0  0  0  0  0
   66.2082   33.3749   50.7274 H   0  0  0  0  0  0  0  0  0  0  0  0
   65.2550   32.9250   48.2601 H   0  0  0  0  0  0  0  0  0  0  0  0
   63.1912   33.3750   46.8997 H   0  0  0  0  0  0  0  0  0  0  0  0
   62.8580   32.9594   51.8915 H   0  0  0  0  0  0  0  0  0  0  0  0
   60.0284   32.5902   50.9633 H   0  0  0  0  0  0  0  0  0  0  0  0
   60.3086   34.3043   51.2068 H   0  0  0  0  0  0  0  0  0  0  0  0
   58.8472   33.0314   49.0116 H   0  0  0  0  0  0  0  0  0  0  0  0
   59.1670   34.7656   49.1694 H   0  0  0  0  0  0  0  0  0  0  0  0
   59.1599   31.5939   47.6074 H   0  0  0  0  0  0  0  0  0  0  0  0
   57.4799   29.9561   46.7707 H   0  0  0  0  0  0  0  0  0  0  0  0
   58.3247   28.4475   45.2885 H   0  0  0  0  0  0  0  0  0  0  0  0
   57.8390   24.4910   46.7610 H   0  0  0  0  0  0  0  0  0  0  0  0
   57.1005   32.2257   43.1005 H   0  0  0  0  0  0  0  0  0  0  0  0
   58.7686   33.8711   43.9497 H   0  0  0  0  0  0  0  0  0  0  0  0
  1  2  1  0
  2  3  2  0
  3  4  1  0
  4  5  2  0
  5  6  1  0
  6  7  2  0
  6  8  1  0
  8  9  1  0
  9 10  1  0
 10 11  1  0
 11 12  2  0
 11 13  2  0
 11 14  1  0
 14 15  2  0
 15 16  1  0
 16 17  2  0
 17 18  1  0
 18 19  2  0
 18 20  1  0
 20 21  1  0
 21 22  2  0
 22 23  1  0
 23 24  2  0
 23 25  1  0
 25 26  1  0
 26 27  2  0
 26 28  1  0
 17 29  1  0
 29 30  2  0
  7  2  1  0
 30 14  1  0
 10  5  1  0
 28 21  1  0
  1 31  1  0
  1 32  1  0
  1 33  1  0
  3 34  1  0
  4 35  1  0
  7 36  1  0
  8 37  1  0
  8 38  1  0
  9 39  1  0
  9 40  1  0
 15 41  1  0
 16 42  1  0
 22 43  1  0
 25 44  1  0
 29 45  1  0
 30 46  1  0
M  CHG  2  20  -1  28  -1
M  END
>  <UniqueID>  (51) 
50

>  <SMILES>  (51) 
Cc1ccc2c(c1)CCN2S(=O)(=O)c1ccc(C(=O)[N-]c2cc(=O)[nH]c(=O)[n-]2)cc1

>  <Energy>  (51) 
73.51437193982095

>  <Genealogy>  (51) 
Cc1ccc2c(c1)CCN2S(=O)(=O)c1ccc(C(=O)[N-]c2cc(=O)[nH]c(=O)[n-]2)cc1 (protonated)
Cc1ccc2c(c1)CCN2S(=O)(=O)c1ccc(C(=O)[N-]c2cc(=O)[nH]c(=O)[n-]2)cc1 (3D coordinates assigned)
Cc1ccc2c(c1)CCN2S(=O)(=O)c1ccc(C(=O)[N-]c2cc(=O)[nH]c(=O)[n-]2)cc1 (nonaromatic ring conformer: 73.51437193982095 kcal/mol)

>  <smiles>  (51) 
Cc1ccc2c(c1)CCN2S(=O)(=O)c1ccc(C(=O)Nc2cc(=O)[nH]c(=O)[nH]2)cc1

>  <score_type>  (51) 
oracle

>  <origin>  (51) 
adg

>  <m_score__min__energy>  (51) 
-14.32

>  <m_primary>  (51) 
energy

$$$$
51:0
     RDKit          3D

 51 54  0  0  0  0  0  0  0  0999 V2000
   58.1640   32.6420   41.9430 C   0  0  0  0  0  0  0  0  0  0  0  0
   57.7990   32.4380   43.3450 N   0  0  0  0  0  0  0  0  0  0  0  0
   57.0630   31.4280   43.8860 C   0  0  0  0  0  0  0  0  0  0  0  0
   56.3870   30.3460   43.0780 C   0  0  0  0  0  0  0  0  0  0  0  0
   55.2500   29.6650   43.8450 C   0  0  0  0  0  0  0  0  0  0  0  0
   55.7210   29.2680   45.1710 N   0  0  0  0  0  0  0  0  0  0  0  0
   57.0180   28.1210   45.0330 S   0  0  0  0  0  0  0  0  0  0  0  0
   56.5730   26.8040   45.6040 O   0  0  0  0  0  0  0  0  0  0  0  0
   57.4010   27.9370   43.5910 O   0  0  0  0  0  0  0  0  0  0  0  0
   58.4100   28.7320   45.9220 C   0  0  0  0  0  0  0  0  0  0  0  0
   59.3090   29.6190   45.3090 C   0  0  0  0  0  0  0  0  0  0  0  0
   60.4140   30.1020   46.0170 C   0  0  0  0  0  0  0  0  0  0  0  0
   60.6290   29.7020   47.3380 C   0  0  0  0  0  0  0  0  0  0  0  0
   59.7360   28.8230   47.9570 C   0  0  0  0  0  0  0  0  0  0  0  0
   58.6240   28.3420   47.2560 C   0  0  0  0  0  0  0  0  0  0  0  0
   57.7600   27.5010   47.8790 F   0  0  0  0  0  0  0  0  0  0  0  0
   57.0320   31.4610   45.2460 N   0  0  0  0  0  0  0  0  0  0  0  0
   57.7710   32.5420   45.5450 C   0  0  0  0  0  0  0  0  0  0  0  0
   58.0680   33.0360   46.8100 C   0  0  0  0  0  0  0  0  0  0  0  0
   58.8660   34.2020   46.8970 C   0  0  0  0  0  0  0  0  0  0  0  0
   59.2080   34.7830   48.1640 N   0  0  0  0  0  0  0  0  0  0  0  0
   60.0670   34.2060   49.1590 C   0  0  0  0  0  0  0  0  0  0  0  0
   59.6940   34.2300   50.3620 O   0  0  0  0  0  0  0  0  0  0  0  0
   61.3450   33.5420   48.8090 C   0  0  0  0  0  0  0  0  0  0  0  0
   61.9560   32.6380   49.6970 C   0  0  0  0  0  0  0  0  0  0  0  0
   63.1580   32.0120   49.3520 C   0  0  0  0  0  0  0  0  0  0  0  0
   63.7660   32.2910   48.1250 C   0  0  0  0  0  0  0  0  0  0  0  0
   63.1760   33.1990   47.2420 C   0  0  0  0  0  0  0  0  0  0  0  0
   63.7680   33.4690   46.0540 F   0  0  0  0  0  0  0  0  0  0  0  0
   61.9740   33.8270   47.5840 C   0  0  0  0  0  0  0  0  0  0  0  0
   59.3810   34.7870   45.7160 C   0  0  0  0  0  0  0  0  0  0  0  0
   59.0710   34.2510   44.4520 C   0  0  0  0  0  0  0  0  0  0  0  0
   58.2440   33.1280   44.4100 C   0  0  0  0  0  0  0  0  0  0  0  0
   59.1230   33.1780   41.8880 H   0  0  0  0  0  0  0  0  0  0  0  0
   58.2599   31.6667   41.4434 H   0  0  0  0  0  0  0  0  0  0  0  0
   57.3835   33.2347   41.4434 H   0  0  0  0  0  0  0  0  0  0  0  0
   55.9753   30.7949   42.1620 H   0  0  0  0  0  0  0  0  0  0  0  0
   57.1417   29.5792   42.8488 H   0  0  0  0  0  0  0  0  0  0  0  0
   54.4084   30.3655   43.9501 H   0  0  0  0  0  0  0  0  0  0  0  0
   54.9200   28.7729   43.2926 H   0  0  0  0  0  0  0  0  0  0  0  0
   59.1437   29.9351   44.2684 H   0  0  0  0  0  0  0  0  0  0  0  0
   61.1149   30.7980   45.5329 H   0  0  0  0  0  0  0  0  0  0  0  0
   61.5017   30.0791   47.8914 H   0  0  0  0  0  0  0  0  0  0  0  0
   59.9073   28.5086   48.9971 H   0  0  0  0  0  0  0  0  0  0  0  0
   57.6943   32.5361   47.7158 H   0  0  0  0  0  0  0  0  0  0  0  0
   61.4858   32.4224   50.6678 H   0  0  0  0  0  0  0  0  0  0  0  0
   63.6255   31.2992   50.0472 H   0  0  0  0  0  0  0  0  0  0  0  0
   64.7099   31.7953   47.8541 H   0  0  0  0  0  0  0  0  0  0  0  0
   61.5177   34.5485   46.8903 H   0  0  0  0  0  0  0  0  0  0  0  0
   60.0314   35.6713   45.7866 H   0  0  0  0  0  0  0  0  0  0  0  0
   59.4667   34.7015   43.5298 H   0  0  0  0  0  0  0  0  0  0  0  0
  1  2  1  0
  2  3  1  0
  3  4  1  0
  4  5  1  0
  5  6  1  0
  6  7  1  0
  7  8  2  0
  7  9  2  0
  7 10  1  0
 10 11  2  0
 11 12  1  0
 12 13  2  0
 13 14  1  0
 14 15  2  0
 15 16  1  0
  3 17  2  0
 17 18  1  0
 18 19  2  0
 19 20  1  0
 20 21  1  0
 21 22  1  0
 22 23  2  0
 22 24  1  0
 24 25  2  0
 25 26  1  0
 26 27  2  0
 27 28  1  0
 28 29  1  0
 28 30  2  0
 20 31  2  0
 31 32  1  0
 32 33  2  0
 33  2  1  0
 15 10  1  0
 33 18  1  0
 30 24  1  0
  1 34  1  0
  1 35  1  0
  1 36  1  0
  4 37  1  0
  4 38  1  0
  5 39  1  0
  5 40  1  0
 11 41  1  0
 12 42  1  0
 13 43  1  0
 14 44  1  0
 19 45  1  0
 25 46  1  0
 26 47  1  0
 27 48  1  0
 30 49  1  0
 31 50  1  0
 32 51  1  0
M  CHG  2   6  -1  21  -1
M  END
>  <UniqueID>  (52) 
51

>  <SMILES>  (52) 
Cn1c(CC[N-]S(=O)(=O)c2ccccc2F)nc2cc([N-]C(=O)c3cccc(F)c3)ccc21

>  <Energy>  (52) 
94.98234259969021

>  <Genealogy>  (52) 
Cn1c(CC[N-]S(=O)(=O)c2ccccc2F)nc2cc([N-]C(=O)c3cccc(F)c3)ccc21 (protonated)
Cn1c(CC[N-]S(=O)(=O)c2ccccc2F)nc2cc([N-]C(=O)c3cccc(F)c3)ccc21 (3D coordinates assigned)
Cn1c(CC[N-]S(=O)(=O)c2ccccc2F)nc2cc([N-]C(=O)c3cccc(F)c3)ccc21 (optimized conformer: 94.98234259969021 kcal/mol)

>  <smiles>  (52) 
Cn1c(CCNS(=O)(=O)c2ccccc2F)nc2cc(NC(=O)c3cccc(F)c3)ccc21

>  <score_type>  (52) 
oracle

>  <origin>  (52) 
adg

>  <m_score__min__energy>  (52) 
-12.67

>  <m_primary>  (52) 
energy

$$$$
52:0
     RDKit          3D

 75 79  0  0  0  0  0  0  0  0999 V2000
   59.7100   25.0150   52.3600 C   0  0  0  0  0  0  0  0  0  0  0  0
   61.0250   24.7500   52.3760 C   0  0  0  0  0  0  0  0  0  0  0  0
   61.6190   23.5050   52.6100 C   0  0  0  0  0  0  0  0  0  0  0  0
   60.9970   22.3410   52.8790 C   0  0  0  0  0  0  0  0  0  0  0  0
   59.8890   21.7930   52.0750 C   0  0  0  0  0  0  0  0  0  0  0  0
   58.5930   22.0270   52.3470 N   0  0  0  0  0  0  0  0  0  0  0  0
   57.9430   21.4050   51.3390 C   0  0  0  0  0  0  0  0  0  0  0  0
   56.6880   21.3880   51.2520 O   0  0  0  0  0  0  0  0  0  0  0  0
   58.7440   20.8130   50.4280 N   0  0  0  0  0  0  0  0  0  0  0  0
   59.9720   21.0770   50.9000 C   0  0  0  0  0  0  0  0  0  0  0  0
   61.1410   20.7110   50.2450 O   0  0  0  0  0  0  0  0  0  0  0  0
   62.9910   23.7170   52.5820 C   0  0  0  0  0  0  0  0  0  0  0  0
   63.1800   25.0580   52.3120 C   0  0  0  0  0  0  0  0  0  0  0  0
   64.5190   25.7260   52.2240 C   0  0  0  0  0  0  0  0  0  0  0  0
   61.9890   25.6870   52.1930 N   0  0  0  0  0  0  0  0  0  0  0  0
   61.8030   27.0860   51.9130 C   0  0  0  0  0  0  0  0  0  0  0  0
   60.5460   27.5670   51.5250 C   0  0  0  0  0  0  0  0  0  0  0  0
   60.3600   28.9270   51.2640 C   0  0  0  0  0  0  0  0  0  0  0  0
   61.4350   29.8270   51.3790 C   0  0  0  0  0  0  0  0  0  0  0  0
   61.2430   31.2710   51.1120 C   0  0  0  0  0  0  0  0  0  0  0  0
   61.5670   32.1110   51.9930 O   0  0  0  0  0  0  0  0  0  0  0  0
   60.6900   31.7400   49.8670 N   0  0  0  0  0  0  0  0  0  0  0  0
   59.6920   32.8140   49.8540 C   0  0  0  0  0  0  0  0  0  0  0  0
   60.2000   33.9700   48.9950 C   0  0  0  0  0  0  0  0  0  0  0  0
   60.6420   33.4540   47.6900 N   0  0  0  0  0  0  0  0  0  0  0  0
   60.1830   34.0190   46.4420 C   0  0  0  0  0  0  0  0  0  0  0  0
   60.8910   33.8940   45.4040 O   0  0  0  0  0  0  0  0  0  0  0  0
   58.8700   34.7570   46.3600 C   0  0  0  0  0  0  0  0  0  0  0  0
   57.8310   33.9990   45.5780 C   0  0  0  0  0  0  0  0  0  0  0  0
   57.0070   34.6500   44.8790 O   0  0  0  0  0  0  0  0  0  0  0  0
   57.7800   32.5580   45.5770 N   0  0  0  0  0  0  0  0  0  0  0  0
   58.1350   31.7700   46.7620 C   0  0  0  0  0  0  0  0  0  0  0  0
   59.1270   30.6740   46.3710 C   0  0  0  0  0  0  0  0  0  0  0  0
   58.6990   29.9550   45.1560 N   0  0  0  0  0  0  0  0  0  0  0  0
   59.4240   28.7830   44.7180 C   0  0  0  0  0  0  0  0  0  0  0  0
   60.7260   28.3860   45.3510 C   0  0  0  0  0  0  0  0  0  0  0  0
   58.9630   28.0620   43.7900 O   0  0  0  0  0  0  0  0  0  0  0  0
   57.4480   30.3420   44.4810 C   0  0  0  0  0  0  0  0  0  0  0  0
   57.3400   31.8700   44.3570 C   0  0  0  0  0  0  0  0  0  0  0  0
   61.6580   32.3920   47.7070 C   0  0  0  0  0  0  0  0  0  0  0  0
   61.1760   31.2290   48.5790 C   0  0  0  0  0  0  0  0  0  0  0  0
   62.6900   29.3410   51.7860 C   0  0  0  0  0  0  0  0  0  0  0  0
   62.8720   27.9800   52.0480 C   0  0  0  0  0  0  0  0  0  0  0  0
   59.3575   26.0384   52.1638 H   0  0  0  0  0  0  0  0  0  0  0  0
   58.9842   24.2089   52.5431 H   0  0  0  0  0  0  0  0  0  0  0  0
   61.3363   21.7639   53.7518 H   0  0  0  0  0  0  0  0  0  0  0  0
   63.7753   22.9629   52.7436 H   0  0  0  0  0  0  0  0  0  0  0  0
   64.9010   25.9166   53.2378 H   0  0  0  0  0  0  0  0  0  0  0  0
   65.2202   25.0721   51.6848 H   0  0  0  0  0  0  0  0  0  0  0  0
   64.4184   26.6795   51.6848 H   0  0  0  0  0  0  0  0  0  0  0  0
   59.7007   26.8703   51.4252 H   0  0  0  0  0  0  0  0  0  0  0  0
   59.3673   29.2960   50.9669 H   0  0  0  0  0  0  0  0  0  0  0  0
   58.7487   32.4331   49.4355 H   0  0  0  0  0  0  0  0  0  0  0  0
   59.5207   33.1680   50.8813 H   0  0  0  0  0  0  0  0  0  0  0  0
   59.3902   34.6993   48.8457 H   0  0  0  0  0  0  0  0  0  0  0  0
   61.0453   34.4591   49.5013 H   0  0  0  0  0  0  0  0  0  0  0  0
   58.4933   34.9213   47.3803 H   0  0  0  0  0  0  0  0  0  0  0  0
   59.0530   35.7081   45.8386 H   0  0  0  0  0  0  0  0  0  0  0  0
   58.5940   32.4276   47.5149 H   0  0  0  0  0  0  0  0  0  0  0  0
   57.2276   31.3093   47.1796 H   0  0  0  0  0  0  0  0  0  0  0  0
   60.1095   31.1327   46.1857 H   0  0  0  0  0  0  0  0  0  0  0  0
   59.1783   29.9491   47.1968 H   0  0  0  0  0  0  0  0  0  0  0  0
   60.6257   28.4166   46.4460 H   0  0  0  0  0  0  0  0  0  0  0  0
   60.9912   27.3662   45.0354 H   0  0  0  0  0  0  0  0  0  0  0  0
   61.5151   29.0844   45.0354 H   0  0  0  0  0  0  0  0  0  0  0  0
   57.4293   29.8971   43.4752 H   0  0  0  0  0  0  0  0  0  0  0  0
   56.5996   29.9777   45.0789 H   0  0  0  0  0  0  0  0  0  0  0  0
   57.9675   32.2024   43.5169 H   0  0  0  0  0  0  0  0  0  0  0  0
   56.2821   32.1213   44.1905 H   0  0  0  0  0  0  0  0  0  0  0  0
   61.8289   32.0333   46.6813 H   0  0  0  0  0  0  0  0  0  0  0  0
   62.5957   32.7921   48.1200 H   0  0  0  0  0  0  0  0  0  0  0  0
   60.3598   30.7008   48.0644 H   0  0  0  0  0  0  0  0  0  0  0  0
   62.0126   30.5370   48.7556 H   0  0  0  0  0  0  0  0  0  0  0  0
   63.5346   30.0366   51.8990 H   0  0  0  0  0  0  0  0  0  0  0  0
   63.8593   27.6099   52.3616 H   0  0  0  0  0  0  0  0  0  0  0  0
  1  2  2  0
  2  3  1  0
  3  4  2  3
  4  5  1  0
  5  6  1  0
  6  7  1  0
  7  8  2  0
  7  9  1  0
  9 10  1  0
 10 11  1  0
  3 12  1  0
 12 13  2  0
 13 14  1  0
 13 15  1  0
 15 16  1  0
 16 17  2  0
 17 18  1  0
 18 19  2  0
 19 20  1  0
 20 21  2  0
 20 22  1  0
 22 23  1  0
 23 24  1  0
 24 25  1  0
 25 26  1  0
 26 27  2  0
 26 28  1  0
 28 29  1  0
 29 30  2  0
 29 31  1  0
 31 32  1  0
 32 33  1  0
 33 34  1  0
 34 35  1  0
 35 36  1  0
 35 37  2  0
 34 38  1  0
 38 39  1  0
 25 40  1  0
 40 41  1  0
 19 42  1  0
 42 43  2  0
 15  2  1  0
 43 16  1  0
 10  5  2  0
 41 22  1  0
 39 31  1  0
  1 44  1  0
  1 45  1  0
  4 46  1  0
 12 47  1  0
 14 48  1  0
 14 49  1  0
 14 50  1  0
 17 51  1  0
 18 52  1  0
 23 53  1  0
 23 54  1  0
 24 55  1  0
 24 56  1  0
 28 57  1  0
 28 58  1  0
 32 59  1  0
 32 60  1  0
 33 61  1  0
 33 62  1  0
 36 63  1  0
 36 64  1  0
 36 65  1  0
 38 66  1  0
 38 67  1  0
 39 68  1  0
 39 69  1  0
 40 70  1  0
 40 71  1  0
 41 72  1  0
 41 73  1  0
 42 74  1  0
 43 75  1  0
M  CHG  3   6  -1   9  -1  11  -1
M  END
>  <UniqueID>  (53) 
52

>  <SMILES>  (53) 
C=c1c(=Cc2[n-]c(=O)[n-]c2[O-])cc(C)n1-c1ccc(C(=O)N2CCN(C(=O)CC(=O)N3CCN(C(C)=O)CC3)CC2)cc1

>  <Energy>  (53) 
156.8439879355996

>  <Genealogy>  (53) 
C=c1c(=Cc2[n-]c(=O)[n-]c2[O-])cc(C)n1-c1ccc(C(=O)N2CCN(C(=O)CC(=O)N3CCN(C(C)=O)CC3)CC2)cc1 (protonated)
C=c1c(=Cc2[n-]c(=O)[n-]c2[O-])cc(C)n1-c1ccc(C(=O)N2CCN(C(=O)CC(=O)N3CCN(C(C)=O)CC3)CC2)cc1 (3D coordinates assigned)
C=c1c(=Cc2[n-]c(=O)[n-]c2[O-])cc(C)n1-c1ccc(C(=O)N2CCN(C(=O)CC(=O)N3CCN(C(C)=O)CC3)CC2)cc1 (nonaromatic ring conformer: 156.8439879355996 kcal/mol)

>  <smiles>  (53) 
C=c1c(=Cc2[nH]c(=O)[nH]c2O)cc(C)n1-c1ccc(C(=O)N2CCN(C(=O)CC(=O)N3CCN(C(C)=O)CC3)CC2)cc1

>  <score_type>  (53) 
oracle

>  <origin>  (53) 
adg

>  <m_score__min__energy>  (53) 
-16.41

>  <m_primary>  (53) 
energy

$$$$
53:0
     RDKit          3D

 51 54  0  0  0  0  0  0  0  0999 V2000
   60.0620   29.4800   47.8820 C   0  0  0  0  0  0  0  0  0  0  0  0
   59.2940   30.1230   46.9880 C   0  0  0  0  0  0  0  0  0  0  0  0
   58.7570   29.6040   45.7990 C   0  0  0  0  0  0  0  0  0  0  0  0
   58.6660   28.3380   45.3500 C   0  0  0  0  0  0  0  0  0  0  0  0
   57.5400   27.4210   45.5960 C   0  0  0  0  0  0  0  0  0  0  0  0
   57.6640   26.1550   46.0370 N   0  0  0  0  0  0  0  0  0  0  0  0
   56.3850   25.7710   46.2440 C   0  0  0  0  0  0  0  0  0  0  0  0
   56.0810   24.6200   46.6530 O   0  0  0  0  0  0  0  0  0  0  0  0
   55.4600   26.7210   45.9890 N   0  0  0  0  0  0  0  0  0  0  0  0
   56.2100   27.7640   45.5950 C   0  0  0  0  0  0  0  0  0  0  0  0
   55.6920   29.0070   45.2470 O   0  0  0  0  0  0  0  0  0  0  0  0
   58.2710   30.6900   45.0870 C   0  0  0  0  0  0  0  0  0  0  0  0
   58.4560   31.8040   45.8810 C   0  0  0  0  0  0  0  0  0  0  0  0
   58.0800   33.2030   45.4990 C   0  0  0  0  0  0  0  0  0  0  0  0
   59.0660   31.4590   47.0340 N   0  0  0  0  0  0  0  0  0  0  0  0
   59.4920   32.3750   48.0580 C   0  0  0  0  0  0  0  0  0  0  0  0
   58.9120   32.2960   49.3300 C   0  0  0  0  0  0  0  0  0  0  0  0
   59.2800   33.1940   50.3430 C   0  0  0  0  0  0  0  0  0  0  0  0
   58.6560   33.1120   51.6850 C   0  0  0  0  0  0  0  0  0  0  0  0
   58.8060   34.0700   52.4950 O   0  0  0  0  0  0  0  0  0  0  0  0
   57.9000   31.9550   52.0900 N   0  0  0  0  0  0  0  0  0  0  0  0
   56.4630   32.0870   52.3690 C   0  0  0  0  0  0  0  0  0  0  0  0
   55.7320   30.8450   51.8680 C   0  0  0  0  0  0  0  0  0  0  0  0
   56.3470   29.6450   52.4200 N   0  0  0  0  0  0  0  0  0  0  0  0
   57.7540   29.5580   52.6560 C   0  0  0  0  0  0  0  0  0  0  0  0
   58.2600   28.4500   52.9750 O   0  0  0  0  0  0  0  0  0  0  0  0
   58.6280   30.7820   52.5940 C   0  0  0  0  0  0  0  0  0  0  0  0
   60.2630   34.1600   50.0760 C   0  0  0  0  0  0  0  0  0  0  0  0
   60.8520   34.2390   48.8120 C   0  0  0  0  0  0  0  0  0  0  0  0
   60.4800   33.3460   47.7950 C   0  0  0  0  0  0  0  0  0  0  0  0
   61.1140   33.4520   46.4350 C   0  0  0  0  0  0  0  0  0  0  0  0
   60.4197   30.0063   48.7792 H   0  0  0  0  0  0  0  0  0  0  0  0
   60.3335   28.4268   47.7173 H   0  0  0  0  0  0  0  0  0  0  0  0
   59.5039   27.9560   44.7483 H   0  0  0  0  0  0  0  0  0  0  0  0
   55.5950   29.7380   45.9410 H   0  0  0  0  0  0  0  0  0  0  0  0
   57.8238   30.6681   44.0822 H   0  0  0  0  0  0  0  0  0  0  0  0
   57.9193   33.8008   46.4083 H   0  0  0  0  0  0  0  0  0  0  0  0
   58.8897   33.6508   44.9041 H   0  0  0  0  0  0  0  0  0  0  0  0
   57.1549   33.1846   44.9041 H   0  0  0  0  0  0  0  0  0  0  0  0
   58.1593   31.5211   49.5373 H   0  0  0  0  0  0  0  0  0  0  0  0
   56.3079   32.1916   53.4530 H   0  0  0  0  0  0  0  0  0  0  0  0
   56.0697   32.9765   51.8551 H   0  0  0  0  0  0  0  0  0  0  0  0
   54.6788   30.8913   52.1820 H   0  0  0  0  0  0  0  0  0  0  0  0
   55.7942   30.8090   50.7704 H   0  0  0  0  0  0  0  0  0  0  0  0
   59.0011   31.0032   53.6049 H   0  0  0  0  0  0  0  0  0  0  0  0
   59.4558   30.5729   51.9005 H   0  0  0  0  0  0  0  0  0  0  0  0
   60.5713   34.8591   50.8673 H   0  0  0  0  0  0  0  0  0  0  0  0
   61.6135   35.0072   48.6120 H   0  0  0  0  0  0  0  0  0  0  0  0
   62.1933   33.6325   46.5467 H   0  0  0  0  0  0  0  0  0  0  0  0
   60.9542   32.5147   45.8819 H   0  0  0  0  0  0  0  0  0  0  0  0
   60.6580   34.2864   45.8819 H   0  0  0  0  0  0  0  0  0  0  0  0
  1  2  2  0
  2  3  1  0
  3  4  2  3
  4  5  1  0
  5  6  1  0
  6  7  1  0
  7  8  2  0
  7  9  1  0
  9 10  1  0
 10 11  1  0
  3 12  1  0
 12 13  2  0
 13 14  1  0
 13 15  1  0
 15 16  1  0
 16 17  2  0
 17 18  1  0
 18 19  1  0
 19 20  2  0
 19 21  1  0
 21 22  1  0
 22 23  1  0
 23 24  1  0
 24 25  1  0
 25 26  2  0
 25 27  1  0
 18 28  2  0
 28 29  1  0
 29 30  2  0
 30 31  1  0
 15  2  1  0
 30 16  1  0
 10  5  2  0
 27 21  1  0
  1 32  1  0
  1 33  1  0
  4 34  1  0
 11 35  1  0
 12 36  1  0
 14 37  1  0
 14 38  1  0
 14 39  1  0
 17 40  1  0
 22 41  1  0
 22 42  1  0
 23 43  1  0
 23 44  1  0
 27 45  1  0
 27 46  1  0
 28 47  1  0
 29 48  1  0
 31 49  1  0
 31 50  1  0
 31 51  1  0
M  CHG  3   6  -1   9  -1  24  -1
M  END
>  <UniqueID>  (54) 
53

>  <SMILES>  (54) 
C=c1c(=Cc2[n-]c(=O)[n-]c2O)cc(C)n1-c1cc(C(=O)N2CC[N-]C(=O)C2)ccc1C

>  <Energy>  (54) 
130.84904800889973

>  <Genealogy>  (54) 
C=c1c(=Cc2[n-]c(=O)[n-]c2O)cc(C)n1-c1cc(C(=O)N2CC[N-]C(=O)C2)ccc1C (protonated)
C=c1c(=Cc2[n-]c(=O)[n-]c2O)cc(C)n1-c1cc(C(=O)N2CC[N-]C(=O)C2)ccc1C (3D coordinates assigned)
C=c1c(=Cc2[n-]c(=O)[n-]c2O)cc(C)n1-c1cc(C(=O)N2CC[N-]C(=O)C2)ccc1C (nonaromatic ring conformer: 130.84904800889973 kcal/mol)

>  <smiles>  (54) 
C=c1c(=Cc2[nH]c(=O)[nH]c2O)cc(C)n1-c1cc(C(=O)N2CCNC(=O)C2)ccc1C

>  <score_type>  (54) 
oracle

>  <origin>  (54) 
adg

>  <m_score__min__energy>  (54) 
-15.15

>  <m_primary>  (54) 
energy

$$$$
54:0
     RDKit          3D

 45 47  0  0  0  0  0  0  0  0999 V2000
   58.6720   27.5390   46.1990 O   0  0  0  0  0  0  0  0  0  0  0  0
   58.4230   28.7700   46.2940 C   0  0  0  0  0  0  0  0  0  0  0  0
   58.7190   29.4390   47.5270 N   0  0  0  0  0  0  0  0  0  0  0  0
   59.9360   30.1350   47.8370 C   0  0  0  0  0  0  0  0  0  0  0  0
   60.2450   30.3940   49.1770 C   0  0  0  0  0  0  0  0  0  0  0  0
   61.4180   31.0770   49.5130 C   0  0  0  0  0  0  0  0  0  0  0  0
   62.2850   31.5170   48.5090 C   0  0  0  0  0  0  0  0  0  0  0  0
   63.7570   32.3740   48.9300 Cl  0  0  0  0  0  0  0  0  0  0  0  0
   61.9730   31.2820   47.1660 C   0  0  0  0  0  0  0  0  0  0  0  0
   60.8000   30.6000   46.8280 C   0  0  0  0  0  0  0  0  0  0  0  0
   57.8890   29.5000   45.1200 C   0  0  0  0  0  0  0  0  0  0  0  0
   58.4370   30.6700   44.7540 C   0  0  0  0  0  0  0  0  0  0  0  0
   57.9610   31.4020   43.5150 C   0  0  2  0  0  0  0  0  0  0  0  0
   58.0840   32.9300   43.6850 C   0  0  0  0  0  0  0  0  0  0  0  0
   57.3530   33.5060   44.9140 C   0  0  0  0  0  0  0  0  0  0  0  0
   58.2850   33.7600   46.0710 C   0  0  0  0  0  0  0  0  0  0  0  0
   58.0530   33.1540   47.3170 C   0  0  0  0  0  0  0  0  0  0  0  0
   58.9360   33.3680   48.3800 C   0  0  0  0  0  0  0  0  0  0  0  0
   60.0610   34.1850   48.2070 C   0  0  0  0  0  0  0  0  0  0  0  0
   60.9470   34.4040   49.2580 O   0  0  0  0  0  0  0  0  0  0  0  0
   60.2980   34.7860   46.9660 C   0  0  0  0  0  0  0  0  0  0  0  0
   59.4170   34.5730   45.9010 C   0  0  0  0  0  0  0  0  0  0  0  0
   56.6050   31.1010   43.2280 O   0  0  0  0  0  0  0  0  0  0  0  0
   56.4410   29.7060   43.0710 C   0  0  0  0  0  0  0  0  0  0  0  0
   56.6440   28.9940   44.4180 C   0  0  2  0  0  0  0  0  0  0  0  0
   55.5190   29.1690   45.2430 O   0  0  0  0  0  0  0  0  0  0  0  0
   59.5612   30.0584   49.9706 H   0  0  0  0  0  0  0  0  0  0  0  0
   61.6587   31.2683   50.5692 H   0  0  0  0  0  0  0  0  0  0  0  0
   62.6512   31.6341   46.3747 H   0  0  0  0  0  0  0  0  0  0  0  0
   60.5518   30.4264   45.7705 H   0  0  0  0  0  0  0  0  0  0  0  0
   59.2439   31.1040   45.3628 H   0  0  0  0  0  0  0  0  0  0  0  0
   58.6025   31.0648   42.6875 H   0  0  0  0  0  0  0  0  0  0  0  0
   59.1517   33.1793   43.7743 H   0  0  0  0  0  0  0  0  0  0  0  0
   57.6051   33.3787   42.8022 H   0  0  0  0  0  0  0  0  0  0  0  0
   56.8772   34.4559   44.6287 H   0  0  0  0  0  0  0  0  0  0  0  0
   56.6092   32.7639   45.2396 H   0  0  0  0  0  0  0  0  0  0  0  0
   57.1733   32.5086   47.4570 H   0  0  0  0  0  0  0  0  0  0  0  0
   58.7469   32.8938   49.3543 H   0  0  0  0  0  0  0  0  0  0  0  0
   61.0750   33.7200   49.9950 H   0  0  0  0  0  0  0  0  0  0  0  0
   61.1803   35.4282   46.8275 H   0  0  0  0  0  0  0  0  0  0  0  0
   59.6117   35.0443   44.9263 H   0  0  0  0  0  0  0  0  0  0  0  0
   55.4266   29.4987   42.6994 H   0  0  0  0  0  0  0  0  0  0  0  0
   57.1866   29.3350   42.3524 H   0  0  0  0  0  0  0  0  0  0  0  0
   56.7734   27.9205   44.2160 H   0  0  0  0  0  0  0  0  0  0  0  0
   55.7980   29.7200   46.0210 H   0  0  0  0  0  0  0  0  0  0  0  0
  1  2  2  0
  2  3  1  0
  3  4  1  0
  4  5  2  0
  5  6  1  0
  6  7  2  0
  7  8  1  0
  7  9  1  0
  9 10  2  0
  2 11  1  0
 11 12  2  0
 12 13  1  0
 13 14  1  0
 14 15  1  0
 15 16  1  0
 16 17  2  0
 17 18  1  0
 18 19  2  0
 19 20  1  0
 19 21  1  0
 21 22  2  0
 13 23  1  0
 23 24  1  0
 24 25  1  0
 25 26  1  0
 10  4  1  0
 25 11  1  0
 22 16  1  0
  5 27  1  0
  6 28  1  0
  9 29  1  0
 10 30  1  0
 12 31  1  0
 13 32  1  6
 14 33  1  0
 14 34  1  0
 15 35  1  0
 15 36  1  0
 17 37  1  0
 18 38  1  0
 20 39  1  0
 21 40  1  0
 22 41  1  0
 24 42  1  0
 24 43  1  0
 25 44  1  6
 26 45  1  0
M  CHG  1   3  -1
M  END
>  <UniqueID>  (55) 
54

>  <SMILES>  (55) 
O=C([N-]c1ccc(Cl)cc1)C1=C[C@H](CCc2ccc(O)cc2)OC[C@@H]1O

>  <Energy>  (55) 
55.05084127667475

>  <Genealogy>  (55) 
O=C([N-]c1ccc(Cl)cc1)C1=CC(CCc2ccc(O)cc2)OCC1O (protonated)
O=C([N-]c1ccc(Cl)cc1)C1=C[C@H](CCc2ccc(O)cc2)OC[C@@H]1O (chirality)
O=C([N-]c1ccc(Cl)cc1)C1=C[C@H](CCc2ccc(O)cc2)OC[C@@H]1O (3D coordinates assigned)
O=C([N-]c1ccc(Cl)cc1)C1=C[C@H](CCc2ccc(O)cc2)OC[C@@H]1O (nonaromatic ring conformer: 55.05084127667475 kcal/mol)

>  <smiles>  (55) 
O=C(Nc1ccc(Cl)cc1)C1=CC(CCc2ccc(O)cc2)OCC1O

>  <score_type>  (55) 
oracle

>  <origin>  (55) 
adg

>  <m_score__min__energy>  (55) 
-10.94

>  <m_primary>  (55) 
energy

$$$$
55:0
     RDKit          3D

 52 55  0  0  0  0  0  0  0  0999 V2000
   56.9537   32.4456   52.2018 H   0  0  0  0  0  0  0  0  0  0  0  0
   55.8890   32.2220   52.3640 C   0  0  0  0  0  0  0  0  0  0  0  0
   55.1475   33.0343   52.3462 H   0  0  0  0  0  0  0  0  0  0  0  0
   55.4940   30.9560   52.5840 C   0  0  0  0  0  0  0  0  0  0  0  0
   54.1770   30.5210   52.8060 C   0  0  0  0  0  0  0  0  0  0  0  0
   52.9970   31.1600   52.6770 C   0  0  0  0  0  0  0  0  0  0  0  0
   52.6328   31.7214   53.5501 H   0  0  0  0  0  0  0  0  0  0  0  0
   52.1540   31.1730   51.4730 C   0  0  0  0  0  0  0  0  0  0  0  0
   52.2360   30.2500   50.4980 N   0  0  0  0  0  0  0  0  0  0  0  0
   51.3940   30.7200   49.5520 C   0  0  0  0  0  0  0  0  0  0  0  0
   51.1820   30.1110   48.4710 O   0  0  0  0  0  0  0  0  0  0  0  0
   50.8050   31.8980   49.8490 N   0  0  0  0  0  0  0  0  0  0  0  0
   51.3100   32.1800   51.0610 C   0  0  0  0  0  0  0  0  0  0  0  0
   51.0260   33.3460   51.7610 O   0  0  0  0  0  0  0  0  0  0  0  0
   54.2670   29.2020   53.2090 C   0  0  0  0  0  0  0  0  0  0  0  0
   53.4342   28.5542   53.5201 H   0  0  0  0  0  0  0  0  0  0  0  0
   55.5980   28.8530   53.1470 C   0  0  0  0  0  0  0  0  0  0  0  0
   56.1320   27.5050   53.5320 C   0  0  0  0  0  0  0  0  0  0  0  0
   56.1645   27.4230   54.6285 H   0  0  0  0  0  0  0  0  0  0  0  0
   55.4765   26.7210   53.1249 H   0  0  0  0  0  0  0  0  0  0  0  0
   57.1465   27.3826   53.1249 H   0  0  0  0  0  0  0  0  0  0  0  0
   56.3520   29.9120   52.7660 N   0  0  0  0  0  0  0  0  0  0  0  0
   57.8210   29.9090   52.6580 C   0  0  0  0  0  0  0  0  0  0  0  0
   58.2379   30.6114   53.3948 H   0  0  0  0  0  0  0  0  0  0  0  0
   58.1859   28.8893   52.8507 H   0  0  0  0  0  0  0  0  0  0  0  0
   58.2590   30.3250   51.2760 C   0  0  0  0  0  0  0  0  0  0  0  0
   58.6380   29.3610   50.3290 C   0  0  0  0  0  0  0  0  0  0  0  0
   58.6333   28.2952   50.6011 H   0  0  0  0  0  0  0  0  0  0  0  0
   59.0210   29.7480   49.0430 C   0  0  0  0  0  0  0  0  0  0  0  0
   59.3039   28.9829   48.3050 H   0  0  0  0  0  0  0  0  0  0  0  0
   59.0480   31.1000   48.6850 C   0  0  0  0  0  0  0  0  0  0  0  0
   59.4070   31.4500   47.3400 N   0  0  0  0  0  0  0  0  0  0  0  0
   58.5650   32.1060   46.3840 C   0  0  0  0  0  0  0  0  0  0  0  0
   58.0100   31.4530   45.4600 O   0  0  0  0  0  0  0  0  0  0  0  0
   58.2900   33.5700   46.5210 C   0  0  0  0  0  0  0  0  0  0  0  0
   57.3119   33.7949   46.0707 H   0  0  0  0  0  0  0  0  0  0  0  0
   58.2929   33.8261   47.5908 H   0  0  0  0  0  0  0  0  0  0  0  0
   59.5750   34.5660   45.6840 S   0  0  0  0  0  0  0  0  0  0  0  0
   60.8710   34.1930   46.8700 C   0  0  0  0  0  0  0  0  0  0  0  0
   60.6290   34.3150   48.2410 C   0  0  0  0  0  0  0  0  0  0  0  0
   59.6420   34.6367   48.6047 H   0  0  0  0  0  0  0  0  0  0  0  0
   61.6540   34.0240   49.1450 C   0  0  0  0  0  0  0  0  0  0  0  0
   61.4767   34.1211   50.2263 H   0  0  0  0  0  0  0  0  0  0  0  0
   62.8700   33.6210   48.6900 N   0  0  0  0  0  0  0  0  0  0  0  0
   63.1250   33.4870   47.3610 C   0  0  0  0  0  0  0  0  0  0  0  0
   64.1188   33.1586   47.0226 H   0  0  0  0  0  0  0  0  0  0  0  0
   62.1260   33.7660   46.4250 C   0  0  0  0  0  0  0  0  0  0  0  0
   62.3246   33.6510   45.3492 H   0  0  0  0  0  0  0  0  0  0  0  0
   58.6560   32.0670   49.6280 C   0  0  0  0  0  0  0  0  0  0  0  0
   58.6510   33.1315   49.3508 H   0  0  0  0  0  0  0  0  0  0  0  0
   58.2730   31.6820   50.9150 C   0  0  0  0  0  0  0  0  0  0  0  0
   57.9806   32.4463   51.6501 H   0  0  0  0  0  0  0  0  0  0  0  0
  1  2  1  0
  2  3  1  0
  2  4  2  0
  4  5  1  0
  5  6  2  0
  6  7  1  0
  6  8  1  0
  8  9  1  0
  9 10  1  0
 10 11  2  0
 10 12  1  0
 12 13  1  0
 13 14  1  0
  5 15  1  0
 15 16  1  0
 15 17  2  0
 17 18  1  0
 18 19  1  0
 18 20  1  0
 18 21  1  0
 17 22  1  0
 22 23  1  0
 23 24  1  0
 23 25  1  0
 23 26  1  0
 26 27  2  0
 27 28  1  0
 27 29  1  0
 29 30  1  0
 29 31  2  0
 31 32  1  0
 32 33  1  0
 33 34  2  0
 33 35  1  0
 35 36  1  0
 35 37  1  0
 35 38  1  0
 38 39  1  0
 39 40  2  0
 40 41  1  0
 40 42  1  0
 42 43  1  0
 42 44  2  0
 44 45  1  0
 45 46  1  0
 45 47  2  0
 47 48  1  0
 31 49  1  0
 49 50  1  0
 49 51  2  0
 51 52  1  0
 22  4  1  0
 51 26  1  0
 13  8  2  0
 47 39  1  0
M  CHG  4   9  -1  12  -1  14  -1  32  -1
M  END
>  <UniqueID>  (56) 
55

>  <SMILES>  (56) 
C=c1/c(=C\c2[n-]c(=O)[n-]c2[O-])cc(C)n1Cc1ccc([N-]C(=O)CSc2ccncc2)cc1

>  <Energy>  (56) 
124.00761549031083

>  <Genealogy>  (56) 
C=c1c(=Cc2[n-]c(=O)[n-]c2[O-])cc(C)n1Cc1ccc([N-]C(=O)CSc2ccncc2)cc1 (protonated)
C=c1/c(=C\c2[n-]c(=O)[n-]c2[O-])cc(C)n1Cc1ccc([N-]C(=O)CSc2ccncc2)cc1 (cis-trans isomerization)
C=c1/c(=C\c2[n-]c(=O)[n-]c2[O-])cc(C)n1Cc1ccc([N-]C(=O)CSc2ccncc2)cc1 (3D coordinates assigned)
C=c1/c(=C\c2[n-]c(=O)[n-]c2[O-])cc(C)n1Cc1ccc([N-]C(=O)CSc2ccncc2)cc1 (optimized conformer: 124.00761549031083 kcal/mol)

>  <smiles>  (56) 
C=c1c(=Cc2[nH]c(=O)[nH]c2O)cc(C)n1Cc1ccc(NC(=O)CSc2ccncc2)cc1

>  <score_type>  (56) 
oracle

>  <origin>  (56) 
adg

>  <m_score__min__energy>  (56) 
-18.460000000000001

>  <m_primary>  (56) 
energy

$$$$
56:0
     RDKit          3D

 61 64  0  0  0  0  0  0  0  0999 V2000
   66.0270   33.0870   50.4690 C   0  0  0  0  0  0  0  0  0  0  0  0
   64.8580   33.7240   49.9630 O   0  0  0  0  0  0  0  0  0  0  0  0
   63.8470   33.0810   49.2320 C   0  0  0  0  0  0  0  0  0  0  0  0
   63.8890   33.0100   47.8260 C   0  0  0  0  0  0  0  0  0  0  0  0
   62.8790   32.3570   47.1160 C   0  0  0  0  0  0  0  0  0  0  0  0
   61.8180   31.7450   47.7970 C   0  0  0  0  0  0  0  0  0  0  0  0
   60.7490   31.0980   47.0870 N   0  0  0  0  0  0  0  0  0  0  0  0
   60.3930   29.7150   47.2630 C   0  0  0  0  0  0  0  0  0  0  0  0
   60.8040   29.0820   48.2720 O   0  0  0  0  0  0  0  0  0  0  0  0
   59.5190   29.0440   46.2790 C   0  0  0  0  0  0  0  0  0  0  0  0
   59.8820   27.8190   45.6970 C   0  0  0  0  0  0  0  0  0  0  0  0
   59.0350   27.2280   44.7590 C   0  0  0  0  0  0  0  0  0  0  0  0
   57.8390   27.8540   44.4050 C   0  0  0  0  0  0  0  0  0  0  0  0
   57.5000   29.0770   45.0020 C   0  0  0  0  0  0  0  0  0  0  0  0
   56.2530   29.7810   44.6580 C   0  0  0  0  0  0  0  0  0  0  0  0
   55.1780   29.1400   44.5030 O   0  0  0  0  0  0  0  0  0  0  0  0
   56.2700   31.2020   44.4980 N   0  0  0  0  0  0  0  0  0  0  0  0
   57.4000   31.9220   43.9300 C   0  0  0  0  0  0  0  0  0  0  0  0
   58.0480   32.7670   44.9910 C   0  0  0  0  0  0  0  0  0  0  0  0
   58.9420   33.7940   44.6400 C   0  0  0  0  0  0  0  0  0  0  0  0
   59.5460   34.5720   45.6320 C   0  0  0  0  0  0  0  0  0  0  0  0
   59.2610   34.3360   46.9790 C   0  0  0  0  0  0  0  0  0  0  0  0
   59.8490   35.0940   47.9380 F   0  0  0  0  0  0  0  0  0  0  0  0
   58.3710   33.3160   47.3370 C   0  0  0  0  0  0  0  0  0  0  0  0
   57.7710   32.5290   46.3500 C   0  0  0  0  0  0  0  0  0  0  0  0
   58.3450   29.6310   45.9140 N   0  0  0  0  0  0  0  0  0  0  0  0
   61.7650   31.8280   49.1920 C   0  0  0  0  0  0  0  0  0  0  0  0
   62.7640   32.4930   49.9170 C   0  0  0  0  0  0  0  0  0  0  0  0
   62.6300   32.5780   51.6840 S   0  0  0  0  0  0  0  0  0  0  0  0
   63.2880   33.8320   52.1900 O   0  0  0  0  0  0  0  0  0  0  0  0
   63.3600   31.4070   52.2830 O   0  0  0  0  0  0  0  0  0  0  0  0
   60.9640   32.5500   52.2180 N   0  0  0  0  0  0  0  0  0  0  0  0
   60.1990   33.7050   51.7020 C   0  0  0  0  0  0  0  0  0  0  0  0
   59.2750   33.3080   50.5350 C   0  0  0  0  0  0  0  0  0  0  0  0
   58.3370   32.2930   50.8720 O   0  0  0  0  0  0  0  0  0  0  0  0
   58.8060   31.3860   51.8620 C   0  0  0  0  0  0  0  0  0  0  0  0
   60.3360   31.2520   51.9020 C   0  0  0  0  0  0  0  0  0  0  0  0
   66.0044   33.0993   51.5687 H   0  0  0  0  0  0  0  0  0  0  0  0
   66.0600   32.0462   50.1146 H   0  0  0  0  0  0  0  0  0  0  0  0
   66.9195   33.6235   50.1146 H   0  0  0  0  0  0  0  0  0  0  0  0
   64.7253   33.4733   47.2819 H   0  0  0  0  0  0  0  0  0  0  0  0
   62.9165   32.3229   46.0172 H   0  0  0  0  0  0  0  0  0  0  0  0
   60.1470   31.6900   46.4690 H   0  0  0  0  0  0  0  0  0  0  0  0
   60.8261   27.3294   45.9781 H   0  0  0  0  0  0  0  0  0  0  0  0
   59.3101   26.2678   44.2981 H   0  0  0  0  0  0  0  0  0  0  0  0
   57.1686   27.3927   43.6649 H   0  0  0  0  0  0  0  0  0  0  0  0
   58.1330   31.2014   43.5383 H   0  0  0  0  0  0  0  0  0  0  0  0
   57.0462   32.5697   43.1144 H   0  0  0  0  0  0  0  0  0  0  0  0
   59.1670   33.9860   43.5805 H   0  0  0  0  0  0  0  0  0  0  0  0
   60.2472   35.3717   45.3513 H   0  0  0  0  0  0  0  0  0  0  0  0
   58.1435   33.1336   48.3977 H   0  0  0  0  0  0  0  0  0  0  0  0
   57.0807   31.7218   46.6362 H   0  0  0  0  0  0  0  0  0  0  0  0
   60.9252   31.3636   49.7297 H   0  0  0  0  0  0  0  0  0  0  0  0
   59.5856   34.1176   52.5166 H   0  0  0  0  0  0  0  0  0  0  0  0
   60.9173   34.4501   51.3293 H   0  0  0  0  0  0  0  0  0  0  0  0
   58.7201   34.2009   50.2114 H   0  0  0  0  0  0  0  0  0  0  0  0
   59.9166   32.9031   49.7385 H   0  0  0  0  0  0  0  0  0  0  0  0
   58.4624   31.7378   52.8459 H   0  0  0  0  0  0  0  0  0  0  0  0
   58.4032   30.3948   51.6064 H   0  0  0  0  0  0  0  0  0  0  0  0
   60.6145   30.5186   52.6731 H   0  0  0  0  0  0  0  0  0  0  0  0
   60.6884   30.9190   50.9146 H   0  0  0  0  0  0  0  0  0  0  0  0
  1  2  1  0
  2  3  1  0
  3  4  2  0
  4  5  1  0
  5  6  2  0
  6  7  1  0
  7  8  1  0
  8  9  2  0
  8 10  1  0
 10 11  2  0
 11 12  1  0
 12 13  2  0
 13 14  1  0
 14 15  1  0
 15 16  2  0
 15 17  1  0
 17 18  1  0
 18 19  1  0
 19 20  2  0
 20 21  1  0
 21 22  2  0
 22 23  1  0
 22 24  1  0
 24 25  2  0
 14 26  2  0
  6 27  1  0
 27 28  2  0
 28 29  1  0
 29 30  2  0
 29 31  2  0
 29 32  1  0
 32 33  1  0
 33 34  1  0
 34 35  1  0
 35 36  1  0
 36 37  1  0
 28  3  1  0
 37 32  1  0
 26 10  1  0
 25 19  1  0
  1 38  1  0
  1 39  1  0
  1 40  1  0
  4 41  1  0
  5 42  1  0
  7 43  1  0
 11 44  1  0
 12 45  1  0
 13 46  1  0
 18 47  1  0
 18 48  1  0
 20 49  1  0
 21 50  1  0
 24 51  1  0
 25 52  1  0
 27 53  1  0
 33 54  1  0
 33 55  1  0
 34 56  1  0
 34 57  1  0
 36 58  1  0
 36 59  1  0
 37 60  1  0
 37 61  1  0
M  CHG  1  17  -1
M  END
>  <UniqueID>  (57) 
56

>  <SMILES>  (57) 
COc1ccc(NC(=O)c2cccc(C(=O)[N-]Cc3ccc(F)cc3)n2)cc1S(=O)(=O)N1CCOCC1

>  <Energy>  (57) 
76.64645050112654

>  <Genealogy>  (57) 
COc1ccc(NC(=O)c2cccc(C(=O)[N-]Cc3ccc(F)cc3)n2)cc1S(=O)(=O)N1CCOCC1 (protonated)
COc1ccc(NC(=O)c2cccc(C(=O)[N-]Cc3ccc(F)cc3)n2)cc1S(=O)(=O)N1CCOCC1 (3D coordinates assigned)
COc1ccc(NC(=O)c2cccc(C(=O)[N-]Cc3ccc(F)cc3)n2)cc1S(=O)(=O)N1CCOCC1 (nonaromatic ring conformer: 76.64645050112654 kcal/mol)

>  <smiles>  (57) 
COc1ccc(NC(=O)c2cccc(C(=O)NCc3ccc(F)cc3)n2)cc1S(=O)(=O)N1CCOCC1

>  <score_type>  (57) 
oracle

>  <origin>  (57) 
adg

>  <m_score__min__energy>  (57) 
-11.869999999999999

>  <m_primary>  (57) 
energy

$$$$
57:0
     RDKit          3D

 58 62  0  0  0  0  0  0  0  0999 V2000
   59.5307   30.2151   44.3811 H   0  0  0  0  0  0  0  0  0  0  0  0
   59.1520   29.2190   44.6540 C   0  0  0  0  0  0  0  0  0  0  0  0
   58.8167   28.5243   43.8698 H   0  0  0  0  0  0  0  0  0  0  0  0
   59.0990   28.8510   45.9450 C   0  0  0  0  0  0  0  0  0  0  0  0
   58.6440   27.6230   46.4440 C   0  0  0  0  0  0  0  0  0  0  0  0
   58.1640   26.5850   45.7250 C   0  0  0  0  0  0  0  0  0  0  0  0
   58.8431   26.1249   44.9921 H   0  0  0  0  0  0  0  0  0  0  0  0
   56.8030   26.0130   45.8380 C   0  0  0  0  0  0  0  0  0  0  0  0
   56.5020   24.7470   46.1760 N   0  0  0  0  0  0  0  0  0  0  0  0
   55.1520   24.7330   46.1850 C   0  0  0  0  0  0  0  0  0  0  0  0
   54.4870   23.7000   46.4580 O   0  0  0  0  0  0  0  0  0  0  0  0
   54.5730   25.9130   45.8810 N   0  0  0  0  0  0  0  0  0  0  0  0
   55.6300   26.7120   45.6680 C   0  0  0  0  0  0  0  0  0  0  0  0
   55.5250   28.0550   45.3280 O   0  0  0  0  0  0  0  0  0  0  0  0
   58.8100   27.6850   47.8250 C   0  0  0  0  0  0  0  0  0  0  0  0
   58.5681   26.8950   48.5512 H   0  0  0  0  0  0  0  0  0  0  0  0
   59.3370   28.9300   48.1070 C   0  0  0  0  0  0  0  0  0  0  0  0
   59.6870   29.4130   49.4810 C   0  0  0  0  0  0  0  0  0  0  0  0
   59.2145   28.7609   50.2303 H   0  0  0  0  0  0  0  0  0  0  0  0
   60.7791   29.3894   49.6108 H   0  0  0  0  0  0  0  0  0  0  0  0
   59.3245   30.4434   49.6108 H   0  0  0  0  0  0  0  0  0  0  0  0
   59.5190   29.6350   46.9690 N   0  0  0  0  0  0  0  0  0  0  0  0
   60.0380   30.9750   46.8860 C   0  0  0  0  0  0  0  0  0  0  0  0
   61.3830   31.2260   47.1860 C   0  0  0  0  0  0  0  0  0  0  0  0
   62.0324   30.3981   47.5065 H   0  0  0  0  0  0  0  0  0  0  0  0
   61.9120   32.5240   47.0820 C   0  0  0  0  0  0  0  0  0  0  0  0
   63.3460   32.8120   47.3760 C   0  0  0  0  0  0  0  0  0  0  0  0
   64.0740   33.2540   46.4440 O   0  0  0  0  0  0  0  0  0  0  0  0
   63.9230   32.5820   48.6910 N   0  0  0  0  0  0  0  0  0  0  0  0
   64.9250   32.3070   48.5540 H   0  0  0  0  0  0  0  0  0  0  0  0
   63.2860   31.4190   49.3870 C   0  0  0  0  0  0  0  0  0  0  0  0
   62.6734   30.8754   48.6527 H   0  0  0  0  0  0  0  0  0  0  0  0
   64.1100   30.8175   49.7983 H   0  0  0  0  0  0  0  0  0  0  0  0
   62.3840   31.7900   50.5820 C   0  0  0  0  0  0  0  0  0  0  0  0
   61.6359   30.9971   50.7290 H   0  0  0  0  0  0  0  0  0  0  0  0
   63.0122   31.8947   51.4789 H   0  0  0  0  0  0  0  0  0  0  0  0
   61.6660   33.1160   50.3290 C   0  0  0  0  0  0  0  0  0  0  0  0
   60.5070   33.4390   51.2650 C   0  0  0  0  0  0  0  0  0  0  0  0
   60.2517   32.7486   52.0825 H   0  0  0  0  0  0  0  0  0  0  0  0
   60.2379   34.2940   51.9026 H   0  0  0  0  0  0  0  0  0  0  0  0
   60.2290   33.0440   49.8200 C   0  0  0  0  0  0  0  0  0  0  0  0
   59.7736   32.0685   49.5943 H   0  0  0  0  0  0  0  0  0  0  0  0
   59.6768   33.4954   48.9826 H   0  0  0  0  0  0  0  0  0  0  0  0
   62.5180   34.3060   49.8690 C   0  0  0  0  0  0  0  0  0  0  0  0
   62.0436   34.7759   48.9948 H   0  0  0  0  0  0  0  0  0  0  0  0
   62.5933   35.0322   50.6918 H   0  0  0  0  0  0  0  0  0  0  0  0
   63.9310   33.8330   49.4870 C   0  0  0  0  0  0  0  0  0  0  0  0
   64.4180   34.6225   48.8958 H   0  0  0  0  0  0  0  0  0  0  0  0
   64.4751   33.6277   50.4207 H   0  0  0  0  0  0  0  0  0  0  0  0
   61.0660   33.5680   46.6640 C   0  0  0  0  0  0  0  0  0  0  0  0
   61.4737   34.5837   46.5539 H   0  0  0  0  0  0  0  0  0  0  0  0
   59.7090   33.3340   46.3850 C   0  0  0  0  0  0  0  0  0  0  0  0
   58.8240   34.4540   45.8970 C   0  0  0  0  0  0  0  0  0  0  0  0
   57.5360   34.2470   46.3520 F   0  0  0  0  0  0  0  0  0  0  0  0
   58.8130   34.4990   44.5130 F   0  0  0  0  0  0  0  0  0  0  0  0
   59.2780   35.6750   46.3640 F   0  0  0  0  0  0  0  0  0  0  0  0
   59.2080   32.0260   46.4800 C   0  0  0  0  0  0  0  0  0  0  0  0
   58.1549   31.8257   46.2334 H   0  0  0  0  0  0  0  0  0  0  0  0
  1  2  1  0
  2  3  1  0
  2  4  2  0
  4  5  1  0
  5  6  2  0
  6  7  1  0
  6  8  1  0
  8  9  1  0
  9 10  1  0
 10 11  2  0
 10 12  1  0
 12 13  1  0
 13 14  1  0
  5 15  1  0
 15 16  1  0
 15 17  2  0
 17 18  1  0
 18 19  1  0
 18 20  1  0
 18 21  1  0
 17 22  1  0
 22 23  1  0
 23 24  2  0
 24 25  1  0
 24 26  1  0
 26 27  1  0
 27 28  2  0
 27 29  1  0
 29 30  1  0
 29 31  1  0
 31 32  1  0
 31 33  1  0
 31 34  1  0
 34 35  1  0
 34 36  1  0
 34 37  1  0
 37 38  1  0
 38 39  1  0
 38 40  1  0
 38 41  1  0
 41 42  1  0
 41 43  1  0
 37 44  1  0
 44 45  1  0
 44 46  1  0
 44 47  1  0
 47 48  1  0
 47 49  1  0
 26 50  2  0
 50 51  1  0
 50 52  1  0
 52 53  1  0
 53 54  1  0
 53 55  1  0
 53 56  1  0
 52 57  2  0
 57 58  1  0
 22  4  1  0
 57 23  1  0
 13  8  2  0
 47 29  1  0
 41 37  1  0
M  CHG  4   9  -1  12  -1  14  -1  29   1
M  END
>  <UniqueID>  (58) 
57

>  <SMILES>  (58) 
C=c1/c(=C/c2[n-]c(=O)[n-]c2[O-])cc(C)n1-c1cc(C(=O)[NH+]2CCC3(CC2)CC3)cc(C(F)(F)F)c1

>  <Energy>  (58) 
410.92271544203993

>  <Genealogy>  (58) 
C=c1c(=Cc2[n-]c(=O)[n-]c2[O-])cc(C)n1-c1cc(C(=O)[NH+]2CCC3(CC2)CC3)cc(C(F)(F)F)c1 (protonated)
C=c1/c(=C/c2[n-]c(=O)[n-]c2[O-])cc(C)n1-c1cc(C(=O)[NH+]2CCC3(CC2)CC3)cc(C(F)(F)F)c1 (cis-trans isomerization)
C=c1/c(=C/c2[n-]c(=O)[n-]c2[O-])cc(C)n1-c1cc(C(=O)[NH+]2CCC3(CC2)CC3)cc(C(F)(F)F)c1 (3D coordinates assigned)
C=c1/c(=C/c2[n-]c(=O)[n-]c2[O-])cc(C)n1-c1cc(C(=O)[NH+]2CCC3(CC2)CC3)cc(C(F)(F)F)c1 (nonaromatic ring conformer: 410.92271544203993 kcal/mol)

>  <smiles>  (58) 
C=c1c(=Cc2[nH]c(=O)[nH]c2O)cc(C)n1-c1cc(C(=O)N2CCC3(CC2)CC3)cc(C(F)(F)F)c1

>  <score_type>  (58) 
oracle

>  <origin>  (58) 
adg

>  <m_score__min__energy>  (58) 
-16.109999999999999

>  <m_primary>  (58) 
energy

$$$$
58:0
     RDKit          3D

 43 45  0  0  0  0  0  0  0  0999 V2000
   65.9010   31.9310   50.4570 C   0  0  0  0  0  0  0  0  0  0  0  0
   65.5410   32.8510   49.4320 O   0  0  0  0  0  0  0  0  0  0  0  0
   64.2260   33.2520   49.1490 C   0  0  0  0  0  0  0  0  0  0  0  0
   63.6440   33.0600   47.8820 C   0  0  0  0  0  0  0  0  0  0  0  0
   62.3320   33.4710   47.6360 C   0  0  0  0  0  0  0  0  0  0  0  0
   61.5700   34.0710   48.6500 C   0  0  0  0  0  0  0  0  0  0  0  0
   60.1800   34.5180   48.3940 C   0  0  0  0  0  0  0  0  0  0  0  0
   59.4560   34.8660   49.3630 O   0  0  0  0  0  0  0  0  0  0  0  0
   59.6460   34.6240   47.0670 N   0  0  0  0  0  0  0  0  0  0  0  0
   58.9760   33.5860   46.3380 C   0  0  0  0  0  0  0  0  0  0  0  0
   58.1390   33.9310   45.2750 C   0  0  0  0  0  0  0  0  0  0  0  0
   57.4600   32.9400   44.5620 C   0  0  0  0  0  0  0  0  0  0  0  0
   57.6030   31.5880   44.9410 C   0  0  0  0  0  0  0  0  0  0  0  0
   57.0090   30.6040   44.3240 N   0  0  0  0  0  0  0  0  0  0  0  0
   56.4230   29.4040   44.8590 C   0  0  0  0  0  0  0  0  0  0  0  0
   55.1730   29.2510   44.8840 O   0  0  0  0  0  0  0  0  0  0  0  0
   57.3190   28.3580   45.3970 C   0  0  0  0  0  0  0  0  0  0  0  0
   58.6540   28.6250   45.4190 N   0  0  0  0  0  0  0  0  0  0  0  0
   59.5750   27.7180   45.8320 C   0  0  0  0  0  0  0  0  0  0  0  0
   59.1690   26.4520   46.2440 C   0  0  0  0  0  0  0  0  0  0  0  0
   57.8100   26.1410   46.2500 C   0  0  0  0  0  0  0  0  0  0  0  0
   56.8620   27.0920   45.8480 C   0  0  0  0  0  0  0  0  0  0  0  0
   55.4690   26.7700   45.9660 N   0  0  0  0  0  0  0  0  0  0  0  0
   58.4210   31.2850   45.9850 N   0  0  0  0  0  0  0  0  0  0  0  0
   59.0950   32.2330   46.6880 C   0  0  0  0  0  0  0  0  0  0  0  0
   62.1550   34.2760   49.9090 C   0  0  0  0  0  0  0  0  0  0  0  0
   63.4690   33.8680   50.1640 C   0  0  0  0  0  0  0  0  0  0  0  0
   64.0060   34.0810   51.4330 O   0  0  0  0  0  0  0  0  0  0  0  0
   65.7216   32.3894   51.4407 H   0  0  0  0  0  0  0  0  0  0  0  0
   65.2934   31.0191   50.3612 H   0  0  0  0  0  0  0  0  0  0  0  0
   66.9662   31.6736   50.3612 H   0  0  0  0  0  0  0  0  0  0  0  0
   64.2264   32.5830   47.0800 H   0  0  0  0  0  0  0  0  0  0  0  0
   61.8922   33.3230   46.6386 H   0  0  0  0  0  0  0  0  0  0  0  0
   58.0137   34.9881   44.9977 H   0  0  0  0  0  0  0  0  0  0  0  0
   56.8182   33.2116   43.7109 H   0  0  0  0  0  0  0  0  0  0  0  0
   60.6425   27.9833   45.8412 H   0  0  0  0  0  0  0  0  0  0  0  0
   59.9119   25.7054   46.5612 H   0  0  0  0  0  0  0  0  0  0  0  0
   57.4795   25.1426   46.5724 H   0  0  0  0  0  0  0  0  0  0  0  0
   55.1000   26.3490   46.8480 H   0  0  0  0  0  0  0  0  0  0  0  0
   54.7670   27.0770   45.2600 H   0  0  0  0  0  0  0  0  0  0  0  0
   59.7349   31.9387   47.5329 H   0  0  0  0  0  0  0  0  0  0  0  0
   61.5734   34.7635   50.7053 H   0  0  0  0  0  0  0  0  0  0  0  0
   64.9770   33.8850   51.6490 H   0  0  0  0  0  0  0  0  0  0  0  0
  1  2  1  0
  2  3  1  0
  3  4  2  0
  4  5  1  0
  5  6  2  0
  6  7  1  0
  7  8  2  0
  7  9  1  0
  9 10  1  0
 10 11  1  0
 11 12  2  0
 12 13  1  0
 13 14  2  3
 14 15  1  0
 15 16  2  0
 15 17  1  0
 17 18  2  0
 18 19  1  0
 19 20  2  0
 20 21  1  0
 21 22  2  0
 22 23  1  0
 13 24  1  0
 24 25  1  0
  6 26  1  0
 26 27  2  0
 27 28  1  0
 27  3  1  0
 25 10  2  0
 22 17  1  0
  1 29  1  0
  1 30  1  0
  1 31  1  0
  4 32  1  0
  5 33  1  0
 11 34  1  0
 12 35  1  0
 19 36  1  0
 20 37  1  0
 21 38  1  0
 23 39  1  0
 23 40  1  0
 25 41  1  0
 26 42  1  0
 28 43  1  0
M  CHG  2   9  -1  24  -1
M  END
>  <UniqueID>  (59) 
58

>  <SMILES>  (59) 
COc1ccc(C(=O)[N-]c2ccc(=NC(=O)c3ncccc3N)[n-]c2)cc1O

>  <Energy>  (59) 
66.00297981580617

>  <Genealogy>  (59) 
COc1ccc(C(=O)[N-]c2ccc(=NC(=O)c3ncccc3N)[n-]c2)cc1O (protonated)
COc1ccc(C(=O)[N-]c2ccc(=NC(=O)c3ncccc3N)[n-]c2)cc1O (3D coordinates assigned)
COc1ccc(C(=O)[N-]c2ccc(=NC(=O)c3ncccc3N)[n-]c2)cc1O (optimized conformer: 66.00297981580617 kcal/mol)

>  <smiles>  (59) 
COc1ccc(C(=O)Nc2ccc(=NC(=O)c3ncccc3N)[nH]c2)cc1O

>  <score_type>  (59) 
oracle

>  <origin>  (59) 
adg

>  <m_score__min__energy>  (59) 
-10.34

>  <m_primary>  (59) 
energy

$$$$
59:0
     RDKit          3D

 45 47  0  0  0  0  0  0  0  0999 V2000
   60.3120   27.8180   45.6520 C   0  0  0  0  0  0  0  0  0  0  0  0
   58.9600   27.5520   45.0860 C   0  0  0  0  0  0  0  0  0  0  0  0
   58.2290   26.7000   46.1350 C   0  0  0  0  0  0  0  0  0  0  0  0
   58.1830   28.7740   44.8230 C   0  0  0  0  0  0  0  0  0  0  0  0
   58.6620   30.0300   45.1830 C   0  0  0  0  0  0  0  0  0  0  0  0
   57.9460   31.1800   44.9350 C   0  0  0  0  0  0  0  0  0  0  0  0
   58.4610   32.5080   45.3030 C   0  0  0  0  0  0  0  0  0  0  0  0
   58.2040   33.6280   44.5320 C   0  0  0  0  0  0  0  0  0  0  0  0
   58.6710   34.8890   44.8820 C   0  0  0  0  0  0  0  0  0  0  0  0
   59.4190   35.0710   46.0290 C   0  0  0  0  0  0  0  0  0  0  0  0
   59.6860   33.9670   46.8110 C   0  0  0  0  0  0  0  0  0  0  0  0
   60.4590   34.0780   48.0400 C   0  0  0  0  0  0  0  0  0  0  0  0
   59.9950   34.8890   48.9170 O   0  0  0  0  0  0  0  0  0  0  0  0
   61.6480   33.3610   48.3010 N   0  0  0  0  0  0  0  0  0  0  0  0
   62.3850   32.4000   47.5080 C   0  0  0  0  0  0  0  0  0  0  0  0
   63.7730   33.0710   47.5450 C   0  0  0  0  0  0  0  0  0  0  0  0
   63.8120   33.7250   48.9190 C   0  0  0  0  0  0  0  0  0  0  0  0
   62.4340   33.4770   49.5420 C   0  0  0  0  0  0  0  0  0  0  0  0
   59.2080   32.7040   46.4420 C   0  0  0  0  0  0  0  0  0  0  0  0
   56.7510   31.0230   44.3250 N   0  0  0  0  0  0  0  0  0  0  0  0
   56.2780   29.7980   43.9720 C   0  0  0  0  0  0  0  0  0  0  0  0
   55.1180   29.7150   43.3860 N   0  0  0  0  0  0  0  0  0  0  0  0
   56.9860   28.6800   44.2160 N   0  0  0  0  0  0  0  0  0  0  0  0
   60.2581   27.8074   46.7506 H   0  0  0  0  0  0  0  0  0  0  0  0
   61.0115   27.0403   45.3117 H   0  0  0  0  0  0  0  0  0  0  0  0
   60.6647   28.8028   45.3117 H   0  0  0  0  0  0  0  0  0  0  0  0
   59.0659   27.0515   44.1122 H   0  0  0  0  0  0  0  0  0  0  0  0
   58.5156   27.0341   47.1431 H   0  0  0  0  0  0  0  0  0  0  0  0
   57.1424   26.8128   46.0065 H   0  0  0  0  0  0  0  0  0  0  0  0
   58.5057   25.6431   46.0065 H   0  0  0  0  0  0  0  0  0  0  0  0
   59.6404   30.1065   45.6798 H   0  0  0  0  0  0  0  0  0  0  0  0
   57.6109   33.5164   43.6124 H   0  0  0  0  0  0  0  0  0  0  0  0
   58.4426   35.7516   44.2388 H   0  0  0  0  0  0  0  0  0  0  0  0
   59.7907   36.0673   46.3103 H   0  0  0  0  0  0  0  0  0  0  0  0
   62.3961   31.4033   47.9732 H   0  0  0  0  0  0  0  0  0  0  0  0
   61.9802   32.2053   46.5039 H   0  0  0  0  0  0  0  0  0  0  0  0
   64.5741   32.3243   47.4416 H   0  0  0  0  0  0  0  0  0  0  0  0
   63.9259   33.7870   46.7240 H   0  0  0  0  0  0  0  0  0  0  0  0
   64.5991   33.2690   49.5375 H   0  0  0  0  0  0  0  0  0  0  0  0
   64.0356   34.7997   48.8483 H   0  0  0  0  0  0  0  0  0  0  0  0
   62.4087   32.5516   50.1361 H   0  0  0  0  0  0  0  0  0  0  0  0
   62.0890   34.2401   50.2552 H   0  0  0  0  0  0  0  0  0  0  0  0
   59.4370   31.8402   47.0834 H   0  0  0  0  0  0  0  0  0  0  0  0
   56.1400   31.8260   44.1080 H   0  0  0  0  0  0  0  0  0  0  0  0
   55.0030   29.0750   42.5790 H   0  0  0  0  0  0  0  0  0  0  0  0
  1  2  1  0
  2  3  1  0
  2  4  1  0
  4  5  1  0
  5  6  2  0
  6  7  1  0
  7  8  2  0
  8  9  1  0
  9 10  2  0
 10 11  1  0
 11 12  1  0
 12 13  2  0
 12 14  1  0
 14 15  1  0
 15 16  1  0
 16 17  1  0
 17 18  1  0
 11 19  2  0
  6 20  1  0
 20 21  1  0
 21 22  2  3
 21 23  1  0
 23  4  2  0
 19  7  1  0
 18 14  1  0
  1 24  1  0
  1 25  1  0
  1 26  1  0
  2 27  1  0
  3 28  1  0
  3 29  1  0
  3 30  1  0
  5 31  1  0
  8 32  1  0
  9 33  1  0
 10 34  1  0
 15 35  1  0
 15 36  1  0
 16 37  1  0
 16 38  1  0
 17 39  1  0
 17 40  1  0
 18 41  1  0
 18 42  1  0
 19 43  1  0
 20 44  1  0
 22 45  1  0
M  END
>  <smiles>  (60) 
CC(C)c1cc(-c2cccc(C(=O)N3CCCC3)c2)[nH]c(=N)n1

>  <score_type>  (60) 
oracle

>  <origin>  (60) 
adg

>  <m_score__min__energy>  (60) 
-9.2400000000000002

>  <m_primary>  (60) 
energy

$$$$
60:0
     RDKit          3D

 49 51  0  0  0  0  0  0  0  0999 V2000
   59.6760   26.9530   48.1010 C   0  0  0  0  0  0  0  0  0  0  0  0
   59.4840   28.0160   47.3040 C   0  0  0  0  0  0  0  0  0  0  0  0
   58.5830   28.1120   46.2300 C   0  0  0  0  0  0  0  0  0  0  0  0
   57.8140   27.1850   45.6280 C   0  0  0  0  0  0  0  0  0  0  0  0
   57.1680   26.0380   46.2870 C   0  0  0  0  0  0  0  0  0  0  0  0
   57.8160   24.9390   46.7160 N   0  0  0  0  0  0  0  0  0  0  0  0
   56.8140   24.1190   47.1030 C   0  0  0  0  0  0  0  0  0  0  0  0
   57.0210   22.9770   47.5870 O   0  0  0  0  0  0  0  0  0  0  0  0
   55.5710   24.6160   46.9190 N   0  0  0  0  0  0  0  0  0  0  0  0
   55.8160   25.8250   46.3880 C   0  0  0  0  0  0  0  0  0  0  0  0
   54.8220   26.7130   45.9970 O   0  0  0  0  0  0  0  0  0  0  0  0
   58.6280   29.4270   45.8060 C   0  0  0  0  0  0  0  0  0  0  0  0
   59.5680   30.0700   46.5810 C   0  0  0  0  0  0  0  0  0  0  0  0
   60.0120   31.4840   46.3580 C   0  0  0  0  0  0  0  0  0  0  0  0
   60.0870   29.2210   47.5010 N   0  0  0  0  0  0  0  0  0  0  0  0
   61.0770   29.5720   48.5340 C   0  0  0  0  0  0  0  0  0  0  0  0
   60.4380   30.2250   49.7780 C   0  0  0  0  0  0  0  0  0  0  0  0
   61.1980   31.4510   50.3140 C   0  0  0  0  0  0  0  0  0  0  0  0
   61.0580   32.6550   49.4240 C   0  0  0  0  0  0  0  0  0  0  0  0
   62.0040   32.9730   48.6510 O   0  0  0  0  0  0  0  0  0  0  0  0
   59.8380   33.4110   49.4150 N   0  0  0  0  0  0  0  0  0  0  0  0
   59.6810   34.6330   48.6310 C   0  0  0  0  0  0  0  0  0  0  0  0
   59.0010   34.3320   47.3240 C   0  0  0  0  0  0  0  0  0  0  0  0
   57.8160   33.5760   47.2910 C   0  0  0  0  0  0  0  0  0  0  0  0
   57.1800   33.3190   46.0730 C   0  0  0  0  0  0  0  0  0  0  0  0
   57.7180   33.8150   44.8810 C   0  0  0  0  0  0  0  0  0  0  0  0
   58.8940   34.5690   44.9080 C   0  0  0  0  0  0  0  0  0  0  0  0
   59.5340   34.8290   46.1240 C   0  0  0  0  0  0  0  0  0  0  0  0
   60.4158   27.0013   48.9136 H   0  0  0  0  0  0  0  0  0  0  0  0
   59.0935   26.0336   47.9415 H   0  0  0  0  0  0  0  0  0  0  0  0
   57.6539   27.2947   44.5453 H   0  0  0  0  0  0  0  0  0  0  0  0
   58.0266   29.8754   45.0015 H   0  0  0  0  0  0  0  0  0  0  0  0
   60.1669   31.9771   47.3290 H   0  0  0  0  0  0  0  0  0  0  0  0
   60.9544   31.4873   45.7907 H   0  0  0  0  0  0  0  0  0  0  0  0
   59.2406   32.0254   45.7907 H   0  0  0  0  0  0  0  0  0  0  0  0
   61.5983   28.6553   48.8470 H   0  0  0  0  0  0  0  0  0  0  0  0
   61.7689   30.3051   48.0939 H   0  0  0  0  0  0  0  0  0  0  0  0
   59.4177   30.5408   49.5149 H   0  0  0  0  0  0  0  0  0  0  0  0
   60.4605   29.4683   50.5761 H   0  0  0  0  0  0  0  0  0  0  0  0
   60.8038   31.7017   51.3099 H   0  0  0  0  0  0  0  0  0  0  0  0
   62.2656   31.1891   50.3533 H   0  0  0  0  0  0  0  0  0  0  0  0
   59.0420   33.1040   50.0170 H   0  0  0  0  0  0  0  0  0  0  0  0
   59.0730   35.3526   49.1989 H   0  0  0  0  0  0  0  0  0  0  0  0
   60.6753   35.0571   48.4272 H   0  0  0  0  0  0  0  0  0  0  0  0
   57.3882   33.1857   48.2262 H   0  0  0  0  0  0  0  0  0  0  0  0
   56.2542   32.7253   46.0520 H   0  0  0  0  0  0  0  0  0  0  0  0
   57.2159   33.6117   43.9236 H   0  0  0  0  0  0  0  0  0  0  0  0
   59.3174   34.9590   43.9707 H   0  0  0  0  0  0  0  0  0  0  0  0
   60.4584   35.4251   46.1403 H   0  0  0  0  0  0  0  0  0  0  0  0
  1  2  2  0
  2  3  1  0
  3  4  2  3
  4  5  1  0
  5  6  1  0
  6  7  1  0
  7  8  2  0
  7  9  1  0
  9 10  1  0
 10 11  1  0
  3 12  1  0
 12 13  2  0
 13 14  1  0
 13 15  1  0
 15 16  1  0
 16 17  1  0
 17 18  1  0
 18 19  1  0
 19 20  2  0
 19 21  1  0
 21 22  1  0
 22 23  1  0
 23 24  2  0
 24 25  1  0
 25 26  2  0
 26 27  1  0
 27 28  2  0
 15  2  1  0
 28 23  1  0
 10  5  2  0
  1 29  1  0
  1 30  1  0
  4 31  1  0
 12 32  1  0
 14 33  1  0
 14 34  1  0
 14 35  1  0
 16 36  1  0
 16 37  1  0
 17 38  1  0
 17 39  1  0
 18 40  1  0
 18 41  1  0
 21 42  1  0
 22 43  1  0
 22 44  1  0
 24 45  1  0
 25 46  1  0
 26 47  1  0
 27 48  1  0
 28 49  1  0
M  CHG  3   6  -1   9  -1  11  -1
M  END
>  <UniqueID>  (61) 
59

>  <SMILES>  (61) 
C=c1c(=Cc2[n-]c(=O)[n-]c2[O-])cc(C)n1CCCC(=O)NCc1ccccc1

>  <Energy>  (61) 
111.10970162077157

>  <Genealogy>  (61) 
C=c1c(=Cc2[n-]c(=O)[n-]c2[O-])cc(C)n1CCCC(=O)NCc1ccccc1 (protonated)
C=c1c(=Cc2[n-]c(=O)[n-]c2[O-])cc(C)n1CCCC(=O)NCc1ccccc1 (3D coordinates assigned)
C=c1c(=Cc2[n-]c(=O)[n-]c2[O-])cc(C)n1CCCC(=O)NCc1ccccc1 (optimized conformer: 111.10970162077157 kcal/mol)

>  <smiles>  (61) 
C=c1c(=Cc2[nH]c(=O)[nH]c2O)cc(C)n1CCCC(=O)NCc1ccccc1

>  <score_type>  (61) 
oracle

>  <origin>  (61) 
adg

>  <m_score__min__energy>  (61) 
-16.760000000000002

>  <m_primary>  (61) 
energy

$$$$
61:0
     RDKit          3D

 60 62  0  0  0  0  0  0  0  0999 V2000
   62.2590   31.7480   49.2930 C   0  0  0  0  0  0  0  0  0  0  0  0
   62.9690   32.8140   48.5670 N   0  0  0  0  0  0  0  0  0  0  0  0
   62.5660   34.1590   49.0280 C   0  0  0  0  0  0  0  0  0  0  0  0
   61.1140   34.4820   48.6430 C   0  0  0  0  0  0  0  0  0  0  0  0
   60.8120   34.0030   47.2930 N   0  0  0  0  0  0  0  0  0  0  0  0
   59.4830   34.1760   46.7760 C   0  0  0  0  0  0  0  0  0  0  0  0
   58.8870   35.2690   46.9790 O   0  0  0  0  0  0  0  0  0  0  0  0
   58.7820   33.0860   46.0500 C   0  0  0  0  0  0  0  0  0  0  0  0
   58.5180   33.1860   44.6730 C   0  0  0  0  0  0  0  0  0  0  0  0
   57.8770   32.1480   43.9970 C   0  0  0  0  0  0  0  0  0  0  0  0
   57.5280   30.9700   44.6690 C   0  0  0  0  0  0  0  0  0  0  0  0
   56.8600   29.8520   43.9150 C   0  0  0  0  0  0  0  0  0  0  0  0
   57.7770   28.7770   43.7030 O   0  0  0  0  0  0  0  0  0  0  0  0
   58.6710   28.2710   44.6610 C   0  0  0  0  0  0  0  0  0  0  0  0
   59.8690   28.9400   44.9830 C   0  0  0  0  0  0  0  0  0  0  0  0
   60.7370   28.4140   45.9440 C   0  0  0  0  0  0  0  0  0  0  0  0
   60.4260   27.2180   46.5890 C   0  0  0  0  0  0  0  0  0  0  0  0
   59.2450   26.5420   46.2770 C   0  0  0  0  0  0  0  0  0  0  0  0
   58.3570   27.0620   45.3200 C   0  0  0  0  0  0  0  0  0  0  0  0
   57.1280   26.2660   44.9450 C   0  0  0  0  0  0  0  0  0  0  0  0
   56.2220   26.0380   46.1230 C   0  0  0  0  0  0  0  0  0  0  0  0
   56.6890   25.6770   47.2380 O   0  0  0  0  0  0  0  0  0  0  0  0
   54.8130   26.2030   45.9580 N   0  0  0  0  0  0  0  0  0  0  0  0
   53.7280   24.8440   45.6270 S   0  0  0  0  0  0  0  0  0  0  0  0
   55.0870   23.6740   45.2770 C   0  0  0  0  0  0  0  0  0  0  0  0
   55.4520   23.7120   43.7950 C   0  0  0  0  0  0  0  0  0  0  0  0
   56.3860   22.5960   43.4550 C   0  0  0  0  0  0  0  0  0  0  0  0
   57.5800   22.6300   43.8560 O   0  0  0  0  0  0  0  0  0  0  0  0
   55.9300   21.4930   42.7430 O   0  0  0  0  0  0  0  0  0  0  0  0
   57.7880   30.8610   46.0420 C   0  0  0  0  0  0  0  0  0  0  0  0
   58.4090   31.9090   46.7270 C   0  0  0  0  0  0  0  0  0  0  0  0
   61.9200   33.6390   46.4030 C   0  0  0  0  0  0  0  0  0  0  0  0
   62.8720   32.6430   47.0920 C   0  0  0  0  0  0  0  0  0  0  0  0
   62.3657   31.9082   50.3760 H   0  0  0  0  0  0  0  0  0  0  0  0
   61.1929   31.7676   49.0227 H   0  0  0  0  0  0  0  0  0  0  0  0
   62.6879   30.7718   49.0227 H   0  0  0  0  0  0  0  0  0  0  0  0
   62.6627   34.2041   50.1228 H   0  0  0  0  0  0  0  0  0  0  0  0
   63.2211   34.8976   48.5429 H   0  0  0  0  0  0  0  0  0  0  0  0
   60.4350   33.9947   49.3582 H   0  0  0  0  0  0  0  0  0  0  0  0
   60.9788   35.5734   48.6668 H   0  0  0  0  0  0  0  0  0  0  0  0
   58.8194   34.0903   44.1241 H   0  0  0  0  0  0  0  0  0  0  0  0
   57.6437   32.2555   42.9274 H   0  0  0  0  0  0  0  0  0  0  0  0
   56.0004   29.4860   44.4957 H   0  0  0  0  0  0  0  0  0  0  0  0
   56.5228   30.2312   42.9391 H   0  0  0  0  0  0  0  0  0  0  0  0
   60.1225   29.8821   44.4748 H   0  0  0  0  0  0  0  0  0  0  0  0
   61.6678   28.9451   46.1919 H   0  0  0  0  0  0  0  0  0  0  0  0
   61.1116   26.8065   47.3444 H   0  0  0  0  0  0  0  0  0  0  0  0
   59.0078   25.5951   46.7841 H   0  0  0  0  0  0  0  0  0  0  0  0
   56.5721   26.8151   44.1708 H   0  0  0  0  0  0  0  0  0  0  0  0
   57.4593   25.2838   44.5768 H   0  0  0  0  0  0  0  0  0  0  0  0
   55.9677   23.9518   45.8746 H   0  0  0  0  0  0  0  0  0  0  0  0
   54.7591   22.6570   45.5383 H   0  0  0  0  0  0  0  0  0  0  0  0
   54.5359   23.6125   43.1943 H   0  0  0  0  0  0  0  0  0  0  0  0
   55.9482   24.6691   43.5762 H   0  0  0  0  0  0  0  0  0  0  0  0
   57.5020   29.9467   46.5827 H   0  0  0  0  0  0  0  0  0  0  0  0
   58.6082   31.8136   47.8046 H   0  0  0  0  0  0  0  0  0  0  0  0
   61.5132   33.1770   45.4914 H   0  0  0  0  0  0  0  0  0  0  0  0
   62.4841   34.5495   46.1525 H   0  0  0  0  0  0  0  0  0  0  0  0
   62.5135   31.6237   46.8855 H   0  0  0  0  0  0  0  0  0  0  0  0
   63.8763   32.8317   46.6848 H   0  0  0  0  0  0  0  0  0  0  0  0
  1  2  1  0
  2  3  1  0
  3  4  1  0
  4  5  1  0
  5  6  1  0
  6  7  2  0
  6  8  1  0
  8  9  2  0
  9 10  1  0
 10 11  2  0
 11 12  1  0
 12 13  1  0
 13 14  1  0
 14 15  2  0
 15 16  1  0
 16 17  2  0
 17 18  1  0
 18 19  2  0
 19 20  1  0
 20 21  1  0
 21 22  2  0
 21 23  1  0
 23 24  1  0
 24 25  1  0
 25 26  1  0
 26 27  1  0
 27 28  2  0
 27 29  1  0
 11 30  1  0
 30 31  2  0
  5 32  1  0
 32 33  1  0
 33  2  1  0
 31  8  1  0
 19 14  1  0
  1 34  1  0
  1 35  1  0
  1 36  1  0
  3 37  1  0
  3 38  1  0
  4 39  1  0
  4 40  1  0
  9 41  1  0
 10 42  1  0
 12 43  1  0
 12 44  1  0
 15 45  1  0
 16 46  1  0
 17 47  1  0
 18 48  1  0
 20 49  1  0
 20 50  1  0
 25 51  1  0
 25 52  1  0
 26 53  1  0
 26 54  1  0
 30 55  1  0
 31 56  1  0
 32 57  1  0
 32 58  1  0
 33 59  1  0
 33 60  1  0
M  CHG  2  23  -1  29  -1
M  END
>  <UniqueID>  (62) 
60

>  <SMILES>  (62) 
CN1CCN(C(=O)c2ccc(COc3ccccc3CC(=O)[N-]SCCC(=O)[O-])cc2)CC1

>  <Energy>  (62) 
62.72557982520026

>  <Genealogy>  (62) 
CN1CCN(C(=O)c2ccc(COc3ccccc3CC(=O)[N-]SCCC(=O)[O-])cc2)CC1 (protonated)
CN1CCN(C(=O)c2ccc(COc3ccccc3CC(=O)[N-]SCCC(=O)[O-])cc2)CC1 (3D coordinates assigned)
CN1CCN(C(=O)c2ccc(COc3ccccc3CC(=O)[N-]SCCC(=O)[O-])cc2)CC1 (nonaromatic ring conformer: 62.72557982520026 kcal/mol)

>  <smiles>  (62) 
CN1CCN(C(=O)c2ccc(COc3ccccc3CC(=O)NSCCC(=O)O)cc2)CC1

>  <score_type>  (62) 
oracle

>  <origin>  (62) 
adg

>  <m_score__min__energy>  (62) 
-13.17

>  <m_primary>  (62) 
energy

$$$$
62:0
     RDKit          3D

 57 59  0  0  0  0  0  0  0  0999 V2000
   57.4560   32.3410   41.2830 C   0  0  0  0  0  0  0  0  0  0  0  0
   58.2260   31.9730   42.4050 O   0  0  0  0  0  0  0  0  0  0  0  0
   57.3650   31.5850   43.4570 C   0  0  0  0  0  0  0  0  0  0  0  0
   56.7250   30.2320   43.1350 C   0  0  0  0  0  0  0  0  0  0  0  0
   56.5690   29.3720   44.3620 C   0  0  0  0  0  0  0  0  0  0  0  0
   55.4230   29.2090   44.8650 O   0  0  0  0  0  0  0  0  0  0  0  0
   57.7050   28.7370   44.9750 N   0  0  0  0  0  0  0  0  0  0  0  0
   57.7580   28.6290   46.4400 C   0  0  0  0  0  0  0  0  0  0  0  0
   59.1860   28.3300   46.9290 C   0  0  0  0  0  0  0  0  0  0  0  0
   60.2400   29.0830   46.0910 C   0  0  0  0  0  0  0  0  0  0  0  0
   60.1340   30.5720   46.3250 C   0  0  0  0  0  0  0  0  0  0  0  0
   58.9520   31.2230   46.1550 N   0  0  0  0  0  0  0  0  0  0  0  0
   58.8410   32.5510   46.4110 C   0  0  0  0  0  0  0  0  0  0  0  0
   59.9450   33.2720   46.8710 C   0  0  0  0  0  0  0  0  0  0  0  0
   59.7430   34.9800   47.2450 Cl  0  0  0  0  0  0  0  0  0  0  0  0
   61.1610   32.5840   47.0640 C   0  0  0  0  0  0  0  0  0  0  0  0
   62.3870   33.2660   47.5400 C   0  0  0  0  0  0  0  0  0  0  0  0
   63.1060   33.8960   46.7190 O   0  0  0  0  0  0  0  0  0  0  0  0
   62.8020   33.2160   48.9110 N   0  0  0  0  0  0  0  0  0  0  0  0
   62.0550   33.7650   50.0360 C   0  0  0  0  0  0  0  0  0  0  0  0
   60.8540   32.9020   50.3060 C   0  0  0  0  0  0  0  0  0  0  0  0
   60.9420   31.5090   50.1510 C   0  0  0  0  0  0  0  0  0  0  0  0
   59.8240   30.7010   50.3800 C   0  0  0  0  0  0  0  0  0  0  0  0
   58.5990   31.2790   50.7670 C   0  0  0  0  0  0  0  0  0  0  0  0
   57.4490   30.5110   51.0090 O   0  0  0  0  0  0  0  0  0  0  0  0
   56.4870   30.8000   52.0210 C   0  0  0  0  0  0  0  0  0  0  0  0
   58.5140   32.6700   50.9160 C   0  0  0  0  0  0  0  0  0  0  0  0
   59.6310   33.4780   50.6830 C   0  0  0  0  0  0  0  0  0  0  0  0
   61.2150   31.2550   46.7860 N   0  0  0  0  0  0  0  0  0  0  0  0
   60.1500   28.7140   44.5820 C   0  0  0  0  0  0  0  0  0  0  0  0
   58.7810   28.1440   44.1700 C   0  0  0  0  0  0  0  0  0  0  0  0
   56.5110   32.7927   41.6190 H   0  0  0  0  0  0  0  0  0  0  0  0
   58.0154   33.0691   40.6772 H   0  0  0  0  0  0  0  0  0  0  0  0
   57.2408   31.4484   40.6772 H   0  0  0  0  0  0  0  0  0  0  0  0
   57.9427   31.5024   44.3894 H   0  0  0  0  0  0  0  0  0  0  0  0
   56.5743   32.3405   43.5749 H   0  0  0  0  0  0  0  0  0  0  0  0
   55.7319   30.4053   42.6948 H   0  0  0  0  0  0  0  0  0  0  0  0
   57.3863   29.7032   42.4328 H   0  0  0  0  0  0  0  0  0  0  0  0
   57.4198   29.5781   46.8814 H   0  0  0  0  0  0  0  0  0  0  0  0
   57.1049   27.8000   46.7501 H   0  0  0  0  0  0  0  0  0  0  0  0
   59.2763   28.6412   47.9802 H   0  0  0  0  0  0  0  0  0  0  0  0
   59.3680   27.2503   46.8231 H   0  0  0  0  0  0  0  0  0  0  0  0
   61.2379   28.7629   46.4253 H   0  0  0  0  0  0  0  0  0  0  0  0
   57.8788   33.0610   46.2558 H   0  0  0  0  0  0  0  0  0  0  0  0
   62.6985   33.7879   50.9278 H   0  0  0  0  0  0  0  0  0  0  0  0
   61.7268   34.7870   49.7957 H   0  0  0  0  0  0  0  0  0  0  0  0
   61.8952   31.0512   49.8479 H   0  0  0  0  0  0  0  0  0  0  0  0
   59.9013   29.6106   50.2576 H   0  0  0  0  0  0  0  0  0  0  0  0
   56.9446   30.6625   53.0118 H   0  0  0  0  0  0  0  0  0  0  0  0
   56.1456   31.8404   51.9159 H   0  0  0  0  0  0  0  0  0  0  0  0
   55.6287   30.1200   51.9159 H   0  0  0  0  0  0  0  0  0  0  0  0
   57.5614   33.1294   51.2185 H   0  0  0  0  0  0  0  0  0  0  0  0
   59.5509   34.5693   50.7956 H   0  0  0  0  0  0  0  0  0  0  0  0
   60.3421   29.6208   43.9898 H   0  0  0  0  0  0  0  0  0  0  0  0
   60.8969   27.9282   44.3959 H   0  0  0  0  0  0  0  0  0  0  0  0
   58.6020   28.3679   43.1080 H   0  0  0  0  0  0  0  0  0  0  0  0
   58.7874   27.0567   44.3365 H   0  0  0  0  0  0  0  0  0  0  0  0
  1  2  1  0
  2  3  1  0
  3  4  1  0
  4  5  1  0
  5  6  2  0
  5  7  1  0
  7  8  1  0
  8  9  1  0
  9 10  1  0
 10 11  1  0
 11 12  2  0
 12 13  1  0
 13 14  2  0
 14 15  1  0
 14 16  1  0
 16 17  1  0
 17 18  2  0
 17 19  1  0
 19 20  1  0
 20 21  1  0
 21 22  2  0
 22 23  1  0
 23 24  2  0
 24 25  1  0
 25 26  1  0
 24 27  1  0
 27 28  2  0
 16 29  2  0
 10 30  1  0
 30 31  1  0
 31  7  1  0
 29 11  1  0
 28 21  1  0
  1 32  1  0
  1 33  1  0
  1 34  1  0
  3 35  1  0
  3 36  1  0
  4 37  1  0
  4 38  1  0
  8 39  1  0
  8 40  1  0
  9 41  1  0
  9 42  1  0
 10 43  1  0
 13 44  1  0
 20 45  1  0
 20 46  1  0
 22 47  1  0
 23 48  1  0
 26 49  1  0
 26 50  1  0
 26 51  1  0
 27 52  1  0
 28 53  1  0
 30 54  1  0
 30 55  1  0
 31 56  1  0
 31 57  1  0
M  CHG  1  19  -1
M  END
>  <UniqueID>  (63) 
61

>  <SMILES>  (63) 
COCCC(=O)N1CCC(c2ncc(Cl)c(C(=O)[N-]Cc3ccc(OC)cc3)n2)CC1

>  <Energy>  (63) 
63.61989646901586

>  <Genealogy>  (63) 
COCCC(=O)N1CCC(c2ncc(Cl)c(C(=O)[N-]Cc3ccc(OC)cc3)n2)CC1 (protonated)
COCCC(=O)N1CCC(c2ncc(Cl)c(C(=O)[N-]Cc3ccc(OC)cc3)n2)CC1 (3D coordinates assigned)
COCCC(=O)N1CCC(c2ncc(Cl)c(C(=O)[N-]Cc3ccc(OC)cc3)n2)CC1 (nonaromatic ring conformer: 63.61989646901586 kcal/mol)

>  <smiles>  (63) 
COCCC(=O)N1CCC(c2ncc(Cl)c(C(=O)NCc3ccc(OC)cc3)n2)CC1

>  <score_type>  (63) 
oracle

>  <origin>  (63) 
adg

>  <m_score__min__energy>  (63) 
-10.91

>  <m_primary>  (63) 
energy

$$$$
63:0
     RDKit          3D

 43 45  0  0  1  0  0  0  0  0999 V2000
   57.5400   28.0340   44.3840 C   0  0  0  0  0  0  0  0  0  0  0  0
   56.7160   29.1640   44.7080 O   0  0  0  0  0  0  0  0  0  0  0  0
   57.1620   30.4260   44.3360 C   0  0  0  0  0  0  0  0  0  0  0  0
   57.3150   31.3510   45.3180 N   0  0  0  0  0  0  0  0  0  0  0  0
   57.7440   32.6060   45.0350 C   0  0  0  0  0  0  0  0  0  0  0  0
   57.8790   33.4600   45.9930 N   0  0  0  0  0  0  0  0  0  0  0  0
   58.5310   33.0440   47.1860 C   0  0  0  0  0  0  0  0  0  0  0  0
   57.7620   32.6750   48.1330 O   0  0  0  0  0  0  0  0  0  0  0  0
   59.9590   33.0190   47.3660 C   0  0  0  0  0  0  0  0  0  0  0  0
   60.7010   31.9850   46.8380 C   0  0  0  0  0  0  0  0  0  0  0  0
   59.9900   30.9630   46.1190 N   0  0  0  0  0  0  0  0  0  0  0  0
   60.0400   29.6500   46.7080 C   0  0  0  0  0  0  0  0  0  0  0  0
   60.3680   28.5710   45.9150 C   0  0  0  0  0  0  0  0  0  0  0  0
   60.4210   27.2930   46.4640 C   0  0  0  0  0  0  0  0  0  0  0  0
   60.1470   27.0750   47.8160 C   0  0  0  0  0  0  0  0  0  0  0  0
   59.8190   28.1850   48.5990 C   0  0  0  0  0  0  0  0  0  0  0  0
   59.7700   29.4370   48.0440 C   0  0  0  0  0  0  0  0  0  0  0  0
   62.0380   31.9330   46.9890 N   0  0  0  0  0  0  0  0  0  0  0  0
   62.6550   32.9160   47.6700 C   0  0  0  0  0  0  0  0  0  0  0  0
   63.9060   32.8560   47.8040 O   0  0  0  0  0  0  0  0  0  0  0  0
   61.9300   33.9270   48.1860 N   0  0  0  0  0  0  0  0  0  0  0  0
   60.5990   34.0230   48.0630 C   0  0  0  0  0  0  0  0  0  0  0  0
   59.9160   34.9670   48.5430 O   0  0  0  0  0  0  0  0  0  0  0  0
   58.0290   32.9350   43.7210 C   0  0  0  0  0  0  0  0  0  0  0  0
   57.8580   31.9580   42.7530 C   0  0  0  0  0  0  0  0  0  0  0  0
   58.1760   32.3620   41.3520 C   0  0  0  0  0  0  0  0  0  0  0  0
   57.4290   30.7150   43.0510 N   0  0  0  0  0  0  0  0  0  0  0  0
   57.8884   27.5563   45.3116 H   0  0  0  0  0  0  0  0  0  0  0  0
   56.9558   27.3108   43.7961 H   0  0  0  0  0  0  0  0  0  0  0  0
   58.4072   28.3691   43.7961 H   0  0  0  0  0  0  0  0  0  0  0  0
   59.4750   31.1430   45.2400 H   0  0  0  0  0  0  0  0  0  0  0  0
   60.5880   28.7202   44.8476 H   0  0  0  0  0  0  0  0  0  0  0  0
   60.6834   26.4395   45.8215 H   0  0  0  0  0  0  0  0  0  0  0  0
   60.1879   26.0648   48.2494 H   0  0  0  0  0  0  0  0  0  0  0  0
   59.5986   28.0528   49.6685 H   0  0  0  0  0  0  0  0  0  0  0  0
   59.5084   30.2950   48.6807 H   0  0  0  0  0  0  0  0  0  0  0  0
   62.5410   31.1200   46.5630 H   0  0  0  0  0  0  0  0  0  0  0  0
   62.3960   34.7120   48.7260 H   0  0  0  0  0  0  0  0  0  0  0  0
   58.3808   33.9422   43.4530 H   0  0  0  0  0  0  0  0  0  0  0  0
   58.8563   33.2263   41.3651 H   0  0  0  0  0  0  0  0  0  0  0  0
   58.6588   31.5232   40.8291 H   0  0  0  0  0  0  0  0  0  0  0  0
   57.2473   32.6343   40.8291 H   0  0  0  0  0  0  0  0  0  0  0  0
   57.3160   30.0150   42.2860 H   0  0  0  0  0  0  0  0  0  0  0  0
  1  2  1  0
  2  3  1  0
  3  4  2  0
  4  5  1  0
  5  6  2  0
  6  7  1  0
  7  8  2  0
  7  9  1  0
  9 10  2  0
 10 11  1  0
 11 12  1  0
 12 13  2  0
 13 14  1  0
 14 15  2  0
 15 16  1  0
 16 17  2  0
 10 18  1  0
 18 19  1  0
 19 20  2  0
 19 21  1  0
 21 22  1  0
 22 23  2  0
  5 24  1  0
 24 25  2  0
 25 26  1  0
 25 27  1  0
 27  3  1  0
 22  9  1  0
 17 12  1  0
  1 28  1  0
  1 29  1  0
  1 30  1  0
 11 31  1  0
 13 32  1  0
 14 33  1  0
 15 34  1  0
 16 35  1  0
 17 36  1  0
 18 37  1  0
 21 38  1  0
 24 39  1  0
 26 40  1  0
 26 41  1  0
 26 42  1  0
 27 43  1  0
M  END
>  <smiles>  (64) 
COc1nc(=NC(=O)c2c(Nc3ccccc3)[nH]c(=O)[nH]c2=O)cc(C)[nH]1

>  <score_type>  (64) 
oracle

>  <origin>  (64) 
adg

>  <m_score__min__energy>  (64) 
-7.6299999999999999

>  <m_primary>  (64) 
energy

$$$$
64:0
     RDKit          3D

 53 56  0  0  0  0  0  0  0  0999 V2000
   57.7620   29.9190   51.1140 O   0  0  0  0  0  0  0  0  0  0  0  0
   57.2520   31.0720   51.1720 C   0  0  0  0  0  0  0  0  0  0  0  0
   56.0120   31.2770   51.8630 N   0  0  0  0  0  0  0  0  0  0  0  0
   55.2070   30.1700   52.3690 C   0  0  0  0  0  0  0  0  0  0  0  0
   53.7450   30.5000   52.2430 C   0  0  0  0  0  0  0  0  0  0  0  0
   53.1940   30.8490   51.0000 C   0  0  0  0  0  0  0  0  0  0  0  0
   51.8420   31.1930   50.9180 C   0  0  0  0  0  0  0  0  0  0  0  0
   51.0680   31.1870   52.0350 N   0  0  0  0  0  0  0  0  0  0  0  0
   51.5770   30.8610   53.2530 C   0  0  0  0  0  0  0  0  0  0  0  0
   52.9260   30.5220   53.3810 C   0  0  0  0  0  0  0  0  0  0  0  0
   57.8920   32.1770   50.5230 N   0  0  0  0  0  0  0  0  0  0  0  0
   58.9860   31.9890   49.6160 C   0  0  0  0  0  0  0  0  0  0  0  0
   59.9480   31.2480   49.9550 O   0  0  0  0  0  0  0  0  0  0  0  0
   58.9920   32.6370   48.2780 C   0  0  0  0  0  0  0  0  0  0  0  0
   59.5980   33.8940   48.1230 C   0  0  0  0  0  0  0  0  0  0  0  0
   59.6740   34.4940   46.8660 C   0  0  0  0  0  0  0  0  0  0  0  0
   59.1850   33.8330   45.7410 C   0  0  0  0  0  0  0  0  0  0  0  0
   58.6060   32.5590   45.8580 C   0  0  0  0  0  0  0  0  0  0  0  0
   58.1090   31.8580   44.6110 C   0  0  0  0  0  0  0  0  0  0  0  0
   57.5520   30.4770   44.8750 C   0  0  0  0  0  0  0  0  0  0  0  0
   56.2020   30.3230   44.8290 N   0  0  0  0  0  0  0  0  0  0  0  0
   55.6130   29.1560   45.0790 N   0  0  0  0  0  0  0  0  0  0  0  0
   56.3280   28.0540   45.4050 C   0  0  0  0  0  0  0  0  0  0  0  0
   55.7250   26.9700   45.6240 O   0  0  0  0  0  0  0  0  0  0  0  0
   57.7270   28.1290   45.4900 C   0  0  0  0  0  0  0  0  0  0  0  0
   58.3640   29.3560   45.1810 C   0  0  0  0  0  0  0  0  0  0  0  0
   59.8710   29.4970   45.2970 C   0  0  0  0  0  0  0  0  0  0  0  0
   60.6020   28.1530   45.2550 C   0  0  0  0  0  0  0  0  0  0  0  0
   59.9580   27.1770   46.2360 C   0  0  0  0  0  0  0  0  0  0  0  0
   58.5200   26.8780   45.8120 C   0  0  0  0  0  0  0  0  0  0  0  0
   58.4680   31.9840   47.1400 C   0  0  0  0  0  0  0  0  0  0  0  0
   57.8750   30.7680   47.2620 F   0  0  0  0  0  0  0  0  0  0  0  0
   55.6030   32.2390   51.8930 H   0  0  0  0  0  0  0  0  0  0  0  0
   55.4275   29.2630   51.7871 H   0  0  0  0  0  0  0  0  0  0  0  0
   55.4498   30.0006   53.4284 H   0  0  0  0  0  0  0  0  0  0  0  0
   53.8220   30.8517   50.0969 H   0  0  0  0  0  0  0  0  0  0  0  0
   51.4036   31.4691   49.9477 H   0  0  0  0  0  0  0  0  0  0  0  0
   50.9253   30.8642   54.1391 H   0  0  0  0  0  0  0  0  0  0  0  0
   53.3432   30.2739   54.3681 H   0  0  0  0  0  0  0  0  0  0  0  0
   57.4480   33.1210   50.5890 H   0  0  0  0  0  0  0  0  0  0  0  0
   60.0162   34.4099   48.9999 H   0  0  0  0  0  0  0  0  0  0  0  0
   60.1219   35.4933   46.7624 H   0  0  0  0  0  0  0  0  0  0  0  0
   59.2531   34.3129   44.7535 H   0  0  0  0  0  0  0  0  0  0  0  0
   57.3163   32.4723   44.1591 H   0  0  0  0  0  0  0  0  0  0  0  0
   58.9743   31.7349   43.9431 H   0  0  0  0  0  0  0  0  0  0  0  0
   60.2303   30.1177   44.4630 H   0  0  0  0  0  0  0  0  0  0  0  0
   60.0844   29.9574   46.2729 H   0  0  0  0  0  0  0  0  0  0  0  0
   60.5439   27.7384   44.2378 H   0  0  0  0  0  0  0  0  0  0  0  0
   61.6544   28.3057   45.5363 H   0  0  0  0  0  0  0  0  0  0  0  0
   60.5354   26.2408   46.2497 H   0  0  0  0  0  0  0  0  0  0  0  0
   59.9512   27.6273   47.2396 H   0  0  0  0  0  0  0  0  0  0  0  0
   58.5438   26.2378   44.9178 H   0  0  0  0  0  0  0  0  0  0  0  0
   58.0231   26.3813   46.6584 H   0  0  0  0  0  0  0  0  0  0  0  0
  1  2  2  0
  2  3  1  0
  3  4  1  0
  4  5  1  0
  5  6  2  0
  6  7  1  0
  7  8  2  0
  8  9  1  0
  9 10  2  0
  2 11  1  0
 11 12  1  0
 12 13  2  0
 12 14  1  0
 14 15  2  0
 15 16  1  0
 16 17  2  0
 17 18  1  0
 18 19  1  0
 19 20  1  0
 20 21  2  0
 21 22  1  0
 22 23  1  0
 23 24  2  0
 23 25  1  0
 25 26  2  0
 26 27  1  0
 27 28  1  0
 28 29  1  0
 29 30  1  0
 18 31  2  0
 31 32  1  0
 10  5  1  0
 31 14  1  0
 26 20  1  0
 30 25  1  0
  3 33  1  0
  4 34  1  0
  4 35  1  0
  6 36  1  0
  7 37  1  0
  9 38  1  0
 10 39  1  0
 11 40  1  0
 15 41  1  0
 16 42  1  0
 17 43  1  0
 19 44  1  0
 19 45  1  0
 27 46  1  0
 27 47  1  0
 28 48  1  0
 28 49  1  0
 29 50  1  0
 29 51  1  0
 30 52  1  0
 30 53  1  0
M  CHG  1  22  -1
M  END
>  <UniqueID>  (65) 
62

>  <SMILES>  (65) 
O=C(NCc1ccncc1)NC(=O)c1cccc(Cc2n[n-]c(=O)c3c2CCCC3)c1F

>  <Energy>  (65) 
62.25776617355855

>  <Genealogy>  (65) 
O=C(NCc1ccncc1)NC(=O)c1cccc(Cc2n[n-]c(=O)c3c2CCCC3)c1F (protonated)
O=C(NCc1ccncc1)NC(=O)c1cccc(Cc2n[n-]c(=O)c3c2CCCC3)c1F (3D coordinates assigned)
O=C(NCc1ccncc1)NC(=O)c1cccc(Cc2n[n-]c(=O)c3c2CCCC3)c1F (nonaromatic ring conformer: 62.25776617355855 kcal/mol)

>  <smiles>  (65) 
O=C(NCc1ccncc1)NC(=O)c1cccc(Cc2n[nH]c(=O)c3c2CCCC3)c1F

>  <score_type>  (65) 
oracle

>  <origin>  (65) 
adg

>  <m_score__min__energy>  (65) 
-12.67

>  <m_primary>  (65) 
energy

$$$$
65:0
     RDKit          3D

 57 61  0  0  0  0  0  0  0  0999 V2000
   59.6530   26.4080   48.3140 C   0  0  0  0  0  0  0  0  0  0  0  0
   59.8520   27.5560   47.6420 C   0  0  0  0  0  0  0  0  0  0  0  0
   59.4490   27.8140   46.3240 C   0  0  0  0  0  0  0  0  0  0  0  0
   58.7720   26.9830   45.5000 C   0  0  0  0  0  0  0  0  0  0  0  0
   57.4330   26.4190   45.7810 C   0  0  0  0  0  0  0  0  0  0  0  0
   57.2020   25.1950   46.2920 N   0  0  0  0  0  0  0  0  0  0  0  0
   55.8610   25.1580   46.4360 C   0  0  0  0  0  0  0  0  0  0  0  0
   55.2560   24.1530   46.8900 O   0  0  0  0  0  0  0  0  0  0  0  0
   55.2220   26.2850   46.0620 N   0  0  0  0  0  0  0  0  0  0  0  0
   56.2270   27.0770   45.6550 C   0  0  0  0  0  0  0  0  0  0  0  0
   56.0290   28.3680   45.1720 O   0  0  0  0  0  0  0  0  0  0  0  0
   59.8420   29.1150   46.0480 C   0  0  0  0  0  0  0  0  0  0  0  0
   60.4670   29.5900   47.1810 C   0  0  0  0  0  0  0  0  0  0  0  0
   61.0040   30.9580   47.3080 C   0  0  0  0  0  0  0  0  0  0  0  0
   62.1610   31.1130   47.7810 O   0  0  0  0  0  0  0  0  0  0  0  0
   60.2360   32.1070   46.8950 N   0  0  0  0  0  0  0  0  0  0  0  0
   60.9160   33.2920   46.3670 C   0  0  0  0  0  0  0  0  0  0  0  0
   60.2070   34.5670   46.8420 C   0  0  0  0  0  0  0  0  0  0  0  0
   58.7520   34.5320   46.5970 N   0  0  0  0  0  0  0  0  0  0  0  0
   58.4350   34.6360   45.1640 C   0  0  0  0  0  0  0  0  0  0  0  0
   57.8210   33.3700   44.5860 C   0  0  0  0  0  0  0  0  0  0  0  0
   56.9440   34.5760   44.8720 C   0  0  0  0  0  0  0  0  0  0  0  0
   58.1270   33.3450   47.2120 C   0  0  0  0  0  0  0  0  0  0  0  0
   58.7770   32.0310   46.7580 C   0  0  0  0  0  0  0  0  0  0  0  0
   60.4820   28.6490   48.1550 N   0  0  0  0  0  0  0  0  0  0  0  0
   60.9020   28.8790   49.5480 C   0  0  0  0  0  0  0  0  0  0  0  0
   60.1800   30.0730   50.1170 C   0  0  0  0  0  0  0  0  0  0  0  0
   60.9020   31.1790   50.5960 C   0  0  0  0  0  0  0  0  0  0  0  0
   60.2300   32.3120   51.0670 C   0  0  0  0  0  0  0  0  0  0  0  0
   58.8330   32.3480   51.0630 C   0  0  0  0  0  0  0  0  0  0  0  0
   58.1810   33.4470   51.5190 F   0  0  0  0  0  0  0  0  0  0  0  0
   58.1070   31.2520   50.5880 C   0  0  0  0  0  0  0  0  0  0  0  0
   58.7760   30.1200   50.1140 C   0  0  0  0  0  0  0  0  0  0  0  0
   60.0104   26.3078   49.3495 H   0  0  0  0  0  0  0  0  0  0  0  0
   59.1329   25.5693   47.8281 H   0  0  0  0  0  0  0  0  0  0  0  0
   59.2522   26.7055   44.5501 H   0  0  0  0  0  0  0  0  0  0  0  0
   56.1280   28.5920   44.1900 H   0  0  0  0  0  0  0  0  0  0  0  0
   59.6852   29.6622   45.1067 H   0  0  0  0  0  0  0  0  0  0  0  0
   61.9571   33.3017   46.7221 H   0  0  0  0  0  0  0  0  0  0  0  0
   60.8938   33.2579   45.2678 H   0  0  0  0  0  0  0  0  0  0  0  0
   60.3797   34.6847   47.9220 H   0  0  0  0  0  0  0  0  0  0  0  0
   60.6209   35.4110   46.2707 H   0  0  0  0  0  0  0  0  0  0  0  0
   59.2622   35.3030   44.8795 H   0  0  0  0  0  0  0  0  0  0  0  0
   58.0352   33.0799   43.5468 H   0  0  0  0  0  0  0  0  0  0  0  0
   57.8049   32.3098   44.8788 H   0  0  0  0  0  0  0  0  0  0  0  0
   56.5228   35.1592   44.0399 H   0  0  0  0  0  0  0  0  0  0  0  0
   56.0295   34.7508   45.4578 H   0  0  0  0  0  0  0  0  0  0  0  0
   58.2206   33.4246   48.3051 H   0  0  0  0  0  0  0  0  0  0  0  0
   57.0741   33.3219   46.8944 H   0  0  0  0  0  0  0  0  0  0  0  0
   58.3974   31.2057   47.3783 H   0  0  0  0  0  0  0  0  0  0  0  0
   58.5268   31.8561   45.7012 H   0  0  0  0  0  0  0  0  0  0  0  0
   60.6654   27.9898   50.1507 H   0  0  0  0  0  0  0  0  0  0  0  0
   61.9852   29.0694   49.5703 H   0  0  0  0  0  0  0  0  0  0  0  0
   62.0017   31.1539   50.6007 H   0  0  0  0  0  0  0  0  0  0  0  0
   60.8013   33.1746   51.4405 H   0  0  0  0  0  0  0  0  0  0  0  0
   57.0074   31.2804   50.5872 H   0  0  0  0  0  0  0  0  0  0  0  0
   58.2004   29.2619   49.7368 H   0  0  0  0  0  0  0  0  0  0  0  0
  1  2  2  0
  2  3  1  0
  3  4  2  3
  4  5  1  0
  5  6  1  0
  6  7  1  0
  7  8  2  0
  7  9  1  0
  9 10  1  0
 10 11  1  0
  3 12  1  0
 12 13  2  0
 13 14  1  0
 14 15  2  0
 14 16  1  0
 16 17  1  0
 17 18  1  0
 18 19  1  0
 19 20  1  0
 20 21  1  0
 21 22  1  0
 19 23  1  0
 23 24  1  0
 13 25  1  0
 25 26  1  0
 26 27  1  0
 27 28  2  0
 28 29  1  0
 29 30  2  0
 30 31  1  0
 30 32  1  0
 32 33  2  0
 25  2  1  0
 33 27  1  0
 10  5  2  0
 24 16  1  0
 22 20  1  0
  1 34  1  0
  1 35  1  0
  4 36  1  0
 11 37  1  0
 12 38  1  0
 17 39  1  0
 17 40  1  0
 18 41  1  0
 18 42  1  0
 20 43  1  0
 21 44  1  0
 21 45  1  0
 22 46  1  0
 22 47  1  0
 23 48  1  0
 23 49  1  0
 24 50  1  0
 24 51  1  0
 26 52  1  0
 26 53  1  0
 28 54  1  0
 29 55  1  0
 32 56  1  0
 33 57  1  0
M  CHG  2   6  -1   9  -1
M  END
>  <UniqueID>  (66) 
63

>  <SMILES>  (66) 
C=c1c(=Cc2[n-]c(=O)[n-]c2O)cc(C(=O)N2CCN(C3CC3)CC2)n1Cc1ccc(F)cc1

>  <Energy>  (66) 
393.12040596207834

>  <Genealogy>  (66) 
C=c1c(=Cc2[n-]c(=O)[n-]c2O)cc(C(=O)N2CCN(C3CC3)CC2)n1Cc1ccc(F)cc1 (protonated)
C=c1c(=Cc2[n-]c(=O)[n-]c2O)cc(C(=O)N2CCN(C3CC3)CC2)n1Cc1ccc(F)cc1 (3D coordinates assigned)
C=c1c(=Cc2[n-]c(=O)[n-]c2O)cc(C(=O)N2CCN(C3CC3)CC2)n1Cc1ccc(F)cc1 (nonaromatic ring conformer: 393.12040596207834 kcal/mol)

>  <smiles>  (66) 
C=c1c(=Cc2[nH]c(=O)[nH]c2O)cc(C(=O)N2CCN(C3CC3)CC2)n1Cc1ccc(F)cc1

>  <score_type>  (66) 
oracle

>  <origin>  (66) 
adg

>  <m_score__min__energy>  (66) 
-12.76

>  <m_primary>  (66) 
energy

$$$$
66:0
     RDKit          3D

 40 42  0  0  0  0  0  0  0  0999 V2000
   57.2830   31.8180   44.8980 C   0  0  0  0  0  0  0  0  0  0  0  0
   57.5880   33.2150   45.3430 C   0  0  0  0  0  0  0  0  0  0  0  0
   57.2850   34.1730   44.5820 O   0  0  0  0  0  0  0  0  0  0  0  0
   58.3160   33.4760   46.6070 C   0  0  0  0  0  0  0  0  0  0  0  0
   57.9990   32.7150   47.7480 C   0  0  0  0  0  0  0  0  0  0  0  0
   58.6820   32.9020   48.9540 C   0  0  0  0  0  0  0  0  0  0  0  0
   58.2540   32.1500   50.1010 N   0  0  0  0  0  0  0  0  0  0  0  0
   58.5460   32.4160   51.4780 C   0  0  0  0  0  0  0  0  0  0  0  0
   58.3050   33.5440   51.9850 O   0  0  0  0  0  0  0  0  0  0  0  0
   59.1430   31.3350   52.3220 C   0  0  0  0  0  0  0  0  0  0  0  0
   58.7890   29.6880   51.6100 S   0  0  0  0  0  0  0  0  0  0  0  0
   57.0850   29.6470   52.1590 C   0  0  0  0  0  0  0  0  0  0  0  0
   56.5430   28.6220   52.8380 N   0  0  0  0  0  0  0  0  0  0  0  0
   55.2630   28.9120   52.9940 N   0  0  0  0  0  0  0  0  0  0  0  0
   55.0600   30.1080   52.4070 C   0  0  0  0  0  0  0  0  0  0  0  0
   53.7390   30.7600   52.2950 C   0  0  0  0  0  0  0  0  0  0  0  0
   53.3040   31.2860   51.0640 C   0  0  0  0  0  0  0  0  0  0  0  0
   52.0710   31.9390   50.9710 C   0  0  0  0  0  0  0  0  0  0  0  0
   51.2620   32.0760   52.1030 C   0  0  0  0  0  0  0  0  0  0  0  0
   50.0430   32.7360   52.0110 O   0  0  0  0  0  0  0  0  0  0  0  0
   51.6810   31.5480   53.3270 C   0  0  0  0  0  0  0  0  0  0  0  0
   52.9110   30.8910   53.4240 C   0  0  0  0  0  0  0  0  0  0  0  0
   56.1900   30.6110   51.8700 N   0  0  0  0  0  0  0  0  0  0  0  0
   59.6900   33.8760   49.0280 C   0  0  0  0  0  0  0  0  0  0  0  0
   60.0180   34.6340   47.9030 C   0  0  0  0  0  0  0  0  0  0  0  0
   59.3300   34.4590   46.6980 C   0  0  0  0  0  0  0  0  0  0  0  0
   59.6500   35.3070   45.6350 O   0  0  0  0  0  0  0  0  0  0  0  0
   57.1426   31.1749   45.7793 H   0  0  0  0  0  0  0  0  0  0  0  0
   56.3637   31.8181   44.2939 H   0  0  0  0  0  0  0  0  0  0  0  0
   58.1187   31.4349   44.2939 H   0  0  0  0  0  0  0  0  0  0  0  0
   57.2006   31.9605   47.6901 H   0  0  0  0  0  0  0  0  0  0  0  0
   60.2323   31.4787   52.3753 H   0  0  0  0  0  0  0  0  0  0  0  0
   58.7011   31.3875   53.3280 H   0  0  0  0  0  0  0  0  0  0  0  0
   53.9373   31.1828   50.1705 H   0  0  0  0  0  0  0  0  0  0  0  0
   51.7369   32.3458   50.0051 H   0  0  0  0  0  0  0  0  0  0  0  0
   51.0415   31.6496   54.2162 H   0  0  0  0  0  0  0  0  0  0  0  0
   53.2332   30.4739   54.3895 H   0  0  0  0  0  0  0  0  0  0  0  0
   60.2231   34.0424   49.9757 H   0  0  0  0  0  0  0  0  0  0  0  0
   60.8266   35.3773   47.9647 H   0  0  0  0  0  0  0  0  0  0  0  0
   59.1090   35.3600   44.7830 H   0  0  0  0  0  0  0  0  0  0  0  0
  1  2  1  0
  2  3  2  0
  2  4  1  0
  4  5  2  0
  5  6  1  0
  6  7  1  0
  7  8  1  0
  8  9  2  0
  8 10  1  0
 10 11  1  0
 11 12  1  0
 12 13  2  0
 13 14  1  0
 14 15  1  0
 15 16  1  0
 16 17  2  0
 17 18  1  0
 18 19  2  0
 19 20  1  0
 19 21  1  0
 21 22  2  0
 15 23  2  0
  6 24  2  0
 24 25  1  0
 25 26  2  0
 26 27  1  0
 26  4  1  0
 23 12  1  0
 22 16  1  0
  1 28  1  0
  1 29  1  0
  1 30  1  0
  5 31  1  0
 10 32  1  0
 10 33  1  0
 17 34  1  0
 18 35  1  0
 21 36  1  0
 22 37  1  0
 24 38  1  0
 25 39  1  0
 27 40  1  0
M  CHG  3   7  -1  14  -1  20  -1
M  END
>  <UniqueID>  (67) 
64

>  <SMILES>  (67) 
CC(=O)c1cc([N-]C(=O)CSc2n[n-]c(-c3ccc([O-])cc3)n2)ccc1O

>  <Energy>  (67) 
72.76902309452564

>  <Genealogy>  (67) 
CC(=O)c1cc([N-]C(=O)CSc2n[n-]c(-c3ccc([O-])cc3)n2)ccc1O (protonated)
CC(=O)c1cc([N-]C(=O)CSc2n[n-]c(-c3ccc([O-])cc3)n2)ccc1O (3D coordinates assigned)
CC(=O)c1cc([N-]C(=O)CSc2n[n-]c(-c3ccc([O-])cc3)n2)ccc1O (optimized conformer: 72.76902309452564 kcal/mol)

>  <smiles>  (67) 
CC(=O)c1cc(NC(=O)CSc2n[nH]c(-c3ccc(O)cc3)n2)ccc1O

>  <score_type>  (67) 
oracle

>  <origin>  (67) 
adg

>  <m_score__min__energy>  (67) 
-12.9

>  <m_primary>  (67) 
energy

$$$$
67:0
     RDKit          3D

 40 42  0  0  0  0  0  0  0  0999 V2000
   62.0370   33.9830   47.8080 O   0  0  0  0  0  0  0  0  0  0  0  0
   61.1860   34.0320   48.7370 C   0  0  0  0  0  0  0  0  0  0  0  0
   61.6440   33.9200   50.1590 C   0  0  0  0  0  0  0  0  0  0  0  0
   60.3220   33.2390   51.2190 S   0  0  0  0  0  0  0  0  0  0  0  0
   60.1840   31.6860   50.3270 C   0  0  0  0  0  0  0  0  0  0  0  0
   58.9850   31.3520   49.6840 C   0  0  0  0  0  0  0  0  0  0  0  0
   58.8790   30.1480   48.9800 C   0  0  0  0  0  0  0  0  0  0  0  0
   59.9680   29.2710   48.9230 C   0  0  0  0  0  0  0  0  0  0  0  0
   59.8340   27.7640   48.0370 Cl  0  0  0  0  0  0  0  0  0  0  0  0
   61.1610   29.5970   49.5790 C   0  0  0  0  0  0  0  0  0  0  0  0
   61.2680   30.8010   50.2830 C   0  0  0  0  0  0  0  0  0  0  0  0
   59.7920   34.2150   48.4430 N   0  0  0  0  0  0  0  0  0  0  0  0
   59.2220   34.0550   47.1330 C   0  0  0  0  0  0  0  0  0  0  0  0
   59.5020   35.0030   46.1390 C   0  0  0  0  0  0  0  0  0  0  0  0
   58.9570   34.8670   44.8600 C   0  0  0  0  0  0  0  0  0  0  0  0
   58.1040   33.7990   44.5700 C   0  0  0  0  0  0  0  0  0  0  0  0
   57.7730   32.8710   45.5630 C   0  0  0  0  0  0  0  0  0  0  0  0
   56.9000   31.8210   45.2410 O   0  0  0  0  0  0  0  0  0  0  0  0
   57.2320   30.7380   44.4160 C   0  0  0  0  0  0  0  0  0  0  0  0
   57.7410   30.9270   43.2780 O   0  0  0  0  0  0  0  0  0  0  0  0
   57.0330   29.3680   44.9000 C   0  0  0  0  0  0  0  0  0  0  0  0
   58.0410   28.4470   45.1230 C   0  0  0  0  0  0  0  0  0  0  0  0
   57.4220   27.3050   45.5790 C   0  0  0  0  0  0  0  0  0  0  0  0
   56.0760   27.5970   45.6090 C   0  0  0  0  0  0  0  0  0  0  0  0
   55.0850   26.7130   46.0140 O   0  0  0  0  0  0  0  0  0  0  0  0
   55.8220   28.8540   45.1970 N   0  0  0  0  0  0  0  0  0  0  0  0
   58.3450   32.9940   46.8420 C   0  0  0  0  0  0  0  0  0  0  0  0
   62.5195   33.2556   50.2039 H   0  0  0  0  0  0  0  0  0  0  0  0
   61.9042   34.9245   50.5241 H   0  0  0  0  0  0  0  0  0  0  0  0
   58.1260   32.0373   49.7328 H   0  0  0  0  0  0  0  0  0  0  0  0
   57.9387   29.8903   48.4707 H   0  0  0  0  0  0  0  0  0  0  0  0
   62.0155   28.9053   49.5408 H   0  0  0  0  0  0  0  0  0  0  0  0
   62.2044   31.0527   50.8024 H   0  0  0  0  0  0  0  0  0  0  0  0
   59.1710   34.5500   49.2150 H   0  0  0  0  0  0  0  0  0  0  0  0
   60.1544   35.8587   46.3674 H   0  0  0  0  0  0  0  0  0  0  0  0
   59.2000   35.6026   44.0791 H   0  0  0  0  0  0  0  0  0  0  0  0
   57.6910   33.6875   43.5566 H   0  0  0  0  0  0  0  0  0  0  0  0
   59.1196   28.5970   44.9673 H   0  0  0  0  0  0  0  0  0  0  0  0
   57.9024   26.3564   45.8608 H   0  0  0  0  0  0  0  0  0  0  0  0
   58.1049   32.2551   47.6207 H   0  0  0  0  0  0  0  0  0  0  0  0
  1  2  2  0
  2  3  1  0
  3  4  1  0
  4  5  1  0
  5  6  2  0
  6  7  1  0
  7  8  2  0
  8  9  1  0
  8 10  1  0
 10 11  2  0
  2 12  1  0
 12 13  1  0
 13 14  2  0
 14 15  1  0
 15 16  2  0
 16 17  1  0
 17 18  1  0
 18 19  1  0
 19 20  2  0
 19 21  1  0
 21 22  2  0
 22 23  1  0
 23 24  2  0
 24 25  1  0
 24 26  1  0
 17 27  2  0
 11  5  1  0
 27 13  1  0
 26 21  1  0
  3 28  1  0
  3 29  1  0
  6 30  1  0
  7 31  1  0
 10 32  1  0
 11 33  1  0
 12 34  1  0
 14 35  1  0
 15 36  1  0
 16 37  1  0
 22 38  1  0
 23 39  1  0
 27 40  1  0
M  CHG  2  25  -1  26  -1
M  END
>  <UniqueID>  (68) 
65

>  <SMILES>  (68) 
O=C(CSc1ccc(Cl)cc1)Nc1cccc(OC(=O)c2ccc([O-])[n-]2)c1

>  <Energy>  (68) 
67.32526980808562

>  <Genealogy>  (68) 
O=C(CSc1ccc(Cl)cc1)Nc1cccc(OC(=O)c2ccc([O-])[n-]2)c1 (protonated)
O=C(CSc1ccc(Cl)cc1)Nc1cccc(OC(=O)c2ccc([O-])[n-]2)c1 (3D coordinates assigned)
O=C(CSc1ccc(Cl)cc1)Nc1cccc(OC(=O)c2ccc([O-])[n-]2)c1 (optimized conformer: 67.32526980808562 kcal/mol)

>  <smiles>  (68) 
O=C(CSc1ccc(Cl)cc1)Nc1cccc(OC(=O)c2ccc(O)[nH]2)c1

>  <score_type>  (68) 
oracle

>  <origin>  (68) 
adg

>  <m_score__min__energy>  (68) 
-15.09

>  <m_primary>  (68) 
energy

$$$$
68:0
     RDKit          3D

 42 45  0  0  0  0  0  0  0  0999 V2000
   61.1890   30.4540   49.0880 C   0  0  0  0  0  0  0  0  0  0  0  0
   61.4770   30.7170   47.8160 C   0  0  0  0  0  0  0  0  0  0  0  0
   60.4110   30.8410   46.8060 C   0  0  0  0  0  0  0  0  0  0  0  0
   60.0920   29.6710   46.1030 C   0  0  0  0  0  0  0  0  0  0  0  0
   58.9660   29.6080   45.2800 C   0  0  0  0  0  0  0  0  0  0  0  0
   58.6540   28.4170   44.6050 C   0  0  0  0  0  0  0  0  0  0  0  0
   57.5140   28.3390   43.8040 C   0  0  0  0  0  0  0  0  0  0  0  0
   56.6710   29.4470   43.6710 C   0  0  0  0  0  0  0  0  0  0  0  0
   55.5310   29.3780   42.8750 O   0  0  0  0  0  0  0  0  0  0  0  0
   56.9730   30.6380   44.3390 C   0  0  0  0  0  0  0  0  0  0  0  0
   58.1240   30.7350   45.1500 C   0  0  0  0  0  0  0  0  0  0  0  0
   58.4570   31.9340   45.8180 C   0  0  0  0  0  0  0  0  0  0  0  0
   57.6480   33.0220   45.6870 N   0  0  0  0  0  0  0  0  0  0  0  0
   57.9340   34.2140   46.2580 C   0  0  0  0  0  0  0  0  0  0  0  0
   59.1120   34.3780   46.9730 C   0  0  0  0  0  0  0  0  0  0  0  0
   59.9880   33.2960   47.1490 C   0  0  0  0  0  0  0  0  0  0  0  0
   61.2940   33.5670   47.6980 N   0  0  0  0  0  0  0  0  0  0  0  0
   62.3950   33.8200   46.7600 C   0  0  0  0  0  0  0  0  0  0  0  0
   63.7730   33.4820   47.3740 C   0  0  0  0  0  0  0  0  0  0  0  0
   63.7970   33.4730   48.8470 N   0  0  0  0  0  0  0  0  0  0  0  0
   62.8490   34.4320   49.4230 C   0  0  0  0  0  0  0  0  0  0  0  0
   61.4080   34.0270   49.0910 C   0  0  0  0  0  0  0  0  0  0  0  0
   59.6370   32.0210   46.6120 C   0  0  0  0  0  0  0  0  0  0  0  0
   61.9980   30.3650   49.8280 H   0  0  0  0  0  0  0  0  0  0  0  0
   60.1419   30.3256   49.3996 H   0  0  0  0  0  0  0  0  0  0  0  0
   62.5270   30.8438   47.5135 H   0  0  0  0  0  0  0  0  0  0  0  0
   60.7398   28.7875   46.2014 H   0  0  0  0  0  0  0  0  0  0  0  0
   59.3114   27.5411   44.7081 H   0  0  0  0  0  0  0  0  0  0  0  0
   57.2778   27.4035   43.2758 H   0  0  0  0  0  0  0  0  0  0  0  0
   55.3660   28.5960   42.2520 H   0  0  0  0  0  0  0  0  0  0  0  0
   56.3074   31.5071   44.2313 H   0  0  0  0  0  0  0  0  0  0  0  0
   57.2320   35.0547   46.1556 H   0  0  0  0  0  0  0  0  0  0  0  0
   59.3599   35.3595   47.4033 H   0  0  0  0  0  0  0  0  0  0  0  0
   62.2454   33.2015   45.8627 H   0  0  0  0  0  0  0  0  0  0  0  0
   62.3888   34.8917   46.5123 H   0  0  0  0  0  0  0  0  0  0  0  0
   64.0727   32.4850   47.0189 H   0  0  0  0  0  0  0  0  0  0  0  0
   64.4630   34.2765   47.0535 H   0  0  0  0  0  0  0  0  0  0  0  0
   63.5540   32.5130   49.1880 H   0  0  0  0  0  0  0  0  0  0  0  0
   62.9761   34.4552   50.5154 H   0  0  0  0  0  0  0  0  0  0  0  0
   63.0462   35.4270   48.9974 H   0  0  0  0  0  0  0  0  0  0  0  0
   61.0994   33.2137   49.7642 H   0  0  0  0  0  0  0  0  0  0  0  0
   60.7593   34.9055   49.2228 H   0  0  0  0  0  0  0  0  0  0  0  0
  1  2  2  0
  2  3  1  0
  3  4  2  0
  4  5  1  0
  5  6  2  0
  6  7  1  0
  7  8  2  0
  8  9  1  0
  8 10  1  0
 10 11  2  0
 11 12  1  0
 12 13  2  0
 13 14  1  0
 14 15  2  0
 15 16  1  0
 16 17  1  0
 17 18  1  0
 18 19  1  0
 19 20  1  0
 20 21  1  0
 21 22  1  0
 16 23  2  0
 23  3  1  0
 11  5  1  0
 23 12  1  0
 22 17  1  0
  1 24  1  0
  1 25  1  0
  2 26  1  0
  4 27  1  0
  6 28  1  0
  7 29  1  0
  9 30  1  0
 10 31  1  0
 14 32  1  0
 15 33  1  0
 18 34  1  0
 18 35  1  0
 19 36  1  0
 19 37  1  0
 20 38  1  0
 21 39  1  0
 21 40  1  0
 22 41  1  0
 22 42  1  0
M  END
>  <UniqueID>  (69) 
66

>  <SMILES>  (69) 
C=Cc1cc2ccc(O)cc2c2nccc(N3CCNCC3)c12

>  <Energy>  (69) 
74.31266653665959

>  <Genealogy>  (69) 
C=Cc1cc2ccc(O)cc2c2nccc(N3CCNCC3)c12 (3D coordinates assigned)
C=Cc1cc2ccc(O)cc2c2nccc(N3CCNCC3)c12 (nonaromatic ring conformer: 74.31266653665959 kcal/mol)

>  <smiles>  (69) 
C=Cc1cc2ccc(O)cc2c2nccc(N3CCNCC3)c12

>  <score_type>  (69) 
oracle

>  <origin>  (69) 
adg

>  <m_score__min__energy>  (69) 
-7.7999999999999998

>  <m_primary>  (69) 
energy

$$$$
69:0
     RDKit          3D

 56 58  0  0  0  0  0  0  0  0999 V2000
   59.2021   27.9491   48.3920 H   0  0  0  0  0  0  0  0  0  0  0  0
   58.6100   27.8000   47.4770 C   0  0  0  0  0  0  0  0  0  0  0  0
   57.6130   26.8770   47.4590 N   0  0  0  0  0  0  0  0  0  0  0  0
   56.8560   26.6420   46.3510 C   0  0  0  0  0  0  0  0  0  0  0  0
   55.8960   25.7620   46.4400 N   0  0  0  0  0  0  0  0  0  0  0  0
   55.5370   24.7060   45.4860 C   0  0  0  0  0  0  0  0  0  0  0  0
   54.7358   25.0787   44.8309 H   0  0  0  0  0  0  0  0  0  0  0  0
   55.2090   23.8288   46.0630 H   0  0  0  0  0  0  0  0  0  0  0  0
   56.7360   24.2740   44.6090 C   0  0  0  0  0  0  0  0  0  0  0  0
   57.1987   25.2033   44.2452 H   0  0  0  0  0  0  0  0  0  0  0  0
   56.3110   23.4720   43.3720 C   0  0  0  0  0  0  0  0  0  0  0  0
   55.8179   22.5415   43.6899 H   0  0  0  0  0  0  0  0  0  0  0  0
   55.6116   24.0703   42.7696 H   0  0  0  0  0  0  0  0  0  0  0  0
   57.1988   23.2292   42.7696 H   0  0  0  0  0  0  0  0  0  0  0  0
   57.7810   23.4970   45.4280 C   0  0  0  0  0  0  0  0  0  0  0  0
   57.5870   23.6413   46.5011 H   0  0  0  0  0  0  0  0  0  0  0  0
   57.7157   22.4263   45.1843 H   0  0  0  0  0  0  0  0  0  0  0  0
   58.7875   23.8678   45.1843 H   0  0  0  0  0  0  0  0  0  0  0  0
   57.1410   27.3540   45.1640 C   0  0  0  0  0  0  0  0  0  0  0  0
   56.5678   27.1538   44.2467 H   0  0  0  0  0  0  0  0  0  0  0  0
   58.1550   28.3130   45.1640 C   0  0  0  0  0  0  0  0  0  0  0  0
   58.3805   28.8737   44.2449 H   0  0  0  0  0  0  0  0  0  0  0  0
   58.8870   28.5630   46.3340 C   0  0  0  0  0  0  0  0  0  0  0  0
   59.9270   29.6090   46.3480 C   0  0  0  0  0  0  0  0  0  0  0  0
   60.7070   29.6950   45.3560 O   0  0  0  0  0  0  0  0  0  0  0  0
   60.0290   30.5600   47.4390 N   0  0  0  0  0  0  0  0  0  0  0  0
   61.1980   31.4440   47.5680 C   0  0  0  0  0  0  0  0  0  0  0  0
   61.6701   31.2763   48.5473 H   0  0  0  0  0  0  0  0  0  0  0  0
   61.9042   31.2137   46.7567 H   0  0  0  0  0  0  0  0  0  0  0  0
   60.7810   32.9320   47.4540 C   0  0  0  0  0  0  0  0  0  0  0  0
   61.4345   33.5273   48.1086 H   0  0  0  0  0  0  0  0  0  0  0  0
   60.8796   33.2142   46.3954 H   0  0  0  0  0  0  0  0  0  0  0  0
   59.3650   33.1870   47.8440 N   0  0  0  0  0  0  0  0  0  0  0  0
   59.3370   34.1410   48.2760 H   0  0  0  0  0  0  0  0  0  0  0  0
   58.4590   33.2040   46.7000 C   0  0  0  0  0  0  0  0  0  0  0  0
   57.2430   33.2130   46.8640 O   0  0  0  0  0  0  0  0  0  0  0  0
   58.9940   33.2710   45.2900 C   0  0  0  0  0  0  0  0  0  0  0  0
   58.9843   34.3168   44.9491 H   0  0  0  0  0  0  0  0  0  0  0  0
   60.0211   32.8772   45.2816 H   0  0  0  0  0  0  0  0  0  0  0  0
   58.1450   32.4370   44.3580 C   0  0  0  0  0  0  0  0  0  0  0  0
   57.3540   31.3850   44.8590 C   0  0  0  0  0  0  0  0  0  0  0  0
   57.3207   31.1940   45.9418 H   0  0  0  0  0  0  0  0  0  0  0  0
   56.6100   30.5810   43.9880 C   0  0  0  0  0  0  0  0  0  0  0  0
   55.9946   29.7615   44.3875 H   0  0  0  0  0  0  0  0  0  0  0  0
   56.6480   30.8180   42.6120 C   0  0  0  0  0  0  0  0  0  0  0  0
   56.0644   30.1837   41.9286 H   0  0  0  0  0  0  0  0  0  0  0  0
   57.4290   31.8630   42.1020 C   0  0  0  0  0  0  0  0  0  0  0  0
   57.4586   32.0482   41.0181 H   0  0  0  0  0  0  0  0  0  0  0  0
   58.1720   32.6720   42.9700 C   0  0  0  0  0  0  0  0  0  0  0  0
   58.7797   33.4950   42.5658 H   0  0  0  0  0  0  0  0  0  0  0  0
   58.8970   32.2330   48.8730 C   0  0  0  0  0  0  0  0  0  0  0  0
   59.5670   32.2884   49.7436 H   0  0  0  0  0  0  0  0  0  0  0  0
   57.8686   32.5038   49.1542 H   0  0  0  0  0  0  0  0  0  0  0  0
   58.8890   30.7920   48.3390 C   0  0  0  0  0  0  0  0  0  0  0  0
   58.9511   30.0934   49.1864 H   0  0  0  0  0  0  0  0  0  0  0  0
   57.9579   30.6308   47.7759 H   0  0  0  0  0  0  0  0  0  0  0  0
  1  2  1  0
  2  3  1  0
  3  4  1  0
  4  5  2  0
  5  6  1  0
  6  7  1  0
  6  8  1  0
  6  9  1  0
  9 10  1  0
  9 11  1  0
 11 12  1  0
 11 13  1  0
 11 14  1  0
  9 15  1  0
 15 16  1  0
 15 17  1  0
 15 18  1  0
  4 19  1  0
 19 20  1  0
 19 21  2  0
 21 22  1  0
 21 23  1  0
 23 24  1  0
 24 25  2  0
 24 26  1  0
 26 27  1  0
 27 28  1  0
 27 29  1  0
 27 30  1  0
 30 31  1  0
 30 32  1  0
 30 33  1  0
 33 34  1  0
 33 35  1  0
 35 36  2  0
 35 37  1  0
 37 38  1  0
 37 39  1  0
 37 40  1  0
 40 41  2  0
 41 42  1  0
 41 43  1  0
 43 44  1  0
 43 45  2  0
 45 46  1  0
 45 47  1  0
 47 48  1  0
 47 49  2  0
 49 50  1  0
 33 51  1  0
 51 52  1  0
 51 53  1  0
 51 54  1  0
 54 55  1  0
 54 56  1  0
 23  2  2  0
 54 26  1  0
 49 40  1  0
M  CHG  2   3  -1  33   1
M  END
>  <UniqueID>  (70) 
67

>  <SMILES>  (70) 
CC(C)C/N=c1\ccc(C(=O)N2CC[NH+](C(=O)Cc3ccccc3)CC2)c[n-]1

>  <Energy>  (70) 
68.00533727761346

>  <Genealogy>  (70) 
CC(C)CN=c1ccc(C(=O)N2CC[NH+](C(=O)Cc3ccccc3)CC2)c[n-]1 (protonated)
CC(C)C/N=c1\ccc(C(=O)N2CC[NH+](C(=O)Cc3ccccc3)CC2)c[n-]1 (cis-trans isomerization)
CC(C)C/N=c1\ccc(C(=O)N2CC[NH+](C(=O)Cc3ccccc3)CC2)c[n-]1 (3D coordinates assigned)
CC(C)C/N=c1\ccc(C(=O)N2CC[NH+](C(=O)Cc3ccccc3)CC2)c[n-]1 (nonaromatic ring conformer: 68.00533727761346 kcal/mol)

>  <smiles>  (70) 
CC(C)CN=c1ccc(C(=O)N2CCN(C(=O)Cc3ccccc3)CC2)c[nH]1

>  <score_type>  (70) 
oracle

>  <origin>  (70) 
adg

>  <m_score__min__energy>  (70) 
-8.8900000000000006

>  <m_primary>  (70) 
energy

$$$$
70:0
     RDKit          3D

 42 43  0  0  0  0  0  0  0  0999 V2000
   56.9690   33.9350   43.8240 H   0  0  0  0  0  0  0  0  0  0  0  0
   56.6520   34.5930   44.4970 O   0  0  0  0  0  0  0  0  0  0  0  0
   57.1310   34.1610   45.7430 C   0  0  0  0  0  0  0  0  0  0  0  0
   56.4620   33.3796   46.1328 H   0  0  0  0  0  0  0  0  0  0  0  0
   57.1579   35.0250   46.4232 H   0  0  0  0  0  0  0  0  0  0  0  0
   58.5540   33.5900   45.6270 C   0  0  1  0  0  0  0  0  0  0  0  0
   58.6615   32.7909   46.3753 H   0  0  0  0  0  0  0  0  0  0  0  0
   58.7790   33.0440   44.2920 N   0  0  0  0  0  0  0  0  0  0  0  0
   57.9890   31.9980   43.7110 C   0  0  0  0  0  0  0  0  0  0  0  0
   57.4620   32.1680   42.5780 O   0  0  0  0  0  0  0  0  0  0  0  0
   57.7880   30.7250   44.4410 C   0  0  0  0  0  0  0  0  0  0  0  0
   56.6400   29.9440   44.2140 C   0  0  0  0  0  0  0  0  0  0  0  0
   55.8856   30.2825   43.4885 H   0  0  0  0  0  0  0  0  0  0  0  0
   56.4490   28.7430   44.9010 C   0  0  0  0  0  0  0  0  0  0  0  0
   55.5468   28.1423   44.7131 H   0  0  0  0  0  0  0  0  0  0  0  0
   57.4050   28.2980   45.8320 C   0  0  0  0  0  0  0  0  0  0  0  0
   57.2520   27.0720   46.5610 N   0  0  0  0  0  0  0  0  0  0  0  0
   56.1610   25.7840   46.1660 S   0  0  0  0  0  0  0  0  0  0  0  0
   56.1290   24.8110   47.3100 O   0  0  0  0  0  0  0  0  0  0  0  0
   54.7770   26.3270   45.9540 O   0  0  0  0  0  0  0  0  0  0  0  0
   56.7230   24.9300   44.7080 C   0  0  0  0  0  0  0  0  0  0  0  0
   57.3055   24.0448   45.0032 H   0  0  0  0  0  0  0  0  0  0  0  0
   55.8551   24.6151   44.1101 H   0  0  0  0  0  0  0  0  0  0  0  0
   57.3556   25.6025   44.1101 H   0  0  0  0  0  0  0  0  0  0  0  0
   58.5460   29.0730   46.0600 C   0  0  0  0  0  0  0  0  0  0  0  0
   59.2989   28.7338   46.7867 H   0  0  0  0  0  0  0  0  0  0  0  0
   58.7390   30.2750   45.3730 C   0  0  0  0  0  0  0  0  0  0  0  0
   59.6422   30.8734   45.5633 H   0  0  0  0  0  0  0  0  0  0  0  0
   59.5720   34.6730   45.8820 C   0  0  0  0  0  0  0  0  0  0  0  0
   59.8779   35.3017   45.0328 H   0  0  0  0  0  0  0  0  0  0  0  0
   60.1280   34.9190   47.0760 C   0  0  0  0  0  0  0  0  0  0  0  0
   59.7020   35.7169   47.7020 H   0  0  0  0  0  0  0  0  0  0  0  0
   61.2580   34.1830   47.5720 N   0  0  0  0  0  0  0  0  0  0  0  0
   62.2410   33.8240   46.6970 C   0  0  0  0  0  0  0  0  0  0  0  0
   62.1523   34.0907   45.6335 H   0  0  0  0  0  0  0  0  0  0  0  0
   63.3580   33.1200   47.1460 C   0  0  0  0  0  0  0  0  0  0  0  0
   64.1506   32.8176   46.4458 H   0  0  0  0  0  0  0  0  0  0  0  0
   63.4480   32.8080   48.5010 C   0  0  0  0  0  0  0  0  0  0  0  0
   64.4410   32.1720   48.9400 O   0  0  0  0  0  0  0  0  0  0  0  0
   62.4630   33.1960   49.3500 N   0  0  0  0  0  0  0  0  0  0  0  0
   61.3780   33.8820   48.9020 C   0  0  0  0  0  0  0  0  0  0  0  0
   60.4910   34.2360   49.7260 O   0  0  0  0  0  0  0  0  0  0  0  0
  1  2  1  0
  2  3  1  0
  3  4  1  0
  3  5  1  0
  3  6  1  0
  6  7  1  1
  6  8  1  0
  8  9  1  0
  9 10  2  0
  9 11  1  0
 11 12  2  0
 12 13  1  0
 12 14  1  0
 14 15  1  0
 14 16  2  0
 16 17  1  0
 17 18  1  0
 18 19  2  0
 18 20  2  0
 18 21  1  0
 21 22  1  0
 21 23  1  0
 21 24  1  0
 16 25  1  0
 25 26  1  0
 25 27  2  0
 27 28  1  0
  6 29  1  0
 29 30  1  0
 29 31  2  0
 31 32  1  0
 31 33  1  0
 33 34  1  0
 34 35  1  0
 34 36  2  0
 36 37  1  0
 36 38  1  0
 38 39  2  0
 38 40  1  0
 40 41  1  0
 41 42  2  0
 27 11  1  0
 41 33  1  0
M  CHG  3   8  -1  17  -1  40  -1
M  END
>  <UniqueID>  (71) 
68

>  <SMILES>  (71) 
CS(=O)(=O)[N-]c1ccc(C(=O)[N-][C@@H](/C=C\n2ccc(=O)[n-]c2=O)CO)cc1

>  <Energy>  (71) 
47.86421650489732

>  <Genealogy>  (71) 
CS(=O)(=O)[N-]c1ccc(C(=O)[N-]C(C=Cn2ccc(=O)[n-]c2=O)CO)cc1 (protonated)
CS(=O)(=O)[N-]c1ccc(C(=O)[N-][C@@H](C=Cn2ccc(=O)[n-]c2=O)CO)cc1 (chirality)
CS(=O)(=O)[N-]c1ccc(C(=O)[N-][C@@H](/C=C\n2ccc(=O)[n-]c2=O)CO)cc1 (cis-trans isomerization)
CS(=O)(=O)[N-]c1ccc(C(=O)[N-][C@@H](/C=C\n2ccc(=O)[n-]c2=O)CO)cc1 (3D coordinates assigned)
CS(=O)(=O)[N-]c1ccc(C(=O)[N-][C@@H](/C=C\n2ccc(=O)[n-]c2=O)CO)cc1 (optimized conformer: 47.86421650489732 kcal/mol)

>  <smiles>  (71) 
CS(=O)(=O)Nc1ccc(C(=O)NC(C=Cn2ccc(=O)[nH]c2=O)CO)cc1

>  <score_type>  (71) 
oracle

>  <origin>  (71) 
adg

>  <m_score__min__energy>  (71) 
-12.199999999999999

>  <m_primary>  (71) 
energy

$$$$
71:0
     RDKit          3D

 52 55  0  0  0  0  0  0  0  0999 V2000
   55.1870   30.4780   45.2510 H   0  0  0  0  0  0  0  0  0  0  0  0
   55.1910   29.5700   44.8040 O   0  0  0  0  0  0  0  0  0  0  0  0
   56.1930   28.6450   45.0840 C   0  0  0  0  0  0  0  0  0  0  0  0
   55.9700   27.4580   45.6730 N   0  0  0  0  0  0  0  0  0  0  0  0
   57.2140   26.9520   45.8000 C   0  0  0  0  0  0  0  0  0  0  0  0
   57.4400   25.8300   46.3220 O   0  0  0  0  0  0  0  0  0  0  0  0
   58.2010   27.7480   45.3320 N   0  0  0  0  0  0  0  0  0  0  0  0
   57.5410   28.8170   44.8550 C   0  0  0  0  0  0  0  0  0  0  0  0
   58.2170   30.0060   44.3060 C   0  0  0  0  0  0  0  0  0  0  0  0
   58.3454   30.0700   43.2154 H   0  0  0  0  0  0  0  0  0  0  0  0
   58.6870   31.0190   45.0590 C   0  0  0  0  0  0  0  0  0  0  0  0
   58.2940   32.3520   44.9900 C   0  0  0  0  0  0  0  0  0  0  0  0
   57.5197   32.7754   44.3334 H   0  0  0  0  0  0  0  0  0  0  0  0
   59.0650   33.0400   45.9060 C   0  0  0  0  0  0  0  0  0  0  0  0
   59.0150   34.5190   46.1330 C   0  0  0  0  0  0  0  0  0  0  0  0
   59.0081   34.7241   47.2137 H   0  0  0  0  0  0  0  0  0  0  0  0
   59.8977   34.9901   45.6760 H   0  0  0  0  0  0  0  0  0  0  0  0
   58.1025   34.9295   45.6760 H   0  0  0  0  0  0  0  0  0  0  0  0
   59.9230   32.1990   46.5230 N   0  0  0  0  0  0  0  0  0  0  0  0
   60.8900   32.5750   47.5160 C   0  0  0  0  0  0  0  0  0  0  0  0
   62.2070   32.8390   47.1230 C   0  0  0  0  0  0  0  0  0  0  0  0
   62.4897   32.7496   46.0637 H   0  0  0  0  0  0  0  0  0  0  0  0
   63.1640   33.2150   48.0670 C   0  0  0  0  0  0  0  0  0  0  0  0
   64.1948   33.4256   47.7460 H   0  0  0  0  0  0  0  0  0  0  0  0
   62.8200   33.3260   49.4220 C   0  0  0  0  0  0  0  0  0  0  0  0
   63.8270   33.7400   50.4250 C   0  0  0  0  0  0  0  0  0  0  0  0
   63.5570   34.6960   51.2020 O   0  0  0  0  0  0  0  0  0  0  0  0
   65.0980   33.0710   50.5440 N   0  0  0  0  0  0  0  0  0  0  0  0
   65.2350   31.6350   50.2840 C   0  0  0  0  0  0  0  0  0  0  0  0
   64.2505   31.1516   50.3683 H   0  0  0  0  0  0  0  0  0  0  0  0
   65.6329   31.4824   49.2699 H   0  0  0  0  0  0  0  0  0  0  0  0
   66.1950   31.0200   51.3070 C   0  0  0  0  0  0  0  0  0  0  0  0
   65.7318   31.0567   52.3041 H   0  0  0  0  0  0  0  0  0  0  0  0
   66.3988   29.9783   51.0182 H   0  0  0  0  0  0  0  0  0  0  0  0
   67.4190   31.7310   51.3370 O   0  0  0  0  0  0  0  0  0  0  0  0
   67.1970   33.0480   51.8050 C   0  0  0  0  0  0  0  0  0  0  0  0
   66.6975   33.0028   52.7840 H   0  0  0  0  0  0  0  0  0  0  0  0
   68.1676   33.5582   51.8919 H   0  0  0  0  0  0  0  0  0  0  0  0
   66.3170   33.8340   50.8290 C   0  0  0  0  0  0  0  0  0  0  0  0
   66.0471   34.8017   51.2770 H   0  0  0  0  0  0  0  0  0  0  0  0
   66.8697   34.0035   49.8932 H   0  0  0  0  0  0  0  0  0  0  0  0
   61.4950   33.0760   49.8160 C   0  0  0  0  0  0  0  0  0  0  0  0
   61.2111   33.1898   50.8726 H   0  0  0  0  0  0  0  0  0  0  0  0
   60.5280   32.6820   48.8750 C   0  0  0  0  0  0  0  0  0  0  0  0
   59.1170   32.4160   49.3190 C   0  0  0  0  0  0  0  0  0  0  0  0
   59.0738   32.4079   50.4181 H   0  0  0  0  0  0  0  0  0  0  0  0
   58.4558   33.2053   48.9319 H   0  0  0  0  0  0  0  0  0  0  0  0
   58.7886   31.4401   48.9319 H   0  0  0  0  0  0  0  0  0  0  0  0
   59.7050   30.9610   46.0170 C   0  0  0  0  0  0  0  0  0  0  0  0
   60.3710   29.8660   46.4130 C   0  0  0  0  0  0  0  0  0  0  0  0
   61.1561   29.9468   47.1792 H   0  0  0  0  0  0  0  0  0  0  0  0
   60.1320   28.8872   45.9715 H   0  0  0  0  0  0  0  0  0  0  0  0
  1  2  1  0
  2  3  1  0
  3  4  1  0
  4  5  1  0
  5  6  2  0
  5  7  1  0
  7  8  1  0
  8  9  1  0
  9 10  1  0
  9 11  2  0
 11 12  1  0
 12 13  1  0
 12 14  2  0
 14 15  1  0
 15 16  1  0
 15 17  1  0
 15 18  1  0
 14 19  1  0
 19 20  1  0
 20 21  2  0
 21 22  1  0
 21 23  1  0
 23 24  1  0
 23 25  2  0
 25 26  1  0
 26 27  2  0
 26 28  1  0
 28 29  1  0
 29 30  1  0
 29 31  1  0
 29 32  1  0
 32 33  1  0
 32 34  1  0
 32 35  1  0
 35 36  1  0
 36 37  1  0
 36 38  1  0
 36 39  1  0
 39 40  1  0
 39 41  1  0
 25 42  1  0
 42 43  1  0
 42 44  2  0
 44 45  1  0
 45 46  1  0
 45 47  1  0
 45 48  1  0
 19 49  1  0
 49 50  2  0
 50 51  1  0
 50 52  1  0
  8  3  2  0
 49 11  1  0
 44 20  1  0
 39 28  1  0
M  CHG  2   4  -1   7  -1
M  END
>  <UniqueID>  (72) 
69

>  <SMILES>  (72) 
C=c1/c(=C/c2[n-]c(=O)[n-]c2O)cc(C)n1-c1ccc(C(=O)N2CCOCC2)cc1C

>  <Energy>  (72) 
131.2667772187661

>  <Genealogy>  (72) 
C=c1c(=Cc2[n-]c(=O)[n-]c2O)cc(C)n1-c1ccc(C(=O)N2CCOCC2)cc1C (protonated)
C=c1/c(=C/c2[n-]c(=O)[n-]c2O)cc(C)n1-c1ccc(C(=O)N2CCOCC2)cc1C (cis-trans isomerization)
C=c1/c(=C/c2[n-]c(=O)[n-]c2O)cc(C)n1-c1ccc(C(=O)N2CCOCC2)cc1C (3D coordinates assigned)
C=c1/c(=C/c2[n-]c(=O)[n-]c2O)cc(C)n1-c1ccc(C(=O)N2CCOCC2)cc1C (nonaromatic ring conformer: 131.2667772187661 kcal/mol)

>  <smiles>  (72) 
C=c1c(=Cc2[nH]c(=O)[nH]c2O)cc(C)n1-c1ccc(C(=O)N2CCOCC2)cc1C

>  <score_type>  (72) 
oracle

>  <origin>  (72) 
adg

>  <m_score__min__energy>  (72) 
-12.35

>  <m_primary>  (72) 
energy

$$$$
72:0
     RDKit          3D

 53 56  0  0  0  0  0  0  0  0999 V2000
   56.2390   29.8160   44.8730 O   0  0  0  0  0  0  0  0  0  0  0  0
   57.2420   29.5630   45.5950 C   0  0  0  0  0  0  0  0  0  0  0  0
   57.8380   30.6020   46.3820 N   0  0  0  0  0  0  0  0  0  0  0  0
   58.0570   31.9610   45.9760 C   0  0  0  0  0  0  0  0  0  0  0  0
   57.4480   32.4820   44.8190 C   0  0  0  0  0  0  0  0  0  0  0  0
   57.6740   33.8060   44.4370 C   0  0  0  0  0  0  0  0  0  0  0  0
   58.5130   34.6210   45.1990 C   0  0  0  0  0  0  0  0  0  0  0  0
   59.1440   34.1100   46.3340 C   0  0  0  0  0  0  0  0  0  0  0  0
   58.9340   32.7760   46.7260 C   0  0  0  0  0  0  0  0  0  0  0  0
   59.6080   32.2510   47.9720 C   0  0  0  0  0  0  0  0  0  0  0  0
   61.0570   32.6630   48.0070 C   0  0  0  0  0  0  0  0  0  0  0  0
   61.4920   33.6710   48.8830 C   0  0  0  0  0  0  0  0  0  0  0  0
   62.8330   34.0690   48.8930 C   0  0  0  0  0  0  0  0  0  0  0  0
   63.7490   33.4590   48.0310 C   0  0  0  0  0  0  0  0  0  0  0  0
   63.3230   32.4590   47.1500 C   0  0  0  0  0  0  0  0  0  0  0  0
   61.9830   32.0620   47.1380 C   0  0  0  0  0  0  0  0  0  0  0  0
   57.7680   28.1730   45.6780 C   0  0  0  0  0  0  0  0  0  0  0  0
   56.8980   27.0610   45.6710 C   0  0  0  0  0  0  0  0  0  0  0  0
   55.5230   27.2840   45.6210 O   0  0  0  0  0  0  0  0  0  0  0  0
   57.3930   25.7770   45.7390 N   0  0  0  0  0  0  0  0  0  0  0  0
   56.4790   24.6020   45.7030 C   0  0  0  0  0  0  0  0  0  0  0  0
   56.5950   23.7550   46.9890 C   0  0  0  0  0  0  0  0  0  0  0  0
   55.5800   22.5960   46.9970 C   0  0  0  0  0  0  0  0  0  0  0  0
   55.3510   21.9640   45.6070 C   0  0  0  0  0  0  0  0  0  0  0  0
   56.4990   22.2550   44.6360 C   0  0  0  0  0  0  0  0  0  0  0  0
   56.6610   23.7670   44.4050 C   0  0  0  0  0  0  0  0  0  0  0  0
   58.7520   25.5890   45.8380 C   0  0  0  0  0  0  0  0  0  0  0  0
   59.2470   24.4320   45.9070 O   0  0  0  0  0  0  0  0  0  0  0  0
   59.5940   26.6510   45.8560 N   0  0  0  0  0  0  0  0  0  0  0  0
   59.1450   27.9230   45.7760 C   0  0  0  0  0  0  0  0  0  0  0  0
   59.9800   28.8650   45.7750 O   0  0  0  0  0  0  0  0  0  0  0  0
   56.7902   31.8425   44.2121 H   0  0  0  0  0  0  0  0  0  0  0  0
   57.1902   34.2074   43.5343 H   0  0  0  0  0  0  0  0  0  0  0  0
   58.6770   35.6680   44.9042 H   0  0  0  0  0  0  0  0  0  0  0  0
   59.8100   34.7550   46.9259 H   0  0  0  0  0  0  0  0  0  0  0  0
   59.0959   32.6557   48.8574 H   0  0  0  0  0  0  0  0  0  0  0  0
   59.5525   31.1524   47.9682 H   0  0  0  0  0  0  0  0  0  0  0  0
   60.7742   34.1502   49.5650 H   0  0  0  0  0  0  0  0  0  0  0  0
   63.1666   34.8616   49.5789 H   0  0  0  0  0  0  0  0  0  0  0  0
   64.8054   33.7654   48.0453 H   0  0  0  0  0  0  0  0  0  0  0  0
   64.0430   31.9851   46.4666 H   0  0  0  0  0  0  0  0  0  0  0  0
   61.6517   31.2750   46.4446 H   0  0  0  0  0  0  0  0  0  0  0  0
   55.4470   24.9819   45.6752 H   0  0  0  0  0  0  0  0  0  0  0  0
   57.6117   23.3399   47.0527 H   0  0  0  0  0  0  0  0  0  0  0  0
   56.3821   24.4054   47.8502 H   0  0  0  0  0  0  0  0  0  0  0  0
   55.9499   21.8148   47.6774 H   0  0  0  0  0  0  0  0  0  0  0  0
   54.6163   23.0140   47.3236 H   0  0  0  0  0  0  0  0  0  0  0  0
   55.2566   20.8745   45.7257 H   0  0  0  0  0  0  0  0  0  0  0  0
   54.4357   22.4048   45.1853 H   0  0  0  0  0  0  0  0  0  0  0  0
   57.4337   21.8536   45.0546 H   0  0  0  0  0  0  0  0  0  0  0  0
   56.2698   21.7775   43.6719 H   0  0  0  0  0  0  0  0  0  0  0  0
   57.6686   23.9547   44.0057 H   0  0  0  0  0  0  0  0  0  0  0  0
   55.8758   24.0784   43.7004 H   0  0  0  0  0  0  0  0  0  0  0  0
  1  2  2  0
  2  3  1  0
  3  4  1  0
  4  5  2  0
  5  6  1  0
  6  7  2  0
  7  8  1  0
  8  9  2  0
  9 10  1  0
 10 11  1  0
 11 12  2  0
 12 13  1  0
 13 14  2  0
 14 15  1  0
 15 16  2  0
  2 17  1  0
 17 18  2  0
 18 19  1  0
 18 20  1  0
 20 21  1  0
 21 22  1  0
 22 23  1  0
 23 24  1  0
 24 25  1  0
 25 26  1  0
 20 27  1  0
 27 28  2  0
 27 29  1  0
 29 30  1  0
 30 31  2  0
  9  4  1  0
 16 11  1  0
 30 17  1  0
 26 21  1  0
  5 32  1  0
  6 33  1  0
  7 34  1  0
  8 35  1  0
 10 36  1  0
 10 37  1  0
 12 38  1  0
 13 39  1  0
 14 40  1  0
 15 41  1  0
 16 42  1  0
 21 43  1  0
 22 44  1  0
 22 45  1  0
 23 46  1  0
 23 47  1  0
 24 48  1  0
 24 49  1  0
 25 50  1  0
 25 51  1  0
 26 52  1  0
 26 53  1  0
M  CHG  3   3  -1  19  -1  29  -1
M  END
>  <UniqueID>  (73) 
70

>  <SMILES>  (73) 
O=C([N-]c1ccccc1Cc1ccccc1)c1c([O-])n(C2CCCCC2)c(=O)[n-]c1=O

>  <Energy>  (73) 
73.67501929606024

>  <Genealogy>  (73) 
O=C([N-]c1ccccc1Cc1ccccc1)c1c([O-])n(C2CCCCC2)c(=O)[n-]c1=O (protonated)
O=C([N-]c1ccccc1Cc1ccccc1)c1c([O-])n(C2CCCCC2)c(=O)[n-]c1=O (3D coordinates assigned)
O=C([N-]c1ccccc1Cc1ccccc1)c1c([O-])n(C2CCCCC2)c(=O)[n-]c1=O (nonaromatic ring conformer: 73.67501929606024 kcal/mol)

>  <smiles>  (73) 
O=C(Nc1ccccc1Cc1ccccc1)c1c(O)n(C2CCCCC2)c(=O)[nH]c1=O

>  <score_type>  (73) 
oracle

>  <origin>  (73) 
adg

>  <m_score__min__energy>  (73) 
-15.949999999999999

>  <m_primary>  (73) 
energy

$$$$
73:0
     RDKit          3D

 49 50  0  0  0  0  0  0  0  0999 V2000
   60.1490   27.5830   45.8730 C   0  0  0  0  0  0  0  0  0  0  0  0
   58.6560   27.6880   45.7650 C   0  0  0  0  0  0  0  0  0  0  0  0
   57.8920   26.6310   46.1500 N   0  0  0  0  0  0  0  0  0  0  0  0
   56.5370   26.6700   46.0700 C   0  0  0  0  0  0  0  0  0  0  0  0
   55.8570   25.6770   46.4360 O   0  0  0  0  0  0  0  0  0  0  0  0
   55.9160   27.7790   45.5940 N   0  0  0  0  0  0  0  0  0  0  0  0
   56.6280   28.8640   45.1950 C   0  0  0  0  0  0  0  0  0  0  0  0
   56.0180   29.8770   44.7580 O   0  0  0  0  0  0  0  0  0  0  0  0
   58.0300   28.8490   45.2700 C   0  0  0  0  0  0  0  0  0  0  0  0
   58.8160   30.0270   44.8460 C   0  0  0  0  0  0  0  0  0  0  0  0
   59.3550   30.9170   45.6930 C   0  0  0  0  0  0  0  0  0  0  0  0
   58.7210   31.4180   46.9310 C   0  0  0  0  0  0  0  0  0  0  0  0
   59.1270   31.0560   48.0690 O   0  0  0  0  0  0  0  0  0  0  0  0
   57.6280   32.3320   46.8180 N   0  0  0  0  0  0  0  0  0  0  0  0
   57.7670   33.7570   46.5130 C   0  0  1  0  0  0  0  0  0  0  0  0
   58.8460   34.3560   47.3800 C   0  0  0  0  0  0  0  0  0  0  0  0
   59.3210   35.4920   47.1050 O   0  0  0  0  0  0  0  0  0  0  0  0
   59.2950   33.6530   48.5470 N   0  0  0  0  0  0  0  0  0  0  0  0
   60.3010   34.2250   49.4420 C   0  0  0  0  0  0  0  0  0  0  0  0
   61.6880   33.8420   48.9930 C   0  0  0  0  0  0  0  0  0  0  0  0
   61.9230   33.4760   47.6560 C   0  0  0  0  0  0  0  0  0  0  0  0
   63.2030   33.0900   47.2460 C   0  0  0  0  0  0  0  0  0  0  0  0
   64.2530   33.0560   48.1660 C   0  0  0  0  0  0  0  0  0  0  0  0
   64.0260   33.4030   49.5000 C   0  0  0  0  0  0  0  0  0  0  0  0
   62.7470   33.7910   49.9180 C   0  0  0  0  0  0  0  0  0  0  0  0
   62.5420   34.1090   51.2210 F   0  0  0  0  0  0  0  0  0  0  0  0
   58.0830   33.9890   45.0100 C   0  0  0  0  0  0  0  0  0  0  0  0
   57.4870   32.8830   44.1280 C   0  0  0  0  0  0  0  0  0  0  0  0
   59.5900   34.1290   44.7390 C   0  0  0  0  0  0  0  0  0  0  0  0
   60.4393   27.5626   46.9338 H   0  0  0  0  0  0  0  0  0  0  0  0
   60.4880   26.6588   45.3822 H   0  0  0  0  0  0  0  0  0  0  0  0
   60.6141   28.4507   45.3822 H   0  0  0  0  0  0  0  0  0  0  0  0
   58.9686   30.1838   43.7680 H   0  0  0  0  0  0  0  0  0  0  0  0
   60.3533   31.3070   45.4453 H   0  0  0  0  0  0  0  0  0  0  0  0
   56.8091   34.2534   46.7274 H   0  0  0  0  0  0  0  0  0  0  0  0
   58.8790   32.7170   48.7600 H   0  0  0  0  0  0  0  0  0  0  0  0
   60.2088   35.3211   49.4364 H   0  0  0  0  0  0  0  0  0  0  0  0
   60.1360   33.8350   50.4572 H   0  0  0  0  0  0  0  0  0  0  0  0
   61.0970   33.4934   46.9298 H   0  0  0  0  0  0  0  0  0  0  0  0
   63.3831   32.8126   46.1969 H   0  0  0  0  0  0  0  0  0  0  0  0
   65.2597   32.7557   47.8400 H   0  0  0  0  0  0  0  0  0  0  0  0
   64.8538   33.3714   50.2237 H   0  0  0  0  0  0  0  0  0  0  0  0
   57.6066   34.9442   44.7441 H   0  0  0  0  0  0  0  0  0  0  0  0
   57.0620   32.0943   44.7661 H   0  0  0  0  0  0  0  0  0  0  0  0
   56.6953   33.3072   43.4929 H   0  0  0  0  0  0  0  0  0  0  0  0
   58.2766   32.4550   43.4929 H   0  0  0  0  0  0  0  0  0  0  0  0
   60.1314   34.1793   45.6952 H   0  0  0  0  0  0  0  0  0  0  0  0
   59.9415   33.2596   44.1639 H   0  0  0  0  0  0  0  0  0  0  0  0
   59.7753   35.0482   44.1639 H   0  0  0  0  0  0  0  0  0  0  0  0
  1  2  1  0
  2  3  1  0
  3  4  1  0
  4  5  2  0
  4  6  1  0
  6  7  1  0
  7  8  2  0
  7  9  1  0
  9 10  1  0
 10 11  2  3
 11 12  1  0
 12 13  2  0
 12 14  1  0
 14 15  1  0
 15 16  1  0
 16 17  2  0
 16 18  1  0
 18 19  1  0
 19 20  1  0
 20 21  2  0
 21 22  1  0
 22 23  2  0
 23 24  1  0
 24 25  2  0
 25 26  1  0
 15 27  1  0
 27 28  1  0
 27 29  1  0
  9  2  2  0
 25 20  1  0
  1 30  1  0
  1 31  1  0
  1 32  1  0
 10 33  1  0
 11 34  1  0
 15 35  1  1
 18 36  1  0
 19 37  1  0
 19 38  1  0
 21 39  1  0
 22 40  1  0
 23 41  1  0
 24 42  1  0
 27 43  1  0
 28 44  1  0
 28 45  1  0
 28 46  1  0
 29 47  1  0
 29 48  1  0
 29 49  1  0
M  CHG  3   3  -1   6  -1  14  -1
M  END
>  <UniqueID>  (74) 
71

>  <SMILES>  (74) 
Cc1[n-]c(=O)[n-]c(=O)c1C=CC(=O)[N-][C@@H](C(=O)NCc1ccccc1F)C(C)C

>  <Energy>  (74) 
51.38206473839244

>  <Genealogy>  (74) 
Cc1[n-]c(=O)[n-]c(=O)c1C=CC(=O)[N-]C(C(=O)NCc1ccccc1F)C(C)C (protonated)
Cc1[n-]c(=O)[n-]c(=O)c1C=CC(=O)[N-][C@@H](C(=O)NCc1ccccc1F)C(C)C (chirality)
Cc1[n-]c(=O)[n-]c(=O)c1C=CC(=O)[N-][C@@H](C(=O)NCc1ccccc1F)C(C)C (3D coordinates assigned)
Cc1[n-]c(=O)[n-]c(=O)c1C=CC(=O)[N-][C@@H](C(=O)NCc1ccccc1F)C(C)C (optimized conformer: 51.38206473839244 kcal/mol)

>  <smiles>  (74) 
Cc1[nH]c(=O)[nH]c(=O)c1C=CC(=O)NC(C(=O)NCc1ccccc1F)C(C)C

>  <score_type>  (74) 
oracle

>  <origin>  (74) 
adg

>  <m_score__min__energy>  (74) 
-14.08

>  <m_primary>  (74) 
energy

$$$$
74:0
     RDKit          3D

 47 49  0  0  0  0  0  0  0  0999 V2000
   63.7740   33.0520   47.8610 C   0  0  0  0  0  0  0  0  0  0  0  0
   62.3320   32.8930   47.4750 C   0  0  0  0  0  0  0  0  0  0  0  0
   61.5790   31.8180   47.9730 C   0  0  0  0  0  0  0  0  0  0  0  0
   60.2230   31.6980   47.6520 C   0  0  0  0  0  0  0  0  0  0  0  0
   59.6070   32.6420   46.8210 C   0  0  0  0  0  0  0  0  0  0  0  0
   58.2100   32.5100   46.5320 N   0  0  0  0  0  0  0  0  0  0  0  0
   57.5420   33.0690   45.3930 C   0  0  0  0  0  0  0  0  0  0  0  0
   56.7070   33.9920   45.5740 O   0  0  0  0  0  0  0  0  0  0  0  0
   57.7590   32.5230   43.9970 C   0  0  0  0  0  0  0  0  0  0  0  0
   57.7050   31.0460   43.9360 N   0  0  0  0  0  0  0  0  0  0  0  0
   56.4020   30.4970   44.3700 C   0  0  0  0  0  0  0  0  0  0  0  0
   56.4570   28.9750   44.5240 C   0  0  0  0  0  0  0  0  0  0  0  0
   57.5160   28.5950   45.4700 N   0  0  0  0  0  0  0  0  0  0  0  0
   57.4130   27.3880   46.2540 C   0  0  0  0  0  0  0  0  0  0  0  0
   57.9240   27.3510   47.4060 O   0  0  0  0  0  0  0  0  0  0  0  0
   56.7390   26.1790   45.7380 C   0  0  0  0  0  0  0  0  0  0  0  0
   57.2890   25.2610   44.8650 C   0  0  0  0  0  0  0  0  0  0  0  0
   56.3580   24.3280   44.6190 N   0  0  0  0  0  0  0  0  0  0  0  0
   56.4670   23.2080   43.6930 C   0  0  0  0  0  0  0  0  0  0  0  0
   55.2640   24.7010   45.3090 C   0  0  0  0  0  0  0  0  0  0  0  0
   55.4630   25.8360   46.0140 N   0  0  0  0  0  0  0  0  0  0  0  0
   58.6010   29.5430   45.7470 C   0  0  0  0  0  0  0  0  0  0  0  0
   58.9060   30.3750   44.4950 C   0  0  0  0  0  0  0  0  0  0  0  0
   60.3520   33.7390   46.3530 C   0  0  0  0  0  0  0  0  0  0  0  0
   61.7060   33.8630   46.6800 C   0  0  0  0  0  0  0  0  0  0  0  0
   63.8611   33.0616   48.9575 H   0  0  0  0  0  0  0  0  0  0  0  0
   64.3572   32.2127   47.4542 H   0  0  0  0  0  0  0  0  0  0  0  0
   64.1603   33.9982   47.4542 H   0  0  0  0  0  0  0  0  0  0  0  0
   62.0575   31.0668   48.6185 H   0  0  0  0  0  0  0  0  0  0  0  0
   59.6376   30.8581   48.0542 H   0  0  0  0  0  0  0  0  0  0  0  0
   56.9783   32.9293   43.3371 H   0  0  0  0  0  0  0  0  0  0  0  0
   58.7671   32.8275   43.6791 H   0  0  0  0  0  0  0  0  0  0  0  0
   56.1301   30.9444   45.3374 H   0  0  0  0  0  0  0  0  0  0  0  0
   55.6528   30.7390   43.6019 H   0  0  0  0  0  0  0  0  0  0  0  0
   55.4884   28.6132   44.8994 H   0  0  0  0  0  0  0  0  0  0  0  0
   56.6742   28.5242   43.5444 H   0  0  0  0  0  0  0  0  0  0  0  0
   58.3062   25.2900   44.4473 H   0  0  0  0  0  0  0  0  0  0  0  0
   56.5583   22.2703   44.2608 H   0  0  0  0  0  0  0  0  0  0  0  0
   55.5686   23.1671   43.0596 H   0  0  0  0  0  0  0  0  0  0  0  0
   57.3564   23.3411   43.0596 H   0  0  0  0  0  0  0  0  0  0  0  0
   54.3152   24.1445   45.2998 H   0  0  0  0  0  0  0  0  0  0  0  0
   58.2984   30.2136   46.5647 H   0  0  0  0  0  0  0  0  0  0  0  0
   59.5029   28.9836   46.0363 H   0  0  0  0  0  0  0  0  0  0  0  0
   59.6468   31.1446   44.7577 H   0  0  0  0  0  0  0  0  0  0  0  0
   59.2845   29.6852   43.7263 H   0  0  0  0  0  0  0  0  0  0  0  0
   59.8676   34.5029   45.7270 H   0  0  0  0  0  0  0  0  0  0  0  0
   62.2819   34.7249   46.3120 H   0  0  0  0  0  0  0  0  0  0  0  0
  1  2  1  0
  2  3  2  0
  3  4  1  0
  4  5  2  0
  5  6  1  0
  6  7  1  0
  7  8  2  0
  7  9  1  0
  9 10  1  0
 10 11  1  0
 11 12  1  0
 12 13  1  0
 13 14  1  0
 14 15  2  0
 14 16  1  0
 16 17  2  0
 17 18  1  0
 18 19  1  0
 18 20  1  0
 20 21  2  0
 13 22  1  0
 22 23  1  0
  5 24  1  0
 24 25  2  0
 25  2  1  0
 23 10  1  0
 21 16  1  0
  1 26  1  0
  1 27  1  0
  1 28  1  0
  3 29  1  0
  4 30  1  0
  9 31  1  0
  9 32  1  0
 11 33  1  0
 11 34  1  0
 12 35  1  0
 12 36  1  0
 17 37  1  0
 19 38  1  0
 19 39  1  0
 19 40  1  0
 20 41  1  0
 22 42  1  0
 22 43  1  0
 23 44  1  0
 23 45  1  0
 24 46  1  0
 25 47  1  0
M  CHG  1   6  -1
M  END
>  <UniqueID>  (75) 
72

>  <SMILES>  (75) 
Cc1ccc([N-]C(=O)CN2CCN(C(=O)c3cn(C)cn3)CC2)cc1

>  <Energy>  (75) 
91.27609125614268

>  <Genealogy>  (75) 
Cc1ccc([N-]C(=O)CN2CCN(C(=O)c3cn(C)cn3)CC2)cc1 (protonated)
Cc1ccc([N-]C(=O)CN2CCN(C(=O)c3cn(C)cn3)CC2)cc1 (3D coordinates assigned)
Cc1ccc([N-]C(=O)CN2CCN(C(=O)c3cn(C)cn3)CC2)cc1 (nonaromatic ring conformer: 91.27609125614268 kcal/mol)

>  <smiles>  (75) 
Cc1ccc(NC(=O)CN2CCN(C(=O)c3cn(C)cn3)CC2)cc1

>  <score_type>  (75) 
oracle

>  <origin>  (75) 
adg

>  <m_score__min__energy>  (75) 
-9.3499999999999996

>  <m_primary>  (75) 
energy

$$$$
75:0
     RDKit          3D

 25 26  0  0  0  0  0  0  0  0999 V2000
   58.3630   26.6570   43.8300 O   0  0  0  0  0  0  0  0  0  0  0  0
   57.6410   27.0090   44.8010 C   0  0  0  0  0  0  0  0  0  0  0  0
   57.3200   28.4450   44.9710 C   0  0  0  0  0  0  0  0  0  0  0  0
   56.6380   29.1240   44.0370 C   0  0  0  0  0  0  0  0  0  0  0  0
   56.3490   30.5820   44.2400 C   0  0  0  0  0  0  0  0  0  0  0  0
   57.6130   31.3180   44.7140 C   0  0  0  0  0  0  0  0  0  0  0  0
   58.4080   30.5550   45.8060 C   0  0  0  0  0  0  0  0  0  0  0  0
   57.7950   29.1950   46.1940 C   0  0  0  0  0  0  0  0  0  0  0  0
   57.1540   25.9760   45.7400 C   0  0  0  0  0  0  0  0  0  0  0  0
   57.8790   24.9440   46.2070 N   0  0  0  0  0  0  0  0  0  0  0  0
   57.0230   24.2460   46.9790 C   0  0  0  0  0  0  0  0  0  0  0  0
   57.3520   23.1950   47.5900 O   0  0  0  0  0  0  0  0  0  0  0  0
   55.7790   24.7670   47.0340 N   0  0  0  0  0  0  0  0  0  0  0  0
   55.8750   25.8530   46.2440 C   0  0  0  0  0  0  0  0  0  0  0  0
   54.8150   26.7150   45.9910 O   0  0  0  0  0  0  0  0  0  0  0  0
   56.2920   28.6140   43.1259 H   0  0  0  0  0  0  0  0  0  0  0  0
   56.0094   31.0199   43.2898 H   0  0  0  0  0  0  0  0  0  0  0  0
   55.5664   30.6874   45.0058 H   0  0  0  0  0  0  0  0  0  0  0  0
   58.2724   31.4692   43.8466 H   0  0  0  0  0  0  0  0  0  0  0  0
   57.2829   32.2670   45.1616 H   0  0  0  0  0  0  0  0  0  0  0  0
   59.4279   30.3806   45.4328 H   0  0  0  0  0  0  0  0  0  0  0  0
   58.3885   31.1818   46.7097 H   0  0  0  0  0  0  0  0  0  0  0  0
   58.5556   28.5926   46.7122 H   0  0  0  0  0  0  0  0  0  0  0  0
   56.9316   29.3751   46.8513 H   0  0  0  0  0  0  0  0  0  0  0  0
   58.8740   24.7060   45.9960 H   0  0  0  0  0  0  0  0  0  0  0  0
  1  2  2  0
  2  3  1  0
  3  4  2  0
  4  5  1  0
  5  6  1  0
  6  7  1  0
  7  8  1  0
  2  9  1  0
  9 10  1  0
 10 11  1  0
 11 12  2  0
 11 13  1  0
 13 14  1  0
 14 15  1  0
  8  3  1  0
 14  9  2  0
  4 16  1  0
  5 17  1  0
  5 18  1  0
  6 19  1  0
  6 20  1  0
  7 21  1  0
  7 22  1  0
  8 23  1  0
  8 24  1  0
 10 25  1  0
M  CHG  2  13  -1  15  -1
M  END
>  <UniqueID>  (76) 
73

>  <SMILES>  (76) 
O=C(C1=CCCCC1)c1[nH]c(=O)[n-]c1[O-]

>  <Energy>  (76) 
61.498712130168556

>  <Genealogy>  (76) 
O=C(C1=CCCCC1)c1[nH]c(=O)[n-]c1[O-] (protonated)
O=C(C1=CCCCC1)c1[nH]c(=O)[n-]c1[O-] (3D coordinates assigned)
O=C(C1=CCCCC1)c1[nH]c(=O)[n-]c1[O-] (nonaromatic ring conformer: 61.498712130168556 kcal/mol)

>  <smiles>  (76) 
O=C(C1=CCCCC1)c1[nH]c(=O)[nH]c1O

>  <score_type>  (76) 
oracle

>  <origin>  (76) 
adg

>  <m_score__min__energy>  (76) 
-12.81

>  <m_primary>  (76) 
energy

$$$$
76:0
     RDKit          3D

 33 35  0  0  0  0  0  0  0  0999 V2000
   52.8590   23.0370   44.0050 H   0  0  0  0  0  0  0  0  0  0  0  0
   53.3850   23.2430   44.8840 N   0  0  0  0  0  0  0  0  0  0  0  0
   54.6770   23.1830   44.9430 C   0  0  0  0  0  0  0  0  0  0  0  0
   55.3140   22.0720   44.4900 N   0  0  0  0  0  0  0  0  0  0  0  0
   56.6660   21.9660   44.5430 C   0  0  0  0  0  0  0  0  0  0  0  0
   57.2240   20.9200   44.1180 O   0  0  0  0  0  0  0  0  0  0  0  0
   57.4260   23.0140   45.0690 C   0  0  0  0  0  0  0  0  0  0  0  0
   59.1820   22.9050   45.1490 Cl  0  0  0  0  0  0  0  0  0  0  0  0
   56.7630   24.1620   45.5170 C   0  0  0  0  0  0  0  0  0  0  0  0
   57.5120   25.2200   46.0530 O   0  0  0  0  0  0  0  0  0  0  0  0
   57.4650   26.5460   45.6020 C   0  0  0  0  0  0  0  0  0  0  0  0
   58.6370   27.1230   45.0990 C   0  0  0  0  0  0  0  0  0  0  0  0
   59.5654   26.5340   45.0655 H   0  0  0  0  0  0  0  0  0  0  0  0
   58.6350   28.4430   44.6390 C   0  0  0  0  0  0  0  0  0  0  0  0
   59.5619   28.8898   44.2501 H   0  0  0  0  0  0  0  0  0  0  0  0
   57.4560   29.1980   44.6720 C   0  0  0  0  0  0  0  0  0  0  0  0
   57.4560   30.8580   44.0850 S   0  0  0  0  0  0  0  0  0  0  0  0
   58.8290   31.1950   43.5720 O   0  0  0  0  0  0  0  0  0  0  0  0
   56.4480   31.0010   42.9800 O   0  0  0  0  0  0  0  0  0  0  0  0
   57.0300   31.9250   45.3840 N   0  0  0  0  0  0  0  0  0  0  0  0
   57.7820   32.8920   45.8140 C   0  0  0  0  0  0  0  0  0  0  0  0
   58.0890   33.0400   47.1180 N   0  0  0  0  0  0  0  0  0  0  0  0
   58.8870   34.1210   47.3250 C   0  0  0  0  0  0  0  0  0  0  0  0
   59.2437   34.4071   48.3254 H   0  0  0  0  0  0  0  0  0  0  0  0
   59.2200   34.8390   46.1820 C   0  0  0  0  0  0  0  0  0  0  0  0
   59.8522   35.7385   46.1460 H   0  0  0  0  0  0  0  0  0  0  0  0
   58.4880   34.0930   44.8630 S   0  0  0  0  0  0  0  0  0  0  0  0
   56.2730   28.6150   45.1430 C   0  0  0  0  0  0  0  0  0  0  0  0
   55.3418   29.2004   45.1550 H   0  0  0  0  0  0  0  0  0  0  0  0
   56.2690   27.2930   45.5980 C   0  0  0  0  0  0  0  0  0  0  0  0
   55.0740   26.7210   46.0180 O   0  0  0  0  0  0  0  0  0  0  0  0
   55.3990   24.2190   45.4600 N   0  0  0  0  0  0  0  0  0  0  0  0
   54.9000   25.0570   45.8340 H   0  0  0  0  0  0  0  0  0  0  0  0
  1  2  1  0
  2  3  2  0
  3  4  1  0
  4  5  1  0
  5  6  2  0
  5  7  1  0
  7  8  1  0
  7  9  2  0
  9 10  1  0
 10 11  1  0
 11 12  2  0
 12 13  1  0
 12 14  1  0
 14 15  1  0
 14 16  2  0
 16 17  1  0
 17 18  2  0
 17 19  2  0
 17 20  1  0
 20 21  2  3
 21 22  1  0
 22 23  1  0
 23 24  1  0
 23 25  2  0
 25 26  1  0
 25 27  1  0
 16 28  1  0
 28 29  1  0
 28 30  2  0
 30 31  1  0
  9 32  1  0
 32 33  1  0
 32  3  1  0
 30 11  1  0
 27 21  1  0
M  CHG  3   4  -1  22  -1  31  -1
M  END
>  <UniqueID>  (77) 
74

>  <SMILES>  (77) 
[H]/N=c1/[n-]c(=O)c(Cl)c(Oc2ccc(S(=O)(=O)N=c3[n-]ccs3)cc2[O-])[nH]1

>  <Energy>  (77) 
78.95958893901114

>  <Genealogy>  (77) 
N=c1[n-]c(=O)c(Cl)c(Oc2ccc(S(=O)(=O)N=c3[n-]ccs3)cc2[O-])[nH]1 (protonated)
[H]/N=c1/[n-]c(=O)c(Cl)c(Oc2ccc(S(=O)(=O)N=c3[n-]ccs3)cc2[O-])[nH]1 (cis-trans isomerization)
[H]/N=c1/[n-]c(=O)c(Cl)c(Oc2ccc(S(=O)(=O)N=c3[n-]ccs3)cc2[O-])[nH]1 (3D coordinates assigned)
[H]/N=c1/[n-]c(=O)c(Cl)c(Oc2ccc(S(=O)(=O)N=c3[n-]ccs3)cc2[O-])[nH]1 (optimized conformer: 78.95958893901114 kcal/mol)

>  <smiles>  (77) 
N=c1[nH]c(Oc2ccc(S(=O)(=O)N=c3[nH]ccs3)cc2O)c(Cl)c(=O)[nH]1

>  <score_type>  (77) 
oracle

>  <origin>  (77) 
adg

>  <m_score__min__energy>  (77) 
-14.57

>  <m_primary>  (77) 
energy

$$$$
77:0
     RDKit          3D

 50 53  0  0  0  0  0  0  0  0999 V2000
   54.5520   30.4450   44.5730 H   0  0  0  0  0  0  0  0  0  0  0  0
   55.5240   30.2220   44.2590 N   0  0  0  0  0  0  0  0  0  0  0  0
   56.3350   29.5430   45.0010 C   0  0  0  0  0  0  0  0  0  0  0  0
   56.1240   28.2170   45.1930 N   0  0  0  0  0  0  0  0  0  0  0  0
   56.9580   27.4790   45.9690 C   0  0  0  0  0  0  0  0  0  0  0  0
   56.7080   26.1140   46.1520 C   0  0  0  0  0  0  0  0  0  0  0  0
   55.8494   25.6444   45.6498 H   0  0  0  0  0  0  0  0  0  0  0  0
   57.5450   25.3390   46.9720 C   0  0  0  0  0  0  0  0  0  0  0  0
   57.2790   23.8920   47.1550 C   0  0  0  0  0  0  0  0  0  0  0  0
   57.3880   23.3810   48.3040 O   0  0  0  0  0  0  0  0  0  0  0  0
   56.8830   23.0590   46.0490 N   0  0  0  0  0  0  0  0  0  0  0  0
   55.7180   22.1780   46.2020 C   0  0  0  0  0  0  0  0  0  0  0  0
   55.5133   22.0232   47.2716 H   0  0  0  0  0  0  0  0  0  0  0  0
   54.8423   22.6418   45.7245 H   0  0  0  0  0  0  0  0  0  0  0  0
   55.9258   21.2091   45.7245 H   0  0  0  0  0  0  0  0  0  0  0  0
   57.5260   23.2640   44.7340 C   0  0  0  0  0  0  0  0  0  0  0  0
   58.3532   23.9757   44.8726 H   0  0  0  0  0  0  0  0  0  0  0  0
   56.5540   23.9190   43.7220 C   0  0  0  0  0  0  0  0  0  0  0  0
   55.6641   24.2709   44.2645 H   0  0  0  0  0  0  0  0  0  0  0  0
   57.0865   24.7503   43.2368 H   0  0  0  0  0  0  0  0  0  0  0  0
   56.1080   22.9470   42.6240 C   0  0  0  0  0  0  0  0  0  0  0  0
   55.1577   23.2959   42.1938 H   0  0  0  0  0  0  0  0  0  0  0  0
   56.8816   22.9079   41.8429 H   0  0  0  0  0  0  0  0  0  0  0  0
   55.9300   21.6550   43.1610 O   0  0  0  0  0  0  0  0  0  0  0  0
   57.1880   21.0570   43.4100 C   0  0  0  0  0  0  0  0  0  0  0  0
   57.0253   20.1348   43.9872 H   0  0  0  0  0  0  0  0  0  0  0  0
   57.6506   20.8651   42.4306 H   0  0  0  0  0  0  0  0  0  0  0  0
   58.1660   21.9620   44.2010 C   0  0  0  0  0  0  0  0  0  0  0  0
   58.5506   21.3896   45.0580 H   0  0  0  0  0  0  0  0  0  0  0  0
   58.9599   22.2610   43.5008 H   0  0  0  0  0  0  0  0  0  0  0  0
   58.6450   25.9500   47.5970 C   0  0  0  0  0  0  0  0  0  0  0  0
   59.3112   25.3498   48.2342 H   0  0  0  0  0  0  0  0  0  0  0  0
   58.9020   27.3120   47.4180 C   0  0  0  0  0  0  0  0  0  0  0  0
   59.7603   27.7784   47.9238 H   0  0  0  0  0  0  0  0  0  0  0  0
   58.0680   28.0890   46.5940 C   0  0  0  0  0  0  0  0  0  0  0  0
   58.2730   29.4690   46.3760 C   0  0  0  0  0  0  0  0  0  0  0  0
   59.4120   30.1560   46.9220 N   0  0  0  0  0  0  0  0  0  0  0  0
   60.3110   29.6340   47.0100 H   0  0  0  0  0  0  0  0  0  0  0  0
   59.4310   31.5700   47.1840 C   0  0  0  0  0  0  0  0  0  0  0  0
   59.5900   32.0710   48.4900 C   0  0  0  0  0  0  0  0  0  0  0  0
   59.6824   31.3741   49.3360 H   0  0  0  0  0  0  0  0  0  0  0  0
   59.6310   33.4500   48.7170 C   0  0  0  0  0  0  0  0  0  0  0  0
   59.7462   33.8343   49.7412 H   0  0  0  0  0  0  0  0  0  0  0  0
   59.5260   34.3410   47.6460 C   0  0  0  0  0  0  0  0  0  0  0  0
   59.5535   35.4255   47.8279 H   0  0  0  0  0  0  0  0  0  0  0  0
   59.3860   33.8540   46.3430 C   0  0  0  0  0  0  0  0  0  0  0  0
   59.2670   34.9720   44.9970 Cl  0  0  0  0  0  0  0  0  0  0  0  0
   59.3450   32.4740   46.1120 C   0  0  0  0  0  0  0  0  0  0  0  0
   59.2448   32.0948   45.0843 H   0  0  0  0  0  0  0  0  0  0  0  0
   57.4010   30.1520   45.5850 N   0  0  0  0  0  0  0  0  0  0  0  0
  1  2  1  0
  2  3  2  0
  3  4  1  0
  4  5  2  0
  5  6  1  0
  6  7  1  0
  6  8  2  0
  8  9  1  0
  9 10  2  0
  9 11  1  0
 11 12  1  0
 12 13  1  0
 12 14  1  0
 12 15  1  0
 11 16  1  0
 16 17  1  0
 16 18  1  0
 18 19  1  0
 18 20  1  0
 18 21  1  0
 21 22  1  0
 21 23  1  0
 21 24  1  0
 24 25  1  0
 25 26  1  0
 25 27  1  0
 25 28  1  0
 28 29  1  0
 28 30  1  0
  8 31  1  0
 31 32  1  0
 31 33  2  0
 33 34  1  0
 33 35  1  0
 35 36  2  0
 36 37  1  0
 37 38  1  0
 37 39  1  0
 39 40  2  0
 40 41  1  0
 40 42  1  0
 42 43  1  0
 42 44  2  0
 44 45  1  0
 44 46  1  0
 46 47  1  0
 46 48  2  0
 48 49  1  0
 36 50  1  0
 50  3  1  0
 35  5  1  0
 48 39  1  0
 28 16  1  0
M  CHG  1  50  -1
M  END
>  <UniqueID>  (78) 
75

>  <SMILES>  (78) 
[H]/N=c1/nc2cc(C(=O)N(C)C3CCOCC3)ccc2c(Nc2cccc(Cl)c2)[n-]1

>  <Energy>  (78) 
77.16388434939367

>  <Genealogy>  (78) 
CN(C(=O)c1ccc2c(Nc3cccc(Cl)c3)[n-]c(=N)nc2c1)C1CCOCC1 (protonated)
[H]/N=c1/nc2cc(C(=O)N(C)C3CCOCC3)ccc2c(Nc2cccc(Cl)c2)[n-]1 (cis-trans isomerization)
[H]/N=c1/nc2cc(C(=O)N(C)C3CCOCC3)ccc2c(Nc2cccc(Cl)c2)[n-]1 (3D coordinates assigned)
[H]/N=c1/nc2cc(C(=O)N(C)C3CCOCC3)ccc2c(Nc2cccc(Cl)c2)[n-]1 (nonaromatic ring conformer: 77.16388434939367 kcal/mol)

>  <smiles>  (78) 
CN(C(=O)c1ccc2c(Nc3cccc(Cl)c3)[nH]c(=N)nc2c1)C1CCOCC1

>  <score_type>  (78) 
oracle

>  <origin>  (78) 
adg

>  <m_score__min__energy>  (78) 
-11.07

>  <m_primary>  (78) 
energy

$$$$
78:0
     RDKit          3D

 34 36  0  0  0  0  0  0  0  0999 V2000
   57.3010   28.4350   43.8490 N   0  0  0  0  0  0  0  0  0  0  0  0
   56.5710   29.9990   43.7440 S   0  0  0  0  0  0  0  0  0  0  0  0
   55.1210   29.9030   44.1310 O   0  0  0  0  0  0  0  0  0  0  0  0
   56.6590   30.5000   42.3300 O   0  0  0  0  0  0  0  0  0  0  0  0
   57.4050   31.1130   44.8240 C   0  0  0  0  0  0  0  0  0  0  0  0
   57.4640   32.4770   44.5150 C   0  0  0  0  0  0  0  0  0  0  0  0
   58.1250   33.3600   45.3690 C   0  0  0  0  0  0  0  0  0  0  0  0
   58.7330   32.8870   46.5360 C   0  0  0  0  0  0  0  0  0  0  0  0
   58.6930   31.5170   46.8620 C   0  0  0  0  0  0  0  0  0  0  0  0
   59.3510   31.0330   48.1070 C   0  0  0  0  0  0  0  0  0  0  0  0
   59.9250   31.8600   48.8670 O   0  0  0  0  0  0  0  0  0  0  0  0
   59.3770   29.5790   48.4990 C   0  0  0  0  0  0  0  0  0  0  0  0
   60.2520   28.5780   47.2460 S   0  0  0  0  0  0  0  0  0  0  0  0
   58.8820   27.4590   46.9690 C   0  0  0  0  0  0  0  0  0  0  0  0
   58.9360   26.1410   47.3040 N   0  0  0  0  0  0  0  0  0  0  0  0
   57.7290   25.7030   46.9190 C   0  0  0  0  0  0  0  0  0  0  0  0
   57.2000   24.4210   47.0190 C   0  0  0  0  0  0  0  0  0  0  0  0
   55.8920   24.2250   46.5390 C   0  0  0  0  0  0  0  0  0  0  0  0
   55.1790   25.3140   45.9840 C   0  0  0  0  0  0  0  0  0  0  0  0
   55.7500   26.5560   45.9170 N   0  0  0  0  0  0  0  0  0  0  0  0
   57.0110   26.7220   46.3860 C   0  0  0  0  0  0  0  0  0  0  0  0
   57.7140   27.8620   46.4010 N   0  0  0  0  0  0  0  0  0  0  0  0
   58.0220   30.6360   45.9890 C   0  0  0  0  0  0  0  0  0  0  0  0
   56.6670   27.8400   44.4290 H   0  0  0  0  0  0  0  0  0  0  0  0
   58.1860   28.5470   44.3900 H   0  0  0  0  0  0  0  0  0  0  0  0
   56.9884   32.8532   43.5973 H   0  0  0  0  0  0  0  0  0  0  0  0
   58.1681   34.4314   45.1237 H   0  0  0  0  0  0  0  0  0  0  0  0
   59.2476   33.5915   47.2060 H   0  0  0  0  0  0  0  0  0  0  0  0
   59.8924   29.4762   49.4653 H   0  0  0  0  0  0  0  0  0  0  0  0
   58.3407   29.2180   48.5743 H   0  0  0  0  0  0  0  0  0  0  0  0
   57.7800   23.5944   47.4552 H   0  0  0  0  0  0  0  0  0  0  0  0
   55.4260   23.2302   46.5949 H   0  0  0  0  0  0  0  0  0  0  0  0
   54.1582   25.1612   45.6036 H   0  0  0  0  0  0  0  0  0  0  0  0
   57.9822   29.5623   46.2248 H   0  0  0  0  0  0  0  0  0  0  0  0
  1  2  1  0
  2  3  2  0
  2  4  2  0
  2  5  1  0
  5  6  2  0
  6  7  1  0
  7  8  2  0
  8  9  1  0
  9 10  1  0
 10 11  2  0
 10 12  1  0
 12 13  1  0
 13 14  1  0
 14 15  2  0
 15 16  1  0
 16 17  2  0
 17 18  1  0
 18 19  2  0
 19 20  1  0
 20 21  2  0
 21 22  1  0
  9 23  2  0
 23  5  1  0
 22 14  1  0
 21 16  1  0
  1 24  1  0
  1 25  1  0
  6 26  1  0
  7 27  1  0
  8 28  1  0
 12 29  1  0
 12 30  1  0
 17 31  1  0
 18 32  1  0
 19 33  1  0
 23 34  1  0
M  CHG  1  22  -1
M  END
>  <UniqueID>  (79) 
76

>  <SMILES>  (79) 
NS(=O)(=O)c1cccc(C(=O)CSc2nc3cccnc3[n-]2)c1

>  <Energy>  (79) 
69.74141074150572

>  <Genealogy>  (79) 
NS(=O)(=O)c1cccc(C(=O)CSc2nc3cccnc3[n-]2)c1 (protonated)
NS(=O)(=O)c1cccc(C(=O)CSc2nc3cccnc3[n-]2)c1 (3D coordinates assigned)
NS(=O)(=O)c1cccc(C(=O)CSc2nc3cccnc3[n-]2)c1 (optimized conformer: 69.74141074150572 kcal/mol)

>  <smiles>  (79) 
NS(=O)(=O)c1cccc(C(=O)CSc2nc3cccnc3[nH]2)c1

>  <score_type>  (79) 
oracle

>  <origin>  (79) 
adg

>  <m_score__min__energy>  (79) 
-9.0800000000000001

>  <m_primary>  (79) 
energy

$$$$
79:0
     RDKit          3D

 57 59  0  0  0  0  0  0  0  0999 V2000
   51.3940   31.4850   50.5000 C   0  0  0  0  0  0  0  0  0  0  0  0
   52.3730   30.7470   51.3650 C   0  0  0  0  0  0  0  0  0  0  0  0
   51.9950   29.5760   52.0380 C   0  0  0  0  0  0  0  0  0  0  0  0
   52.9160   28.8960   52.8500 C   0  0  0  0  0  0  0  0  0  0  0  0
   52.5150   27.6550   53.5930 C   0  0  0  0  0  0  0  0  0  0  0  0
   54.2200   29.3960   52.9850 C   0  0  0  0  0  0  0  0  0  0  0  0
   54.6160   30.5500   52.2900 C   0  0  0  0  0  0  0  0  0  0  0  0
   55.9460   31.0850   52.4130 N   0  0  0  0  0  0  0  0  0  0  0  0
   57.1210   30.5720   51.7720 C   0  0  0  0  0  0  0  0  0  0  0  0
   57.3970   29.3490   51.9040 O   0  0  0  0  0  0  0  0  0  0  0  0
   58.0400   31.4460   51.0070 C   0  0  0  0  0  0  0  0  0  0  0  0
   58.5650   31.0130   49.7790 C   0  0  0  0  0  0  0  0  0  0  0  0
   59.4220   31.8400   49.0450 C   0  0  0  0  0  0  0  0  0  0  0  0
   59.7840   33.1040   49.5370 C   0  0  0  0  0  0  0  0  0  0  0  0
   60.6910   33.9930   48.7320 C   0  0  0  0  0  0  0  0  0  0  0  0
   60.6910   33.5580   47.3390 N   0  0  0  0  0  0  0  0  0  0  0  0
   59.3250   34.2330   46.4980 S   0  0  0  0  0  0  0  0  0  0  0  0
   58.9860   35.5600   47.1140 O   0  0  0  0  0  0  0  0  0  0  0  0
   59.6510   34.4380   45.0430 O   0  0  0  0  0  0  0  0  0  0  0  0
   57.9230   33.1380   46.6590 C   0  0  0  0  0  0  0  0  0  0  0  0
   57.0250   33.2290   45.4300 C   0  0  0  0  0  0  0  0  0  0  0  0
   56.6500   31.8890   44.9980 N   0  0  0  0  0  0  0  0  0  0  0  0
   57.5850   30.8930   44.5730 C   0  0  0  0  0  0  0  0  0  0  0  0
   58.4960   31.2120   43.7630 O   0  0  0  0  0  0  0  0  0  0  0  0
   57.5050   29.5000   45.0590 C   0  0  0  0  0  0  0  0  0  0  0  0
   58.6890   28.8270   45.3970 C   0  0  0  0  0  0  0  0  0  0  0  0
   58.6450   27.5080   45.8450 C   0  0  0  0  0  0  0  0  0  0  0  0
   57.4140   26.8640   45.9480 C   0  0  0  0  0  0  0  0  0  0  0  0
   56.2720   27.5190   45.6130 N   0  0  0  0  0  0  0  0  0  0  0  0
   56.2750   28.8060   45.1730 C   0  0  0  0  0  0  0  0  0  0  0  0
   55.1370   29.3650   44.8850 N   0  0  0  0  0  0  0  0  0  0  0  0
   59.2740   33.5310   50.7740 C   0  0  0  0  0  0  0  0  0  0  0  0
   58.4090   32.7090   51.5020 C   0  0  0  0  0  0  0  0  0  0  0  0
   53.6830   31.2300   51.4990 C   0  0  0  0  0  0  0  0  0  0  0  0
   50.6773   32.0252   51.1360 H   0  0  0  0  0  0  0  0  0  0  0  0
   51.9341   32.2026   49.8649 H   0  0  0  0  0  0  0  0  0  0  0  0
   50.8528   30.7682   49.8649 H   0  0  0  0  0  0  0  0  0  0  0  0
   50.9713   29.1885   51.9289 H   0  0  0  0  0  0  0  0  0  0  0  0
   52.5749   27.8403   54.6756 H   0  0  0  0  0  0  0  0  0  0  0  0
   51.4835   27.3837   53.3239 H   0  0  0  0  0  0  0  0  0  0  0  0
   53.1928   26.8314   53.3239 H   0  0  0  0  0  0  0  0  0  0  0  0
   54.9374   28.8801   53.6402 H   0  0  0  0  0  0  0  0  0  0  0  0
   58.3010   30.0178   49.3918 H   0  0  0  0  0  0  0  0  0  0  0  0
   59.8147   31.4977   48.0762 H   0  0  0  0  0  0  0  0  0  0  0  0
   60.3331   35.0315   48.7914 H   0  0  0  0  0  0  0  0  0  0  0  0
   61.7132   33.9327   49.1340 H   0  0  0  0  0  0  0  0  0  0  0  0
   58.2827   32.1042   46.7678 H   0  0  0  0  0  0  0  0  0  0  0  0
   57.3420   33.4347   47.5446 H   0  0  0  0  0  0  0  0  0  0  0  0
   56.1187   33.7999   45.6804 H   0  0  0  0  0  0  0  0  0  0  0  0
   57.5672   33.7360   44.6183 H   0  0  0  0  0  0  0  0  0  0  0  0
   59.6564   29.3429   45.3080 H   0  0  0  0  0  0  0  0  0  0  0  0
   59.5723   26.9811   46.1144 H   0  0  0  0  0  0  0  0  0  0  0  0
   57.3666   25.8233   46.3012 H   0  0  0  0  0  0  0  0  0  0  0  0
   54.9560   30.3910   44.9500 H   0  0  0  0  0  0  0  0  0  0  0  0
   59.5566   34.5169   51.1718 H   0  0  0  0  0  0  0  0  0  0  0  0
   58.0141   33.0529   52.4694 H   0  0  0  0  0  0  0  0  0  0  0  0
   53.9798   32.1519   50.9775 H   0  0  0  0  0  0  0  0  0  0  0  0
  1  2  1  0
  2  3  2  0
  3  4  1  0
  4  5  1  0
  4  6  2  0
  6  7  1  0
  7  8  1  0
  8  9  1  0
  9 10  2  0
  9 11  1  0
 11 12  2  0
 12 13  1  0
 13 14  2  0
 14 15  1  0
 15 16  1  0
 16 17  1  0
 17 18  2  0
 17 19  2  0
 17 20  1  0
 20 21  1  0
 21 22  1  0
 22 23  1  0
 23 24  2  0
 23 25  1  0
 25 26  2  0
 26 27  1  0
 27 28  2  0
 28 29  1  0
 29 30  1  0
 30 31  2  3
 14 32  1  0
 32 33  2  0
  7 34  2  0
 34  2  1  0
 33 11  1  0
 30 25  1  0
  1 35  1  0
  1 36  1  0
  1 37  1  0
  3 38  1  0
  5 39  1  0
  5 40  1  0
  5 41  1  0
  6 42  1  0
 12 43  1  0
 13 44  1  0
 15 45  1  0
 15 46  1  0
 20 47  1  0
 20 48  1  0
 21 49  1  0
 21 50  1  0
 26 51  1  0
 27 52  1  0
 28 53  1  0
 31 54  1  0
 32 55  1  0
 33 56  1  0
 34 57  1  0
M  CHG  4   8  -1  16  -1  22  -1  29  -1
M  END
>  <UniqueID>  (80) 
77

>  <SMILES>  (80) 
Cc1cc(C)cc([N-]C(=O)c2ccc(C[N-]S(=O)(=O)CC[N-]C(=O)c3ccc[n-]c3=N)cc2)c1

>  <Energy>  (80) 
63.697338921226724

>  <Genealogy>  (80) 
Cc1cc(C)cc([N-]C(=O)c2ccc(C[N-]S(=O)(=O)CC[N-]C(=O)c3ccc[n-]c3=N)cc2)c1 (protonated)
Cc1cc(C)cc([N-]C(=O)c2ccc(C[N-]S(=O)(=O)CC[N-]C(=O)c3ccc[n-]c3=N)cc2)c1 (3D coordinates assigned)
Cc1cc(C)cc([N-]C(=O)c2ccc(C[N-]S(=O)(=O)CC[N-]C(=O)c3ccc[n-]c3=N)cc2)c1 (optimized conformer: 63.697338921226724 kcal/mol)

>  <smiles>  (80) 
Cc1cc(C)cc(NC(=O)c2ccc(CNS(=O)(=O)CCNC(=O)c3ccc[nH]c3=N)cc2)c1

>  <score_type>  (80) 
oracle

>  <origin>  (80) 
adg

>  <m_score__min__energy>  (80) 
-15.52

>  <m_primary>  (80) 
energy

$$$$
80:0
     RDKit          3D

 35 37  0  0  0  0  0  0  0  0999 V2000
   55.8830   23.3270   46.6810 C   0  0  0  0  0  0  0  0  0  0  0  0
   56.0660   24.7950   46.5110 C   0  0  0  0  0  0  0  0  0  0  0  0
   57.1970   25.4570   46.8390 N   0  0  0  0  0  0  0  0  0  0  0  0
   56.8800   26.7210   46.4840 C   0  0  0  0  0  0  0  0  0  0  0  0
   57.8210   27.8860   46.6240 C   0  0  1  0  0  0  0  0  0  0  0  0
   59.2380   27.4180   46.9600 C   0  0  0  0  0  0  0  0  0  0  0  0
   60.0280   27.5070   45.6580 C   0  0  0  0  0  0  0  0  0  0  0  0
   59.2650   28.4860   44.7750 C   0  0  0  0  0  0  0  0  0  0  0  0
   57.9390   28.6030   45.3600 N   0  0  0  0  0  0  0  0  0  0  0  0
   56.8850   29.3610   44.7340 C   0  0  0  0  0  0  0  0  0  0  0  0
   55.6850   29.0230   44.9270 O   0  0  0  0  0  0  0  0  0  0  0  0
   57.1840   30.6010   43.9270 C   0  0  0  0  0  0  0  0  0  0  0  0
   57.6900   31.7180   44.7880 C   0  0  0  0  0  0  0  0  0  0  0  0
   57.2430   33.0330   44.7590 C   0  0  0  0  0  0  0  0  0  0  0  0
   57.8550   33.8420   45.7220 C   0  0  0  0  0  0  0  0  0  0  0  0
   58.7750   33.1680   46.5160 C   0  0  0  0  0  0  0  0  0  0  0  0
   58.8220   31.5610   46.0200 S   0  0  0  0  0  0  0  0  0  0  0  0
   55.6420   26.7980   45.9640 N   0  0  0  0  0  0  0  0  0  0  0  0
   55.1640   25.5950   45.9930 O   0  0  0  0  0  0  0  0  0  0  0  0
   55.8526   23.0830   47.7532 H   0  0  0  0  0  0  0  0  0  0  0  0
   54.9394   23.0179   46.2077 H   0  0  0  0  0  0  0  0  0  0  0  0
   56.7219   22.7957   46.2077 H   0  0  0  0  0  0  0  0  0  0  0  0
   57.4094   28.5209   47.4224 H   0  0  0  0  0  0  0  0  0  0  0  0
   59.6853   28.0706   47.7242 H   0  0  0  0  0  0  0  0  0  0  0  0
   59.2400   26.3950   47.3643 H   0  0  0  0  0  0  0  0  0  0  0  0
   61.0450   27.8786   45.8518 H   0  0  0  0  0  0  0  0  0  0  0  0
   60.1285   26.5226   45.1776 H   0  0  0  0  0  0  0  0  0  0  0  0
   59.7670   29.4647   44.7669 H   0  0  0  0  0  0  0  0  0  0  0  0
   59.2166   28.1359   43.7333 H   0  0  0  0  0  0  0  0  0  0  0  0
   57.9473   30.3592   43.1728 H   0  0  0  0  0  0  0  0  0  0  0  0
   56.2490   30.9328   43.4518 H   0  0  0  0  0  0  0  0  0  0  0  0
   56.4854   33.4004   44.0512 H   0  0  0  0  0  0  0  0  0  0  0  0
   57.6291   34.9121   45.8399 H   0  0  0  0  0  0  0  0  0  0  0  0
   59.3702   33.6093   47.3290 H   0  0  0  0  0  0  0  0  0  0  0  0
   55.1470   27.6430   45.6010 H   0  0  0  0  0  0  0  0  0  0  0  0
  1  2  1  0
  2  3  2  0
  3  4  1  0
  4  5  1  0
  5  6  1  0
  6  7  1  0
  7  8  1  0
  8  9  1  0
  9 10  1  0
 10 11  2  0
 10 12  1  0
 12 13  1  0
 13 14  2  0
 14 15  1  0
 15 16  2  0
 16 17  1  0
  4 18  2  0
 18 19  1  0
 19  2  1  0
  9  5  1  0
 17 13  1  0
  1 20  1  0
  1 21  1  0
  1 22  1  0
  5 23  1  1
  6 24  1  0
  6 25  1  0
  7 26  1  0
  7 27  1  0
  8 28  1  0
  8 29  1  0
 12 30  1  0
 12 31  1  0
 14 32  1  0
 15 33  1  0
 16 34  1  0
 18 35  1  0
M  CHG  1  18   1
M  END
>  <UniqueID>  (81) 
78

>  <SMILES>  (81) 
Cc1nc([C@H]2CCCN2C(=O)Cc2cccs2)[nH+]o1

>  <Energy>  (81) 
91.83707770212492

>  <Genealogy>  (81) 
Cc1nc(C2CCCN2C(=O)Cc2cccs2)[nH+]o1 (protonated)
Cc1nc([C@H]2CCCN2C(=O)Cc2cccs2)[nH+]o1 (chirality)
Cc1nc([C@H]2CCCN2C(=O)Cc2cccs2)[nH+]o1 (3D coordinates assigned)
Cc1nc([C@H]2CCCN2C(=O)Cc2cccs2)[nH+]o1 (nonaromatic ring conformer: 91.83707770212492 kcal/mol)

>  <smiles>  (81) 
Cc1nc(C2CCCN2C(=O)Cc2cccs2)no1

>  <score_type>  (81) 
oracle

>  <origin>  (81) 
adg

>  <m_score__min__energy>  (81) 
-6.3799999999999999

>  <m_primary>  (81) 
energy

$$$$
81:0
     RDKit          3D

 44 46  0  0  0  0  0  0  0  0999 V2000
   55.2320   28.3640   44.5250 H   0  0  0  0  0  0  0  0  0  0  0  0
   55.0870   29.3420   44.1880 N   0  0  0  0  0  0  0  0  0  0  0  0
   56.0510   30.2030   44.1140 C   0  0  0  0  0  0  0  0  0  0  0  0
   56.6560   30.6260   45.2540 N   0  0  0  0  0  0  0  0  0  0  0  0
   57.6700   31.5340   45.2420 C   0  0  0  0  0  0  0  0  0  0  0  0
   58.2390   32.0280   46.5430 C   0  0  0  0  0  0  0  0  0  0  0  0
   58.1743   33.1258   46.5666 H   0  0  0  0  0  0  0  0  0  0  0  0
   57.6579   31.5817   47.3634 H   0  0  0  0  0  0  0  0  0  0  0  0
   59.7070   31.6120   46.7140 C   0  0  0  0  0  0  0  0  0  0  0  0
   60.1961   31.6174   45.7287 H   0  0  0  0  0  0  0  0  0  0  0  0
   60.1887   32.3271   47.3972 H   0  0  0  0  0  0  0  0  0  0  0  0
   59.8300   30.2340   47.3130 C   0  0  0  0  0  0  0  0  0  0  0  0
   60.1630   30.0770   48.6680 C   0  0  0  0  0  0  0  0  0  0  0  0
   60.2976   30.9635   49.3052 H   0  0  0  0  0  0  0  0  0  0  0  0
   60.3240   28.8000   49.2100 C   0  0  0  0  0  0  0  0  0  0  0  0
   60.5703   28.6837   50.2757 H   0  0  0  0  0  0  0  0  0  0  0  0
   60.1730   27.6690   48.4020 C   0  0  0  0  0  0  0  0  0  0  0  0
   60.2935   26.6652   48.8354 H   0  0  0  0  0  0  0  0  0  0  0  0
   59.8680   27.8110   47.0390 C   0  0  0  0  0  0  0  0  0  0  0  0
   59.7000   26.5980   46.1660 C   0  0  0  0  0  0  0  0  0  0  0  0
   60.6794   26.3082   45.7575 H   0  0  0  0  0  0  0  0  0  0  0  0
   59.2832   25.7800   46.7719 H   0  0  0  0  0  0  0  0  0  0  0  0
   58.7420   26.8940   45.0120 C   0  0  0  0  0  0  0  0  0  0  0  0
   58.7704   27.9699   44.7846 H   0  0  0  0  0  0  0  0  0  0  0  0
   59.0541   26.3126   44.1319 H   0  0  0  0  0  0  0  0  0  0  0  0
   57.3420   26.5040   45.3800 C   0  0  0  0  0  0  0  0  0  0  0  0
   56.8730   25.2310   45.6130 C   0  0  0  0  0  0  0  0  0  0  0  0
   57.5720   24.0360   45.5000 O   0  0  0  0  0  0  0  0  0  0  0  0
   55.5650   25.4040   45.9920 C   0  0  0  0  0  0  0  0  0  0  0  0
   54.7590   24.4860   46.2970 O   0  0  0  0  0  0  0  0  0  0  0  0
   55.2530   26.7140   46.0030 N   0  0  0  0  0  0  0  0  0  0  0  0
   56.3430   27.3760   45.6350 N   0  0  0  0  0  0  0  0  0  0  0  0
   56.4020   28.4160   45.5700 H   0  0  0  0  0  0  0  0  0  0  0  0
   59.6820   29.0950   46.5040 C   0  0  0  0  0  0  0  0  0  0  0  0
   59.4181   29.2106   45.4424 H   0  0  0  0  0  0  0  0  0  0  0  0
   58.1100   32.0670   44.0220 C   0  0  0  0  0  0  0  0  0  0  0  0
   58.9150   32.8165   44.0036 H   0  0  0  0  0  0  0  0  0  0  0  0
   57.5180   31.6390   42.8270 C   0  0  0  0  0  0  0  0  0  0  0  0
   57.9440   32.2320   41.5170 C   0  0  0  0  0  0  0  0  0  0  0  0
   58.5767   33.1127   41.7016 H   0  0  0  0  0  0  0  0  0  0  0  0
   58.5133   31.4851   40.9443 H   0  0  0  0  0  0  0  0  0  0  0  0
   57.0545   32.5331   40.9443 H   0  0  0  0  0  0  0  0  0  0  0  0
   56.4700   30.7100   42.8740 C   0  0  0  0  0  0  0  0  0  0  0  0
   55.9794   30.3806   41.9462 H   0  0  0  0  0  0  0  0  0  0  0  0
  1  2  1  0
  2  3  2  0
  3  4  1  0
  4  5  1  0
  5  6  1  0
  6  7  1  0
  6  8  1  0
  6  9  1  0
  9 10  1  0
  9 11  1  0
  9 12  1  0
 12 13  2  0
 13 14  1  0
 13 15  1  0
 15 16  1  0
 15 17  2  0
 17 18  1  0
 17 19  1  0
 19 20  1  0
 20 21  1  0
 20 22  1  0
 20 23  1  0
 23 24  1  0
 23 25  1  0
 23 26  1  0
 26 27  2  0
 27 28  1  0
 27 29  1  0
 29 30  2  0
 29 31  1  0
 31 32  1  0
 32 33  1  0
 19 34  2  0
 34 35  1  0
  5 36  2  0
 36 37  1  0
 36 38  1  0
 38 39  1  0
 39 40  1  0
 39 41  1  0
 39 42  1  0
 38 43  2  0
 43 44  1  0
 43  3  1  0
 34 12  1  0
 32 26  1  0
M  CHG  3   4  -1  28  -1  31  -1
M  END
>  <UniqueID>  (82) 
79

>  <SMILES>  (82) 
[H]/N=c1\cc(C)cc(CCc2cccc(CCc3[nH][n-]c(=O)c3[O-])c2)[n-]1

>  <Energy>  (82) 
71.118990401042

>  <Genealogy>  (82) 
Cc1cc(CCc2cccc(CCc3[nH][n-]c(=O)c3[O-])c2)[n-]c(=N)c1 (protonated)
[H]/N=c1\cc(C)cc(CCc2cccc(CCc3[nH][n-]c(=O)c3[O-])c2)[n-]1 (cis-trans isomerization)
[H]/N=c1\cc(C)cc(CCc2cccc(CCc3[nH][n-]c(=O)c3[O-])c2)[n-]1 (3D coordinates assigned)
[H]/N=c1\cc(C)cc(CCc2cccc(CCc3[nH][n-]c(=O)c3[O-])c2)[n-]1 (optimized conformer: 71.118990401042 kcal/mol)

>  <smiles>  (82) 
Cc1cc(CCc2cccc(CCc3[nH][nH]c(=O)c3O)c2)[nH]c(=N)c1

>  <score_type>  (82) 
oracle

>  <origin>  (82) 
adg

>  <m_score__min__energy>  (82) 
-15.82

>  <m_primary>  (82) 
energy

$$$$
82:0
     RDKit          3D

 52 56  0  0  0  0  0  0  0  0999 V2000
   56.2969   30.4446   44.0615 H   0  0  0  0  0  0  0  0  0  0  0  0
   56.5950   29.3950   44.2010 C   0  0  0  0  0  0  0  0  0  0  0  0
   55.9388   28.5854   43.8490 H   0  0  0  0  0  0  0  0  0  0  0  0
   57.7600   29.1020   44.8010 C   0  0  0  0  0  0  0  0  0  0  0  0
   58.2680   27.8220   45.0460 C   0  0  0  0  0  0  0  0  0  0  0  0
   57.7030   26.6430   44.7190 C   0  0  0  0  0  0  0  0  0  0  0  0
   57.6836   26.3566   43.6571 H   0  0  0  0  0  0  0  0  0  0  0  0
   57.1090   25.7130   45.6980 C   0  0  0  0  0  0  0  0  0  0  0  0
   55.8400   25.7470   46.2430 C   0  0  0  0  0  0  0  0  0  0  0  0
   54.8690   26.7110   45.9950 O   0  0  0  0  0  0  0  0  0  0  0  0
   55.6350   24.6720   47.0280 N   0  0  0  0  0  0  0  0  0  0  0  0
   56.7970   23.9950   46.9180 C   0  0  0  0  0  0  0  0  0  0  0  0
   57.0120   22.9050   47.5100 O   0  0  0  0  0  0  0  0  0  0  0  0
   57.7030   24.5830   46.1130 N   0  0  0  0  0  0  0  0  0  0  0  0
   58.6560   24.2360   45.8650 H   0  0  0  0  0  0  0  0  0  0  0  0
   59.5120   28.0020   45.6360 C   0  0  0  0  0  0  0  0  0  0  0  0
   60.2096   27.2124   45.9519 H   0  0  0  0  0  0  0  0  0  0  0  0
   59.7030   29.3640   45.7490 C   0  0  0  0  0  0  0  0  0  0  0  0
   60.9440   30.0010   46.2970 C   0  0  0  0  0  0  0  0  0  0  0  0
   60.9103   29.9837   47.3963 H   0  0  0  0  0  0  0  0  0  0  0  0
   61.8264   29.4444   45.9484 H   0  0  0  0  0  0  0  0  0  0  0  0
   61.0062   31.0425   45.9484 H   0  0  0  0  0  0  0  0  0  0  0  0
   58.6450   30.0350   45.2370 N   0  0  0  0  0  0  0  0  0  0  0  0
   58.5020   31.4650   45.1810 C   0  0  0  0  0  0  0  0  0  0  0  0
   57.9050   32.0700   44.0670 C   0  0  0  0  0  0  0  0  0  0  0  0
   57.5414   31.4488   43.2352 H   0  0  0  0  0  0  0  0  0  0  0  0
   57.7700   33.4580   44.0090 C   0  0  0  0  0  0  0  0  0  0  0  0
   57.3070   33.9284   43.1290 H   0  0  0  0  0  0  0  0  0  0  0  0
   58.2220   34.2510   45.0670 C   0  0  0  0  0  0  0  0  0  0  0  0
   58.1226   35.3451   45.0114 H   0  0  0  0  0  0  0  0  0  0  0  0
   58.8030   33.6590   46.2020 C   0  0  0  0  0  0  0  0  0  0  0  0
   59.2840   34.5010   47.3170 C   0  0  0  0  0  0  0  0  0  0  0  0
   58.9320   35.7100   47.3780 O   0  0  0  0  0  0  0  0  0  0  0  0
   60.1220   33.9540   48.3490 N   0  0  0  0  0  0  0  0  0  0  0  0
   61.5100   33.6820   48.2260 C   0  0  0  0  0  0  0  0  0  0  0  0
   62.2400   33.5210   47.0420 C   0  0  0  0  0  0  0  0  0  0  0  0
   61.7524   33.6231   46.0613 H   0  0  0  0  0  0  0  0  0  0  0  0
   63.6100   33.2260   47.1370 C   0  0  0  0  0  0  0  0  0  0  0  0
   64.2093   33.1039   46.2227 H   0  0  0  0  0  0  0  0  0  0  0  0
   64.2190   33.0860   48.4000 C   0  0  0  0  0  0  0  0  0  0  0  0
   65.2932   32.8593   48.4687 H   0  0  0  0  0  0  0  0  0  0  0  0
   63.4590   33.2350   49.5710 C   0  0  0  0  0  0  0  0  0  0  0  0
   63.9236   33.1204   50.5614 H   0  0  0  0  0  0  0  0  0  0  0  0
   62.1000   33.5320   49.4500 C   0  0  0  0  0  0  0  0  0  0  0  0
   61.1030   33.7130   50.5390 C   0  0  0  0  0  0  0  0  0  0  0  0
   61.3787   34.5565   51.1890 H   0  0  0  0  0  0  0  0  0  0  0  0
   61.0277   32.8388   51.2024 H   0  0  0  0  0  0  0  0  0  0  0  0
   59.7890   34.0080   49.7760 C   0  0  0  0  0  0  0  0  0  0  0  0
   59.4101   35.0060   50.0414 H   0  0  0  0  0  0  0  0  0  0  0  0
   59.0054   33.2797   50.0320 H   0  0  0  0  0  0  0  0  0  0  0  0
   58.9500   32.2620   46.2440 C   0  0  0  0  0  0  0  0  0  0  0  0
   59.4208   31.7895   47.1187 H   0  0  0  0  0  0  0  0  0  0  0  0
  1  2  1  0
  2  3  1  0
  2  4  2  0
  4  5  1  0
  5  6  2  0
  6  7  1  0
  6  8  1  0
  8  9  2  0
  9 10  1  0
  9 11  1  0
 11 12  1  0
 12 13  2  0
 12 14  1  0
 14 15  1  0
  5 16  1  0
 16 17  1  0
 16 18  2  0
 18 19  1  0
 19 20  1  0
 19 21  1  0
 19 22  1  0
 18 23  1  0
 23 24  1  0
 24 25  2  0
 25 26  1  0
 25 27  1  0
 27 28  1  0
 27 29  2  0
 29 30  1  0
 29 31  1  0
 31 32  1  0
 32 33  2  0
 32 34  1  0
 34 35  1  0
 35 36  2  0
 36 37  1  0
 36 38  1  0
 38 39  1  0
 38 40  2  0
 40 41  1  0
 40 42  1  0
 42 43  1  0
 42 44  2  0
 44 45  1  0
 45 46  1  0
 45 47  1  0
 45 48  1  0
 48 49  1  0
 48 50  1  0
 31 51  2  0
 51 52  1  0
 23  4  1  0
 51 24  1  0
 14  8  1  0
 48 34  1  0
 44 35  1  0
M  CHG  2  10  -1  11  -1
M  END
>  <UniqueID>  (83) 
80

>  <SMILES>  (83) 
C=c1/c(=C/c2[nH]c(=O)[n-]c2[O-])cc(C)n1-c1cccc(C(=O)N2CCc3ccccc32)c1

>  <Energy>  (83) 
149.80770332553882

>  <Genealogy>  (83) 
C=c1c(=Cc2[nH]c(=O)[n-]c2[O-])cc(C)n1-c1cccc(C(=O)N2CCc3ccccc32)c1 (protonated)
C=c1/c(=C/c2[nH]c(=O)[n-]c2[O-])cc(C)n1-c1cccc(C(=O)N2CCc3ccccc32)c1 (cis-trans isomerization)
C=c1/c(=C/c2[nH]c(=O)[n-]c2[O-])cc(C)n1-c1cccc(C(=O)N2CCc3ccccc32)c1 (3D coordinates assigned)
C=c1/c(=C/c2[nH]c(=O)[n-]c2[O-])cc(C)n1-c1cccc(C(=O)N2CCc3ccccc32)c1 (nonaromatic ring conformer: 149.80770332553882 kcal/mol)

>  <smiles>  (83) 
C=c1c(=Cc2[nH]c(=O)[nH]c2O)cc(C)n1-c1cccc(C(=O)N2CCc3ccccc32)c1

>  <score_type>  (83) 
oracle

>  <origin>  (83) 
adg

>  <m_score__min__energy>  (83) 
-16.629999999999999

>  <m_primary>  (83) 
energy

$$$$
83:0
     RDKit          3D

 53 56  0  0  0  0  0  0  0  0999 V2000
   55.5690   27.2780   46.5460 H   0  0  0  0  0  0  0  0  0  0  0  0
   56.0650   27.3930   45.6330 N   0  0  0  0  0  0  0  0  0  0  0  0
   56.4700   28.5520   45.2210 C   0  0  0  0  0  0  0  0  0  0  0  0
   55.5550   29.4870   44.8480 N   0  0  0  0  0  0  0  0  0  0  0  0
   55.9170   30.7170   44.4030 C   0  0  0  0  0  0  0  0  0  0  0  0
   55.1444   31.4451   44.1151 H   0  0  0  0  0  0  0  0  0  0  0  0
   57.2740   31.0630   44.3090 C   0  0  0  0  0  0  0  0  0  0  0  0
   57.7140   32.3160   43.8500 O   0  0  0  0  0  0  0  0  0  0  0  0
   57.4040   33.5700   44.4580 C   0  0  0  0  0  0  0  0  0  0  0  0
   57.7010   34.3833   43.7796 H   0  0  0  0  0  0  0  0  0  0  0  0
   56.3221   33.6107   44.6523 H   0  0  0  0  0  0  0  0  0  0  0  0
   58.1360   33.7240   45.7640 C   0  0  0  0  0  0  0  0  0  0  0  0
   57.8380   32.8890   46.8540 C   0  0  0  0  0  0  0  0  0  0  0  0
   57.0666   32.1113   46.7536 H   0  0  0  0  0  0  0  0  0  0  0  0
   58.5190   33.0430   48.0670 C   0  0  0  0  0  0  0  0  0  0  0  0
   58.2886   32.3808   48.9146 H   0  0  0  0  0  0  0  0  0  0  0  0
   59.4910   34.0370   48.2020 C   0  0  0  0  0  0  0  0  0  0  0  0
   60.0262   34.1565   49.1555 H   0  0  0  0  0  0  0  0  0  0  0  0
   59.7840   34.8800   47.1260 C   0  0  0  0  0  0  0  0  0  0  0  0
   60.5482   35.6637   47.2343 H   0  0  0  0  0  0  0  0  0  0  0  0
   59.1070   34.7280   45.9130 C   0  0  0  0  0  0  0  0  0  0  0  0
   59.3356   35.3978   45.0709 H   0  0  0  0  0  0  0  0  0  0  0  0
   58.2320   30.1180   44.6830 C   0  0  0  0  0  0  0  0  0  0  0  0
   59.3007   30.3672   44.6068 H   0  0  0  0  0  0  0  0  0  0  0  0
   57.8460   28.8540   45.1550 C   0  0  0  0  0  0  0  0  0  0  0  0
   58.9090   27.8400   45.5130 C   0  0  0  0  0  0  0  0  0  0  0  0
   58.4427   26.8504   45.6285 H   0  0  0  0  0  0  0  0  0  0  0  0
   59.6607   27.8102   44.7105 H   0  0  0  0  0  0  0  0  0  0  0  0
   59.5830   28.2250   46.8020 C   0  0  0  0  0  0  0  0  0  0  0  0
   59.3550   27.4830   47.9700 C   0  0  0  0  0  0  0  0  0  0  0  0
   58.6944   26.6040   47.9398 H   0  0  0  0  0  0  0  0  0  0  0  0
   59.9630   27.8550   49.1720 C   0  0  0  0  0  0  0  0  0  0  0  0
   59.7930   27.2591   50.0809 H   0  0  0  0  0  0  0  0  0  0  0  0
   60.7860   28.9820   49.2210 C   0  0  0  0  0  0  0  0  0  0  0  0
   61.2740   29.2620   50.1662 H   0  0  0  0  0  0  0  0  0  0  0  0
   60.9940   29.7590   48.0720 C   0  0  0  0  0  0  0  0  0  0  0  0
   61.8470   30.9130   48.1460 N   0  0  0  0  0  0  0  0  0  0  0  0
   62.4670   31.0160   48.9800 H   0  0  0  0  0  0  0  0  0  0  0  0
   61.8380   31.9750   47.1780 C   0  0  0  0  0  0  0  0  0  0  0  0
   60.8850   32.0910   46.3610 O   0  0  0  0  0  0  0  0  0  0  0  0
   62.9730   32.9500   47.1260 C   0  0  0  0  0  0  0  0  0  0  0  0
   63.8286   32.4884   46.6113 H   0  0  0  0  0  0  0  0  0  0  0  0
   62.6559   33.8504   46.5793 H   0  0  0  0  0  0  0  0  0  0  0  0
   63.3740   33.3290   48.5160 C   0  0  0  0  0  0  0  0  0  0  0  0
   64.6860   32.6940   49.3530 S   0  0  0  0  0  0  0  0  0  0  0  0
   64.3870   33.5010   50.7990 C   0  0  0  0  0  0  0  0  0  0  0  0
   64.9960   33.4335   51.7125 H   0  0  0  0  0  0  0  0  0  0  0  0
   63.2390   34.2670   50.6410 C   0  0  0  0  0  0  0  0  0  0  0  0
   62.8207   34.8953   51.4412 H   0  0  0  0  0  0  0  0  0  0  0  0
   62.6640   34.1650   49.3690 C   0  0  0  0  0  0  0  0  0  0  0  0
   61.7446   34.6924   49.0749 H   0  0  0  0  0  0  0  0  0  0  0  0
   60.4050   29.3630   46.8580 C   0  0  0  0  0  0  0  0  0  0  0  0
   60.5893   29.9487   45.9453 H   0  0  0  0  0  0  0  0  0  0  0  0
  1  2  1  0
  2  3  2  0
  3  4  1  0
  4  5  1  0
  5  6  1  0
  5  7  2  0
  7  8  1  0
  8  9  1  0
  9 10  1  0
  9 11  1  0
  9 12  1  0
 12 13  2  0
 13 14  1  0
 13 15  1  0
 15 16  1  0
 15 17  2  0
 17 18  1  0
 17 19  1  0
 19 20  1  0
 19 21  2  0
 21 22  1  0
  7 23  1  0
 23 24  1  0
 23 25  2  0
 25 26  1  0
 26 27  1  0
 26 28  1  0
 26 29  1  0
 29 30  2  0
 30 31  1  0
 30 32  1  0
 32 33  1  0
 32 34  2  0
 34 35  1  0
 34 36  1  0
 36 37  1  0
 37 38  1  0
 37 39  1  0
 39 40  2  0
 39 41  1  0
 41 42  1  0
 41 43  1  0
 41 44  1  0
 44 45  1  0
 45 46  1  0
 46 47  1  0
 46 48  2  0
 48 49  1  0
 48 50  1  0
 50 51  1  0
 36 52  2  0
 52 53  1  0
 25  3  1  0
 52 29  1  0
 21 12  1  0
 50 44  2  0
M  CHG  1   4  -1
M  END
>  <UniqueID>  (84) 
81

>  <SMILES>  (84) 
[H]/N=c1\[n-]cc(OCc2ccccc2)cc1Cc1cccc(NC(=O)Cc2cccs2)c1

>  <Energy>  (84) 
83.5167526208869

>  <Genealogy>  (84) 
N=c1[n-]cc(OCc2ccccc2)cc1Cc1cccc(NC(=O)Cc2cccs2)c1 (protonated)
[H]/N=c1\[n-]cc(OCc2ccccc2)cc1Cc1cccc(NC(=O)Cc2cccs2)c1 (cis-trans isomerization)
[H]/N=c1\[n-]cc(OCc2ccccc2)cc1Cc1cccc(NC(=O)Cc2cccs2)c1 (3D coordinates assigned)
[H]/N=c1\[n-]cc(OCc2ccccc2)cc1Cc1cccc(NC(=O)Cc2cccs2)c1 (optimized conformer: 83.5167526208869 kcal/mol)

>  <smiles>  (84) 
N=c1[nH]cc(OCc2ccccc2)cc1Cc1cccc(NC(=O)Cc2cccs2)c1

>  <score_type>  (84) 
oracle

>  <origin>  (84) 
adg

>  <m_score__min__energy>  (84) 
-11.619999999999999

>  <m_primary>  (84) 
energy

$$$$
84:0
     RDKit          3D

 42 44  0  0  0  0  0  0  0  0999 V2000
   57.3360   29.9350   43.7060 O   0  0  0  0  0  0  0  0  0  0  0  0
   58.0730   29.3450   44.5420 C   0  0  0  0  0  0  0  0  0  0  0  0
   58.3440   27.8800   44.3780 C   0  0  0  0  0  0  0  0  0  0  0  0
   57.4290   27.0850   45.2570 C   0  0  0  0  0  0  0  0  0  0  0  0
   57.7770   25.5640   45.8940 S   0  0  0  0  0  0  0  0  0  0  0  0
   56.2660   25.4320   46.6190 C   0  0  0  0  0  0  0  0  0  0  0  0
   55.8920   24.4450   47.3020 O   0  0  0  0  0  0  0  0  0  0  0  0
   55.4830   26.5070   46.3900 N   0  0  0  0  0  0  0  0  0  0  0  0
   56.1300   27.4250   45.6240 C   0  0  0  0  0  0  0  0  0  0  0  0
   55.5220   28.6170   45.2450 O   0  0  0  0  0  0  0  0  0  0  0  0
   58.6080   30.0530   45.6700 N   0  0  0  0  0  0  0  0  0  0  0  0
   58.4160   31.4630   45.8670 C   0  0  0  0  0  0  0  0  0  0  0  0
   57.3700   32.1000   45.1840 C   0  0  0  0  0  0  0  0  0  0  0  0
   57.1490   33.4690   45.3430 C   0  0  0  0  0  0  0  0  0  0  0  0
   57.9580   34.2120   46.2040 C   0  0  0  0  0  0  0  0  0  0  0  0
   58.9850   33.5870   46.9130 C   0  0  0  0  0  0  0  0  0  0  0  0
   59.2300   32.2110   46.7530 C   0  0  0  0  0  0  0  0  0  0  0  0
   60.2610   31.5620   47.5950 C   0  0  0  0  0  0  0  0  0  0  0  0
   59.9980   30.4480   48.1250 O   0  0  0  0  0  0  0  0  0  0  0  0
   61.5480   32.1760   47.8250 N   0  0  0  0  0  0  0  0  0  0  0  0
   62.3750   31.7230   48.9530 C   0  0  0  0  0  0  0  0  0  0  0  0
   63.2760   32.8630   49.4400 C   0  0  0  0  0  0  0  0  0  0  0  0
   64.1560   33.4480   48.3160 C   0  0  0  0  0  0  0  0  0  0  0  0
   63.6380   33.1360   46.9030 C   0  0  0  0  0  0  0  0  0  0  0  0
   62.1070   33.1300   46.8490 C   0  0  0  0  0  0  0  0  0  0  0  0
   58.1787   27.5948   43.3285 H   0  0  0  0  0  0  0  0  0  0  0  0
   59.3861   27.6729   44.6629 H   0  0  0  0  0  0  0  0  0  0  0  0
   58.9890   29.4950   46.4670 H   0  0  0  0  0  0  0  0  0  0  0  0
   56.7183   31.5160   44.5175 H   0  0  0  0  0  0  0  0  0  0  0  0
   56.3367   33.9626   44.7893 H   0  0  0  0  0  0  0  0  0  0  0  0
   57.7860   35.2918   46.3240 H   0  0  0  0  0  0  0  0  0  0  0  0
   59.6081   34.1753   47.6027 H   0  0  0  0  0  0  0  0  0  0  0  0
   61.7210   31.3997   49.7763 H   0  0  0  0  0  0  0  0  0  0  0  0
   63.0048   30.8840   48.6222 H   0  0  0  0  0  0  0  0  0  0  0  0
   62.6411   33.6655   49.8436 H   0  0  0  0  0  0  0  0  0  0  0  0
   63.9477   32.4509   50.2074 H   0  0  0  0  0  0  0  0  0  0  0  0
   64.1956   34.5404   48.4384 H   0  0  0  0  0  0  0  0  0  0  0  0
   65.1476   32.9804   48.4064 H   0  0  0  0  0  0  0  0  0  0  0  0
   64.0162   33.9001   46.2079 H   0  0  0  0  0  0  0  0  0  0  0  0
   63.9949   32.1346   46.6204 H   0  0  0  0  0  0  0  0  0  0  0  0
   61.7349   34.1393   47.0787 H   0  0  0  0  0  0  0  0  0  0  0  0
   61.7929   32.8241   45.8402 H   0  0  0  0  0  0  0  0  0  0  0  0
  1  2  2  0
  2  3  1  0
  3  4  1  0
  4  5  1  0
  5  6  1  0
  6  7  2  0
  6  8  1  0
  8  9  1  0
  9 10  1  0
  2 11  1  0
 11 12  1  0
 12 13  2  0
 13 14  1  0
 14 15  2  0
 15 16  1  0
 16 17  2  0
 17 18  1  0
 18 19  2  0
 18 20  1  0
 20 21  1  0
 21 22  1  0
 22 23  1  0
 23 24  1  0
 24 25  1  0
  9  4  2  0
 17 12  1  0
 25 20  1  0
  3 26  1  0
  3 27  1  0
 11 28  1  0
 13 29  1  0
 14 30  1  0
 15 31  1  0
 16 32  1  0
 21 33  1  0
 21 34  1  0
 22 35  1  0
 22 36  1  0
 23 37  1  0
 23 38  1  0
 24 39  1  0
 24 40  1  0
 25 41  1  0
 25 42  1  0
M  CHG  2   8  -1  10  -1
M  END
>  <UniqueID>  (85) 
82

>  <SMILES>  (85) 
O=C(Cc1sc(=O)[n-]c1[O-])Nc1ccccc1C(=O)N1CCCCC1

>  <Energy>  (85) 
82.8819862292696

>  <Genealogy>  (85) 
O=C(Cc1sc(=O)[n-]c1[O-])Nc1ccccc1C(=O)N1CCCCC1 (protonated)
O=C(Cc1sc(=O)[n-]c1[O-])Nc1ccccc1C(=O)N1CCCCC1 (3D coordinates assigned)
O=C(Cc1sc(=O)[n-]c1[O-])Nc1ccccc1C(=O)N1CCCCC1 (nonaromatic ring conformer: 82.8819862292696 kcal/mol)

>  <smiles>  (85) 
O=C(Cc1sc(=O)[nH]c1O)Nc1ccccc1C(=O)N1CCCCC1

>  <score_type>  (85) 
oracle

>  <origin>  (85) 
adg

>  <m_score__min__energy>  (85) 
-14.470000000000001

>  <m_primary>  (85) 
energy

$$$$
85:0
     RDKit          3D

 35 37  0  0  0  0  0  0  0  0999 V2000
   61.8560   31.0960   47.2990 C   0  0  0  0  0  0  0  0  0  0  0  0
   60.6250   30.3430   47.0990 N   0  0  0  0  0  0  0  0  0  0  0  0
   59.8510   29.7990   48.0590 C   0  0  0  0  0  0  0  0  0  0  0  0
   58.8860   29.0240   47.4490 C   0  0  0  0  0  0  0  0  0  0  0  0
   59.0760   29.0850   46.1140 N   0  0  0  0  0  0  0  0  0  0  0  0
   58.3940   28.2880   45.0950 C   0  0  0  0  0  0  0  0  0  0  0  0
   57.7530   29.1860   44.0290 C   0  0  0  0  0  0  0  0  0  0  0  0
   56.4650   29.7740   44.5180 C   0  0  0  0  0  0  0  0  0  0  0  0
   55.5260   29.0150   44.8810 O   0  0  0  0  0  0  0  0  0  0  0  0
   56.3270   31.1980   44.5890 N   0  0  0  0  0  0  0  0  0  0  0  0
   57.3120   32.1300   45.0550 C   0  0  0  0  0  0  0  0  0  0  0  0
   57.9020   33.0110   44.1160 C   0  0  0  0  0  0  0  0  0  0  0  0
   58.9210   33.9010   44.5030 C   0  0  0  0  0  0  0  0  0  0  0  0
   59.3320   33.8700   45.8310 C   0  0  0  0  0  0  0  0  0  0  0  0
   60.2920   34.5930   46.4220 N   0  0  0  0  0  0  0  0  0  0  0  0
   60.2880   34.1370   47.6960 C   0  0  0  0  0  0  0  0  0  0  0  0
   61.0680   34.5760   48.5810 O   0  0  0  0  0  0  0  0  0  0  0  0
   59.3740   33.1630   47.9430 N   0  0  0  0  0  0  0  0  0  0  0  0
   58.7820   33.0180   46.7420 C   0  0  0  0  0  0  0  0  0  0  0  0
   57.7680   32.1280   46.3970 C   0  0  0  0  0  0  0  0  0  0  0  0
   60.1450   29.8840   45.9280 C   0  0  0  0  0  0  0  0  0  0  0  0
   62.0444   31.2112   48.3766 H   0  0  0  0  0  0  0  0  0  0  0  0
   62.6952   30.5565   46.8357 H   0  0  0  0  0  0  0  0  0  0  0  0
   61.7579   32.0888   46.8357 H   0  0  0  0  0  0  0  0  0  0  0  0
   59.9684   29.9474   49.1426 H   0  0  0  0  0  0  0  0  0  0  0  0
   58.0974   28.4544   47.9624 H   0  0  0  0  0  0  0  0  0  0  0  0
   59.1240   27.6218   44.6119 H   0  0  0  0  0  0  0  0  0  0  0  0
   57.6001   27.7031   45.5824 H   0  0  0  0  0  0  0  0  0  0  0  0
   58.4485   30.0015   43.7816 H   0  0  0  0  0  0  0  0  0  0  0  0
   57.5407   28.5737   43.1401 H   0  0  0  0  0  0  0  0  0  0  0  0
   57.5593   32.9994   43.0708 H   0  0  0  0  0  0  0  0  0  0  0  0
   59.3757   34.5957   43.7815 H   0  0  0  0  0  0  0  0  0  0  0  0
   60.9040   35.3240   45.9970 H   0  0  0  0  0  0  0  0  0  0  0  0
   57.3346   31.4450   47.1425 H   0  0  0  0  0  0  0  0  0  0  0  0
   60.5713   30.1300   44.9443 H   0  0  0  0  0  0  0  0  0  0  0  0
  1  2  1  0
  2  3  1  0
  3  4  2  0
  4  5  1  0
  5  6  1  0
  6  7  1  0
  7  8  1  0
  8  9  2  0
  8 10  1  0
 10 11  1  0
 11 12  2  0
 12 13  1  0
 13 14  2  0
 14 15  1  0
 15 16  1  0
 16 17  2  0
 16 18  1  0
 18 19  1  0
 19 20  2  0
  5 21  1  0
 21  2  2  0
 20 11  1  0
 19 14  1  0
  1 22  1  0
  1 23  1  0
  1 24  1  0
  3 25  1  0
  4 26  1  0
  6 27  1  0
  6 28  1  0
  7 29  1  0
  7 30  1  0
 12 31  1  0
 13 32  1  0
 15 33  1  0
 20 34  1  0
 21 35  1  0
M  CHG  3   2   1  10  -1  18  -1
M  END
>  <UniqueID>  (86) 
83

>  <SMILES>  (86) 
C[n+]1ccn(CCC(=O)[N-]c2ccc3[nH]c(=O)[n-]c3c2)c1

>  <Energy>  (86) 
100.68809070902357

>  <Genealogy>  (86) 
C[n+]1ccn(CCC(=O)[N-]c2ccc3[nH]c(=O)[n-]c3c2)c1 (protonated)
C[n+]1ccn(CCC(=O)[N-]c2ccc3[nH]c(=O)[n-]c3c2)c1 (3D coordinates assigned)
C[n+]1ccn(CCC(=O)[N-]c2ccc3[nH]c(=O)[n-]c3c2)c1 (optimized conformer: 100.68809070902357 kcal/mol)

>  <smiles>  (86) 
C[n+]1ccn(CCC(=O)Nc2ccc3[nH]c(=O)[nH]c3c2)c1

>  <score_type>  (86) 
oracle

>  <origin>  (86) 
adg

>  <m_score__min__energy>  (86) 
-8.5899999999999999

>  <m_primary>  (86) 
energy

$$$$
86:0
     RDKit          3D

 65 70  0  0  0  0  0  0  0  0999 V2000
   56.2500   28.4570   45.2680 C   0  0  0  0  0  0  0  0  0  0  0  0
   57.5030   28.2130   45.6830 C   0  0  0  0  0  0  0  0  0  0  0  0
   58.0060   27.0070   46.1980 C   0  0  0  0  0  0  0  0  0  0  0  0
   57.3740   25.8980   46.6270 C   0  0  0  0  0  0  0  0  0  0  0  0
   56.5090   25.0330   45.8040 C   0  0  0  0  0  0  0  0  0  0  0  0
   56.9310   23.9590   45.1120 N   0  0  0  0  0  0  0  0  0  0  0  0
   55.8280   23.5720   44.4340 C   0  0  0  0  0  0  0  0  0  0  0  0
   55.8150   22.5660   43.6790 O   0  0  0  0  0  0  0  0  0  0  0  0
   54.7430   24.3510   44.6270 N   0  0  0  0  0  0  0  0  0  0  0  0
   55.1960   25.2780   45.4850 C   0  0  0  0  0  0  0  0  0  0  0  0
   54.4240   26.3260   45.9700 O   0  0  0  0  0  0  0  0  0  0  0  0
   59.3860   27.1440   46.2230 C   0  0  0  0  0  0  0  0  0  0  0  0
   59.6680   28.4290   45.8120 C   0  0  0  0  0  0  0  0  0  0  0  0
   61.0440   29.0140   45.7260 C   0  0  0  0  0  0  0  0  0  0  0  0
   58.5290   29.0800   45.4870 N   0  0  0  0  0  0  0  0  0  0  0  0
   58.4410   30.4250   44.9860 C   0  0  0  0  0  0  0  0  0  0  0  0
   57.8550   30.6810   43.7390 C   0  0  0  0  0  0  0  0  0  0  0  0
   57.7310   31.9950   43.2760 C   0  0  0  0  0  0  0  0  0  0  0  0
   58.1930   33.0580   44.0550 C   0  0  0  0  0  0  0  0  0  0  0  0
   58.7890   32.8130   45.3010 C   0  0  0  0  0  0  0  0  0  0  0  0
   59.3100   33.9260   46.1130 C   0  0  0  0  0  0  0  0  0  0  0  0
   58.6600   35.0060   46.1530 O   0  0  0  0  0  0  0  0  0  0  0  0
   60.5500   33.8110   46.8350 N   0  0  0  0  0  0  0  0  0  0  0  0
   61.8300   34.1990   46.2620 C   0  0  0  0  0  0  0  0  0  0  0  0
   62.8860   33.4730   47.0870 C   0  0  0  0  0  0  0  0  0  0  0  0
   62.1930   33.1220   48.4220 C   0  0  2  0  0  0  0  0  0  0  0  0
   62.5020   34.1940   49.4870 C   0  0  0  0  0  0  0  0  0  0  0  0
   63.7380   33.6820   50.2170 C   0  0  0  0  0  0  0  0  0  0  0  0
   63.7590   32.2430   49.9920 N   0  0  0  0  0  0  0  0  0  0  0  0
   64.6540   31.3310   50.6700 C   0  0  0  0  0  0  0  0  0  0  0  0
   64.1600   30.2030   51.3520 C   0  0  0  0  0  0  0  0  0  0  0  0
   65.0380   29.3310   51.9990 C   0  0  0  0  0  0  0  0  0  0  0  0
   66.4070   29.5900   51.9670 C   0  0  0  0  0  0  0  0  0  0  0  0
   66.8770   30.6790   51.3080 N   0  0  0  0  0  0  0  0  0  0  0  0
   66.0470   31.5430   50.6640 C   0  0  0  0  0  0  0  0  0  0  0  0
   62.7370   31.8230   49.0410 C   0  0  0  0  0  0  0  0  0  0  0  0
   60.6960   33.0480   48.0660 C   0  0  0  0  0  0  0  0  0  0  0  0
   58.9180   31.4930   45.7590 C   0  0  0  0  0  0  0  0  0  0  0  0
   55.9821   29.4519   44.8828 H   0  0  0  0  0  0  0  0  0  0  0  0
   55.4911   27.6620   45.3131 H   0  0  0  0  0  0  0  0  0  0  0  0
   57.5150   25.6135   47.6802 H   0  0  0  0  0  0  0  0  0  0  0  0
   60.1157   26.3744   46.5150 H   0  0  0  0  0  0  0  0  0  0  0  0
   61.4357   29.1805   46.7403 H   0  0  0  0  0  0  0  0  0  0  0  0
   61.7049   28.3190   45.1873 H   0  0  0  0  0  0  0  0  0  0  0  0
   61.0021   29.9721   45.1873 H   0  0  0  0  0  0  0  0  0  0  0  0
   57.4914   29.8458   43.1223 H   0  0  0  0  0  0  0  0  0  0  0  0
   57.2691   32.1913   42.2972 H   0  0  0  0  0  0  0  0  0  0  0  0
   58.0892   34.0906   43.6904 H   0  0  0  0  0  0  0  0  0  0  0  0
   61.8878   33.8908   45.2076 H   0  0  0  0  0  0  0  0  0  0  0  0
   61.9731   35.2894   46.2869 H   0  0  0  0  0  0  0  0  0  0  0  0
   63.2151   32.5584   46.5720 H   0  0  0  0  0  0  0  0  0  0  0  0
   63.7819   34.0923   47.2414 H   0  0  0  0  0  0  0  0  0  0  0  0
   62.7087   35.1637   49.0106 H   0  0  0  0  0  0  0  0  0  0  0  0
   61.6550   34.3525   50.1708 H   0  0  0  0  0  0  0  0  0  0  0  0
   64.6463   34.1478   49.8071 H   0  0  0  0  0  0  0  0  0  0  0  0
   63.7069   33.9255   51.2893 H   0  0  0  0  0  0  0  0  0  0  0  0
   63.0777   30.0076   51.3754 H   0  0  0  0  0  0  0  0  0  0  0  0
   64.6526   28.4476   52.5292 H   0  0  0  0  0  0  0  0  0  0  0  0
   67.1069   28.9112   52.4763 H   0  0  0  0  0  0  0  0  0  0  0  0
   66.4656   32.4122   50.1355 H   0  0  0  0  0  0  0  0  0  0  0  0
   63.1762   31.1810   48.2632 H   0  0  0  0  0  0  0  0  0  0  0  0
   61.9421   31.2387   49.5276 H   0  0  0  0  0  0  0  0  0  0  0  0
   60.3895   32.0033   47.9092 H   0  0  0  0  0  0  0  0  0  0  0  0
   60.0648   33.4500   48.8722 H   0  0  0  0  0  0  0  0  0  0  0  0
   59.3959   31.2950   46.7298 H   0  0  0  0  0  0  0  0  0  0  0  0
  1  2  2  0
  2  3  1  0
  3  4  2  3
  4  5  1  0
  5  6  1  0
  6  7  1  0
  7  8  2  0
  7  9  1  0
  9 10  1  0
 10 11  1  0
  3 12  1  0
 12 13  2  0
 13 14  1  0
 13 15  1  0
 15 16  1  0
 16 17  2  0
 17 18  1  0
 18 19  2  0
 19 20  1  0
 20 21  1  0
 21 22  2  0
 21 23  1  0
 23 24  1  0
 24 25  1  0
 26 25  1  6
 26 27  1  0
 27 28  1  0
 28 29  1  0
 29 30  1  0
 30 31  2  0
 31 32  1  0
 32 33  2  0
 33 34  1  0
 34 35  2  0
 29 36  1  0
 26 37  1  0
 20 38  2  0
 15  2  1  0
 38 16  1  0
 10  5  2  0
 37 23  1  0
 36 26  1  0
 35 30  1  0
  1 39  1  0
  1 40  1  0
  4 41  1  0
 12 42  1  0
 14 43  1  0
 14 44  1  0
 14 45  1  0
 17 46  1  0
 18 47  1  0
 19 48  1  0
 24 49  1  0
 24 50  1  0
 25 51  1  0
 25 52  1  0
 27 53  1  0
 27 54  1  0
 28 55  1  0
 28 56  1  0
 31 57  1  0
 32 58  1  0
 33 59  1  0
 35 60  1  0
 36 61  1  0
 36 62  1  0
 37 63  1  0
 37 64  1  0
 38 65  1  0
M  CHG  3   6  -1   9  -1  11  -1
M  END
>  <UniqueID>  (87) 
84

>  <SMILES>  (87) 
C=c1c(=Cc2[n-]c(=O)[n-]c2[O-])cc(C)n1-c1cccc(C(=O)N2CC[C@@]3(CCN(c4cccnc4)C3)C2)c1

>  <Energy>  (87) 
158.81509586302673

>  <Genealogy>  (87) 
C=c1c(=Cc2[n-]c(=O)[n-]c2[O-])cc(C)n1-c1cccc(C(=O)N2CCC3(CCN(c4cccnc4)C3)C2)c1 (protonated)
C=c1c(=Cc2[n-]c(=O)[n-]c2[O-])cc(C)n1-c1cccc(C(=O)N2CC[C@@]3(CCN(c4cccnc4)C3)C2)c1 (chirality)
C=c1c(=Cc2[n-]c(=O)[n-]c2[O-])cc(C)n1-c1cccc(C(=O)N2CC[C@@]3(CCN(c4cccnc4)C3)C2)c1 (3D coordinates assigned)
C=c1c(=Cc2[n-]c(=O)[n-]c2[O-])cc(C)n1-c1cccc(C(=O)N2CC[C@@]3(CCN(c4cccnc4)C3)C2)c1 (nonaromatic ring conformer: 158.81509586302673 kcal/mol)

>  <smiles>  (87) 
C=c1c(=Cc2[nH]c(=O)[nH]c2O)cc(C)n1-c1cccc(C(=O)N2CCC3(CCN(c4cccnc4)C3)C2)c1

>  <score_type>  (87) 
oracle

>  <origin>  (87) 
adg

>  <m_score__min__energy>  (87) 
-18.73

>  <m_primary>  (87) 
energy

$$$$
87:0
     RDKit          3D

 40 42  0  0  0  0  0  0  0  0999 V2000
   59.3589   24.3528   46.0817 H   0  0  0  0  0  0  0  0  0  0  0  0
   59.2600   23.3820   45.5740 C   0  0  0  0  0  0  0  0  0  0  0  0
   60.1353   22.9213   45.0927 H   0  0  0  0  0  0  0  0  0  0  0  0
   58.0760   22.7620   45.5420 C   0  0  0  0  0  0  0  0  0  0  0  0
   56.8690   23.2100   46.0870 C   0  0  0  0  0  0  0  0  0  0  0  0
   56.6640   24.3360   46.7960 C   0  0  0  0  0  0  0  0  0  0  0  0
   56.1626   24.2489   47.7712 H   0  0  0  0  0  0  0  0  0  0  0  0
   57.0710   25.6780   46.3440 C   0  0  0  0  0  0  0  0  0  0  0  0
   58.3570   26.0100   46.1170 N   0  0  0  0  0  0  0  0  0  0  0  0
   58.3400   27.2780   45.6500 C   0  0  0  0  0  0  0  0  0  0  0  0
   59.5890   28.0130   45.2820 C   0  0  0  0  0  0  0  0  0  0  0  0
   60.1153   28.3227   46.1969 H   0  0  0  0  0  0  0  0  0  0  0  0
   60.2408   27.3545   44.6892 H   0  0  0  0  0  0  0  0  0  0  0  0
   59.3298   28.9026   44.6892 H   0  0  0  0  0  0  0  0  0  0  0  0
   57.0370   27.7580   45.5540 C   0  0  0  0  0  0  0  0  0  0  0  0
   56.5730   29.0750   45.0690 C   0  0  0  0  0  0  0  0  0  0  0  0
   55.3440   29.3500   45.1020 O   0  0  0  0  0  0  0  0  0  0  0  0
   57.5190   30.0510   44.6170 N   0  0  0  0  0  0  0  0  0  0  0  0
   57.6860   31.3830   45.1260 C   0  0  0  0  0  0  0  0  0  0  0  0
   57.4420   32.5210   44.3360 C   0  0  0  0  0  0  0  0  0  0  0  0
   57.0927   32.4042   43.2995 H   0  0  0  0  0  0  0  0  0  0  0  0
   57.6420   33.8000   44.8640 C   0  0  0  0  0  0  0  0  0  0  0  0
   57.4408   34.6871   44.2455 H   0  0  0  0  0  0  0  0  0  0  0  0
   58.0970   33.9530   46.1760 C   0  0  0  0  0  0  0  0  0  0  0  0
   58.2467   34.9602   46.5920 H   0  0  0  0  0  0  0  0  0  0  0  0
   58.3620   32.8270   46.9600 C   0  0  0  0  0  0  0  0  0  0  0  0
   58.8170   32.9750   48.2280 F   0  0  0  0  0  0  0  0  0  0  0  0
   58.1640   31.5470   46.4330 C   0  0  0  0  0  0  0  0  0  0  0  0
   58.3850   30.6627   47.0487 H   0  0  0  0  0  0  0  0  0  0  0  0
   56.2390   26.7200   45.9840 C   0  0  0  0  0  0  0  0  0  0  0  0
   54.8490   26.7040   45.9990 O   0  0  0  0  0  0  0  0  0  0  0  0
   55.9290   22.2290   45.7960 C   0  0  0  0  0  0  0  0  0  0  0  0
   54.8636   22.2348   46.0697 H   0  0  0  0  0  0  0  0  0  0  0  0
   56.5990   21.2440   45.0940 C   0  0  0  0  0  0  0  0  0  0  0  0
   55.9830   19.9990   44.5430 C   0  0  0  0  0  0  0  0  0  0  0  0
   55.6623   19.3508   45.3718 H   0  0  0  0  0  0  0  0  0  0  0  0
   55.1116   20.2632   43.9258 H   0  0  0  0  0  0  0  0  0  0  0  0
   56.7216   19.4666   43.9258 H   0  0  0  0  0  0  0  0  0  0  0  0
   57.8940   21.5710   44.9350 N   0  0  0  0  0  0  0  0  0  0  0  0
   58.6160   21.0060   44.4340 H   0  0  0  0  0  0  0  0  0  0  0  0
  1  2  1  0
  2  3  1  0
  2  4  2  0
  4  5  1  0
  5  6  2  0
  6  7  1  0
  6  8  1  0
  8  9  1  0
  9 10  1  0
 10 11  1  0
 11 12  1  0
 11 13  1  0
 11 14  1  0
 10 15  2  0
 15 16  1  0
 16 17  2  0
 16 18  1  0
 18 19  1  0
 19 20  2  0
 20 21  1  0
 20 22  1  0
 22 23  1  0
 22 24  2  0
 24 25  1  0
 24 26  1  0
 26 27  1  0
 26 28  2  0
 28 29  1  0
 15 30  1  0
 30 31  1  0
  5 32  1  0
 32 33  1  0
 32 34  2  0
 34 35  1  0
 35 36  1  0
 35 37  1  0
 35 38  1  0
 34 39  1  0
 39 40  1  0
 39  4  1  0
 30  8  2  0
 28 19  1  0
M  CHG  3   9  -1  18  -1  31  -1
M  END
>  <UniqueID>  (88) 
85

>  <SMILES>  (88) 
C=c1[nH]c(C)c/c1=C\c1[n-]c(C)c(C(=O)[N-]c2cccc(F)c2)c1[O-]

>  <Energy>  (88) 
104.34165155248773

>  <Genealogy>  (88) 
C=c1[nH]c(C)cc1=Cc1[n-]c(C)c(C(=O)[N-]c2cccc(F)c2)c1[O-] (protonated)
C=c1[nH]c(C)c/c1=C\c1[n-]c(C)c(C(=O)[N-]c2cccc(F)c2)c1[O-] (cis-trans isomerization)
C=c1[nH]c(C)c/c1=C\c1[n-]c(C)c(C(=O)[N-]c2cccc(F)c2)c1[O-] (3D coordinates assigned)
C=c1[nH]c(C)c/c1=C\c1[n-]c(C)c(C(=O)[N-]c2cccc(F)c2)c1[O-] (optimized conformer: 104.34165155248773 kcal/mol)

>  <smiles>  (88) 
C=c1[nH]c(C)cc1=Cc1[nH]c(C)c(C(=O)Nc2cccc(F)c2)c1O

>  <score_type>  (88) 
oracle

>  <origin>  (88) 
adg

>  <m_score__min__energy>  (88) 
-14.609999999999999

>  <m_primary>  (88) 
energy

$$$$
88:0
     RDKit          3D

 37 39  0  0  0  0  0  0  0  0999 V2000
   57.4147   26.6118   47.2181 H   0  0  0  0  0  0  0  0  0  0  0  0
   57.2350   26.5960   46.1330 C   0  0  0  0  0  0  0  0  0  0  0  0
   56.3720   27.4160   45.6120 N   0  0  0  0  0  0  0  0  0  0  0  0
   56.6870   28.7550   45.2200 C   0  0  0  0  0  0  0  0  0  0  0  0
   55.7680   29.6780   44.8540 N   0  0  0  0  0  0  0  0  0  0  0  0
   56.3110   30.8490   44.5260 N   0  0  0  0  0  0  0  0  0  0  0  0
   57.6580   30.8650   44.6410 C   0  0  0  0  0  0  0  0  0  0  0  0
   58.5050   32.0380   44.2700 C   0  0  0  0  0  0  0  0  0  0  0  0
   58.0233   32.5900   43.4495 H   0  0  0  0  0  0  0  0  0  0  0  0
   59.4949   31.6813   43.9493 H   0  0  0  0  0  0  0  0  0  0  0  0
   58.6650   32.9270   45.4250 N   0  0  0  0  0  0  0  0  0  0  0  0
   57.9330   34.0290   45.7470 C   0  0  0  0  0  0  0  0  0  0  0  0
   56.8370   34.5890   44.8970 C   0  0  0  0  0  0  0  0  0  0  0  0
   56.0435   34.9944   45.5420 H   0  0  0  0  0  0  0  0  0  0  0  0
   57.2394   35.3920   44.2620 H   0  0  0  0  0  0  0  0  0  0  0  0
   56.4221   33.7924   44.2620 H   0  0  0  0  0  0  0  0  0  0  0  0
   58.3010   34.5950   46.9270 N   0  0  0  0  0  0  0  0  0  0  0  0
   59.2980   33.7950   47.3490 C   0  0  0  0  0  0  0  0  0  0  0  0
   60.0350   33.9090   48.5250 C   0  0  0  0  0  0  0  0  0  0  0  0
   59.8465   34.7257   49.2374 H   0  0  0  0  0  0  0  0  0  0  0  0
   61.0290   32.9440   48.7710 C   0  0  0  0  0  0  0  0  0  0  0  0
   61.6319   33.0024   49.6892 H   0  0  0  0  0  0  0  0  0  0  0  0
   61.2580   31.9000   47.8460 C   0  0  0  0  0  0  0  0  0  0  0  0
   62.0369   31.1504   48.0493 H   0  0  0  0  0  0  0  0  0  0  0  0
   60.4950   31.8140   46.6660 C   0  0  0  0  0  0  0  0  0  0  0  0
   60.6625   31.0075   45.9370 H   0  0  0  0  0  0  0  0  0  0  0  0
   59.5180   32.7890   46.4540 C   0  0  0  0  0  0  0  0  0  0  0  0
   58.2490   29.3690   45.1470 S   0  0  0  0  0  0  0  0  0  0  0  0
   57.9560   25.6700   45.3070 N   0  0  0  0  0  0  0  0  0  0  0  0
   58.9170   24.7680   45.9430 C   0  0  0  0  0  0  0  0  0  0  0  0
   58.8291   24.8505   47.0364 H   0  0  0  0  0  0  0  0  0  0  0  0
   58.7074   23.7329   45.6353 H   0  0  0  0  0  0  0  0  0  0  0  0
   59.9368   25.0426   45.6353 H   0  0  0  0  0  0  0  0  0  0  0  0
   57.7330   25.6340   43.8580 C   0  0  0  0  0  0  0  0  0  0  0  0
   56.6656   25.4617   43.6555 H   0  0  0  0  0  0  0  0  0  0  0  0
   58.0399   26.5933   43.4158 H   0  0  0  0  0  0  0  0  0  0  0  0
   58.3262   24.8200   43.4158 H   0  0  0  0  0  0  0  0  0  0  0  0
  1  2  1  0
  2  3  2  0
  3  4  1  0
  4  5  2  0
  5  6  1  0
  6  7  2  0
  7  8  1  0
  8  9  1  0
  8 10  1  0
  8 11  1  0
 11 12  1  0
 12 13  1  0
 13 14  1  0
 13 15  1  0
 13 16  1  0
 12 17  2  0
 17 18  1  0
 18 19  2  0
 19 20  1  0
 19 21  1  0
 21 22  1  0
 21 23  2  0
 23 24  1  0
 23 25  1  0
 25 26  1  0
 25 27  2  0
  7 28  1  0
  2 29  1  0
 29 30  1  0
 30 31  1  0
 30 32  1  0
 30 33  1  0
 29 34  1  0
 34 35  1  0
 34 36  1  0
 34 37  1  0
 28  4  1  0
 27 11  1  0
 27 18  1  0
M  END
>  <UniqueID>  (89) 
86

>  <SMILES>  (89) 
Cc1nc2ccccc2n1Cc1nnc(/N=C/N(C)C)s1

>  <Energy>  (89) 
102.61323685325152

>  <Genealogy>  (89) 
Cc1nc2ccccc2n1Cc1nnc(/N=C/N(C)C)s1 (cis-trans isomerization)
Cc1nc2ccccc2n1Cc1nnc(/N=C/N(C)C)s1 (3D coordinates assigned)
Cc1nc2ccccc2n1Cc1nnc(/N=C/N(C)C)s1 (optimized conformer: 102.61323685325152 kcal/mol)

>  <smiles>  (89) 
Cc1nc2ccccc2n1Cc1nnc(N=CN(C)C)s1

>  <score_type>  (89) 
oracle

>  <origin>  (89) 
adg

>  <m_score__min__energy>  (89) 
-6.8399999999999999

>  <m_primary>  (89) 
energy

$$$$
89:0
     RDKit          3D

 40 42  0  0  0  0  0  0  0  0999 V2000
   61.7203   30.2085   48.0926 H   0  0  0  0  0  0  0  0  0  0  0  0
   62.0740   31.2190   47.8400 C   0  0  0  0  0  0  0  0  0  0  0  0
   63.0606   31.5593   48.1877 H   0  0  0  0  0  0  0  0  0  0  0  0
   61.2950   32.0440   47.1010 C   0  0  0  0  0  0  0  0  0  0  0  0
   61.7680   33.3510   46.7820 C   0  0  0  0  0  0  0  0  0  0  0  0
   63.1440   33.8390   47.1530 C   0  0  0  0  0  0  0  0  0  0  0  0
   63.2382   33.8724   48.2484 H   0  0  0  0  0  0  0  0  0  0  0  0
   63.8995   33.1540   46.7407 H   0  0  0  0  0  0  0  0  0  0  0  0
   63.2991   34.8470   46.7407 H   0  0  0  0  0  0  0  0  0  0  0  0
   60.9600   34.2270   46.1350 N   0  0  0  0  0  0  0  0  0  0  0  0
   59.7000   33.9200   45.7560 C   0  0  0  0  0  0  0  0  0  0  0  0
   58.8850   34.9290   45.0100 C   0  0  0  0  0  0  0  0  0  0  0  0
   58.3604   35.5785   45.7262 H   0  0  0  0  0  0  0  0  0  0  0  0
   59.5464   35.5395   44.3777 H   0  0  0  0  0  0  0  0  0  0  0  0
   58.1490   34.4108   44.3777 H   0  0  0  0  0  0  0  0  0  0  0  0
   59.1960   32.6430   45.9960 C   0  0  0  0  0  0  0  0  0  0  0  0
   58.1804   32.3880   45.6590 H   0  0  0  0  0  0  0  0  0  0  0  0
   59.9730   31.6710   46.6670 C   0  0  0  0  0  0  0  0  0  0  0  0
   59.4850   30.4080   46.8200 C   0  0  0  0  0  0  0  0  0  0  0  0
   59.8741   29.8225   47.6660 H   0  0  0  0  0  0  0  0  0  0  0  0
   58.4820   29.7510   45.9560 C   0  0  0  0  0  0  0  0  0  0  0  0
   57.1440   29.9570   46.0380 N   0  0  0  0  0  0  0  0  0  0  0  0
   56.6550   29.1150   45.1120 C   0  0  0  0  0  0  0  0  0  0  0  0
   55.3030   28.9680   44.8280 O   0  0  0  0  0  0  0  0  0  0  0  0
   57.6870   28.4350   44.5180 C   0  0  0  0  0  0  0  0  0  0  0  0
   57.5880   27.4190   43.5110 N   0  0  0  0  0  0  0  0  0  0  0  0
   58.3200   27.5890   42.7820 H   0  0  0  0  0  0  0  0  0  0  0  0
   56.6530   27.4700   43.0430 H   0  0  0  0  0  0  0  0  0  0  0  0
   57.7810   26.1290   44.1190 C   0  0  0  0  0  0  0  0  0  0  0  0
   58.3420   26.0260   45.4050 C   0  0  0  0  0  0  0  0  0  0  0  0
   58.6581   26.9346   45.9384 H   0  0  0  0  0  0  0  0  0  0  0  0
   58.5000   24.7740   46.0090 C   0  0  0  0  0  0  0  0  0  0  0  0
   58.9447   24.6999   47.0124 H   0  0  0  0  0  0  0  0  0  0  0  0
   58.0930   23.6170   45.3380 C   0  0  0  0  0  0  0  0  0  0  0  0
   58.2460   22.4040   45.9260 F   0  0  0  0  0  0  0  0  0  0  0  0
   57.5250   23.7100   44.0650 C   0  0  0  0  0  0  0  0  0  0  0  0
   57.2031   22.7988   43.5395 H   0  0  0  0  0  0  0  0  0  0  0  0
   57.3650   24.9590   43.4580 C   0  0  0  0  0  0  0  0  0  0  0  0
   56.9114   25.0273   42.4582 H   0  0  0  0  0  0  0  0  0  0  0  0
   58.8060   28.8370   45.0630 O   0  0  0  0  0  0  0  0  0  0  0  0
  1  2  1  0
  2  3  1  0
  2  4  2  0
  4  5  1  0
  5  6  1  0
  6  7  1  0
  6  8  1  0
  6  9  1  0
  5 10  2  0
 10 11  1  0
 11 12  1  0
 12 13  1  0
 12 14  1  0
 12 15  1  0
 11 16  2  0
 16 17  1  0
 16 18  1  0
 18 19  2  0
 19 20  1  0
 19 21  1  0
 21 22  2  0
 22 23  1  0
 23 24  1  0
 23 25  2  0
 25 26  1  0
 26 27  1  0
 26 28  1  0
 26 29  1  0
 29 30  2  0
 30 31  1  0
 30 32  1  0
 32 33  1  0
 32 34  2  0
 34 35  1  0
 34 36  1  0
 36 37  1  0
 36 38  2  0
 38 39  1  0
 25 40  1  0
 18  4  1  0
 40 21  1  0
 38 29  1  0
M  CHG  2  24  -1  26   1
M  END
>  <UniqueID>  (90) 
87

>  <SMILES>  (90) 
C=c1c(C)nc(C)c/c1=C\c1nc([O-])c([NH2+]c2ccc(F)cc2)o1

>  <Energy>  (90) 
92.4744156373772

>  <Genealogy>  (90) 
C=c1c(C)nc(C)cc1=Cc1nc([O-])c([NH2+]c2ccc(F)cc2)o1 (protonated)
C=c1c(C)nc(C)c/c1=C\c1nc([O-])c([NH2+]c2ccc(F)cc2)o1 (cis-trans isomerization)
C=c1c(C)nc(C)c/c1=C\c1nc([O-])c([NH2+]c2ccc(F)cc2)o1 (3D coordinates assigned)
C=c1c(C)nc(C)c/c1=C\c1nc([O-])c([NH2+]c2ccc(F)cc2)o1 (optimized conformer: 92.4744156373772 kcal/mol)

>  <smiles>  (90) 
C=c1c(C)nc(C)cc1=Cc1nc(O)c(Nc2ccc(F)cc2)o1

>  <score_type>  (90) 
oracle

>  <origin>  (90) 
adg

>  <m_score__min__energy>  (90) 
-9.7400000000000002

>  <m_primary>  (90) 
energy

$$$$
90:0
     RDKit          3D

 45 48  0  0  0  0  0  0  0  0999 V2000
   59.6477   33.8757   45.2802 H   0  0  0  0  0  0  0  0  0  0  0  0
   58.9530   33.0720   44.9950 C   0  0  0  0  0  0  0  0  0  0  0  0
   58.3220   33.1050   43.7530 C   0  0  0  0  0  0  0  0  0  0  0  0
   58.5270   33.9303   43.0552 H   0  0  0  0  0  0  0  0  0  0  0  0
   57.4300   32.0930   43.3920 C   0  0  0  0  0  0  0  0  0  0  0  0
   56.9305   32.1310   42.4127 H   0  0  0  0  0  0  0  0  0  0  0  0
   57.1640   31.0250   44.2690 C   0  0  0  0  0  0  0  0  0  0  0  0
   56.2180   29.9580   43.8550 C   0  0  0  0  0  0  0  0  0  0  0  0
   56.1410   29.6170   42.6440 O   0  0  0  0  0  0  0  0  0  0  0  0
   55.3800   29.3050   44.8120 N   0  0  0  0  0  0  0  0  0  0  0  0
   54.6850   28.5920   44.4980 H   0  0  0  0  0  0  0  0  0  0  0  0
   55.4900   29.4730   45.8370 H   0  0  0  0  0  0  0  0  0  0  0  0
   57.8320   30.9730   45.5180 C   0  0  0  0  0  0  0  0  0  0  0  0
   57.5240   29.9200   46.4500 N   0  0  0  0  0  0  0  0  0  0  0  0
   57.8280   28.6580   46.3300 C   0  0  0  0  0  0  0  0  0  0  0  0
   56.9100   27.7560   45.8840 N   0  0  0  0  0  0  0  0  0  0  0  0
   57.2040   26.4350   45.7720 C   0  0  0  0  0  0  0  0  0  0  0  0
   56.2470   25.5280   45.3050 C   0  0  0  0  0  0  0  0  0  0  0  0
   55.2438   25.8837   45.0275 H   0  0  0  0  0  0  0  0  0  0  0  0
   56.5640   24.1610   45.1890 C   0  0  0  0  0  0  0  0  0  0  0  0
   55.5580   23.1950   44.6950 C   0  0  0  0  0  0  0  0  0  0  0  0
   54.3740   23.2260   45.1250 O   0  0  0  0  0  0  0  0  0  0  0  0
   55.9050   22.2380   43.7480 O   0  0  0  0  0  0  0  0  0  0  0  0
   57.8510   23.7230   45.5510 C   0  0  0  0  0  0  0  0  0  0  0  0
   58.1078   22.6568   45.4651 H   0  0  0  0  0  0  0  0  0  0  0  0
   58.8070   24.6300   46.0190 C   0  0  0  0  0  0  0  0  0  0  0  0
   59.8106   24.2769   46.2986 H   0  0  0  0  0  0  0  0  0  0  0  0
   58.4860   25.9850   46.1310 C   0  0  0  0  0  0  0  0  0  0  0  0
   59.4010   26.8790   46.5870 N   0  0  0  0  0  0  0  0  0  0  0  0
   59.1060   28.2030   46.7110 C   0  0  0  0  0  0  0  0  0  0  0  0
   60.0010   29.0530   47.1350 N   0  0  0  0  0  0  0  0  0  0  0  0
   59.8500   30.0110   48.1950 C   0  0  0  0  0  0  0  0  0  0  0  0
   60.6190   31.1810   48.1580 C   0  0  0  0  0  0  0  0  0  0  0  0
   61.3386   31.3355   47.3405 H   0  0  0  0  0  0  0  0  0  0  0  0
   60.4790   32.1540   49.1520 C   0  0  0  0  0  0  0  0  0  0  0  0
   61.0984   33.0625   49.1222 H   0  0  0  0  0  0  0  0  0  0  0  0
   59.5520   31.9740   50.1850 C   0  0  0  0  0  0  0  0  0  0  0  0
   59.4060   32.9760   51.2070 C   0  0  0  0  0  0  0  0  0  0  0  0
   59.2890   33.7830   52.0300 N   0  0  0  0  0  0  0  0  0  0  0  0
   58.7560   30.8220   50.2120 C   0  0  0  0  0  0  0  0  0  0  0  0
   58.0193   30.6825   51.0168 H   0  0  0  0  0  0  0  0  0  0  0  0
   58.8960   29.8490   49.2180 C   0  0  0  0  0  0  0  0  0  0  0  0
   58.2582   28.9530   49.2351 H   0  0  0  0  0  0  0  0  0  0  0  0
   58.7040   32.0200   45.8770 C   0  0  0  0  0  0  0  0  0  0  0  0
   59.1932   32.0078   46.8622 H   0  0  0  0  0  0  0  0  0  0  0  0
  1  2  1  0
  2  3  2  0
  3  4  1  0
  3  5  1  0
  5  6  1  0
  5  7  2  0
  7  8  1  0
  8  9  2  0
  8 10  1  0
 10 11  1  0
 10 12  1  0
  7 13  1  0
 13 14  1  0
 14 15  2  0
 15 16  1  0
 16 17  1  0
 17 18  2  0
 18 19  1  0
 18 20  1  0
 20 21  1  0
 21 22  2  0
 21 23  1  0
 20 24  2  0
 24 25  1  0
 24 26  1  0
 26 27  1  0
 26 28  2  0
 28 29  1  0
 29 30  1  0
 30 31  2  3
 31 32  1  0
 32 33  2  0
 33 34  1  0
 33 35  1  0
 35 36  1  0
 35 37  2  0
 37 38  1  0
 38 39  3  0
 37 40  1  0
 40 41  1  0
 40 42  2  0
 42 43  1  0
 13 44  2  0
 44 45  1  0
 44  2  1  0
 30 15  1  0
 42 32  1  0
 28 17  1  0
M  CHG  3  16  -1  23  -1  29  -1
M  END
>  <UniqueID>  (91) 
88

>  <SMILES>  (91) 
N#Cc1ccc(N=c2[n-]c3ccc(C(=O)[O-])cc3[n-]/c2=N\c2ccccc2C(N)=O)cc1

>  <Energy>  (91) 
69.95682916480534

>  <Genealogy>  (91) 
N#Cc1ccc(N=c2[n-]c3ccc(C(=O)[O-])cc3[n-]c2=Nc2ccccc2C(N)=O)cc1 (protonated)
N#Cc1ccc(N=c2[n-]c3ccc(C(=O)[O-])cc3[n-]/c2=N\c2ccccc2C(N)=O)cc1 (cis-trans isomerization)
N#Cc1ccc(N=c2[n-]c3ccc(C(=O)[O-])cc3[n-]/c2=N\c2ccccc2C(N)=O)cc1 (3D coordinates assigned)
N#Cc1ccc(N=c2[n-]c3ccc(C(=O)[O-])cc3[n-]/c2=N\c2ccccc2C(N)=O)cc1 (optimized conformer: 69.95682916480534 kcal/mol)

>  <smiles>  (91) 
N#Cc1ccc(N=c2[nH]c3ccc(C(=O)O)cc3[nH]c2=Nc2ccccc2C(N)=O)cc1

>  <score_type>  (91) 
oracle

>  <origin>  (91) 
adg

>  <m_score__min__energy>  (91) 
-12.49

>  <m_primary>  (91) 
energy

$$$$
91:0
     RDKit          3D

 42 43  0  0  1  0  0  0  0  0999 V2000
   58.7650   32.2300   47.6180 N   0  0  0  0  0  0  0  0  0  0  0  0
   59.2460   31.4010   48.6700 C   0  0  0  0  0  0  0  0  0  0  0  0
   59.3550   31.8500   49.8500 O   0  0  0  0  0  0  0  0  0  0  0  0
   59.6170   29.9900   48.3340 C   0  0  0  0  0  0  0  0  0  0  0  0
   60.3080   29.9920   47.0290 C   0  0  0  0  0  0  0  0  0  0  0  0
   59.5130   30.2340   45.8800 N   0  0  0  0  0  0  0  0  0  0  0  0
   58.4100   29.6760   45.6250 C   0  0  0  0  0  0  0  0  0  0  0  0
   58.3050   28.2860   45.7220 C   0  0  0  0  0  0  0  0  0  0  0  0
   57.1420   27.6080   45.4630 C   0  0  0  0  0  0  0  0  0  0  0  0
   56.9690   26.1680   45.5460 C   0  0  0  0  0  0  0  0  0  0  0  0
   58.0730   25.3370   45.4030 C   0  0  0  0  0  0  0  0  0  0  0  0
   57.9480   23.9420   45.4770 C   0  0  0  0  0  0  0  0  0  0  0  0
   59.3510   22.9130   45.2920 Cl  0  0  0  0  0  0  0  0  0  0  0  0
   56.7380   23.3290   45.6950 C   0  0  0  0  0  0  0  0  0  0  0  0
   55.6430   24.1470   45.8390 C   0  0  0  0  0  0  0  0  0  0  0  0
   55.7640   25.5410   45.7640 C   0  0  0  0  0  0  0  0  0  0  0  0
   54.5760   26.2310   45.9280 O   0  0  0  0  0  0  0  0  0  0  0  0
   56.0890   28.3860   45.1000 N   0  0  0  0  0  0  0  0  0  0  0  0
   56.2080   29.7440   45.0090 C   0  0  0  0  0  0  0  0  0  0  0  0
   55.2070   30.4240   44.6700 O   0  0  0  0  0  0  0  0  0  0  0  0
   57.3500   30.3910   45.2660 N   0  0  0  0  0  0  0  0  0  0  0  0
   57.4530   31.7320   45.1730 O   0  0  0  0  0  0  0  0  0  0  0  0
   57.8270   32.4270   44.0290 C   0  0  0  0  0  0  0  0  0  0  0  0
   58.7650   33.5830   44.3060 C   0  0  0  0  0  0  0  0  0  0  0  0
   59.3680   33.3590   45.5480 O   0  0  0  0  0  0  0  0  0  0  0  0
   58.3770   31.8080   46.7450 H   0  0  0  0  0  0  0  0  0  0  0  0
   58.8140   33.2600   47.7510 H   0  0  0  0  0  0  0  0  0  0  0  0
   60.2857   29.5864   49.1086 H   0  0  0  0  0  0  0  0  0  0  0  0
   58.7154   29.3618   48.2852 H   0  0  0  0  0  0  0  0  0  0  0  0
   61.0840   30.7707   47.0656 H   0  0  0  0  0  0  0  0  0  0  0  0
   60.6857   28.9665   46.9042 H   0  0  0  0  0  0  0  0  0  0  0  0
   59.1943   27.7107   46.0191 H   0  0  0  0  0  0  0  0  0  0  0  0
   59.0639   25.7815   45.2284 H   0  0  0  0  0  0  0  0  0  0  0  0
   56.6497   22.2340   45.7517 H   0  0  0  0  0  0  0  0  0  0  0  0
   54.6540   23.6994   46.0163 H   0  0  0  0  0  0  0  0  0  0  0  0
   54.3000   26.6910   46.7840 H   0  0  0  0  0  0  0  0  0  0  0  0
   55.1500   28.0260   44.8720 H   0  0  0  0  0  0  0  0  0  0  0  0
   58.3290   31.7272   43.3446 H   0  0  0  0  0  0  0  0  0  0  0  0
   56.9103   32.8506   43.5928 H   0  0  0  0  0  0  0  0  0  0  0  0
   59.5341   33.6366   43.5213 H   0  0  0  0  0  0  0  0  0  0  0  0
   58.2104   34.5329   44.3150 H   0  0  0  0  0  0  0  0  0  0  0  0
   59.4370   32.4070   45.7850 H   0  0  0  0  0  0  0  0  0  0  0  0
  1  2  1  0
  2  3  2  0
  2  4  1  0
  4  5  1  0
  5  6  1  0
  6  7  2  0
  7  8  1  0
  8  9  2  0
  9 10  1  0
 10 11  2  0
 11 12  1  0
 12 13  1  0
 12 14  2  0
 14 15  1  0
 15 16  2  0
 16 17  1  0
  9 18  1  0
 18 19  1  0
 19 20  2  0
 19 21  1  0
 21 22  1  0
 22 23  1  0
 23 24  1  0
 24 25  1  0
 21  7  1  0
 16 10  1  0
  1 26  1  0
  1 27  1  0
  4 28  1  0
  4 29  1  0
  5 30  1  0
  5 31  1  0
  8 32  1  0
 11 33  1  0
 14 34  1  0
 15 35  1  0
 17 36  1  0
 18 37  1  0
 23 38  1  0
 23 39  1  0
 24 40  1  0
 24 41  1  0
 25 42  1  0
M  END
>  <smiles>  (92) 
NC(=O)CCN=c1cc(-c2cc(Cl)ccc2O)[nH]c(=O)n1OCCO

>  <score_type>  (92) 
oracle

>  <origin>  (92) 
adg

>  <m_score__min__energy>  (92) 
-7.7199999999999998

>  <m_primary>  (92) 
energy

$$$$
92:0
     RDKit          3D

 63 65  0  0  0  0  0  0  0  0999 V2000
   61.7579   29.5390   44.6189 H   0  0  0  0  0  0  0  0  0  0  0  0
   61.1350   29.2210   45.4680 C   0  0  0  0  0  0  0  0  0  0  0  0
   60.7600   27.9210   45.5860 N   0  0  0  0  0  0  0  0  0  0  0  0
   59.9820   27.5070   46.6190 C   0  0  0  0  0  0  0  0  0  0  0  0
   59.6350   26.2570   46.6960 N   0  0  0  0  0  0  0  0  0  0  0  0
   58.4290   25.7630   47.3640 C   0  0  0  0  0  0  0  0  0  0  0  0
   57.8401   26.6214   47.7194 H   0  0  0  0  0  0  0  0  0  0  0  0
   58.7372   25.1245   48.2051 H   0  0  0  0  0  0  0  0  0  0  0  0
   57.5620   24.9220   46.4120 C   0  0  2  0  0  0  0  0  0  0  0  0
   57.7859   25.2021   45.3721 H   0  0  0  0  0  0  0  0  0  0  0  0
   56.1490   25.1780   46.6840 N   0  0  0  0  0  0  0  0  0  0  0  0
   55.3750   26.1600   45.9910 C   0  0  0  0  0  0  0  0  0  0  0  0
   55.9100   27.2590   45.6850 O   0  0  0  0  0  0  0  0  0  0  0  0
   54.0410   25.9020   45.6590 O   0  0  0  0  0  0  0  0  0  0  0  0
   53.5610   24.5970   45.3680 C   0  0  0  0  0  0  0  0  0  0  0  0
   53.3638   24.0608   46.3080 H   0  0  0  0  0  0  0  0  0  0  0  0
   52.6308   24.6699   44.7853 H   0  0  0  0  0  0  0  0  0  0  0  0
   54.3167   24.0498   44.7853 H   0  0  0  0  0  0  0  0  0  0  0  0
   57.8740   23.4330   46.5980 C   0  0  0  0  0  0  0  0  0  0  0  0
   57.9228   23.2000   47.6719 H   0  0  0  0  0  0  0  0  0  0  0  0
   57.0825   22.8310   46.1278 H   0  0  0  0  0  0  0  0  0  0  0  0
   58.8406   23.1994   46.1278 H   0  0  0  0  0  0  0  0  0  0  0  0
   59.5680   28.4080   47.5530 N   0  0  0  0  0  0  0  0  0  0  0  0
   59.9380   29.7130   47.4910 C   0  0  0  0  0  0  0  0  0  0  0  0
   59.4520   30.6440   48.5240 C   0  0  0  0  0  0  0  0  0  0  0  0
   59.5840   30.3480   50.1740 S   0  0  0  0  0  0  0  0  0  0  0  0
   58.7250   31.7280   50.6150 C   0  0  0  0  0  0  0  0  0  0  0  0
   58.4880   32.1940   52.0390 C   0  0  0  0  0  0  0  0  0  0  0  0
   58.8200   33.6940   52.1360 C   0  0  0  0  0  0  0  0  0  0  0  0
   58.8850   33.9875   53.1941 H   0  0  0  0  0  0  0  0  0  0  0  0
   59.7831   33.8891   51.6416 H   0  0  0  0  0  0  0  0  0  0  0  0
   58.0292   34.2773   51.6416 H   0  0  0  0  0  0  0  0  0  0  0  0
   59.3860   31.4020   53.0100 C   0  0  0  0  0  0  0  0  0  0  0  0
   59.1097   31.6457   54.0465 H   0  0  0  0  0  0  0  0  0  0  0  0
   59.2505   30.3240   52.8382 H   0  0  0  0  0  0  0  0  0  0  0  0
   60.4386   31.6712   52.8382 H   0  0  0  0  0  0  0  0  0  0  0  0
   57.0140   31.9700   52.4360 C   0  0  0  0  0  0  0  0  0  0  0  0
   56.9275   31.9569   53.5325 H   0  0  0  0  0  0  0  0  0  0  0  0
   56.3968   32.7847   52.0293 H   0  0  0  0  0  0  0  0  0  0  0  0
   56.6667   31.0088   52.0293 H   0  0  0  0  0  0  0  0  0  0  0  0
   58.3750   32.4430   49.5210 N   0  0  0  0  0  0  0  0  0  0  0  0
   58.7660   31.8570   48.3560 C   0  0  0  0  0  0  0  0  0  0  0  0
   58.5410   32.5400   47.0630 C   0  0  0  0  0  0  0  0  0  0  0  0
   58.8930   33.8910   46.9210 C   0  0  0  0  0  0  0  0  0  0  0  0
   59.2980   34.4440   47.7813 H   0  0  0  0  0  0  0  0  0  0  0  0
   58.7320   34.5370   45.6940 C   0  0  0  0  0  0  0  0  0  0  0  0
   59.0012   35.5988   45.5930 H   0  0  0  0  0  0  0  0  0  0  0  0
   58.2300   33.8380   44.5950 C   0  0  0  0  0  0  0  0  0  0  0  0
   58.1091   34.3531   43.6306 H   0  0  0  0  0  0  0  0  0  0  0  0
   57.8780   32.4840   44.7090 C   0  0  0  0  0  0  0  0  0  0  0  0
   57.3860   31.7880   43.5490 N   0  0  0  0  0  0  0  0  0  0  0  0
   57.2870   32.3140   42.6540 H   0  0  0  0  0  0  0  0  0  0  0  0
   56.7360   30.1770   43.5790 S   0  0  0  0  0  0  0  0  0  0  0  0
   55.5440   30.1180   44.4910 O   0  0  0  0  0  0  0  0  0  0  0  0
   56.2960   29.8080   42.1920 O   0  0  0  0  0  0  0  0  0  0  0  0
   57.9710   29.0130   44.1150 C   0  0  0  0  0  0  0  0  0  0  0  0
   57.9981   28.9874   45.2144 H   0  0  0  0  0  0  0  0  0  0  0  0
   57.7231   28.0125   43.7310 H   0  0  0  0  0  0  0  0  0  0  0  0
   58.9551   29.3197   43.7310 H   0  0  0  0  0  0  0  0  0  0  0  0
   58.0500   31.8370   45.9470 C   0  0  0  0  0  0  0  0  0  0  0  0
   57.7980   30.7706   46.0433 H   0  0  0  0  0  0  0  0  0  0  0  0
   60.7300   30.1530   46.4240 C   0  0  0  0  0  0  0  0  0  0  0  0
   61.0262   31.2091   46.3412 H   0  0  0  0  0  0  0  0  0  0  0  0
  1  2  1  0
  2  3  1  0
  3  4  1  0
  4  5  2  0
  5  6  1  0
  6  7  1  0
  6  8  1  0
  6  9  1  0
  9 10  1  6
  9 11  1  0
 11 12  1  0
 12 13  2  0
 12 14  1  0
 14 15  1  0
 15 16  1  0
 15 17  1  0
 15 18  1  0
  9 19  1  0
 19 20  1  0
 19 21  1  0
 19 22  1  0
  4 23  1  0
 23 24  2  0
 24 25  1  0
 25 26  1  0
 26 27  1  0
 27 28  1  0
 28 29  1  0
 29 30  1  0
 29 31  1  0
 29 32  1  0
 28 33  1  0
 33 34  1  0
 33 35  1  0
 33 36  1  0
 28 37  1  0
 37 38  1  0
 37 39  1  0
 37 40  1  0
 27 41  2  0
 41 42  1  0
 42 43  1  0
 43 44  2  0
 44 45  1  0
 44 46  1  0
 46 47  1  0
 46 48  2  0
 48 49  1  0
 48 50  1  0
 50 51  1  0
 51 52  1  0
 51 53  1  0
 53 54  2  0
 53 55  2  0
 53 56  1  0
 56 57  1  0
 56 58  1  0
 56 59  1  0
 50 60  2  0
 60 61  1  0
 24 62  1  0
 62 63  1  0
 62  2  2  0
 42 25  2  0
 60 43  1  0
M  CHG  2   3  -1  11  -1
M  END
>  <UniqueID>  (93) 
89

>  <SMILES>  (93) 
COC(=O)[N-][C@H](C)C/N=c1\nc(-c2sc(C(C)(C)C)nc2-c2cccc(NS(C)(=O)=O)c2)cc[n-]1

>  <Energy>  (93) 
85.30192609041757

>  <Genealogy>  (93) 
COC(=O)[N-]C(C)CN=c1nc(-c2sc(C(C)(C)C)nc2-c2cccc(NS(C)(=O)=O)c2)cc[n-]1 (protonated)
COC(=O)[N-][C@H](C)CN=c1nc(-c2sc(C(C)(C)C)nc2-c2cccc(NS(C)(=O)=O)c2)cc[n-]1 (chirality)
COC(=O)[N-][C@H](C)C/N=c1\nc(-c2sc(C(C)(C)C)nc2-c2cccc(NS(C)(=O)=O)c2)cc[n-]1 (cis-trans isomerization)
COC(=O)[N-][C@H](C)C/N=c1\nc(-c2sc(C(C)(C)C)nc2-c2cccc(NS(C)(=O)=O)c2)cc[n-]1 (3D coordinates assigned)
COC(=O)[N-][C@H](C)C/N=c1\nc(-c2sc(C(C)(C)C)nc2-c2cccc(NS(C)(=O)=O)c2)cc[n-]1 (optimized conformer: 85.30192609041757 kcal/mol)

>  <smiles>  (93) 
COC(=O)NC(C)CN=c1nc(-c2sc(C(C)(C)C)nc2-c2cccc(NS(C)(=O)=O)c2)cc[nH]1

>  <score_type>  (93) 
oracle

>  <origin>  (93) 
adg

>  <m_score__min__energy>  (93) 
-12.6

>  <m_primary>  (93) 
energy

$$$$
93:0
     RDKit          3D

 41 43  0  0  0  0  0  0  0  0999 V2000
   55.1450   27.2740   46.0780 H   0  0  0  0  0  0  0  0  0  0  0  0
   54.7030   26.3310   45.9960 N   0  0  0  0  0  0  0  0  0  0  0  0
   55.9800   25.1690   46.0560 S   0  0  0  0  0  0  0  0  0  0  0  0
   55.9840   24.3660   44.7850 O   0  0  0  0  0  0  0  0  0  0  0  0
   55.7590   24.2360   47.2140 O   0  0  0  0  0  0  0  0  0  0  0  0
   57.5210   25.9970   46.2460 C   0  0  0  0  0  0  0  0  0  0  0  0
   58.7250   25.2910   46.1210 C   0  0  0  0  0  0  0  0  0  0  0  0
   58.7084   24.2100   45.9183 H   0  0  0  0  0  0  0  0  0  0  0  0
   59.9460   25.9560   46.2530 C   0  0  0  0  0  0  0  0  0  0  0  0
   60.8885   25.3972   46.1559 H   0  0  0  0  0  0  0  0  0  0  0  0
   59.9730   27.3290   46.5080 C   0  0  0  0  0  0  0  0  0  0  0  0
   60.9378   27.8478   46.6084 H   0  0  0  0  0  0  0  0  0  0  0  0
   58.7750   28.0510   46.6370 C   0  0  0  0  0  0  0  0  0  0  0  0
   58.8060   29.5120   46.8930 C   0  0  0  0  0  0  0  0  0  0  0  0
   58.7670   30.4040   45.8230 C   0  0  0  0  0  0  0  0  0  0  0  0
   58.7312   30.0218   44.7922 H   0  0  0  0  0  0  0  0  0  0  0  0
   58.7730   31.7380   46.0470 N   0  0  0  0  0  0  0  0  0  0  0  0
   58.8210   32.2960   47.2850 C   0  0  0  0  0  0  0  0  0  0  0  0
   58.7940   33.6050   47.3200 N   0  0  0  0  0  0  0  0  0  0  0  0
   59.7800   34.6480   47.6060 C   0  0  0  0  0  0  0  0  0  0  0  0
   59.7797   35.3724   46.7782 H   0  0  0  0  0  0  0  0  0  0  0  0
   59.5000   35.1261   48.5563 H   0  0  0  0  0  0  0  0  0  0  0  0
   61.1760   34.0870   47.7620 C   0  0  0  0  0  0  0  0  0  0  0  0
   61.7780   33.9190   49.0260 C   0  0  0  0  0  0  0  0  0  0  0  0
   61.0890   34.2310   50.1930 O   0  0  0  0  0  0  0  0  0  0  0  0
   63.0540   33.4570   49.1180 N   0  0  0  0  0  0  0  0  0  0  0  0
   63.7940   33.1670   48.0160 C   0  0  0  0  0  0  0  0  0  0  0  0
   64.8180   32.7811   48.1276 H   0  0  0  0  0  0  0  0  0  0  0  0
   63.2570   33.3580   46.7450 C   0  0  0  0  0  0  0  0  0  0  0  0
   63.8564   33.1364   45.8497 H   0  0  0  0  0  0  0  0  0  0  0  0
   61.9520   33.8330   46.6190 C   0  0  0  0  0  0  0  0  0  0  0  0
   61.5281   34.0097   45.6195 H   0  0  0  0  0  0  0  0  0  0  0  0
   58.8960   31.4290   48.4230 C   0  0  0  0  0  0  0  0  0  0  0  0
   59.0520   31.9180   49.8430 C   0  0  0  0  0  0  0  0  0  0  0  0
   58.7935   31.1076   50.5404 H   0  0  0  0  0  0  0  0  0  0  0  0
   60.0938   32.2284   50.0116 H   0  0  0  0  0  0  0  0  0  0  0  0
   58.3824   32.7743   50.0116 H   0  0  0  0  0  0  0  0  0  0  0  0
   58.8880   30.0290   48.1970 C   0  0  0  0  0  0  0  0  0  0  0  0
   58.9910   29.1430   49.2680 O   0  0  0  0  0  0  0  0  0  0  0  0
   57.5500   27.3770   46.4930 C   0  0  0  0  0  0  0  0  0  0  0  0
   56.6065   27.9366   46.5747 H   0  0  0  0  0  0  0  0  0  0  0  0
  1  2  1  0
  2  3  1  0
  3  4  2  0
  3  5  2  0
  3  6  1  0
  6  7  2  0
  7  8  1  0
  7  9  1  0
  9 10  1  0
  9 11  2  0
 11 12  1  0
 11 13  1  0
 13 14  1  0
 14 15  2  0
 15 16  1  0
 15 17  1  0
 17 18  1  0
 18 19  2  0
 19 20  1  0
 20 21  1  0
 20 22  1  0
 20 23  1  0
 23 24  2  0
 24 25  1  0
 24 26  1  0
 26 27  2  0
 27 28  1  0
 27 29  1  0
 29 30  1  0
 29 31  2  0
 31 32  1  0
 18 33  1  0
 33 34  1  0
 34 35  1  0
 34 36  1  0
 34 37  1  0
 33 38  2  0
 38 39  1  0
 13 40  2  0
 40 41  1  0
 40  6  1  0
 38 14  1  0
 31 23  1  0
M  CHG  4   2  -1  17  -1  25  -1  39  -1
M  END
>  <UniqueID>  (94) 
90

>  <SMILES>  (94) 
Cc1c([O-])c(-c2cccc(S([NH-])(=O)=O)c2)c[n-]/c1=N/Cc1cccnc1[O-]

>  <Energy>  (94) 
67.45136553007063

>  <Genealogy>  (94) 
Cc1c([O-])c(-c2cccc(S([NH-])(=O)=O)c2)c[n-]c1=NCc1cccnc1[O-] (protonated)
Cc1c([O-])c(-c2cccc(S([NH-])(=O)=O)c2)c[n-]/c1=N/Cc1cccnc1[O-] (cis-trans isomerization)
Cc1c([O-])c(-c2cccc(S([NH-])(=O)=O)c2)c[n-]/c1=N/Cc1cccnc1[O-] (3D coordinates assigned)
Cc1c([O-])c(-c2cccc(S([NH-])(=O)=O)c2)c[n-]/c1=N/Cc1cccnc1[O-] (optimized conformer: 67.45136553007063 kcal/mol)

>  <smiles>  (94) 
Cc1c(O)c(-c2cccc(S(N)(=O)=O)c2)c[nH]c1=NCc1cccnc1O

>  <score_type>  (94) 
oracle

>  <origin>  (94) 
adg

>  <m_score__min__energy>  (94) 
-16.039999999999999

>  <m_primary>  (94) 
energy

$$$$
