0:0
     RDKit          3D

 44 46  0  0  0  0  0  0  0  0999 V2000
   60.2638   27.1712   47.8413 H   0  0  0  0  0  0  0  0  0  0  0  0
   59.8230   27.8710   47.1160 C   0  0  0  0  0  0  0  0  0  0  0  0
   59.0640   27.3780   46.1800 N   0  0  0  0  0  0  0  0  0  0  0  0
   58.8040   27.9360   44.8830 C   0  0  0  0  0  0  0  0  0  0  0  0
   59.6500   27.8250   43.9550 O   0  0  0  0  0  0  0  0  0  0  0  0
   57.4740   28.5850   44.5970 C   0  0  1  0  0  0  0  0  0  0  0  0
   56.7270   27.9251   45.0624 H   0  0  0  0  0  0  0  0  0  0  0  0
   57.3620   29.9900   45.2000 C   0  0  0  0  0  0  0  0  0  0  0  0
   56.7490   29.9695   46.1131 H   0  0  0  0  0  0  0  0  0  0  0  0
   58.3450   30.3931   45.4851 H   0  0  0  0  0  0  0  0  0  0  0  0
   56.6880   30.8410   44.1210 C   0  0  1  0  0  0  0  0  0  0  0  0
   55.7850   31.3310   44.5141 H   0  0  0  0  0  0  0  0  0  0  0  0
   57.5280   32.0610   43.6530 C   0  0  0  0  0  0  0  0  0  0  0  0
   58.4015   31.6810   43.1030 H   0  0  0  0  0  0  0  0  0  0  0  0
   56.8538   32.6766   43.0394 H   0  0  0  0  0  0  0  0  0  0  0  0
   58.0290   32.9650   44.7590 C   0  0  0  0  0  0  0  0  0  0  0  0
   57.4150   32.9470   46.0250 C   0  0  0  0  0  0  0  0  0  0  0  0
   56.5714   32.2667   46.2134 H   0  0  0  0  0  0  0  0  0  0  0  0
   57.8700   33.7880   47.0450 C   0  0  0  0  0  0  0  0  0  0  0  0
   57.3880   33.7622   48.0335 H   0  0  0  0  0  0  0  0  0  0  0  0
   58.9340   34.6600   46.8120 C   0  0  0  0  0  0  0  0  0  0  0  0
   59.2995   35.3107   47.6201 H   0  0  0  0  0  0  0  0  0  0  0  0
   59.5350   34.7060   45.5510 C   0  0  0  0  0  0  0  0  0  0  0  0
   60.3682   35.3996   45.3648 H   0  0  0  0  0  0  0  0  0  0  0  0
   59.0790   33.8720   44.5260 C   0  0  0  0  0  0  0  0  0  0  0  0
   59.5442   33.9252   43.5306 H   0  0  0  0  0  0  0  0  0  0  0  0
   56.3490   29.8590   42.9970 C   0  0  0  0  0  0  0  0  0  0  0  0
   55.2971   29.5467   43.0738 H   0  0  0  0  0  0  0  0  0  0  0  0
   56.4931   30.3274   42.0122 H   0  0  0  0  0  0  0  0  0  0  0  0
   57.2270   28.7030   43.1550 N   0  0  0  0  0  0  0  0  0  0  0  0
   56.7640   27.8390   42.7870 H   0  0  0  0  0  0  0  0  0  0  0  0
   58.1140   28.8730   42.6250 H   0  0  0  0  0  0  0  0  0  0  0  0
   60.1320   29.3090   47.2690 C   0  0  0  0  0  0  0  0  0  0  0  0
   60.7680   30.1070   46.3330 C   0  0  0  0  0  0  0  0  0  0  0  0
   61.2203   29.7775   45.3860 H   0  0  0  0  0  0  0  0  0  0  0  0
   60.7230   31.3980   46.8220 C   0  0  0  0  0  0  0  0  0  0  0  0
   61.1458   32.2951   46.3462 H   0  0  0  0  0  0  0  0  0  0  0  0
   60.0450   31.3450   48.0230 C   0  0  0  0  0  0  0  0  0  0  0  0
   59.8285   32.2109   48.6659 H   0  0  0  0  0  0  0  0  0  0  0  0
   59.6880   30.0730   48.2900 N   0  0  0  0  0  0  0  0  0  0  0  0
   58.8860   29.6360   49.4290 C   0  0  0  0  0  0  0  0  0  0  0  0
   59.3951   29.9134   50.3638 H   0  0  0  0  0  0  0  0  0  0  0  0
   57.8996   30.1213   49.3907 H   0  0  0  0  0  0  0  0  0  0  0  0
   58.7591   28.5440   49.3907 H   0  0  0  0  0  0  0  0  0  0  0  0
  1  2  1  0
  2  3  2  0
  3  4  1  0
  4  5  2  0
  4  6  1  0
  6  7  1  1
  6  8  1  0
  8  9  1  0
  8 10  1  0
  8 11  1  0
 11 12  1  1
 11 13  1  0
 13 14  1  0
 13 15  1  0
 13 16  1  0
 16 17  2  0
 17 18  1  0
 17 19  1  0
 19 20  1  0
 19 21  2  0
 21 22  1  0
 21 23  1  0
 23 24  1  0
 23 25  2  0
 25 26  1  0
 11 27  1  0
 27 28  1  0
 27 29  1  0
 27 30  1  0
 30 31  1  0
 30 32  1  0
  2 33  1  0
 33 34  2  0
 34 35  1  0
 34 36  1  0
 36 37  1  0
 36 38  2  0
 38 39  1  0
 38 40  1  0
 40 41  1  0
 41 42  1  0
 41 43  1  0
 41 44  1  0
 30  6  1  0
 40 33  1  0
 25 16  1  0
M  CHG  1  30   1
M  END
>  <UniqueID>  (1) 
1

>  <SMILES>  (1) 
Cn1cccc1/C=N\C(=O)[C@H]1C[C@@H](Cc2ccccc2)C[NH2+]1

>  <Energy>  (1) 
79.83823349369267

>  <Genealogy>  (1) 
Cn1cccc1C=NC(=O)C1CC(Cc2ccccc2)C[NH2+]1 (protonated)
Cn1cccc1C=NC(=O)[C@H]1C[C@@H](Cc2ccccc2)C[NH2+]1 (chirality)
Cn1cccc1/C=N\C(=O)[C@H]1C[C@@H](Cc2ccccc2)C[NH2+]1 (cis-trans isomerization)
Cn1cccc1/C=N\C(=O)[C@H]1C[C@@H](Cc2ccccc2)C[NH2+]1 (3D coordinates assigned)
Cn1cccc1/C=N\C(=O)[C@H]1C[C@@H](Cc2ccccc2)C[NH2+]1 (nonaromatic ring conformer: 79.83823349369267 kcal/mol)

>  <smiles>  (1) 
Cn1cccc1C=NC(=O)C1CC(Cc2ccccc2)CN1

>  <score_type>  (1) 
oracle

>  <origin>  (1) 
adg

>  <m_score__min__energy>  (1) 
-7.2999999999999998

>  <m_primary>  (1) 
energy

$$$$
1:0
     RDKit          3D

 85 89  0  0  0  0  0  0  0  0999 V2000
   53.4308   32.2321   52.6713 H   0  0  0  0  0  0  0  0  0  0  0  0
   53.3990   31.5290   51.8260 C   0  0  0  0  0  0  0  0  0  0  0  0
   52.1810   31.5330   50.9950 C   0  0  0  0  0  0  0  0  0  0  0  0
   51.8710   30.5440   50.2800 O   0  0  0  0  0  0  0  0  0  0  0  0
   51.3960   32.6770   50.9480 O   0  0  0  0  0  0  0  0  0  0  0  0
   54.4740   30.7430   51.6430 C   0  0  0  0  0  0  0  0  0  0  0  0
   54.2954   29.7298   51.2537 H   0  0  0  0  0  0  0  0  0  0  0  0
   55.8760   31.1230   51.9200 C   0  0  0  0  0  0  0  0  0  0  0  0
   56.2040   32.4110   52.3680 C   0  0  0  0  0  0  0  0  0  0  0  0
   55.4103   33.1561   52.5257 H   0  0  0  0  0  0  0  0  0  0  0  0
   57.5350   32.7490   52.6140 C   0  0  0  0  0  0  0  0  0  0  0  0
   57.7856   33.7484   52.9993 H   0  0  0  0  0  0  0  0  0  0  0  0
   58.5490   31.8210   52.3720 C   0  0  0  0  0  0  0  0  0  0  0  0
   59.5924   32.0781   52.6071 H   0  0  0  0  0  0  0  0  0  0  0  0
   58.2470   30.5650   51.8320 C   0  0  0  0  0  0  0  0  0  0  0  0
   59.2980   29.6120   51.5840 N   0  0  0  0  0  0  0  0  0  0  0  0
   60.4540   29.5410   52.5020 C   0  0  0  0  0  0  0  0  0  0  0  0
   61.1385   30.3720   52.2761 H   0  0  0  0  0  0  0  0  0  0  0  0
   60.0743   29.6072   53.5323 H   0  0  0  0  0  0  0  0  0  0  0  0
   61.2100   28.2320   52.3640 C   0  0  0  0  0  0  0  0  0  0  0  0
   60.5140   27.0330   52.6150 C   0  0  0  0  0  0  0  0  0  0  0  0
   59.4354   27.0672   52.8284 H   0  0  0  0  0  0  0  0  0  0  0  0
   61.1710   25.8050   52.5970 C   0  0  0  0  0  0  0  0  0  0  0  0
   60.6135   24.8806   52.8083 H   0  0  0  0  0  0  0  0  0  0  0  0
   62.5320   25.7460   52.3120 C   0  0  0  0  0  0  0  0  0  0  0  0
   63.0521   24.7767   52.3148 H   0  0  0  0  0  0  0  0  0  0  0  0
   63.2370   26.9130   52.0230 C   0  0  0  0  0  0  0  0  0  0  0  0
   64.3100   26.8561   51.7876 H   0  0  0  0  0  0  0  0  0  0  0  0
   62.5920   28.1620   52.0290 C   0  0  0  0  0  0  0  0  0  0  0  0
   63.3820   29.3440   51.6150 C   0  0  0  0  0  0  0  0  0  0  0  0
   62.9230   30.1780   50.5810 C   0  0  0  0  0  0  0  0  0  0  0  0
   61.9411   29.9908   50.1218 H   0  0  0  0  0  0  0  0  0  0  0  0
   63.7090   31.2450   50.1330 C   0  0  0  0  0  0  0  0  0  0  0  0
   63.3347   31.9057   49.3371 H   0  0  0  0  0  0  0  0  0  0  0  0
   64.9690   31.4740   50.6940 C   0  0  0  0  0  0  0  0  0  0  0  0
   65.5857   32.3132   50.3399 H   0  0  0  0  0  0  0  0  0  0  0  0
   65.4430   30.6350   51.7050 C   0  0  0  0  0  0  0  0  0  0  0  0
   66.4368   30.8108   52.1426 H   0  0  0  0  0  0  0  0  0  0  0  0
   64.6570   29.5710   52.1630 C   0  0  0  0  0  0  0  0  0  0  0  0
   65.0384   28.9097   52.9549 H   0  0  0  0  0  0  0  0  0  0  0  0
   59.4280   29.0920   50.2110 C   0  0  0  0  0  0  0  0  0  0  0  0
   58.9640   28.0957   50.1656 H   0  0  0  0  0  0  0  0  0  0  0  0
   60.5003   29.0498   49.9695 H   0  0  0  0  0  0  0  0  0  0  0  0
   58.7490   30.0010   49.1700 C   0  0  0  0  0  0  0  0  0  0  0  0
   57.9447   30.5622   49.6682 H   0  0  0  0  0  0  0  0  0  0  0  0
   58.3662   29.3506   48.3697 H   0  0  0  0  0  0  0  0  0  0  0  0
   59.6760   30.9660   48.5440 N   0  0  0  0  0  0  0  0  0  0  0  0
   60.5600   30.5760   47.4650 C   0  0  0  0  0  0  0  0  0  0  0  0
   61.7990   30.4700   47.6840 O   0  0  0  0  0  0  0  0  0  0  0  0
   60.0530   30.2840   46.0760 C   0  0  0  0  0  0  0  0  0  0  0  0
   59.6090   31.1971   45.6527 H   0  0  0  0  0  0  0  0  0  0  0  0
   60.8944   29.9488   45.4518 H   0  0  0  0  0  0  0  0  0  0  0  0
   59.0120   29.1990   46.1160 C   0  0  0  0  0  0  0  0  0  0  0  0
   59.2840   27.9840   46.7590 C   0  0  0  0  0  0  0  0  0  0  0  0
   60.2716   27.8141   47.2126 H   0  0  0  0  0  0  0  0  0  0  0  0
   58.3070   26.9870   46.8270 C   0  0  0  0  0  0  0  0  0  0  0  0
   58.5359   26.0341   47.3266 H   0  0  0  0  0  0  0  0  0  0  0  0
   57.0330   27.1890   46.2630 C   0  0  0  0  0  0  0  0  0  0  0  0
   56.0110   26.1140   46.3590 C   0  0  0  0  0  0  0  0  0  0  0  0
   56.3060   24.9950   46.8590 O   0  0  0  0  0  0  0  0  0  0  0  0
   54.7120   26.3180   45.9090 O   0  0  0  0  0  0  0  0  0  0  0  0
   56.7590   28.4200   45.6260 C   0  0  0  0  0  0  0  0  0  0  0  0
   55.5190   28.6760   45.0520 O   0  0  0  0  0  0  0  0  0  0  0  0
   57.7420   29.4140   45.5600 C   0  0  0  0  0  0  0  0  0  0  0  0
   57.5170   30.3718   45.0681 H   0  0  0  0  0  0  0  0  0  0  0  0
   59.4840   32.4090   48.7940 C   0  0  0  0  0  0  0  0  0  0  0  0
   58.5904   32.5453   49.4208 H   0  0  0  0  0  0  0  0  0  0  0  0
   59.3674   32.9104   47.8219 H   0  0  0  0  0  0  0  0  0  0  0  0
   60.6680   33.0210   49.4950 C   0  0  0  0  0  0  0  0  0  0  0  0
   61.6180   33.7460   48.7640 C   0  0  0  0  0  0  0  0  0  0  0  0
   61.5051   33.8473   47.6745 H   0  0  0  0  0  0  0  0  0  0  0  0
   62.7080   34.3420   49.4050 C   0  0  0  0  0  0  0  0  0  0  0  0
   63.4488   34.9084   48.8216 H   0  0  0  0  0  0  0  0  0  0  0  0
   62.8540   34.2160   50.7910 C   0  0  0  0  0  0  0  0  0  0  0  0
   64.2350   35.0100   51.6150 S   0  0  0  0  0  0  0  0  0  0  0  0
   64.1530   33.9100   53.0610 C   0  0  0  0  0  0  0  0  0  0  0  0
   64.1978   34.5105   53.9815 H   0  0  0  0  0  0  0  0  0  0  0  0
   63.2102   33.3439   53.0380 H   0  0  0  0  0  0  0  0  0  0  0  0
   65.0015   33.2103   53.0380 H   0  0  0  0  0  0  0  0  0  0  0  0
   61.9180   33.4810   51.5280 C   0  0  0  0  0  0  0  0  0  0  0  0
   62.0357   33.3763   52.6167 H   0  0  0  0  0  0  0  0  0  0  0  0
   60.8340   32.8800   50.8820 C   0  0  0  0  0  0  0  0  0  0  0  0
   60.1072   32.2935   51.4633 H   0  0  0  0  0  0  0  0  0  0  0  0
   56.9030   30.2170   51.6190 C   0  0  0  0  0  0  0  0  0  0  0  0
   56.6540   29.2256   51.2127 H   0  0  0  0  0  0  0  0  0  0  0  0
  1  2  1  0
  2  3  1  0
  3  4  2  0
  3  5  1  0
  2  6  2  0
  6  7  1  0
  6  8  1  0
  8  9  2  0
  9 10  1  0
  9 11  1  0
 11 12  1  0
 11 13  2  0
 13 14  1  0
 13 15  1  0
 15 16  1  0
 16 17  1  0
 17 18  1  0
 17 19  1  0
 17 20  1  0
 20 21  2  0
 21 22  1  0
 21 23  1  0
 23 24  1  0
 23 25  2  0
 25 26  1  0
 25 27  1  0
 27 28  1  0
 27 29  2  0
 29 30  1  0
 30 31  2  0
 31 32  1  0
 31 33  1  0
 33 34  1  0
 33 35  2  0
 35 36  1  0
 35 37  1  0
 37 38  1  0
 37 39  2  0
 39 40  1  0
 16 41  1  0
 41 42  1  0
 41 43  1  0
 41 44  1  0
 44 45  1  0
 44 46  1  0
 44 47  1  0
 47 48  1  0
 48 49  2  0
 48 50  1  0
 50 51  1  0
 50 52  1  0
 50 53  1  0
 53 54  2  0
 54 55  1  0
 54 56  1  0
 56 57  1  0
 56 58  2  0
 58 59  1  0
 59 60  2  0
 59 61  1  0
 58 62  1  0
 62 63  1  0
 62 64  2  0
 64 65  1  0
 47 66  1  0
 66 67  1  0
 66 68  1  0
 66 69  1  0
 69 70  2  0
 70 71  1  0
 70 72  1  0
 72 73  1  0
 72 74  2  0
 74 75  1  0
 75 76  1  0
 76 77  1  0
 76 78  1  0
 76 79  1  0
 74 80  1  0
 80 81  1  0
 80 82  2  0
 82 83  1  0
 15 84  2  0
 84 85  1  0
 84  8  1  0
 29 20  1  0
 39 30  1  0
 64 53  1  0
 82 69  1  0
M  CHG  3   5  -1  61  -1  63  -1
M  END
>  <UniqueID>  (2) 
2

>  <SMILES>  (2) 
CSc1ccc(CN(CCN(Cc2ccccc2-c2ccccc2)c2cccc(/C=C\C(=O)[O-])c2)C(=O)Cc2ccc(C(=O)[O-])c([O-])c2)cc1

>  <Energy>  (2) 
101.93718821983177

>  <Genealogy>  (2) 
CSc1ccc(CN(CCN(Cc2ccccc2-c2ccccc2)c2cccc(C=CC(=O)[O-])c2)C(=O)Cc2ccc(C(=O)[O-])c([O-])c2)cc1 (protonated)
CSc1ccc(CN(CCN(Cc2ccccc2-c2ccccc2)c2cccc(/C=C\C(=O)[O-])c2)C(=O)Cc2ccc(C(=O)[O-])c([O-])c2)cc1 (cis-trans isomerization)
CSc1ccc(CN(CCN(Cc2ccccc2-c2ccccc2)c2cccc(/C=C\C(=O)[O-])c2)C(=O)Cc2ccc(C(=O)[O-])c([O-])c2)cc1 (3D coordinates assigned)
CSc1ccc(CN(CCN(Cc2ccccc2-c2ccccc2)c2cccc(/C=C\C(=O)[O-])c2)C(=O)Cc2ccc(C(=O)[O-])c([O-])c2)cc1 (optimized conformer: 101.93718821983177 kcal/mol)

>  <smiles>  (2) 
CSc1ccc(CN(CCN(Cc2ccccc2-c2ccccc2)c2cccc(C=CC(=O)O)c2)C(=O)Cc2ccc(C(=O)O)c(O)c2)cc1

>  <score_type>  (2) 
oracle

>  <origin>  (2) 
adg

>  <m_score__min__energy>  (2) 
-23.079999999999998

>  <m_primary>  (2) 
energy

$$$$
2:0
     RDKit          3D

 41 43  0  0  0  0  0  0  0  0999 V2000
   55.5261   29.5425   43.7619 H   0  0  0  0  0  0  0  0  0  0  0  0
   56.1910   30.4160   43.6920 C   0  0  0  0  0  0  0  0  0  0  0  0
   56.5520   31.0860   44.8180 N   0  0  0  0  0  0  0  0  0  0  0  0
   57.3710   32.1750   44.7770 C   0  0  0  0  0  0  0  0  0  0  0  0
   57.7010   32.8010   45.8660 N   0  0  0  0  0  0  0  0  0  0  0  0
   58.7720   32.1520   47.0660 S   0  0  0  0  0  0  0  0  0  0  0  0
   58.1290   32.2520   48.4220 O   0  0  0  0  0  0  0  0  0  0  0  0
   60.0420   32.9550   47.0810 O   0  0  0  0  0  0  0  0  0  0  0  0
   59.1550   30.4770   46.6800 C   0  0  0  0  0  0  0  0  0  0  0  0
   60.4720   30.1190   46.3710 C   0  0  0  0  0  0  0  0  0  0  0  0
   61.2674   30.8785   46.3958 H   0  0  0  0  0  0  0  0  0  0  0  0
   60.7790   28.7990   46.0310 C   0  0  0  0  0  0  0  0  0  0  0  0
   61.8152   28.5218   45.7872 H   0  0  0  0  0  0  0  0  0  0  0  0
   59.7720   27.8300   46.0000 C   0  0  0  0  0  0  0  0  0  0  0  0
   60.0169   26.7948   45.7199 H   0  0  0  0  0  0  0  0  0  0  0  0
   58.4480   28.1720   46.3250 C   0  0  0  0  0  0  0  0  0  0  0  0
   57.3870   27.2050   46.2660 N   0  0  0  0  0  0  0  0  0  0  0  0
   56.4470   27.5070   46.6050 H   0  0  0  0  0  0  0  0  0  0  0  0
   57.5630   25.8420   45.8360 C   0  0  0  0  0  0  0  0  0  0  0  0
   58.7020   25.4250   45.4940 O   0  0  0  0  0  0  0  0  0  0  0  0
   56.4150   24.9120   45.7800 C   0  0  0  0  0  0  0  0  0  0  0  0
   55.0810   25.3640   45.8420 C   0  0  0  0  0  0  0  0  0  0  0  0
   54.7880   26.7130   46.0030 O   0  0  0  0  0  0  0  0  0  0  0  0
   54.0560   24.4700   45.7770 N   0  0  0  0  0  0  0  0  0  0  0  0
   54.2730   23.1330   45.6660 C   0  0  0  0  0  0  0  0  0  0  0  0
   53.2950   22.3440   45.6040 O   0  0  0  0  0  0  0  0  0  0  0  0
   55.5780   22.6390   45.6260 C   0  0  0  0  0  0  0  0  0  0  0  0
   55.7602   21.5572   45.5448 H   0  0  0  0  0  0  0  0  0  0  0  0
   56.6490   23.5310   45.6900 C   0  0  0  0  0  0  0  0  0  0  0  0
   57.6809   23.1504   45.6698 H   0  0  0  0  0  0  0  0  0  0  0  0
   58.1440   29.5050   46.6430 C   0  0  0  0  0  0  0  0  0  0  0  0
   57.1049   29.7897   46.8649 H   0  0  0  0  0  0  0  0  0  0  0  0
   57.8640   32.6240   43.5460 C   0  0  0  0  0  0  0  0  0  0  0  0
   58.5172   33.5079   43.5007 H   0  0  0  0  0  0  0  0  0  0  0  0
   57.5200   31.9400   42.3710 C   0  0  0  0  0  0  0  0  0  0  0  0
   58.0080   32.4310   41.0410 C   0  0  0  0  0  0  0  0  0  0  0  0
   58.7758   33.2036   41.1946 H   0  0  0  0  0  0  0  0  0  0  0  0
   58.4401   31.5917   40.4763 H   0  0  0  0  0  0  0  0  0  0  0  0
   57.1661   32.8580   40.4763 H   0  0  0  0  0  0  0  0  0  0  0  0
   56.6630   30.8350   42.4470 C   0  0  0  0  0  0  0  0  0  0  0  0
   56.3641   30.3014   41.5327 H   0  0  0  0  0  0  0  0  0  0  0  0
  1  2  1  0
  2  3  1  0
  3  4  1  0
  4  5  2  0
  5  6  1  0
  6  7  2  0
  6  8  2  0
  6  9  1  0
  9 10  2  0
 10 11  1  0
 10 12  1  0
 12 13  1  0
 12 14  2  0
 14 15  1  0
 14 16  1  0
 16 17  1  0
 17 18  1  0
 17 19  1  0
 19 20  2  0
 19 21  1  0
 21 22  2  0
 22 23  1  0
 22 24  1  0
 24 25  1  0
 25 26  2  0
 25 27  1  0
 27 28  1  0
 27 29  2  0
 29 30  1  0
 16 31  2  0
 31 32  1  0
  4 33  1  0
 33 34  1  0
 33 35  2  0
 35 36  1  0
 36 37  1  0
 36 38  1  0
 36 39  1  0
 35 40  1  0
 40 41  1  0
 40  2  2  0
 31  9  1  0
 29 21  1  0
M  CHG  3   3  -1  23  -1  24  -1
M  END
>  <UniqueID>  (3) 
3

>  <SMILES>  (3) 
Cc1cc[n-]/c(=N\S(=O)(=O)c2cccc(NC(=O)c3ccc(=O)[n-]c3[O-])c2)c1

>  <Energy>  (3) 
56.434806105597225

>  <Genealogy>  (3) 
Cc1cc[n-]c(=NS(=O)(=O)c2cccc(NC(=O)c3ccc(=O)[n-]c3[O-])c2)c1 (protonated)
Cc1cc[n-]/c(=N\S(=O)(=O)c2cccc(NC(=O)c3ccc(=O)[n-]c3[O-])c2)c1 (cis-trans isomerization)
Cc1cc[n-]/c(=N\S(=O)(=O)c2cccc(NC(=O)c3ccc(=O)[n-]c3[O-])c2)c1 (3D coordinates assigned)
Cc1cc[n-]/c(=N\S(=O)(=O)c2cccc(NC(=O)c3ccc(=O)[n-]c3[O-])c2)c1 (optimized conformer: 56.434806105597225 kcal/mol)

>  <smiles>  (3) 
Cc1cc[nH]c(=NS(=O)(=O)c2cccc(NC(=O)c3ccc(=O)[nH]c3O)c2)c1

>  <score_type>  (3) 
oracle

>  <origin>  (3) 
adg

>  <m_score__min__energy>  (3) 
-15.91

>  <m_primary>  (3) 
energy

$$$$
3:0
     RDKit          3D

 44 46  0  0  0  0  0  0  0  0999 V2000
   57.2250   31.3990   43.6600 C   0  0  0  0  0  0  0  0  0  0  0  0
   57.0340   31.0040   45.0150 O   0  0  0  0  0  0  0  0  0  0  0  0
   57.3490   29.7350   45.5220 C   0  0  0  0  0  0  0  0  0  0  0  0
   58.5790   29.4620   46.1520 C   0  0  0  0  0  0  0  0  0  0  0  0
   58.8450   28.1840   46.6730 C   0  0  0  0  0  0  0  0  0  0  0  0
   60.1120   27.9000   47.3780 C   0  0  0  0  0  0  0  0  0  0  0  0
   60.4060   28.3300   48.6160 C   0  0  0  0  0  0  0  0  0  0  0  0
   60.1660   29.7020   49.1160 C   0  0  0  0  0  0  0  0  0  0  0  0
   60.6350   30.6700   48.4600 O   0  0  0  0  0  0  0  0  0  0  0  0
   59.4220   29.9780   50.3700 C   0  0  0  0  0  0  0  0  0  0  0  0
   58.0660   30.3320   50.3100 C   0  0  0  0  0  0  0  0  0  0  0  0
   57.3240   30.5300   51.4890 C   0  0  0  0  0  0  0  0  0  0  0  0
   55.9170   30.8540   51.4510 N   0  0  0  0  0  0  0  0  0  0  0  0
   54.8840   30.0220   52.0710 C   0  0  0  0  0  0  0  0  0  0  0  0
   53.5530   30.7300   52.0630 C   0  0  0  0  0  0  0  0  0  0  0  0
   53.0750   31.3310   50.8920 C   0  0  0  0  0  0  0  0  0  0  0  0
   51.8910   31.9970   50.9020 N   0  0  0  0  0  0  0  0  0  0  0  0
   51.1570   32.1010   52.0390 C   0  0  0  0  0  0  0  0  0  0  0  0
   50.0620   32.7190   52.0250 O   0  0  0  0  0  0  0  0  0  0  0  0
   51.6060   31.5410   53.1920 N   0  0  0  0  0  0  0  0  0  0  0  0
   52.7840   30.8660   53.2320 C   0  0  0  0  0  0  0  0  0  0  0  0
   53.1760   30.3700   54.3230 O   0  0  0  0  0  0  0  0  0  0  0  0
   57.9850   30.3910   52.7230 C   0  0  0  0  0  0  0  0  0  0  0  0
   57.3650   30.5560   53.8060 O   0  0  0  0  0  0  0  0  0  0  0  0
   59.3070   30.0810   52.7580 N   0  0  0  0  0  0  0  0  0  0  0  0
   60.0350   29.8780   51.6310 C   0  0  0  0  0  0  0  0  0  0  0  0
   61.3890   29.5840   51.7450 O   0  0  0  0  0  0  0  0  0  0  0  0
   57.9040   27.1600   46.5040 C   0  0  0  0  0  0  0  0  0  0  0  0
   56.6840   27.4260   45.8790 C   0  0  0  0  0  0  0  0  0  0  0  0
   56.4030   28.7090   45.3970 C   0  0  0  0  0  0  0  0  0  0  0  0
   55.1790   28.9600   44.7880 O   0  0  0  0  0  0  0  0  0  0  0  0
   57.7037   32.3890   43.6307 H   0  0  0  0  0  0  0  0  0  0  0  0
   57.8680   30.6656   43.1514 H   0  0  0  0  0  0  0  0  0  0  0  0
   56.2508   31.4475   43.1514 H   0  0  0  0  0  0  0  0  0  0  0  0
   59.3368   30.2548   46.2368 H   0  0  0  0  0  0  0  0  0  0  0  0
   60.8660   27.2951   46.8531 H   0  0  0  0  0  0  0  0  0  0  0  0
   60.8595   27.6077   49.3108 H   0  0  0  0  0  0  0  0  0  0  0  0
   57.5781   30.4560   49.3320 H   0  0  0  0  0  0  0  0  0  0  0  0
   55.6190   31.7270   50.9590 H   0  0  0  0  0  0  0  0  0  0  0  0
   54.7950   29.0796   51.5106 H   0  0  0  0  0  0  0  0  0  0  0  0
   55.1710   29.8207   53.1136 H   0  0  0  0  0  0  0  0  0  0  0  0
   53.6592   31.2637   49.9624 H   0  0  0  0  0  0  0  0  0  0  0  0
   58.1266   26.1448   46.8642 H   0  0  0  0  0  0  0  0  0  0  0  0
   55.9406   26.6233   45.7651 H   0  0  0  0  0  0  0  0  0  0  0  0
  1  2  1  0
  2  3  1  0
  3  4  2  0
  4  5  1  0
  5  6  1  0
  6  7  2  3
  7  8  1  0
  8  9  2  0
  8 10  1  0
 10 11  1  0
 11 12  2  0
 12 13  1  0
 13 14  1  0
 14 15  1  0
 15 16  2  0
 16 17  1  0
 17 18  1  0
 18 19  2  0
 18 20  1  0
 20 21  1  0
 21 22  2  0
 12 23  1  0
 23 24  2  0
 23 25  1  0
 25 26  1  0
 26 27  1  0
  5 28  2  0
 28 29  1  0
 29 30  2  0
 30 31  1  0
 30  3  1  0
 26 10  2  0
 21 15  1  0
  1 32  1  0
  1 33  1  0
  1 34  1  0
  4 35  1  0
  6 36  1  0
  7 37  1  0
 11 38  1  0
 13 39  1  0
 14 40  1  0
 14 41  1  0
 16 42  1  0
 28 43  1  0
 29 44  1  0
M  CHG  5  17  -1  20  -1  25  -1  27  -1  31  -1
M  END
>  <UniqueID>  (4) 
4

>  <SMILES>  (4) 
COc1cc(C=CC(=O)c2cc(NCc3c[n-]c(=O)[n-]c3=O)c(=O)[n-]c2[O-])ccc1[O-]

>  <Energy>  (4) 
59.65871739285983

>  <Genealogy>  (4) 
COc1cc(C=CC(=O)c2cc(NCc3c[n-]c(=O)[n-]c3=O)c(=O)[n-]c2[O-])ccc1[O-] (protonated)
COc1cc(C=CC(=O)c2cc(NCc3c[n-]c(=O)[n-]c3=O)c(=O)[n-]c2[O-])ccc1[O-] (3D coordinates assigned)
COc1cc(C=CC(=O)c2cc(NCc3c[n-]c(=O)[n-]c3=O)c(=O)[n-]c2[O-])ccc1[O-] (optimized conformer: 59.65871739285983 kcal/mol)

>  <smiles>  (4) 
COc1cc(C=CC(=O)c2cc(NCc3c[nH]c(=O)[nH]c3=O)c(=O)[nH]c2O)ccc1O

>  <score_type>  (4) 
oracle

>  <origin>  (4) 
adg

>  <m_score__min__energy>  (4) 
-17.079999999999998

>  <m_primary>  (4) 
energy

$$$$
4:0
     RDKit          3D

 53 56  0  0  1  0  0  0  0  0999 V2000
   60.3390   29.4140   48.7780 O   0  0  0  0  0  0  0  0  0  0  0  0
   59.5990   30.4150   48.5060 C   0  0  0  0  0  0  0  0  0  0  0  0
   59.4610   31.4670   49.4400 N   0  0  0  0  0  0  0  0  0  0  0  0
   58.5450   31.3370   50.3560 C   0  0  0  0  0  0  0  0  0  0  0  0
   58.5850   30.5110   51.4550 C   0  0  0  0  0  0  0  0  0  0  0  0
   57.3960   30.7140   52.1330 C   0  0  0  0  0  0  0  0  0  0  0  0
   56.6810   31.6210   51.4640 N   0  0  0  0  0  0  0  0  0  0  0  0
   57.3670   32.0000   50.3920 N   0  0  0  0  0  0  0  0  0  0  0  0
   58.9340   30.3880   47.2080 C   0  0  0  0  0  0  0  0  0  0  0  0
   58.2630   29.1970   46.9030 C   0  0  0  0  0  0  0  0  0  0  0  0
   57.5940   29.0820   45.6820 C   0  0  0  0  0  0  0  0  0  0  0  0
   56.9380   27.8430   45.4480 N   0  0  0  0  0  0  0  0  0  0  0  0
   57.6030   26.5910   45.4580 C   0  0  0  0  0  0  0  0  0  0  0  0
   58.8320   26.5910   45.6880 O   0  0  0  0  0  0  0  0  0  0  0  0
   56.9260   25.3190   45.2170 C   0  0  0  0  0  0  0  0  0  0  0  0
   57.6010   24.1830   44.8330 C   0  0  0  0  0  0  0  0  0  0  0  0
   56.9690   22.9740   44.6010 C   0  0  0  0  0  0  0  0  0  0  0  0
   55.6120   22.8750   44.7540 C   0  0  0  0  0  0  0  0  0  0  0  0
   54.9210   23.9890   45.1350 C   0  0  0  0  0  0  0  0  0  0  0  0
   53.5630   23.8980   45.2900 F   0  0  0  0  0  0  0  0  0  0  0  0
   55.5500   25.2150   45.3720 C   0  0  0  0  0  0  0  0  0  0  0  0
   54.8090   26.3230   45.7570 O   0  0  0  0  0  0  0  0  0  0  0  0
   57.5930   30.1290   44.7870 C   0  0  0  0  0  0  0  0  0  0  0  0
   58.2620   31.2780   45.1250 C   0  0  0  0  0  0  0  0  0  0  0  0
   58.9410   31.4320   46.3330 C   0  0  0  0  0  0  0  0  0  0  0  0
   59.6330   32.6470   46.6450 N   0  0  0  0  0  0  0  0  0  0  0  0
   58.8520   33.8420   46.8480 C   0  0  0  0  0  0  0  0  0  0  0  0
   59.5660   34.9850   47.4710 C   0  0  0  0  0  0  0  0  0  0  0  0
   60.7920   34.5610   48.2140 C   0  0  0  0  0  0  0  0  0  0  0  0
   61.7330   33.7520   47.3440 C   0  0  0  0  0  0  0  0  0  0  0  0
   61.0720   32.5660   46.7290 C   0  0  0  0  0  0  0  0  0  0  0  0
   59.3985   29.8267   51.7380 H   0  0  0  0  0  0  0  0  0  0  0  0
   57.0920   30.2135   53.0642 H   0  0  0  0  0  0  0  0  0  0  0  0
   55.7490   31.9700   51.7330 H   0  0  0  0  0  0  0  0  0  0  0  0
   57.0070   32.7060   49.7150 H   0  0  0  0  0  0  0  0  0  0  0  0
   58.2628   28.3607   47.6176 H   0  0  0  0  0  0  0  0  0  0  0  0
   55.9160   27.8870   45.2590 H   0  0  0  0  0  0  0  0  0  0  0  0
   58.6921   24.2384   44.7047 H   0  0  0  0  0  0  0  0  0  0  0  0
   57.5551   22.0951   44.2946 H   0  0  0  0  0  0  0  0  0  0  0  0
   55.0920   21.9224   44.5746 H   0  0  0  0  0  0  0  0  0  0  0  0
   54.0180   26.3080   46.3890 H   0  0  0  0  0  0  0  0  0  0  0  0
   57.0681   30.0458   43.8239 H   0  0  0  0  0  0  0  0  0  0  0  0
   58.2628   32.1150   44.4113 H   0  0  0  0  0  0  0  0  0  0  0  0
   58.4792   34.1717   45.8670 H   0  0  0  0  0  0  0  0  0  0  0  0
   58.0598   33.5629   47.5583 H   0  0  0  0  0  0  0  0  0  0  0  0
   59.8599   35.6903   46.6797 H   0  0  0  0  0  0  0  0  0  0  0  0
   58.8816   35.4503   48.1956 H   0  0  0  0  0  0  0  0  0  0  0  0
   61.3200   35.4583   48.5690 H   0  0  0  0  0  0  0  0  0  0  0  0
   60.4765   33.9256   49.0547 H   0  0  0  0  0  0  0  0  0  0  0  0
   62.1128   34.3994   46.5399 H   0  0  0  0  0  0  0  0  0  0  0  0
   62.5453   33.3829   47.9874 H   0  0  0  0  0  0  0  0  0  0  0  0
   61.4674   32.4449   45.7097 H   0  0  0  0  0  0  0  0  0  0  0  0
   61.2949   31.7132   47.3870 H   0  0  0  0  0  0  0  0  0  0  0  0
  1  2  2  0
  2  3  1  0
  3  4  2  0
  4  5  1  0
  5  6  2  0
  6  7  1  0
  7  8  1  0
  2  9  1  0
  9 10  2  0
 10 11  1  0
 11 12  1  0
 12 13  1  0
 13 14  2  0
 13 15  1  0
 15 16  2  0
 16 17  1  0
 17 18  2  0
 18 19  1  0
 19 20  1  0
 19 21  2  0
 21 22  1  0
 11 23  2  0
 23 24  1  0
 24 25  2  0
 25 26  1  0
 26 27  1  0
 27 28  1  0
 28 29  1  0
 29 30  1  0
 30 31  1  0
  8  4  1  0
 25  9  1  0
 31 26  1  0
 21 15  1  0
  5 32  1  0
  6 33  1  0
  7 34  1  0
  8 35  1  0
 10 36  1  0
 12 37  1  0
 16 38  1  0
 17 39  1  0
 18 40  1  0
 22 41  1  0
 23 42  1  0
 24 43  1  0
 27 44  1  0
 27 45  1  0
 28 46  1  0
 28 47  1  0
 29 48  1  0
 29 49  1  0
 30 50  1  0
 30 51  1  0
 31 52  1  0
 31 53  1  0
M  END
>  <smiles>  (5) 
O=C(N=c1cc[nH][nH]1)c1cc(NC(=O)c2cccc(F)c2O)ccc1N1CCCCC1

>  <score_type>  (5) 
oracle

>  <origin>  (5) 
adg

>  <m_score__min__energy>  (5) 
-10.140000000000001

>  <m_primary>  (5) 
energy

$$$$
5:0
     RDKit          3D

 17 17  0  0  0  0  0  0  0  0999 V2000
   56.2740   30.0850   51.8170 O   0  0  0  0  0  0  0  0  0  0  0  0
   55.3560   30.4040   52.5570 C   0  0  0  0  0  0  0  0  0  0  0  0
   54.0720   29.6330   52.5500 C   0  0  0  0  0  0  0  0  0  0  0  0
   53.0390   30.3360   51.7140 C   0  0  0  0  0  0  0  0  0  0  0  0
   52.4990   31.5600   52.1320 C   0  0  0  0  0  0  0  0  0  0  0  0
   51.5630   32.2130   51.3270 C   0  0  0  0  0  0  0  0  0  0  0  0
   51.0240   33.4240   51.7460 O   0  0  0  0  0  0  0  0  0  0  0  0
   51.1790   31.6680   50.1360 N   0  0  0  0  0  0  0  0  0  0  0  0
   50.2540   32.3290   49.3600 O   0  0  0  0  0  0  0  0  0  0  0  0
   51.7010   30.4840   49.7020 C   0  0  0  0  0  0  0  0  0  0  0  0
   51.3400   30.0000   48.5960 O   0  0  0  0  0  0  0  0  0  0  0  0
   52.6420   29.8010   50.4810 C   0  0  0  0  0  0  0  0  0  0  0  0
   55.4732   31.2636   53.2333 H   0  0  0  0  0  0  0  0  0  0  0  0
   54.2538   28.6312   52.1336 H   0  0  0  0  0  0  0  0  0  0  0  0
   53.6997   29.5534   53.5820 H   0  0  0  0  0  0  0  0  0  0  0  0
   52.8107   32.0039   53.0890 H   0  0  0  0  0  0  0  0  0  0  0  0
   53.0674   28.8501   50.1277 H   0  0  0  0  0  0  0  0  0  0  0  0
  1  2  2  0
  2  3  1  0
  3  4  1  0
  4  5  1  0
  5  6  2  0
  6  7  1  0
  6  8  1  0
  8  9  1  0
  8 10  1  0
 10 11  2  0
 10 12  1  0
 12  4  2  0
  2 13  1  0
  3 14  1  0
  3 15  1  0
  5 16  1  0
 12 17  1  0
M  CHG  2   7  -1   9  -1
M  END
>  <UniqueID>  (6) 
5

>  <SMILES>  (6) 
O=CCc1cc([O-])n([O-])c(=O)c1

>  <Energy>  (6) 
14.807632000722908

>  <Genealogy>  (6) 
O=CCc1cc([O-])n([O-])c(=O)c1 (protonated)
O=CCc1cc([O-])n([O-])c(=O)c1 (3D coordinates assigned)
O=CCc1cc([O-])n([O-])c(=O)c1 (optimized conformer: 14.807632000722908 kcal/mol)

>  <smiles>  (6) 
O=CCc1cc(O)n(O)c(=O)c1

>  <score_type>  (6) 
oracle

>  <origin>  (6) 
adg

>  <m_score__min__energy>  (6) 
-14.869999999999999

>  <m_primary>  (6) 
energy

$$$$
6:0
     RDKit          3D

 63 67  0  0  0  0  0  0  0  0999 V2000
   53.4390   24.2270   45.3800 O   0  0  0  0  0  0  0  0  0  0  0  0
   54.5680   24.6130   45.7830 C   0  0  0  0  0  0  0  0  0  0  0  0
   55.5510   23.6290   46.3450 C   0  0  0  0  0  0  0  0  0  0  0  0
   56.4240   24.2830   47.4270 C   0  0  0  0  0  0  0  0  0  0  0  0
   56.9640   25.6240   46.9910 C   0  0  0  0  0  0  0  0  0  0  0  0
   58.1810   26.0990   47.5020 C   0  0  0  0  0  0  0  0  0  0  0  0
   58.6410   27.3790   47.1590 C   0  0  0  0  0  0  0  0  0  0  0  0
   60.2020   27.9430   47.7470 S   0  0  0  0  0  0  0  0  0  0  0  0
   60.6460   29.1090   46.9090 O   0  0  0  0  0  0  0  0  0  0  0  0
   61.2250   26.8500   47.6200 O   0  0  0  0  0  0  0  0  0  0  0  0
   60.1060   28.4440   49.4030 N   0  0  0  0  0  0  0  0  0  0  0  0
   60.7690   27.7430   50.4590 C   0  0  0  0  0  0  0  0  0  0  0  0
   60.7970   26.3400   50.4650 C   0  0  0  0  0  0  0  0  0  0  0  0
   61.4150   25.6490   51.5090 C   0  0  0  0  0  0  0  0  0  0  0  0
   61.9940   26.3510   52.5670 C   0  0  0  0  0  0  0  0  0  0  0  0
   61.9510   27.7470   52.5860 C   0  0  0  0  0  0  0  0  0  0  0  0
   61.3470   28.4560   51.5330 C   0  0  0  0  0  0  0  0  0  0  0  0
   61.2900   29.9650   51.5950 C   0  0  0  0  0  0  0  0  0  0  0  0
   62.1960   30.5940   50.5680 C   0  0  0  0  0  0  0  0  0  0  0  0
   63.3900   30.1960   50.4720 O   0  0  0  0  0  0  0  0  0  0  0  0
   61.7310   31.6490   49.7030 N   0  0  0  0  0  0  0  0  0  0  0  0
   60.7120   32.6160   50.1340 C   0  0  0  0  0  0  0  0  0  0  0  0
   59.6150   32.7060   49.0710 C   0  0  0  0  0  0  0  0  0  0  0  0
   60.1890   32.8400   47.7230 N   0  0  0  0  0  0  0  0  0  0  0  0
   59.3260   33.1820   46.6240 C   0  0  0  0  0  0  0  0  0  0  0  0
   59.4720   34.4220   45.9810 C   0  0  0  0  0  0  0  0  0  0  0  0
   58.6360   34.7690   44.9160 C   0  0  0  0  0  0  0  0  0  0  0  0
   57.6490   33.8800   44.4820 C   0  0  0  0  0  0  0  0  0  0  0  0
   57.5010   32.6400   45.1080 C   0  0  0  0  0  0  0  0  0  0  0  0
   58.3400   32.2810   46.1740 C   0  0  0  0  0  0  0  0  0  0  0  0
   58.2100   31.0290   46.7710 O   0  0  0  0  0  0  0  0  0  0  0  0
   61.6460   32.8780   47.5380 C   0  0  0  0  0  0  0  0  0  0  0  0
   62.3170   31.7690   48.3580 C   0  0  0  0  0  0  0  0  0  0  0  0
   57.8710   28.1920   46.3150 C   0  0  0  0  0  0  0  0  0  0  0  0
   56.6480   27.7330   45.8210 C   0  0  0  0  0  0  0  0  0  0  0  0
   56.1920   26.4550   46.1540 C   0  0  0  0  0  0  0  0  0  0  0  0
   54.9470   25.9830   45.6300 N   0  0  0  0  0  0  0  0  0  0  0  0
   55.0023   22.7843   46.7870 H   0  0  0  0  0  0  0  0  0  0  0  0
   56.2032   23.2799   45.5309 H   0  0  0  0  0  0  0  0  0  0  0  0
   55.8179   24.4232   48.3342 H   0  0  0  0  0  0  0  0  0  0  0  0
   57.2807   23.6194   47.6163 H   0  0  0  0  0  0  0  0  0  0  0  0
   58.7772   25.4649   48.1746 H   0  0  0  0  0  0  0  0  0  0  0  0
   60.3288   25.7808   49.6415 H   0  0  0  0  0  0  0  0  0  0  0  0
   61.4456   24.5495   51.4975 H   0  0  0  0  0  0  0  0  0  0  0  0
   62.4844   25.8048   53.3863 H   0  0  0  0  0  0  0  0  0  0  0  0
   62.3929   28.2955   53.4309 H   0  0  0  0  0  0  0  0  0  0  0  0
   60.2564   30.2917   51.4080 H   0  0  0  0  0  0  0  0  0  0  0  0
   61.6263   30.2826   52.5930 H   0  0  0  0  0  0  0  0  0  0  0  0
   60.2732   32.2864   51.0873 H   0  0  0  0  0  0  0  0  0  0  0  0
   61.1763   33.6042   50.2674 H   0  0  0  0  0  0  0  0  0  0  0  0
   59.0016   31.7938   49.1105 H   0  0  0  0  0  0  0  0  0  0  0  0
   59.0019   33.5955   49.2781 H   0  0  0  0  0  0  0  0  0  0  0  0
   60.2489   35.1243   46.3175 H   0  0  0  0  0  0  0  0  0  0  0  0
   58.7551   35.7430   44.4189 H   0  0  0  0  0  0  0  0  0  0  0  0
   56.9884   34.1568   43.6471 H   0  0  0  0  0  0  0  0  0  0  0  0
   56.7235   31.9421   44.7639 H   0  0  0  0  0  0  0  0  0  0  0  0
   59.0090   30.5320   47.1460 H   0  0  0  0  0  0  0  0  0  0  0  0
   61.8802   32.7338   46.4729 H   0  0  0  0  0  0  0  0  0  0  0  0
   62.0242   33.8531   47.8789 H   0  0  0  0  0  0  0  0  0  0  0  0
   62.1936   30.8121   47.8298 H   0  0  0  0  0  0  0  0  0  0  0  0
   63.3807   32.0254   48.4715 H   0  0  0  0  0  0  0  0  0  0  0  0
   58.2314   29.1945   46.0411 H   0  0  0  0  0  0  0  0  0  0  0  0
   56.0424   28.3790   45.1683 H   0  0  0  0  0  0  0  0  0  0  0  0
  1  2  2  0
  2  3  1  0
  3  4  1  0
  4  5  1  0
  5  6  2  0
  6  7  1  0
  7  8  1  0
  8  9  2  0
  8 10  2  0
  8 11  1  0
 11 12  1  0
 12 13  2  0
 13 14  1  0
 14 15  2  0
 15 16  1  0
 16 17  2  0
 17 18  1  0
 18 19  1  0
 19 20  2  0
 19 21  1  0
 21 22  1  0
 22 23  1  0
 23 24  1  0
 24 25  1  0
 25 26  2  0
 26 27  1  0
 27 28  2  0
 28 29  1  0
 29 30  2  0
 30 31  1  0
 24 32  1  0
 32 33  1  0
  7 34  2  0
 34 35  1  0
 35 36  2  0
 36 37  1  0
 37  2  1  0
 36  5  1  0
 17 12  1  0
 33 21  1  0
 30 25  1  0
  3 38  1  0
  3 39  1  0
  4 40  1  0
  4 41  1  0
  6 42  1  0
 13 43  1  0
 14 44  1  0
 15 45  1  0
 16 46  1  0
 18 47  1  0
 18 48  1  0
 22 49  1  0
 22 50  1  0
 23 51  1  0
 23 52  1  0
 26 53  1  0
 27 54  1  0
 28 55  1  0
 29 56  1  0
 31 57  1  0
 32 58  1  0
 32 59  1  0
 33 60  1  0
 33 61  1  0
 34 62  1  0
 35 63  1  0
M  CHG  2  11  -1  37  -1
M  END
>  <UniqueID>  (7) 
6

>  <SMILES>  (7) 
O=C1CCc2cc(S(=O)(=O)[N-]c3ccccc3CC(=O)N3CCN(c4ccccc4O)CC3)ccc2[N-]1

>  <Energy>  (7) 
83.67121297632708

>  <Genealogy>  (7) 
O=C1CCc2cc(S(=O)(=O)[N-]c3ccccc3CC(=O)N3CCN(c4ccccc4O)CC3)ccc2[N-]1 (protonated)
O=C1CCc2cc(S(=O)(=O)[N-]c3ccccc3CC(=O)N3CCN(c4ccccc4O)CC3)ccc2[N-]1 (3D coordinates assigned)
O=C1CCc2cc(S(=O)(=O)[N-]c3ccccc3CC(=O)N3CCN(c4ccccc4O)CC3)ccc2[N-]1 (nonaromatic ring conformer: 83.67121297632708 kcal/mol)

>  <smiles>  (7) 
O=C1CCc2cc(S(=O)(=O)Nc3ccccc3CC(=O)N3CCN(c4ccccc4O)CC3)ccc2N1

>  <score_type>  (7) 
oracle

>  <origin>  (7) 
adg

>  <m_score__min__energy>  (7) 
-13.369999999999999

>  <m_primary>  (7) 
energy

$$$$
7:0
     RDKit          3D

 43 45  0  0  0  0  0  0  0  0999 V2000
   59.1310   25.9750   46.0650 C   0  0  0  0  0  0  0  0  0  0  0  0
   57.8650   26.3980   46.7690 C   0  0  0  0  0  0  0  0  0  0  0  0
   57.8310   27.4300   47.5670 N   0  0  0  0  0  0  0  0  0  0  0  0
   58.4190   28.7200   47.3430 C   0  0  0  0  0  0  0  0  0  0  0  0
   59.1820   29.3050   48.3600 C   0  0  0  0  0  0  0  0  0  0  0  0
   59.7960   30.5450   48.1590 C   0  0  0  0  0  0  0  0  0  0  0  0
   59.6740   31.2040   46.9260 C   0  0  0  0  0  0  0  0  0  0  0  0
   60.3270   32.5460   46.7230 C   0  0  0  0  0  0  0  0  0  0  0  0
   59.4090   33.6290   47.1390 N   0  0  0  0  0  0  0  0  0  0  0  0
   59.6470   34.8760   46.3880 C   0  0  0  0  0  0  0  0  0  0  0  0
   59.1790   34.7680   44.9210 C   0  0  0  0  0  0  0  0  0  0  0  0
   57.9770   33.9310   44.7440 N   0  0  0  0  0  0  0  0  0  0  0  0
   57.1740   33.8460   45.9680 C   0  0  0  0  0  0  0  0  0  0  0  0
   57.9810   33.2170   47.1200 C   0  0  0  0  0  0  0  0  0  0  0  0
   58.9380   30.6020   45.8940 C   0  0  0  0  0  0  0  0  0  0  0  0
   58.3230   29.3620   46.0970 C   0  0  0  0  0  0  0  0  0  0  0  0
   56.6000   25.6620   46.5090 C   0  0  0  0  0  0  0  0  0  0  0  0
   55.4760   26.3080   45.9580 C   0  0  0  0  0  0  0  0  0  0  0  0
   55.5200   27.6550   45.6150 O   0  0  0  0  0  0  0  0  0  0  0  0
   54.3330   25.6100   45.7330 N   0  0  0  0  0  0  0  0  0  0  0  0
   54.2490   24.2880   46.0220 C   0  0  0  0  0  0  0  0  0  0  0  0
   53.1780   23.6640   45.8040 O   0  0  0  0  0  0  0  0  0  0  0  0
   55.3170   23.6370   46.5450 N   0  0  0  0  0  0  0  0  0  0  0  0
   56.4830   24.2870   46.7940 C   0  0  0  0  0  0  0  0  0  0  0  0
   57.4470   23.6460   47.2940 O   0  0  0  0  0  0  0  0  0  0  0  0
   59.8975   25.7189   46.8113 H   0  0  0  0  0  0  0  0  0  0  0  0
   58.9245   25.0970   45.4353 H   0  0  0  0  0  0  0  0  0  0  0  0
   59.4938   26.8007   45.4353 H   0  0  0  0  0  0  0  0  0  0  0  0
   59.2993   28.7863   49.3229 H   0  0  0  0  0  0  0  0  0  0  0  0
   60.3773   31.0061   48.9711 H   0  0  0  0  0  0  0  0  0  0  0  0
   61.2462   32.5976   47.3250 H   0  0  0  0  0  0  0  0  0  0  0  0
   60.5687   32.6700   45.6571 H   0  0  0  0  0  0  0  0  0  0  0  0
   59.0978   35.6945   46.8763 H   0  0  0  0  0  0  0  0  0  0  0  0
   60.7300   35.0684   46.3850 H   0  0  0  0  0  0  0  0  0  0  0  0
   58.9554   35.7799   44.5520 H   0  0  0  0  0  0  0  0  0  0  0  0
   59.9924   34.2872   44.3578 H   0  0  0  0  0  0  0  0  0  0  0  0
   58.2640   32.9640   44.4660 H   0  0  0  0  0  0  0  0  0  0  0  0
   56.8586   34.8581   46.2614 H   0  0  0  0  0  0  0  0  0  0  0  0
   56.2989   33.2104   45.7676 H   0  0  0  0  0  0  0  0  0  0  0  0
   57.5196   33.5170   48.0724 H   0  0  0  0  0  0  0  0  0  0  0  0
   57.9611   32.1273   46.9711 H   0  0  0  0  0  0  0  0  0  0  0  0
   58.8442   31.1072   44.9214 H   0  0  0  0  0  0  0  0  0  0  0  0
   57.7622   28.8879   45.2780 H   0  0  0  0  0  0  0  0  0  0  0  0
  1  2  1  0
  2  3  2  3
  3  4  1  0
  4  5  2  0
  5  6  1  0
  6  7  2  0
  7  8  1  0
  8  9  1  0
  9 10  1  0
 10 11  1  0
 11 12  1  0
 12 13  1  0
 13 14  1  0
  7 15  1  0
 15 16  2  0
  2 17  1  0
 17 18  2  0
 18 19  1  0
 18 20  1  0
 20 21  1  0
 21 22  2  0
 21 23  1  0
 23 24  1  0
 24 25  2  0
 16  4  1  0
 24 17  1  0
 14  9  1  0
  1 26  1  0
  1 27  1  0
  1 28  1  0
  5 29  1  0
  6 30  1  0
  8 31  1  0
  8 32  1  0
 10 33  1  0
 10 34  1  0
 11 35  1  0
 11 36  1  0
 12 37  1  0
 13 38  1  0
 13 39  1  0
 14 40  1  0
 14 41  1  0
 15 42  1  0
 16 43  1  0
M  CHG  3  19  -1  20  -1  23  -1
M  END
>  <UniqueID>  (8) 
7

>  <SMILES>  (8) 
CC(=Nc1ccc(CN2CCNCC2)cc1)c1c([O-])[n-]c(=O)[n-]c1=O

>  <Energy>  (8) 
69.18679170419288

>  <Genealogy>  (8) 
CC(=Nc1ccc(CN2CCNCC2)cc1)c1c([O-])[n-]c(=O)[n-]c1=O (protonated)
CC(=Nc1ccc(CN2CCNCC2)cc1)c1c([O-])[n-]c(=O)[n-]c1=O (3D coordinates assigned)
CC(=Nc1ccc(CN2CCNCC2)cc1)c1c([O-])[n-]c(=O)[n-]c1=O (nonaromatic ring conformer: 69.18679170419288 kcal/mol)

>  <smiles>  (8) 
CC(=Nc1ccc(CN2CCNCC2)cc1)c1c(O)[nH]c(=O)[nH]c1=O

>  <score_type>  (8) 
oracle

>  <origin>  (8) 
adg

>  <m_score__min__energy>  (8) 
-15.119999999999999

>  <m_primary>  (8) 
energy

$$$$
8:0
     RDKit          3D

 46 48  0  0  0  0  0  0  0  0999 V2000
   54.9130   29.3330   44.4600 N   0  0  0  0  0  0  0  0  0  0  0  0
   56.4640   30.0920   44.4140 S   0  0  0  0  0  0  0  0  0  0  0  0
   56.3310   31.5350   44.8160 O   0  0  0  0  0  0  0  0  0  0  0  0
   57.0150   30.0280   43.0170 O   0  0  0  0  0  0  0  0  0  0  0  0
   57.5470   29.2690   45.5300 C   0  0  0  0  0  0  0  0  0  0  0  0
   57.3670   27.9130   45.8320 C   0  0  0  0  0  0  0  0  0  0  0  0
   58.2300   27.2680   46.7230 C   0  0  0  0  0  0  0  0  0  0  0  0
   59.2900   27.9730   47.3150 C   0  0  0  0  0  0  0  0  0  0  0  0
   60.2340   27.2860   48.2640 C   0  0  0  0  0  0  0  0  0  0  0  0
   60.8570   28.2580   49.1560 N   0  0  0  0  0  0  0  0  0  0  0  0
   60.3630   28.6060   50.4550 C   0  0  0  0  0  0  0  0  0  0  0  0
   60.5460   27.8080   51.4120 O   0  0  0  0  0  0  0  0  0  0  0  0
   59.6390   29.8720   50.7000 C   0  0  0  0  0  0  0  0  0  0  0  0
   59.9940   31.0700   50.0400 C   0  0  0  0  0  0  0  0  0  0  0  0
   60.9830   31.0300   48.9910 N   0  0  0  0  0  0  0  0  0  0  0  0
   59.3700   32.2530   50.3870 N   0  0  0  0  0  0  0  0  0  0  0  0
   59.7920   33.5430   49.7970 C   0  0  0  0  0  0  0  0  0  0  0  0
   59.3780   33.6630   48.3490 C   0  0  0  0  0  0  0  0  0  0  0  0
   60.1400   34.4450   47.4620 C   0  0  0  0  0  0  0  0  0  0  0  0
   59.7230   34.6220   46.1410 C   0  0  0  0  0  0  0  0  0  0  0  0
   58.5400   34.0310   45.6940 C   0  0  0  0  0  0  0  0  0  0  0  0
   57.7690   33.2640   46.5690 C   0  0  0  0  0  0  0  0  0  0  0  0
   58.1830   33.0810   47.8920 C   0  0  0  0  0  0  0  0  0  0  0  0
   58.3580   32.2370   51.3190 C   0  0  0  0  0  0  0  0  0  0  0  0
   57.7450   33.2950   51.6290 O   0  0  0  0  0  0  0  0  0  0  0  0
   58.0010   31.0830   51.9300 N   0  0  0  0  0  0  0  0  0  0  0  0
   58.6200   29.9130   51.6580 C   0  0  0  0  0  0  0  0  0  0  0  0
   58.2800   28.8750   52.2850 O   0  0  0  0  0  0  0  0  0  0  0  0
   59.4650   29.3330   47.0140 C   0  0  0  0  0  0  0  0  0  0  0  0
   58.5950   29.9780   46.1320 C   0  0  0  0  0  0  0  0  0  0  0  0
   54.5720   29.3930   45.4460 H   0  0  0  0  0  0  0  0  0  0  0  0
   56.5428   27.3531   45.3659 H   0  0  0  0  0  0  0  0  0  0  0  0
   58.0780   26.2048   46.9609 H   0  0  0  0  0  0  0  0  0  0  0  0
   59.6752   26.5514   48.8623 H   0  0  0  0  0  0  0  0  0  0  0  0
   61.0196   26.7815   47.6823 H   0  0  0  0  0  0  0  0  0  0  0  0
   61.4010   31.9030   48.6010 H   0  0  0  0  0  0  0  0  0  0  0  0
   61.3900   30.1440   48.6270 H   0  0  0  0  0  0  0  0  0  0  0  0
   59.3311   34.3627   50.3677 H   0  0  0  0  0  0  0  0  0  0  0  0
   60.8898   33.5958   49.8430 H   0  0  0  0  0  0  0  0  0  0  0  0
   61.0691   34.9195   47.8107 H   0  0  0  0  0  0  0  0  0  0  0  0
   60.3282   35.2285   45.4511 H   0  0  0  0  0  0  0  0  0  0  0  0
   58.2154   34.1697   44.6522 H   0  0  0  0  0  0  0  0  0  0  0  0
   56.8343   32.8028   46.2173 H   0  0  0  0  0  0  0  0  0  0  0  0
   57.5703   32.4784   48.5787 H   0  0  0  0  0  0  0  0  0  0  0  0
   60.2915   29.8935   47.4751 H   0  0  0  0  0  0  0  0  0  0  0  0
   58.7330   31.0463   45.9092 H   0  0  0  0  0  0  0  0  0  0  0  0
  1  2  1  0
  2  3  2  0
  2  4  2  0
  2  5  1  0
  5  6  2  0
  6  7  1  0
  7  8  2  0
  8  9  1  0
  9 10  1  0
 10 11  1  0
 11 12  2  0
 11 13  1  0
 13 14  2  0
 14 15  1  0
 14 16  1  0
 16 17  1  0
 17 18  1  0
 18 19  2  0
 19 20  1  0
 20 21  2  0
 21 22  1  0
 22 23  2  0
 16 24  1  0
 24 25  2  0
 24 26  1  0
 26 27  1  0
 27 28  2  0
  8 29  1  0
 29 30  2  0
 30  5  1  0
 27 13  1  0
 23 18  1  0
  1 31  1  0
  6 32  1  0
  7 33  1  0
  9 34  1  0
  9 35  1  0
 15 36  1  0
 15 37  1  0
 17 38  1  0
 17 39  1  0
 19 40  1  0
 20 41  1  0
 21 42  1  0
 22 43  1  0
 23 44  1  0
 29 45  1  0
 30 46  1  0
M  CHG  3   1  -1  10  -1  26  -1
M  END
>  <UniqueID>  (9) 
8

>  <SMILES>  (9) 
[NH-]S(=O)(=O)c1ccc(C[N-]C(=O)c2c(N)n(Cc3ccccc3)c(=O)[n-]c2=O)cc1

>  <Energy>  (9) 
55.72955666056531

>  <Genealogy>  (9) 
[NH-]S(=O)(=O)c1ccc(C[N-]C(=O)c2c(N)n(Cc3ccccc3)c(=O)[n-]c2=O)cc1 (protonated)
[NH-]S(=O)(=O)c1ccc(C[N-]C(=O)c2c(N)n(Cc3ccccc3)c(=O)[n-]c2=O)cc1 (3D coordinates assigned)
[NH-]S(=O)(=O)c1ccc(C[N-]C(=O)c2c(N)n(Cc3ccccc3)c(=O)[n-]c2=O)cc1 (optimized conformer: 55.72955666056531 kcal/mol)

>  <smiles>  (9) 
Nc1c(C(=O)NCc2ccc(S(N)(=O)=O)cc2)c(=O)[nH]c(=O)n1Cc1ccccc1

>  <score_type>  (9) 
oracle

>  <origin>  (9) 
adg

>  <m_score__min__energy>  (9) 
-12.85

>  <m_primary>  (9) 
energy

$$$$
9:0
     RDKit          3D

 48 50  0  0  0  0  0  0  0  0999 V2000
   55.1370   29.3370   44.9140 N   0  0  0  0  0  0  0  0  0  0  0  0
   56.7180   29.6470   44.2890 S   0  0  0  0  0  0  0  0  0  0  0  0
   56.7820   29.2360   42.8450 O   0  0  0  0  0  0  0  0  0  0  0  0
   56.9970   31.1210   44.3880 O   0  0  0  0  0  0  0  0  0  0  0  0
   57.9140   28.7300   45.2100 C   0  0  0  0  0  0  0  0  0  0  0  0
   59.2180   29.2310   45.3480 C   0  0  0  0  0  0  0  0  0  0  0  0
   60.1790   28.5150   46.0650 C   0  0  0  0  0  0  0  0  0  0  0  0
   59.8460   27.2960   46.6540 C   0  0  0  0  0  0  0  0  0  0  0  0
   58.5520   26.7850   46.5240 C   0  0  0  0  0  0  0  0  0  0  0  0
   57.5800   27.4870   45.7860 C   0  0  0  0  0  0  0  0  0  0  0  0
   56.2390   26.9840   45.6630 N   0  0  0  0  0  0  0  0  0  0  0  0
   55.7750   25.7070   46.1150 C   0  0  0  0  0  0  0  0  0  0  0  0
   56.2160   25.2030   47.1830 O   0  0  0  0  0  0  0  0  0  0  0  0
   54.8260   24.9180   45.2690 C   0  0  0  0  0  0  0  0  0  0  0  0
   55.0850   23.5210   45.4020 O   0  0  0  0  0  0  0  0  0  0  0  0
   56.0900   22.8030   44.7320 C   0  0  0  0  0  0  0  0  0  0  0  0
   55.9890   22.4690   43.3660 C   0  0  0  0  0  0  0  0  0  0  0  0
   57.0340   21.8020   42.7210 C   0  0  0  0  0  0  0  0  0  0  0  0
   58.1900   21.4650   43.4250 C   0  0  0  0  0  0  0  0  0  0  0  0
   58.2970   21.7780   44.7800 C   0  0  0  0  0  0  0  0  0  0  0  0
   57.2470   22.4210   45.4470 C   0  0  0  0  0  0  0  0  0  0  0  0
   57.4020   22.7060   46.8110 O   0  0  0  0  0  0  0  0  0  0  0  0
   56.6400   22.1230   47.8300 C   0  0  0  0  0  0  0  0  0  0  0  0
   57.0440   21.0790   48.4130 O   0  0  0  0  0  0  0  0  0  0  0  0
   55.3960   22.7310   48.2020 N   0  0  0  0  0  0  0  0  0  0  0  0
   54.6060   22.3320   49.3350 C   0  0  0  0  0  0  0  0  0  0  0  0
   53.2160   22.5300   49.3080 C   0  0  0  0  0  0  0  0  0  0  0  0
   52.4280   22.1700   50.4060 C   0  0  0  0  0  0  0  0  0  0  0  0
   53.0230   21.6250   51.5460 C   0  0  0  0  0  0  0  0  0  0  0  0
   54.4080   21.4460   51.5930 C   0  0  0  0  0  0  0  0  0  0  0  0
   55.2000   21.8040   50.4960 C   0  0  0  0  0  0  0  0  0  0  0  0
   55.2380   28.5920   45.6400 H   0  0  0  0  0  0  0  0  0  0  0  0
   59.4847   30.1941   44.8883 H   0  0  0  0  0  0  0  0  0  0  0  0
   61.1995   28.9131   46.1651 H   0  0  0  0  0  0  0  0  0  0  0  0
   60.6032   26.7356   47.2220 H   0  0  0  0  0  0  0  0  0  0  0  0
   58.2912   25.8287   47.0010 H   0  0  0  0  0  0  0  0  0  0  0  0
   53.7947   25.1276   45.5892 H   0  0  0  0  0  0  0  0  0  0  0  0
   54.9610   25.2074   44.2164 H   0  0  0  0  0  0  0  0  0  0  0  0
   55.0816   22.7352   42.8042 H   0  0  0  0  0  0  0  0  0  0  0  0
   56.9447   21.5422   41.6559 H   0  0  0  0  0  0  0  0  0  0  0  0
   59.0170   20.9525   42.9117 H   0  0  0  0  0  0  0  0  0  0  0  0
   59.2138   21.5176   45.3292 H   0  0  0  0  0  0  0  0  0  0  0  0
   54.9960   23.4390   47.5450 H   0  0  0  0  0  0  0  0  0  0  0  0
   52.7440   22.9710   48.4177 H   0  0  0  0  0  0  0  0  0  0  0  0
   51.3383   22.3163   50.3717 H   0  0  0  0  0  0  0  0  0  0  0  0
   52.4015   21.3368   52.4066 H   0  0  0  0  0  0  0  0  0  0  0  0
   54.8767   21.0230   52.4938 H   0  0  0  0  0  0  0  0  0  0  0  0
   56.2911   21.6721   50.5417 H   0  0  0  0  0  0  0  0  0  0  0  0
  1  2  1  0
  2  3  2  0
  2  4  2  0
  2  5  1  0
  5  6  2  0
  6  7  1  0
  7  8  2  0
  8  9  1  0
  9 10  2  0
 10 11  1  0
 11 12  1  0
 12 13  2  0
 12 14  1  0
 14 15  1  0
 15 16  1  0
 16 17  2  0
 17 18  1  0
 18 19  2  0
 19 20  1  0
 20 21  2  0
 21 22  1  0
 22 23  1  0
 23 24  2  0
 23 25  1  0
 25 26  1  0
 26 27  2  0
 27 28  1  0
 28 29  2  0
 29 30  1  0
 30 31  2  0
 10  5  1  0
 21 16  1  0
 31 26  1  0
  1 32  1  0
  6 33  1  0
  7 34  1  0
  8 35  1  0
  9 36  1  0
 14 37  1  0
 14 38  1  0
 17 39  1  0
 18 40  1  0
 19 41  1  0
 20 42  1  0
 25 43  1  0
 27 44  1  0
 28 45  1  0
 29 46  1  0
 30 47  1  0
 31 48  1  0
M  CHG  2   1  -1  11  -1
M  END
>  <UniqueID>  (10) 
9

>  <SMILES>  (10) 
[NH-]S(=O)(=O)c1ccccc1[N-]C(=O)COc1ccccc1OC(=O)Nc1ccccc1

>  <Energy>  (10) 
62.22032926989

>  <Genealogy>  (10) 
[NH-]S(=O)(=O)c1ccccc1[N-]C(=O)COc1ccccc1OC(=O)Nc1ccccc1 (protonated)
[NH-]S(=O)(=O)c1ccccc1[N-]C(=O)COc1ccccc1OC(=O)Nc1ccccc1 (3D coordinates assigned)
[NH-]S(=O)(=O)c1ccccc1[N-]C(=O)COc1ccccc1OC(=O)Nc1ccccc1 (optimized conformer: 62.22032926989 kcal/mol)

>  <smiles>  (10) 
NS(=O)(=O)c1ccccc1NC(=O)COc1ccccc1OC(=O)Nc1ccccc1

>  <score_type>  (10) 
oracle

>  <origin>  (10) 
adg

>  <m_score__min__energy>  (10) 
-14.01

>  <m_primary>  (10) 
energy

$$$$
10:0
     RDKit          3D

 36 37  0  0  0  0  0  0  0  0999 V2000
   56.5860   24.2920   44.1780 C   0  0  0  0  0  0  0  0  0  0  0  0
   56.2420   24.5750   45.6340 C   0  0  0  0  0  0  0  0  0  0  0  0
   55.3680   25.7850   45.7410 C   0  0  0  0  0  0  0  0  0  0  0  0
   54.1190   25.6640   45.6240 O   0  0  0  0  0  0  0  0  0  0  0  0
   55.9640   27.0650   45.9890 N   0  0  0  0  0  0  0  0  0  0  0  0
   57.2790   27.4890   45.5960 C   0  0  0  0  0  0  0  0  0  0  0  0
   58.4040   26.6980   45.8990 C   0  0  0  0  0  0  0  0  0  0  0  0
   59.6830   27.1050   45.5170 C   0  0  0  0  0  0  0  0  0  0  0  0
   59.8600   28.3090   44.8400 C   0  0  0  0  0  0  0  0  0  0  0  0
   58.7600   29.1190   44.5540 C   0  0  0  0  0  0  0  0  0  0  0  0
   57.4590   28.7340   44.9370 C   0  0  0  0  0  0  0  0  0  0  0  0
   56.3160   29.6340   44.6200 C   0  0  0  0  0  0  0  0  0  0  0  0
   55.1420   29.1760   44.5740 O   0  0  0  0  0  0  0  0  0  0  0  0
   56.5430   31.0470   44.4680 N   0  0  0  0  0  0  0  0  0  0  0  0
   57.3400   31.8280   45.1430 C   0  0  0  0  0  0  0  0  0  0  0  0
   57.8180   33.0600   44.6450 C   0  0  0  0  0  0  0  0  0  0  0  0
   58.6890   33.8340   45.4260 C   0  0  0  0  0  0  0  0  0  0  0  0
   59.1770   35.1610   44.9210 C   0  0  0  0  0  0  0  0  0  0  0  0
   59.0600   33.3810   46.6980 C   0  0  0  0  0  0  0  0  0  0  0  0
   58.5880   32.1490   47.1500 C   0  0  0  0  0  0  0  0  0  0  0  0
   57.7560   31.4110   46.3700 N   0  0  0  0  0  0  0  0  0  0  0  0
   57.4347   23.5938   44.1308 H   0  0  0  0  0  0  0  0  0  0  0  0
   55.7153   23.8453   43.6757 H   0  0  0  0  0  0  0  0  0  0  0  0
   56.8565   25.2325   43.6757 H   0  0  0  0  0  0  0  0  0  0  0  0
   55.7128   23.7079   46.0560 H   0  0  0  0  0  0  0  0  0  0  0  0
   57.1732   24.7587   46.1901 H   0  0  0  0  0  0  0  0  0  0  0  0
   58.2733   25.7503   46.4420 H   0  0  0  0  0  0  0  0  0  0  0  0
   60.5529   26.4737   45.7511 H   0  0  0  0  0  0  0  0  0  0  0  0
   60.8680   28.6220   44.5303 H   0  0  0  0  0  0  0  0  0  0  0  0
   58.9101   30.0704   44.0227 H   0  0  0  0  0  0  0  0  0  0  0  0
   57.5088   33.4110   43.6494 H   0  0  0  0  0  0  0  0  0  0  0  0
   59.4166   35.8125   45.7743 H   0  0  0  0  0  0  0  0  0  0  0  0
   60.0789   35.0114   44.3093 H   0  0  0  0  0  0  0  0  0  0  0  0
   58.3930   35.6314   44.3093 H   0  0  0  0  0  0  0  0  0  0  0  0
   59.7175   33.9911   47.3347 H   0  0  0  0  0  0  0  0  0  0  0  0
   58.8898   31.7744   48.1393 H   0  0  0  0  0  0  0  0  0  0  0  0
  1  2  1  0
  2  3  1  0
  3  4  2  0
  3  5  1  0
  5  6  1  0
  6  7  2  0
  7  8  1  0
  8  9  2  0
  9 10  1  0
 10 11  2  0
 11 12  1  0
 12 13  2  0
 12 14  1  0
 14 15  2  3
 15 16  1  0
 16 17  2  0
 17 18  1  0
 17 19  1  0
 19 20  2  0
 20 21  1  0
 11  6  1  0
 21 15  1  0
  1 22  1  0
  1 23  1  0
  1 24  1  0
  2 25  1  0
  2 26  1  0
  7 27  1  0
  8 28  1  0
  9 29  1  0
 10 30  1  0
 16 31  1  0
 18 32  1  0
 18 33  1  0
 18 34  1  0
 19 35  1  0
 20 36  1  0
M  CHG  2   5  -1  21  -1
M  END
>  <UniqueID>  (11) 
10

>  <SMILES>  (11) 
CCC(=O)[N-]c1ccccc1C(=O)N=c1cc(C)cc[n-]1

>  <Energy>  (11) 
46.68958242774372

>  <Genealogy>  (11) 
CCC(=O)[N-]c1ccccc1C(=O)N=c1cc(C)cc[n-]1 (protonated)
CCC(=O)[N-]c1ccccc1C(=O)N=c1cc(C)cc[n-]1 (3D coordinates assigned)
CCC(=O)[N-]c1ccccc1C(=O)N=c1cc(C)cc[n-]1 (optimized conformer: 46.68958242774372 kcal/mol)

>  <smiles>  (11) 
CCC(=O)Nc1ccccc1C(=O)N=c1cc(C)cc[nH]1

>  <score_type>  (11) 
oracle

>  <origin>  (11) 
adg

>  <m_score__min__energy>  (11) 
-11.550000000000001

>  <m_primary>  (11) 
energy

$$$$
11:0
     RDKit          3D

 48 50  0  0  0  0  0  0  0  0999 V2000
   58.9180   32.7250   49.9400 C   0  0  0  0  0  0  0  0  0  0  0  0
   59.3970   33.6970   49.0160 O   0  0  0  0  0  0  0  0  0  0  0  0
   60.6470   33.6430   48.3780 C   0  0  0  0  0  0  0  0  0  0  0  0
   61.8290   33.3450   49.0860 C   0  0  0  0  0  0  0  0  0  0  0  0
   63.0580   33.3070   48.4250 C   0  0  0  0  0  0  0  0  0  0  0  0
   63.1270   33.5690   47.0570 C   0  0  0  0  0  0  0  0  0  0  0  0
   61.9640   33.8650   46.3420 C   0  0  0  0  0  0  0  0  0  0  0  0
   60.7180   33.8940   46.9900 C   0  0  0  0  0  0  0  0  0  0  0  0
   59.4700   34.2080   46.2010 C   0  0  0  0  0  0  0  0  0  0  0  0
   58.3910   33.2780   46.5420 N   0  0  0  0  0  0  0  0  0  0  0  0
   57.9900   32.1620   45.7240 C   0  0  0  0  0  0  0  0  0  0  0  0
   57.4280   32.3420   44.4470 C   0  0  0  0  0  0  0  0  0  0  0  0
   57.0600   31.2370   43.6780 C   0  0  0  0  0  0  0  0  0  0  0  0
   57.2370   29.9430   44.1720 C   0  0  0  0  0  0  0  0  0  0  0  0
   57.7770   29.7390   45.4540 C   0  0  0  0  0  0  0  0  0  0  0  0
   57.9760   28.3720   45.9920 C   0  0  0  0  0  0  0  0  0  0  0  0
   58.7620   28.1980   46.9630 O   0  0  0  0  0  0  0  0  0  0  0  0
   57.2780   27.2470   45.4370 N   0  0  0  0  0  0  0  0  0  0  0  0
   57.5930   25.8800   45.8500 C   0  0  0  0  0  0  0  0  0  0  0  0
   56.4540   24.9480   45.5180 C   0  0  0  0  0  0  0  0  0  0  0  0
   56.7210   23.6140   45.1650 C   0  0  0  0  0  0  0  0  0  0  0  0
   55.6710   22.7340   44.8870 C   0  0  0  0  0  0  0  0  0  0  0  0
   54.3470   23.1750   44.9700 C   0  0  0  0  0  0  0  0  0  0  0  0
   54.0720   24.4950   45.3360 C   0  0  0  0  0  0  0  0  0  0  0  0
   55.1180   25.3810   45.6160 C   0  0  0  0  0  0  0  0  0  0  0  0
   54.8220   26.6870   45.9930 O   0  0  0  0  0  0  0  0  0  0  0  0
   58.1570   30.8580   46.2180 C   0  0  0  0  0  0  0  0  0  0  0  0
   59.0921   33.0783   50.9671 H   0  0  0  0  0  0  0  0  0  0  0  0
   57.8403   32.5699   49.7833 H   0  0  0  0  0  0  0  0  0  0  0  0
   59.4516   31.7759   49.7833 H   0  0  0  0  0  0  0  0  0  0  0  0
   61.7826   33.1412   50.1660 H   0  0  0  0  0  0  0  0  0  0  0  0
   63.9747   33.0697   48.9848 H   0  0  0  0  0  0  0  0  0  0  0  0
   64.0979   33.5426   46.5406 H   0  0  0  0  0  0  0  0  0  0  0  0
   62.0243   34.0768   45.2643 H   0  0  0  0  0  0  0  0  0  0  0  0
   59.1473   35.2343   46.4301 H   0  0  0  0  0  0  0  0  0  0  0  0
   59.6961   34.1078   45.1292 H   0  0  0  0  0  0  0  0  0  0  0  0
   57.9320   33.4030   47.4720 H   0  0  0  0  0  0  0  0  0  0  0  0
   57.2780   33.3580   44.0529 H   0  0  0  0  0  0  0  0  0  0  0  0
   56.6282   31.3862   42.6774 H   0  0  0  0  0  0  0  0  0  0  0  0
   56.9523   29.0783   43.5546 H   0  0  0  0  0  0  0  0  0  0  0  0
   56.4920   27.4100   44.7670 H   0  0  0  0  0  0  0  0  0  0  0  0
   58.4995   25.5439   45.3254 H   0  0  0  0  0  0  0  0  0  0  0  0
   57.7554   25.8672   46.9379 H   0  0  0  0  0  0  0  0  0  0  0  0
   57.7611   23.2607   45.1072 H   0  0  0  0  0  0  0  0  0  0  0  0
   55.8868   21.6935   44.6027 H   0  0  0  0  0  0  0  0  0  0  0  0
   53.5217   22.4827   44.7471 H   0  0  0  0  0  0  0  0  0  0  0  0
   53.0294   24.8389   45.4043 H   0  0  0  0  0  0  0  0  0  0  0  0
   58.5915   30.7091   47.2175 H   0  0  0  0  0  0  0  0  0  0  0  0
  1  2  1  0
  2  3  1  0
  3  4  2  0
  4  5  1  0
  5  6  2  0
  6  7  1  0
  7  8  2  0
  8  9  1  0
  9 10  1  0
 10 11  1  0
 11 12  2  0
 12 13  1  0
 13 14  2  0
 14 15  1  0
 15 16  1  0
 16 17  2  0
 16 18  1  0
 18 19  1  0
 19 20  1  0
 20 21  2  0
 21 22  1  0
 22 23  2  0
 23 24  1  0
 24 25  2  0
 25 26  1  0
 15 27  2  0
  8  3  1  0
 27 11  1  0
 25 20  1  0
  1 28  1  0
  1 29  1  0
  1 30  1  0
  4 31  1  0
  5 32  1  0
  6 33  1  0
  7 34  1  0
  9 35  1  0
  9 36  1  0
 10 37  1  0
 12 38  1  0
 13 39  1  0
 14 40  1  0
 18 41  1  0
 19 42  1  0
 19 43  1  0
 21 44  1  0
 22 45  1  0
 23 46  1  0
 24 47  1  0
 27 48  1  0
M  CHG  1  26  -1
M  END
>  <UniqueID>  (12) 
11

>  <SMILES>  (12) 
COc1ccccc1CNc1cccc(C(=O)NCc2ccccc2[O-])c1

>  <Energy>  (12) 
50.659522079589266

>  <Genealogy>  (12) 
COc1ccccc1CNc1cccc(C(=O)NCc2ccccc2[O-])c1 (protonated)
COc1ccccc1CNc1cccc(C(=O)NCc2ccccc2[O-])c1 (3D coordinates assigned)
COc1ccccc1CNc1cccc(C(=O)NCc2ccccc2[O-])c1 (optimized conformer: 50.659522079589266 kcal/mol)

>  <smiles>  (12) 
COc1ccccc1CNc1cccc(C(=O)NCc2ccccc2O)c1

>  <score_type>  (12) 
oracle

>  <origin>  (12) 
adg

>  <m_score__min__energy>  (12) 
-12.699999999999999

>  <m_primary>  (12) 
energy

$$$$
12:0
     RDKit          3D

 52 55  0  0  0  0  0  0  0  0999 V2000
   54.3860   28.6250   44.5020 H   0  0  0  0  0  0  0  0  0  0  0  0
   54.8150   29.4680   44.1400 O   0  0  0  0  0  0  0  0  0  0  0  0
   56.1350   29.8120   44.4300 C   0  0  0  0  0  0  0  0  0  0  0  0
   56.6310   31.0400   43.9820 C   0  0  0  0  0  0  0  0  0  0  0  0
   55.9768   31.7173   43.4134 H   0  0  0  0  0  0  0  0  0  0  0  0
   57.9550   31.4160   44.2510 C   0  0  0  0  0  0  0  0  0  0  0  0
   58.4710   32.7560   43.8030 C   0  0  0  0  0  0  0  0  0  0  0  0
   59.3929   32.6143   43.2198 H   0  0  0  0  0  0  0  0  0  0  0  0
   57.7067   33.2465   43.1824 H   0  0  0  0  0  0  0  0  0  0  0  0
   58.7660   33.6230   44.9970 C   0  0  0  0  0  0  0  0  0  0  0  0
   59.6570   34.7030   44.8850 C   0  0  0  0  0  0  0  0  0  0  0  0
   60.1187   34.9346   43.9138 H   0  0  0  0  0  0  0  0  0  0  0  0
   59.9590   35.4850   46.0050 C   0  0  0  0  0  0  0  0  0  0  0  0
   60.6527   36.3335   45.9114 H   0  0  0  0  0  0  0  0  0  0  0  0
   59.3810   35.1900   47.2420 C   0  0  0  0  0  0  0  0  0  0  0  0
   59.6167   35.8082   48.1208 H   0  0  0  0  0  0  0  0  0  0  0  0
   58.5030   34.1090   47.3630 C   0  0  0  0  0  0  0  0  0  0  0  0
   58.0514   33.8750   48.3383 H   0  0  0  0  0  0  0  0  0  0  0  0
   58.1980   33.3250   46.2470 C   0  0  0  0  0  0  0  0  0  0  0  0
   57.5110   32.4718   46.3476 H   0  0  0  0  0  0  0  0  0  0  0  0
   58.7770   30.5560   44.9940 C   0  0  0  0  0  0  0  0  0  0  0  0
   59.8093   30.8554   45.2280 H   0  0  0  0  0  0  0  0  0  0  0  0
   58.2940   29.3180   45.4410 C   0  0  0  0  0  0  0  0  0  0  0  0
   59.1790   28.4250   46.2160 C   0  0  0  0  0  0  0  0  0  0  0  0
   59.5000   27.1680   45.6780 C   0  0  0  0  0  0  0  0  0  0  0  0
   59.1068   26.8797   44.6919 H   0  0  0  0  0  0  0  0  0  0  0  0
   60.3140   26.2820   46.3850 C   0  0  0  0  0  0  0  0  0  0  0  0
   60.5619   25.3008   45.9540 H   0  0  0  0  0  0  0  0  0  0  0  0
   60.8140   26.6390   47.6380 C   0  0  0  0  0  0  0  0  0  0  0  0
   61.4485   25.9359   48.1975 H   0  0  0  0  0  0  0  0  0  0  0  0
   60.5090   27.8890   48.1820 C   0  0  0  0  0  0  0  0  0  0  0  0
   60.9050   28.1643   49.1706 H   0  0  0  0  0  0  0  0  0  0  0  0
   59.7020   28.7970   47.4790 C   0  0  0  0  0  0  0  0  0  0  0  0
   59.4010   30.3900   48.1950 S   0  0  0  0  0  0  0  0  0  0  0  0
   59.2760   30.2150   49.6820 O   0  0  0  0  0  0  0  0  0  0  0  0
   58.1310   31.0100   47.6830 O   0  0  0  0  0  0  0  0  0  0  0  0
   60.7300   31.4640   47.8880 N   0  0  0  0  0  0  0  0  0  0  0  0
   61.8590   31.5930   48.5260 C   0  0  0  0  0  0  0  0  0  0  0  0
   62.1160   30.8970   49.6080 O   0  0  0  0  0  0  0  0  0  0  0  0
   63.2900   31.1800   50.0900 N   0  0  0  0  0  0  0  0  0  0  0  0
   63.8340   32.1090   49.2820 C   0  0  0  0  0  0  0  0  0  0  0  0
   65.1830   32.7130   49.5170 C   0  0  0  0  0  0  0  0  0  0  0  0
   65.3649   32.7944   50.5988 H   0  0  0  0  0  0  0  0  0  0  0  0
   65.9548   32.0745   49.0625 H   0  0  0  0  0  0  0  0  0  0  0  0
   65.2208   33.7140   49.0625 H   0  0  0  0  0  0  0  0  0  0  0  0
   62.9590   32.4090   48.2480 C   0  0  0  0  0  0  0  0  0  0  0  0
   63.1760   33.4590   47.1990 C   0  0  0  0  0  0  0  0  0  0  0  0
   63.3758   34.4259   47.6839 H   0  0  0  0  0  0  0  0  0  0  0  0
   64.0352   33.1788   46.5719 H   0  0  0  0  0  0  0  0  0  0  0  0
   62.2761   33.5423   46.5719 H   0  0  0  0  0  0  0  0  0  0  0  0
   56.9670   28.9460   45.1600 C   0  0  0  0  0  0  0  0  0  0  0  0
   56.4790   27.7190   45.5980 O   0  0  0  0  0  0  0  0  0  0  0  0
  1  2  1  0
  2  3  1  0
  3  4  2  0
  4  5  1  0
  4  6  1  0
  6  7  1  0
  7  8  1  0
  7  9  1  0
  7 10  1  0
 10 11  2  0
 11 12  1  0
 11 13  1  0
 13 14  1  0
 13 15  2  0
 15 16  1  0
 15 17  1  0
 17 18  1  0
 17 19  2  0
 19 20  1  0
  6 21  2  0
 21 22  1  0
 21 23  1  0
 23 24  1  0
 24 25  2  0
 25 26  1  0
 25 27  1  0
 27 28  1  0
 27 29  2  0
 29 30  1  0
 29 31  1  0
 31 32  1  0
 31 33  2  0
 33 34  1  0
 34 35  2  0
 34 36  2  0
 34 37  1  0
 37 38  2  0
 38 39  1  0
 39 40  1  0
 40 41  1  0
 41 42  1  0
 42 43  1  0
 42 44  1  0
 42 45  1  0
 41 46  2  0
 46 47  1  0
 47 48  1  0
 47 49  1  0
 47 50  1  0
 23 51  2  0
 51 52  1  0
 51  3  1  0
 19 10  1  0
 33 24  1  0
 46 38  1  0
M  CHG  2  40  -1  52  -1
M  END
>  <UniqueID>  (13) 
12

>  <SMILES>  (13) 
Cc1[n-]o/c(=N/S(=O)(=O)c2ccccc2-c2cc(Cc3ccccc3)cc(O)c2[O-])c1C

>  <Energy>  (13) 
102.23975915164813

>  <Genealogy>  (13) 
Cc1[n-]oc(=NS(=O)(=O)c2ccccc2-c2cc(Cc3ccccc3)cc(O)c2[O-])c1C (protonated)
Cc1[n-]o/c(=N/S(=O)(=O)c2ccccc2-c2cc(Cc3ccccc3)cc(O)c2[O-])c1C (cis-trans isomerization)
Cc1[n-]o/c(=N/S(=O)(=O)c2ccccc2-c2cc(Cc3ccccc3)cc(O)c2[O-])c1C (3D coordinates assigned)
Cc1[n-]o/c(=N/S(=O)(=O)c2ccccc2-c2cc(Cc3ccccc3)cc(O)c2[O-])c1C (optimized conformer: 102.23975915164813 kcal/mol)

>  <smiles>  (13) 
Cc1[nH]oc(=NS(=O)(=O)c2ccccc2-c2cc(Cc3ccccc3)cc(O)c2O)c1C

>  <score_type>  (13) 
oracle

>  <origin>  (13) 
adg

>  <m_score__min__energy>  (13) 
-14.130000000000001

>  <m_primary>  (13) 
energy

$$$$
13:0
     RDKit          3D

 70 74  0  0  0  0  0  0  0  0999 V2000
   61.6050   30.5240   52.8350 C   0  0  0  0  0  0  0  0  0  0  0  0
   61.0230   29.3280   53.5830 C   0  0  0  0  0  0  0  0  0  0  0  0
   59.8150   28.8280   52.9160 N   0  0  0  0  0  0  0  0  0  0  0  0
   58.7520   28.1940   53.7080 C   0  0  0  0  0  0  0  0  0  0  0  0
   57.4310   28.8900   53.5060 C   0  0  0  0  0  0  0  0  0  0  0  0
   56.2350   28.1570   53.5310 C   0  0  0  0  0  0  0  0  0  0  0  0
   55.0130   28.7940   53.3020 C   0  0  0  0  0  0  0  0  0  0  0  0
   54.9610   30.1780   53.0520 C   0  0  0  0  0  0  0  0  0  0  0  0
   53.6660   30.8510   52.7770 C   0  0  0  0  0  0  0  0  0  0  0  0
   53.4060   31.4040   51.5080 C   0  0  0  0  0  0  0  0  0  0  0  0
   52.1960   32.0530   51.2550 C   0  0  0  0  0  0  0  0  0  0  0  0
   51.2300   32.1590   52.2590 C   0  0  0  0  0  0  0  0  0  0  0  0
   50.0290   32.8070   52.0040 O   0  0  0  0  0  0  0  0  0  0  0  0
   51.4730   31.6100   53.5220 C   0  0  0  0  0  0  0  0  0  0  0  0
   52.6830   30.9590   53.7820 C   0  0  0  0  0  0  0  0  0  0  0  0
   56.1620   30.9120   53.0460 C   0  0  0  0  0  0  0  0  0  0  0  0
   57.3850   30.2730   53.2650 C   0  0  0  0  0  0  0  0  0  0  0  0
   59.7270   28.8490   51.4790 C   0  0  0  0  0  0  0  0  0  0  0  0
   60.5260   28.0440   50.7310 N   0  0  0  0  0  0  0  0  0  0  0  0
   60.4360   28.0310   49.3780 C   0  0  0  0  0  0  0  0  0  0  0  0
   59.5080   28.8730   48.7380 C   0  0  0  0  0  0  0  0  0  0  0  0
   59.3040   28.8830   47.3000 N   0  0  0  0  0  0  0  0  0  0  0  0
   58.4790   27.8960   46.5800 C   0  0  0  0  0  0  0  0  0  0  0  0
   57.3510   28.6320   45.8550 C   0  0  0  0  0  0  0  0  0  0  0  0
   57.8630   29.8180   45.1480 N   0  0  0  0  0  0  0  0  0  0  0  0
   56.9360   30.7720   44.5960 C   0  0  0  0  0  0  0  0  0  0  0  0
   55.7110   30.4820   44.5080 O   0  0  0  0  0  0  0  0  0  0  0  0
   57.3870   32.0330   44.1820 O   0  0  0  0  0  0  0  0  0  0  0  0
   57.0850   33.2460   44.8750 C   0  0  0  0  0  0  0  0  0  0  0  0
   58.1330   33.5210   45.9180 C   0  0  0  0  0  0  0  0  0  0  0  0
   59.2090   34.3760   45.6210 C   0  0  0  0  0  0  0  0  0  0  0  0
   60.1880   34.6360   46.5840 C   0  0  0  0  0  0  0  0  0  0  0  0
   60.0980   34.0510   47.8500 C   0  0  0  0  0  0  0  0  0  0  0  0
   59.0250   33.2080   48.1580 C   0  0  0  0  0  0  0  0  0  0  0  0
   58.0470   32.9420   47.1950 C   0  0  0  0  0  0  0  0  0  0  0  0
   59.3130   30.0590   45.1000 C   0  0  0  0  0  0  0  0  0  0  0  0
   59.8970   29.9870   46.5190 C   0  0  0  0  0  0  0  0  0  0  0  0
   58.7280   29.6640   49.5260 N   0  0  0  0  0  0  0  0  0  0  0  0
   58.8300   29.6540   50.8530 N   0  0  0  0  0  0  0  0  0  0  0  0
   61.9673   31.2685   53.5592 H   0  0  0  0  0  0  0  0  0  0  0  0
   62.4412   30.1898   52.2033 H   0  0  0  0  0  0  0  0  0  0  0  0
   60.8260   30.9758   52.2033 H   0  0  0  0  0  0  0  0  0  0  0  0
   61.7738   28.5248   53.6169 H   0  0  0  0  0  0  0  0  0  0  0  0
   60.7547   29.6477   54.6007 H   0  0  0  0  0  0  0  0  0  0  0  0
   58.6540   27.1426   53.4000 H   0  0  0  0  0  0  0  0  0  0  0  0
   59.0226   28.2637   54.7719 H   0  0  0  0  0  0  0  0  0  0  0  0
   56.2596   27.0758   53.7318 H   0  0  0  0  0  0  0  0  0  0  0  0
   54.0822   28.2080   53.3172 H   0  0  0  0  0  0  0  0  0  0  0  0
   54.1606   31.3241   50.7116 H   0  0  0  0  0  0  0  0  0  0  0  0
   52.0023   32.4827   50.2611 H   0  0  0  0  0  0  0  0  0  0  0  0
   50.7115   31.6903   54.3118 H   0  0  0  0  0  0  0  0  0  0  0  0
   52.8691   30.5284   54.7770 H   0  0  0  0  0  0  0  0  0  0  0  0
   56.1375   31.9971   52.8675 H   0  0  0  0  0  0  0  0  0  0  0  0
   58.3174   30.8564   53.2486 H   0  0  0  0  0  0  0  0  0  0  0  0
   61.0833   27.3676   48.7856 H   0  0  0  0  0  0  0  0  0  0  0  0
   59.1000   27.3585   45.8483 H   0  0  0  0  0  0  0  0  0  0  0  0
   58.0560   27.1719   47.2918 H   0  0  0  0  0  0  0  0  0  0  0  0
   56.8875   27.9510   45.1260 H   0  0  0  0  0  0  0  0  0  0  0  0
   56.6115   28.9605   46.6001 H   0  0  0  0  0  0  0  0  0  0  0  0
   57.0596   34.0786   44.1566 H   0  0  0  0  0  0  0  0  0  0  0  0
   56.1061   33.1452   45.3665 H   0  0  0  0  0  0  0  0  0  0  0  0
   59.2805   34.8419   44.6271 H   0  0  0  0  0  0  0  0  0  0  0  0
   61.0304   35.3019   46.3452 H   0  0  0  0  0  0  0  0  0  0  0  0
   60.8718   34.2537   48.6051 H   0  0  0  0  0  0  0  0  0  0  0  0
   58.9508   32.7546   49.1575 H   0  0  0  0  0  0  0  0  0  0  0  0
   57.2060   32.2760   47.4385 H   0  0  0  0  0  0  0  0  0  0  0  0
   59.7900   29.2946   44.4690 H   0  0  0  0  0  0  0  0  0  0  0  0
   59.5027   31.0570   44.6782 H   0  0  0  0  0  0  0  0  0  0  0  0
   60.9836   29.8305   46.4495 H   0  0  0  0  0  0  0  0  0  0  0  0
   59.6660   30.9320   47.0325 H   0  0  0  0  0  0  0  0  0  0  0  0
  1  2  1  0
  2  3  1  0
  3  4  1  0
  4  5  1  0
  5  6  2  0
  6  7  1  0
  7  8  2  0
  8  9  1  0
  9 10  2  0
 10 11  1  0
 11 12  2  0
 12 13  1  0
 12 14  1  0
 14 15  2  0
  8 16  1  0
 16 17  2  0
  3 18  1  0
 18 19  2  0
 19 20  1  0
 20 21  2  0
 21 22  1  0
 22 23  1  0
 23 24  1  0
 24 25  1  0
 25 26  1  0
 26 27  2  0
 26 28  1  0
 28 29  1  0
 29 30  1  0
 30 31  2  0
 31 32  1  0
 32 33  2  0
 33 34  1  0
 34 35  2  0
 25 36  1  0
 36 37  1  0
 21 38  1  0
 38 39  2  0
 17  5  1  0
 39 18  1  0
 15  9  1  0
 37 22  1  0
 35 30  1  0
  1 40  1  0
  1 41  1  0
  1 42  1  0
  2 43  1  0
  2 44  1  0
  4 45  1  0
  4 46  1  0
  6 47  1  0
  7 48  1  0
 10 49  1  0
 11 50  1  0
 14 51  1  0
 15 52  1  0
 16 53  1  0
 17 54  1  0
 20 55  1  0
 23 56  1  0
 23 57  1  0
 24 58  1  0
 24 59  1  0
 29 60  1  0
 29 61  1  0
 31 62  1  0
 32 63  1  0
 33 64  1  0
 34 65  1  0
 35 66  1  0
 36 67  1  0
 36 68  1  0
 37 69  1  0
 37 70  1  0
M  CHG  1  13  -1
M  END
>  <UniqueID>  (14) 
13

>  <SMILES>  (14) 
CCN(Cc1ccc(-c2ccc([O-])cc2)cc1)c1ncc(N2CCN(C(=O)OCc3ccccc3)CC2)nn1

>  <Energy>  (14) 
84.3755954113097

>  <Genealogy>  (14) 
CCN(Cc1ccc(-c2ccc([O-])cc2)cc1)c1ncc(N2CCN(C(=O)OCc3ccccc3)CC2)nn1 (protonated)
CCN(Cc1ccc(-c2ccc([O-])cc2)cc1)c1ncc(N2CCN(C(=O)OCc3ccccc3)CC2)nn1 (3D coordinates assigned)
CCN(Cc1ccc(-c2ccc([O-])cc2)cc1)c1ncc(N2CCN(C(=O)OCc3ccccc3)CC2)nn1 (nonaromatic ring conformer: 84.3755954113097 kcal/mol)

>  <smiles>  (14) 
CCN(Cc1ccc(-c2ccc(O)cc2)cc1)c1ncc(N2CCN(C(=O)OCc3ccccc3)CC2)nn1

>  <score_type>  (14) 
oracle

>  <origin>  (14) 
adg

>  <m_score__min__energy>  (14) 
-14.199999999999999

>  <m_primary>  (14) 
energy

$$$$
14:0
     RDKit          3D

 19 19  0  0  0  0  0  0  0  0999 V2000
   56.8850   29.0940   44.3280 C   0  0  0  0  0  0  0  0  0  0  0  0
   57.5420   27.9890   44.7090 C   0  0  0  0  0  0  0  0  0  0  0  0
   58.1120   27.0690   43.6630 C   0  0  0  0  0  0  0  0  0  0  0  0
   57.7200   27.6810   46.1770 C   0  0  0  0  0  0  0  0  0  0  0  0
   57.1700   26.3220   46.4930 C   0  0  0  0  0  0  0  0  0  0  0  0
   57.9090   25.2650   46.8630 N   0  0  0  0  0  0  0  0  0  0  0  0
   57.0230   24.2540   46.9710 C   0  0  0  0  0  0  0  0  0  0  0  0
   57.3520   23.0860   47.3070 O   0  0  0  0  0  0  0  0  0  0  0  0
   55.7510   24.6020   46.6800 N   0  0  0  0  0  0  0  0  0  0  0  0
   55.8620   25.9090   46.3740 C   0  0  0  0  0  0  0  0  0  0  0  0
   54.7910   26.7050   45.9870 O   0  0  0  0  0  0  0  0  0  0  0  0
   56.4648   29.7726   45.0850 H   0  0  0  0  0  0  0  0  0  0  0  0
   56.7662   29.3220   43.2585 H   0  0  0  0  0  0  0  0  0  0  0  0
   58.6304   26.2322   44.1539 H   0  0  0  0  0  0  0  0  0  0  0  0
   57.2976   26.6782   43.0353 H   0  0  0  0  0  0  0  0  0  0  0  0
   58.8245   27.6242   43.0353 H   0  0  0  0  0  0  0  0  0  0  0  0
   58.7912   27.7061   46.4260 H   0  0  0  0  0  0  0  0  0  0  0  0
   57.1784   28.4333   46.7692 H   0  0  0  0  0  0  0  0  0  0  0  0
   58.9410   25.2290   47.0220 H   0  0  0  0  0  0  0  0  0  0  0  0
  1  2  2  0
  2  3  1  0
  2  4  1  0
  4  5  1  0
  5  6  1  0
  6  7  1  0
  7  8  2  0
  7  9  1  0
  9 10  1  0
 10 11  1  0
 10  5  2  0
  1 12  1  0
  1 13  1  0
  3 14  1  0
  3 15  1  0
  3 16  1  0
  4 17  1  0
  4 18  1  0
  6 19  1  0
M  CHG  2   9  -1  11  -1
M  END
>  <UniqueID>  (15) 
14

>  <SMILES>  (15) 
C=C(C)Cc1[nH]c(=O)[n-]c1[O-]

>  <Energy>  (15) 
42.31981550050822

>  <Genealogy>  (15) 
C=C(C)Cc1[nH]c(=O)[n-]c1[O-] (protonated)
C=C(C)Cc1[nH]c(=O)[n-]c1[O-] (3D coordinates assigned)
C=C(C)Cc1[nH]c(=O)[n-]c1[O-] (optimized conformer: 42.31981550050822 kcal/mol)

>  <smiles>  (15) 
C=C(C)Cc1[nH]c(=O)[nH]c1O

>  <score_type>  (15) 
oracle

>  <origin>  (15) 
adg

>  <m_score__min__energy>  (15) 
-11.890000000000001

>  <m_primary>  (15) 
energy

$$$$
15:0
     RDKit          3D

 60 63  0  0  0  0  0  0  0  0999 V2000
   61.3380   30.7590   46.9980 O   0  0  0  0  0  0  0  0  0  0  0  0
   60.1680   30.3370   47.2020 C   0  0  0  0  0  0  0  0  0  0  0  0
   59.0730   31.3100   47.4970 C   0  0  0  0  0  0  0  0  0  0  0  0
   58.8690   32.2120   46.3610 N   0  0  0  0  0  0  0  0  0  0  0  0
   58.1890   31.7540   45.1850 C   0  0  0  0  0  0  0  0  0  0  0  0
   57.3650   30.6190   45.2460 C   0  0  0  0  0  0  0  0  0  0  0  0
   56.7080   30.1630   44.0990 C   0  0  0  0  0  0  0  0  0  0  0  0
   56.8680   30.8390   42.8850 C   0  0  0  0  0  0  0  0  0  0  0  0
   57.6880   31.9690   42.8170 C   0  0  0  0  0  0  0  0  0  0  0  0
   58.3500   32.4250   43.9630 C   0  0  0  0  0  0  0  0  0  0  0  0
   59.5550   33.8090   46.3900 S   0  0  0  0  0  0  0  0  0  0  0  0
   59.8700   34.2490   44.9880 O   0  0  0  0  0  0  0  0  0  0  0  0
   58.5580   34.7740   46.9690 O   0  0  0  0  0  0  0  0  0  0  0  0
   61.0280   33.8160   47.3540 C   0  0  0  0  0  0  0  0  0  0  0  0
   60.9680   34.0900   48.7300 C   0  0  0  0  0  0  0  0  0  0  0  0
   62.1380   34.0970   49.4960 C   0  0  0  0  0  0  0  0  0  0  0  0
   63.3720   33.8300   48.8950 C   0  0  0  0  0  0  0  0  0  0  0  0
   63.4370   33.5550   47.5250 C   0  0  0  0  0  0  0  0  0  0  0  0
   62.2680   33.5470   46.7550 C   0  0  0  0  0  0  0  0  0  0  0  0
   59.8880   28.9290   47.2360 N   0  0  0  0  0  0  0  0  0  0  0  0
   59.1680   28.1880   46.2400 C   0  0  0  0  0  0  0  0  0  0  0  0
   58.1020   27.3390   46.5910 C   0  0  0  0  0  0  0  0  0  0  0  0
   57.4160   26.6170   45.6060 C   0  0  0  0  0  0  0  0  0  0  0  0
   56.0820   25.5650   46.0760 S   0  0  0  0  0  0  0  0  0  0  0  0
   56.3020   25.1280   47.4970 O   0  0  0  0  0  0  0  0  0  0  0  0
   54.7810   26.3170   45.9930 O   0  0  0  0  0  0  0  0  0  0  0  0
   56.0500   24.1740   45.0120 N   0  0  0  0  0  0  0  0  0  0  0  0
   55.3050   23.0420   45.6070 C   0  0  0  0  0  0  0  0  0  0  0  0
   56.2300   21.9840   46.2350 C   0  0  0  0  0  0  0  0  0  0  0  0
   57.3910   22.5940   46.7520 O   0  0  0  0  0  0  0  0  0  0  0  0
   58.2020   23.0780   45.6970 C   0  0  0  0  0  0  0  0  0  0  0  0
   57.4040   23.7890   44.5780 C   0  0  0  0  0  0  0  0  0  0  0  0
   57.8040   26.7300   44.2660 C   0  0  0  0  0  0  0  0  0  0  0  0
   58.8790   27.5500   43.9140 C   0  0  0  0  0  0  0  0  0  0  0  0
   59.5660   28.2760   44.8930 C   0  0  0  0  0  0  0  0  0  0  0  0
   60.6320   29.0870   44.5010 O   0  0  0  0  0  0  0  0  0  0  0  0
   58.1417   30.7585   47.6932 H   0  0  0  0  0  0  0  0  0  0  0  0
   59.3537   31.9054   48.3783 H   0  0  0  0  0  0  0  0  0  0  0  0
   57.2357   30.0864   46.1997 H   0  0  0  0  0  0  0  0  0  0  0  0
   56.0649   29.2721   44.1515 H   0  0  0  0  0  0  0  0  0  0  0  0
   56.3485   30.4814   41.9837 H   0  0  0  0  0  0  0  0  0  0  0  0
   57.8132   32.5004   41.8620 H   0  0  0  0  0  0  0  0  0  0  0  0
   58.9983   33.3118   43.9055 H   0  0  0  0  0  0  0  0  0  0  0  0
   59.9988   34.2995   49.2062 H   0  0  0  0  0  0  0  0  0  0  0  0
   62.0874   34.3130   50.5734 H   0  0  0  0  0  0  0  0  0  0  0  0
   64.2912   33.8362   49.4992 H   0  0  0  0  0  0  0  0  0  0  0  0
   64.4077   33.3448   47.0523 H   0  0  0  0  0  0  0  0  0  0  0  0
   62.3216   33.3294   45.6781 H   0  0  0  0  0  0  0  0  0  0  0  0
   57.8055   27.2417   47.6458 H   0  0  0  0  0  0  0  0  0  0  0  0
   54.6367   23.4329   46.3884 H   0  0  0  0  0  0  0  0  0  0  0  0
   54.7436   22.5527   44.7974 H   0  0  0  0  0  0  0  0  0  0  0  0
   55.6958   21.4722   47.0491 H   0  0  0  0  0  0  0  0  0  0  0  0
   56.5213   21.2587   45.4610 H   0  0  0  0  0  0  0  0  0  0  0  0
   58.9266   23.7923   46.1150 H   0  0  0  0  0  0  0  0  0  0  0  0
   58.6910   22.2052   45.2397 H   0  0  0  0  0  0  0  0  0  0  0  0
   57.9494   24.6954   44.2764 H   0  0  0  0  0  0  0  0  0  0  0  0
   57.2999   23.0838   43.7402 H   0  0  0  0  0  0  0  0  0  0  0  0
   57.2615   26.1721   43.4885 H   0  0  0  0  0  0  0  0  0  0  0  0
   59.1871   27.6253   42.8607 H   0  0  0  0  0  0  0  0  0  0  0  0
   61.1600   29.6470   45.1600 H   0  0  0  0  0  0  0  0  0  0  0  0
  1  2  2  0
  2  3  1  0
  3  4  1  0
  4  5  1  0
  5  6  2  0
  6  7  1  0
  7  8  2  0
  8  9  1  0
  9 10  2  0
  4 11  1  0
 11 12  2  0
 11 13  2  0
 11 14  1  0
 14 15  2  0
 15 16  1  0
 16 17  2  0
 17 18  1  0
 18 19  2  0
  2 20  1  0
 20 21  1  0
 21 22  2  0
 22 23  1  0
 23 24  1  0
 24 25  2  0
 24 26  2  0
 24 27  1  0
 27 28  1  0
 28 29  1  0
 29 30  1  0
 30 31  1  0
 31 32  1  0
 23 33  2  0
 33 34  1  0
 34 35  2  0
 35 36  1  0
 10  5  1  0
 19 14  1  0
 35 21  1  0
 32 27  1  0
  3 37  1  0
  3 38  1  0
  6 39  1  0
  7 40  1  0
  8 41  1  0
  9 42  1  0
 10 43  1  0
 15 44  1  0
 16 45  1  0
 17 46  1  0
 18 47  1  0
 19 48  1  0
 22 49  1  0
 28 50  1  0
 28 51  1  0
 29 52  1  0
 29 53  1  0
 31 54  1  0
 31 55  1  0
 32 56  1  0
 32 57  1  0
 33 58  1  0
 34 59  1  0
 36 60  1  0
M  CHG  1  20  -1
M  END
>  <UniqueID>  (16) 
15

>  <SMILES>  (16) 
O=C(CN(c1ccccc1)S(=O)(=O)c1ccccc1)[N-]c1cc(S(=O)(=O)N2CCOCC2)ccc1O

>  <Energy>  (16) 
82.19986147871045

>  <Genealogy>  (16) 
O=C(CN(c1ccccc1)S(=O)(=O)c1ccccc1)[N-]c1cc(S(=O)(=O)N2CCOCC2)ccc1O (protonated)
O=C(CN(c1ccccc1)S(=O)(=O)c1ccccc1)[N-]c1cc(S(=O)(=O)N2CCOCC2)ccc1O (3D coordinates assigned)
O=C(CN(c1ccccc1)S(=O)(=O)c1ccccc1)[N-]c1cc(S(=O)(=O)N2CCOCC2)ccc1O (nonaromatic ring conformer: 82.19986147871045 kcal/mol)

>  <smiles>  (16) 
O=C(CN(c1ccccc1)S(=O)(=O)c1ccccc1)Nc1cc(S(=O)(=O)N2CCOCC2)ccc1O

>  <score_type>  (16) 
oracle

>  <origin>  (16) 
adg

>  <m_score__min__energy>  (16) 
-11.390000000000001

>  <m_primary>  (16) 
energy

$$$$
16:0
     RDKit          3D

 40 42  0  0  0  0  0  0  0  0999 V2000
   55.6930   29.4260   44.6930 O   0  0  0  0  0  0  0  0  0  0  0  0
   56.7260   30.1270   44.8600 C   0  0  0  0  0  0  0  0  0  0  0  0
   56.6520   31.5340   44.5920 N   0  0  0  0  0  0  0  0  0  0  0  0
   57.5280   32.5400   45.1200 C   0  0  0  0  0  0  0  0  0  0  0  0
   57.7590   32.5800   46.5010 C   0  0  0  0  0  0  0  0  0  0  0  0
   58.6190   33.5390   47.0460 C   0  0  0  0  0  0  0  0  0  0  0  0
   59.2650   34.4550   46.2120 C   0  0  0  0  0  0  0  0  0  0  0  0
   59.0590   34.4070   44.8310 C   0  0  0  0  0  0  0  0  0  0  0  0
   58.2000   33.4500   44.2830 C   0  0  0  0  0  0  0  0  0  0  0  0
   57.9880   29.4740   45.2780 C   0  0  0  0  0  0  0  0  0  0  0  0
   59.2320   30.0000   44.8880 C   0  0  0  0  0  0  0  0  0  0  0  0
   60.4170   29.3860   45.2980 C   0  0  0  0  0  0  0  0  0  0  0  0
   60.3750   28.2410   46.0940 C   0  0  0  0  0  0  0  0  0  0  0  0
   59.1440   27.6920   46.4780 C   0  0  0  0  0  0  0  0  0  0  0  0
   59.1070   26.4830   47.3750 C   0  0  0  0  0  0  0  0  0  0  0  0
   57.8510   25.7590   47.1930 N   0  0  0  0  0  0  0  0  0  0  0  0
   57.4670   25.1920   45.9300 C   0  0  0  0  0  0  0  0  0  0  0  0
   58.2670   25.2340   44.9560 O   0  0  0  0  0  0  0  0  0  0  0  0
   56.1400   24.5620   45.7630 C   0  0  0  0  0  0  0  0  0  0  0  0
   56.0160   23.2190   45.3740 C   0  0  0  0  0  0  0  0  0  0  0  0
   54.7460   22.6660   45.2230 C   0  0  0  0  0  0  0  0  0  0  0  0
   53.6260   23.4600   45.4640 C   0  0  0  0  0  0  0  0  0  0  0  0
   52.4680   22.9860   45.3350 O   0  0  0  0  0  0  0  0  0  0  0  0
   53.7930   24.7560   45.8380 N   0  0  0  0  0  0  0  0  0  0  0  0
   55.0090   25.2860   45.9820 N   0  0  0  0  0  0  0  0  0  0  0  0
   57.9520   28.3090   46.0640 C   0  0  0  0  0  0  0  0  0  0  0  0
   57.2615   31.8535   47.1603 H   0  0  0  0  0  0  0  0  0  0  0  0
   58.7869   33.5721   48.1326 H   0  0  0  0  0  0  0  0  0  0  0  0
   59.9354   35.2135   46.6424 H   0  0  0  0  0  0  0  0  0  0  0  0
   59.5736   35.1235   44.1738 H   0  0  0  0  0  0  0  0  0  0  0  0
   58.0489   33.4081   43.1942 H   0  0  0  0  0  0  0  0  0  0  0  0
   59.2720   30.8999   44.2566 H   0  0  0  0  0  0  0  0  0  0  0  0
   61.3866   29.8063   44.9925 H   0  0  0  0  0  0  0  0  0  0  0  0
   61.3121   27.7671   46.4216 H   0  0  0  0  0  0  0  0  0  0  0  0
   59.9484   25.8196   47.1259 H   0  0  0  0  0  0  0  0  0  0  0  0
   59.1846   26.8102   48.4224 H   0  0  0  0  0  0  0  0  0  0  0  0
   57.2180   25.6640   48.0190 H   0  0  0  0  0  0  0  0  0  0  0  0
   56.9127   22.6090   45.1901 H   0  0  0  0  0  0  0  0  0  0  0  0
   54.6287   21.6158   44.9174 H   0  0  0  0  0  0  0  0  0  0  0  0
   56.9835   27.8776   46.3569 H   0  0  0  0  0  0  0  0  0  0  0  0
  1  2  2  0
  2  3  1  0
  3  4  1  0
  4  5  2  0
  5  6  1  0
  6  7  2  0
  7  8  1  0
  8  9  2  0
  2 10  1  0
 10 11  2  0
 11 12  1  0
 12 13  2  0
 13 14  1  0
 14 15  1  0
 15 16  1  0
 16 17  1  0
 17 18  2  0
 17 19  1  0
 19 20  1  0
 20 21  2  0
 21 22  1  0
 22 23  2  0
 22 24  1  0
 24 25  1  0
 14 26  2  0
  9  4  1  0
 26 10  1  0
 25 19  2  0
  5 27  1  0
  6 28  1  0
  7 29  1  0
  8 30  1  0
  9 31  1  0
 11 32  1  0
 12 33  1  0
 13 34  1  0
 15 35  1  0
 15 36  1  0
 16 37  1  0
 20 38  1  0
 21 39  1  0
 26 40  1  0
M  CHG  2   3  -1  24  -1
M  END
>  <UniqueID>  (17) 
16

>  <SMILES>  (17) 
O=C([N-]c1ccccc1)c1cccc(CNC(=O)c2ccc(=O)[n-]n2)c1

>  <Energy>  (17) 
48.54461113526111

>  <Genealogy>  (17) 
O=C([N-]c1ccccc1)c1cccc(CNC(=O)c2ccc(=O)[n-]n2)c1 (protonated)
O=C([N-]c1ccccc1)c1cccc(CNC(=O)c2ccc(=O)[n-]n2)c1 (3D coordinates assigned)
O=C([N-]c1ccccc1)c1cccc(CNC(=O)c2ccc(=O)[n-]n2)c1 (optimized conformer: 48.54461113526111 kcal/mol)

>  <smiles>  (17) 
O=C(Nc1ccccc1)c1cccc(CNC(=O)c2ccc(=O)[nH]n2)c1

>  <score_type>  (17) 
oracle

>  <origin>  (17) 
adg

>  <m_score__min__energy>  (17) 
-11.92

>  <m_primary>  (17) 
energy

$$$$
17:0
     RDKit          3D

 41 44  0  0  0  0  0  0  0  0999 V2000
   57.7221   33.1156   39.8224 H   0  0  0  0  0  0  0  0  0  0  0  0
   57.9120   32.7000   40.8230 C   0  0  0  0  0  0  0  0  0  0  0  0
   58.8441   32.9459   41.3529 H   0  0  0  0  0  0  0  0  0  0  0  0
   57.0370   31.9200   41.3780 N   0  0  0  0  0  0  0  0  0  0  0  0
   57.1650   31.3150   42.6750 C   0  0  0  0  0  0  0  0  0  0  0  0
   56.5480   30.0770   42.8920 C   0  0  0  0  0  0  0  0  0  0  0  0
   55.9800   29.6013   42.0789 H   0  0  0  0  0  0  0  0  0  0  0  0
   56.6470   29.4400   44.1320 C   0  0  0  0  0  0  0  0  0  0  0  0
   56.1608   28.4655   44.2869 H   0  0  0  0  0  0  0  0  0  0  0  0
   57.3610   30.0350   45.1770 C   0  0  0  0  0  0  0  0  0  0  0  0
   57.4970   29.3310   46.4210 N   0  0  0  0  0  0  0  0  0  0  0  0
   58.3640   28.3990   46.7250 C   0  0  0  0  0  0  0  0  0  0  0  0
   59.5210   28.6750   47.4840 C   0  0  0  0  0  0  0  0  0  0  0  0
   59.7202   29.6994   47.8316 H   0  0  0  0  0  0  0  0  0  0  0  0
   60.4120   27.6470   47.7930 C   0  0  0  0  0  0  0  0  0  0  0  0
   61.3196   27.8671   48.3742 H   0  0  0  0  0  0  0  0  0  0  0  0
   60.1670   26.3790   47.3820 N   0  0  0  0  0  0  0  0  0  0  0  0
   59.0570   26.0610   46.6660 C   0  0  0  0  0  0  0  0  0  0  0  0
   58.8470   24.7350   46.2720 C   0  0  0  0  0  0  0  0  0  0  0  0
   59.5815   23.9630   46.5452 H   0  0  0  0  0  0  0  0  0  0  0  0
   57.7060   24.3790   45.5300 C   0  0  0  0  0  0  0  0  0  0  0  0
   57.4860   22.9700   45.1140 C   0  0  0  0  0  0  0  0  0  0  0  0
   57.3870   22.6320   43.7540 C   0  0  0  0  0  0  0  0  0  0  0  0
   57.4706   23.4126   42.9835 H   0  0  0  0  0  0  0  0  0  0  0  0
   57.1820   21.3010   43.3840 C   0  0  0  0  0  0  0  0  0  0  0  0
   57.1076   21.0334   42.3196 H   0  0  0  0  0  0  0  0  0  0  0  0
   57.0740   20.3340   44.3350 N   0  0  0  0  0  0  0  0  0  0  0  0
   56.9190   19.3430   44.0430 H   0  0  0  0  0  0  0  0  0  0  0  0
   57.1640   20.6310   45.6590 C   0  0  0  0  0  0  0  0  0  0  0  0
   57.0728   19.8300   46.4074 H   0  0  0  0  0  0  0  0  0  0  0  0
   57.3720   21.9500   46.0730 C   0  0  0  0  0  0  0  0  0  0  0  0
   57.4460   22.1879   47.1444 H   0  0  0  0  0  0  0  0  0  0  0  0
   56.7780   25.3770   45.1890 C   0  0  0  0  0  0  0  0  0  0  0  0
   55.8826   25.1110   44.6080 H   0  0  0  0  0  0  0  0  0  0  0  0
   56.9790   26.7030   45.5790 C   0  0  0  0  0  0  0  0  0  0  0  0
   56.2409   27.4709   45.3044 H   0  0  0  0  0  0  0  0  0  0  0  0
   58.1210   27.0640   46.3220 C   0  0  0  0  0  0  0  0  0  0  0  0
   58.0380   31.2430   44.9460 C   0  0  0  0  0  0  0  0  0  0  0  0
   58.6491   31.6879   45.7451 H   0  0  0  0  0  0  0  0  0  0  0  0
   57.9410   31.8850   43.7070 C   0  0  0  0  0  0  0  0  0  0  0  0
   58.6580   33.0190   43.5070 F   0  0  0  0  0  0  0  0  0  0  0  0
  1  2  1  0
  2  3  1  0
  2  4  2  0
  4  5  1  0
  5  6  2  0
  6  7  1  0
  6  8  1  0
  8  9  1  0
  8 10  2  0
 10 11  1  0
 11 12  2  0
 12 13  1  0
 13 14  1  0
 13 15  2  0
 15 16  1  0
 15 17  1  0
 17 18  1  0
 18 19  2  0
 19 20  1  0
 19 21  1  0
 21 22  1  0
 22 23  2  0
 23 24  1  0
 23 25  1  0
 25 26  1  0
 25 27  2  0
 27 28  1  0
 27 29  1  0
 29 30  1  0
 29 31  2  0
 31 32  1  0
 21 33  2  0
 33 34  1  0
 33 35  1  0
 35 36  1  0
 35 37  2  0
 10 38  1  0
 38 39  1  0
 38 40  2  0
 40 41  1  0
 40  5  1  0
 37 12  1  0
 37 18  1  0
 31 22  1  0
M  CHG  2  17  -1  27   1
M  END
>  <UniqueID>  (18) 
17

>  <SMILES>  (18) 
C=Nc1ccc(/N=c2\cc[n-]c3cc(-c4cc[nH+]cc4)ccc23)cc1F

>  <Energy>  (18) 
70.3797472398829

>  <Genealogy>  (18) 
C=Nc1ccc(N=c2cc[n-]c3cc(-c4cc[nH+]cc4)ccc23)cc1F (protonated)
C=Nc1ccc(/N=c2\cc[n-]c3cc(-c4cc[nH+]cc4)ccc23)cc1F (cis-trans isomerization)
C=Nc1ccc(/N=c2\cc[n-]c3cc(-c4cc[nH+]cc4)ccc23)cc1F (3D coordinates assigned)
C=Nc1ccc(/N=c2\cc[n-]c3cc(-c4cc[nH+]cc4)ccc23)cc1F (optimized conformer: 70.3797472398829 kcal/mol)

>  <smiles>  (18) 
C=Nc1ccc(N=c2cc[nH]c3cc(-c4ccncc4)ccc23)cc1F

>  <score_type>  (18) 
oracle

>  <origin>  (18) 
adg

>  <m_score__min__energy>  (18) 
-7.3899999999999997

>  <m_primary>  (18) 
energy

$$$$
18:0
     RDKit          3D

 40 42  0  0  0  0  0  0  0  0999 V2000
   57.3910   27.6430   47.1370 O   0  0  0  0  0  0  0  0  0  0  0  0
   57.0570   27.2530   45.9840 C   0  0  0  0  0  0  0  0  0  0  0  0
   56.8440   28.2140   44.9350 N   0  0  0  0  0  0  0  0  0  0  0  0
   57.2840   29.5820   44.9970 C   0  0  0  0  0  0  0  0  0  0  0  0
   58.4080   29.9570   45.7560 C   0  0  0  0  0  0  0  0  0  0  0  0
   58.8300   31.2890   45.7790 C   0  0  0  0  0  0  0  0  0  0  0  0
   58.1500   32.2620   45.0320 C   0  0  0  0  0  0  0  0  0  0  0  0
   58.6800   33.9480   45.0700 S   0  0  0  0  0  0  0  0  0  0  0  0
   57.4870   34.8400   44.8680 O   0  0  0  0  0  0  0  0  0  0  0  0
   59.6340   34.1860   43.9330 O   0  0  0  0  0  0  0  0  0  0  0  0
   59.4650   34.3800   46.5700 N   0  0  0  0  0  0  0  0  0  0  0  0
   60.8510   33.9190   46.6190 C   0  0  0  0  0  0  0  0  0  0  0  0
   61.2030   33.7730   48.0910 C   0  0  0  0  0  0  0  0  0  0  0  0
   59.8680   33.6800   48.8170 C   0  0  0  0  0  0  0  0  0  0  0  0
   58.8110   33.7740   47.7280 C   0  0  0  0  0  0  0  0  0  0  0  0
   57.0370   31.8870   44.2680 C   0  0  0  0  0  0  0  0  0  0  0  0
   56.6140   30.5560   44.2420 C   0  0  0  0  0  0  0  0  0  0  0  0
   56.8490   25.8120   45.7300 C   0  0  0  0  0  0  0  0  0  0  0  0
   57.7210   25.0870   44.9000 C   0  0  0  0  0  0  0  0  0  0  0  0
   57.4890   23.7280   44.6780 C   0  0  0  0  0  0  0  0  0  0  0  0
   56.3980   23.1020   45.2800 C   0  0  0  0  0  0  0  0  0  0  0  0
   55.5480   23.8490   46.0980 C   0  0  0  0  0  0  0  0  0  0  0  0
   55.7900   25.1720   46.3020 N   0  0  0  0  0  0  0  0  0  0  0  0
   56.2590   27.9300   44.1180 H   0  0  0  0  0  0  0  0  0  0  0  0
   58.9567   29.1985   46.3336 H   0  0  0  0  0  0  0  0  0  0  0  0
   59.7008   31.5761   46.3867 H   0  0  0  0  0  0  0  0  0  0  0  0
   60.9481   32.9504   46.1067 H   0  0  0  0  0  0  0  0  0  0  0  0
   61.5251   34.6280   46.1162 H   0  0  0  0  0  0  0  0  0  0  0  0
   61.7958   32.8613   48.2566 H   0  0  0  0  0  0  0  0  0  0  0  0
   61.8084   34.6170   48.4532 H   0  0  0  0  0  0  0  0  0  0  0  0
   59.7862   32.7221   49.3516 H   0  0  0  0  0  0  0  0  0  0  0  0
   59.7539   34.4750   49.5686 H   0  0  0  0  0  0  0  0  0  0  0  0
   58.4376   32.7713   47.4726 H   0  0  0  0  0  0  0  0  0  0  0  0
   57.9497   34.3731   48.0586 H   0  0  0  0  0  0  0  0  0  0  0  0
   56.4932   32.6451   43.6853 H   0  0  0  0  0  0  0  0  0  0  0  0
   55.7494   30.2696   43.6251 H   0  0  0  0  0  0  0  0  0  0  0  0
   58.5802   25.5865   44.4285 H   0  0  0  0  0  0  0  0  0  0  0  0
   58.1657   23.1523   44.0294 H   0  0  0  0  0  0  0  0  0  0  0  0
   56.2091   22.0314   45.1123 H   0  0  0  0  0  0  0  0  0  0  0  0
   54.6828   23.3677   46.5774 H   0  0  0  0  0  0  0  0  0  0  0  0
  1  2  2  0
  2  3  1  0
  3  4  1  0
  4  5  2  0
  5  6  1  0
  6  7  2  0
  7  8  1  0
  8  9  2  0
  8 10  2  0
  8 11  1  0
 11 12  1  0
 12 13  1  0
 13 14  1  0
 14 15  1  0
  7 16  1  0
 16 17  2  0
  2 18  1  0
 18 19  2  0
 19 20  1  0
 20 21  2  0
 21 22  1  0
 22 23  2  0
 17  4  1  0
 23 18  1  0
 15 11  1  0
  3 24  1  0
  5 25  1  0
  6 26  1  0
 12 27  1  0
 12 28  1  0
 13 29  1  0
 13 30  1  0
 14 31  1  0
 14 32  1  0
 15 33  1  0
 15 34  1  0
 16 35  1  0
 17 36  1  0
 19 37  1  0
 20 38  1  0
 21 39  1  0
 22 40  1  0
M  END
>  <UniqueID>  (19) 
18

>  <SMILES>  (19) 
O=C(Nc1ccc(S(=O)(=O)N2CCCC2)cc1)c1ccccn1

>  <Energy>  (19) 
46.98332072927778

>  <Genealogy>  (19) 
O=C(Nc1ccc(S(=O)(=O)N2CCCC2)cc1)c1ccccn1 (3D coordinates assigned)
O=C(Nc1ccc(S(=O)(=O)N2CCCC2)cc1)c1ccccn1 (nonaromatic ring conformer: 46.98332072927778 kcal/mol)

>  <smiles>  (19) 
O=C(Nc1ccc(S(=O)(=O)N2CCCC2)cc1)c1ccccn1

>  <score_type>  (19) 
oracle

>  <origin>  (19) 
adg

>  <m_score__min__energy>  (19) 
-8.1099999999999994

>  <m_primary>  (19) 
energy

$$$$
19:0
     RDKit          3D

 59 62  0  0  0  0  0  0  0  0999 V2000
   59.1000   34.5210   46.0450 C   0  0  0  0  0  0  0  0  0  0  0  0
   58.8590   33.2990   46.7340 O   0  0  0  0  0  0  0  0  0  0  0  0
   59.1370   32.0240   46.2170 C   0  0  0  0  0  0  0  0  0  0  0  0
   58.2160   31.3420   45.3950 C   0  0  0  0  0  0  0  0  0  0  0  0
   58.5030   30.0560   44.9120 C   0  0  0  0  0  0  0  0  0  0  0  0
   57.4940   29.3110   44.0800 C   0  0  0  0  0  0  0  0  0  0  0  0
   56.1190   29.5220   44.6240 C   0  0  0  0  0  0  0  0  0  0  0  0
   55.5250   28.5890   45.2240 O   0  0  0  0  0  0  0  0  0  0  0  0
   55.5100   30.7650   44.5110 O   0  0  0  0  0  0  0  0  0  0  0  0
   59.7150   29.4460   45.2550 C   0  0  0  0  0  0  0  0  0  0  0  0
   60.6360   30.1130   46.0620 C   0  0  0  0  0  0  0  0  0  0  0  0
   60.3600   31.4030   46.5460 C   0  0  0  0  0  0  0  0  0  0  0  0
   61.3290   32.0480   47.4630 C   0  0  0  0  0  0  0  0  0  0  0  0
   62.3710   32.8110   46.9060 C   0  0  0  0  0  0  0  0  0  0  0  0
   63.3230   33.4210   47.7260 C   0  0  0  0  0  0  0  0  0  0  0  0
   63.2480   33.2780   49.1100 C   0  0  0  0  0  0  0  0  0  0  0  0
   62.2180   32.5280   49.6800 C   0  0  0  0  0  0  0  0  0  0  0  0
   61.2510   31.9080   48.8700 C   0  0  0  0  0  0  0  0  0  0  0  0
   60.1800   31.1770   49.4930 N   0  0  0  0  0  0  0  0  0  0  0  0
   58.8040   31.6280   49.2870 C   0  0  0  0  0  0  0  0  0  0  0  0
   60.4480   29.5190   49.9440 S   0  0  0  0  0  0  0  0  0  0  0  0
   61.9210   29.2720   50.1170 O   0  0  0  0  0  0  0  0  0  0  0  0
   59.7700   29.2520   51.2600 O   0  0  0  0  0  0  0  0  0  0  0  0
   59.8220   28.4190   48.7150 C   0  0  0  0  0  0  0  0  0  0  0  0
   60.6220   27.3780   48.2320 C   0  0  0  0  0  0  0  0  0  0  0  0
   60.1290   26.4930   47.2710 C   0  0  0  0  0  0  0  0  0  0  0  0
   58.8180   26.6300   46.7780 C   0  0  0  0  0  0  0  0  0  0  0  0
   58.2950   25.6920   45.7500 C   0  0  0  0  0  0  0  0  0  0  0  0
   57.9030   26.1620   44.4820 C   0  0  0  0  0  0  0  0  0  0  0  0
   57.4000   25.2810   43.5210 C   0  0  0  0  0  0  0  0  0  0  0  0
   57.2890   23.9190   43.8100 C   0  0  0  0  0  0  0  0  0  0  0  0
   57.6780   23.4370   45.0600 C   0  0  0  0  0  0  0  0  0  0  0  0
   58.1790   24.3150   46.0270 C   0  0  0  0  0  0  0  0  0  0  0  0
   58.0150   27.6700   47.2760 C   0  0  0  0  0  0  0  0  0  0  0  0
   58.5120   28.5560   48.2380 C   0  0  0  0  0  0  0  0  0  0  0  0
   59.2592   35.3283   46.7750 H   0  0  0  0  0  0  0  0  0  0  0  0
   59.9947   34.4157   45.4138 H   0  0  0  0  0  0  0  0  0  0  0  0
   58.2323   34.7633   45.4138 H   0  0  0  0  0  0  0  0  0  0  0  0
   57.2630   31.8230   45.1298 H   0  0  0  0  0  0  0  0  0  0  0  0
   57.5351   29.6785   43.0440 H   0  0  0  0  0  0  0  0  0  0  0  0
   57.7296   28.2369   44.1075 H   0  0  0  0  0  0  0  0  0  0  0  0
   59.9423   28.4350   44.8860 H   0  0  0  0  0  0  0  0  0  0  0  0
   61.5870   29.6251   46.3220 H   0  0  0  0  0  0  0  0  0  0  0  0
   62.4368   32.9284   45.8143 H   0  0  0  0  0  0  0  0  0  0  0  0
   64.1333   34.0153   47.2785 H   0  0  0  0  0  0  0  0  0  0  0  0
   64.0009   33.7564   49.7537 H   0  0  0  0  0  0  0  0  0  0  0  0
   62.1625   32.4212   50.7734 H   0  0  0  0  0  0  0  0  0  0  0  0
   58.3202   31.7866   50.2621 H   0  0  0  0  0  0  0  0  0  0  0  0
   58.8082   32.5718   48.7220 H   0  0  0  0  0  0  0  0  0  0  0  0
   58.2487   30.8648   48.7220 H   0  0  0  0  0  0  0  0  0  0  0  0
   61.6470   27.2557   48.6121 H   0  0  0  0  0  0  0  0  0  0  0  0
   60.7707   25.6820   46.8962 H   0  0  0  0  0  0  0  0  0  0  0  0
   57.9935   27.2325   44.2457 H   0  0  0  0  0  0  0  0  0  0  0  0
   57.0911   25.6605   42.5358 H   0  0  0  0  0  0  0  0  0  0  0  0
   56.8948   23.2263   43.0519 H   0  0  0  0  0  0  0  0  0  0  0  0
   57.5906   22.3640   45.2858 H   0  0  0  0  0  0  0  0  0  0  0  0
   58.4845   23.9280   47.0103 H   0  0  0  0  0  0  0  0  0  0  0  0
   56.9859   27.7887   46.9060 H   0  0  0  0  0  0  0  0  0  0  0  0
   57.8713   29.3637   48.6215 H   0  0  0  0  0  0  0  0  0  0  0  0
  1  2  1  0
  2  3  1  0
  3  4  2  0
  4  5  1  0
  5  6  1  0
  6  7  1  0
  7  8  2  0
  7  9  1  0
  5 10  2  0
 10 11  1  0
 11 12  2  0
 12 13  1  0
 13 14  2  0
 14 15  1  0
 15 16  2  0
 16 17  1  0
 17 18  2  0
 18 19  1  0
 19 20  1  0
 19 21  1  0
 21 22  2  0
 21 23  2  0
 21 24  1  0
 24 25  2  0
 25 26  1  0
 26 27  2  0
 27 28  1  0
 28 29  2  0
 29 30  1  0
 30 31  2  0
 31 32  1  0
 32 33  2  0
 27 34  1  0
 34 35  2  0
 12  3  1  0
 18 13  1  0
 35 24  1  0
 33 28  1  0
  1 36  1  0
  1 37  1  0
  1 38  1  0
  4 39  1  0
  6 40  1  0
  6 41  1  0
 10 42  1  0
 11 43  1  0
 14 44  1  0
 15 45  1  0
 16 46  1  0
 17 47  1  0
 20 48  1  0
 20 49  1  0
 20 50  1  0
 25 51  1  0
 26 52  1  0
 29 53  1  0
 30 54  1  0
 31 55  1  0
 32 56  1  0
 33 57  1  0
 34 58  1  0
 35 59  1  0
M  CHG  1   9  -1
M  END
>  <UniqueID>  (20) 
19

>  <SMILES>  (20) 
COc1cc(CC(=O)[O-])ccc1-c1ccccc1N(C)S(=O)(=O)c1ccc(-c2ccccc2)cc1

>  <Energy>  (20) 
72.07514689879181

>  <Genealogy>  (20) 
COc1cc(CC(=O)[O-])ccc1-c1ccccc1N(C)S(=O)(=O)c1ccc(-c2ccccc2)cc1 (protonated)
COc1cc(CC(=O)[O-])ccc1-c1ccccc1N(C)S(=O)(=O)c1ccc(-c2ccccc2)cc1 (3D coordinates assigned)
COc1cc(CC(=O)[O-])ccc1-c1ccccc1N(C)S(=O)(=O)c1ccc(-c2ccccc2)cc1 (optimized conformer: 72.07514689879181 kcal/mol)

>  <smiles>  (20) 
COc1cc(CC(=O)O)ccc1-c1ccccc1N(C)S(=O)(=O)c1ccc(-c2ccccc2)cc1

>  <score_type>  (20) 
oracle

>  <origin>  (20) 
adg

>  <m_score__min__energy>  (20) 
-12.51

>  <m_primary>  (20) 
energy

$$$$
20:0
     RDKit          3D

 47 49  0  0  0  0  0  0  0  0999 V2000
   55.5580   28.9630   44.8690 N   0  0  0  0  0  0  0  0  0  0  0  0
   56.7310   29.7600   45.0610 C   0  0  0  0  0  0  0  0  0  0  0  0
   56.6520   31.1010   44.8650 N   0  0  0  0  0  0  0  0  0  0  0  0
   57.7510   31.8930   44.9320 C   0  0  0  0  0  0  0  0  0  0  0  0
   57.6120   33.6430   44.5760 S   0  0  0  0  0  0  0  0  0  0  0  0
   59.3310   34.0340   45.0550 C   0  0  0  0  0  0  0  0  0  0  0  0
   59.4610   34.0870   46.5520 C   0  0  0  0  0  0  0  0  0  0  0  0
   58.4180   34.2740   47.2370 O   0  0  0  0  0  0  0  0  0  0  0  0
   60.7380   33.9960   47.2130 N   0  0  0  0  0  0  0  0  0  0  0  0
   60.8950   34.2080   48.6420 C   0  0  0  0  0  0  0  0  0  0  0  0
   62.3370   33.8400   48.9640 C   0  0  0  0  0  0  0  0  0  0  0  0
   63.0660   33.7850   47.6260 C   0  0  0  0  0  0  0  0  0  0  0  0
   61.9880   33.6330   46.5620 C   0  0  0  0  0  0  0  0  0  0  0  0
   58.9650   31.3500   45.2050 N   0  0  0  0  0  0  0  0  0  0  0  0
   59.1010   30.0170   45.4240 C   0  0  0  0  0  0  0  0  0  0  0  0
   60.2380   29.5420   45.6840 O   0  0  0  0  0  0  0  0  0  0  0  0
   57.9770   29.1800   45.3690 C   0  0  0  0  0  0  0  0  0  0  0  0
   58.1190   27.7700   45.5860 N   0  0  0  0  0  0  0  0  0  0  0  0
   58.4050   27.2190   46.8780 C   0  0  0  0  0  0  0  0  0  0  0  0
   58.7240   27.9740   47.8370 O   0  0  0  0  0  0  0  0  0  0  0  0
   58.2700   25.7460   47.1120 C   0  0  0  0  0  0  0  0  0  0  0  0
   57.4020   25.1430   46.0420 C   0  0  0  0  0  0  0  0  0  0  0  0
   57.9850   24.5470   44.9120 C   0  0  0  0  0  0  0  0  0  0  0  0
   57.1840   23.9340   43.9470 C   0  0  0  0  0  0  0  0  0  0  0  0
   55.7950   23.9040   44.1050 C   0  0  0  0  0  0  0  0  0  0  0  0
   55.2060   24.4850   45.2300 C   0  0  0  0  0  0  0  0  0  0  0  0
   56.0040   25.0980   46.2000 C   0  0  0  0  0  0  0  0  0  0  0  0
   54.7610   28.9850   45.5400 H   0  0  0  0  0  0  0  0  0  0  0  0
   55.5430   28.2360   44.1190 H   0  0  0  0  0  0  0  0  0  0  0  0
   60.0024   33.2571   44.6605 H   0  0  0  0  0  0  0  0  0  0  0  0
   59.6018   35.0157   44.6392 H   0  0  0  0  0  0  0  0  0  0  0  0
   60.7033   35.2611   48.8957 H   0  0  0  0  0  0  0  0  0  0  0  0
   60.1846   33.5991   49.2205 H   0  0  0  0  0  0  0  0  0  0  0  0
   62.7898   34.6025   49.6148 H   0  0  0  0  0  0  0  0  0  0  0  0
   62.3983   32.8790   49.4958 H   0  0  0  0  0  0  0  0  0  0  0  0
   63.6348   34.7123   47.4631 H   0  0  0  0  0  0  0  0  0  0  0  0
   63.7824   32.9509   47.5934 H   0  0  0  0  0  0  0  0  0  0  0  0
   62.1882   34.3050   45.7144 H   0  0  0  0  0  0  0  0  0  0  0  0
   61.9546   32.6091   46.1613 H   0  0  0  0  0  0  0  0  0  0  0  0
   58.1280   27.1380   44.7560 H   0  0  0  0  0  0  0  0  0  0  0  0
   59.2651   25.2780   47.0832 H   0  0  0  0  0  0  0  0  0  0  0  0
   57.8102   25.5729   48.0962 H   0  0  0  0  0  0  0  0  0  0  0  0
   59.0777   24.5633   44.7867 H   0  0  0  0  0  0  0  0  0  0  0  0
   57.6461   23.4739   43.0611 H   0  0  0  0  0  0  0  0  0  0  0  0
   55.1656   23.4222   43.3423 H   0  0  0  0  0  0  0  0  0  0  0  0
   54.1132   24.4602   45.3528 H   0  0  0  0  0  0  0  0  0  0  0  0
   55.5381   25.5467   47.0897 H   0  0  0  0  0  0  0  0  0  0  0  0
  1  2  1  0
  2  3  1  0
  3  4  1  0
  4  5  1  0
  5  6  1  0
  6  7  1  0
  7  8  2  0
  7  9  1  0
  9 10  1  0
 10 11  1  0
 11 12  1  0
 12 13  1  0
  4 14  2  0
 14 15  1  0
 15 16  2  0
 15 17  1  0
 17 18  1  0
 18 19  1  0
 19 20  2  0
 19 21  1  0
 21 22  1  0
 22 23  2  0
 23 24  1  0
 24 25  2  0
 25 26  1  0
 26 27  2  0
 17  2  2  0
 27 22  1  0
 13  9  1  0
  1 28  1  0
  1 29  1  0
  6 30  1  0
  6 31  1  0
 10 32  1  0
 10 33  1  0
 11 34  1  0
 11 35  1  0
 12 36  1  0
 12 37  1  0
 13 38  1  0
 13 39  1  0
 18 40  1  0
 21 41  1  0
 21 42  1  0
 23 43  1  0
 24 44  1  0
 25 45  1  0
 26 46  1  0
 27 47  1  0
M  CHG  1   3  -1
M  END
>  <UniqueID>  (21) 
20

>  <SMILES>  (21) 
Nc1[n-]c(SCC(=O)N2CCCC2)nc(=O)c1NC(=O)Cc1ccccc1

>  <Energy>  (21) 
43.738562678067034

>  <Genealogy>  (21) 
Nc1[n-]c(SCC(=O)N2CCCC2)nc(=O)c1NC(=O)Cc1ccccc1 (protonated)
Nc1[n-]c(SCC(=O)N2CCCC2)nc(=O)c1NC(=O)Cc1ccccc1 (3D coordinates assigned)
Nc1[n-]c(SCC(=O)N2CCCC2)nc(=O)c1NC(=O)Cc1ccccc1 (nonaromatic ring conformer: 43.738562678067034 kcal/mol)

>  <smiles>  (21) 
Nc1[nH]c(SCC(=O)N2CCCC2)nc(=O)c1NC(=O)Cc1ccccc1

>  <score_type>  (21) 
oracle

>  <origin>  (21) 
adg

>  <m_score__min__energy>  (21) 
-10.85

>  <m_primary>  (21) 
energy

$$$$
21:0
     RDKit          3D

 65 69  0  0  0  0  0  0  0  0999 V2000
   55.3610   29.3460   44.9340 O   0  0  0  0  0  0  0  0  0  0  0  0
   56.6150   29.4420   44.9690 C   0  0  0  0  0  0  0  0  0  0  0  0
   57.3710   29.6950   43.7000 C   0  0  0  0  0  0  0  0  0  0  0  0
   56.8750   30.9450   42.9470 C   0  0  0  0  0  0  0  0  0  0  0  0
   57.9190   32.0730   42.8510 C   0  0  0  0  0  0  0  0  0  0  0  0
   58.0140   32.8720   44.1290 C   0  0  0  0  0  0  0  0  0  0  0  0
   57.0240   32.7440   45.1190 C   0  0  0  0  0  0  0  0  0  0  0  0
   57.0890   33.5140   46.2870 C   0  0  0  0  0  0  0  0  0  0  0  0
   58.1400   34.4160   46.4730 C   0  0  0  0  0  0  0  0  0  0  0  0
   59.1310   34.5490   45.4930 C   0  0  0  0  0  0  0  0  0  0  0  0
   59.0680   33.7820   44.3250 C   0  0  0  0  0  0  0  0  0  0  0  0
   57.3400   29.3130   46.2010 N   0  0  0  0  0  0  0  0  0  0  0  0
   58.5450   29.9730   46.6350 C   0  0  0  0  0  0  0  0  0  0  0  0
   58.5440   31.0720   47.5190 C   0  0  0  0  0  0  0  0  0  0  0  0
   59.7480   31.6620   47.9060 C   0  0  0  0  0  0  0  0  0  0  0  0
   60.9450   31.1790   47.3850 C   0  0  0  0  0  0  0  0  0  0  0  0
   60.9360   30.1310   46.5230 N   0  0  0  0  0  0  0  0  0  0  0  0
   59.7800   29.5160   46.1380 C   0  0  0  0  0  0  0  0  0  0  0  0
   59.8130   28.5090   45.3120 N   0  0  0  0  0  0  0  0  0  0  0  0
   60.2420   27.1550   45.6610 C   0  0  0  0  0  0  0  0  0  0  0  0
   59.0570   26.2730   45.9050 C   0  0  0  0  0  0  0  0  0  0  0  0
   58.2700   25.8080   44.8990 N   0  0  0  0  0  0  0  0  0  0  0  0
   57.3390   25.1070   45.5630 C   0  0  0  0  0  0  0  0  0  0  0  0
   56.2650   24.3960   45.0310 C   0  0  0  0  0  0  0  0  0  0  0  0
   55.4120   23.7140   45.9300 C   0  0  0  0  0  0  0  0  0  0  0  0
   54.2450   22.9680   45.4200 C   0  0  0  0  0  0  0  0  0  0  0  0
   53.4640   23.5270   44.6060 O   0  0  0  0  0  0  0  0  0  0  0  0
   53.9460   21.6380   45.8630 N   0  0  0  0  0  0  0  0  0  0  0  0
   54.8040   20.4840   45.6120 C   0  0  0  0  0  0  0  0  0  0  0  0
   56.1560   20.9580   45.1650 C   0  0  0  0  0  0  0  0  0  0  0  0
   57.1920   21.1250   46.1040 C   0  0  0  0  0  0  0  0  0  0  0  0
   58.4580   21.5410   45.6830 C   0  0  0  0  0  0  0  0  0  0  0  0
   58.7050   21.7810   44.3250 C   0  0  0  0  0  0  0  0  0  0  0  0
   59.9360   22.1780   43.9170 F   0  0  0  0  0  0  0  0  0  0  0  0
   57.6840   21.5980   43.3850 C   0  0  0  0  0  0  0  0  0  0  0  0
   56.4140   21.1840   43.8020 C   0  0  0  0  0  0  0  0  0  0  0  0
   55.6520   23.7990   47.3280 C   0  0  0  0  0  0  0  0  0  0  0  0
   56.7480   24.5300   47.8240 C   0  0  0  0  0  0  0  0  0  0  0  0
   57.5710   25.1680   46.9030 C   0  0  0  0  0  0  0  0  0  0  0  0
   58.6610   25.9090   47.1530 N   0  0  0  0  0  0  0  0  0  0  0  0
   58.4343   29.8321   43.9460 H   0  0  0  0  0  0  0  0  0  0  0  0
   57.2122   28.8279   43.0420 H   0  0  0  0  0  0  0  0  0  0  0  0
   56.5944   30.6455   41.9264 H   0  0  0  0  0  0  0  0  0  0  0  0
   56.0252   31.3454   43.5194 H   0  0  0  0  0  0  0  0  0  0  0  0
   58.9022   31.6286   42.6371 H   0  0  0  0  0  0  0  0  0  0  0  0
   57.6054   32.7562   42.0479 H   0  0  0  0  0  0  0  0  0  0  0  0
   56.1946   32.0358   44.9755 H   0  0  0  0  0  0  0  0  0  0  0  0
   56.3121   33.4087   47.0586 H   0  0  0  0  0  0  0  0  0  0  0  0
   58.1887   35.0218   47.3898 H   0  0  0  0  0  0  0  0  0  0  0  0
   59.9596   35.2571   45.6417 H   0  0  0  0  0  0  0  0  0  0  0  0
   59.8468   33.8912   43.5559 H   0  0  0  0  0  0  0  0  0  0  0  0
   57.5917   31.4651   47.9044 H   0  0  0  0  0  0  0  0  0  0  0  0
   59.7511   32.5016   48.6167 H   0  0  0  0  0  0  0  0  0  0  0  0
   61.8983   31.6469   47.6720 H   0  0  0  0  0  0  0  0  0  0  0  0
   60.8373   26.7401   44.8343 H   0  0  0  0  0  0  0  0  0  0  0  0
   60.8456   27.2000   46.5795 H   0  0  0  0  0  0  0  0  0  0  0  0
   56.0862   24.3661   43.9460 H   0  0  0  0  0  0  0  0  0  0  0  0
   54.9079   19.8957   46.5357 H   0  0  0  0  0  0  0  0  0  0  0  0
   54.3562   19.8560   44.8277 H   0  0  0  0  0  0  0  0  0  0  0  0
   57.0046   20.9278   47.1698 H   0  0  0  0  0  0  0  0  0  0  0  0
   59.2627   21.6804   46.4199 H   0  0  0  0  0  0  0  0  0  0  0  0
   57.8801   21.7797   42.3180 H   0  0  0  0  0  0  0  0  0  0  0  0
   55.6151   21.0350   43.0607 H   0  0  0  0  0  0  0  0  0  0  0  0
   54.9751   23.2889   48.0291 H   0  0  0  0  0  0  0  0  0  0  0  0
   56.9466   24.5942   48.9040 H   0  0  0  0  0  0  0  0  0  0  0  0
  1  2  2  0
  2  3  1  0
  3  4  1  0
  4  5  1  0
  5  6  1  0
  6  7  2  0
  7  8  1  0
  8  9  2  0
  9 10  1  0
 10 11  2  0
  2 12  1  0
 12 13  1  0
 13 14  2  0
 14 15  1  0
 15 16  2  0
 16 17  1  0
 17 18  1  0
 18 19  2  3
 19 20  1  0
 20 21  1  0
 21 22  2  0
 22 23  1  0
 23 24  2  0
 24 25  1  0
 25 26  1  0
 26 27  2  0
 26 28  1  0
 28 29  1  0
 29 30  1  0
 30 31  2  0
 31 32  1  0
 32 33  2  0
 33 34  1  0
 33 35  1  0
 35 36  2  0
 25 37  2  0
 37 38  1  0
 38 39  2  0
 39 40  1  0
 11  6  1  0
 18 13  1  0
 40 21  1  0
 39 23  1  0
 36 30  1  0
  3 41  1  0
  3 42  1  0
  4 43  1  0
  4 44  1  0
  5 45  1  0
  5 46  1  0
  7 47  1  0
  8 48  1  0
  9 49  1  0
 10 50  1  0
 11 51  1  0
 14 52  1  0
 15 53  1  0
 16 54  1  0
 20 55  1  0
 20 56  1  0
 24 57  1  0
 29 58  1  0
 29 59  1  0
 31 60  1  0
 32 61  1  0
 35 62  1  0
 36 63  1  0
 37 64  1  0
 38 65  1  0
M  CHG  4  12  -1  17  -1  28  -1  40  -1
M  END
>  <UniqueID>  (22) 
21

>  <SMILES>  (22) 
O=C(CCCc1ccccc1)[N-]c1ccc[n-]c1=NCc1nc2cc(C(=O)[N-]Cc3ccc(F)cc3)ccc2[n-]1

>  <Energy>  (22) 
110.56957387148717

>  <Genealogy>  (22) 
O=C(CCCc1ccccc1)[N-]c1ccc[n-]c1=NCc1nc2cc(C(=O)[N-]Cc3ccc(F)cc3)ccc2[n-]1 (protonated)
O=C(CCCc1ccccc1)[N-]c1ccc[n-]c1=NCc1nc2cc(C(=O)[N-]Cc3ccc(F)cc3)ccc2[n-]1 (3D coordinates assigned)
O=C(CCCc1ccccc1)[N-]c1ccc[n-]c1=NCc1nc2cc(C(=O)[N-]Cc3ccc(F)cc3)ccc2[n-]1 (optimized conformer: 110.56957387148717 kcal/mol)

>  <smiles>  (22) 
O=C(CCCc1ccccc1)Nc1ccc[nH]c1=NCc1nc2cc(C(=O)NCc3ccc(F)cc3)ccc2[nH]1

>  <score_type>  (22) 
oracle

>  <origin>  (22) 
adg

>  <m_score__min__energy>  (22) 
-14.369999999999999

>  <m_primary>  (22) 
energy

$$$$
22:0
     RDKit          3D

 35 35  0  0  0  0  0  0  0  0999 V2000
   58.1581   25.6522   46.9255 H   0  0  0  0  0  0  0  0  0  0  0  0
   57.8780   26.4100   46.1790 C   0  0  0  0  0  0  0  0  0  0  0  0
   56.4420   26.7090   46.0300 C   0  0  0  0  0  0  0  0  0  0  0  0
   56.0500   27.8370   45.6230 O   0  0  0  0  0  0  0  0  0  0  0  0
   55.5170   25.6910   46.2820 O   0  0  0  0  0  0  0  0  0  0  0  0
   55.7980   24.3190   46.0300 C   0  0  0  0  0  0  0  0  0  0  0  0
   54.9833   23.6985   46.4314 H   0  0  0  0  0  0  0  0  0  0  0  0
   56.7445   24.0437   46.5183 H   0  0  0  0  0  0  0  0  0  0  0  0
   55.9170   24.0910   44.5310 C   0  0  0  0  0  0  0  0  0  0  0  0
   56.4186   23.1299   44.3450 H   0  0  0  0  0  0  0  0  0  0  0  0
   54.9130   24.0735   44.0819 H   0  0  0  0  0  0  0  0  0  0  0  0
   56.5054   24.9047   44.0819 H   0  0  0  0  0  0  0  0  0  0  0  0
   58.8740   26.9820   45.4830 C   0  0  0  0  0  0  0  0  0  0  0  0
   59.5357   26.3163   44.9094 H   0  0  0  0  0  0  0  0  0  0  0  0
   59.1540   28.4280   45.4240 C   0  0  0  0  0  0  0  0  0  0  0  0
   60.2720   28.8100   44.9830 O   0  0  0  0  0  0  0  0  0  0  0  0
   58.2310   29.3840   45.9690 N   0  0  0  0  0  0  0  0  0  0  0  0
   57.5210   29.0440   46.6570 H   0  0  0  0  0  0  0  0  0  0  0  0
   58.3570   30.8020   45.7630 C   0  0  0  0  0  0  0  0  0  0  0  0
   57.3890   31.5170   45.0400 C   0  0  0  0  0  0  0  0  0  0  0  0
   56.2700   30.8410   44.5260 O   0  0  0  0  0  0  0  0  0  0  0  0
   56.2820   30.0310   43.3560 C   0  0  0  0  0  0  0  0  0  0  0  0
   56.2977   28.9697   43.6449 H   0  0  0  0  0  0  0  0  0  0  0  0
   55.3807   30.2353   42.7594 H   0  0  0  0  0  0  0  0  0  0  0  0
   57.1768   30.2619   42.7594 H   0  0  0  0  0  0  0  0  0  0  0  0
   57.5620   32.8990   44.8760 C   0  0  0  0  0  0  0  0  0  0  0  0
   56.8313   33.4810   44.2952 H   0  0  0  0  0  0  0  0  0  0  0  0
   58.6320   33.5160   45.4350 N   0  0  0  0  0  0  0  0  0  0  0  0
   59.5430   32.8510   46.1490 N   0  0  0  0  0  0  0  0  0  0  0  0
   60.6640   33.5960   46.7250 C   0  0  0  0  0  0  0  0  0  0  0  0
   60.6049   33.5567   47.8227 H   0  0  0  0  0  0  0  0  0  0  0  0
   61.6118   33.1475   46.3925 H   0  0  0  0  0  0  0  0  0  0  0  0
   60.6175   34.6435   46.3925 H   0  0  0  0  0  0  0  0  0  0  0  0
   59.4330   31.5000   46.3350 C   0  0  0  0  0  0  0  0  0  0  0  0
   60.2990   30.8750   47.0080 O   0  0  0  0  0  0  0  0  0  0  0  0
  1  2  1  0
  2  3  1  0
  3  4  2  0
  3  5  1  0
  5  6  1  0
  6  7  1  0
  6  8  1  0
  6  9  1  0
  9 10  1  0
  9 11  1  0
  9 12  1  0
  2 13  2  0
 13 14  1  0
 13 15  1  0
 15 16  2  0
 15 17  1  0
 17 18  1  0
 17 19  1  0
 19 20  2  0
 20 21  1  0
 21 22  1  0
 22 23  1  0
 22 24  1  0
 22 25  1  0
 20 26  1  0
 26 27  1  0
 26 28  2  0
 28 29  1  0
 29 30  1  0
 30 31  1  0
 30 32  1  0
 30 33  1  0
 29 34  1  0
 34 35  2  0
 34 19  1  0
M  END
>  <UniqueID>  (23) 
22

>  <SMILES>  (23) 
CCOC(=O)/C=C\C(=O)Nc1c(OC)cnn(C)c1=O

>  <Energy>  (23) 
38.834240503826685

>  <Genealogy>  (23) 
CCOC(=O)/C=C\C(=O)Nc1c(OC)cnn(C)c1=O (cis-trans isomerization)
CCOC(=O)/C=C\C(=O)Nc1c(OC)cnn(C)c1=O (3D coordinates assigned)
CCOC(=O)/C=C\C(=O)Nc1c(OC)cnn(C)c1=O (optimized conformer: 38.834240503826685 kcal/mol)

>  <smiles>  (23) 
CCOC(=O)C=CC(=O)Nc1c(OC)cnn(C)c1=O

>  <score_type>  (23) 
oracle

>  <origin>  (23) 
adg

>  <m_score__min__energy>  (23) 
-5.6299999999999999

>  <m_primary>  (23) 
energy

$$$$
23:0
     RDKit          3D

 59 62  0  0  0  0  0  0  0  0999 V2000
   60.0630   28.7310   44.8680 C   0  0  0  0  0  0  0  0  0  0  0  0
   58.8350   28.0320   44.2880 C   0  0  0  0  0  0  0  0  0  0  0  0
   57.9770   27.4980   45.3570 N   0  0  0  0  0  0  0  0  0  0  0  0
   58.5110   26.4840   46.2770 C   0  0  0  0  0  0  0  0  0  0  0  0
   58.3320   25.1190   45.6940 C   0  0  0  0  0  0  0  0  0  0  0  0
   59.3610   24.2090   45.7440 N   0  0  0  0  0  0  0  0  0  0  0  0
   59.2340   22.9630   45.1970 C   0  0  0  0  0  0  0  0  0  0  0  0
   60.1810   22.1360   45.2570 O   0  0  0  0  0  0  0  0  0  0  0  0
   58.0330   22.6480   44.5800 C   0  0  0  0  0  0  0  0  0  0  0  0
   57.5390   21.5310   43.9380 C   0  0  0  0  0  0  0  0  0  0  0  0
   56.2730   21.8060   43.5230 N   0  0  0  0  0  0  0  0  0  0  0  0
   55.9800   23.0530   43.8790 N   0  0  0  0  0  0  0  0  0  0  0  0
   54.7010   23.7060   43.6200 C   0  0  0  0  0  0  0  0  0  0  0  0
   53.9050   23.8140   44.8920 C   0  0  0  0  0  0  0  0  0  0  0  0
   53.9160   24.9020   45.5270 O   0  0  0  0  0  0  0  0  0  0  0  0
   53.0930   22.7410   45.3840 N   0  0  0  0  0  0  0  0  0  0  0  0
   53.1730   22.1710   46.7230 C   0  0  0  0  0  0  0  0  0  0  0  0
   54.6200   21.9640   47.0960 C   0  0  0  0  0  0  0  0  0  0  0  0
   55.3120   23.0060   47.7340 C   0  0  0  0  0  0  0  0  0  0  0  0
   56.6620   22.8450   48.0590 C   0  0  0  0  0  0  0  0  0  0  0  0
   57.2850   23.7720   48.6380 O   0  0  0  0  0  0  0  0  0  0  0  0
   57.3020   21.6880   47.7510 N   0  0  0  0  0  0  0  0  0  0  0  0
   56.6690   20.6610   47.1280 C   0  0  0  0  0  0  0  0  0  0  0  0
   55.3120   20.7690   46.7780 C   0  0  0  0  0  0  0  0  0  0  0  0
   54.6280   19.6080   46.1050 C   0  0  0  0  0  0  0  0  0  0  0  0
   57.0380   23.5630   44.5270 C   0  0  0  0  0  0  0  0  0  0  0  0
   57.1550   24.7970   45.0720 N   0  0  0  0  0  0  0  0  0  0  0  0
   56.6130   27.9470   45.4890 C   0  0  0  0  0  0  0  0  0  0  0  0
   55.6820   27.1070   45.6240 O   0  0  0  0  0  0  0  0  0  0  0  0
   56.3210   29.3490   45.5030 N   0  0  0  0  0  0  0  0  0  0  0  0
   56.7540   30.3170   44.5340 C   0  0  0  0  0  0  0  0  0  0  0  0
   56.5460   30.1370   43.1550 C   0  0  0  0  0  0  0  0  0  0  0  0
   57.0140   31.0900   42.2410 C   0  0  0  0  0  0  0  0  0  0  0  0
   57.6910   32.2260   42.6930 C   0  0  0  0  0  0  0  0  0  0  0  0
   57.9200   32.4020   44.0630 C   0  0  0  0  0  0  0  0  0  0  0  0
   58.6430   33.5590   44.5270 C   0  0  0  0  0  0  0  0  0  0  0  0
   59.2200   34.4860   44.9060 N   0  0  0  0  0  0  0  0  0  0  0  0
   57.4580   31.4420   44.9790 C   0  0  0  0  0  0  0  0  0  0  0  0
   60.0155   28.7040   45.9666 H   0  0  0  0  0  0  0  0  0  0  0  0
   60.9732   28.2157   44.5275 H   0  0  0  0  0  0  0  0  0  0  0  0
   60.0846   29.7768   44.5275 H   0  0  0  0  0  0  0  0  0  0  0  0
   58.2585   28.7543   43.6914 H   0  0  0  0  0  0  0  0  0  0  0  0
   59.1730   27.1949   43.6595 H   0  0  0  0  0  0  0  0  0  0  0  0
   59.5821   26.6713   46.4435 H   0  0  0  0  0  0  0  0  0  0  0  0
   57.9689   26.5423   47.2324 H   0  0  0  0  0  0  0  0  0  0  0  0
   58.0758   20.5827   43.7878 H   0  0  0  0  0  0  0  0  0  0  0  0
   54.8825   24.7139   43.2184 H   0  0  0  0  0  0  0  0  0  0  0  0
   54.1339   23.1077   42.8917 H   0  0  0  0  0  0  0  0  0  0  0  0
   52.7036   22.8579   47.4425 H   0  0  0  0  0  0  0  0  0  0  0  0
   52.6477   21.2047   46.7421 H   0  0  0  0  0  0  0  0  0  0  0  0
   54.7938   23.9453   47.9771 H   0  0  0  0  0  0  0  0  0  0  0  0
   57.2216   19.7387   46.8957 H   0  0  0  0  0  0  0  0  0  0  0  0
   54.2263   18.9261   46.8690 H   0  0  0  0  0  0  0  0  0  0  0  0
   53.8053   19.9809   45.4773 H   0  0  0  0  0  0  0  0  0  0  0  0
   55.3529   19.0691   45.4773 H   0  0  0  0  0  0  0  0  0  0  0  0
   56.0141   29.2449   42.7927 H   0  0  0  0  0  0  0  0  0  0  0  0
   56.8480   30.9436   41.1635 H   0  0  0  0  0  0  0  0  0  0  0  0
   58.0432   32.9803   41.9740 H   0  0  0  0  0  0  0  0  0  0  0  0
   57.6510   31.5755   46.0537 H   0  0  0  0  0  0  0  0  0  0  0  0
  1  2  1  0
  2  3  1  0
  3  4  1  0
  4  5  1  0
  5  6  2  0
  6  7  1  0
  7  8  2  0
  7  9  1  0
  9 10  1  0
 10 11  2  0
 11 12  1  0
 12 13  1  0
 13 14  1  0
 14 15  2  0
 14 16  1  0
 16 17  1  0
 17 18  1  0
 18 19  2  0
 19 20  1  0
 20 21  2  0
 20 22  1  0
 22 23  1  0
 23 24  2  0
 24 25  1  0
 12 26  1  0
 26 27  1  0
  3 28  1  0
 28 29  2  0
 28 30  1  0
 30 31  1  0
 31 32  2  0
 32 33  1  0
 33 34  2  0
 34 35  1  0
 35 36  1  0
 36 37  3  0
 35 38  2  0
 27  5  1  0
 38 31  1  0
 26  9  2  0
 24 18  1  0
  1 39  1  0
  1 40  1  0
  1 41  1  0
  2 42  1  0
  2 43  1  0
  4 44  1  0
  4 45  1  0
 10 46  1  0
 13 47  1  0
 13 48  1  0
 17 49  1  0
 17 50  1  0
 19 51  1  0
 23 52  1  0
 25 53  1  0
 25 54  1  0
 25 55  1  0
 32 56  1  0
 33 57  1  0
 34 58  1  0
 38 59  1  0
M  CHG  4  16  -1  22  -1  27  -1  30  -1
M  END
>  <UniqueID>  (24) 
23

>  <SMILES>  (24) 
CCN(Cc1nc(=O)c2cnn(CC(=O)[N-]Cc3cc(=O)[n-]cc3C)c2[n-]1)C(=O)[N-]c1cccc(C#N)c1

>  <Energy>  (24) 
101.6138494292913

>  <Genealogy>  (24) 
CCN(Cc1nc(=O)c2cnn(CC(=O)[N-]Cc3cc(=O)[n-]cc3C)c2[n-]1)C(=O)[N-]c1cccc(C#N)c1 (protonated)
CCN(Cc1nc(=O)c2cnn(CC(=O)[N-]Cc3cc(=O)[n-]cc3C)c2[n-]1)C(=O)[N-]c1cccc(C#N)c1 (3D coordinates assigned)
CCN(Cc1nc(=O)c2cnn(CC(=O)[N-]Cc3cc(=O)[n-]cc3C)c2[n-]1)C(=O)[N-]c1cccc(C#N)c1 (optimized conformer: 101.6138494292913 kcal/mol)

>  <smiles>  (24) 
CCN(Cc1nc(=O)c2cnn(CC(=O)NCc3cc(=O)[nH]cc3C)c2[nH]1)C(=O)Nc1cccc(C#N)c1

>  <score_type>  (24) 
oracle

>  <origin>  (24) 
adg

>  <m_score__min__energy>  (24) 
-16.59

>  <m_primary>  (24) 
energy

$$$$
24:0
     RDKit          3D

 36 38  0  0  0  0  0  0  0  0999 V2000
   59.9690   27.5860   46.3270 O   0  0  0  0  0  0  0  0  0  0  0  0
   58.8220   28.0210   46.0380 C   0  0  0  0  0  0  0  0  0  0  0  0
   58.6380   29.4100   45.7250 N   0  0  0  0  0  0  0  0  0  0  0  0
   59.7450   30.3670   45.7260 C   0  0  0  0  0  0  0  0  0  0  0  0
   59.2850   31.7300   46.2030 C   0  0  0  0  0  0  0  0  0  0  0  0
   59.5140   32.0780   47.5490 C   0  0  0  0  0  0  0  0  0  0  0  0
   59.1130   33.3190   48.0460 C   0  0  0  0  0  0  0  0  0  0  0  0
   58.4630   34.2260   47.2150 C   0  0  0  0  0  0  0  0  0  0  0  0
   58.1960   33.8910   45.8870 C   0  0  0  0  0  0  0  0  0  0  0  0
   58.5780   32.6410   45.3680 C   0  0  0  0  0  0  0  0  0  0  0  0
   58.2420   32.3340   43.9250 C   0  0  0  0  0  0  0  0  0  0  0  0
   57.2150   31.2970   43.8420 N   0  0  0  0  0  0  0  0  0  0  0  0
   56.9280   30.5490   42.7600 C   0  0  0  0  0  0  0  0  0  0  0  0
   55.8720   29.7220   43.0730 C   0  0  0  0  0  0  0  0  0  0  0  0
   55.5570   30.0330   44.3820 C   0  0  0  0  0  0  0  0  0  0  0  0
   56.3840   31.0000   44.8270 N   0  0  0  0  0  0  0  0  0  0  0  0
   57.6780   27.0960   46.0310 C   0  0  0  0  0  0  0  0  0  0  0  0
   57.7670   25.7150   46.0690 C   0  0  0  0  0  0  0  0  0  0  0  0
   56.4740   25.2440   46.0470 C   0  0  0  0  0  0  0  0  0  0  0  0
   55.6730   26.3620   45.9970 C   0  0  0  0  0  0  0  0  0  0  0  0
   54.2850   26.3370   45.9610 O   0  0  0  0  0  0  0  0  0  0  0  0
   56.3910   27.5000   45.9870 N   0  0  0  0  0  0  0  0  0  0  0  0
   57.6860   29.7580   45.4720 H   0  0  0  0  0  0  0  0  0  0  0  0
   60.5369   30.0001   46.3955 H   0  0  0  0  0  0  0  0  0  0  0  0
   60.1239   30.4653   44.6980 H   0  0  0  0  0  0  0  0  0  0  0  0
   60.0154   31.3621   48.2169 H   0  0  0  0  0  0  0  0  0  0  0  0
   59.3111   33.5803   49.0960 H   0  0  0  0  0  0  0  0  0  0  0  0
   58.1592   35.2085   47.6054 H   0  0  0  0  0  0  0  0  0  0  0  0
   57.6802   34.6138   45.2378 H   0  0  0  0  0  0  0  0  0  0  0  0
   57.8718   33.2483   43.4382 H   0  0  0  0  0  0  0  0  0  0  0  0
   59.1501   31.9730   43.4199 H   0  0  0  0  0  0  0  0  0  0  0  0
   57.4480   30.5911   41.7916 H   0  0  0  0  0  0  0  0  0  0  0  0
   55.3865   28.9781   42.4242 H   0  0  0  0  0  0  0  0  0  0  0  0
   54.7548   29.5637   44.9704 H   0  0  0  0  0  0  0  0  0  0  0  0
   58.6875   25.1141   46.1088 H   0  0  0  0  0  0  0  0  0  0  0  0
   56.1487   24.1934   46.0655 H   0  0  0  0  0  0  0  0  0  0  0  0
  1  2  2  0
  2  3  1  0
  3  4  1  0
  4  5  1  0
  5  6  2  0
  6  7  1  0
  7  8  2  0
  8  9  1  0
  9 10  2  0
 10 11  1  0
 11 12  1  0
 12 13  1  0
 13 14  2  0
 14 15  1  0
 15 16  2  0
  2 17  1  0
 17 18  2  0
 18 19  1  0
 19 20  2  0
 20 21  1  0
 20 22  1  0
 10  5  1  0
 16 12  1  0
 22 17  1  0
  3 23  1  0
  4 24  1  0
  4 25  1  0
  6 26  1  0
  7 27  1  0
  8 28  1  0
  9 29  1  0
 11 30  1  0
 11 31  1  0
 13 32  1  0
 14 33  1  0
 15 34  1  0
 18 35  1  0
 19 36  1  0
M  CHG  2  21  -1  22  -1
M  END
>  <UniqueID>  (25) 
24

>  <SMILES>  (25) 
O=C(NCc1ccccc1Cn1cccn1)c1ccc([O-])[n-]1

>  <Energy>  (25) 
90.52772571154748

>  <Genealogy>  (25) 
O=C(NCc1ccccc1Cn1cccn1)c1ccc([O-])[n-]1 (protonated)
O=C(NCc1ccccc1Cn1cccn1)c1ccc([O-])[n-]1 (3D coordinates assigned)
O=C(NCc1ccccc1Cn1cccn1)c1ccc([O-])[n-]1 (optimized conformer: 90.52772571154748 kcal/mol)

>  <smiles>  (25) 
O=C(NCc1ccccc1Cn1cccn1)c1ccc(O)[nH]1

>  <score_type>  (25) 
oracle

>  <origin>  (25) 
adg

>  <m_score__min__energy>  (25) 
-13.380000000000001

>  <m_primary>  (25) 
energy

$$$$
25:0
     RDKit          3D

 39 40  0  0  0  0  0  0  0  0999 V2000
   56.4400   27.3100   46.0190 N   0  0  0  0  0  0  0  0  0  0  0  0
   58.1030   26.8490   46.0340 S   0  0  0  0  0  0  0  0  0  0  0  0
   58.2890   25.6640   46.9410 O   0  0  0  0  0  0  0  0  0  0  0  0
   58.5280   26.4650   44.6450 O   0  0  0  0  0  0  0  0  0  0  0  0
   59.0770   28.1930   46.6170 C   0  0  0  0  0  0  0  0  0  0  0  0
   59.9920   28.8320   45.7690 C   0  0  0  0  0  0  0  0  0  0  0  0
   60.7490   29.9120   46.2360 C   0  0  0  0  0  0  0  0  0  0  0  0
   60.6000   30.3620   47.5600 C   0  0  0  0  0  0  0  0  0  0  0  0
   61.3280   31.4840   48.0710 N   0  0  0  0  0  0  0  0  0  0  0  0
   62.4340   32.1450   47.4430 C   0  0  0  0  0  0  0  0  0  0  0  0
   63.5970   31.6620   47.5050 O   0  0  0  0  0  0  0  0  0  0  0  0
   62.2190   33.4710   46.7840 C   0  0  0  0  0  0  0  0  0  0  0  0
   61.0120   34.1140   47.2990 N   0  0  0  0  0  0  0  0  0  0  0  0
   59.8180   34.3960   46.5550 C   0  0  0  0  0  0  0  0  0  0  0  0
   59.4400   35.5920   46.4510 O   0  0  0  0  0  0  0  0  0  0  0  0
   59.0160   33.3360   45.9120 C   0  0  0  0  0  0  0  0  0  0  0  0
   58.7990   33.3680   44.5270 C   0  0  0  0  0  0  0  0  0  0  0  0
   58.0560   32.3590   43.9050 C   0  0  0  0  0  0  0  0  0  0  0  0
   57.5330   31.3020   44.6600 C   0  0  0  0  0  0  0  0  0  0  0  0
   56.5910   30.0400   43.8730 S   0  0  0  0  0  0  0  0  0  0  0  0
   55.2260   29.6370   44.8530 N   0  0  0  0  0  0  0  0  0  0  0  0
   56.1220   30.5240   42.5290 O   0  0  0  0  0  0  0  0  0  0  0  0
   57.4390   28.8150   43.6760 O   0  0  0  0  0  0  0  0  0  0  0  0
   57.7620   31.2590   46.0410 C   0  0  0  0  0  0  0  0  0  0  0  0
   58.5100   32.2640   46.6630 C   0  0  0  0  0  0  0  0  0  0  0  0
   59.6640   29.7370   48.3920 C   0  0  0  0  0  0  0  0  0  0  0  0
   58.9130   28.6560   47.9290 C   0  0  0  0  0  0  0  0  0  0  0  0
   56.2350   27.6840   45.0650 H   0  0  0  0  0  0  0  0  0  0  0  0
   60.1153   28.4833   44.7331 H   0  0  0  0  0  0  0  0  0  0  0  0
   61.4635   30.4111   45.5649 H   0  0  0  0  0  0  0  0  0  0  0  0
   63.0859   34.1181   46.9833 H   0  0  0  0  0  0  0  0  0  0  0  0
   62.1014   33.3132   45.7018 H   0  0  0  0  0  0  0  0  0  0  0  0
   59.2150   34.1905   43.9267 H   0  0  0  0  0  0  0  0  0  0  0  0
   57.8821   32.3961   42.8195 H   0  0  0  0  0  0  0  0  0  0  0  0
   55.1530   28.5950   44.8620 H   0  0  0  0  0  0  0  0  0  0  0  0
   57.3520   30.4316   46.6388 H   0  0  0  0  0  0  0  0  0  0  0  0
   58.7023   32.2139   47.7449 H   0  0  0  0  0  0  0  0  0  0  0  0
   59.5192   30.1012   49.4198 H   0  0  0  0  0  0  0  0  0  0  0  0
   58.1894   28.1655   48.5967 H   0  0  0  0  0  0  0  0  0  0  0  0
  1  2  1  0
  2  3  2  0
  2  4  2  0
  2  5  1  0
  5  6  2  0
  6  7  1  0
  7  8  2  0
  8  9  1  0
  9 10  1  0
 10 11  2  0
 10 12  1  0
 12 13  1  0
 13 14  1  0
 14 15  2  0
 14 16  1  0
 16 17  2  0
 17 18  1  0
 18 19  2  0
 19 20  1  0
 20 21  1  0
 20 22  2  0
 20 23  2  0
 19 24  1  0
 24 25  2  0
  8 26  1  0
 26 27  2  0
 27  5  1  0
 25 16  1  0
  1 28  1  0
  6 29  1  0
  7 30  1  0
 12 31  1  0
 12 32  1  0
 17 33  1  0
 18 34  1  0
 21 35  1  0
 24 36  1  0
 25 37  1  0
 26 38  1  0
 27 39  1  0
M  CHG  4   1  -1   9  -1  13  -1  21  -1
M  END
>  <UniqueID>  (26) 
25

>  <SMILES>  (26) 
[NH-]S(=O)(=O)c1ccc([N-]C(=O)C[N-]C(=O)c2ccc(S([NH-])(=O)=O)cc2)cc1

>  <Energy>  (26) 
42.79794122227871

>  <Genealogy>  (26) 
[NH-]S(=O)(=O)c1ccc([N-]C(=O)C[N-]C(=O)c2ccc(S([NH-])(=O)=O)cc2)cc1 (protonated)
[NH-]S(=O)(=O)c1ccc([N-]C(=O)C[N-]C(=O)c2ccc(S([NH-])(=O)=O)cc2)cc1 (3D coordinates assigned)
[NH-]S(=O)(=O)c1ccc([N-]C(=O)C[N-]C(=O)c2ccc(S([NH-])(=O)=O)cc2)cc1 (optimized conformer: 42.79794122227871 kcal/mol)

>  <smiles>  (26) 
NS(=O)(=O)c1ccc(NC(=O)CNC(=O)c2ccc(S(N)(=O)=O)cc2)cc1

>  <score_type>  (26) 
oracle

>  <origin>  (26) 
adg

>  <m_score__min__energy>  (26) 
-15.44

>  <m_primary>  (26) 
energy

$$$$
26:0
     RDKit          3D

 51 53  0  0  0  0  0  0  0  0999 V2000
   60.7550   34.2840   49.1910 C   0  0  0  0  0  0  0  0  0  0  0  0
   59.4380   33.6680   48.7330 C   0  0  0  0  0  0  0  0  0  0  0  0
   59.2600   33.8290   47.2420 C   0  0  0  0  0  0  0  0  0  0  0  0
   59.6400   35.0350   46.6290 C   0  0  0  0  0  0  0  0  0  0  0  0
   59.4580   35.2180   45.2550 C   0  0  0  0  0  0  0  0  0  0  0  0
   58.8790   34.2090   44.4840 C   0  0  0  0  0  0  0  0  0  0  0  0
   58.4830   33.0120   45.0840 C   0  0  0  0  0  0  0  0  0  0  0  0
   58.6890   32.8010   46.4590 C   0  0  0  0  0  0  0  0  0  0  0  0
   58.2270   31.5930   47.0840 N   0  0  0  0  0  0  0  0  0  0  0  0
   58.0660   30.3970   46.5810 C   0  0  0  0  0  0  0  0  0  0  0  0
   57.0710   30.2450   45.6780 N   0  0  0  0  0  0  0  0  0  0  0  0
   56.9680   29.1260   44.9280 C   0  0  0  0  0  0  0  0  0  0  0  0
   56.0080   29.0200   44.1170 O   0  0  0  0  0  0  0  0  0  0  0  0
   57.9160   28.1490   45.0280 N   0  0  0  0  0  0  0  0  0  0  0  0
   57.8520   26.9530   44.1650 C   0  0  0  0  0  0  0  0  0  0  0  0
   57.1050   25.8190   44.8820 C   0  0  0  0  0  0  0  0  0  0  0  0
   56.4660   26.2980   46.1890 C   0  0  0  0  0  0  0  0  0  0  0  0
   55.1290   26.6710   45.9850 O   0  0  0  0  0  0  0  0  0  0  0  0
   58.8710   28.2490   46.0060 C   0  0  0  0  0  0  0  0  0  0  0  0
   59.7250   27.3270   46.1420 O   0  0  0  0  0  0  0  0  0  0  0  0
   58.8860   29.3240   46.8660 N   0  0  0  0  0  0  0  0  0  0  0  0
   59.5840   29.1650   48.1660 C   0  0  0  0  0  0  0  0  0  0  0  0
   60.7340   30.1350   48.2840 C   0  0  0  0  0  0  0  0  0  0  0  0
   61.2770   30.7200   47.1270 C   0  0  0  0  0  0  0  0  0  0  0  0
   62.3390   31.6240   47.2250 C   0  0  0  0  0  0  0  0  0  0  0  0
   62.8620   31.9570   48.4780 C   0  0  0  0  0  0  0  0  0  0  0  0
   64.1930   33.0930   48.5990 Cl  0  0  0  0  0  0  0  0  0  0  0  0
   62.3290   31.3770   49.6350 C   0  0  0  0  0  0  0  0  0  0  0  0
   61.2720   30.4670   49.5400 C   0  0  0  0  0  0  0  0  0  0  0  0
   60.7895   34.3002   50.2903 H   0  0  0  0  0  0  0  0  0  0  0  0
   61.5934   33.6846   48.8066 H   0  0  0  0  0  0  0  0  0  0  0  0
   60.8324   35.3117   48.8066 H   0  0  0  0  0  0  0  0  0  0  0  0
   59.4348   32.5968   48.9829 H   0  0  0  0  0  0  0  0  0  0  0  0
   58.6114   34.1831   49.2442 H   0  0  0  0  0  0  0  0  0  0  0  0
   60.0833   35.8398   47.2338 H   0  0  0  0  0  0  0  0  0  0  0  0
   59.7719   36.1594   44.7805 H   0  0  0  0  0  0  0  0  0  0  0  0
   58.7346   34.3567   43.4036 H   0  0  0  0  0  0  0  0  0  0  0  0
   58.0064   32.2284   44.4767 H   0  0  0  0  0  0  0  0  0  0  0  0
   57.3226   27.2048   43.2342 H   0  0  0  0  0  0  0  0  0  0  0  0
   58.8755   26.6201   43.9376 H   0  0  0  0  0  0  0  0  0  0  0  0
   56.3153   25.4371   44.2183 H   0  0  0  0  0  0  0  0  0  0  0  0
   57.8319   25.0300   45.1251 H   0  0  0  0  0  0  0  0  0  0  0  0
   56.5042   25.4841   46.9280 H   0  0  0  0  0  0  0  0  0  0  0  0
   57.0237   27.1736   46.5528 H   0  0  0  0  0  0  0  0  0  0  0  0
   55.1440   27.4620   45.3850 H   0  0  0  0  0  0  0  0  0  0  0  0
   58.8708   29.3514   48.9825 H   0  0  0  0  0  0  0  0  0  0  0  0
   59.9812   28.1411   48.2278 H   0  0  0  0  0  0  0  0  0  0  0  0
   60.8644   30.4653   46.1396 H   0  0  0  0  0  0  0  0  0  0  0  0
   62.7635   32.0737   46.3153 H   0  0  0  0  0  0  0  0  0  0  0  0
   62.7424   31.6376   50.6205 H   0  0  0  0  0  0  0  0  0  0  0  0
   60.8597   30.0090   50.4512 H   0  0  0  0  0  0  0  0  0  0  0  0
  1  2  1  0
  2  3  1  0
  3  4  2  0
  4  5  1  0
  5  6  2  0
  6  7  1  0
  7  8  2  0
  8  9  1  0
  9 10  2  3
 10 11  1  0
 11 12  1  0
 12 13  2  0
 12 14  1  0
 14 15  1  0
 15 16  1  0
 16 17  1  0
 17 18  1  0
 14 19  1  0
 19 20  2  0
 19 21  1  0
 21 22  1  0
 22 23  1  0
 23 24  2  0
 24 25  1  0
 25 26  2  0
 26 27  1  0
 26 28  1  0
 28 29  2  0
  8  3  1  0
 21 10  1  0
 29 23  1  0
  1 30  1  0
  1 31  1  0
  1 32  1  0
  2 33  1  0
  2 34  1  0
  4 35  1  0
  5 36  1  0
  6 37  1  0
  7 38  1  0
 15 39  1  0
 15 40  1  0
 16 41  1  0
 16 42  1  0
 17 43  1  0
 17 44  1  0
 18 45  1  0
 22 46  1  0
 22 47  1  0
 24 48  1  0
 25 49  1  0
 28 50  1  0
 29 51  1  0
M  CHG  1  11  -1
M  END
>  <UniqueID>  (27) 
26

>  <SMILES>  (27) 
CCc1ccccc1N=c1[n-]c(=O)n(CCCO)c(=O)n1Cc1ccc(Cl)cc1

>  <Energy>  (27) 
74.22853106587876

>  <Genealogy>  (27) 
CCc1ccccc1N=c1[n-]c(=O)n(CCCO)c(=O)n1Cc1ccc(Cl)cc1 (protonated)
CCc1ccccc1N=c1[n-]c(=O)n(CCCO)c(=O)n1Cc1ccc(Cl)cc1 (3D coordinates assigned)
CCc1ccccc1N=c1[n-]c(=O)n(CCCO)c(=O)n1Cc1ccc(Cl)cc1 (optimized conformer: 74.22853106587876 kcal/mol)

>  <smiles>  (27) 
CCc1ccccc1N=c1[nH]c(=O)n(CCCO)c(=O)n1Cc1ccc(Cl)cc1

>  <score_type>  (27) 
oracle

>  <origin>  (27) 
adg

>  <m_score__min__energy>  (27) 
-10.48

>  <m_primary>  (27) 
energy

$$$$
27:0
     RDKit          3D

 45 48  0  0  0  0  0  0  0  0999 V2000
   56.9240   34.1010   44.6080 O   0  0  0  0  0  0  0  0  0  0  0  0
   57.3950   33.1340   45.2630 C   0  0  0  0  0  0  0  0  0  0  0  0
   57.9900   31.9740   44.5200 C   0  0  0  0  0  0  0  0  0  0  0  0
   56.7330   30.9560   43.6610 S   0  0  0  0  0  0  0  0  0  0  0  0
   57.0290   29.4860   44.6430 C   0  0  0  0  0  0  0  0  0  0  0  0
   58.2890   29.2250   45.1200 N   0  0  0  0  0  0  0  0  0  0  0  0
   58.5450   28.1120   45.8690 C   0  0  0  0  0  0  0  0  0  0  0  0
   59.7040   27.8790   46.3020 O   0  0  0  0  0  0  0  0  0  0  0  0
   57.4890   27.2540   46.1330 C   0  0  0  0  0  0  0  0  0  0  0  0
   57.3520   26.0710   46.8200 C   0  0  0  0  0  0  0  0  0  0  0  0
   56.0560   25.6800   46.7230 N   0  0  0  0  0  0  0  0  0  0  0  0
   55.3780   26.5710   46.0010 N   0  0  0  0  0  0  0  0  0  0  0  0
   56.2540   27.5230   45.6460 C   0  0  0  0  0  0  0  0  0  0  0  0
   55.9980   28.6220   44.8990 N   0  0  0  0  0  0  0  0  0  0  0  0
   57.3580   33.1420   46.6960 N   0  0  0  0  0  0  0  0  0  0  0  0
   58.4860   33.2870   47.5710 C   0  0  0  0  0  0  0  0  0  0  0  0
   59.4650   34.2750   47.3610 C   0  0  0  0  0  0  0  0  0  0  0  0
   60.5320   34.4080   48.2540 C   0  0  0  0  0  0  0  0  0  0  0  0
   60.6290   33.5640   49.3680 C   0  0  0  0  0  0  0  0  0  0  0  0
   61.9810   33.7050   50.4890 S   0  0  0  0  0  0  0  0  0  0  0  0
   62.7400   34.9740   50.2160 O   0  0  0  0  0  0  0  0  0  0  0  0
   61.4310   33.7760   51.8840 O   0  0  0  0  0  0  0  0  0  0  0  0
   63.0350   32.3130   50.3530 N   0  0  0  0  0  0  0  0  0  0  0  0
   62.9190   31.6600   49.0380 C   0  0  0  0  0  0  0  0  0  0  0  0
   63.5980   32.4800   47.9160 C   0  0  0  0  0  0  0  0  0  0  0  0
   64.5120   33.4520   48.3960 O   0  0  0  0  0  0  0  0  0  0  0  0
   65.2980   32.9120   49.4330 C   0  0  0  0  0  0  0  0  0  0  0  0
   64.4370   32.6480   50.6850 C   0  0  0  0  0  0  0  0  0  0  0  0
   59.6490   32.5850   49.5830 C   0  0  0  0  0  0  0  0  0  0  0  0
   58.5780   32.4580   48.6950 C   0  0  0  0  0  0  0  0  0  0  0  0
   58.6977   32.3620   43.7726 H   0  0  0  0  0  0  0  0  0  0  0  0
   58.4874   31.3291   45.2594 H   0  0  0  0  0  0  0  0  0  0  0  0
   58.1513   25.5361   47.3538 H   0  0  0  0  0  0  0  0  0  0  0  0
   59.3906   34.9448   46.4916 H   0  0  0  0  0  0  0  0  0  0  0  0
   61.2983   35.1781   48.0815 H   0  0  0  0  0  0  0  0  0  0  0  0
   63.3954   30.6699   49.0910 H   0  0  0  0  0  0  0  0  0  0  0  0
   61.8493   31.5773   48.7954 H   0  0  0  0  0  0  0  0  0  0  0  0
   64.1422   31.7858   47.2588 H   0  0  0  0  0  0  0  0  0  0  0  0
   62.8011   33.0214   47.3852 H   0  0  0  0  0  0  0  0  0  0  0  0
   65.7429   31.9649   49.0938 H   0  0  0  0  0  0  0  0  0  0  0  0
   66.0882   33.6324   49.6912 H   0  0  0  0  0  0  0  0  0  0  0  0
   64.8766   31.8087   51.2439 H   0  0  0  0  0  0  0  0  0  0  0  0
   64.4256   33.5722   51.2815 H   0  0  0  0  0  0  0  0  0  0  0  0
   59.7234   31.9155   50.4526 H   0  0  0  0  0  0  0  0  0  0  0  0
   57.8016   31.7012   48.8805 H   0  0  0  0  0  0  0  0  0  0  0  0
  1  2  2  0
  2  3  1  0
  3  4  1  0
  4  5  1  0
  5  6  2  0
  6  7  1  0
  7  8  2  0
  7  9  1  0
  9 10  2  0
 10 11  1  0
 11 12  1  0
 12 13  2  0
 13 14  1  0
  2 15  1  0
 15 16  1  0
 16 17  2  0
 17 18  1  0
 18 19  2  0
 19 20  1  0
 20 21  2  0
 20 22  2  0
 20 23  1  0
 23 24  1  0
 24 25  1  0
 25 26  1  0
 26 27  1  0
 27 28  1  0
 19 29  1  0
 29 30  2  0
 14  5  1  0
 30 16  1  0
 13  9  1  0
 28 23  1  0
  3 31  1  0
  3 32  1  0
 10 33  1  0
 17 34  1  0
 18 35  1  0
 24 36  1  0
 24 37  1  0
 25 38  1  0
 25 39  1  0
 27 40  1  0
 27 41  1  0
 28 42  1  0
 28 43  1  0
 29 44  1  0
 30 45  1  0
M  CHG  3  11  -1  14  -1  15  -1
M  END
>  <UniqueID>  (28) 
27

>  <SMILES>  (28) 
O=C(CSc1nc(=O)c2c[n-]nc2[n-]1)[N-]c1ccc(S(=O)(=O)N2CCOCC2)cc1

>  <Energy>  (28) 
100.73289974819015

>  <Genealogy>  (28) 
O=C(CSc1nc(=O)c2c[n-]nc2[n-]1)[N-]c1ccc(S(=O)(=O)N2CCOCC2)cc1 (protonated)
O=C(CSc1nc(=O)c2c[n-]nc2[n-]1)[N-]c1ccc(S(=O)(=O)N2CCOCC2)cc1 (3D coordinates assigned)
O=C(CSc1nc(=O)c2c[n-]nc2[n-]1)[N-]c1ccc(S(=O)(=O)N2CCOCC2)cc1 (nonaromatic ring conformer: 100.73289974819015 kcal/mol)

>  <smiles>  (28) 
O=C(CSc1nc(=O)c2c[nH]nc2[nH]1)Nc1ccc(S(=O)(=O)N2CCOCC2)cc1

>  <score_type>  (28) 
oracle

>  <origin>  (28) 
adg

>  <m_score__min__energy>  (28) 
-14.699999999999999

>  <m_primary>  (28) 
energy

$$$$
28:0
     RDKit          3D

 53 56  0  0  0  0  0  0  0  0999 V2000
   59.2150   28.9330   48.6350 O   0  0  0  0  0  0  0  0  0  0  0  0
   60.0530   29.8560   48.4450 C   0  0  0  0  0  0  0  0  0  0  0  0
   60.6610   30.5360   49.6060 C   0  0  0  0  0  0  0  0  0  0  0  0
   60.0800   30.4550   50.8240 C   0  0  0  0  0  0  0  0  0  0  0  0
   59.1400   31.4670   51.3570 C   0  0  0  0  0  0  0  0  0  0  0  0
   59.5660   32.7920   51.5620 C   0  0  0  0  0  0  0  0  0  0  0  0
   58.6870   33.7460   52.0910 C   0  0  0  0  0  0  0  0  0  0  0  0
   57.3720   33.3850   52.4140 C   0  0  0  0  0  0  0  0  0  0  0  0
   56.9430   32.0680   52.2210 C   0  0  0  0  0  0  0  0  0  0  0  0
   57.8240   31.1050   51.7050 C   0  0  0  0  0  0  0  0  0  0  0  0
   57.3790   29.7950   51.5340 O   0  0  0  0  0  0  0  0  0  0  0  0
   61.9830   31.2470   49.3890 C   0  0  0  0  0  0  0  0  0  0  0  0
   62.0870   31.8630   48.0570 N   0  0  0  0  0  0  0  0  0  0  0  0
   61.5230   33.2280   47.9360 C   0  0  0  0  0  0  0  0  0  0  0  0
   60.1540   33.2760   47.2970 C   0  0  0  0  0  0  0  0  0  0  0  0
   59.0030   33.0010   48.0550 C   0  0  0  0  0  0  0  0  0  0  0  0
   57.7370   33.0700   47.4670 C   0  0  0  0  0  0  0  0  0  0  0  0
   57.6040   33.4330   46.1190 C   0  0  0  0  0  0  0  0  0  0  0  0
   58.7390   33.7250   45.3620 C   0  0  0  0  0  0  0  0  0  0  0  0
   60.0070   33.6390   45.9450 C   0  0  0  0  0  0  0  0  0  0  0  0
   61.8030   30.9540   46.9270 C   0  0  0  0  0  0  0  0  0  0  0  0
   60.4850   30.2250   47.0740 C   0  0  0  0  0  0  0  0  0  0  0  0
   59.8390   29.8370   45.9530 C   0  0  0  0  0  0  0  0  0  0  0  0
   58.6960   28.8990   45.8980 C   0  0  0  0  0  0  0  0  0  0  0  0
   57.4550   29.3640   45.4210 C   0  0  0  0  0  0  0  0  0  0  0  0
   56.3720   28.4930   45.2890 C   0  0  0  0  0  0  0  0  0  0  0  0
   55.1460   28.9730   44.8360 O   0  0  0  0  0  0  0  0  0  0  0  0
   56.5160   27.1410   45.6060 C   0  0  0  0  0  0  0  0  0  0  0  0
   57.7450   26.6560   46.0550 C   0  0  0  0  0  0  0  0  0  0  0  0
   58.8490   27.5180   46.2140 C   0  0  0  0  0  0  0  0  0  0  0  0
   60.0930   26.9720   46.7030 N   0  0  0  0  0  0  0  0  0  0  0  0
   60.1780   26.4590   47.8340 O   0  0  0  0  0  0  0  0  0  0  0  0
   61.1960   26.9240   45.8830 O   0  0  0  0  0  0  0  0  0  0  0  0
   60.3196   29.5869   51.4556 H   0  0  0  0  0  0  0  0  0  0  0  0
   60.5959   33.0808   51.3053 H   0  0  0  0  0  0  0  0  0  0  0  0
   59.0291   34.7788   52.2529 H   0  0  0  0  0  0  0  0  0  0  0  0
   56.6782   34.1365   52.8188 H   0  0  0  0  0  0  0  0  0  0  0  0
   55.9106   31.7856   52.4747 H   0  0  0  0  0  0  0  0  0  0  0  0
   62.0874   32.0347   50.1497 H   0  0  0  0  0  0  0  0  0  0  0  0
   62.7810   30.4942   49.4690 H   0  0  0  0  0  0  0  0  0  0  0  0
   61.4490   33.6617   48.9442 H   0  0  0  0  0  0  0  0  0  0  0  0
   62.1997   33.7936   47.2786 H   0  0  0  0  0  0  0  0  0  0  0  0
   59.0990   32.7300   49.1168 H   0  0  0  0  0  0  0  0  0  0  0  0
   56.8421   32.8388   48.0634 H   0  0  0  0  0  0  0  0  0  0  0  0
   56.6062   33.4874   45.6591 H   0  0  0  0  0  0  0  0  0  0  0  0
   58.6365   34.0225   44.3080 H   0  0  0  0  0  0  0  0  0  0  0  0
   60.8996   33.8575   45.3404 H   0  0  0  0  0  0  0  0  0  0  0  0
   61.7756   31.5449   45.9996 H   0  0  0  0  0  0  0  0  0  0  0  0
   62.5991   30.1952   46.9058 H   0  0  0  0  0  0  0  0  0  0  0  0
   60.1932   30.2543   44.9988 H   0  0  0  0  0  0  0  0  0  0  0  0
   57.3380   30.4236   45.1499 H   0  0  0  0  0  0  0  0  0  0  0  0
   55.6603   26.4577   45.5018 H   0  0  0  0  0  0  0  0  0  0  0  0
   57.8538   25.5865   46.2880 H   0  0  0  0  0  0  0  0  0  0  0  0
  1  2  2  0
  2  3  1  0
  3  4  2  3
  4  5  1  0
  5  6  2  0
  6  7  1  0
  7  8  2  0
  8  9  1  0
  9 10  2  0
 10 11  1  0
  3 12  1  0
 12 13  1  0
 13 14  1  0
 14 15  1  0
 15 16  2  0
 16 17  1  0
 17 18  2  0
 18 19  1  0
 19 20  2  0
 13 21  1  0
 21 22  1  0
 22 23  2  3
 23 24  1  0
 24 25  2  0
 25 26  1  0
 26 27  1  0
 26 28  2  0
 28 29  1  0
 29 30  2  0
 30 31  1  0
 31 32  2  0
 31 33  1  0
 22  2  1  0
 30 24  1  0
 10  5  1  0
 20 15  1  0
  4 34  1  0
  6 35  1  0
  7 36  1  0
  8 37  1  0
  9 38  1  0
 12 39  1  0
 12 40  1  0
 14 41  1  0
 14 42  1  0
 16 43  1  0
 17 44  1  0
 18 45  1  0
 19 46  1  0
 20 47  1  0
 21 48  1  0
 21 49  1  0
 23 50  1  0
 25 51  1  0
 28 52  1  0
 29 53  1  0
M  CHG  4  11  -1  27  -1  31   1  33  -1
M  END
>  <UniqueID>  (29) 
28

>  <SMILES>  (29) 
O=C1C(=Cc2ccccc2[O-])CN(Cc2ccccc2)CC1=Cc1cc([O-])ccc1[N+](=O)[O-]

>  <Energy>  (29) 
85.40580353282947

>  <Genealogy>  (29) 
O=C1C(=Cc2ccccc2[O-])CN(Cc2ccccc2)CC1=Cc1cc([O-])ccc1[N+](=O)[O-] (protonated)
O=C1C(=Cc2ccccc2[O-])CN(Cc2ccccc2)CC1=Cc1cc([O-])ccc1[N+](=O)[O-] (3D coordinates assigned)
O=C1C(=Cc2ccccc2[O-])CN(Cc2ccccc2)CC1=Cc1cc([O-])ccc1[N+](=O)[O-] (nonaromatic ring conformer: 85.40580353282947 kcal/mol)

>  <smiles>  (29) 
O=C1C(=Cc2ccccc2O)CN(Cc2ccccc2)CC1=Cc1cc(O)ccc1[N+](=O)[O-]

>  <score_type>  (29) 
oracle

>  <origin>  (29) 
adg

>  <m_score__min__energy>  (29) 
-15.02

>  <m_primary>  (29) 
energy

$$$$
29:0
     RDKit          3D

 44 46  0  0  0  0  0  0  0  0999 V2000
   60.6700   33.7430   50.1470 C   0  0  0  0  0  0  0  0  0  0  0  0
   61.9140   34.2590   49.6820 O   0  0  0  0  0  0  0  0  0  0  0  0
   63.1680   33.8950   50.1980 C   0  0  0  0  0  0  0  0  0  0  0  0
   63.4610   33.9740   51.5750 C   0  0  0  0  0  0  0  0  0  0  0  0
   64.7170   33.5930   52.0520 C   0  0  0  0  0  0  0  0  0  0  0  0
   65.6880   33.1220   51.1670 C   0  0  0  0  0  0  0  0  0  0  0  0
   65.4100   33.0390   49.8010 C   0  0  0  0  0  0  0  0  0  0  0  0
   64.1570   33.4460   49.3060 C   0  0  0  0  0  0  0  0  0  0  0  0
   63.8410   33.3360   47.9120 N   0  0  0  0  0  0  0  0  0  0  0  0
   62.9510   32.3780   47.3240 C   0  0  0  0  0  0  0  0  0  0  0  0
   63.4400   31.3560   46.7760 O   0  0  0  0  0  0  0  0  0  0  0  0
   61.5240   32.5630   47.3870 N   0  0  0  0  0  0  0  0  0  0  0  0
   60.5700   31.6620   46.8010 C   0  0  0  0  0  0  0  0  0  0  0  0
   60.8300   30.2860   46.6870 C   0  0  0  0  0  0  0  0  0  0  0  0
   59.8730   29.4290   46.1370 C   0  0  0  0  0  0  0  0  0  0  0  0
   58.6410   29.9340   45.7010 C   0  0  0  0  0  0  0  0  0  0  0  0
   57.4290   28.8520   45.0250 S   0  0  0  0  0  0  0  0  0  0  0  0
   57.8300   28.4600   43.6300 O   0  0  0  0  0  0  0  0  0  0  0  0
   56.1000   29.5540   44.9780 O   0  0  0  0  0  0  0  0  0  0  0  0
   57.3170   27.4400   46.0250 N   0  0  0  0  0  0  0  0  0  0  0  0
   56.4230   26.5100   45.8780 C   0  0  0  0  0  0  0  0  0  0  0  0
   56.6430   25.1840   45.5580 C   0  0  0  0  0  0  0  0  0  0  0  0
   55.3660   24.6620   45.5260 C   0  0  0  0  0  0  0  0  0  0  0  0
   55.0130   23.2320   45.2900 C   0  0  0  0  0  0  0  0  0  0  0  0
   54.4660   25.6220   45.8280 N   0  0  0  0  0  0  0  0  0  0  0  0
   55.1370   26.7190   46.0260 O   0  0  0  0  0  0  0  0  0  0  0  0
   58.3640   31.3000   45.8440 C   0  0  0  0  0  0  0  0  0  0  0  0
   59.3210   32.1570   46.3960 C   0  0  0  0  0  0  0  0  0  0  0  0
   60.6625   33.7399   51.2470 H   0  0  0  0  0  0  0  0  0  0  0  0
   59.8494   34.3750   49.7765 H   0  0  0  0  0  0  0  0  0  0  0  0
   60.5376   32.7158   49.7765 H   0  0  0  0  0  0  0  0  0  0  0  0
   62.6963   34.3376   52.2771 H   0  0  0  0  0  0  0  0  0  0  0  0
   64.9413   33.6642   53.1265 H   0  0  0  0  0  0  0  0  0  0  0  0
   66.6741   32.8156   51.5462 H   0  0  0  0  0  0  0  0  0  0  0  0
   66.1735   32.6539   49.1091 H   0  0  0  0  0  0  0  0  0  0  0  0
   61.1530   33.4350   47.8230 H   0  0  0  0  0  0  0  0  0  0  0  0
   61.7925   29.8809   47.0327 H   0  0  0  0  0  0  0  0  0  0  0  0
   60.0877   28.3540   46.0460 H   0  0  0  0  0  0  0  0  0  0  0  0
   57.5989   24.6716   45.3743 H   0  0  0  0  0  0  0  0  0  0  0  0
   54.8869   22.7212   46.2560 H   0  0  0  0  0  0  0  0  0  0  0  0
   54.0739   23.1754   44.7200 H   0  0  0  0  0  0  0  0  0  0  0  0
   55.8179   22.7449   44.7200 H   0  0  0  0  0  0  0  0  0  0  0  0
   57.3912   31.6992   45.5212 H   0  0  0  0  0  0  0  0  0  0  0  0
   59.0932   33.2267   46.5136 H   0  0  0  0  0  0  0  0  0  0  0  0
  1  2  1  0
  2  3  1  0
  3  4  2  0
  4  5  1  0
  5  6  2  0
  6  7  1  0
  7  8  2  0
  8  9  1  0
  9 10  1  0
 10 11  2  0
 10 12  1  0
 12 13  1  0
 13 14  2  0
 14 15  1  0
 15 16  2  0
 16 17  1  0
 17 18  2  0
 17 19  2  0
 17 20  1  0
 20 21  2  3
 21 22  1  0
 22 23  2  0
 23 24  1  0
 23 25  1  0
 25 26  1  0
 16 27  1  0
 27 28  2  0
  8  3  1  0
 28 13  1  0
 26 21  1  0
  1 29  1  0
  1 30  1  0
  1 31  1  0
  4 32  1  0
  5 33  1  0
  6 34  1  0
  7 35  1  0
 12 36  1  0
 14 37  1  0
 15 38  1  0
 22 39  1  0
 24 40  1  0
 24 41  1  0
 24 42  1  0
 27 43  1  0
 28 44  1  0
M  CHG  2   9  -1  25  -1
M  END
>  <UniqueID>  (30) 
29

>  <SMILES>  (30) 
COc1ccccc1[N-]C(=O)Nc1ccc(S(=O)(=O)N=c2cc(C)[n-]o2)cc1

>  <Energy>  (30) 
88.558111977641

>  <Genealogy>  (30) 
COc1ccccc1[N-]C(=O)Nc1ccc(S(=O)(=O)N=c2cc(C)[n-]o2)cc1 (protonated)
COc1ccccc1[N-]C(=O)Nc1ccc(S(=O)(=O)N=c2cc(C)[n-]o2)cc1 (3D coordinates assigned)
COc1ccccc1[N-]C(=O)Nc1ccc(S(=O)(=O)N=c2cc(C)[n-]o2)cc1 (optimized conformer: 88.558111977641 kcal/mol)

>  <smiles>  (30) 
COc1ccccc1NC(=O)Nc1ccc(S(=O)(=O)N=c2cc(C)[nH]o2)cc1

>  <score_type>  (30) 
oracle

>  <origin>  (30) 
adg

>  <m_score__min__energy>  (30) 
-11.960000000000001

>  <m_primary>  (30) 
energy

$$$$
30:0
     RDKit          3D

 52 54  0  0  0  0  0  0  0  0999 V2000
   53.3970   24.1920   45.4100 C   0  0  0  0  0  0  0  0  0  0  0  0
   54.8490   24.4920   45.2630 C   0  0  0  0  0  0  0  0  0  0  0  0
   55.4950   25.4290   45.9890 N   0  0  0  0  0  0  0  0  0  0  0  0
   56.8010   25.5420   45.6210 C   0  0  0  0  0  0  0  0  0  0  0  0
   57.7360   26.4970   46.3050 C   0  0  0  0  0  0  0  0  0  0  0  0
   57.4380   27.9540   45.9290 C   0  0  0  0  0  0  0  0  0  0  0  0
   57.4730   28.1430   44.4750 N   0  0  0  0  0  0  0  0  0  0  0  0
   56.4890   29.5050   44.0130 S   0  0  0  0  0  0  0  0  0  0  0  0
   55.1580   29.3820   44.7010 O   0  0  0  0  0  0  0  0  0  0  0  0
   56.2570   29.5380   42.5270 O   0  0  0  0  0  0  0  0  0  0  0  0
   57.2820   31.0000   44.5100 C   0  0  0  0  0  0  0  0  0  0  0  0
   57.4300   32.0480   43.5920 C   0  0  0  0  0  0  0  0  0  0  0  0
   58.1160   33.2100   43.9530 C   0  0  0  0  0  0  0  0  0  0  0  0
   58.6790   33.3270   45.2300 C   0  0  0  0  0  0  0  0  0  0  0  0
   59.4030   34.5500   45.6020 C   0  0  0  0  0  0  0  0  0  0  0  0
   59.2730   35.5680   44.8750 O   0  0  0  0  0  0  0  0  0  0  0  0
   60.2860   34.6180   46.7340 N   0  0  0  0  0  0  0  0  0  0  0  0
   61.3270   33.6800   47.1690 C   0  0  1  0  0  0  0  0  0  0  0  0
   62.6370   33.8910   46.3860 C   0  0  0  0  0  0  0  0  0  0  0  0
   63.7470   33.0120   46.9680 C   0  0  0  0  0  0  0  0  0  0  0  0
   64.0550   33.3650   48.4450 C   0  0  2  0  0  0  0  0  0  0  0  0
   64.4200   32.2110   49.1620 O   0  0  0  0  0  0  0  0  0  0  0  0
   62.9090   34.1210   49.1600 C   0  0  0  0  0  0  0  0  0  0  0  0
   61.5150   33.6540   48.7090 C   0  0  0  0  0  0  0  0  0  0  0  0
   58.4730   32.3100   46.1720 C   0  0  0  0  0  0  0  0  0  0  0  0
   57.7930   31.1430   45.8090 C   0  0  0  0  0  0  0  0  0  0  0  0
   57.2000   24.6970   44.5860 C   0  0  0  0  0  0  0  0  0  0  0  0
   55.8640   23.7850   44.1230 S   0  0  0  0  0  0  0  0  0  0  0  0
   53.1399   24.1389   46.4782 H   0  0  0  0  0  0  0  0  0  0  0  0
   52.8078   24.9874   44.9302 H   0  0  0  0  0  0  0  0  0  0  0  0
   53.1713   23.2283   44.9302 H   0  0  0  0  0  0  0  0  0  0  0  0
   57.6294   26.3813   47.3937 H   0  0  0  0  0  0  0  0  0  0  0  0
   58.7608   26.2631   45.9809 H   0  0  0  0  0  0  0  0  0  0  0  0
   56.4391   28.2240   46.3022 H   0  0  0  0  0  0  0  0  0  0  0  0
   58.2075   28.5958   46.3829 H   0  0  0  0  0  0  0  0  0  0  0  0
   57.0560   27.3050   44.0090 H   0  0  0  0  0  0  0  0  0  0  0  0
   57.0039   31.9553   42.5821 H   0  0  0  0  0  0  0  0  0  0  0  0
   58.2143   34.0353   43.2324 H   0  0  0  0  0  0  0  0  0  0  0  0
   60.9778   32.6674   46.9186 H   0  0  0  0  0  0  0  0  0  0  0  0
   62.9358   34.9474   46.4553 H   0  0  0  0  0  0  0  0  0  0  0  0
   62.4750   33.6153   45.3335 H   0  0  0  0  0  0  0  0  0  0  0  0
   64.6605   33.1528   46.3716 H   0  0  0  0  0  0  0  0  0  0  0  0
   63.4052   31.9670   46.9333 H   0  0  0  0  0  0  0  0  0  0  0  0
   64.9039   34.0641   48.4220 H   0  0  0  0  0  0  0  0  0  0  0  0
   64.9060   31.6130   48.5370 H   0  0  0  0  0  0  0  0  0  0  0  0
   63.0072   35.1949   48.9429 H   0  0  0  0  0  0  0  0  0  0  0  0
   62.9959   33.9128   50.2366 H   0  0  0  0  0  0  0  0  0  0  0  0
   60.7617   34.3140   49.1638 H   0  0  0  0  0  0  0  0  0  0  0  0
   61.4009   32.6091   49.0334 H   0  0  0  0  0  0  0  0  0  0  0  0
   58.8471   32.4299   47.1995 H   0  0  0  0  0  0  0  0  0  0  0  0
   57.6584   30.3353   46.5436 H   0  0  0  0  0  0  0  0  0  0  0  0
   58.2082   24.6373   44.1501 H   0  0  0  0  0  0  0  0  0  0  0  0
  1  2  1  0
  2  3  2  0
  3  4  1  0
  4  5  1  0
  5  6  1  0
  6  7  1  0
  7  8  1  0
  8  9  2  0
  8 10  2  0
  8 11  1  0
 11 12  2  0
 12 13  1  0
 13 14  2  0
 14 15  1  0
 15 16  2  0
 15 17  1  0
 17 18  1  0
 18 19  1  0
 19 20  1  0
 20 21  1  0
 21 22  1  0
 21 23  1  0
 23 24  1  0
 14 25  1  0
 25 26  2  0
  4 27  2  0
 27 28  1  0
 28  2  1  0
 26 11  1  0
 24 18  1  0
  1 29  1  0
  1 30  1  0
  1 31  1  0
  5 32  1  0
  5 33  1  0
  6 34  1  0
  6 35  1  0
  7 36  1  0
 12 37  1  0
 13 38  1  0
 18 39  1  6
 19 40  1  0
 19 41  1  0
 20 42  1  0
 20 43  1  0
 21 44  1  6
 22 45  1  0
 23 46  1  0
 23 47  1  0
 24 48  1  0
 24 49  1  0
 25 50  1  0
 26 51  1  0
 27 52  1  0
M  CHG  1  17  -1
M  END
>  <UniqueID>  (31) 
30

>  <SMILES>  (31) 
Cc1nc(CCNS(=O)(=O)c2ccc(C(=O)[N-]C3CCC(O)CC3)cc2)cs1

>  <Energy>  (31) 
85.72083311440106

>  <Genealogy>  (31) 
Cc1nc(CCNS(=O)(=O)c2ccc(C(=O)[N-]C3CCC(O)CC3)cc2)cs1 (protonated)
Cc1nc(CCNS(=O)(=O)c2ccc(C(=O)[N-]C3CCC(O)CC3)cc2)cs1 (3D coordinates assigned)
Cc1nc(CCNS(=O)(=O)c2ccc(C(=O)[N-]C3CCC(O)CC3)cc2)cs1 (nonaromatic ring conformer: 85.72083311440106 kcal/mol)

>  <smiles>  (31) 
Cc1nc(CCNS(=O)(=O)c2ccc(C(=O)NC3CCC(O)CC3)cc2)cs1

>  <score_type>  (31) 
oracle

>  <origin>  (31) 
adg

>  <m_score__min__energy>  (31) 
-11.17

>  <m_primary>  (31) 
energy

$$$$
31:0
     RDKit          3D

 51 53  0  0  0  0  0  0  0  0999 V2000
   51.0780   32.2530   49.9250 O   0  0  0  0  0  0  0  0  0  0  0  0
   51.4170   32.3430   51.1380 C   0  0  0  0  0  0  0  0  0  0  0  0
   50.6460   33.0990   52.0100 O   0  0  0  0  0  0  0  0  0  0  0  0
   52.6580   31.6660   51.6330 C   0  0  0  0  0  0  0  0  0  0  0  0
   52.6180   30.1720   51.3040 C   0  0  0  0  0  0  0  0  0  0  0  0
   53.2540   29.3480   52.3920 C   0  0  0  0  0  0  0  0  0  0  0  0
   52.7560   28.2290   52.6850 O   0  0  0  0  0  0  0  0  0  0  0  0
   54.3290   29.8550   53.1950 N   0  0  0  0  0  0  0  0  0  0  0  0
   55.6260   30.2390   52.7180 C   0  0  0  0  0  0  0  0  0  0  0  0
   55.8560   31.5720   52.3610 C   0  0  0  0  0  0  0  0  0  0  0  0
   57.1060   31.9670   51.8750 C   0  0  0  0  0  0  0  0  0  0  0  0
   58.1530   31.0370   51.7760 C   0  0  0  0  0  0  0  0  0  0  0  0
   59.4700   31.4330   51.1650 C   0  0  0  0  0  0  0  0  0  0  0  0
   59.6900   30.6540   49.8980 C   0  0  0  0  0  0  0  0  0  0  0  0
   59.1360   31.1010   48.6880 C   0  0  0  0  0  0  0  0  0  0  0  0
   59.2210   30.3100   47.5390 C   0  0  0  0  0  0  0  0  0  0  0  0
   59.8270   29.0510   47.5960 C   0  0  0  0  0  0  0  0  0  0  0  0
   59.8110   28.2100   46.4390 N   0  0  0  0  0  0  0  0  0  0  0  0
   58.6570   27.9700   45.6220 C   0  0  0  0  0  0  0  0  0  0  0  0
   58.7710   28.0620   44.3720 O   0  0  0  0  0  0  0  0  0  0  0  0
   57.3050   27.6550   46.2140 C   0  0  0  0  0  0  0  0  0  0  0  0
   57.0130   26.2190   46.1360 N   0  0  0  0  0  0  0  0  0  0  0  0
   55.8050   25.6410   45.9910 C   0  0  0  0  0  0  0  0  0  0  0  0
   54.6100   26.3410   45.8990 O   0  0  0  0  0  0  0  0  0  0  0  0
   55.9160   24.2660   45.9470 C   0  0  0  0  0  0  0  0  0  0  0  0
   57.2620   23.9840   46.0940 C   0  0  0  0  0  0  0  0  0  0  0  0
   57.8990   25.2060   46.2160 C   0  0  0  0  0  0  0  0  0  0  0  0
   59.2680   25.3810   46.3940 O   0  0  0  0  0  0  0  0  0  0  0  0
   60.4190   28.6170   48.7900 C   0  0  0  0  0  0  0  0  0  0  0  0
   60.3450   29.4120   49.9370 C   0  0  0  0  0  0  0  0  0  0  0  0
   57.9310   29.7080   52.1700 C   0  0  0  0  0  0  0  0  0  0  0  0
   56.6770   29.3120   52.6430 C   0  0  0  0  0  0  0  0  0  0  0  0
   53.5358   32.1201   51.1501 H   0  0  0  0  0  0  0  0  0  0  0  0
   52.7208   31.7895   52.7242 H   0  0  0  0  0  0  0  0  0  0  0  0
   51.5697   29.8602   51.1865 H   0  0  0  0  0  0  0  0  0  0  0  0
   53.1827   30.0091   50.3742 H   0  0  0  0  0  0  0  0  0  0  0  0
   55.0494   32.3129   52.4632 H   0  0  0  0  0  0  0  0  0  0  0  0
   57.2698   33.0108   51.5689 H   0  0  0  0  0  0  0  0  0  0  0  0
   59.4593   32.5090   50.9365 H   0  0  0  0  0  0  0  0  0  0  0  0
   60.2826   31.2164   51.8740 H   0  0  0  0  0  0  0  0  0  0  0  0
   58.6328   32.0782   48.6441 H   0  0  0  0  0  0  0  0  0  0  0  0
   58.8102   30.6786   46.5875 H   0  0  0  0  0  0  0  0  0  0  0  0
   57.2938   27.9666   47.2689 H   0  0  0  0  0  0  0  0  0  0  0  0
   56.5388   28.1978   45.6410 H   0  0  0  0  0  0  0  0  0  0  0  0
   55.0987   23.5407   45.8205 H   0  0  0  0  0  0  0  0  0  0  0  0
   57.7312   22.9892   46.1106 H   0  0  0  0  0  0  0  0  0  0  0  0
   59.7050   26.2770   46.2190 H   0  0  0  0  0  0  0  0  0  0  0  0
   60.9422   27.6500   48.8243 H   0  0  0  0  0  0  0  0  0  0  0  0
   60.8019   29.0634   50.8749 H   0  0  0  0  0  0  0  0  0  0  0  0
   58.7483   28.9746   52.1061 H   0  0  0  0  0  0  0  0  0  0  0  0
   56.5133   28.2707   52.9574 H   0  0  0  0  0  0  0  0  0  0  0  0
  1  2  2  0
  2  3  1  0
  2  4  1  0
  4  5  1  0
  5  6  1  0
  6  7  2  0
  6  8  1  0
  8  9  1  0
  9 10  2  0
 10 11  1  0
 11 12  2  0
 12 13  1  0
 13 14  1  0
 14 15  2  0
 15 16  1  0
 16 17  2  0
 17 18  1  0
 18 19  1  0
 19 20  2  0
 19 21  1  0
 21 22  1  0
 22 23  1  0
 23 24  1  0
 23 25  2  0
 25 26  1  0
 26 27  2  0
 27 28  1  0
 17 29  1  0
 29 30  2  0
 12 31  1  0
 31 32  2  0
 32  9  1  0
 30 14  1  0
 27 22  1  0
  4 33  1  0
  4 34  1  0
  5 35  1  0
  5 36  1  0
 10 37  1  0
 11 38  1  0
 13 39  1  0
 13 40  1  0
 15 41  1  0
 16 42  1  0
 21 43  1  0
 21 44  1  0
 25 45  1  0
 26 46  1  0
 28 47  1  0
 29 48  1  0
 30 49  1  0
 31 50  1  0
 32 51  1  0
M  CHG  4   3  -1   8  -1  18  -1  24  -1
M  END
>  <UniqueID>  (32) 
31

>  <SMILES>  (32) 
O=C([O-])CCC(=O)[N-]c1ccc(Cc2ccc([N-]C(=O)Cn3c([O-])ccc3O)cc2)cc1

>  <Energy>  (32) 
79.75997699684577

>  <Genealogy>  (32) 
O=C([O-])CCC(=O)[N-]c1ccc(Cc2ccc([N-]C(=O)Cn3c([O-])ccc3O)cc2)cc1 (protonated)
O=C([O-])CCC(=O)[N-]c1ccc(Cc2ccc([N-]C(=O)Cn3c([O-])ccc3O)cc2)cc1 (3D coordinates assigned)
O=C([O-])CCC(=O)[N-]c1ccc(Cc2ccc([N-]C(=O)Cn3c([O-])ccc3O)cc2)cc1 (optimized conformer: 79.75997699684577 kcal/mol)

>  <smiles>  (32) 
O=C(O)CCC(=O)Nc1ccc(Cc2ccc(NC(=O)Cn3c(O)ccc3O)cc2)cc1

>  <score_type>  (32) 
oracle

>  <origin>  (32) 
adg

>  <m_score__min__energy>  (32) 
-17.399999999999999

>  <m_primary>  (32) 
energy

$$$$
32:0
     RDKit          3D

 50 53  0  0  0  0  0  0  0  0999 V2000
   57.4973   34.8710   45.2176 H   0  0  0  0  0  0  0  0  0  0  0  0
   58.3570   34.1930   45.3230 C   0  0  0  0  0  0  0  0  0  0  0  0
   59.3520   34.5230   46.3620 C   0  0  0  0  0  0  0  0  0  0  0  0
   59.5940   35.7240   46.6650 O   0  0  0  0  0  0  0  0  0  0  0  0
   59.9920   33.4460   47.0640 N   0  0  0  0  0  0  0  0  0  0  0  0
   61.2690   33.3200   47.2720 C   0  0  0  0  0  0  0  0  0  0  0  0
   61.8090   32.7600   48.3750 N   0  0  0  0  0  0  0  0  0  0  0  0
   63.1720   32.7660   48.3360 C   0  0  0  0  0  0  0  0  0  0  0  0
   63.9790   32.2050   49.4530 C   0  0  0  0  0  0  0  0  0  0  0  0
   65.2910   32.6690   49.6700 C   0  0  0  0  0  0  0  0  0  0  0  0
   65.7100   33.4445   49.0120 H   0  0  0  0  0  0  0  0  0  0  0  0
   66.0660   32.1540   50.7130 C   0  0  0  0  0  0  0  0  0  0  0  0
   67.0899   32.5239   50.8706 H   0  0  0  0  0  0  0  0  0  0  0  0
   65.5430   31.1710   51.5550 C   0  0  0  0  0  0  0  0  0  0  0  0
   66.1551   30.7649   52.3738 H   0  0  0  0  0  0  0  0  0  0  0  0
   64.2430   30.7040   51.3570 C   0  0  0  0  0  0  0  0  0  0  0  0
   63.8312   29.9306   52.0220 H   0  0  0  0  0  0  0  0  0  0  0  0
   63.4620   31.2160   50.3160 C   0  0  0  0  0  0  0  0  0  0  0  0
   62.4370   30.8448   50.1690 H   0  0  0  0  0  0  0  0  0  0  0  0
   63.7110   33.3470   47.1810 C   0  0  0  0  0  0  0  0  0  0  0  0
   64.7819   33.4533   46.9531 H   0  0  0  0  0  0  0  0  0  0  0  0
   62.4390   33.8550   46.2010 S   0  0  0  0  0  0  0  0  0  0  0  0
   58.4100   33.1380   44.4960 C   0  0  0  0  0  0  0  0  0  0  0  0
   58.7550   33.3199   43.4674 H   0  0  0  0  0  0  0  0  0  0  0  0
   58.0430   31.7510   44.8530 C   0  0  0  0  0  0  0  0  0  0  0  0
   58.5070   31.1560   46.0370 C   0  0  0  0  0  0  0  0  0  0  0  0
   59.1863   31.7125   46.6995 H   0  0  0  0  0  0  0  0  0  0  0  0
   58.1100   29.8600   46.3780 C   0  0  0  0  0  0  0  0  0  0  0  0
   58.4962   29.3960   47.2975 H   0  0  0  0  0  0  0  0  0  0  0  0
   57.2230   29.1450   45.5580 C   0  0  0  0  0  0  0  0  0  0  0  0
   56.8360   27.8110   45.9350 N   0  0  0  0  0  0  0  0  0  0  0  0
   55.9510   27.6920   46.4790 H   0  0  0  0  0  0  0  0  0  0  0  0
   57.6190   26.6200   45.5970 C   0  0  0  0  0  0  0  0  0  0  0  0
   58.1794   26.8078   44.6693 H   0  0  0  0  0  0  0  0  0  0  0  0
   58.3111   26.4055   46.4246 H   0  0  0  0  0  0  0  0  0  0  0  0
   56.7180   25.4280   45.3980 C   0  0  0  0  0  0  0  0  0  0  0  0
   57.2510   24.2220   44.9110 C   0  0  0  0  0  0  0  0  0  0  0  0
   58.3279   24.1453   44.7004 H   0  0  0  0  0  0  0  0  0  0  0  0
   56.4200   23.1200   44.6930 C   0  0  0  0  0  0  0  0  0  0  0  0
   56.8458   22.1766   44.3206 H   0  0  0  0  0  0  0  0  0  0  0  0
   55.0500   23.2140   44.9470 C   0  0  0  0  0  0  0  0  0  0  0  0
   54.3983   22.3439   44.7791 H   0  0  0  0  0  0  0  0  0  0  0  0
   54.5070   24.4150   45.4150 C   0  0  0  0  0  0  0  0  0  0  0  0
   53.4271   24.4888   45.6108 H   0  0  0  0  0  0  0  0  0  0  0  0
   55.3330   25.5230   45.6350 C   0  0  0  0  0  0  0  0  0  0  0  0
   54.7710   26.7120   46.0840 O   0  0  0  0  0  0  0  0  0  0  0  0
   56.7320   29.7590   44.3900 C   0  0  0  0  0  0  0  0  0  0  0  0
   56.0285   29.2157   43.7419 H   0  0  0  0  0  0  0  0  0  0  0  0
   57.1320   31.0540   44.0480 C   0  0  0  0  0  0  0  0  0  0  0  0
   56.7291   31.5289   43.1413 H   0  0  0  0  0  0  0  0  0  0  0  0
  1  2  1  0
  2  3  1  0
  3  4  2  0
  3  5  1  0
  5  6  2  0
  6  7  1  0
  7  8  1  0
  8  9  1  0
  9 10  2  0
 10 11  1  0
 10 12  1  0
 12 13  1  0
 12 14  2  0
 14 15  1  0
 14 16  1  0
 16 17  1  0
 16 18  2  0
 18 19  1  0
  8 20  2  0
 20 21  1  0
 20 22  1  0
  2 23  2  0
 23 24  1  0
 23 25  1  0
 25 26  2  0
 26 27  1  0
 26 28  1  0
 28 29  1  0
 28 30  2  0
 30 31  1  0
 31 32  1  0
 31 33  1  0
 33 34  1  0
 33 35  1  0
 33 36  1  0
 36 37  2  0
 37 38  1  0
 37 39  1  0
 39 40  1  0
 39 41  2  0
 41 42  1  0
 41 43  1  0
 43 44  1  0
 43 45  2  0
 45 46  1  0
 30 47  1  0
 47 48  1  0
 47 49  2  0
 49 50  1  0
 22  6  1  0
 49 25  1  0
 18  9  1  0
 45 36  1  0
M  CHG  2   7  -1  46  -1
M  END
>  <UniqueID>  (33) 
32

>  <SMILES>  (33) 
O=C(/C=C\c1ccc(NCc2ccccc2[O-])cc1)/N=c1\[n-]c(-c2ccccc2)cs1

>  <Energy>  (33) 
96.3385622130994

>  <Genealogy>  (33) 
O=C(C=Cc1ccc(NCc2ccccc2[O-])cc1)N=c1[n-]c(-c2ccccc2)cs1 (protonated)
O=C(/C=C\c1ccc(NCc2ccccc2[O-])cc1)/N=c1\[n-]c(-c2ccccc2)cs1 (cis-trans isomerization)
O=C(/C=C\c1ccc(NCc2ccccc2[O-])cc1)/N=c1\[n-]c(-c2ccccc2)cs1 (3D coordinates assigned)
O=C(/C=C\c1ccc(NCc2ccccc2[O-])cc1)/N=c1\[n-]c(-c2ccccc2)cs1 (optimized conformer: 96.3385622130994 kcal/mol)

>  <smiles>  (33) 
O=C(C=Cc1ccc(NCc2ccccc2O)cc1)N=c1[nH]c(-c2ccccc2)cs1

>  <score_type>  (33) 
oracle

>  <origin>  (33) 
adg

>  <m_score__min__energy>  (33) 
-14.369999999999999

>  <m_primary>  (33) 
energy

$$$$
33:0
     RDKit          3D

 32 33  0  0  0  0  0  0  0  0999 V2000
   57.6830   33.8090   47.0720 N   0  0  0  0  0  0  0  0  0  0  0  0
   58.2320   33.5890   45.4500 S   0  0  0  0  0  0  0  0  0  0  0  0
   59.7210   33.7830   45.3910 O   0  0  0  0  0  0  0  0  0  0  0  0
   57.5770   34.6040   44.5550 O   0  0  0  0  0  0  0  0  0  0  0  0
   57.8220   31.9640   44.9100 C   0  0  0  0  0  0  0  0  0  0  0  0
   57.4980   31.7280   43.5680 C   0  0  0  0  0  0  0  0  0  0  0  0
   57.1710   30.4390   43.1410 C   0  0  0  0  0  0  0  0  0  0  0  0
   57.1530   29.3810   44.0550 C   0  0  0  0  0  0  0  0  0  0  0  0
   57.4470   29.6100   45.4100 C   0  0  0  0  0  0  0  0  0  0  0  0
   57.4560   28.5340   46.3660 N   0  0  0  0  0  0  0  0  0  0  0  0
   57.5780   27.1430   46.0170 C   0  0  0  0  0  0  0  0  0  0  0  0
   58.8410   26.5670   45.8160 C   0  0  0  0  0  0  0  0  0  0  0  0
   58.9530   25.2260   45.4540 C   0  0  0  0  0  0  0  0  0  0  0  0
   57.8110   24.4430   45.2700 C   0  0  0  0  0  0  0  0  0  0  0  0
   58.0380   22.7550   44.8190 Cl  0  0  0  0  0  0  0  0  0  0  0  0
   56.5290   25.0090   45.4420 C   0  0  0  0  0  0  0  0  0  0  0  0
   55.0810   24.0080   45.1970 S   0  0  0  0  0  0  0  0  0  0  0  0
   53.6750   24.9320   45.5910 N   0  0  0  0  0  0  0  0  0  0  0  0
   55.1560   22.8020   46.0910 O   0  0  0  0  0  0  0  0  0  0  0  0
   54.9640   23.5390   43.7740 O   0  0  0  0  0  0  0  0  0  0  0  0
   56.4230   26.3670   45.8170 C   0  0  0  0  0  0  0  0  0  0  0  0
   55.1770   26.9550   46.0040 O   0  0  0  0  0  0  0  0  0  0  0  0
   57.7960   30.9040   45.8270 C   0  0  0  0  0  0  0  0  0  0  0  0
   56.6400   33.8760   47.0360 H   0  0  0  0  0  0  0  0  0  0  0  0
   57.5011   32.5600   42.8484 H   0  0  0  0  0  0  0  0  0  0  0  0
   56.9273   30.2559   42.0841 H   0  0  0  0  0  0  0  0  0  0  0  0
   56.9077   28.3651   43.7120 H   0  0  0  0  0  0  0  0  0  0  0  0
   57.3550   28.7790   47.3760 H   0  0  0  0  0  0  0  0  0  0  0  0
   59.7474   27.1767   45.9447 H   0  0  0  0  0  0  0  0  0  0  0  0
   59.9487   24.7805   45.3120 H   0  0  0  0  0  0  0  0  0  0  0  0
   53.8260   25.8920   45.2100 H   0  0  0  0  0  0  0  0  0  0  0  0
   58.0510   31.0877   46.8811 H   0  0  0  0  0  0  0  0  0  0  0  0
  1  2  1  0
  2  3  2  0
  2  4  2  0
  2  5  1  0
  5  6  2  0
  6  7  1  0
  7  8  2  0
  8  9  1  0
  9 10  1  0
 10 11  1  0
 11 12  2  0
 12 13  1  0
 13 14  2  0
 14 15  1  0
 14 16  1  0
 16 17  1  0
 17 18  1  0
 17 19  2  0
 17 20  2  0
 16 21  2  0
 21 22  1  0
  9 23  2  0
 23  5  1  0
 21 11  1  0
  1 24  1  0
  6 25  1  0
  7 26  1  0
  8 27  1  0
 10 28  1  0
 12 29  1  0
 13 30  1  0
 18 31  1  0
 23 32  1  0
M  CHG  3   1  -1  18  -1  22  -1
M  END
>  <UniqueID>  (34) 
33

>  <SMILES>  (34) 
[NH-]S(=O)(=O)c1cccc(Nc2ccc(Cl)c(S([NH-])(=O)=O)c2[O-])c1

>  <Energy>  (34) 
41.88413699817902

>  <Genealogy>  (34) 
[NH-]S(=O)(=O)c1cccc(Nc2ccc(Cl)c(S([NH-])(=O)=O)c2[O-])c1 (protonated)
[NH-]S(=O)(=O)c1cccc(Nc2ccc(Cl)c(S([NH-])(=O)=O)c2[O-])c1 (3D coordinates assigned)
[NH-]S(=O)(=O)c1cccc(Nc2ccc(Cl)c(S([NH-])(=O)=O)c2[O-])c1 (optimized conformer: 41.88413699817902 kcal/mol)

>  <smiles>  (34) 
NS(=O)(=O)c1cccc(Nc2ccc(Cl)c(S(N)(=O)=O)c2O)c1

>  <score_type>  (34) 
oracle

>  <origin>  (34) 
adg

>  <m_score__min__energy>  (34) 
-15.619999999999999

>  <m_primary>  (34) 
energy

$$$$
34:0
     RDKit          3D

 56 59  0  0  0  0  0  0  0  0999 V2000
   61.4740   34.2120   49.2850 O   0  0  0  0  0  0  0  0  0  0  0  0
   60.6260   33.2810   49.2400 C   0  0  0  0  0  0  0  0  0  0  0  0
   60.4570   32.4420   50.3900 N   0  0  0  0  0  0  0  0  0  0  0  0
   59.2130   32.2290   51.0750 C   0  0  0  0  0  0  0  0  0  0  0  0
   58.5690   33.2860   51.7410 C   0  0  0  0  0  0  0  0  0  0  0  0
   57.3500   33.0730   52.3890 C   0  0  0  0  0  0  0  0  0  0  0  0
   56.7620   31.8070   52.3740 C   0  0  0  0  0  0  0  0  0  0  0  0
   57.3960   30.7480   51.7210 C   0  0  0  0  0  0  0  0  0  0  0  0
   58.6290   30.9470   51.0780 C   0  0  0  0  0  0  0  0  0  0  0  0
   59.2560   29.8640   50.3740 N   0  0  0  0  0  0  0  0  0  0  0  0
   59.9500   28.8110   51.1200 C   0  0  0  0  0  0  0  0  0  0  0  0
   61.0630   28.2210   50.2480 C   0  0  0  0  0  0  0  0  0  0  0  0
   60.5570   27.8180   48.9890 O   0  0  0  0  0  0  0  0  0  0  0  0
   60.0960   28.9480   48.2690 C   0  0  0  0  0  0  0  0  0  0  0  0
   58.9050   29.5980   48.9780 C   0  0  0  0  0  0  0  0  0  0  0  0
   59.8570   33.0480   47.9970 C   0  0  0  0  0  0  0  0  0  0  0  0
   58.7960   33.8990   47.6460 C   0  0  0  0  0  0  0  0  0  0  0  0
   58.0460   33.6560   46.4920 C   0  0  0  0  0  0  0  0  0  0  0  0
   58.3460   32.5580   45.6710 C   0  0  0  0  0  0  0  0  0  0  0  0
   57.5060   32.2590   44.4550 C   0  0  0  0  0  0  0  0  0  0  0  0
   56.3210   31.4640   44.7880 N   0  0  0  0  0  0  0  0  0  0  0  0
   56.3230   29.9030   44.0100 S   0  0  0  0  0  0  0  0  0  0  0  0
   56.7540   30.0720   42.5810 O   0  0  0  0  0  0  0  0  0  0  0  0
   54.9200   29.3610   44.0160 O   0  0  0  0  0  0  0  0  0  0  0  0
   57.4120   28.7520   44.7950 C   0  0  0  0  0  0  0  0  0  0  0  0
   58.8010   28.9260   44.7060 C   0  0  0  0  0  0  0  0  0  0  0  0
   59.6690   28.0130   45.3090 C   0  0  0  0  0  0  0  0  0  0  0  0
   59.1550   26.9180   46.0160 C   0  0  0  0  0  0  0  0  0  0  0  0
   60.0090   25.9980   46.6200 O   0  0  0  0  0  0  0  0  0  0  0  0
   57.7700   26.7450   46.1170 C   0  0  0  0  0  0  0  0  0  0  0  0
   56.8980   27.6580   45.5120 C   0  0  0  0  0  0  0  0  0  0  0  0
   55.5250   27.4660   45.6200 O   0  0  0  0  0  0  0  0  0  0  0  0
   59.4420   31.7420   45.9900 C   0  0  0  0  0  0  0  0  0  0  0  0
   60.1870   31.9810   47.1450 C   0  0  0  0  0  0  0  0  0  0  0  0
   59.0272   34.2860   51.7520 H   0  0  0  0  0  0  0  0  0  0  0  0
   56.8530   33.9036   52.9116 H   0  0  0  0  0  0  0  0  0  0  0  0
   55.7977   31.6434   52.8774 H   0  0  0  0  0  0  0  0  0  0  0  0
   56.9275   29.7528   51.7100 H   0  0  0  0  0  0  0  0  0  0  0  0
   60.3871   29.2365   52.0354 H   0  0  0  0  0  0  0  0  0  0  0  0
   59.2356   28.0195   51.3904 H   0  0  0  0  0  0  0  0  0  0  0  0
   61.8431   28.9815   50.0961 H   0  0  0  0  0  0  0  0  0  0  0  0
   61.4799   27.3401   50.7580 H   0  0  0  0  0  0  0  0  0  0  0  0
   60.9118   29.6816   48.1889 H   0  0  0  0  0  0  0  0  0  0  0  0
   59.7744   28.6209   47.2692 H   0  0  0  0  0  0  0  0  0  0  0  0
   58.6511   30.5437   48.4768 H   0  0  0  0  0  0  0  0  0  0  0  0
   58.0398   28.9198   48.9396 H   0  0  0  0  0  0  0  0  0  0  0  0
   58.5539   34.7622   48.2835 H   0  0  0  0  0  0  0  0  0  0  0  0
   57.2170   34.3283   46.2261 H   0  0  0  0  0  0  0  0  0  0  0  0
   57.1814   33.2090   44.0054 H   0  0  0  0  0  0  0  0  0  0  0  0
   58.1201   31.6757   43.7531 H   0  0  0  0  0  0  0  0  0  0  0  0
   59.2095   29.7875   44.1575 H   0  0  0  0  0  0  0  0  0  0  0  0
   60.7570   28.1537   45.2288 H   0  0  0  0  0  0  0  0  0  0  0  0
   60.4990   26.2150   47.4800 H   0  0  0  0  0  0  0  0  0  0  0  0
   57.3646   25.8877   46.6743 H   0  0  0  0  0  0  0  0  0  0  0  0
   59.7153   30.9091   45.3255 H   0  0  0  0  0  0  0  0  0  0  0  0
   61.0387   31.3295   47.3902 H   0  0  0  0  0  0  0  0  0  0  0  0
  1  2  2  0
  2  3  1  0
  3  4  1  0
  4  5  2  0
  5  6  1  0
  6  7  2  0
  7  8  1  0
  8  9  2  0
  9 10  1  0
 10 11  1  0
 11 12  1  0
 12 13  1  0
 13 14  1  0
 14 15  1  0
  2 16  1  0
 16 17  2  0
 17 18  1  0
 18 19  2  0
 19 20  1  0
 20 21  1  0
 21 22  1  0
 22 23  2  0
 22 24  2  0
 22 25  1  0
 25 26  2  0
 26 27  1  0
 27 28  2  0
 28 29  1  0
 28 30  1  0
 30 31  2  0
 31 32  1  0
 19 33  1  0
 33 34  2  0
  9  4  1  0
 15 10  1  0
 34 16  1  0
 31 25  1  0
  5 35  1  0
  6 36  1  0
  7 37  1  0
  8 38  1  0
 11 39  1  0
 11 40  1  0
 12 41  1  0
 12 42  1  0
 14 43  1  0
 14 44  1  0
 15 45  1  0
 15 46  1  0
 17 47  1  0
 18 48  1  0
 20 49  1  0
 20 50  1  0
 26 51  1  0
 27 52  1  0
 29 53  1  0
 30 54  1  0
 33 55  1  0
 34 56  1  0
M  CHG  3   3  -1  21  -1  32  -1
M  END
>  <UniqueID>  (35) 
34

>  <SMILES>  (35) 
O=C([N-]c1ccccc1N1CCOCC1)c1ccc(C[N-]S(=O)(=O)c2ccc(O)cc2[O-])cc1

>  <Energy>  (35) 
69.26557196957255

>  <Genealogy>  (35) 
O=C([N-]c1ccccc1N1CCOCC1)c1ccc(C[N-]S(=O)(=O)c2ccc(O)cc2[O-])cc1 (protonated)
O=C([N-]c1ccccc1N1CCOCC1)c1ccc(C[N-]S(=O)(=O)c2ccc(O)cc2[O-])cc1 (3D coordinates assigned)
O=C([N-]c1ccccc1N1CCOCC1)c1ccc(C[N-]S(=O)(=O)c2ccc(O)cc2[O-])cc1 (nonaromatic ring conformer: 69.26557196957255 kcal/mol)

>  <smiles>  (35) 
O=C(Nc1ccccc1N1CCOCC1)c1ccc(CNS(=O)(=O)c2ccc(O)cc2O)cc1

>  <score_type>  (35) 
oracle

>  <origin>  (35) 
adg

>  <m_score__min__energy>  (35) 
-14.800000000000001

>  <m_primary>  (35) 
energy

$$$$
35:0
     RDKit          3D

 35 37  0  0  0  0  0  0  0  0999 V2000
   56.7440   29.8610   53.3210 O   0  0  0  0  0  0  0  0  0  0  0  0
   55.9310   30.1750   52.4100 C   0  0  0  0  0  0  0  0  0  0  0  0
   54.6280   29.4430   52.3080 C   0  0  0  0  0  0  0  0  0  0  0  0
   53.4890   30.4210   52.2340 C   0  0  0  0  0  0  0  0  0  0  0  0
   52.7270   30.7140   53.3790 C   0  0  0  0  0  0  0  0  0  0  0  0
   51.6470   31.5990   53.2990 C   0  0  0  0  0  0  0  0  0  0  0  0
   51.3150   32.1920   52.0770 C   0  0  0  0  0  0  0  0  0  0  0  0
   50.2420   33.0700   52.0000 O   0  0  0  0  0  0  0  0  0  0  0  0
   52.0610   31.8970   50.9320 C   0  0  0  0  0  0  0  0  0  0  0  0
   53.1420   31.0120   51.0080 C   0  0  0  0  0  0  0  0  0  0  0  0
   56.2030   31.2800   51.5330 N   0  0  0  0  0  0  0  0  0  0  0  0
   57.4720   31.9500   51.4540 C   0  0  0  0  0  0  0  0  0  0  0  0
   58.1480   32.2790   52.6370 C   0  0  0  0  0  0  0  0  0  0  0  0
   59.3730   32.9430   52.5870 C   0  0  0  0  0  0  0  0  0  0  0  0
   59.9310   33.3030   51.3580 C   0  0  0  0  0  0  0  0  0  0  0  0
   59.2570   33.0130   50.1560 C   0  0  0  0  0  0  0  0  0  0  0  0
   59.8230   33.3990   48.8360 C   0  0  0  0  0  0  0  0  0  0  0  0
   61.1400   33.1450   48.4360 C   0  0  0  0  0  0  0  0  0  0  0  0
   61.3540   33.7590   46.8830 S   0  0  0  0  0  0  0  0  0  0  0  0
   59.7770   34.3170   46.7890 C   0  0  0  0  0  0  0  0  0  0  0  0
   59.2900   34.9130   45.7940 O   0  0  0  0  0  0  0  0  0  0  0  0
   59.0720   34.0560   47.9080 N   0  0  0  0  0  0  0  0  0  0  0  0
   58.0230   32.3350   50.2180 C   0  0  0  0  0  0  0  0  0  0  0  0
   54.6312   28.8194   51.4018 H   0  0  0  0  0  0  0  0  0  0  0  0
   54.5008   28.8098   53.1984 H   0  0  0  0  0  0  0  0  0  0  0  0
   52.9813   30.2454   54.3411 H   0  0  0  0  0  0  0  0  0  0  0  0
   51.0577   31.8290   54.1989 H   0  0  0  0  0  0  0  0  0  0  0  0
   51.7977   32.3613   49.9701 H   0  0  0  0  0  0  0  0  0  0  0  0
   53.7227   30.7780   50.1036 H   0  0  0  0  0  0  0  0  0  0  0  0
   55.4040   31.6780   50.9890 H   0  0  0  0  0  0  0  0  0  0  0  0
   57.7098   32.0119   53.6099 H   0  0  0  0  0  0  0  0  0  0  0  0
   59.9028   33.1846   53.5202 H   0  0  0  0  0  0  0  0  0  0  0  0
   60.9034   33.8164   51.3289 H   0  0  0  0  0  0  0  0  0  0  0  0
   61.9060   32.6310   49.0352 H   0  0  0  0  0  0  0  0  0  0  0  0
   57.4835   32.1038   49.2877 H   0  0  0  0  0  0  0  0  0  0  0  0
  1  2  2  0
  2  3  1  0
  3  4  1  0
  4  5  2  0
  5  6  1  0
  6  7  2  0
  7  8  1  0
  7  9  1  0
  9 10  2  0
  2 11  1  0
 11 12  1  0
 12 13  2  0
 13 14  1  0
 14 15  2  0
 15 16  1  0
 16 17  1  0
 17 18  2  0
 18 19  1  0
 19 20  1  0
 20 21  2  0
 20 22  1  0
 16 23  2  0
 10  4  1  0
 23 12  1  0
 22 17  1  0
  3 24  1  0
  3 25  1  0
  5 26  1  0
  6 27  1  0
  9 28  1  0
 10 29  1  0
 11 30  1  0
 13 31  1  0
 14 32  1  0
 15 33  1  0
 18 34  1  0
 23 35  1  0
M  CHG  2   8  -1  22  -1
M  END
>  <UniqueID>  (36) 
35

>  <SMILES>  (36) 
O=C(Cc1ccc([O-])cc1)Nc1cccc(-c2csc(=O)[n-]2)c1

>  <Energy>  (36) 
71.81070519015375

>  <Genealogy>  (36) 
O=C(Cc1ccc([O-])cc1)Nc1cccc(-c2csc(=O)[n-]2)c1 (protonated)
O=C(Cc1ccc([O-])cc1)Nc1cccc(-c2csc(=O)[n-]2)c1 (3D coordinates assigned)
O=C(Cc1ccc([O-])cc1)Nc1cccc(-c2csc(=O)[n-]2)c1 (optimized conformer: 71.81070519015375 kcal/mol)

>  <smiles>  (36) 
O=C(Cc1ccc(O)cc1)Nc1cccc(-c2csc(=O)[nH]2)c1

>  <score_type>  (36) 
oracle

>  <origin>  (36) 
adg

>  <m_score__min__energy>  (36) 
-12.59

>  <m_primary>  (36) 
energy

$$$$
36:0
     RDKit          3D

 44 46  0  0  0  0  0  0  0  0999 V2000
   57.6210   23.4750   47.4060 O   0  0  0  0  0  0  0  0  0  0  0  0
   57.7960   24.0180   46.2820 C   0  0  0  0  0  0  0  0  0  0  0  0
   57.0920   23.4590   45.0740 C   0  0  0  0  0  0  0  0  0  0  0  0
   55.6270   23.7780   45.1180 C   0  0  0  0  0  0  0  0  0  0  0  0
   54.6780   23.0100   44.5530 N   0  0  0  0  0  0  0  0  0  0  0  0
   53.5300   23.6400   44.8800 C   0  0  0  0  0  0  0  0  0  0  0  0
   52.4000   23.2180   44.5210 O   0  0  0  0  0  0  0  0  0  0  0  0
   53.6870   24.7540   45.6260 N   0  0  0  0  0  0  0  0  0  0  0  0
   55.0200   24.8270   45.7750 C   0  0  0  0  0  0  0  0  0  0  0  0
   55.6540   25.8300   46.5050 O   0  0  0  0  0  0  0  0  0  0  0  0
   58.6940   25.1310   46.1860 N   0  0  0  0  0  0  0  0  0  0  0  0
   58.3680   26.4500   45.7290 C   0  0  0  0  0  0  0  0  0  0  0  0
   58.2540   27.4830   46.6650 C   0  0  0  0  0  0  0  0  0  0  0  0
   57.9120   28.7750   46.2580 C   0  0  0  0  0  0  0  0  0  0  0  0
   57.6570   29.0520   44.9020 C   0  0  0  0  0  0  0  0  0  0  0  0
   57.3060   30.4230   44.4660 C   0  0  0  0  0  0  0  0  0  0  0  0
   56.1090   30.8180   44.5200 O   0  0  0  0  0  0  0  0  0  0  0  0
   58.3240   31.3020   43.9730 N   0  0  0  0  0  0  0  0  0  0  0  0
   58.0940   32.7050   43.6410 C   0  0  0  0  0  0  0  0  0  0  0  0
   57.3570   33.4270   44.7760 C   0  0  0  0  0  0  0  0  0  0  0  0
   58.2590   33.6500   45.9630 C   0  0  0  0  0  0  0  0  0  0  0  0
   58.1210   32.8600   47.1170 C   0  0  0  0  0  0  0  0  0  0  0  0
   58.9320   33.0950   48.2330 C   0  0  0  0  0  0  0  0  0  0  0  0
   59.8800   34.1220   48.2050 C   0  0  0  0  0  0  0  0  0  0  0  0
   60.0160   34.9180   47.0640 C   0  0  0  0  0  0  0  0  0  0  0  0
   59.2060   34.6880   45.9480 C   0  0  0  0  0  0  0  0  0  0  0  0
   57.7450   28.0040   43.9670 C   0  0  0  0  0  0  0  0  0  0  0  0
   58.0880   26.7140   44.3780 C   0  0  0  0  0  0  0  0  0  0  0  0
   57.5299   23.8984   44.1656 H   0  0  0  0  0  0  0  0  0  0  0  0
   57.2154   22.3660   45.0676 H   0  0  0  0  0  0  0  0  0  0  0  0
   56.6050   25.7250   46.8340 H   0  0  0  0  0  0  0  0  0  0  0  0
   58.4351   27.2765   47.7302 H   0  0  0  0  0  0  0  0  0  0  0  0
   57.8415   29.5815   47.0027 H   0  0  0  0  0  0  0  0  0  0  0  0
   59.0628   33.1975   43.4712 H   0  0  0  0  0  0  0  0  0  0  0  0
   57.4723   32.7524   42.7348 H   0  0  0  0  0  0  0  0  0  0  0  0
   57.0010   34.4010   44.4090 H   0  0  0  0  0  0  0  0  0  0  0  0
   56.5130   32.7982   45.0958 H   0  0  0  0  0  0  0  0  0  0  0  0
   57.3728   32.0540   47.1432 H   0  0  0  0  0  0  0  0  0  0  0  0
   58.8235   32.4714   49.1326 H   0  0  0  0  0  0  0  0  0  0  0  0
   60.5194   34.3039   49.0814 H   0  0  0  0  0  0  0  0  0  0  0  0
   60.7615   35.7266   47.0442 H   0  0  0  0  0  0  0  0  0  0  0  0
   59.3104   35.3218   45.0550 H   0  0  0  0  0  0  0  0  0  0  0  0
   57.5421   28.2023   42.9042 H   0  0  0  0  0  0  0  0  0  0  0  0
   58.1392   25.9002   43.6397 H   0  0  0  0  0  0  0  0  0  0  0  0
  1  2  2  0
  2  3  1  0
  3  4  1  0
  4  5  1  0
  5  6  1  0
  6  7  2  0
  6  8  1  0
  8  9  1  0
  9 10  1  0
  2 11  1  0
 11 12  1  0
 12 13  2  0
 13 14  1  0
 14 15  2  0
 15 16  1  0
 16 17  2  0
 16 18  1  0
 18 19  1  0
 19 20  1  0
 20 21  1  0
 21 22  2  0
 22 23  1  0
 23 24  2  0
 24 25  1  0
 25 26  2  0
 15 27  1  0
 27 28  2  0
  9  4  2  0
 28 12  1  0
 26 21  1  0
  3 29  1  0
  3 30  1  0
 10 31  1  0
 13 32  1  0
 14 33  1  0
 19 34  1  0
 19 35  1  0
 20 36  1  0
 20 37  1  0
 22 38  1  0
 23 39  1  0
 24 40  1  0
 25 41  1  0
 26 42  1  0
 27 43  1  0
 28 44  1  0
M  CHG  4   5  -1   8  -1  11  -1  18  -1
M  END
>  <UniqueID>  (37) 
36

>  <SMILES>  (37) 
O=C(Cc1[n-]c(=O)[n-]c1O)[N-]c1ccc(C(=O)[N-]CCc2ccccc2)cc1

>  <Energy>  (37) 
74.73371888675021

>  <Genealogy>  (37) 
O=C(Cc1[n-]c(=O)[n-]c1O)[N-]c1ccc(C(=O)[N-]CCc2ccccc2)cc1 (protonated)
O=C(Cc1[n-]c(=O)[n-]c1O)[N-]c1ccc(C(=O)[N-]CCc2ccccc2)cc1 (3D coordinates assigned)
O=C(Cc1[n-]c(=O)[n-]c1O)[N-]c1ccc(C(=O)[N-]CCc2ccccc2)cc1 (optimized conformer: 74.73371888675021 kcal/mol)

>  <smiles>  (37) 
O=C(Cc1[nH]c(=O)[nH]c1O)Nc1ccc(C(=O)NCCc2ccccc2)cc1

>  <score_type>  (37) 
oracle

>  <origin>  (37) 
adg

>  <m_score__min__energy>  (37) 
-15.17

>  <m_primary>  (37) 
energy

$$$$
37:0
     RDKit          3D

 31 33  0  0  0  0  0  0  0  0999 V2000
   54.2385   28.4821   54.3413 H   0  0  0  0  0  0  0  0  0  0  0  0
   55.0130   28.8780   53.6680 C   0  0  0  0  0  0  0  0  0  0  0  0
   56.6030   28.3390   53.5710 S   0  0  0  0  0  0  0  0  0  0  0  0
   57.0080   29.4310   52.3540 C   0  0  0  0  0  0  0  0  0  0  0  0
   58.1820   29.5840   51.8140 N   0  0  0  0  0  0  0  0  0  0  0  0
   58.5360   30.5260   50.7900 C   0  0  0  0  0  0  0  0  0  0  0  0
   58.5800   31.8880   51.1090 C   0  0  0  0  0  0  0  0  0  0  0  0
   58.3752   32.2142   52.1394 H   0  0  0  0  0  0  0  0  0  0  0  0
   58.8820   32.8360   50.1290 C   0  0  0  0  0  0  0  0  0  0  0  0
   58.9309   33.9016   50.3977 H   0  0  0  0  0  0  0  0  0  0  0  0
   59.1240   32.4400   48.8020 C   0  0  0  0  0  0  0  0  0  0  0  0
   59.4350   33.4200   47.7950 N   0  0  0  0  0  0  0  0  0  0  0  0
   59.0410   33.2710   46.6190 O   0  0  0  0  0  0  0  0  0  0  0  0
   60.1750   34.5360   48.1090 O   0  0  0  0  0  0  0  0  0  0  0  0
   59.0440   31.0740   48.4770 C   0  0  0  0  0  0  0  0  0  0  0  0
   59.2198   30.7488   47.4410 H   0  0  0  0  0  0  0  0  0  0  0  0
   58.7430   30.1260   49.4590 C   0  0  0  0  0  0  0  0  0  0  0  0
   58.6679   29.0624   49.1887 H   0  0  0  0  0  0  0  0  0  0  0  0
   55.9630   30.2160   52.0260 N   0  0  0  0  0  0  0  0  0  0  0  0
   54.8440   29.9170   52.7450 C   0  0  0  0  0  0  0  0  0  0  0  0
   53.5690   30.6530   52.5340 C   0  0  0  0  0  0  0  0  0  0  0  0
   53.2510   31.2390   51.2920 C   0  0  0  0  0  0  0  0  0  0  0  0
   53.9571   31.1553   50.4527 H   0  0  0  0  0  0  0  0  0  0  0  0
   52.0450   31.9260   51.1180 C   0  0  0  0  0  0  0  0  0  0  0  0
   51.8087   32.3828   50.1456 H   0  0  0  0  0  0  0  0  0  0  0  0
   51.1400   32.0330   52.1770 C   0  0  0  0  0  0  0  0  0  0  0  0
   49.9420   32.7150   52.0010 O   0  0  0  0  0  0  0  0  0  0  0  0
   51.4390   31.4520   53.4110 C   0  0  0  0  0  0  0  0  0  0  0  0
   50.7258   31.5351   54.2443 H   0  0  0  0  0  0  0  0  0  0  0  0
   52.6430   30.7650   53.5890 C   0  0  0  0  0  0  0  0  0  0  0  0
   52.8696   30.3071   54.5632 H   0  0  0  0  0  0  0  0  0  0  0  0
  1  2  1  0
  2  3  1  0
  3  4  1  0
  4  5  2  0
  5  6  1  0
  6  7  2  0
  7  8  1  0
  7  9  1  0
  9 10  1  0
  9 11  2  0
 11 12  1  0
 12 13  2  0
 12 14  1  0
 11 15  1  0
 15 16  1  0
 15 17  2  0
 17 18  1  0
  4 19  1  0
 19 20  1  0
 20 21  1  0
 21 22  2  0
 22 23  1  0
 22 24  1  0
 24 25  1  0
 24 26  2  0
 26 27  1  0
 26 28  1  0
 28 29  1  0
 28 30  2  0
 30 31  1  0
 20  2  2  0
 30 21  1  0
 17  6  1  0
M  CHG  4  12   1  14  -1  19  -1  27  -1
M  END
>  <UniqueID>  (38) 
37

>  <SMILES>  (38) 
O=[N+]([O-])c1ccc(/N=c2/[n-]c(-c3ccc([O-])cc3)cs2)cc1

>  <Energy>  (38) 
74.97468319320451

>  <Genealogy>  (38) 
O=[N+]([O-])c1ccc(N=c2[n-]c(-c3ccc([O-])cc3)cs2)cc1 (protonated)
O=[N+]([O-])c1ccc(/N=c2/[n-]c(-c3ccc([O-])cc3)cs2)cc1 (cis-trans isomerization)
O=[N+]([O-])c1ccc(/N=c2/[n-]c(-c3ccc([O-])cc3)cs2)cc1 (3D coordinates assigned)
O=[N+]([O-])c1ccc(/N=c2/[n-]c(-c3ccc([O-])cc3)cs2)cc1 (optimized conformer: 74.97468319320451 kcal/mol)

>  <smiles>  (38) 
O=[N+]([O-])c1ccc(N=c2[nH]c(-c3ccc(O)cc3)cs2)cc1

>  <score_type>  (38) 
oracle

>  <origin>  (38) 
adg

>  <m_score__min__energy>  (38) 
-11.699999999999999

>  <m_primary>  (38) 
energy

$$$$
38:0
     RDKit          3D

 35 36  0  0  0  0  0  0  0  0999 V2000
   59.7204   26.5662   47.2633 H   0  0  0  0  0  0  0  0  0  0  0  0
   58.8940   26.9930   46.6760 C   0  0  0  0  0  0  0  0  0  0  0  0
   57.6660   26.4150   46.7150 N   0  0  0  0  0  0  0  0  0  0  0  0
   56.6130   26.9070   46.0020 C   0  0  0  0  0  0  0  0  0  0  0  0
   55.4430   26.3390   46.0420 N   0  0  0  0  0  0  0  0  0  0  0  0
   55.1210   24.9960   45.6430 C   0  0  0  0  0  0  0  0  0  0  0  0
   54.0450   24.4440   46.0020 O   0  0  0  0  0  0  0  0  0  0  0  0
   56.0530   24.2610   44.7380 C   0  0  0  0  0  0  0  0  0  0  0  0
   56.7757   23.6911   45.3404 H   0  0  0  0  0  0  0  0  0  0  0  0
   55.4789   23.5699   44.1033 H   0  0  0  0  0  0  0  0  0  0  0  0
   56.5912   24.9804   44.1033 H   0  0  0  0  0  0  0  0  0  0  0  0
   56.7930   28.0450   45.2060 C   0  0  0  0  0  0  0  0  0  0  0  0
   55.9537   28.4450   44.6182 H   0  0  0  0  0  0  0  0  0  0  0  0
   58.0490   28.6750   45.1600 C   0  0  0  0  0  0  0  0  0  0  0  0
   58.2780   29.8330   44.3370 N   0  0  0  0  0  0  0  0  0  0  0  0
   58.5540   29.6780   43.3410 H   0  0  0  0  0  0  0  0  0  0  0  0
   58.1840   31.1880   44.8110 C   0  0  0  0  0  0  0  0  0  0  0  0
   58.3920   31.4740   46.1720 C   0  0  0  0  0  0  0  0  0  0  0  0
   58.6050   30.6540   46.8736 H   0  0  0  0  0  0  0  0  0  0  0  0
   58.3310   32.7930   46.6450 C   0  0  0  0  0  0  0  0  0  0  0  0
   58.5840   33.0860   48.0940 C   0  0  0  0  0  0  0  0  0  0  0  0
   57.9910   32.3993   48.7159 H   0  0  0  0  0  0  0  0  0  0  0  0
   59.6531   32.9498   48.3144 H   0  0  0  0  0  0  0  0  0  0  0  0
   58.2935   34.1238   48.3144 H   0  0  0  0  0  0  0  0  0  0  0  0
   58.1110   33.8390   45.7420 C   0  0  0  0  0  0  0  0  0  0  0  0
   58.0884   34.8778   46.1030 H   0  0  0  0  0  0  0  0  0  0  0  0
   57.9200   33.5710   44.3850 C   0  0  0  0  0  0  0  0  0  0  0  0
   57.7470   34.4008   43.6840 H   0  0  0  0  0  0  0  0  0  0  0  0
   57.9470   32.2500   43.9080 C   0  0  0  0  0  0  0  0  0  0  0  0
   57.7430   31.9880   42.4410 C   0  0  0  0  0  0  0  0  0  0  0  0
   57.0718   31.1260   42.3123 H   0  0  0  0  0  0  0  0  0  0  0  0
   57.2953   32.8750   41.9689 H   0  0  0  0  0  0  0  0  0  0  0  0
   58.7126   31.7714   41.9689 H   0  0  0  0  0  0  0  0  0  0  0  0
   59.1100   28.1280   45.8920 C   0  0  0  0  0  0  0  0  0  0  0  0
   60.1075   28.5896   45.8496 H   0  0  0  0  0  0  0  0  0  0  0  0
  1  2  1  0
  2  3  1  0
  3  4  1  0
  4  5  2  0
  5  6  1  0
  6  7  2  0
  6  8  1  0
  8  9  1  0
  8 10  1  0
  8 11  1  0
  4 12  1  0
 12 13  1  0
 12 14  2  0
 14 15  1  0
 15 16  1  0
 15 17  1  0
 17 18  2  0
 18 19  1  0
 18 20  1  0
 20 21  1  0
 21 22  1  0
 21 23  1  0
 21 24  1  0
 20 25  2  0
 25 26  1  0
 25 27  1  0
 27 28  1  0
 27 29  2  0
 29 30  1  0
 30 31  1  0
 30 32  1  0
 30 33  1  0
 14 34  1  0
 34 35  1  0
 34  2  2  0
 29 17  1  0
M  CHG  1   3  -1
M  END
>  <UniqueID>  (39) 
38

>  <SMILES>  (39) 
CC(=O)/N=c1/cc(Nc2cc(C)ccc2C)cc[n-]1

>  <Energy>  (39) 
41.49417026267104

>  <Genealogy>  (39) 
CC(=O)N=c1cc(Nc2cc(C)ccc2C)cc[n-]1 (protonated)
CC(=O)/N=c1/cc(Nc2cc(C)ccc2C)cc[n-]1 (cis-trans isomerization)
CC(=O)/N=c1/cc(Nc2cc(C)ccc2C)cc[n-]1 (3D coordinates assigned)
CC(=O)/N=c1/cc(Nc2cc(C)ccc2C)cc[n-]1 (optimized conformer: 41.49417026267104 kcal/mol)

>  <smiles>  (39) 
CC(=O)N=c1cc(Nc2cc(C)ccc2C)cc[nH]1

>  <score_type>  (39) 
oracle

>  <origin>  (39) 
adg

>  <m_score__min__energy>  (39) 
-9.1500000000000004

>  <m_primary>  (39) 
energy

$$$$
39:0
     RDKit          3D

 20 21  0  0  0  0  0  0  0  0999 V2000
   55.2370   30.2950   44.2830 O   0  0  0  0  0  0  0  0  0  0  0  0
   56.1710   29.6860   44.8750 C   0  0  0  0  0  0  0  0  0  0  0  0
   56.0360   28.3610   45.1580 N   0  0  0  0  0  0  0  0  0  0  0  0
   57.0230   27.6690   45.7970 C   0  0  0  0  0  0  0  0  0  0  0  0
   56.8490   26.2110   46.0970 C   0  0  0  0  0  0  0  0  0  0  0  0
   57.5240   25.4610   45.1530 F   0  0  0  0  0  0  0  0  0  0  0  0
   57.3620   25.9330   47.3510 F   0  0  0  0  0  0  0  0  0  0  0  0
   55.5090   25.8640   46.0730 F   0  0  0  0  0  0  0  0  0  0  0  0
   58.1670   28.3070   46.1610 N   0  0  0  0  0  0  0  0  0  0  0  0
   58.3530   29.6260   45.9040 C   0  0  0  0  0  0  0  0  0  0  0  0
   59.5420   30.2560   46.2910 C   0  0  0  0  0  0  0  0  0  0  0  0
   59.7330   31.6150   46.0250 C   0  0  0  0  0  0  0  0  0  0  0  0
   58.7380   32.3500   45.3710 C   0  0  0  0  0  0  0  0  0  0  0  0
   58.9860   34.0560   45.0420 Cl  0  0  0  0  0  0  0  0  0  0  0  0
   57.5460   31.7290   44.9800 C   0  0  0  0  0  0  0  0  0  0  0  0
   57.3460   30.3610   45.2440 C   0  0  0  0  0  0  0  0  0  0  0  0
   55.1570   27.8670   44.8790 H   0  0  0  0  0  0  0  0  0  0  0  0
   60.3265   29.6811   46.8048 H   0  0  0  0  0  0  0  0  0  0  0  0
   60.6678   32.1078   46.3306 H   0  0  0  0  0  0  0  0  0  0  0  0
   56.7657   32.3100   44.4665 H   0  0  0  0  0  0  0  0  0  0  0  0
  1  2  2  0
  2  3  1  0
  3  4  1  0
  4  5  1  0
  5  6  1  0
  5  7  1  0
  5  8  1  0
  4  9  2  0
  9 10  1  0
 10 11  2  0
 11 12  1  0
 12 13  2  0
 13 14  1  0
 13 15  1  0
 15 16  2  0
 16  2  1  0
 16 10  1  0
  3 17  1  0
 11 18  1  0
 12 19  1  0
 15 20  1  0
M  END
>  <UniqueID>  (40) 
39

>  <SMILES>  (40) 
O=c1[nH]c(C(F)(F)F)nc2ccc(Cl)cc12

>  <Energy>  (40) 
24.237182748579876

>  <Genealogy>  (40) 
O=c1[nH]c(C(F)(F)F)nc2ccc(Cl)cc12 (3D coordinates assigned)
O=c1[nH]c(C(F)(F)F)nc2ccc(Cl)cc12 (optimized conformer: 24.237182748579876 kcal/mol)

>  <smiles>  (40) 
O=c1[nH]c(C(F)(F)F)nc2ccc(Cl)cc12

>  <score_type>  (40) 
oracle

>  <origin>  (40) 
adg

>  <m_score__min__energy>  (40) 
-5.3899999999999997

>  <m_primary>  (40) 
energy

$$$$
40:0
     RDKit          3D

 48 50  0  0  0  0  0  0  0  0999 V2000
   59.4600   26.4370   47.5110 C   0  0  0  0  0  0  0  0  0  0  0  0
   59.7270   27.9020   47.3970 C   0  0  0  0  0  0  0  0  0  0  0  0
   60.7450   28.5170   47.9450 O   0  0  0  0  0  0  0  0  0  0  0  0
   60.6370   29.7920   47.6360 C   0  0  0  0  0  0  0  0  0  0  0  0
   61.5980   30.8260   48.0710 C   0  0  0  0  0  0  0  0  0  0  0  0
   62.2360   31.6420   47.1230 C   0  0  0  0  0  0  0  0  0  0  0  0
   63.1490   32.6190   47.5310 C   0  0  0  0  0  0  0  0  0  0  0  0
   63.4360   32.7900   48.8890 C   0  0  0  0  0  0  0  0  0  0  0  0
   64.3500   33.7660   49.2800 O   0  0  0  0  0  0  0  0  0  0  0  0
   62.8030   31.9810   49.8410 C   0  0  0  0  0  0  0  0  0  0  0  0
   61.8890   31.0030   49.4360 C   0  0  0  0  0  0  0  0  0  0  0  0
   59.5480   30.0530   46.8770 N   0  0  0  0  0  0  0  0  0  0  0  0
   58.9780   28.8430   46.7190 C   0  0  0  0  0  0  0  0  0  0  0  0
   57.6960   28.6120   45.9800 C   0  0  0  0  0  0  0  0  0  0  0  0
   58.0380   27.9860   44.2950 S   0  0  0  0  0  0  0  0  0  0  0  0
   57.0140   29.2090   43.3930 C   0  0  0  0  0  0  0  0  0  0  0  0
   56.0880   29.9490   44.3080 C   0  0  0  0  0  0  0  0  0  0  0  0
   55.1380   29.3330   44.8620 O   0  0  0  0  0  0  0  0  0  0  0  0
   56.2940   31.3400   44.5700 N   0  0  0  0  0  0  0  0  0  0  0  0
   57.6060   31.9720   44.5510 C   0  0  0  0  0  0  0  0  0  0  0  0
   57.5130   33.3840   45.1300 C   0  0  0  0  0  0  0  0  0  0  0  0
   58.3870   33.5310   46.3500 C   0  0  0  0  0  0  0  0  0  0  0  0
   59.4370   34.4650   46.3650 C   0  0  0  0  0  0  0  0  0  0  0  0
   60.2170   34.6310   47.5140 C   0  0  0  0  0  0  0  0  0  0  0  0
   59.9440   33.8800   48.6600 C   0  0  0  0  0  0  0  0  0  0  0  0
   58.8930   32.9580   48.6580 C   0  0  0  0  0  0  0  0  0  0  0  0
   58.1140   32.7840   47.5090 C   0  0  0  0  0  0  0  0  0  0  0  0
   59.4086   26.1552   48.5731 H   0  0  0  0  0  0  0  0  0  0  0  0
   58.5038   26.1994   47.0220 H   0  0  0  0  0  0  0  0  0  0  0  0
   60.2709   25.8773   47.0220 H   0  0  0  0  0  0  0  0  0  0  0  0
   62.0162   31.5118   46.0531 H   0  0  0  0  0  0  0  0  0  0  0  0
   63.6430   33.2550   46.7817 H   0  0  0  0  0  0  0  0  0  0  0  0
   65.1620   33.5360   49.8410 H   0  0  0  0  0  0  0  0  0  0  0  0
   63.0253   32.1152   50.9099 H   0  0  0  0  0  0  0  0  0  0  0  0
   61.3956   30.3695   50.1878 H   0  0  0  0  0  0  0  0  0  0  0  0
   57.0907   27.8732   46.5257 H   0  0  0  0  0  0  0  0  0  0  0  0
   57.1503   29.5641   45.9040 H   0  0  0  0  0  0  0  0  0  0  0  0
   57.6785   29.9330   42.8988 H   0  0  0  0  0  0  0  0  0  0  0  0
   56.4025   28.6644   42.6585 H   0  0  0  0  0  0  0  0  0  0  0  0
   58.3065   31.3760   45.1544 H   0  0  0  0  0  0  0  0  0  0  0  0
   57.9647   32.0297   43.5127 H   0  0  0  0  0  0  0  0  0  0  0  0
   57.8373   34.1069   44.3669 H   0  0  0  0  0  0  0  0  0  0  0  0
   56.4698   33.5723   45.4237 H   0  0  0  0  0  0  0  0  0  0  0  0
   59.6463   35.0681   45.4692 H   0  0  0  0  0  0  0  0  0  0  0  0
   61.0463   35.3537   47.5154 H   0  0  0  0  0  0  0  0  0  0  0  0
   60.5561   34.0141   49.5641 H   0  0  0  0  0  0  0  0  0  0  0  0
   58.6782   32.3684   49.5614 H   0  0  0  0  0  0  0  0  0  0  0  0
   57.2854   32.0605   47.5126 H   0  0  0  0  0  0  0  0  0  0  0  0
  1  2  1  0
  2  3  1  0
  3  4  1  0
  4  5  1  0
  5  6  2  0
  6  7  1  0
  7  8  2  0
  8  9  1  0
  8 10  1  0
 10 11  2  0
  4 12  2  0
 12 13  1  0
 13 14  1  0
 14 15  1  0
 15 16  1  0
 16 17  1  0
 17 18  2  0
 17 19  1  0
 19 20  1  0
 20 21  1  0
 21 22  1  0
 22 23  2  0
 23 24  1  0
 24 25  2  0
 25 26  1  0
 26 27  2  0
 13  2  2  0
 27 22  1  0
 11  5  1  0
  1 28  1  0
  1 29  1  0
  1 30  1  0
  6 31  1  0
  7 32  1  0
  9 33  1  0
 10 34  1  0
 11 35  1  0
 14 36  1  0
 14 37  1  0
 16 38  1  0
 16 39  1  0
 20 40  1  0
 20 41  1  0
 21 42  1  0
 21 43  1  0
 23 44  1  0
 24 45  1  0
 25 46  1  0
 26 47  1  0
 27 48  1  0
M  CHG  1  19  -1
M  END
>  <UniqueID>  (41) 
40

>  <SMILES>  (41) 
Cc1oc(-c2ccc(O)cc2)nc1CSCC(=O)[N-]CCc1ccccc1

>  <Energy>  (41) 
67.92203316508537

>  <Genealogy>  (41) 
Cc1oc(-c2ccc(O)cc2)nc1CSCC(=O)[N-]CCc1ccccc1 (protonated)
Cc1oc(-c2ccc(O)cc2)nc1CSCC(=O)[N-]CCc1ccccc1 (3D coordinates assigned)
Cc1oc(-c2ccc(O)cc2)nc1CSCC(=O)[N-]CCc1ccccc1 (optimized conformer: 67.92203316508537 kcal/mol)

>  <smiles>  (41) 
Cc1oc(-c2ccc(O)cc2)nc1CSCC(=O)NCCc1ccccc1

>  <score_type>  (41) 
oracle

>  <origin>  (41) 
adg

>  <m_score__min__energy>  (41) 
-10.18

>  <m_primary>  (41) 
energy

$$$$
41:0
     RDKit          3D

 68 72  0  0  0  0  0  0  0  0999 V2000
   56.2610   21.4010   48.1590 C   0  0  0  0  0  0  0  0  0  0  0  0
   57.0980   22.1800   47.3070 O   0  0  0  0  0  0  0  0  0  0  0  0
   57.0260   22.1860   45.9040 C   0  0  0  0  0  0  0  0  0  0  0  0
   58.0130   21.5710   45.1060 C   0  0  0  0  0  0  0  0  0  0  0  0
   57.9220   21.6150   43.7130 C   0  0  0  0  0  0  0  0  0  0  0  0
   56.8520   22.2710   43.1000 C   0  0  0  0  0  0  0  0  0  0  0  0
   55.8660   22.8830   43.8780 C   0  0  0  0  0  0  0  0  0  0  0  0
   55.9380   22.8370   45.2800 C   0  0  0  0  0  0  0  0  0  0  0  0
   54.9010   23.5440   46.1080 C   0  0  0  0  0  0  0  0  0  0  0  0
   55.5510   24.5730   46.9040 N   0  0  0  0  0  0  0  0  0  0  0  0
   55.9890   25.8300   46.3830 C   0  0  0  0  0  0  0  0  0  0  0  0
   55.1440   26.6670   45.9710 O   0  0  0  0  0  0  0  0  0  0  0  0
   57.4310   26.1580   46.3690 C   0  0  0  0  0  0  0  0  0  0  0  0
   58.3780   25.1920   45.9810 C   0  0  0  0  0  0  0  0  0  0  0  0
   59.7410   25.4940   45.9980 C   0  0  0  0  0  0  0  0  0  0  0  0
   60.1760   26.7480   46.4270 C   0  0  0  0  0  0  0  0  0  0  0  0
   59.2460   27.7140   46.8430 C   0  0  0  0  0  0  0  0  0  0  0  0
   59.6720   28.9910   47.3360 N   0  0  0  0  0  0  0  0  0  0  0  0
   60.1120   29.2540   48.6750 C   0  0  0  0  0  0  0  0  0  0  0  0
   60.2420   28.2860   49.4720 O   0  0  0  0  0  0  0  0  0  0  0  0
   60.4970   30.6130   49.1130 C   0  0  0  0  0  0  0  0  0  0  0  0
   61.6200   31.3280   48.7060 C   0  0  0  0  0  0  0  0  0  0  0  0
   61.6640   32.5410   49.3120 N   0  0  0  0  0  0  0  0  0  0  0  0
   62.6200   33.6260   49.0500 C   0  0  0  0  0  0  0  0  0  0  0  0
   62.8770   33.7980   47.5830 C   0  0  0  0  0  0  0  0  0  0  0  0
   64.0470   33.6710   47.1260 O   0  0  0  0  0  0  0  0  0  0  0  0
   61.7950   34.1300   46.7120 N   0  0  0  0  0  0  0  0  0  0  0  0
   60.4910   34.5480   47.2040 C   0  0  0  0  0  0  0  0  0  0  0  0
   59.4190   33.8610   46.4080 C   0  0  0  0  0  0  0  0  0  0  0  0
   58.9310   32.6090   46.8170 C   0  0  0  0  0  0  0  0  0  0  0  0
   57.9090   31.9820   46.0990 C   0  0  0  0  0  0  0  0  0  0  0  0
   57.3590   32.6020   44.9760 C   0  0  0  0  0  0  0  0  0  0  0  0
   57.8290   33.8540   44.5680 C   0  0  0  0  0  0  0  0  0  0  0  0
   58.8510   34.4870   45.2840 C   0  0  0  0  0  0  0  0  0  0  0  0
   59.2800   35.7120   44.8840 F   0  0  0  0  0  0  0  0  0  0  0  0
   60.5570   32.6080   50.0850 C   0  0  0  0  0  0  0  0  0  0  0  0
   60.1120   33.6860   50.8550 C   0  0  0  0  0  0  0  0  0  0  0  0
   58.8990   33.5450   51.5510 C   0  0  0  0  0  0  0  0  0  0  0  0
   58.1560   32.3490   51.4580 C   0  0  0  0  0  0  0  0  0  0  0  0
   58.6200   31.2820   50.6720 C   0  0  0  0  0  0  0  0  0  0  0  0
   59.8300   31.4440   49.9960 C   0  0  0  0  0  0  0  0  0  0  0  0
   57.8780   27.4280   46.7770 C   0  0  0  0  0  0  0  0  0  0  0  0
   56.4994   21.6229   49.2097 H   0  0  0  0  0  0  0  0  0  0  0  0
   55.2071   21.6471   47.9623 H   0  0  0  0  0  0  0  0  0  0  0  0
   56.4309   20.3321   47.9623 H   0  0  0  0  0  0  0  0  0  0  0  0
   58.8587   21.0541   45.5831 H   0  0  0  0  0  0  0  0  0  0  0  0
   58.6949   21.1319   43.0971 H   0  0  0  0  0  0  0  0  0  0  0  0
   56.7855   22.3058   42.0026 H   0  0  0  0  0  0  0  0  0  0  0  0
   55.0289   23.4036   43.3900 H   0  0  0  0  0  0  0  0  0  0  0  0
   54.1537   24.0066   45.4466 H   0  0  0  0  0  0  0  0  0  0  0  0
   54.3999   22.8230   46.7706 H   0  0  0  0  0  0  0  0  0  0  0  0
   58.0426   24.1939   45.6627 H   0  0  0  0  0  0  0  0  0  0  0  0
   60.4738   24.7411   45.6722 H   0  0  0  0  0  0  0  0  0  0  0  0
   61.2510   26.9807   46.4394 H   0  0  0  0  0  0  0  0  0  0  0  0
   62.3697   30.9595   47.9904 H   0  0  0  0  0  0  0  0  0  0  0  0
   62.2124   34.5650   49.4528 H   0  0  0  0  0  0  0  0  0  0  0  0
   63.5723   33.3682   49.5365 H   0  0  0  0  0  0  0  0  0  0  0  0
   60.3934   34.2749   48.2651 H   0  0  0  0  0  0  0  0  0  0  0  0
   60.3884   35.6381   47.0982 H   0  0  0  0  0  0  0  0  0  0  0  0
   59.3551   32.1199   47.7063 H   0  0  0  0  0  0  0  0  0  0  0  0
   57.5372   30.9976   46.4196 H   0  0  0  0  0  0  0  0  0  0  0  0
   56.5557   32.1056   44.4119 H   0  0  0  0  0  0  0  0  0  0  0  0
   57.3948   34.3420   43.6830 H   0  0  0  0  0  0  0  0  0  0  0  0
   60.6940   34.6175   50.9146 H   0  0  0  0  0  0  0  0  0  0  0  0
   58.5264   34.3726   52.1724 H   0  0  0  0  0  0  0  0  0  0  0  0
   57.2066   32.2519   52.0051 H   0  0  0  0  0  0  0  0  0  0  0  0
   58.0469   30.3465   50.5915 H   0  0  0  0  0  0  0  0  0  0  0  0
   57.1455   28.2031   47.0465 H   0  0  0  0  0  0  0  0  0  0  0  0
  1  2  1  0
  2  3  1  0
  3  4  2  0
  4  5  1  0
  5  6  2  0
  6  7  1  0
  7  8  2  0
  8  9  1  0
  9 10  1  0
 10 11  1  0
 11 12  2  0
 11 13  1  0
 13 14  2  0
 14 15  1  0
 15 16  2  0
 16 17  1  0
 17 18  1  0
 18 19  1  0
 19 20  2  0
 19 21  1  0
 21 22  2  0
 22 23  1  0
 23 24  1  0
 24 25  1  0
 25 26  2  0
 25 27  1  0
 27 28  1  0
 28 29  1  0
 29 30  2  0
 30 31  1  0
 31 32  2  0
 32 33  1  0
 33 34  2  0
 34 35  1  0
 23 36  1  0
 36 37  2  0
 37 38  1  0
 38 39  2  0
 39 40  1  0
 40 41  2  0
 17 42  2  0
  8  3  1  0
 42 13  1  0
 41 21  1  0
 34 29  1  0
 41 36  1  0
  1 43  1  0
  1 44  1  0
  1 45  1  0
  4 46  1  0
  5 47  1  0
  6 48  1  0
  7 49  1  0
  9 50  1  0
  9 51  1  0
 14 52  1  0
 15 53  1  0
 16 54  1  0
 22 55  1  0
 24 56  1  0
 24 57  1  0
 28 58  1  0
 28 59  1  0
 30 60  1  0
 31 61  1  0
 32 62  1  0
 33 63  1  0
 37 64  1  0
 38 65  1  0
 39 66  1  0
 40 67  1  0
 42 68  1  0
M  CHG  3  10  -1  18  -1  27  -1
M  END
>  <UniqueID>  (42) 
41

>  <SMILES>  (42) 
COc1ccccc1C[N-]C(=O)c1cccc([N-]C(=O)c2cn(CC(=O)[N-]Cc3ccccc3F)c3ccccc23)c1

>  <Energy>  (42) 
109.5135965685111

>  <Genealogy>  (42) 
COc1ccccc1C[N-]C(=O)c1cccc([N-]C(=O)c2cn(CC(=O)[N-]Cc3ccccc3F)c3ccccc23)c1 (protonated)
COc1ccccc1C[N-]C(=O)c1cccc([N-]C(=O)c2cn(CC(=O)[N-]Cc3ccccc3F)c3ccccc23)c1 (3D coordinates assigned)
COc1ccccc1C[N-]C(=O)c1cccc([N-]C(=O)c2cn(CC(=O)[N-]Cc3ccccc3F)c3ccccc23)c1 (optimized conformer: 109.5135965685111 kcal/mol)

>  <smiles>  (42) 
COc1ccccc1CNC(=O)c1cccc(NC(=O)c2cn(CC(=O)NCc3ccccc3F)c3ccccc23)c1

>  <score_type>  (42) 
oracle

>  <origin>  (42) 
adg

>  <m_score__min__energy>  (42) 
-14.32

>  <m_primary>  (42) 
energy

$$$$
42:0
     RDKit          3D

 59 62  0  0  0  0  0  0  0  0999 V2000
   60.5310   32.1780   46.7330 C   0  0  0  0  0  0  0  0  0  0  0  0
   61.1220   33.2350   47.5570 N   0  0  0  0  0  0  0  0  0  0  0  0
   60.6990   34.5600   47.0790 C   0  0  0  0  0  0  0  0  0  0  0  0
   62.8680   33.1290   47.5050 S   0  0  0  0  0  0  0  0  0  0  0  0
   63.2810   31.7360   47.1110 O   0  0  0  0  0  0  0  0  0  0  0  0
   63.4070   34.0950   46.4870 O   0  0  0  0  0  0  0  0  0  0  0  0
   63.5320   33.5260   49.0760 N   0  0  0  0  0  0  0  0  0  0  0  0
   62.6800   34.4950   49.7980 C   0  0  0  0  0  0  0  0  0  0  0  0
   61.3400   33.8740   50.2390 C   0  0  0  0  0  0  0  0  0  0  0  0
   61.5270   32.4790   50.6550 N   0  0  0  0  0  0  0  0  0  0  0  0
   60.4440   31.5310   50.5260 C   0  0  0  0  0  0  0  0  0  0  0  0
   59.4080   31.5030   51.4700 C   0  0  0  0  0  0  0  0  0  0  0  0
   58.3350   30.6150   51.3060 C   0  0  0  0  0  0  0  0  0  0  0  0
   57.2170   30.5870   52.2630 C   0  0  0  0  0  0  0  0  0  0  0  0
   56.0030   30.0640   51.9900 N   0  0  0  0  0  0  0  0  0  0  0  0
   55.3790   30.2570   53.1640 C   0  0  0  0  0  0  0  0  0  0  0  0
   54.1850   29.9210   53.3800 O   0  0  0  0  0  0  0  0  0  0  0  0
   56.1450   30.8370   54.0500 O   0  0  0  0  0  0  0  0  0  0  0  0
   57.3090   31.0590   53.5250 N   0  0  0  0  0  0  0  0  0  0  0  0
   58.3140   29.7820   50.2320 N   0  0  0  0  0  0  0  0  0  0  0  0
   59.2990   29.7740   49.2910 C   0  0  0  0  0  0  0  0  0  0  0  0
   59.2060   28.8600   48.1240 C   0  0  0  0  0  0  0  0  0  0  0  0
   59.6400   27.5280   48.2440 C   0  0  0  0  0  0  0  0  0  0  0  0
   59.5970   26.6670   47.1510 C   0  0  0  0  0  0  0  0  0  0  0  0
   59.1060   27.1150   45.9250 C   0  0  0  0  0  0  0  0  0  0  0  0
   58.6360   28.4270   45.7880 C   0  0  0  0  0  0  0  0  0  0  0  0
   58.1840   28.9080   44.5170 N   0  0  0  0  0  0  0  0  0  0  0  0
   56.6590   29.6850   44.2590 S   0  0  0  0  0  0  0  0  0  0  0  0
   56.2570   29.8360   42.5280 C   0  0  0  0  0  0  0  0  0  0  0  0
   56.7360   31.0680   44.8420 O   0  0  0  0  0  0  0  0  0  0  0  0
   55.5860   28.9110   44.9680 O   0  0  0  0  0  0  0  0  0  0  0  0
   58.7010   29.3120   46.8840 C   0  0  0  0  0  0  0  0  0  0  0  0
   58.2750   30.6370   46.7450 O   0  0  0  0  0  0  0  0  0  0  0  0
   60.3770   30.6630   49.4250 C   0  0  0  0  0  0  0  0  0  0  0  0
   62.8770   32.0570   51.0350 C   0  0  0  0  0  0  0  0  0  0  0  0
   63.8450   32.3050   49.8620 C   0  0  0  0  0  0  0  0  0  0  0  0
   60.0983   31.4042   47.3842 H   0  0  0  0  0  0  0  0  0  0  0  0
   59.7415   32.6063   46.0980 H   0  0  0  0  0  0  0  0  0  0  0  0
   61.3093   31.7297   46.0980 H   0  0  0  0  0  0  0  0  0  0  0  0
   60.4910   35.2114   47.9406 H   0  0  0  0  0  0  0  0  0  0  0  0
   61.5004   35.0029   46.4694 H   0  0  0  0  0  0  0  0  0  0  0  0
   59.7892   34.4566   46.4694 H   0  0  0  0  0  0  0  0  0  0  0  0
   63.2193   34.8452   50.6905 H   0  0  0  0  0  0  0  0  0  0  0  0
   62.4584   35.3268   49.1132 H   0  0  0  0  0  0  0  0  0  0  0  0
   60.9348   34.4514   51.0831 H   0  0  0  0  0  0  0  0  0  0  0  0
   60.6418   33.8992   49.3894 H   0  0  0  0  0  0  0  0  0  0  0  0
   59.4367   32.1771   52.3388 H   0  0  0  0  0  0  0  0  0  0  0  0
   60.0171   27.1628   49.2107 H   0  0  0  0  0  0  0  0  0  0  0  0
   59.9512   25.6307   47.2546 H   0  0  0  0  0  0  0  0  0  0  0  0
   59.0878   26.4343   45.0611 H   0  0  0  0  0  0  0  0  0  0  0  0
   55.2321   30.2210   42.4218 H   0  0  0  0  0  0  0  0  0  0  0  0
   56.9613   30.5309   42.0473 H   0  0  0  0  0  0  0  0  0  0  0  0
   56.3297   28.8493   42.0473 H   0  0  0  0  0  0  0  0  0  0  0  0
   58.0120   31.0350   45.8540 H   0  0  0  0  0  0  0  0  0  0  0  0
   61.1718   30.6795   48.6647 H   0  0  0  0  0  0  0  0  0  0  0  0
   63.2080   32.6339   51.9111 H   0  0  0  0  0  0  0  0  0  0  0  0
   62.8689   30.9851   51.2819 H   0  0  0  0  0  0  0  0  0  0  0  0
   64.8629   32.4044   50.2671 H   0  0  0  0  0  0  0  0  0  0  0  0
   63.7466   31.4491   49.1781 H   0  0  0  0  0  0  0  0  0  0  0  0
  1  2  1  0
  2  3  1  0
  2  4  1  0
  4  5  2  0
  4  6  2  0
  4  7  1  0
  7  8  1  0
  8  9  1  0
  9 10  1  0
 10 11  1  0
 11 12  2  0
 12 13  1  0
 13 14  1  0
 14 15  2  0
 15 16  1  0
 16 17  2  0
 16 18  1  0
 18 19  1  0
 13 20  2  0
 20 21  1  0
 21 22  1  0
 22 23  2  0
 23 24  1  0
 24 25  2  0
 25 26  1  0
 26 27  1  0
 27 28  1  0
 28 29  1  0
 28 30  2  0
 28 31  2  0
 26 32  2  0
 32 33  1  0
 21 34  2  0
 10 35  1  0
 35 36  1  0
 36  7  1  0
 34 11  1  0
 19 14  1  0
 32 22  1  0
  1 37  1  0
  1 38  1  0
  1 39  1  0
  3 40  1  0
  3 41  1  0
  3 42  1  0
  8 43  1  0
  8 44  1  0
  9 45  1  0
  9 46  1  0
 12 47  1  0
 23 48  1  0
 24 49  1  0
 25 50  1  0
 29 51  1  0
 29 52  1  0
 29 53  1  0
 33 54  1  0
 34 55  1  0
 35 56  1  0
 35 57  1  0
 36 58  1  0
 36 59  1  0
M  CHG  2  19  -1  27  -1
M  END
>  <UniqueID>  (43) 
42

>  <SMILES>  (43) 
CN(C)S(=O)(=O)N1CCN(c2cc(-c3nc(=O)o[n-]3)nc(-c3cccc([N-]S(C)(=O)=O)c3O)c2)CC1

>  <Energy>  (43) 
113.16954274734003

>  <Genealogy>  (43) 
CN(C)S(=O)(=O)N1CCN(c2cc(-c3nc(=O)o[n-]3)nc(-c3cccc([N-]S(C)(=O)=O)c3O)c2)CC1 (protonated)
CN(C)S(=O)(=O)N1CCN(c2cc(-c3nc(=O)o[n-]3)nc(-c3cccc([N-]S(C)(=O)=O)c3O)c2)CC1 (3D coordinates assigned)
CN(C)S(=O)(=O)N1CCN(c2cc(-c3nc(=O)o[n-]3)nc(-c3cccc([N-]S(C)(=O)=O)c3O)c2)CC1 (nonaromatic ring conformer: 113.16954274734003 kcal/mol)

>  <smiles>  (43) 
CN(C)S(=O)(=O)N1CCN(c2cc(-c3nc(=O)o[nH]3)nc(-c3cccc(NS(C)(=O)=O)c3O)c2)CC1

>  <score_type>  (43) 
oracle

>  <origin>  (43) 
adg

>  <m_score__min__energy>  (43) 
-12.42

>  <m_primary>  (43) 
energy

$$$$
43:0
     RDKit          3D

 36 38  0  0  0  0  0  0  0  0999 V2000
   61.2600   31.4730   48.2240 C   0  0  0  0  0  0  0  0  0  0  0  0
   60.0640   30.6970   49.3550 S   0  0  0  0  0  0  0  0  0  0  0  0
   59.5560   29.4710   48.1550 C   0  0  0  0  0  0  0  0  0  0  0  0
   59.4830   29.8060   46.8280 N   0  0  0  0  0  0  0  0  0  0  0  0
   59.1030   28.8950   45.8860 C   0  0  0  0  0  0  0  0  0  0  0  0
   59.0140   29.3560   44.1540 S   0  0  0  0  0  0  0  0  0  0  0  0
   57.2830   28.8150   43.9380 C   0  0  0  0  0  0  0  0  0  0  0  0
   56.3410   29.7110   44.6890 C   0  0  0  0  0  0  0  0  0  0  0  0
   55.1470   29.3460   44.8520 O   0  0  0  0  0  0  0  0  0  0  0  0
   56.7500   30.9860   45.1990 N   0  0  0  0  0  0  0  0  0  0  0  0
   57.3290   32.0520   44.3920 C   0  0  0  0  0  0  0  0  0  0  0  0
   58.0280   33.0300   45.2900 C   0  0  0  0  0  0  0  0  0  0  0  0
   57.9610   32.8830   46.6850 C   0  0  0  0  0  0  0  0  0  0  0  0
   58.6410   33.7740   47.5200 C   0  0  0  0  0  0  0  0  0  0  0  0
   59.4010   34.8100   46.9700 C   0  0  0  0  0  0  0  0  0  0  0  0
   59.4850   34.9540   45.5810 C   0  0  0  0  0  0  0  0  0  0  0  0
   58.8060   34.0640   44.7430 C   0  0  0  0  0  0  0  0  0  0  0  0
   58.7850   27.6140   46.3200 C   0  0  0  0  0  0  0  0  0  0  0  0
   58.3890   26.5470   45.6120 N   0  0  0  0  0  0  0  0  0  0  0  0
   58.2420   25.5990   46.5780 C   0  0  0  0  0  0  0  0  0  0  0  0
   58.5270   26.0260   47.8390 N   0  0  0  0  0  0  0  0  0  0  0  0
   58.8650   27.3040   47.6310 C   0  0  0  0  0  0  0  0  0  0  0  0
   59.2460   28.2040   48.5680 N   0  0  0  0  0  0  0  0  0  0  0  0
   62.0417   31.9802   48.8086 H   0  0  0  0  0  0  0  0  0  0  0  0
   61.7195   30.7005   47.5899 H   0  0  0  0  0  0  0  0  0  0  0  0
   60.7418   32.2074   47.5899 H   0  0  0  0  0  0  0  0  0  0  0  0
   57.0287   28.8418   42.8681 H   0  0  0  0  0  0  0  0  0  0  0  0
   57.1837   27.7930   44.3325 H   0  0  0  0  0  0  0  0  0  0  0  0
   58.0517   31.6240   43.6817 H   0  0  0  0  0  0  0  0  0  0  0  0
   56.5322   32.5671   43.8355 H   0  0  0  0  0  0  0  0  0  0  0  0
   57.3713   32.0637   47.1221 H   0  0  0  0  0  0  0  0  0  0  0  0
   58.5779   33.6596   48.6122 H   0  0  0  0  0  0  0  0  0  0  0  0
   59.9329   35.5119   47.6291 H   0  0  0  0  0  0  0  0  0  0  0  0
   60.0854   35.7676   45.1479 H   0  0  0  0  0  0  0  0  0  0  0  0
   58.8813   34.1739   43.6511 H   0  0  0  0  0  0  0  0  0  0  0  0
   57.9190   24.5709   46.3575 H   0  0  0  0  0  0  0  0  0  0  0  0
  1  2  1  0
  2  3  1  0
  3  4  2  0
  4  5  1  0
  5  6  1  0
  6  7  1  0
  7  8  1  0
  8  9  2  0
  8 10  1  0
 10 11  1  0
 11 12  1  0
 12 13  2  0
 13 14  1  0
 14 15  2  0
 15 16  1  0
 16 17  2  0
  5 18  2  0
 18 19  1  0
 19 20  1  0
 20 21  2  0
 21 22  1  0
 22 23  2  0
 23  3  1  0
 17 12  1  0
 22 18  1  0
  1 24  1  0
  1 25  1  0
  1 26  1  0
  7 27  1  0
  7 28  1  0
 11 29  1  0
 11 30  1  0
 13 31  1  0
 14 32  1  0
 15 33  1  0
 16 34  1  0
 17 35  1  0
 20 36  1  0
M  CHG  2  10  -1  19  -1
M  END
>  <UniqueID>  (44) 
43

>  <SMILES>  (44) 
CSc1nc(SCC(=O)[N-]Cc2ccccc2)c2[n-]cnc2n1

>  <Energy>  (44) 
64.93274141462801

>  <Genealogy>  (44) 
CSc1nc(SCC(=O)[N-]Cc2ccccc2)c2[n-]cnc2n1 (protonated)
CSc1nc(SCC(=O)[N-]Cc2ccccc2)c2[n-]cnc2n1 (3D coordinates assigned)
CSc1nc(SCC(=O)[N-]Cc2ccccc2)c2[n-]cnc2n1 (optimized conformer: 64.93274141462801 kcal/mol)

>  <smiles>  (44) 
CSc1nc(SCC(=O)NCc2ccccc2)c2[nH]cnc2n1

>  <score_type>  (44) 
oracle

>  <origin>  (44) 
adg

>  <m_score__min__energy>  (44) 
-11.33

>  <m_primary>  (44) 
energy

$$$$
44:0
     RDKit          3D

 46 48  0  0  0  0  0  0  0  0999 V2000
   52.7450   24.0980   44.9700 C   0  0  0  0  0  0  0  0  0  0  0  0
   54.1860   24.5280   45.2710 C   0  0  1  0  0  0  0  0  0  0  0  0
   54.2090   25.8880   45.6190 O   0  0  0  0  0  0  0  0  0  0  0  0
   54.7820   23.7130   46.4220 C   0  0  0  0  0  0  0  0  0  0  0  0
   55.8440   24.4670   47.0780 N   0  0  0  0  0  0  0  0  0  0  0  0
   57.1570   23.9400   47.2860 C   0  0  0  0  0  0  0  0  0  0  0  0
   57.3450   22.9960   48.1000 O   0  0  0  0  0  0  0  0  0  0  0  0
   58.3190   24.5520   46.5720 C   0  0  0  0  0  0  0  0  0  0  0  0
   57.9480   25.9110   46.0640 C   0  0  0  0  0  0  0  0  0  0  0  0
   57.1520   26.1940   44.9600 C   0  0  0  0  0  0  0  0  0  0  0  0
   57.0840   27.5290   44.7570 N   0  0  0  0  0  0  0  0  0  0  0  0
   57.8340   28.0960   45.7210 C   0  0  0  0  0  0  0  0  0  0  0  0
   58.0820   29.4600   45.9270 C   0  0  0  0  0  0  0  0  0  0  0  0
   57.3660   30.6900   44.8870 S   0  0  0  0  0  0  0  0  0  0  0  0
   56.0630   30.1700   44.3460 O   0  0  0  0  0  0  0  0  0  0  0  0
   58.3130   30.9920   43.7600 O   0  0  0  0  0  0  0  0  0  0  0  0
   57.0750   32.1390   45.7930 N   0  0  0  0  0  0  0  0  0  0  0  0
   58.0030   33.2220   45.9360 C   0  0  0  0  0  0  0  0  0  0  0  0
   58.3550   34.0560   44.8570 C   0  0  0  0  0  0  0  0  0  0  0  0
   59.2650   35.1010   45.0430 C   0  0  0  0  0  0  0  0  0  0  0  0
   59.8330   35.3210   46.3010 C   0  0  0  0  0  0  0  0  0  0  0  0
   59.4970   34.4910   47.3730 C   0  0  0  0  0  0  0  0  0  0  0  0
   58.5850   33.4460   47.1910 C   0  0  0  0  0  0  0  0  0  0  0  0
   58.9210   29.8150   47.0040 C   0  0  0  0  0  0  0  0  0  0  0  0
   59.4870   28.8210   47.8320 C   0  0  0  0  0  0  0  0  0  0  0  0
   59.2220   27.4610   47.5990 C   0  0  0  0  0  0  0  0  0  0  0  0
   58.3850   27.1350   46.5340 C   0  0  0  0  0  0  0  0  0  0  0  0
   52.2054   23.9370   45.9150 H   0  0  0  0  0  0  0  0  0  0  0  0
   52.2412   24.8849   44.3896 H   0  0  0  0  0  0  0  0  0  0  0  0
   52.7548   23.1636   44.3896 H   0  0  0  0  0  0  0  0  0  0  0  0
   54.7871   24.3524   44.3666 H   0  0  0  0  0  0  0  0  0  0  0  0
   54.7650   25.9650   46.4400 H   0  0  0  0  0  0  0  0  0  0  0  0
   53.9923   23.4866   47.1535 H   0  0  0  0  0  0  0  0  0  0  0  0
   55.2016   22.7790   46.0199 H   0  0  0  0  0  0  0  0  0  0  0  0
   59.1675   24.6414   47.2663 H   0  0  0  0  0  0  0  0  0  0  0  0
   58.5992   23.9122   45.7222 H   0  0  0  0  0  0  0  0  0  0  0  0
   56.6485   25.4384   44.3391 H   0  0  0  0  0  0  0  0  0  0  0  0
   56.5520   28.0090   43.9980 H   0  0  0  0  0  0  0  0  0  0  0  0
   57.9125   33.8846   43.8646 H   0  0  0  0  0  0  0  0  0  0  0  0
   59.5345   35.7513   44.1977 H   0  0  0  0  0  0  0  0  0  0  0  0
   60.5443   36.1474   46.4467 H   0  0  0  0  0  0  0  0  0  0  0  0
   59.9499   34.6592   48.3612 H   0  0  0  0  0  0  0  0  0  0  0  0
   58.3229   32.7958   48.0386 H   0  0  0  0  0  0  0  0  0  0  0  0
   59.1363   30.8757   47.2006 H   0  0  0  0  0  0  0  0  0  0  0  0
   60.1410   29.1139   48.6666 H   0  0  0  0  0  0  0  0  0  0  0  0
   59.6609   26.6794   48.2365 H   0  0  0  0  0  0  0  0  0  0  0  0
  1  2  1  0
  2  3  1  0
  2  4  1  0
  4  5  1  0
  5  6  1  0
  6  7  2  0
  6  8  1  0
  8  9  1  0
  9 10  2  0
 10 11  1  0
 11 12  1  0
 12 13  2  0
 13 14  1  0
 14 15  2  0
 14 16  2  0
 14 17  1  0
 17 18  1  0
 18 19  2  0
 19 20  1  0
 20 21  2  0
 21 22  1  0
 22 23  2  0
 13 24  1  0
 24 25  2  0
 25 26  1  0
 26 27  2  0
 27  9  1  0
 27 12  1  0
 23 18  1  0
  1 28  1  0
  1 29  1  0
  1 30  1  0
  2 31  1  6
  3 32  1  0
  4 33  1  0
  4 34  1  0
  8 35  1  0
  8 36  1  0
 10 37  1  0
 11 38  1  0
 19 39  1  0
 20 40  1  0
 21 41  1  0
 22 42  1  0
 23 43  1  0
 24 44  1  0
 25 45  1  0
 26 46  1  0
M  CHG  2   5  -1  17  -1
M  END
>  <UniqueID>  (45) 
44

>  <SMILES>  (45) 
C[C@@H](O)C[N-]C(=O)Cc1c[nH]c2c(S(=O)(=O)[N-]c3ccccc3)cccc12

>  <Energy>  (45) 
75.96510131677121

>  <Genealogy>  (45) 
CC(O)C[N-]C(=O)Cc1c[nH]c2c(S(=O)(=O)[N-]c3ccccc3)cccc12 (protonated)
C[C@@H](O)C[N-]C(=O)Cc1c[nH]c2c(S(=O)(=O)[N-]c3ccccc3)cccc12 (chirality)
C[C@@H](O)C[N-]C(=O)Cc1c[nH]c2c(S(=O)(=O)[N-]c3ccccc3)cccc12 (3D coordinates assigned)
C[C@@H](O)C[N-]C(=O)Cc1c[nH]c2c(S(=O)(=O)[N-]c3ccccc3)cccc12 (optimized conformer: 75.96510131677121 kcal/mol)

>  <smiles>  (45) 
CC(O)CNC(=O)Cc1c[nH]c2c(S(=O)(=O)Nc3ccccc3)cccc12

>  <score_type>  (45) 
oracle

>  <origin>  (45) 
adg

>  <m_score__min__energy>  (45) 
-12.130000000000001

>  <m_primary>  (45) 
energy

$$$$
45:0
     RDKit          3D

 29 30  0  0  0  0  0  0  0  0999 V2000
   59.2180   27.9310   45.2350 O   0  0  0  0  0  0  0  0  0  0  0  0
   58.0570   27.8450   45.7220 C   0  0  0  0  0  0  0  0  0  0  0  0
   57.3110   29.0420   46.0100 N   0  0  0  0  0  0  0  0  0  0  0  0
   57.8200   30.3650   45.7660 C   0  0  0  0  0  0  0  0  0  0  0  0
   58.9390   30.8330   46.4770 C   0  0  0  0  0  0  0  0  0  0  0  0
   59.4140   32.1310   46.2800 C   0  0  0  0  0  0  0  0  0  0  0  0
   58.7680   32.9840   45.3820 C   0  0  0  0  0  0  0  0  0  0  0  0
   59.3600   34.6180   45.1470 Cl  0  0  0  0  0  0  0  0  0  0  0  0
   57.6460   32.5380   44.6790 C   0  0  0  0  0  0  0  0  0  0  0  0
   57.1660   31.2280   44.8560 C   0  0  0  0  0  0  0  0  0  0  0  0
   55.9450   30.7840   44.0890 C   0  0  0  0  0  0  0  0  0  0  0  0
   55.1770   29.9080   44.8680 O   0  0  0  0  0  0  0  0  0  0  0  0
   57.4840   26.5030   45.9810 C   0  0  0  0  0  0  0  0  0  0  0  0
   58.3000   25.3660   46.1150 C   0  0  0  0  0  0  0  0  0  0  0  0
   57.7280   24.1170   46.3660 C   0  0  0  0  0  0  0  0  0  0  0  0
   56.3410   24.0110   46.4890 C   0  0  0  0  0  0  0  0  0  0  0  0
   55.8100   22.8930   46.7150 O   0  0  0  0  0  0  0  0  0  0  0  0
   55.5630   25.1170   46.3700 N   0  0  0  0  0  0  0  0  0  0  0  0
   56.0950   26.3450   46.1270 C   0  0  0  0  0  0  0  0  0  0  0  0
   56.3450   28.9620   46.3940 H   0  0  0  0  0  0  0  0  0  0  0  0
   59.4448   30.1706   47.1949 H   0  0  0  0  0  0  0  0  0  0  0  0
   60.2979   32.4823   46.8325 H   0  0  0  0  0  0  0  0  0  0  0  0
   57.1339   33.2170   43.9814 H   0  0  0  0  0  0  0  0  0  0  0  0
   55.3395   31.6645   43.8283 H   0  0  0  0  0  0  0  0  0  0  0  0
   56.2650   30.2643   43.1738 H   0  0  0  0  0  0  0  0  0  0  0  0
   54.7720   30.4530   45.5910 H   0  0  0  0  0  0  0  0  0  0  0  0
   59.3920   25.4605   46.0219 H   0  0  0  0  0  0  0  0  0  0  0  0
   58.3640   23.2251   46.4659 H   0  0  0  0  0  0  0  0  0  0  0  0
   55.4338   27.2202   46.0442 H   0  0  0  0  0  0  0  0  0  0  0  0
  1  2  2  0
  2  3  1  0
  3  4  1  0
  4  5  2  0
  5  6  1  0
  6  7  2  0
  7  8  1  0
  7  9  1  0
  9 10  2  0
 10 11  1  0
 11 12  1  0
  2 13  1  0
 13 14  1  0
 14 15  2  0
 15 16  1  0
 16 17  2  0
 16 18  1  0
 18 19  1  0
 10  4  1  0
 19 13  2  0
  3 20  1  0
  5 21  1  0
  6 22  1  0
  9 23  1  0
 11 24  1  0
 11 25  1  0
 12 26  1  0
 14 27  1  0
 15 28  1  0
 19 29  1  0
M  CHG  1  18  -1
M  END
>  <UniqueID>  (46) 
45

>  <SMILES>  (46) 
O=C(Nc1ccc(Cl)cc1CO)c1ccc(=O)[n-]c1

>  <Energy>  (46) 
37.99507041127558

>  <Genealogy>  (46) 
O=C(Nc1ccc(Cl)cc1CO)c1ccc(=O)[n-]c1 (protonated)
O=C(Nc1ccc(Cl)cc1CO)c1ccc(=O)[n-]c1 (3D coordinates assigned)
O=C(Nc1ccc(Cl)cc1CO)c1ccc(=O)[n-]c1 (optimized conformer: 37.99507041127558 kcal/mol)

>  <smiles>  (46) 
O=C(Nc1ccc(Cl)cc1CO)c1ccc(=O)[nH]c1

>  <score_type>  (46) 
oracle

>  <origin>  (46) 
adg

>  <m_score__min__energy>  (46) 
-8.6799999999999997

>  <m_primary>  (46) 
energy

$$$$
46:0
     RDKit          3D

 31 32  0  0  0  0  0  0  0  0999 V2000
   55.3050   24.7630   46.5510 O   0  0  0  0  0  0  0  0  0  0  0  0
   56.1150   25.7270   46.5060 C   0  0  0  0  0  0  0  0  0  0  0  0
   57.3220   25.7030   47.3950 C   0  0  0  0  0  0  0  0  0  0  0  0
   57.9580   24.3940   47.3220 N   0  0  0  0  0  0  0  0  0  0  0  0
   58.4600   23.8390   46.1030 C   0  0  0  0  0  0  0  0  0  0  0  0
   59.5190   24.3040   45.6000 O   0  0  0  0  0  0  0  0  0  0  0  0
   57.7310   22.7280   45.4350 C   0  0  0  0  0  0  0  0  0  0  0  0
   57.5660   22.7440   44.0360 C   0  0  0  0  0  0  0  0  0  0  0  0
   56.8890   21.7100   43.3850 C   0  0  0  0  0  0  0  0  0  0  0  0
   56.3640   20.6460   44.1170 C   0  0  0  0  0  0  0  0  0  0  0  0
   56.5150   20.6130   45.5040 C   0  0  0  0  0  0  0  0  0  0  0  0
   57.1920   21.6430   46.1680 C   0  0  0  0  0  0  0  0  0  0  0  0
   57.3180   21.5730   47.5520 O   0  0  0  0  0  0  0  0  0  0  0  0
   55.8170   26.8410   45.6530 N   0  0  0  0  0  0  0  0  0  0  0  0
   56.7130   27.9010   45.2870 C   0  0  0  0  0  0  0  0  0  0  0  0
   58.1030   27.7010   45.2420 C   0  0  0  0  0  0  0  0  0  0  0  0
   58.9530   28.7410   44.8540 C   0  0  0  0  0  0  0  0  0  0  0  0
   58.4210   29.9810   44.4900 C   0  0  0  0  0  0  0  0  0  0  0  0
   57.0370   30.1780   44.5040 C   0  0  0  0  0  0  0  0  0  0  0  0
   56.1830   29.1400   44.8930 C   0  0  0  0  0  0  0  0  0  0  0  0
   54.8080   29.3450   44.8940 O   0  0  0  0  0  0  0  0  0  0  0  0
   58.0339   26.4745   47.0664 H   0  0  0  0  0  0  0  0  0  0  0  0
   57.0152   25.9023   48.4324 H   0  0  0  0  0  0  0  0  0  0  0  0
   57.9749   23.5801   43.4497 H   0  0  0  0  0  0  0  0  0  0  0  0
   56.7698   21.7354   42.2918 H   0  0  0  0  0  0  0  0  0  0  0  0
   55.8312   19.8332   43.6018 H   0  0  0  0  0  0  0  0  0  0  0  0
   56.0995   19.7724   46.0792 H   0  0  0  0  0  0  0  0  0  0  0  0
   58.5243   26.7218   45.5133 H   0  0  0  0  0  0  0  0  0  0  0  0
   60.0414   28.5831   44.8352 H   0  0  0  0  0  0  0  0  0  0  0  0
   59.0907   30.8014   44.1927 H   0  0  0  0  0  0  0  0  0  0  0  0
   56.6183   31.1513   44.2085 H   0  0  0  0  0  0  0  0  0  0  0  0
  1  2  2  0
  2  3  1  0
  3  4  1  0
  4  5  1  0
  5  6  2  0
  5  7  1  0
  7  8  2  0
  8  9  1  0
  9 10  2  0
 10 11  1  0
 11 12  2  0
 12 13  1  0
  2 14  1  0
 14 15  1  0
 15 16  2  0
 16 17  1  0
 17 18  2  0
 18 19  1  0
 19 20  2  0
 20 21  1  0
 12  7  1  0
 20 15  1  0
  3 22  1  0
  3 23  1  0
  8 24  1  0
  9 25  1  0
 10 26  1  0
 11 27  1  0
 16 28  1  0
 17 29  1  0
 18 30  1  0
 19 31  1  0
M  CHG  4   4  -1  13  -1  14  -1  21  -1
M  END
>  <UniqueID>  (47) 
46

>  <SMILES>  (47) 
O=C(C[N-]C(=O)c1ccccc1[O-])[N-]c1ccccc1[O-]

>  <Energy>  (47) 
36.06054217087154

>  <Genealogy>  (47) 
O=C(C[N-]C(=O)c1ccccc1[O-])[N-]c1ccccc1[O-] (protonated)
O=C(C[N-]C(=O)c1ccccc1[O-])[N-]c1ccccc1[O-] (3D coordinates assigned)
O=C(C[N-]C(=O)c1ccccc1[O-])[N-]c1ccccc1[O-] (optimized conformer: 36.06054217087154 kcal/mol)

>  <smiles>  (47) 
O=C(CNC(=O)c1ccccc1O)Nc1ccccc1O

>  <score_type>  (47) 
oracle

>  <origin>  (47) 
adg

>  <m_score__min__energy>  (47) 
-15.449999999999999

>  <m_primary>  (47) 
energy

$$$$
47:0
     RDKit          3D

 47 50  0  0  0  0  0  0  0  0999 V2000
   58.1500   32.0330   41.9760 C   0  0  0  0  0  0  0  0  0  0  0  0
   57.0180   31.6200   42.9110 C   0  0  0  0  0  0  0  0  0  0  0  0
   57.4490   30.5110   43.7860 N   0  0  0  0  0  0  0  0  0  0  0  0
   58.0390   30.7890   45.0000 C   0  0  0  0  0  0  0  0  0  0  0  0
   58.2270   31.9820   45.3630 O   0  0  0  0  0  0  0  0  0  0  0  0
   58.4260   29.7900   45.8340 N   0  0  0  0  0  0  0  0  0  0  0  0
   58.2380   28.4860   45.5190 C   0  0  0  0  0  0  0  0  0  0  0  0
   58.6360   27.4790   46.3510 N   0  0  0  0  0  0  0  0  0  0  0  0
   59.2480   27.7590   47.6260 C   0  0  0  0  0  0  0  0  0  0  0  0
   58.9060   28.9170   48.3400 C   0  0  0  0  0  0  0  0  0  0  0  0
   59.4960   29.1810   49.5790 C   0  0  0  0  0  0  0  0  0  0  0  0
   60.4300   28.2940   50.1270 C   0  0  0  0  0  0  0  0  0  0  0  0
   60.9930   28.6050   51.3740 O   0  0  0  0  0  0  0  0  0  0  0  0
   62.0340   27.8580   51.9940 C   0  0  0  0  0  0  0  0  0  0  0  0
   60.7690   27.1280   49.4150 C   0  0  0  0  0  0  0  0  0  0  0  0
   60.1790   26.8640   48.1750 C   0  0  0  0  0  0  0  0  0  0  0  0
   58.4500   26.1780   45.9750 C   0  0  0  0  0  0  0  0  0  0  0  0
   57.8440   25.8500   44.7450 C   0  0  0  0  0  0  0  0  0  0  0  0
   57.6440   24.4280   44.3670 C   0  0  0  0  0  0  0  0  0  0  0  0
   58.3980   23.4100   44.9800 C   0  0  0  0  0  0  0  0  0  0  0  0
   58.2060   22.0730   44.6160 C   0  0  0  0  0  0  0  0  0  0  0  0
   57.2630   21.7390   43.6420 C   0  0  0  0  0  0  0  0  0  0  0  0
   56.5100   22.7410   43.0270 C   0  0  0  0  0  0  0  0  0  0  0  0
   56.6990   24.0800   43.3850 C   0  0  0  0  0  0  0  0  0  0  0  0
   57.4320   26.8460   43.9060 N   0  0  0  0  0  0  0  0  0  0  0  0
   57.6060   28.1540   44.2380 C   0  0  0  0  0  0  0  0  0  0  0  0
   57.2180   29.2100   43.4060 C   0  0  0  0  0  0  0  0  0  0  0  0
   56.6520   28.9580   42.3050 O   0  0  0  0  0  0  0  0  0  0  0  0
   59.0194   32.3502   42.5706 H   0  0  0  0  0  0  0  0  0  0  0  0
   58.4313   31.1796   41.3415 H   0  0  0  0  0  0  0  0  0  0  0  0
   57.8157   32.8671   41.3415 H   0  0  0  0  0  0  0  0  0  0  0  0
   56.7296   32.4805   43.5326 H   0  0  0  0  0  0  0  0  0  0  0  0
   56.1619   31.2848   42.3071 H   0  0  0  0  0  0  0  0  0  0  0  0
   58.1702   29.6203   47.9228 H   0  0  0  0  0  0  0  0  0  0  0  0
   59.2240   30.0942   50.1286 H   0  0  0  0  0  0  0  0  0  0  0  0
   61.9351   27.9289   53.0872 H   0  0  0  0  0  0  0  0  0  0  0  0
   61.9620   26.8042   51.6869 H   0  0  0  0  0  0  0  0  0  0  0  0
   63.0093   28.2636   51.6869 H   0  0  0  0  0  0  0  0  0  0  0  0
   61.5005   26.4222   49.8354 H   0  0  0  0  0  0  0  0  0  0  0  0
   60.4464   25.9488   47.6264 H   0  0  0  0  0  0  0  0  0  0  0  0
   58.7798   25.3708   46.6456 H   0  0  0  0  0  0  0  0  0  0  0  0
   59.1416   23.6668   45.7488 H   0  0  0  0  0  0  0  0  0  0  0  0
   58.7996   21.2826   45.0985 H   0  0  0  0  0  0  0  0  0  0  0  0
   57.1134   20.6865   43.3592 H   0  0  0  0  0  0  0  0  0  0  0  0
   55.7671   22.4772   42.2599 H   0  0  0  0  0  0  0  0  0  0  0  0
   56.1049   24.8657   42.8955 H   0  0  0  0  0  0  0  0  0  0  0  0
   57.0030   26.5980   42.9860 H   0  0  0  0  0  0  0  0  0  0  0  0
  1  2  1  0
  2  3  1  0
  3  4  1  0
  4  5  2  0
  4  6  1  0
  6  7  2  0
  7  8  1  0
  8  9  1  0
  9 10  2  0
 10 11  1  0
 11 12  2  0
 12 13  1  0
 13 14  1  0
 12 15  1  0
 15 16  2  0
  8 17  1  0
 17 18  2  0
 18 19  1  0
 19 20  2  0
 20 21  1  0
 21 22  2  0
 22 23  1  0
 23 24  2  0
 18 25  1  0
 25 26  2  0
 26 27  1  0
 27 28  2  0
 27  3  1  0
 26  7  1  0
 16  9  1  0
 24 19  1  0
  1 29  1  0
  1 30  1  0
  1 31  1  0
  2 32  1  0
  2 33  1  0
 10 34  1  0
 11 35  1  0
 14 36  1  0
 14 37  1  0
 14 38  1  0
 15 39  1  0
 16 40  1  0
 17 41  1  0
 20 42  1  0
 21 43  1  0
 22 44  1  0
 23 45  1  0
 24 46  1  0
 25 47  1  0
M  CHG  1  25   1
M  END
>  <UniqueID>  (48) 
47

>  <SMILES>  (48) 
CCn1c(=O)nc2n(-c3ccc(OC)cc3)cc(-c3ccccc3)[nH+]c-2c1=O

>  <Energy>  (48) 
68.55198538376233

>  <Genealogy>  (48) 
CCn1c(=O)nc2n(-c3ccc(OC)cc3)cc(-c3ccccc3)[nH+]c-2c1=O (protonated)
CCn1c(=O)nc2n(-c3ccc(OC)cc3)cc(-c3ccccc3)[nH+]c-2c1=O (3D coordinates assigned)
CCn1c(=O)nc2n(-c3ccc(OC)cc3)cc(-c3ccccc3)[nH+]c-2c1=O (optimized conformer: 68.55198538376233 kcal/mol)

>  <smiles>  (48) 
CCn1c(=O)nc2n(-c3ccc(OC)cc3)cc(-c3ccccc3)nc-2c1=O

>  <score_type>  (48) 
oracle

>  <origin>  (48) 
adg

>  <m_score__min__energy>  (48) 
-5.5499999999999998

>  <m_primary>  (48) 
energy

$$$$
48:0
     RDKit          3D

 45 47  0  0  0  0  0  0  0  0999 V2000
   56.9910   21.1030   43.2450 C   0  0  0  0  0  0  0  0  0  0  0  0
   56.5560   20.6980   44.6510 C   0  0  0  0  0  0  0  0  0  0  0  0
   57.7140   20.7130   45.6530 C   0  0  0  0  0  0  0  0  0  0  0  0
   57.4230   21.5630   46.7610 O   0  0  0  0  0  0  0  0  0  0  0  0
   56.3160   22.4160   46.8090 C   0  0  0  0  0  0  0  0  0  0  0  0
   55.2820   22.2850   47.6660 N   0  0  0  0  0  0  0  0  0  0  0  0
   54.4250   23.2570   47.3870 N   0  0  0  0  0  0  0  0  0  0  0  0
   54.9580   23.9540   46.3670 C   0  0  0  0  0  0  0  0  0  0  0  0
   54.3940   24.9450   45.8310 O   0  0  0  0  0  0  0  0  0  0  0  0
   56.1510   23.4660   45.9840 N   0  0  0  0  0  0  0  0  0  0  0  0
   56.9960   23.8820   44.8670 C   0  0  0  0  0  0  0  0  0  0  0  0
   57.5370   25.2620   45.1210 C   0  0  0  0  0  0  0  0  0  0  0  0
   57.6030   25.7630   46.4300 C   0  0  0  0  0  0  0  0  0  0  0  0
   58.0460   27.0670   46.6640 C   0  0  0  0  0  0  0  0  0  0  0  0
   58.4110   27.8930   45.5900 C   0  0  0  0  0  0  0  0  0  0  0  0
   58.8630   29.2760   45.8320 C   0  0  0  0  0  0  0  0  0  0  0  0
   60.0820   29.4730   46.5040 C   0  0  0  0  0  0  0  0  0  0  0  0
   60.5400   30.7620   46.7770 C   0  0  0  0  0  0  0  0  0  0  0  0
   59.7900   31.8690   46.3790 C   0  0  0  0  0  0  0  0  0  0  0  0
   58.5850   31.6910   45.6980 C   0  0  0  0  0  0  0  0  0  0  0  0
   58.1120   30.4000   45.4070 C   0  0  0  0  0  0  0  0  0  0  0  0
   56.6050   30.2310   44.4900 S   0  0  0  0  0  0  0  0  0  0  0  0
   55.6270   28.9800   45.1750 N   0  0  0  0  0  0  0  0  0  0  0  0
   55.8530   31.5310   44.5080 O   0  0  0  0  0  0  0  0  0  0  0  0
   56.9100   29.8620   43.0640 O   0  0  0  0  0  0  0  0  0  0  0  0
   58.3550   27.3890   44.2820 C   0  0  0  0  0  0  0  0  0  0  0  0
   57.9110   26.0850   44.0480 C   0  0  0  0  0  0  0  0  0  0  0  0
   57.7946   21.8512   43.3111 H   0  0  0  0  0  0  0  0  0  0  0  0
   57.3579   20.2175   42.7054 H   0  0  0  0  0  0  0  0  0  0  0  0
   56.1339   21.5322   42.7054 H   0  0  0  0  0  0  0  0  0  0  0  0
   55.7823   21.3996   44.9962 H   0  0  0  0  0  0  0  0  0  0  0  0
   56.1747   19.6676   44.5979 H   0  0  0  0  0  0  0  0  0  0  0  0
   57.8849   19.6902   46.0199 H   0  0  0  0  0  0  0  0  0  0  0  0
   58.6111   21.0962   45.1447 H   0  0  0  0  0  0  0  0  0  0  0  0
   57.8328   23.1761   44.7600 H   0  0  0  0  0  0  0  0  0  0  0  0
   56.3976   23.8917   43.9441 H   0  0  0  0  0  0  0  0  0  0  0  0
   57.3046   25.1261   47.2757 H   0  0  0  0  0  0  0  0  0  0  0  0
   58.1089   27.4477   47.6941 H   0  0  0  0  0  0  0  0  0  0  0  0
   60.6793   28.6039   46.8170 H   0  0  0  0  0  0  0  0  0  0  0  0
   61.4934   30.9058   47.3066 H   0  0  0  0  0  0  0  0  0  0  0  0
   60.1493   32.8844   46.6025 H   0  0  0  0  0  0  0  0  0  0  0  0
   58.0002   32.5690   45.3862 H   0  0  0  0  0  0  0  0  0  0  0  0
   54.6560   29.3570   45.2520 H   0  0  0  0  0  0  0  0  0  0  0  0
   58.6619   28.0230   43.4371 H   0  0  0  0  0  0  0  0  0  0  0  0
   57.8544   25.7021   43.0183 H   0  0  0  0  0  0  0  0  0  0  0  0
  1  2  1  0
  2  3  1  0
  3  4  1  0
  4  5  1  0
  5  6  2  0
  6  7  1  0
  7  8  1  0
  8  9  2  0
  8 10  1  0
 10 11  1  0
 11 12  1  0
 12 13  2  0
 13 14  1  0
 14 15  2  0
 15 16  1  0
 16 17  2  0
 17 18  1  0
 18 19  2  0
 19 20  1  0
 20 21  2  0
 21 22  1  0
 22 23  1  0
 22 24  2  0
 22 25  2  0
 15 26  1  0
 26 27  2  0
 10  5  1  0
 27 12  1  0
 21 16  1  0
  1 28  1  0
  1 29  1  0
  1 30  1  0
  2 31  1  0
  2 32  1  0
  3 33  1  0
  3 34  1  0
 11 35  1  0
 11 36  1  0
 13 37  1  0
 14 38  1  0
 17 39  1  0
 18 40  1  0
 19 41  1  0
 20 42  1  0
 23 43  1  0
 26 44  1  0
 27 45  1  0
M  CHG  2   7  -1  23  -1
M  END
>  <UniqueID>  (49) 
48

>  <SMILES>  (49) 
CCCOc1n[n-]c(=O)n1Cc1ccc(-c2ccccc2S([NH-])(=O)=O)cc1

>  <Energy>  (49) 
84.78859320525194

>  <Genealogy>  (49) 
CCCOc1n[n-]c(=O)n1Cc1ccc(-c2ccccc2S([NH-])(=O)=O)cc1 (protonated)
CCCOc1n[n-]c(=O)n1Cc1ccc(-c2ccccc2S([NH-])(=O)=O)cc1 (3D coordinates assigned)
CCCOc1n[n-]c(=O)n1Cc1ccc(-c2ccccc2S([NH-])(=O)=O)cc1 (optimized conformer: 84.78859320525194 kcal/mol)

>  <smiles>  (49) 
CCCOc1n[nH]c(=O)n1Cc1ccc(-c2ccccc2S(N)(=O)=O)cc1

>  <score_type>  (49) 
oracle

>  <origin>  (49) 
adg

>  <m_score__min__energy>  (49) 
-12.82

>  <m_primary>  (49) 
energy

$$$$
49:0
     RDKit          3D

 66 68  0  0  1  0  0  0  0  0999 V2000
   61.0620   27.6700   49.4040 C   0  0  0  0  0  0  0  0  0  0  0  0
   60.0160   28.0380   48.4400 C   0  0  0  0  0  0  0  0  0  0  0  0
   59.1200   27.0830   48.0230 C   0  0  0  0  0  0  0  0  0  0  0  0
   58.9360   29.6210   47.0610 C   0  0  0  0  0  0  0  0  0  0  0  0
   58.9220   30.8280   46.6640 N   0  0  0  0  0  0  0  0  0  0  0  0
   58.4620   31.9040   47.4860 C   0  0  0  0  0  0  0  0  0  0  0  0
   58.7860   33.1500   46.6860 C   0  0  0  0  0  0  0  0  0  0  0  0
   57.9190   33.5750   45.6740 C   0  0  0  0  0  0  0  0  0  0  0  0
   56.4690   22.4650   44.3490 C   0  0  0  0  0  0  0  0  0  0  0  0
   55.2250   22.9240   43.9410 C   0  0  0  0  0  0  0  0  0  0  0  0
   54.7070   24.0810   44.4710 C   0  0  0  0  0  0  0  0  0  0  0  0
   55.4450   24.7900   45.4200 C   0  0  0  0  0  0  0  0  0  0  0  0
   54.8670   25.9450   45.9140 O   0  0  0  0  0  0  0  0  0  0  0  0
   58.0840   28.6610   46.6820 N   0  0  0  0  0  0  0  0  0  0  0  0
   58.1260   27.3930   47.1230 C   0  0  0  0  0  0  0  0  0  0  0  0
   57.2710   26.5740   46.6900 N   0  0  0  0  0  0  0  0  0  0  0  0
   57.4000   25.1640   46.8620 C   0  0  0  0  0  0  0  0  0  0  0  0
   56.6850   24.3570   45.8450 C   0  0  0  0  0  0  0  0  0  0  0  0
   57.1680   23.1970   45.2940 C   0  0  0  0  0  0  0  0  0  0  0  0
   58.1890   34.7080   44.9310 C   0  0  0  0  0  0  0  0  0  0  0  0
   59.3470   35.3900   45.2360 C   0  0  0  0  0  0  0  0  0  0  0  0
   59.6490   36.5240   44.5180 F   0  0  0  0  0  0  0  0  0  0  0  0
   60.2080   34.9700   46.2390 C   0  0  0  0  0  0  0  0  0  0  0  0
   59.9330   33.8310   46.9850 C   0  0  0  0  0  0  0  0  0  0  0  0
   60.8660   33.4720   47.9830 N   0  0  0  0  0  0  0  0  0  0  0  0
   60.8660   34.2190   49.2290 C   0  0  0  0  0  0  0  0  0  0  0  0
   59.6880   33.9030   50.1140 C   0  0  0  0  0  0  0  0  0  0  0  0
   59.7000   32.5000   50.5330 N   0  0  0  0  0  0  0  0  0  0  0  0
   58.3630   32.0170   50.7790 C   0  0  0  0  0  0  0  0  0  0  0  0
   60.6440   32.2130   51.5640 C   0  0  0  0  0  0  0  0  0  0  0  0
   62.0100   32.1930   47.8310 S   0  0  0  0  0  0  0  0  0  0  0  0
   63.6290   32.7840   47.4210 C   0  0  0  0  0  0  0  0  0  0  0  0
   62.0700   31.3630   49.0870 O   0  0  0  0  0  0  0  0  0  0  0  0
   61.5670   31.2150   46.7490 O   0  0  0  0  0  0  0  0  0  0  0  0
   59.8970   29.2710   47.9480 N   0  0  0  0  0  0  0  0  0  0  0  0
   60.6812   27.8040   50.4272 H   0  0  0  0  0  0  0  0  0  0  0  0
   61.3459   26.6180   49.2532 H   0  0  0  0  0  0  0  0  0  0  0  0
   61.9420   28.3125   49.2532 H   0  0  0  0  0  0  0  0  0  0  0  0
   59.1983   26.0577   48.4136 H   0  0  0  0  0  0  0  0  0  0  0  0
   57.3791   31.8245   47.6623 H   0  0  0  0  0  0  0  0  0  0  0  0
   58.9352   31.9068   48.4790 H   0  0  0  0  0  0  0  0  0  0  0  0
   57.0064   32.9971   45.4661 H   0  0  0  0  0  0  0  0  0  0  0  0
   56.8911   21.5393   43.9307 H   0  0  0  0  0  0  0  0  0  0  0  0
   54.6515   22.3598   43.1908 H   0  0  0  0  0  0  0  0  0  0  0  0
   53.7198   24.4451   44.1503 H   0  0  0  0  0  0  0  0  0  0  0  0
   55.1170   26.3360   46.8330 H   0  0  0  0  0  0  0  0  0  0  0  0
   57.3450   28.9260   46.0030 H   0  0  0  0  0  0  0  0  0  0  0  0
   58.4687   24.9078   46.8158 H   0  0  0  0  0  0  0  0  0  0  0  0
   56.9437   24.9223   47.8333 H   0  0  0  0  0  0  0  0  0  0  0  0
   58.1542   22.8323   45.6173 H   0  0  0  0  0  0  0  0  0  0  0  0
   57.5120   35.0494   44.1341 H   0  0  0  0  0  0  0  0  0  0  0  0
   61.1213   35.5469   46.4466 H   0  0  0  0  0  0  0  0  0  0  0  0
   61.7889   33.9815   49.7784 H   0  0  0  0  0  0  0  0  0  0  0  0
   60.8010   35.2859   48.9690 H   0  0  0  0  0  0  0  0  0  0  0  0
   59.7282   34.5442   51.0069 H   0  0  0  0  0  0  0  0  0  0  0  0
   58.7655   34.0878   49.5441 H   0  0  0  0  0  0  0  0  0  0  0  0
   58.1895   31.9543   51.8634 H   0  0  0  0  0  0  0  0  0  0  0  0
   57.6349   32.7089   50.3306 H   0  0  0  0  0  0  0  0  0  0  0  0
   58.2452   31.0195   50.3306 H   0  0  0  0  0  0  0  0  0  0  0  0
   60.1697   32.3572   52.5459 H   0  0  0  0  0  0  0  0  0  0  0  0
   60.9837   31.1710   51.4704 H   0  0  0  0  0  0  0  0  0  0  0  0
   61.5062   32.8896   51.4704 H   0  0  0  0  0  0  0  0  0  0  0  0
   64.1895   32.9886   48.3451 H   0  0  0  0  0  0  0  0  0  0  0  0
   64.1593   32.0215   46.8317 H   0  0  0  0  0  0  0  0  0  0  0  0
   63.5434   33.7089   46.8317 H   0  0  0  0  0  0  0  0  0  0  0  0
   60.5990   29.9900   48.2830 H   0  0  0  0  0  0  0  0  0  0  0  0
  1  2  1  0
  2  3  2  0
  3  4  1  0
  4  5  2  0
  5  6  1  0
  6  7  1  0
  7  8  2  0
  8  9  1  0
  9 10  2  0
 10 11  1  0
 11 12  2  0
 12 13  1  0
  4 14  1  0
 14 15  1  0
 15 16  2  0
 16 17  1  0
 17 18  1  0
 18 19  2  0
 19 20  1  0
 20 21  2  0
 21 22  1  0
 21 23  1  0
 23 24  2  0
 24 25  1  0
 25 26  1  0
 26 27  1  0
 27 28  1  0
 28 29  1  0
 28 30  1  0
 25 31  1  0
 31 32  1  0
 31 33  2  0
 31 34  2  0
 15 35  1  0
 35  2  1  0
 12  7  1  0
 24 18  1  0
  1 36  1  0
  1 37  1  0
  1 38  1  0
  3 39  1  0
  6 40  1  0
  6 41  1  0
  8 42  1  0
  9 43  1  0
 10 44  1  0
 11 45  1  0
 13 46  1  0
 14 47  1  0
 17 48  1  0
 17 49  1  0
 19 50  1  0
 20 51  1  0
 23 52  1  0
 26 53  1  0
 26 54  1  0
 27 55  1  0
 27 56  1  0
 29 57  1  0
 29 58  1  0
 29 59  1  0
 30 60  1  0
 30 61  1  0
 30 62  1  0
 32 63  1  0
 32 64  1  0
 32 65  1  0
 35 66  1  0
M  END
>  <smiles>  (50) 
Cc1cc(=NCc2ccccc2O)[nH]c(=NCc2ccc(F)cc2N(CCN(C)C)S(C)(=O)=O)[nH]1

>  <score_type>  (50) 
oracle

>  <origin>  (50) 
adg

>  <m_score__min__energy>  (50) 
-9.4700000000000006

>  <m_primary>  (50) 
energy

$$$$
50:0
     RDKit          3D

 49 52  0  0  0  0  0  0  0  0999 V2000
   57.7200   28.0170   53.5090 C   0  0  0  0  0  0  0  0  0  0  0  0
   57.5720   29.2970   52.7280 C   0  0  0  0  0  0  0  0  0  0  0  0
   56.4100   30.0680   52.9140 C   0  0  0  0  0  0  0  0  0  0  0  0
   56.2050   31.2370   52.1810 C   0  0  0  0  0  0  0  0  0  0  0  0
   57.1570   31.6540   51.2520 C   0  0  0  0  0  0  0  0  0  0  0  0
   58.3240   30.9130   51.0640 C   0  0  0  0  0  0  0  0  0  0  0  0
   58.5590   29.7410   51.8070 C   0  0  0  0  0  0  0  0  0  0  0  0
   59.8290   29.0100   51.5880 C   0  0  0  0  0  0  0  0  0  0  0  0
   60.4030   28.4470   52.5590 O   0  0  0  0  0  0  0  0  0  0  0  0
   60.3660   28.8700   50.2680 N   0  0  0  0  0  0  0  0  0  0  0  0
   60.5920   29.9490   49.3500 C   0  0  0  0  0  0  0  0  0  0  0  0
   61.2570   31.0900   49.8160 C   0  0  0  0  0  0  0  0  0  0  0  0
   61.5210   32.1570   48.9560 C   0  0  0  0  0  0  0  0  0  0  0  0
   61.1310   32.0890   47.6150 C   0  0  0  0  0  0  0  0  0  0  0  0
   61.4510   33.4680   46.5160 S   0  0  0  0  0  0  0  0  0  0  0  0
   59.7160   33.6700   46.1160 C   0  0  0  0  0  0  0  0  0  0  0  0
   58.7390   33.4330   47.0910 C   0  0  0  0  0  0  0  0  0  0  0  0
   57.3840   33.5850   46.7770 C   0  0  0  0  0  0  0  0  0  0  0  0
   57.0050   33.9760   45.4890 C   0  0  0  0  0  0  0  0  0  0  0  0
   57.9790   34.2170   44.5150 C   0  0  0  0  0  0  0  0  0  0  0  0
   59.3340   34.0670   44.8280 C   0  0  0  0  0  0  0  0  0  0  0  0
   60.4970   30.9410   47.1320 C   0  0  0  0  0  0  0  0  0  0  0  0
   60.2480   29.8510   47.9850 C   0  0  0  0  0  0  0  0  0  0  0  0
   59.6520   28.6460   47.4780 N   0  0  0  0  0  0  0  0  0  0  0  0
   58.6840   28.5630   46.4240 C   0  0  0  0  0  0  0  0  0  0  0  0
   58.6850   29.4460   45.5280 O   0  0  0  0  0  0  0  0  0  0  0  0
   57.6520   27.5090   46.3930 C   0  0  0  0  0  0  0  0  0  0  0  0
   57.7890   26.2220   46.8890 C   0  0  0  0  0  0  0  0  0  0  0  0
   56.5790   25.6000   46.6810 C   0  0  0  0  0  0  0  0  0  0  0  0
   55.7740   26.5410   46.0820 C   0  0  0  0  0  0  0  0  0  0  0  0
   54.4560   26.3260   45.7040 O   0  0  0  0  0  0  0  0  0  0  0  0
   56.4110   27.7130   45.9050 N   0  0  0  0  0  0  0  0  0  0  0  0
   57.6943   28.2395   54.5859 H   0  0  0  0  0  0  0  0  0  0  0  0
   56.8947   27.3353   53.2556 H   0  0  0  0  0  0  0  0  0  0  0  0
   58.6791   27.5417   53.2556 H   0  0  0  0  0  0  0  0  0  0  0  0
   55.6546   29.7454   53.6457 H   0  0  0  0  0  0  0  0  0  0  0  0
   55.2917   31.8301   52.3361 H   0  0  0  0  0  0  0  0  0  0  0  0
   56.9877   32.5693   50.6659 H   0  0  0  0  0  0  0  0  0  0  0  0
   59.0686   31.2484   50.3270 H   0  0  0  0  0  0  0  0  0  0  0  0
   61.5737   31.1457   50.8680 H   0  0  0  0  0  0  0  0  0  0  0  0
   62.0364   33.0524   49.3336 H   0  0  0  0  0  0  0  0  0  0  0  0
   59.0372   33.1271   48.1047 H   0  0  0  0  0  0  0  0  0  0  0  0
   56.6172   33.3970   47.5430 H   0  0  0  0  0  0  0  0  0  0  0  0
   55.9397   34.0941   45.2418 H   0  0  0  0  0  0  0  0  0  0  0  0
   57.6795   34.5247   43.5023 H   0  0  0  0  0  0  0  0  0  0  0  0
   60.0999   34.2608   44.0626 H   0  0  0  0  0  0  0  0  0  0  0  0
   60.1905   30.8896   46.0768 H   0  0  0  0  0  0  0  0  0  0  0  0
   58.6847   25.7855   47.3551 H   0  0  0  0  0  0  0  0  0  0  0  0
   56.3112   24.5650   46.9400 H   0  0  0  0  0  0  0  0  0  0  0  0
  1  2  1  0
  2  3  2  0
  3  4  1  0
  4  5  2  0
  5  6  1  0
  6  7  2  0
  7  8  1  0
  8  9  2  0
  8 10  1  0
 10 11  1  0
 11 12  2  0
 12 13  1  0
 13 14  2  0
 14 15  1  0
 15 16  1  0
 16 17  2  0
 17 18  1  0
 18 19  2  0
 19 20  1  0
 20 21  2  0
 14 22  1  0
 22 23  2  0
 23 24  1  0
 24 25  1  0
 25 26  2  0
 25 27  1  0
 27 28  2  0
 28 29  1  0
 29 30  2  0
 30 31  1  0
 30 32  1  0
  7  2  1  0
 23 11  1  0
 32 27  1  0
 21 16  1  0
  1 33  1  0
  1 34  1  0
  1 35  1  0
  3 36  1  0
  4 37  1  0
  5 38  1  0
  6 39  1  0
 12 40  1  0
 13 41  1  0
 17 42  1  0
 18 43  1  0
 19 44  1  0
 20 45  1  0
 21 46  1  0
 22 47  1  0
 28 48  1  0
 29 49  1  0
M  CHG  4  10  -1  24  -1  31  -1  32  -1
M  END
>  <UniqueID>  (51) 
49

>  <SMILES>  (51) 
Cc1ccccc1C(=O)[N-]c1ccc(Sc2ccccc2)cc1[N-]C(=O)c1ccc([O-])[n-]1

>  <Energy>  (51) 
88.99295999297082

>  <Genealogy>  (51) 
Cc1ccccc1C(=O)[N-]c1ccc(Sc2ccccc2)cc1[N-]C(=O)c1ccc([O-])[n-]1 (protonated)
Cc1ccccc1C(=O)[N-]c1ccc(Sc2ccccc2)cc1[N-]C(=O)c1ccc([O-])[n-]1 (3D coordinates assigned)
Cc1ccccc1C(=O)[N-]c1ccc(Sc2ccccc2)cc1[N-]C(=O)c1ccc([O-])[n-]1 (optimized conformer: 88.99295999297082 kcal/mol)

>  <smiles>  (51) 
Cc1ccccc1C(=O)Nc1ccc(Sc2ccccc2)cc1NC(=O)c1ccc(O)[nH]1

>  <score_type>  (51) 
oracle

>  <origin>  (51) 
adg

>  <m_score__min__energy>  (51) 
-15.67

>  <m_primary>  (51) 
energy

$$$$
51:0
     RDKit          3D

 51 54  0  0  0  0  0  0  0  0999 V2000
   60.8935   27.4494   47.4078 H   0  0  0  0  0  0  0  0  0  0  0  0
   60.1790   28.2760   47.2800 C   0  0  0  0  0  0  0  0  0  0  0  0
   59.0230   28.0150   46.6500 C   0  0  0  0  0  0  0  0  0  0  0  0
   58.1420   26.8420   46.7570 C   0  0  0  0  0  0  0  0  0  0  0  0
   58.3280   25.8490   47.5100 O   0  0  0  0  0  0  0  0  0  0  0  0
   56.9900   26.9950   45.9260 N   0  0  0  0  0  0  0  0  0  0  0  0
   56.0020   25.9780   45.6770 C   0  0  0  0  0  0  0  0  0  0  0  0
   54.7970   26.2000   45.9700 O   0  0  0  0  0  0  0  0  0  0  0  0
   56.3680   24.6490   45.0970 C   0  0  0  0  0  0  0  0  0  0  0  0
   56.5645   23.9354   45.9107 H   0  0  0  0  0  0  0  0  0  0  0  0
   55.5384   24.2786   44.4768 H   0  0  0  0  0  0  0  0  0  0  0  0
   57.2702   24.7555   44.4768 H   0  0  0  0  0  0  0  0  0  0  0  0
   57.1320   28.2920   45.3330 C   0  0  0  0  0  0  0  0  0  0  0  0
   56.2100   28.9710   44.5260 C   0  0  0  0  0  0  0  0  0  0  0  0
   55.2578   28.4991   44.2421 H   0  0  0  0  0  0  0  0  0  0  0  0
   56.5270   30.2670   44.0870 C   0  0  0  0  0  0  0  0  0  0  0  0
   55.8255   30.8099   43.4365 H   0  0  0  0  0  0  0  0  0  0  0  0
   57.7350   30.8760   44.4730 C   0  0  0  0  0  0  0  0  0  0  0  0
   57.9764   31.8875   44.1145 H   0  0  0  0  0  0  0  0  0  0  0  0
   58.6330   30.2010   45.3120 C   0  0  0  0  0  0  0  0  0  0  0  0
   59.5738   30.6757   45.6276 H   0  0  0  0  0  0  0  0  0  0  0  0
   58.3050   28.9110   45.7380 C   0  0  0  0  0  0  0  0  0  0  0  0
   60.5530   29.6000   47.8120 C   0  0  0  0  0  0  0  0  0  0  0  0
   60.2170   29.9730   49.1210 C   0  0  0  0  0  0  0  0  0  0  0  0
   59.6347   29.2868   49.7536 H   0  0  0  0  0  0  0  0  0  0  0  0
   60.6180   31.2110   49.6250 C   0  0  0  0  0  0  0  0  0  0  0  0
   60.3328   31.5035   50.6464 H   0  0  0  0  0  0  0  0  0  0  0  0
   61.3850   32.0880   48.8350 C   0  0  0  0  0  0  0  0  0  0  0  0
   61.8100   33.3430   49.3050 O   0  0  0  0  0  0  0  0  0  0  0  0
   61.1990   34.5940   48.9940 C   0  0  0  0  0  0  0  0  0  0  0  0
   60.7121   34.9916   49.8967 H   0  0  0  0  0  0  0  0  0  0  0  0
   61.9765   35.2872   48.6406 H   0  0  0  0  0  0  0  0  0  0  0  0
   60.1680   34.4320   47.9080 C   0  0  0  0  0  0  0  0  0  0  0  0
   58.9490   33.7850   48.1700 C   0  0  0  0  0  0  0  0  0  0  0  0
   58.7393   33.3994   49.1786 H   0  0  0  0  0  0  0  0  0  0  0  0
   58.0010   33.6290   47.1540 C   0  0  0  0  0  0  0  0  0  0  0  0
   57.0456   33.1269   47.3663 H   0  0  0  0  0  0  0  0  0  0  0  0
   58.2660   34.1100   45.8700 C   0  0  0  0  0  0  0  0  0  0  0  0
   57.5179   33.9900   45.0725 H   0  0  0  0  0  0  0  0  0  0  0  0
   59.4820   34.7440   45.5980 C   0  0  0  0  0  0  0  0  0  0  0  0
   59.6914   35.1190   44.5853 H   0  0  0  0  0  0  0  0  0  0  0  0
   60.4320   34.9020   46.6110 C   0  0  0  0  0  0  0  0  0  0  0  0
   61.3899   35.3962   46.3917 H   0  0  0  0  0  0  0  0  0  0  0  0
   61.7490   31.7090   47.5340 C   0  0  0  0  0  0  0  0  0  0  0  0
   62.5220   32.6000   46.7720 O   0  0  0  0  0  0  0  0  0  0  0  0
   63.7990   33.0950   47.1590 C   0  0  0  0  0  0  0  0  0  0  0  0
   63.8651   33.1206   48.2567 H   0  0  0  0  0  0  0  0  0  0  0  0
   64.5841   32.4361   46.7597 H   0  0  0  0  0  0  0  0  0  0  0  0
   63.9349   34.1109   46.7597 H   0  0  0  0  0  0  0  0  0  0  0  0
   61.3380   30.4570   47.0320 C   0  0  0  0  0  0  0  0  0  0  0  0
   61.6369   30.1512   46.0185 H   0  0  0  0  0  0  0  0  0  0  0  0
  1  2  1  0
  2  3  2  0
  3  4  1  0
  4  5  2  0
  4  6  1  0
  6  7  1  0
  7  8  2  0
  7  9  1  0
  9 10  1  0
  9 11  1  0
  9 12  1  0
  6 13  1  0
 13 14  2  0
 14 15  1  0
 14 16  1  0
 16 17  1  0
 16 18  2  0
 18 19  1  0
 18 20  1  0
 20 21  1  0
 20 22  2  0
  2 23  1  0
 23 24  2  0
 24 25  1  0
 24 26  1  0
 26 27  1  0
 26 28  2  0
 28 29  1  0
 29 30  1  0
 30 31  1  0
 30 32  1  0
 30 33  1  0
 33 34  2  0
 34 35  1  0
 34 36  1  0
 36 37  1  0
 36 38  2  0
 38 39  1  0
 38 40  1  0
 40 41  1  0
 40 42  2  0
 42 43  1  0
 28 44  1  0
 44 45  1  0
 45 46  1  0
 46 47  1  0
 46 48  1  0
 46 49  1  0
 44 50  2  0
 50 51  1  0
 22  3  1  0
 50 23  1  0
 22 13  1  0
 42 33  1  0
M  END
>  <UniqueID>  (52) 
50

>  <SMILES>  (52) 
COc1cc(/C=C2\C(=O)N(C(C)=O)c3ccccc32)ccc1OCc1ccccc1

>  <Energy>  (52) 
94.80715247290917

>  <Genealogy>  (52) 
COc1cc(/C=C2\C(=O)N(C(C)=O)c3ccccc32)ccc1OCc1ccccc1 (cis-trans isomerization)
COc1cc(/C=C2\C(=O)N(C(C)=O)c3ccccc32)ccc1OCc1ccccc1 (3D coordinates assigned)
COc1cc(/C=C2\C(=O)N(C(C)=O)c3ccccc32)ccc1OCc1ccccc1 (nonaromatic ring conformer: 94.80715247290917 kcal/mol)

>  <smiles>  (52) 
COc1cc(C=C2C(=O)N(C(C)=O)c3ccccc32)ccc1OCc1ccccc1

>  <score_type>  (52) 
oracle

>  <origin>  (52) 
adg

>  <m_score__min__energy>  (52) 
-9.5399999999999991

>  <m_primary>  (52) 
energy

$$$$
52:0
     RDKit          3D

 48 51  0  0  0  0  0  0  0  0999 V2000
   54.9750   24.4220   46.4810 O   0  0  0  0  0  0  0  0  0  0  0  0
   55.7130   25.3920   46.1640 C   0  0  0  0  0  0  0  0  0  0  0  0
   55.1560   26.6110   45.9680 N   0  0  0  0  0  0  0  0  0  0  0  0
   55.8890   27.6670   45.6270 N   0  0  0  0  0  0  0  0  0  0  0  0
   57.2380   27.5950   45.4700 C   0  0  0  0  0  0  0  0  0  0  0  0
   57.9590   28.8620   45.0650 C   0  0  0  0  0  0  0  0  0  0  0  0
   58.3170   29.6880   46.2800 C   0  0  0  0  0  0  0  0  0  0  0  0
   58.7020   29.0450   47.4700 C   0  0  0  0  0  0  0  0  0  0  0  0
   59.0400   29.7920   48.6000 C   0  0  0  0  0  0  0  0  0  0  0  0
   58.9710   31.1850   48.5660 C   0  0  0  0  0  0  0  0  0  0  0  0
   58.5520   31.8430   47.4040 C   0  0  0  0  0  0  0  0  0  0  0  0
   58.3940   33.2630   47.4380 N   0  0  0  0  0  0  0  0  0  0  0  0
   59.5770   34.3260   46.7460 S   0  0  0  0  0  0  0  0  0  0  0  0
   59.5550   34.1890   45.2490 O   0  0  0  0  0  0  0  0  0  0  0  0
   59.2500   35.7480   47.1120 O   0  0  0  0  0  0  0  0  0  0  0  0
   61.1860   33.8970   47.3220 C   0  0  0  0  0  0  0  0  0  0  0  0
   62.2440   33.8160   46.4070 C   0  0  0  0  0  0  0  0  0  0  0  0
   63.5200   33.4470   46.8410 C   0  0  0  0  0  0  0  0  0  0  0  0
   63.7460   33.1640   48.1920 C   0  0  0  0  0  0  0  0  0  0  0  0
   62.6950   33.2500   49.1090 C   0  0  0  0  0  0  0  0  0  0  0  0
   61.4140   33.6040   48.6760 C   0  0  0  0  0  0  0  0  0  0  0  0
   58.2520   31.0960   46.2440 C   0  0  0  0  0  0  0  0  0  0  0  0
   57.9150   31.7360   45.0510 O   0  0  0  0  0  0  0  0  0  0  0  0
   57.8960   26.3570   45.7050 C   0  0  0  0  0  0  0  0  0  0  0  0
   57.1010   25.2250   46.0120 C   0  0  0  0  0  0  0  0  0  0  0  0
   57.7160   23.8560   46.2420 C   0  0  0  0  0  0  0  0  0  0  0  0
   59.1040   23.7340   45.6150 C   0  0  0  0  0  0  0  0  0  0  0  0
   59.9700   24.8980   46.0760 C   0  0  0  0  0  0  0  0  0  0  0  0
   59.4060   26.2270   45.5650 C   0  0  0  0  0  0  0  0  0  0  0  0
   58.8800   28.5961   44.5256 H   0  0  0  0  0  0  0  0  0  0  0  0
   57.2945   29.4547   44.4191 H   0  0  0  0  0  0  0  0  0  0  0  0
   58.7371   27.9463   47.5107 H   0  0  0  0  0  0  0  0  0  0  0  0
   59.3615   29.2809   49.5195 H   0  0  0  0  0  0  0  0  0  0  0  0
   59.2472   31.7688   49.4565 H   0  0  0  0  0  0  0  0  0  0  0  0
   62.0698   34.0433   45.3449 H   0  0  0  0  0  0  0  0  0  0  0  0
   64.3475   33.3790   46.1195 H   0  0  0  0  0  0  0  0  0  0  0  0
   64.7509   32.8738   48.5326 H   0  0  0  0  0  0  0  0  0  0  0  0
   62.8761   33.0388   50.1732 H   0  0  0  0  0  0  0  0  0  0  0  0
   60.5842   33.6530   49.3964 H   0  0  0  0  0  0  0  0  0  0  0  0
   57.9910   32.7350   44.9260 H   0  0  0  0  0  0  0  0  0  0  0  0
   57.8001   23.6829   47.3250 H   0  0  0  0  0  0  0  0  0  0  0  0
   57.0638   23.1086   45.7665 H   0  0  0  0  0  0  0  0  0  0  0  0
   59.5662   22.7861   45.9278 H   0  0  0  0  0  0  0  0  0  0  0  0
   59.0154   23.7530   44.5187 H   0  0  0  0  0  0  0  0  0  0  0  0
   59.9960   24.9156   47.1756 H   0  0  0  0  0  0  0  0  0  0  0  0
   60.9848   24.7657   45.6726 H   0  0  0  0  0  0  0  0  0  0  0  0
   59.8769   27.0430   46.1327 H   0  0  0  0  0  0  0  0  0  0  0  0
   59.6296   26.2733   44.4890 H   0  0  0  0  0  0  0  0  0  0  0  0
  1  2  2  0
  2  3  1  0
  3  4  1  0
  4  5  2  0
  5  6  1  0
  6  7  1  0
  7  8  2  0
  8  9  1  0
  9 10  2  0
 10 11  1  0
 11 12  1  0
 12 13  1  0
 13 14  2  0
 13 15  2  0
 13 16  1  0
 16 17  2  0
 17 18  1  0
 18 19  2  0
 19 20  1  0
 20 21  2  0
 11 22  2  0
 22 23  1  0
  5 24  1  0
 24 25  2  0
 25 26  1  0
 26 27  1  0
 27 28  1  0
 28 29  1  0
 25  2  1  0
 22  7  1  0
 29 24  1  0
 21 16  1  0
  6 30  1  0
  6 31  1  0
  8 32  1  0
  9 33  1  0
 10 34  1  0
 17 35  1  0
 18 36  1  0
 19 37  1  0
 20 38  1  0
 21 39  1  0
 23 40  1  0
 26 41  1  0
 26 42  1  0
 27 43  1  0
 27 44  1  0
 28 45  1  0
 28 46  1  0
 29 47  1  0
 29 48  1  0
M  CHG  2   3  -1  12  -1
M  END
>  <UniqueID>  (53) 
51

>  <SMILES>  (53) 
O=c1[n-]nc(Cc2cccc([N-]S(=O)(=O)c3ccccc3)c2O)c2c1CCCC2

>  <Energy>  (53) 
60.60394188750075

>  <Genealogy>  (53) 
O=c1[n-]nc(Cc2cccc([N-]S(=O)(=O)c3ccccc3)c2O)c2c1CCCC2 (protonated)
O=c1[n-]nc(Cc2cccc([N-]S(=O)(=O)c3ccccc3)c2O)c2c1CCCC2 (3D coordinates assigned)
O=c1[n-]nc(Cc2cccc([N-]S(=O)(=O)c3ccccc3)c2O)c2c1CCCC2 (nonaromatic ring conformer: 60.60394188750075 kcal/mol)

>  <smiles>  (53) 
O=c1[nH]nc(Cc2cccc(NS(=O)(=O)c3ccccc3)c2O)c2c1CCCC2

>  <score_type>  (53) 
oracle

>  <origin>  (53) 
adg

>  <m_score__min__energy>  (53) 
-13.380000000000001

>  <m_primary>  (53) 
energy

$$$$
53:0
     RDKit          3D

 53 55  0  0  0  0  0  0  0  0999 V2000
   54.9620   25.1980   46.7420 H   0  0  0  0  0  0  0  0  0  0  0  0
   55.9020   24.9270   46.4670 O   0  0  0  0  0  0  0  0  0  0  0  0
   56.8690   25.8770   46.1260 C   0  0  0  0  0  0  0  0  0  0  0  0
   57.3860   26.7460   47.0940 C   0  0  0  0  0  0  0  0  0  0  0  0
   57.0202   26.6931   48.1300 H   0  0  0  0  0  0  0  0  0  0  0  0
   58.3650   27.6800   46.7480 C   0  0  0  0  0  0  0  0  0  0  0  0
   58.7695   28.3584   47.5136 H   0  0  0  0  0  0  0  0  0  0  0  0
   58.8360   27.7570   45.4250 C   0  0  0  0  0  0  0  0  0  0  0  0
   59.8840   28.7700   45.0560 C   0  0  0  0  0  0  0  0  0  0  0  0
   60.1042   28.6874   43.9814 H   0  0  0  0  0  0  0  0  0  0  0  0
   60.7911   28.5732   45.6463 H   0  0  0  0  0  0  0  0  0  0  0  0
   59.4030   30.1610   45.3560 C   0  0  0  0  0  0  0  0  0  0  0  0
   60.1580   30.9240   46.1010 N   0  0  0  0  0  0  0  0  0  0  0  0
   60.6870   30.6200   47.4000 C   0  0  0  0  0  0  0  0  0  0  0  0
   60.1310   29.7180   48.0820 O   0  0  0  0  0  0  0  0  0  0  0  0
   61.8180   31.3840   47.9830 C   0  0  0  0  0  0  0  0  0  0  0  0
   62.5630   32.2820   47.1970 C   0  0  0  0  0  0  0  0  0  0  0  0
   62.2891   32.4431   46.1439 H   0  0  0  0  0  0  0  0  0  0  0  0
   63.6490   32.9710   47.7450 C   0  0  0  0  0  0  0  0  0  0  0  0
   64.2264   33.6685   47.1205 H   0  0  0  0  0  0  0  0  0  0  0  0
   64.0070   32.7760   49.0930 C   0  0  0  0  0  0  0  0  0  0  0  0
   65.1020   33.4230   49.6840 O   0  0  0  0  0  0  0  0  0  0  0  0
   66.2410   32.7530   50.2150 C   0  0  0  0  0  0  0  0  0  0  0  0
   66.2009   32.7766   51.3140 H   0  0  0  0  0  0  0  0  0  0  0  0
   66.2455   31.7083   49.8706 H   0  0  0  0  0  0  0  0  0  0  0  0
   67.1563   33.2566   49.8706 H   0  0  0  0  0  0  0  0  0  0  0  0
   63.2470   31.9040   49.8800 C   0  0  0  0  0  0  0  0  0  0  0  0
   63.5076   31.7585   50.9387 H   0  0  0  0  0  0  0  0  0  0  0  0
   62.1600   31.2160   49.3340 C   0  0  0  0  0  0  0  0  0  0  0  0
   61.5685   30.5383   49.9671 H   0  0  0  0  0  0  0  0  0  0  0  0
   58.0870   30.6030   44.8300 C   0  0  0  0  0  0  0  0  0  0  0  0
   57.0300   30.3000   45.4440 O   0  0  0  0  0  0  0  0  0  0  0  0
   58.0360   31.4450   43.6700 N   0  0  0  0  0  0  0  0  0  0  0  0
   58.0820   32.7490   43.6380 C   0  0  0  0  0  0  0  0  0  0  0  0
   58.6723   33.2225   42.8396 H   0  0  0  0  0  0  0  0  0  0  0  0
   57.3810   33.6480   44.6210 C   0  0  0  0  0  0  0  0  0  0  0  0
   57.2595   34.6427   44.1674 H   0  0  0  0  0  0  0  0  0  0  0  0
   56.4071   33.1951   44.8584 H   0  0  0  0  0  0  0  0  0  0  0  0
   58.1500   33.7920   45.9070 C   0  0  0  0  0  0  0  0  0  0  0  0
   59.2860   34.6190   45.9620 C   0  0  0  0  0  0  0  0  0  0  0  0
   59.5921   35.1904   45.0733 H   0  0  0  0  0  0  0  0  0  0  0  0
   60.0290   34.7170   47.1460 C   0  0  0  0  0  0  0  0  0  0  0  0
   60.9075   35.3775   47.1896 H   0  0  0  0  0  0  0  0  0  0  0  0
   59.6560   33.9770   48.2720 C   0  0  0  0  0  0  0  0  0  0  0  0
   60.2420   34.0550   49.1997 H   0  0  0  0  0  0  0  0  0  0  0  0
   58.5390   33.1380   48.2200 C   0  0  0  0  0  0  0  0  0  0  0  0
   58.2479   32.5547   49.1060 H   0  0  0  0  0  0  0  0  0  0  0  0
   57.7920   33.0400   47.0430 C   0  0  0  0  0  0  0  0  0  0  0  0
   56.9192   32.3716   47.0034 H   0  0  0  0  0  0  0  0  0  0  0  0
   58.3100   26.8870   44.4560 C   0  0  0  0  0  0  0  0  0  0  0  0
   58.6698   26.9409   43.4179 H   0  0  0  0  0  0  0  0  0  0  0  0
   57.3310   25.9530   44.8060 C   0  0  0  0  0  0  0  0  0  0  0  0
   56.9219   25.2753   44.0422 H   0  0  0  0  0  0  0  0  0  0  0  0
  1  2  1  0
  2  3  1  0
  3  4  2  0
  4  5  1  0
  4  6  1  0
  6  7  1  0
  6  8  2  0
  8  9  1  0
  9 10  1  0
  9 11  1  0
  9 12  1  0
 12 13  2  0
 13 14  1  0
 14 15  2  0
 14 16  1  0
 16 17  2  0
 17 18  1  0
 17 19  1  0
 19 20  1  0
 19 21  2  0
 21 22  1  0
 22 23  1  0
 23 24  1  0
 23 25  1  0
 23 26  1  0
 21 27  1  0
 27 28  1  0
 27 29  2  0
 29 30  1  0
 12 31  1  0
 31 32  2  0
 31 33  1  0
 33 34  2  3
 34 35  1  0
 34 36  1  0
 36 37  1  0
 36 38  1  0
 36 39  1  0
 39 40  2  0
 40 41  1  0
 40 42  1  0
 42 43  1  0
 42 44  2  0
 44 45  1  0
 44 46  1  0
 46 47  1  0
 46 48  2  0
 48 49  1  0
  8 50  1  0
 50 51  1  0
 50 52  2  0
 52 53  1  0
 52  3  1  0
 29 16  1  0
 48 39  1  0
M  END
>  <UniqueID>  (54) 
52

>  <SMILES>  (54) 
COc1ccc(C(=O)/N=C(/Cc2ccc(O)cc2)C(=O)N=CCc2ccccc2)cc1

>  <Energy>  (54) 
63.95201961082321

>  <Genealogy>  (54) 
COc1ccc(C(=O)/N=C(/Cc2ccc(O)cc2)C(=O)N=CCc2ccccc2)cc1 (cis-trans isomerization)
COc1ccc(C(=O)/N=C(/Cc2ccc(O)cc2)C(=O)N=CCc2ccccc2)cc1 (3D coordinates assigned)
COc1ccc(C(=O)/N=C(/Cc2ccc(O)cc2)C(=O)N=CCc2ccccc2)cc1 (optimized conformer: 63.95201961082321 kcal/mol)

>  <smiles>  (54) 
COc1ccc(C(=O)N=C(Cc2ccc(O)cc2)C(=O)N=CCc2ccccc2)cc1

>  <score_type>  (54) 
oracle

>  <origin>  (54) 
adg

>  <m_score__min__energy>  (54) 
-8.8100000000000005

>  <m_primary>  (54) 
energy

$$$$
54:0
     RDKit          3D

 42 44  0  0  0  0  0  0  0  0999 V2000
   60.7620   28.0110   47.7650 O   0  0  0  0  0  0  0  0  0  0  0  0
   60.3190   27.4850   46.7090 C   0  0  0  0  0  0  0  0  0  0  0  0
   61.1160   26.5630   46.0400 O   0  0  0  0  0  0  0  0  0  0  0  0
   58.9700   27.8440   46.2000 C   0  0  0  0  0  0  0  0  0  0  0  0
   58.7990   29.0290   45.4610 C   0  0  0  0  0  0  0  0  0  0  0  0
   57.5340   29.4130   44.9890 C   0  0  0  0  0  0  0  0  0  0  0  0
   57.3900   30.9360   44.1010 S   0  0  0  0  0  0  0  0  0  0  0  0
   58.7170   31.3050   43.4990 O   0  0  0  0  0  0  0  0  0  0  0  0
   56.3870   30.8170   42.9880 O   0  0  0  0  0  0  0  0  0  0  0  0
   56.8590   32.1660   45.1980 N   0  0  0  0  0  0  0  0  0  0  0  0
   57.7560   33.1270   45.7580 C   0  0  0  0  0  0  0  0  0  0  0  0
   58.3870   34.0860   44.9520 C   0  0  0  0  0  0  0  0  0  0  0  0
   59.2740   35.0010   45.5210 C   0  0  0  0  0  0  0  0  0  0  0  0
   59.5490   34.9550   46.8900 C   0  0  0  0  0  0  0  0  0  0  0  0
   58.9370   33.9940   47.7030 C   0  0  0  0  0  0  0  0  0  0  0  0
   59.2840   33.9540   49.0630 O   0  0  0  0  0  0  0  0  0  0  0  0
   60.2390   33.0620   49.6370 C   0  0  0  0  0  0  0  0  0  0  0  0
   61.4510   32.9440   48.7500 C   0  0  0  0  0  0  0  0  0  0  0  0
   62.4050   33.9750   48.6950 C   0  0  0  0  0  0  0  0  0  0  0  0
   63.5300   33.8490   47.8740 C   0  0  0  0  0  0  0  0  0  0  0  0
   63.7060   32.7010   47.0970 C   0  0  0  0  0  0  0  0  0  0  0  0
   62.7640   31.6710   47.1480 C   0  0  0  0  0  0  0  0  0  0  0  0
   61.6380   31.7910   47.9700 C   0  0  0  0  0  0  0  0  0  0  0  0
   58.0140   33.0990   47.1330 C   0  0  0  0  0  0  0  0  0  0  0  0
   56.4190   28.6060   45.2720 C   0  0  0  0  0  0  0  0  0  0  0  0
   55.1440   28.9680   44.8530 O   0  0  0  0  0  0  0  0  0  0  0  0
   56.5820   27.4190   45.9890 C   0  0  0  0  0  0  0  0  0  0  0  0
   57.8440   27.0290   46.4470 C   0  0  0  0  0  0  0  0  0  0  0  0
   57.9570   25.8340   47.1460 O   0  0  0  0  0  0  0  0  0  0  0  0
   59.6711   29.6651   45.2496 H   0  0  0  0  0  0  0  0  0  0  0  0
   58.1828   34.1169   43.8716 H   0  0  0  0  0  0  0  0  0  0  0  0
   59.7581   35.7607   44.8897 H   0  0  0  0  0  0  0  0  0  0  0  0
   60.2505   35.6782   47.3315 H   0  0  0  0  0  0  0  0  0  0  0  0
   60.5466   33.4455   50.6210 H   0  0  0  0  0  0  0  0  0  0  0  0
   59.7785   32.0688   49.7439 H   0  0  0  0  0  0  0  0  0  0  0  0
   62.2662   34.8835   49.2995 H   0  0  0  0  0  0  0  0  0  0  0  0
   64.2777   34.6550   47.8398 H   0  0  0  0  0  0  0  0  0  0  0  0
   64.5869   32.6084   46.4448 H   0  0  0  0  0  0  0  0  0  0  0  0
   62.9074   30.7646   46.5414 H   0  0  0  0  0  0  0  0  0  0  0  0
   60.8965   30.9793   48.0055 H   0  0  0  0  0  0  0  0  0  0  0  0
   57.4915   32.3722   47.7723 H   0  0  0  0  0  0  0  0  0  0  0  0
   55.7080   26.7839   46.1957 H   0  0  0  0  0  0  0  0  0  0  0  0
  1  2  2  0
  2  3  1  0
  2  4  1  0
  4  5  2  0
  5  6  1  0
  6  7  1  0
  7  8  2  0
  7  9  2  0
  7 10  1  0
 10 11  1  0
 11 12  2  0
 12 13  1  0
 13 14  2  0
 14 15  1  0
 15 16  1  0
 16 17  1  0
 17 18  1  0
 18 19  2  0
 19 20  1  0
 20 21  2  0
 21 22  1  0
 22 23  2  0
 15 24  2  0
  6 25  2  0
 25 26  1  0
 25 27  1  0
 27 28  2  0
 28 29  1  0
 28  4  1  0
 24 11  1  0
 23 18  1  0
  5 30  1  0
 12 31  1  0
 13 32  1  0
 14 33  1  0
 17 34  1  0
 17 35  1  0
 19 36  1  0
 20 37  1  0
 21 38  1  0
 22 39  1  0
 23 40  1  0
 24 41  1  0
 27 42  1  0
M  CHG  4   3  -1  10  -1  26  -1  29  -1
M  END
>  <UniqueID>  (55) 
53

>  <SMILES>  (55) 
O=C([O-])c1cc(S(=O)(=O)[N-]c2cccc(OCc3ccccc3)c2)c([O-])cc1[O-]

>  <Energy>  (55) 
52.29510193658157

>  <Genealogy>  (55) 
O=C([O-])c1cc(S(=O)(=O)[N-]c2cccc(OCc3ccccc3)c2)c([O-])cc1[O-] (protonated)
O=C([O-])c1cc(S(=O)(=O)[N-]c2cccc(OCc3ccccc3)c2)c([O-])cc1[O-] (3D coordinates assigned)
O=C([O-])c1cc(S(=O)(=O)[N-]c2cccc(OCc3ccccc3)c2)c([O-])cc1[O-] (optimized conformer: 52.29510193658157 kcal/mol)

>  <smiles>  (55) 
O=C(O)c1cc(S(=O)(=O)Nc2cccc(OCc3ccccc3)c2)c(O)cc1O

>  <score_type>  (55) 
oracle

>  <origin>  (55) 
adg

>  <m_score__min__energy>  (55) 
-16.73

>  <m_primary>  (55) 
energy

$$$$
55:0
     RDKit          3D

 48 49  0  0  0  0  0  0  0  0999 V2000
   57.8020   32.1310   42.9570 C   0  0  0  0  0  0  0  0  0  0  0  0
   57.0340   30.8620   43.3080 C   0  0  0  0  0  0  0  0  0  0  0  0
   57.7310   30.1120   44.3630 N   0  0  0  0  0  0  0  0  0  0  0  0
   59.1520   30.4020   44.6130 C   0  0  0  0  0  0  0  0  0  0  0  0
   59.3900   30.7210   46.0600 C   0  0  0  0  0  0  0  0  0  0  0  0
   59.4310   29.7810   46.8980 O   0  0  0  0  0  0  0  0  0  0  0  0
   59.5570   32.0890   46.4750 N   0  0  0  0  0  0  0  0  0  0  0  0
   59.6810   32.5160   47.8430 C   0  0  0  0  0  0  0  0  0  0  0  0
   59.9430   31.6090   48.8850 C   0  0  0  0  0  0  0  0  0  0  0  0
   60.0420   32.0570   50.2060 C   0  0  0  0  0  0  0  0  0  0  0  0
   59.9170   33.4260   50.5030 C   0  0  0  0  0  0  0  0  0  0  0  0
   59.9790   33.9250   51.8470 N   0  0  0  0  0  0  0  0  0  0  0  0
   58.8670   34.2260   52.6980 C   0  0  0  0  0  0  0  0  0  0  0  0
   59.1050   34.9130   54.0010 C   0  0  0  0  0  0  0  0  0  0  0  0
   57.7050   33.8360   52.4070 O   0  0  0  0  0  0  0  0  0  0  0  0
   59.6720   34.3300   49.4640 C   0  0  0  0  0  0  0  0  0  0  0  0
   59.5720   33.8820   48.1440 C   0  0  0  0  0  0  0  0  0  0  0  0
   56.9920   29.1670   45.1750 C   0  0  0  0  0  0  0  0  0  0  0  0
   55.7340   29.2470   45.2400 O   0  0  0  0  0  0  0  0  0  0  0  0
   57.6640   28.0300   45.8940 C   0  0  0  0  0  0  0  0  0  0  0  0
   56.6460   27.1090   46.3890 N   0  0  0  0  0  0  0  0  0  0  0  0
   56.4210   25.9280   45.8940 C   0  0  0  0  0  0  0  0  0  0  0  0
   57.4540   25.1000   45.5670 N   0  0  0  0  0  0  0  0  0  0  0  0
   57.2460   23.8640   45.0380 C   0  0  0  0  0  0  0  0  0  0  0  0
   55.9440   23.4110   44.8120 C   0  0  0  0  0  0  0  0  0  0  0  0
   54.8680   24.2390   45.1340 C   0  0  0  0  0  0  0  0  0  0  0  0
   55.1000   25.5050   45.6760 C   0  0  0  0  0  0  0  0  0  0  0  0
   54.0280   26.3350   45.9870 O   0  0  0  0  0  0  0  0  0  0  0  0
   58.1104   32.6406   43.8818 H   0  0  0  0  0  0  0  0  0  0  0  0
   58.6933   31.8691   42.3680 H   0  0  0  0  0  0  0  0  0  0  0  0
   57.1565   32.7991   42.3680 H   0  0  0  0  0  0  0  0  0  0  0  0
   56.0284   31.1338   43.6615 H   0  0  0  0  0  0  0  0  0  0  0  0
   56.9632   30.2300   42.4105 H   0  0  0  0  0  0  0  0  0  0  0  0
   59.7526   29.5234   44.3349 H   0  0  0  0  0  0  0  0  0  0  0  0
   59.4427   31.2746   44.0096 H   0  0  0  0  0  0  0  0  0  0  0  0
   59.4160   32.8300   45.7530 H   0  0  0  0  0  0  0  0  0  0  0  0
   60.0709   30.5400   48.6596 H   0  0  0  0  0  0  0  0  0  0  0  0
   60.2185   31.3350   51.0169 H   0  0  0  0  0  0  0  0  0  0  0  0
   58.8670   34.2261   54.8265 H   0  0  0  0  0  0  0  0  0  0  0  0
   60.1604   35.2157   54.0685 H   0  0  0  0  0  0  0  0  0  0  0  0
   58.4631   35.8037   54.0685 H   0  0  0  0  0  0  0  0  0  0  0  0
   59.5573   35.4009   49.6875 H   0  0  0  0  0  0  0  0  0  0  0  0
   59.4063   34.6071   47.3335 H   0  0  0  0  0  0  0  0  0  0  0  0
   58.3338   27.5004   45.2006 H   0  0  0  0  0  0  0  0  0  0  0  0
   58.2514   28.4210   46.7378 H   0  0  0  0  0  0  0  0  0  0  0  0
   58.1031   23.2213   44.7882 H   0  0  0  0  0  0  0  0  0  0  0  0
   55.7689   22.4125   44.3849 H   0  0  0  0  0  0  0  0  0  0  0  0
   53.8377   23.8948   44.9610 H   0  0  0  0  0  0  0  0  0  0  0  0
  1  2  1  0
  2  3  1  0
  3  4  1  0
  4  5  1  0
  5  6  2  0
  5  7  1  0
  7  8  1  0
  8  9  2  0
  9 10  1  0
 10 11  2  0
 11 12  1  0
 12 13  1  0
 13 14  1  0
 13 15  2  0
 11 16  1  0
 16 17  2  0
  3 18  1  0
 18 19  2  0
 18 20  1  0
 20 21  1  0
 21 22  2  3
 22 23  1  0
 23 24  1  0
 24 25  2  0
 25 26  1  0
 26 27  2  0
 27 28  1  0
 17  8  1  0
 27 22  1  0
  1 29  1  0
  1 30  1  0
  1 31  1  0
  2 32  1  0
  2 33  1  0
  4 34  1  0
  4 35  1  0
  7 36  1  0
  9 37  1  0
 10 38  1  0
 14 39  1  0
 14 40  1  0
 14 41  1  0
 16 42  1  0
 17 43  1  0
 20 44  1  0
 20 45  1  0
 24 46  1  0
 25 47  1  0
 26 48  1  0
M  CHG  3  12  -1  23  -1  28  -1
M  END
>  <UniqueID>  (56) 
54

>  <SMILES>  (56) 
CCN(CC(=O)Nc1ccc([N-]C(C)=O)cc1)C(=O)CN=c1[n-]cccc1[O-]

>  <Energy>  (56) 
43.72834836187408

>  <Genealogy>  (56) 
CCN(CC(=O)Nc1ccc([N-]C(C)=O)cc1)C(=O)CN=c1[n-]cccc1[O-] (protonated)
CCN(CC(=O)Nc1ccc([N-]C(C)=O)cc1)C(=O)CN=c1[n-]cccc1[O-] (3D coordinates assigned)
CCN(CC(=O)Nc1ccc([N-]C(C)=O)cc1)C(=O)CN=c1[n-]cccc1[O-] (optimized conformer: 43.72834836187408 kcal/mol)

>  <smiles>  (56) 
CCN(CC(=O)Nc1ccc(NC(C)=O)cc1)C(=O)CN=c1[nH]cccc1O

>  <score_type>  (56) 
oracle

>  <origin>  (56) 
adg

>  <m_score__min__energy>  (56) 
-13.93

>  <m_primary>  (56) 
energy

$$$$
56:0
     RDKit          3D

 44 47  0  0  0  0  0  0  0  0999 V2000
   57.8060   32.3040   41.8880 C   0  0  0  0  0  0  0  0  0  0  0  0
   58.0550   32.4640   43.3580 C   0  0  0  0  0  0  0  0  0  0  0  0
   58.6260   33.6260   43.7770 N   0  0  0  0  0  0  0  0  0  0  0  0
   58.8860   33.8280   45.0890 C   0  0  0  0  0  0  0  0  0  0  0  0
   59.5810   35.2070   45.7370 S   0  0  0  0  0  0  0  0  0  0  0  0
   59.5370   34.6000   47.3100 C   0  0  0  0  0  0  0  0  0  0  0  0
   58.9730   33.3200   47.2850 C   0  0  0  0  0  0  0  0  0  0  0  0
   58.8130   32.5060   48.5370 C   0  0  0  0  0  0  0  0  0  0  0  0
   58.6060   32.8960   46.0280 N   0  0  0  0  0  0  0  0  0  0  0  0
   58.0230   31.7110   45.6700 C   0  0  0  0  0  0  0  0  0  0  0  0
   57.7660   30.8330   46.5390 O   0  0  0  0  0  0  0  0  0  0  0  0
   57.7070   31.4700   44.3120 C   0  0  0  0  0  0  0  0  0  0  0  0
   56.8740   29.9550   43.8780 S   0  0  0  0  0  0  0  0  0  0  0  0
   56.2000   30.1410   42.5500 O   0  0  0  0  0  0  0  0  0  0  0  0
   55.8410   29.5470   44.8930 O   0  0  0  0  0  0  0  0  0  0  0  0
   58.0360   28.6720   43.7500 N   0  0  0  0  0  0  0  0  0  0  0  0
   58.0560   27.5020   44.5810 C   0  0  0  0  0  0  0  0  0  0  0  0
   58.4060   27.6460   45.9450 C   0  0  0  0  0  0  0  0  0  0  0  0
   58.4260   26.5320   46.8050 C   0  0  0  0  0  0  0  0  0  0  0  0
   58.0860   25.2900   46.2740 C   0  0  0  0  0  0  0  0  0  0  0  0
   58.0500   24.1360   46.8960 O   0  0  0  0  0  0  0  0  0  0  0  0
   57.7060   23.2140   46.0160 C   0  0  0  0  0  0  0  0  0  0  0  0
   57.6040   21.7860   46.3650 C   0  0  0  0  0  0  0  0  0  0  0  0
   58.1990   20.7790   45.5430 N   0  0  0  0  0  0  0  0  0  0  0  0
   57.0370   21.4540   47.4420 O   0  0  0  0  0  0  0  0  0  0  0  0
   57.4770   23.8040   44.7680 C   0  0  0  0  0  0  0  0  0  0  0  0
   57.0110   23.1610   43.4990 C   0  0  0  0  0  0  0  0  0  0  0  0
   57.7470   25.1400   44.9550 C   0  0  0  0  0  0  0  0  0  0  0  0
   57.7240   26.2190   44.0720 C   0  0  0  0  0  0  0  0  0  0  0  0
   56.8898   31.7153   41.7333 H   0  0  0  0  0  0  0  0  0  0  0  0
   57.6873   33.2953   41.4262 H   0  0  0  0  0  0  0  0  0  0  0  0
   58.6583   31.7841   41.4262 H   0  0  0  0  0  0  0  0  0  0  0  0
   59.8935   35.1248   48.2086 H   0  0  0  0  0  0  0  0  0  0  0  0
   58.9407   33.1556   49.4155 H   0  0  0  0  0  0  0  0  0  0  0  0
   57.8093   32.0563   48.5562 H   0  0  0  0  0  0  0  0  0  0  0  0
   59.5718   31.7099   48.5562 H   0  0  0  0  0  0  0  0  0  0  0  0
   58.6654   28.6403   46.3375 H   0  0  0  0  0  0  0  0  0  0  0  0
   58.7018   26.6390   47.8645 H   0  0  0  0  0  0  0  0  0  0  0  0
   58.8190   21.0270   44.7410 H   0  0  0  0  0  0  0  0  0  0  0  0
   58.0840   19.7710   45.7840 H   0  0  0  0  0  0  0  0  0  0  0  0
   56.3810   22.2916   43.7383 H   0  0  0  0  0  0  0  0  0  0  0  0
   56.4276   23.8865   42.9131 H   0  0  0  0  0  0  0  0  0  0  0  0
   57.8821   22.8324   42.9131 H   0  0  0  0  0  0  0  0  0  0  0  0
   57.4569   26.0804   43.0140 H   0  0  0  0  0  0  0  0  0  0  0  0
  1  2  1  0
  2  3  1  0
  3  4  2  0
  4  5  1  0
  5  6  1  0
  6  7  2  0
  7  8  1  0
  7  9  1  0
  9 10  1  0
 10 11  2  0
 10 12  1  0
 12 13  1  0
 13 14  2  0
 13 15  2  0
 13 16  1  0
 16 17  1  0
 17 18  2  0
 18 19  1  0
 19 20  2  0
 20 21  1  0
 21 22  1  0
 22 23  1  0
 23 24  1  0
 23 25  2  0
 22 26  2  0
 26 27  1  0
 26 28  1  0
 28 29  2  0
 12  2  2  0
 29 17  1  0
  9  4  1  0
 28 20  1  0
  1 30  1  0
  1 31  1  0
  1 32  1  0
  6 33  1  0
  8 34  1  0
  8 35  1  0
  8 36  1  0
 18 37  1  0
 19 38  1  0
 24 39  1  0
 24 40  1  0
 27 41  1  0
 27 42  1  0
 27 43  1  0
 29 44  1  0
M  CHG  1  16  -1
M  END
>  <UniqueID>  (57) 
55

>  <SMILES>  (57) 
Cc1nc2scc(C)n2c(=O)c1S(=O)(=O)[N-]c1ccc2oc(C(N)=O)c(C)c2c1

>  <Energy>  (57) 
124.52128835652802

>  <Genealogy>  (57) 
Cc1nc2scc(C)n2c(=O)c1S(=O)(=O)[N-]c1ccc2oc(C(N)=O)c(C)c2c1 (protonated)
Cc1nc2scc(C)n2c(=O)c1S(=O)(=O)[N-]c1ccc2oc(C(N)=O)c(C)c2c1 (3D coordinates assigned)
Cc1nc2scc(C)n2c(=O)c1S(=O)(=O)[N-]c1ccc2oc(C(N)=O)c(C)c2c1 (optimized conformer: 124.52128835652802 kcal/mol)

>  <smiles>  (57) 
Cc1nc2scc(C)n2c(=O)c1S(=O)(=O)Nc1ccc2oc(C(N)=O)c(C)c2c1

>  <score_type>  (57) 
oracle

>  <origin>  (57) 
adg

>  <m_score__min__energy>  (57) 
-11.1

>  <m_primary>  (57) 
energy

$$$$
57:0
     RDKit          3D

 46 49  0  0  0  0  0  0  0  0999 V2000
   53.9180   26.7190   46.3770 H   0  0  0  0  0  0  0  0  0  0  0  0
   54.7210   26.2050   45.9510 N   0  0  0  0  0  0  0  0  0  0  0  0
   55.9340   26.6370   46.0760 C   0  0  0  0  0  0  0  0  0  0  0  0
   56.8730   25.9610   46.7850 N   0  0  0  0  0  0  0  0  0  0  0  0
   57.9480   26.7510   46.6500 C   0  0  0  0  0  0  0  0  0  0  0  0
   59.2290   26.5310   47.1520 C   0  0  0  0  0  0  0  0  0  0  0  0
   59.4556   25.6458   47.7645 H   0  0  0  0  0  0  0  0  0  0  0  0
   60.2220   27.4790   46.8490 C   0  0  0  0  0  0  0  0  0  0  0  0
   61.2459   27.3373   47.2252 H   0  0  0  0  0  0  0  0  0  0  0  0
   59.9130   28.6130   46.0640 C   0  0  0  0  0  0  0  0  0  0  0  0
   60.7027   29.3396   45.8224 H   0  0  0  0  0  0  0  0  0  0  0  0
   58.6040   28.8220   45.5880 C   0  0  0  0  0  0  0  0  0  0  0  0
   58.3220   29.9500   44.8050 O   0  0  0  0  0  0  0  0  0  0  0  0
   58.1650   31.2550   45.2940 C   0  0  0  0  0  0  0  0  0  0  0  0
   57.0530   31.9980   44.8840 C   0  0  0  0  0  0  0  0  0  0  0  0
   56.3284   31.5571   44.1836 H   0  0  0  0  0  0  0  0  0  0  0  0
   56.8580   33.2960   45.3590 C   0  0  0  0  0  0  0  0  0  0  0  0
   55.9729   33.8682   45.0442 H   0  0  0  0  0  0  0  0  0  0  0  0
   57.7840   33.8700   46.2330 C   0  0  0  0  0  0  0  0  0  0  0  0
   57.6139   34.8854   46.6204 H   0  0  0  0  0  0  0  0  0  0  0  0
   58.9280   33.1600   46.6190 C   0  0  0  0  0  0  0  0  0  0  0  0
   59.8460   33.7790   47.5310 N   0  0  0  0  0  0  0  0  0  0  0  0
   60.6370   33.1190   48.5300 C   0  0  0  0  0  0  0  0  0  0  0  0
   61.7050   33.6490   48.9420 O   0  0  0  0  0  0  0  0  0  0  0  0
   60.1720   31.8420   49.1190 C   0  0  0  0  0  0  0  0  0  0  0  0
   60.9080   30.6590   48.9270 C   0  0  0  0  0  0  0  0  0  0  0  0
   61.8371   30.6838   48.3386 H   0  0  0  0  0  0  0  0  0  0  0  0
   60.4690   29.4540   49.4770 C   0  0  0  0  0  0  0  0  0  0  0  0
   61.0518   28.5344   49.3199 H   0  0  0  0  0  0  0  0  0  0  0  0
   59.2920   29.4130   50.2260 C   0  0  0  0  0  0  0  0  0  0  0  0
   58.9526   28.4591   50.6559 H   0  0  0  0  0  0  0  0  0  0  0  0
   58.5400   30.5740   50.4350 C   0  0  0  0  0  0  0  0  0  0  0  0
   57.3630   30.4690   51.1950 O   0  0  0  0  0  0  0  0  0  0  0  0
   56.7400   31.5330   51.9160 C   0  0  0  0  0  0  0  0  0  0  0  0
   56.3949   32.2974   51.2042 H   0  0  0  0  0  0  0  0  0  0  0  0
   55.8894   31.1250   52.4818 H   0  0  0  0  0  0  0  0  0  0  0  0
   57.7200   32.1690   52.8970 C   0  0  0  0  0  0  0  0  0  0  0  0
   57.3961   31.9588   53.9270 H   0  0  0  0  0  0  0  0  0  0  0  0
   58.7242   31.7500   52.7357 H   0  0  0  0  0  0  0  0  0  0  0  0
   57.7463   33.2568   52.7357 H   0  0  0  0  0  0  0  0  0  0  0  0
   58.9830   31.7880   49.8730 C   0  0  0  0  0  0  0  0  0  0  0  0
   58.3936   32.7043   50.0248 H   0  0  0  0  0  0  0  0  0  0  0  0
   59.1120   31.8460   46.1520 C   0  0  0  0  0  0  0  0  0  0  0  0
   60.0015   31.2765   46.4591 H   0  0  0  0  0  0  0  0  0  0  0  0
   57.6450   27.8460   45.8950 C   0  0  0  0  0  0  0  0  0  0  0  0
   56.3620   27.7920   45.5050 N   0  0  0  0  0  0  0  0  0  0  0  0
  1  2  1  0
  2  3  2  0
  3  4  1  0
  4  5  1  0
  5  6  2  0
  6  7  1  0
  6  8  1  0
  8  9  1  0
  8 10  2  0
 10 11  1  0
 10 12  1  0
 12 13  1  0
 13 14  1  0
 14 15  2  0
 15 16  1  0
 15 17  1  0
 17 18  1  0
 17 19  2  0
 19 20  1  0
 19 21  1  0
 21 22  1  0
 22 23  1  0
 23 24  2  0
 23 25  1  0
 25 26  2  0
 26 27  1  0
 26 28  1  0
 28 29  1  0
 28 30  2  0
 30 31  1  0
 30 32  1  0
 32 33  1  0
 33 34  1  0
 34 35  1  0
 34 36  1  0
 34 37  1  0
 37 38  1  0
 37 39  1  0
 37 40  1  0
 32 41  2  0
 41 42  1  0
 21 43  2  0
 43 44  1  0
 12 45  2  0
 45 46  1  0
 46  3  1  0
 45  5  1  0
 43 14  1  0
 41 25  1  0
M  CHG  3   4  -1  22  -1  46  -1
M  END
>  <UniqueID>  (58) 
56

>  <SMILES>  (58) 
[H]/N=c1/[n-]c2cccc(Oc3cccc([N-]C(=O)c4cccc(OCC)c4)c3)c2[n-]1

>  <Energy>  (58) 
94.12286640054742

>  <Genealogy>  (58) 
CCOc1cccc(C(=O)[N-]c2cccc(Oc3cccc4[n-]c(=N)[n-]c34)c2)c1 (protonated)
[H]/N=c1/[n-]c2cccc(Oc3cccc([N-]C(=O)c4cccc(OCC)c4)c3)c2[n-]1 (cis-trans isomerization)
[H]/N=c1/[n-]c2cccc(Oc3cccc([N-]C(=O)c4cccc(OCC)c4)c3)c2[n-]1 (3D coordinates assigned)
[H]/N=c1/[n-]c2cccc(Oc3cccc([N-]C(=O)c4cccc(OCC)c4)c3)c2[n-]1 (optimized conformer: 94.12286640054742 kcal/mol)

>  <smiles>  (58) 
CCOc1cccc(C(=O)Nc2cccc(Oc3cccc4[nH]c(=N)[nH]c34)c2)c1

>  <score_type>  (58) 
oracle

>  <origin>  (58) 
adg

>  <m_score__min__energy>  (58) 
-14.609999999999999

>  <m_primary>  (58) 
energy

$$$$
58:0
     RDKit          3D

 36 38  0  0  0  0  0  0  0  0999 V2000
   59.7480   26.7470   47.8440 O   0  0  0  0  0  0  0  0  0  0  0  0
   59.6350   27.8990   47.3480 C   0  0  0  0  0  0  0  0  0  0  0  0
   60.7050   28.8360   47.5100 N   0  0  0  0  0  0  0  0  0  0  0  0
   60.8590   29.6990   48.6740 C   0  0  0  0  0  0  0  0  0  0  0  0
   61.7560   30.8400   48.3270 C   0  0  0  0  0  0  0  0  0  0  0  0
   62.4380   31.6340   49.2270 C   0  0  0  0  0  0  0  0  0  0  0  0
   63.1550   32.5280   48.4620 C   0  0  0  0  0  0  0  0  0  0  0  0
   62.8700   32.2210   47.1460 C   0  0  0  0  0  0  0  0  0  0  0  0
   62.0360   31.2080   47.0980 O   0  0  0  0  0  0  0  0  0  0  0  0
   58.4110   28.2430   46.5960 C   0  0  0  0  0  0  0  0  0  0  0  0
   58.2860   29.4790   45.9330 C   0  0  0  0  0  0  0  0  0  0  0  0
   59.3180   30.4780   46.0220 N   0  0  0  0  0  0  0  0  0  0  0  0
   59.0260   31.8760   46.1550 C   0  0  0  0  0  0  0  0  0  0  0  0
   59.3520   32.5310   47.3520 C   0  0  0  0  0  0  0  0  0  0  0  0
   59.0790   33.8920   47.5120 C   0  0  0  0  0  0  0  0  0  0  0  0
   58.4900   34.6130   46.4720 C   0  0  0  0  0  0  0  0  0  0  0  0
   58.1830   33.9790   45.2660 C   0  0  0  0  0  0  0  0  0  0  0  0
   58.4540   32.6150   45.0950 C   0  0  0  0  0  0  0  0  0  0  0  0
   58.1410   31.8860   43.5250 Cl  0  0  0  0  0  0  0  0  0  0  0  0
   57.1510   29.7450   45.2340 N   0  0  0  0  0  0  0  0  0  0  0  0
   56.1400   28.8460   45.1450 C   0  0  0  0  0  0  0  0  0  0  0  0
   55.1070   29.1350   44.4840 O   0  0  0  0  0  0  0  0  0  0  0  0
   56.2420   27.6400   45.7680 N   0  0  0  0  0  0  0  0  0  0  0  0
   55.2120   26.7300   45.6670 O   0  0  0  0  0  0  0  0  0  0  0  0
   57.3580   27.3200   46.4830 C   0  0  0  0  0  0  0  0  0  0  0  0
   57.4450   26.1870   47.0320 O   0  0  0  0  0  0  0  0  0  0  0  0
   59.8748   30.0847   48.9782 H   0  0  0  0  0  0  0  0  0  0  0  0
   61.2977   29.1245   49.5031 H   0  0  0  0  0  0  0  0  0  0  0  0
   62.4141   31.5670   50.3247 H   0  0  0  0  0  0  0  0  0  0  0  0
   63.8200   33.3251   48.8259 H   0  0  0  0  0  0  0  0  0  0  0  0
   63.2798   32.7458   46.2704 H   0  0  0  0  0  0  0  0  0  0  0  0
   60.3020   30.1740   46.1990 H   0  0  0  0  0  0  0  0  0  0  0  0
   59.8259   31.9692   48.1704 H   0  0  0  0  0  0  0  0  0  0  0  0
   59.3283   34.3954   48.4578 H   0  0  0  0  0  0  0  0  0  0  0  0
   58.2673   35.6823   46.6025 H   0  0  0  0  0  0  0  0  0  0  0  0
   57.7263   34.5533   44.4465 H   0  0  0  0  0  0  0  0  0  0  0  0
  1  2  2  0
  2  3  1  0
  3  4  1  0
  4  5  1  0
  5  6  2  0
  6  7  1  0
  7  8  2  0
  8  9  1  0
  2 10  1  0
 10 11  2  0
 11 12  1  0
 12 13  1  0
 13 14  2  0
 14 15  1  0
 15 16  2  0
 16 17  1  0
 17 18  2  0
 18 19  1  0
 11 20  1  0
 20 21  1  0
 21 22  2  0
 21 23  1  0
 23 24  1  0
 23 25  1  0
 25 26  2  0
  9  5  1  0
 25 10  1  0
 18 13  1  0
  4 27  1  0
  4 28  1  0
  6 29  1  0
  7 30  1  0
  8 31  1  0
 12 32  1  0
 14 33  1  0
 15 34  1  0
 16 35  1  0
 17 36  1  0
M  CHG  3   3  -1  20  -1  24  -1
M  END
>  <UniqueID>  (59) 
57

>  <SMILES>  (59) 
O=C([N-]Cc1ccco1)c1c(Nc2ccccc2Cl)[n-]c(=O)n([O-])c1=O

>  <Energy>  (59) 
77.79048567370471

>  <Genealogy>  (59) 
O=C([N-]Cc1ccco1)c1c(Nc2ccccc2Cl)[n-]c(=O)n([O-])c1=O (protonated)
O=C([N-]Cc1ccco1)c1c(Nc2ccccc2Cl)[n-]c(=O)n([O-])c1=O (3D coordinates assigned)
O=C([N-]Cc1ccco1)c1c(Nc2ccccc2Cl)[n-]c(=O)n([O-])c1=O (optimized conformer: 77.79048567370471 kcal/mol)

>  <smiles>  (59) 
O=C(NCc1ccco1)c1c(Nc2ccccc2Cl)[nH]c(=O)n(O)c1=O

>  <score_type>  (59) 
oracle

>  <origin>  (59) 
adg

>  <m_score__min__energy>  (59) 
-14.06

>  <m_primary>  (59) 
energy

$$$$
59:0
     RDKit          3D

 46 48  0  0  0  0  0  0  0  0999 V2000
   59.4270   35.0270   45.6160 C   0  0  0  0  0  0  0  0  0  0  0  0
   58.8880   33.6680   45.2600 C   0  0  0  0  0  0  0  0  0  0  0  0
   58.1510   33.5060   44.0760 C   0  0  0  0  0  0  0  0  0  0  0  0
   57.6410   32.2560   43.7240 C   0  0  0  0  0  0  0  0  0  0  0  0
   57.8560   31.1450   44.5430 C   0  0  0  0  0  0  0  0  0  0  0  0
   57.2870   29.8860   44.1570 N   0  0  0  0  0  0  0  0  0  0  0  0
   56.5100   29.0080   44.9830 C   0  0  0  0  0  0  0  0  0  0  0  0
   55.3000   29.2780   45.2150 O   0  0  0  0  0  0  0  0  0  0  0  0
   57.1310   27.8100   45.6130 C   0  0  0  0  0  0  0  0  0  0  0  0
   58.5340   27.7510   45.7500 C   0  0  0  0  0  0  0  0  0  0  0  0
   59.1480   26.6400   46.3350 C   0  0  0  0  0  0  0  0  0  0  0  0
   58.3770   25.5730   46.7930 C   0  0  0  0  0  0  0  0  0  0  0  0
   56.9880   25.6140   46.6690 C   0  0  0  0  0  0  0  0  0  0  0  0
   56.3600   26.7210   46.0850 C   0  0  0  0  0  0  0  0  0  0  0  0
   54.9730   26.7160   45.9830 O   0  0  0  0  0  0  0  0  0  0  0  0
   58.5560   31.3060   45.7500 C   0  0  0  0  0  0  0  0  0  0  0  0
   59.0920   32.5560   46.1100 C   0  0  0  0  0  0  0  0  0  0  0  0
   59.7860   32.7120   47.3610 N   0  0  0  0  0  0  0  0  0  0  0  0
   60.9110   31.9110   47.7480 C   0  0  0  0  0  0  0  0  0  0  0  0
   61.4500   31.1230   46.9240 O   0  0  0  0  0  0  0  0  0  0  0  0
   61.4410   32.0410   49.0690 N   0  0  0  0  0  0  0  0  0  0  0  0
   60.9870   33.3340   50.1270 S   0  0  0  0  0  0  0  0  0  0  0  0
   62.0730   33.5450   51.1450 O   0  0  0  0  0  0  0  0  0  0  0  0
   60.8220   34.5900   49.3180 O   0  0  0  0  0  0  0  0  0  0  0  0
   59.4890   32.9320   50.9580 C   0  0  0  0  0  0  0  0  0  0  0  0
   58.8050   31.7500   50.6380 C   0  0  0  0  0  0  0  0  0  0  0  0
   57.6150   31.4270   51.2960 C   0  0  0  0  0  0  0  0  0  0  0  0
   57.1060   32.2780   52.2800 C   0  0  0  0  0  0  0  0  0  0  0  0
   57.7870   33.4540   52.6090 C   0  0  0  0  0  0  0  0  0  0  0  0
   58.9780   33.7800   51.9510 C   0  0  0  0  0  0  0  0  0  0  0  0
   59.4679   35.1301   46.7104 H   0  0  0  0  0  0  0  0  0  0  0  0
   60.4385   35.1411   45.1989 H   0  0  0  0  0  0  0  0  0  0  0  0
   58.7687   35.8033   45.1989 H   0  0  0  0  0  0  0  0  0  0  0  0
   57.9743   34.3716   43.4206 H   0  0  0  0  0  0  0  0  0  0  0  0
   57.0647   32.1444   42.7937 H   0  0  0  0  0  0  0  0  0  0  0  0
   59.1513   28.5884   45.3926 H   0  0  0  0  0  0  0  0  0  0  0  0
   60.2430   26.6076   46.4342 H   0  0  0  0  0  0  0  0  0  0  0  0
   58.8632   24.6994   47.2518 H   0  0  0  0  0  0  0  0  0  0  0  0
   56.3820   24.7710   47.0325 H   0  0  0  0  0  0  0  0  0  0  0  0
   58.6867   30.4447   46.4217 H   0  0  0  0  0  0  0  0  0  0  0  0
   59.4970   33.4800   48.0080 H   0  0  0  0  0  0  0  0  0  0  0  0
   59.2062   31.0755   49.8672 H   0  0  0  0  0  0  0  0  0  0  0  0
   57.0786   30.5017   51.0388 H   0  0  0  0  0  0  0  0  0  0  0  0
   56.1688   32.0227   52.7963 H   0  0  0  0  0  0  0  0  0  0  0  0
   57.3865   34.1228   53.3851 H   0  0  0  0  0  0  0  0  0  0  0  0
   59.5147   34.7037   52.2133 H   0  0  0  0  0  0  0  0  0  0  0  0
  1  2  1  0
  2  3  2  0
  3  4  1  0
  4  5  2  0
  5  6  1  0
  6  7  1  0
  7  8  2  0
  7  9  1  0
  9 10  2  0
 10 11  1  0
 11 12  2  0
 12 13  1  0
 13 14  2  0
 14 15  1  0
  5 16  1  0
 16 17  2  0
 17 18  1  0
 18 19  1  0
 19 20  2  0
 19 21  1  0
 21 22  1  0
 22 23  2  0
 22 24  2  0
 22 25  1  0
 25 26  2  0
 26 27  1  0
 27 28  2  0
 28 29  1  0
 29 30  2  0
 17  2  1  0
 30 25  1  0
 14  9  1  0
  1 31  1  0
  1 32  1  0
  1 33  1  0
  3 34  1  0
  4 35  1  0
 10 36  1  0
 11 37  1  0
 12 38  1  0
 13 39  1  0
 16 40  1  0
 18 41  1  0
 26 42  1  0
 27 43  1  0
 28 44  1  0
 29 45  1  0
 30 46  1  0
M  CHG  3   6  -1  15  -1  21  -1
M  END
>  <UniqueID>  (60) 
58

>  <SMILES>  (60) 
Cc1ccc([N-]C(=O)c2ccccc2[O-])cc1NC(=O)[N-]S(=O)(=O)c1ccccc1

>  <Energy>  (60) 
60.628181657186396

>  <Genealogy>  (60) 
Cc1ccc([N-]C(=O)c2ccccc2[O-])cc1NC(=O)[N-]S(=O)(=O)c1ccccc1 (protonated)
Cc1ccc([N-]C(=O)c2ccccc2[O-])cc1NC(=O)[N-]S(=O)(=O)c1ccccc1 (3D coordinates assigned)
Cc1ccc([N-]C(=O)c2ccccc2[O-])cc1NC(=O)[N-]S(=O)(=O)c1ccccc1 (optimized conformer: 60.628181657186396 kcal/mol)

>  <smiles>  (60) 
Cc1ccc(NC(=O)c2ccccc2O)cc1NC(=O)NS(=O)(=O)c1ccccc1

>  <score_type>  (60) 
oracle

>  <origin>  (60) 
adg

>  <m_score__min__energy>  (60) 
-15.59

>  <m_primary>  (60) 
energy

$$$$
60:0
     RDKit          3D

 55 58  0  0  0  0  0  0  0  0999 V2000
   59.5980   34.0320   48.2850 C   0  0  0  0  0  0  0  0  0  0  0  0
   59.3580   32.7300   47.0970 S   0  0  0  0  0  0  0  0  0  0  0  0
   57.9440   32.2350   47.2100 O   0  0  0  0  0  0  0  0  0  0  0  0
   59.5850   33.2550   45.7090 O   0  0  0  0  0  0  0  0  0  0  0  0
   60.4680   31.4340   47.4160 N   0  0  0  0  0  0  0  0  0  0  0  0
   60.7120   30.4240   46.3810 C   0  0  0  0  0  0  0  0  0  0  0  0
   59.4700   29.6110   46.1420 C   0  0  0  0  0  0  0  0  0  0  0  0
   59.1860   28.5030   46.9520 C   0  0  0  0  0  0  0  0  0  0  0  0
   58.0010   27.7870   46.7720 C   0  0  0  0  0  0  0  0  0  0  0  0
   57.0850   28.1760   45.7900 C   0  0  0  0  0  0  0  0  0  0  0  0
   55.9410   27.4630   45.6340 F   0  0  0  0  0  0  0  0  0  0  0  0
   57.3460   29.2950   44.9770 C   0  0  0  0  0  0  0  0  0  0  0  0
   56.3440   29.7060   43.9260 C   0  0  0  0  0  0  0  0  0  0  0  0
   55.0700   29.3570   44.3370 F   0  0  0  0  0  0  0  0  0  0  0  0
   56.6310   29.0540   42.7410 F   0  0  0  0  0  0  0  0  0  0  0  0
   56.3720   31.0720   43.6950 F   0  0  0  0  0  0  0  0  0  0  0  0
   58.5470   30.0080   45.1620 C   0  0  0  0  0  0  0  0  0  0  0  0
   61.3720   31.5500   48.5230 C   0  0  0  0  0  0  0  0  0  0  0  0
   62.4630   32.4260   48.4210 C   0  0  0  0  0  0  0  0  0  0  0  0
   63.3600   32.5660   49.4810 C   0  0  0  0  0  0  0  0  0  0  0  0
   63.1740   31.8350   50.6540 C   0  0  0  0  0  0  0  0  0  0  0  0
   62.0930   30.9600   50.7720 C   0  0  0  0  0  0  0  0  0  0  0  0
   61.1840   30.7990   49.7090 C   0  0  0  0  0  0  0  0  0  0  0  0
   60.0140   29.8580   49.8860 C   0  0  0  0  0  0  0  0  0  0  0  0
   58.8770   30.5350   50.5860 C   0  0  0  0  0  0  0  0  0  0  0  0
   57.8020   29.8730   51.0640 N   0  0  0  0  0  0  0  0  0  0  0  0
   57.0280   30.8430   51.5850 C   0  0  0  0  0  0  0  0  0  0  0  0
   55.7310   30.5850   52.2570 C   0  0  0  0  0  0  0  0  0  0  0  0
   54.5050   30.8410   51.6130 C   0  0  0  0  0  0  0  0  0  0  0  0
   53.2940   30.6040   52.2730 C   0  0  0  0  0  0  0  0  0  0  0  0
   53.2910   30.1090   53.5790 C   0  0  0  0  0  0  0  0  0  0  0  0
   51.7720   29.8170   54.4060 Cl  0  0  0  0  0  0  0  0  0  0  0  0
   54.5020   29.8470   54.2280 C   0  0  0  0  0  0  0  0  0  0  0  0
   55.7150   30.0830   53.5730 C   0  0  0  0  0  0  0  0  0  0  0  0
   57.6460   32.0630   51.3940 C   0  0  0  0  0  0  0  0  0  0  0  0
   58.8140   31.8710   50.7570 N   0  0  0  0  0  0  0  0  0  0  0  0
   59.5219   33.6192   49.3018 H   0  0  0  0  0  0  0  0  0  0  0  0
   60.5935   34.4782   48.1439 H   0  0  0  0  0  0  0  0  0  0  0  0
   58.8270   34.8038   48.1439 H   0  0  0  0  0  0  0  0  0  0  0  0
   61.0030   30.9254   45.4461 H   0  0  0  0  0  0  0  0  0  0  0  0
   61.5183   29.7552   46.7167 H   0  0  0  0  0  0  0  0  0  0  0  0
   59.8988   28.1966   47.7318 H   0  0  0  0  0  0  0  0  0  0  0  0
   57.7872   26.9134   47.4053 H   0  0  0  0  0  0  0  0  0  0  0  0
   58.7633   30.8838   44.5326 H   0  0  0  0  0  0  0  0  0  0  0  0
   62.6126   33.0068   47.4989 H   0  0  0  0  0  0  0  0  0  0  0  0
   64.2141   33.2533   49.3912 H   0  0  0  0  0  0  0  0  0  0  0  0
   63.8814   31.9483   51.4887 H   0  0  0  0  0  0  0  0  0  0  0  0
   61.9501   30.3917   51.7029 H   0  0  0  0  0  0  0  0  0  0  0  0
   59.6746   29.5171   48.8967 H   0  0  0  0  0  0  0  0  0  0  0  0
   60.3421   29.0050   50.4981 H   0  0  0  0  0  0  0  0  0  0  0  0
   54.4993   31.2299   50.5841 H   0  0  0  0  0  0  0  0  0  0  0  0
   52.3417   30.8082   51.7617 H   0  0  0  0  0  0  0  0  0  0  0  0
   54.5004   29.4546   55.2556 H   0  0  0  0  0  0  0  0  0  0  0  0
   56.6637   29.8750   54.0894 H   0  0  0  0  0  0  0  0  0  0  0  0
   57.2461   33.0370   51.7125 H   0  0  0  0  0  0  0  0  0  0  0  0
  1  2  1  0
  2  3  2  0
  2  4  2  0
  2  5  1  0
  5  6  1  0
  6  7  1  0
  7  8  2  0
  8  9  1  0
  9 10  2  0
 10 11  1  0
 10 12  1  0
 12 13  1  0
 13 14  1  0
 13 15  1  0
 13 16  1  0
 12 17  2  0
  5 18  1  0
 18 19  2  0
 19 20  1  0
 20 21  2  0
 21 22  1  0
 22 23  2  0
 23 24  1  0
 24 25  1  0
 25 26  2  0
 26 27  1  0
 27 28  1  0
 28 29  2  0
 29 30  1  0
 30 31  2  0
 31 32  1  0
 31 33  1  0
 33 34  2  0
 27 35  2  0
 35 36  1  0
 17  7  1  0
 23 18  1  0
 36 25  1  0
 34 28  1  0
  1 37  1  0
  1 38  1  0
  1 39  1  0
  6 40  1  0
  6 41  1  0
  8 42  1  0
  9 43  1  0
 17 44  1  0
 19 45  1  0
 20 46  1  0
 21 47  1  0
 22 48  1  0
 24 49  1  0
 24 50  1  0
 29 51  1  0
 30 52  1  0
 33 53  1  0
 34 54  1  0
 35 55  1  0
M  CHG  1  36  -1
M  END
>  <UniqueID>  (61) 
59

>  <SMILES>  (61) 
CS(=O)(=O)N(Cc1ccc(F)c(C(F)(F)F)c1)c1ccccc1Cc1nc(-c2ccc(Cl)cc2)c[n-]1

>  <Energy>  (61) 
86.50491566410668

>  <Genealogy>  (61) 
CS(=O)(=O)N(Cc1ccc(F)c(C(F)(F)F)c1)c1ccccc1Cc1nc(-c2ccc(Cl)cc2)c[n-]1 (protonated)
CS(=O)(=O)N(Cc1ccc(F)c(C(F)(F)F)c1)c1ccccc1Cc1nc(-c2ccc(Cl)cc2)c[n-]1 (3D coordinates assigned)
CS(=O)(=O)N(Cc1ccc(F)c(C(F)(F)F)c1)c1ccccc1Cc1nc(-c2ccc(Cl)cc2)c[n-]1 (optimized conformer: 86.50491566410668 kcal/mol)

>  <smiles>  (61) 
CS(=O)(=O)N(Cc1ccc(F)c(C(F)(F)F)c1)c1ccccc1Cc1nc(-c2ccc(Cl)cc2)c[nH]1

>  <score_type>  (61) 
oracle

>  <origin>  (61) 
adg

>  <m_score__min__energy>  (61) 
-10.119999999999999

>  <m_primary>  (61) 
energy

$$$$
61:0
     RDKit          3D

 31 31  0  0  0  0  0  0  0  0999 V2000
   56.6650   30.5830   42.9880 C   0  0  0  0  0  0  0  0  0  0  0  0
   56.5910   29.5830   44.4570 S   0  0  0  0  0  0  0  0  0  0  0  0
   57.3170   30.2910   45.5660 O   0  0  0  0  0  0  0  0  0  0  0  0
   55.1510   29.3870   44.8450 O   0  0  0  0  0  0  0  0  0  0  0  0
   57.3360   28.0450   44.1290 N   0  0  0  0  0  0  0  0  0  0  0  0
   58.7710   28.0710   44.4440 C   0  0  0  0  0  0  0  0  0  0  0  0
   58.9980   28.1060   45.9610 C   0  0  0  0  0  0  0  0  0  0  0  0
   57.7440   27.8750   46.6950 N   0  0  0  0  0  0  0  0  0  0  0  0
   57.6850   26.5520   47.3390 C   0  0  0  0  0  0  0  0  0  0  0  0
   57.1830   25.4770   46.3990 C   0  0  0  0  0  0  0  0  0  0  0  0
   57.9690   24.3380   46.1520 C   0  0  0  0  0  0  0  0  0  0  0  0
   57.5220   23.3450   45.2740 C   0  0  0  0  0  0  0  0  0  0  0  0
   58.5120   21.9310   44.9690 Cl  0  0  0  0  0  0  0  0  0  0  0  0
   56.2850   23.4820   44.6380 C   0  0  0  0  0  0  0  0  0  0  0  0
   55.4930   24.6080   44.8780 C   0  0  0  0  0  0  0  0  0  0  0  0
   55.9360   25.6050   45.7560 C   0  0  0  0  0  0  0  0  0  0  0  0
   55.1300   26.7150   45.9840 O   0  0  0  0  0  0  0  0  0  0  0  0
   56.7435   31.6434   43.2698 H   0  0  0  0  0  0  0  0  0  0  0  0
   57.5443   30.2958   42.3928 H   0  0  0  0  0  0  0  0  0  0  0  0
   55.7530   30.4283   42.3928 H   0  0  0  0  0  0  0  0  0  0  0  0
   56.8770   27.3550   44.7690 H   0  0  0  0  0  0  0  0  0  0  0  0
   59.2471   27.1703   44.0293 H   0  0  0  0  0  0  0  0  0  0  0  0
   59.2115   28.9767   44.0017 H   0  0  0  0  0  0  0  0  0  0  0  0
   59.7217   27.3236   46.2331 H   0  0  0  0  0  0  0  0  0  0  0  0
   59.3803   29.1012   46.2318 H   0  0  0  0  0  0  0  0  0  0  0  0
   56.9410   27.9710   46.0300 H   0  0  0  0  0  0  0  0  0  0  0  0
   58.6945   26.2797   47.6808 H   0  0  0  0  0  0  0  0  0  0  0  0
   56.9800   26.6188   48.1807 H   0  0  0  0  0  0  0  0  0  0  0  0
   58.9422   24.2268   46.6526 H   0  0  0  0  0  0  0  0  0  0  0  0
   55.9340   22.7016   43.9468 H   0  0  0  0  0  0  0  0  0  0  0  0
   54.5196   24.7114   44.3762 H   0  0  0  0  0  0  0  0  0  0  0  0
  1  2  1  0
  2  3  2  0
  2  4  2  0
  2  5  1  0
  5  6  1  0
  6  7  1  0
  7  8  1  0
  8  9  1  0
  9 10  1  0
 10 11  2  0
 11 12  1  0
 12 13  1  0
 12 14  2  0
 14 15  1  0
 15 16  2  0
 16 17  1  0
 16 10  1  0
  1 18  1  0
  1 19  1  0
  1 20  1  0
  5 21  1  0
  6 22  1  0
  6 23  1  0
  7 24  1  0
  7 25  1  0
  8 26  1  0
  9 27  1  0
  9 28  1  0
 11 29  1  0
 14 30  1  0
 15 31  1  0
M  CHG  1  17  -1
M  END
>  <UniqueID>  (62) 
60

>  <SMILES>  (62) 
CS(=O)(=O)NCCNCc1cc(Cl)ccc1[O-]

>  <Energy>  (62) 
23.3899570835825

>  <Genealogy>  (62) 
CS(=O)(=O)NCCNCc1cc(Cl)ccc1[O-] (protonated)
CS(=O)(=O)NCCNCc1cc(Cl)ccc1[O-] (3D coordinates assigned)
CS(=O)(=O)NCCNCc1cc(Cl)ccc1[O-] (optimized conformer: 23.3899570835825 kcal/mol)

>  <smiles>  (62) 
CS(=O)(=O)NCCNCc1cc(Cl)ccc1O

>  <score_type>  (62) 
oracle

>  <origin>  (62) 
adg

>  <m_score__min__energy>  (62) 
-10.119999999999999

>  <m_primary>  (62) 
energy

$$$$
62:0
     RDKit          3D

 53 55  0  0  0  0  0  0  0  0999 V2000
   58.2610   29.2570   43.4620 H   0  0  0  0  0  0  0  0  0  0  0  0
   58.5630   28.3640   43.7730 O   0  0  0  0  0  0  0  0  0  0  0  0
   58.0730   28.1980   45.0780 C   0  0  1  0  0  0  0  0  0  0  0  0
   58.0060   27.1223   45.2978 H   0  0  0  0  0  0  0  0  0  0  0  0
   59.0200   28.8310   46.0740 C   0  0  0  0  0  0  0  0  0  0  0  0
   58.8380   28.6580   47.4600 C   0  0  0  0  0  0  0  0  0  0  0  0
   57.9827   28.0736   47.8301 H   0  0  0  0  0  0  0  0  0  0  0  0
   59.7370   29.2240   48.3680 C   0  0  0  0  0  0  0  0  0  0  0  0
   59.5804   29.0944   49.4490 H   0  0  0  0  0  0  0  0  0  0  0  0
   60.8340   29.9540   47.9050 C   0  0  0  0  0  0  0  0  0  0  0  0
   61.5407   30.3984   48.6213 H   0  0  0  0  0  0  0  0  0  0  0  0
   61.0340   30.1200   46.5320 C   0  0  0  0  0  0  0  0  0  0  0  0
   61.9000   30.6924   46.1681 H   0  0  0  0  0  0  0  0  0  0  0  0
   60.1340   29.5590   45.6200 C   0  0  0  0  0  0  0  0  0  0  0  0
   60.2989   29.6882   44.5401 H   0  0  0  0  0  0  0  0  0  0  0  0
   56.6640   28.7970   45.2040 C   0  0  0  0  0  0  0  0  0  0  0  0
   56.4832   29.0789   46.2518 H   0  0  0  0  0  0  0  0  0  0  0  0
   55.9286   28.0458   44.8802 H   0  0  0  0  0  0  0  0  0  0  0  0
   56.5320   29.9830   44.3570 N   0  0  0  0  0  0  0  0  0  0  0  0
   57.1790   31.1030   44.4960 C   0  0  0  0  0  0  0  0  0  0  0  0
   57.6640   31.4290   45.7230 N   0  0  0  0  0  0  0  0  0  0  0  0
   58.3560   32.5790   45.9480 C   0  0  0  0  0  0  0  0  0  0  0  0
   58.8550   32.8900   47.3110 C   0  0  0  0  0  0  0  0  0  0  0  0
   58.1600   32.3590   48.4080 C   0  0  0  0  0  0  0  0  0  0  0  0
   57.2373   31.7838   48.2410 H   0  0  0  0  0  0  0  0  0  0  0  0
   58.6250   32.5520   49.7040 C   0  0  0  0  0  0  0  0  0  0  0  0
   58.0670   32.1337   50.5547 H   0  0  0  0  0  0  0  0  0  0  0  0
   59.7930   33.2720   49.9280 C   0  0  0  0  0  0  0  0  0  0  0  0
   60.1628   33.3989   50.9562 H   0  0  0  0  0  0  0  0  0  0  0  0
   60.5080   33.8400   48.8600 C   0  0  0  0  0  0  0  0  0  0  0  0
   61.8020   34.5590   49.1820 C   0  0  0  0  0  0  0  0  0  0  0  0
   61.6107   35.3265   49.9464 H   0  0  0  0  0  0  0  0  0  0  0  0
   62.1888   35.0295   48.2660 H   0  0  0  0  0  0  0  0  0  0  0  0
   62.7940   33.6110   49.6870 N   0  0  0  0  0  0  0  0  0  0  0  0
   63.1350   33.7510   50.6640 H   0  0  0  0  0  0  0  0  0  0  0  0
   62.9250   32.2920   49.1390 C   0  0  0  0  0  0  0  0  0  0  0  0
   62.8860   31.0050   50.1520 S   0  0  0  0  0  0  0  0  0  0  0  0
   63.2640   32.0830   47.7590 N   0  0  0  0  0  0  0  0  0  0  0  0
   63.3190   31.1020   47.4030 H   0  0  0  0  0  0  0  0  0  0  0  0
   63.7730   33.1440   46.8970 C   0  0  0  0  0  0  0  0  0  0  0  0
   64.1660   33.9632   47.5170 H   0  0  0  0  0  0  0  0  0  0  0  0
   64.5782   32.7459   46.2620 H   0  0  0  0  0  0  0  0  0  0  0  0
   62.9586   33.5229   46.2620 H   0  0  0  0  0  0  0  0  0  0  0  0
   60.0250   33.6720   47.5290 C   0  0  0  0  0  0  0  0  0  0  0  0
   60.7510   34.2780   46.3440 C   0  0  0  0  0  0  0  0  0  0  0  0
   61.5489   34.9440   46.7043 H   0  0  0  0  0  0  0  0  0  0  0  0
   61.1910   33.4753   45.7340 H   0  0  0  0  0  0  0  0  0  0  0  0
   60.0399   34.8543   45.7340 H   0  0  0  0  0  0  0  0  0  0  0  0
   58.5600   33.4630   44.8790 C   0  0  0  0  0  0  0  0  0  0  0  0
   59.1053   34.4053   45.0360 H   0  0  0  0  0  0  0  0  0  0  0  0
   58.0800   33.1480   43.6490 N   0  0  0  0  0  0  0  0  0  0  0  0
   57.3970   31.9950   43.4270 C   0  0  0  0  0  0  0  0  0  0  0  0
   57.0174   31.7597   42.4217 H   0  0  0  0  0  0  0  0  0  0  0  0
  1  2  1  0
  2  3  1  0
  3  4  1  1
  3  5  1  0
  5  6  2  0
  6  7  1  0
  6  8  1  0
  8  9  1  0
  8 10  2  0
 10 11  1  0
 10 12  1  0
 12 13  1  0
 12 14  2  0
 14 15  1  0
  3 16  1  0
 16 17  1  0
 16 18  1  0
 16 19  1  0
 19 20  2  0
 20 21  1  0
 21 22  1  0
 22 23  1  0
 23 24  2  0
 24 25  1  0
 24 26  1  0
 26 27  1  0
 26 28  2  0
 28 29  1  0
 28 30  1  0
 30 31  1  0
 31 32  1  0
 31 33  1  0
 31 34  1  0
 34 35  1  0
 34 36  1  0
 36 37  2  0
 36 38  1  0
 38 39  1  0
 38 40  1  0
 40 41  1  0
 40 42  1  0
 40 43  1  0
 30 44  2  0
 44 45  1  0
 45 46  1  0
 45 47  1  0
 45 48  1  0
 22 49  2  0
 49 50  1  0
 49 51  1  0
 51 52  2  0
 52 53  1  0
 14  5  1  0
 52 20  1  0
 44 23  1  0
M  CHG  1  21  -1
M  END
>  <UniqueID>  (63) 
61

>  <SMILES>  (63) 
CNC(=S)NCc1cccc(-c2cnc/c(=N\C[C@@H](O)c3ccccc3)[n-]2)c1C

>  <Energy>  (63) 
67.33780671543776

>  <Genealogy>  (63) 
CNC(=S)NCc1cccc(-c2cncc(=NCC(O)c3ccccc3)[n-]2)c1C (protonated)
CNC(=S)NCc1cccc(-c2cncc(=NC[C@@H](O)c3ccccc3)[n-]2)c1C (chirality)
CNC(=S)NCc1cccc(-c2cnc/c(=N\C[C@@H](O)c3ccccc3)[n-]2)c1C (cis-trans isomerization)
CNC(=S)NCc1cccc(-c2cnc/c(=N\C[C@@H](O)c3ccccc3)[n-]2)c1C (3D coordinates assigned)
CNC(=S)NCc1cccc(-c2cnc/c(=N\C[C@@H](O)c3ccccc3)[n-]2)c1C (optimized conformer: 67.33780671543776 kcal/mol)

>  <smiles>  (63) 
CNC(=S)NCc1cccc(-c2cncc(=NCC(O)c3ccccc3)[nH]2)c1C

>  <score_type>  (63) 
oracle

>  <origin>  (63) 
adg

>  <m_score__min__energy>  (63) 
-12.359999999999999

>  <m_primary>  (63) 
energy

$$$$
63:0
     RDKit          3D

 53 55  0  0  1  0  0  0  0  0999 V2000
   60.1280   29.9470   46.3740 C   0  0  0  0  0  0  0  0  0  0  0  0
   60.3750   28.5410   45.9010 C   0  0  0  0  0  0  0  0  0  0  0  0
   59.1600   27.7110   46.0840 C   0  0  0  0  0  0  0  0  0  0  0  0
   58.9840   26.8680   47.1570 C   0  0  0  0  0  0  0  0  0  0  0  0
   57.8820   26.1210   47.3140 N   0  0  0  0  0  0  0  0  0  0  0  0
   56.9030   26.1880   46.3980 C   0  0  0  0  0  0  0  0  0  0  0  0
   55.8190   25.5130   46.4680 N   0  0  0  0  0  0  0  0  0  0  0  0
   55.8050   24.0910   46.6690 C   0  0  0  0  0  0  0  0  0  0  0  0
   56.2110   23.4130   45.4130 C   0  0  0  0  0  0  0  0  0  0  0  0
   57.2200   22.4800   45.3390 C   0  0  0  0  0  0  0  0  0  0  0  0
   57.5800   21.8590   44.1560 C   0  0  0  0  0  0  0  0  0  0  0  0
   56.9290   22.1570   42.9790 C   0  0  0  0  0  0  0  0  0  0  0  0
   55.9120   23.0910   43.0240 C   0  0  0  0  0  0  0  0  0  0  0  0
   55.5640   23.7020   44.2110 C   0  0  0  0  0  0  0  0  0  0  0  0
   57.0320   27.0100   45.3150 N   0  0  0  0  0  0  0  0  0  0  0  0
   58.1440   27.7640   45.1540 C   0  0  0  0  0  0  0  0  0  0  0  0
   58.1800   28.5110   44.1030 N   0  0  0  0  0  0  0  0  0  0  0  0
   57.0310   29.0000   43.4210 C   0  0  0  0  0  0  0  0  0  0  0  0
   56.9030   30.4630   43.7710 C   0  0  0  0  0  0  0  0  0  0  0  0
   55.9170   30.7580   44.4860 O   0  0  0  0  0  0  0  0  0  0  0  0
   57.8450   31.4250   43.3120 N   0  0  0  0  0  0  0  0  0  0  0  0
   57.7640   32.8360   43.6190 C   0  0  0  0  0  0  0  0  0  0  0  0
   58.2820   33.1650   44.9550 C   0  0  0  0  0  0  0  0  0  0  0  0
   57.7730   32.4740   46.0400 C   0  0  0  0  0  0  0  0  0  0  0  0
   58.2060   32.7260   47.3380 C   0  0  0  0  0  0  0  0  0  0  0  0
   59.1760   33.6980   47.5570 C   0  0  0  0  0  0  0  0  0  0  0  0
   59.7050   34.4110   46.4780 C   0  0  0  0  0  0  0  0  0  0  0  0
   59.2380   34.1180   45.2160 C   0  0  0  0  0  0  0  0  0  0  0  0
   60.1242   29.9685   47.4738 H   0  0  0  0  0  0  0  0  0  0  0  0
   60.9242   30.6058   45.9971 H   0  0  0  0  0  0  0  0  0  0  0  0
   59.1550   30.2950   45.9971 H   0  0  0  0  0  0  0  0  0  0  0  0
   60.6435   28.5597   44.8344 H   0  0  0  0  0  0  0  0  0  0  0  0
   61.1954   28.1060   46.4907 H   0  0  0  0  0  0  0  0  0  0  0  0
   59.7783   26.8045   47.9154 H   0  0  0  0  0  0  0  0  0  0  0  0
   57.7620   25.4870   48.1290 H   0  0  0  0  0  0  0  0  0  0  0  0
   56.5080   23.8268   47.4727 H   0  0  0  0  0  0  0  0  0  0  0  0
   54.7914   23.7690   46.9499 H   0  0  0  0  0  0  0  0  0  0  0  0
   57.7630   22.2169   46.2588 H   0  0  0  0  0  0  0  0  0  0  0  0
   58.3945   21.1197   44.1554 H   0  0  0  0  0  0  0  0  0  0  0  0
   57.2096   21.6675   42.0347 H   0  0  0  0  0  0  0  0  0  0  0  0
   55.3726   23.3509   42.1012 H   0  0  0  0  0  0  0  0  0  0  0  0
   54.7496   24.4414   44.2098 H   0  0  0  0  0  0  0  0  0  0  0  0
   56.2670   27.0540   44.6080 H   0  0  0  0  0  0  0  0  0  0  0  0
   57.1564   28.8805   42.3347 H   0  0  0  0  0  0  0  0  0  0  0  0
   56.1300   28.4436   43.7186 H   0  0  0  0  0  0  0  0  0  0  0  0
   58.6250   31.0510   42.7210 H   0  0  0  0  0  0  0  0  0  0  0  0
   58.3479   33.3915   42.8703 H   0  0  0  0  0  0  0  0  0  0  0  0
   56.7003   33.1156   43.6011 H   0  0  0  0  0  0  0  0  0  0  0  0
   57.0051   31.7045   45.8720 H   0  0  0  0  0  0  0  0  0  0  0  0
   57.7849   32.1616   48.1831 H   0  0  0  0  0  0  0  0  0  0  0  0
   59.5266   33.9054   48.5788 H   0  0  0  0  0  0  0  0  0  0  0  0
   60.4723   35.1840   46.6321 H   0  0  0  0  0  0  0  0  0  0  0  0
   59.6544   34.6796   44.3667 H   0  0  0  0  0  0  0  0  0  0  0  0
  1  2  1  0
  2  3  1  0
  3  4  2  0
  4  5  1  0
  5  6  1  0
  6  7  2  0
  7  8  1  0
  8  9  1  0
  9 10  2  0
 10 11  1  0
 11 12  2  0
 12 13  1  0
 13 14  2  0
  6 15  1  0
 15 16  1  0
 16 17  2  0
 17 18  1  0
 18 19  1  0
 19 20  2  0
 19 21  1  0
 21 22  1  0
 22 23  1  0
 23 24  2  0
 24 25  1  0
 25 26  2  0
 26 27  1  0
 27 28  2  0
 16  3  1  0
 28 23  1  0
 14  9  1  0
  1 29  1  0
  1 30  1  0
  1 31  1  0
  2 32  1  0
  2 33  1  0
  4 34  1  0
  5 35  1  0
  8 36  1  0
  8 37  1  0
 10 38  1  0
 11 39  1  0
 12 40  1  0
 13 41  1  0
 14 42  1  0
 15 43  1  0
 18 44  1  0
 18 45  1  0
 21 46  1  0
 22 47  1  0
 22 48  1  0
 24 49  1  0
 25 50  1  0
 26 51  1  0
 27 52  1  0
 28 53  1  0
M  END
>  <smiles>  (64) 
CCc1c[nH]c(=NCc2ccccc2)[nH]c1=NCC(=O)NCc1ccccc1

>  <score_type>  (64) 
oracle

>  <origin>  (64) 
adg

>  <m_score__min__energy>  (64) 
-9.4299999999999997

>  <m_primary>  (64) 
energy

$$$$
64:0
     RDKit          3D

 37 38  0  0  0  0  0  0  0  0999 V2000
   61.1424   28.0797   49.6170 H   0  0  0  0  0  0  0  0  0  0  0  0
   60.6350   27.5550   48.7940 C   0  0  0  0  0  0  0  0  0  0  0  0
   61.0538   26.6181   48.3980 H   0  0  0  0  0  0  0  0  0  0  0  0
   59.5050   28.0580   48.2730 C   0  0  0  0  0  0  0  0  0  0  0  0
   58.9520   29.3720   48.7810 C   0  0  0  0  0  0  0  0  0  0  0  0
   57.8926   29.2380   49.0449 H   0  0  0  0  0  0  0  0  0  0  0  0
   59.5340   29.6787   49.6626 H   0  0  0  0  0  0  0  0  0  0  0  0
   59.0590   30.3840   47.7970 O   0  0  0  0  0  0  0  0  0  0  0  0
   58.9120   31.6720   48.3650 C   0  0  0  0  0  0  0  0  0  0  0  0
   57.9808   31.7052   48.9496 H   0  0  0  0  0  0  0  0  0  0  0  0
   59.7764   31.8740   49.0146 H   0  0  0  0  0  0  0  0  0  0  0  0
   58.8580   32.7220   47.2890 C   0  0  0  0  0  0  0  0  0  0  0  0
   60.0390   33.1870   46.6800 C   0  0  0  0  0  0  0  0  0  0  0  0
   61.0147   32.8021   47.0113 H   0  0  0  0  0  0  0  0  0  0  0  0
   59.9760   34.1360   45.6560 C   0  0  0  0  0  0  0  0  0  0  0  0
   60.9017   34.4955   45.1829 H   0  0  0  0  0  0  0  0  0  0  0  0
   58.7390   34.6290   45.2320 C   0  0  0  0  0  0  0  0  0  0  0  0
   58.6916   35.3749   44.4249 H   0  0  0  0  0  0  0  0  0  0  0  0
   57.5610   34.1740   45.8340 C   0  0  0  0  0  0  0  0  0  0  0  0
   56.5880   34.5633   45.4998 H   0  0  0  0  0  0  0  0  0  0  0  0
   57.6180   33.2260   46.8590 C   0  0  0  0  0  0  0  0  0  0  0  0
   56.6894   32.8728   47.3311 H   0  0  0  0  0  0  0  0  0  0  0  0
   58.8160   27.3310   47.1440 C   0  0  0  0  0  0  0  0  0  0  0  0
   59.5710   26.9635   46.4335 H   0  0  0  0  0  0  0  0  0  0  0  0
   58.2460   26.4848   47.5553 H   0  0  0  0  0  0  0  0  0  0  0  0
   57.8990   28.2340   46.4510 N   0  0  0  0  0  0  0  0  0  0  0  0
   58.1950   29.2270   46.3190 H   0  0  0  0  0  0  0  0  0  0  0  0
   56.6480   27.7890   45.9030 C   0  0  0  0  0  0  0  0  0  0  0  0
   56.1390   26.7060   46.2960 O   0  0  0  0  0  0  0  0  0  0  0  0
   55.9240   28.5950   44.9620 N   0  0  0  0  0  0  0  0  0  0  0  0
   56.4040   29.5950   44.2830 C   0  0  0  0  0  0  0  0  0  0  0  0
   57.0260   30.6350   44.8810 N   0  0  0  0  0  0  0  0  0  0  0  0
   57.3940   31.5860   43.9800 C   0  0  0  0  0  0  0  0  0  0  0  0
   57.9222   32.5046   44.2752 H   0  0  0  0  0  0  0  0  0  0  0  0
   57.0540   31.3130   42.6570 C   0  0  0  0  0  0  0  0  0  0  0  0
   57.2645   31.9572   41.7905 H   0  0  0  0  0  0  0  0  0  0  0  0
   56.2660   29.8280   42.6140 S   0  0  0  0  0  0  0  0  0  0  0  0
  1  2  1  0
  2  3  1  0
  2  4  2  0
  4  5  1  0
  5  6  1  0
  5  7  1  0
  5  8  1  0
  8  9  1  0
  9 10  1  0
  9 11  1  0
  9 12  1  0
 12 13  2  0
 13 14  1  0
 13 15  1  0
 15 16  1  0
 15 17  2  0
 17 18  1  0
 17 19  1  0
 19 20  1  0
 19 21  2  0
 21 22  1  0
  4 23  1  0
 23 24  1  0
 23 25  1  0
 23 26  1  0
 26 27  1  0
 26 28  1  0
 28 29  2  0
 28 30  1  0
 30 31  2  0
 31 32  1  0
 32 33  1  0
 33 34  1  0
 33 35  2  0
 35 36  1  0
 35 37  1  0
 21 12  1  0
 37 31  1  0
M  CHG  1  32  -1
M  END
>  <UniqueID>  (65) 
62

>  <SMILES>  (65) 
C=C(CNC(=O)/N=c1/[n-]ccs1)COCc1ccccc1

>  <Energy>  (65) 
68.74118087808773

>  <Genealogy>  (65) 
C=C(CNC(=O)N=c1[n-]ccs1)COCc1ccccc1 (protonated)
C=C(CNC(=O)/N=c1/[n-]ccs1)COCc1ccccc1 (cis-trans isomerization)
C=C(CNC(=O)/N=c1/[n-]ccs1)COCc1ccccc1 (3D coordinates assigned)
C=C(CNC(=O)/N=c1/[n-]ccs1)COCc1ccccc1 (optimized conformer: 68.74118087808773 kcal/mol)

>  <smiles>  (65) 
C=C(CNC(=O)N=c1[nH]ccs1)COCc1ccccc1

>  <score_type>  (65) 
oracle

>  <origin>  (65) 
adg

>  <m_score__min__energy>  (65) 
-9.9600000000000009

>  <m_primary>  (65) 
energy

$$$$
65:0
     RDKit          3D

 46 48  0  0  0  0  0  0  0  0999 V2000
   55.2570   29.3550   45.0230 N   0  0  0  0  0  0  0  0  0  0  0  0
   56.5440   29.7230   43.9290 S   0  0  0  0  0  0  0  0  0  0  0  0
   55.9760   30.1200   42.5940 O   0  0  0  0  0  0  0  0  0  0  0  0
   57.3960   28.4960   43.7490 O   0  0  0  0  0  0  0  0  0  0  0  0
   57.5080   31.0490   44.5730 C   0  0  0  0  0  0  0  0  0  0  0  0
   57.4030   32.3220   44.0010 C   0  0  0  0  0  0  0  0  0  0  0  0
   58.1490   33.3860   44.5110 C   0  0  0  0  0  0  0  0  0  0  0  0
   59.0130   33.1830   45.5910 C   0  0  0  0  0  0  0  0  0  0  0  0
   59.1400   31.9050   46.1670 C   0  0  0  0  0  0  0  0  0  0  0  0
   59.9870   31.6780   47.3070 N   0  0  0  0  0  0  0  0  0  0  0  0
   61.3120   31.1330   47.2150 C   0  0  0  0  0  0  0  0  0  0  0  0
   61.5180   30.1300   46.4780 O   0  0  0  0  0  0  0  0  0  0  0  0
   62.4350   31.7440   47.9660 C   0  0  0  0  0  0  0  0  0  0  0  0
   63.1040   32.8730   47.4610 C   0  0  0  0  0  0  0  0  0  0  0  0
   64.1130   33.4880   48.2060 C   0  0  0  0  0  0  0  0  0  0  0  0
   64.4490   33.0020   49.4740 C   0  0  0  0  0  0  0  0  0  0  0  0
   65.4350   33.6450   50.2150 O   0  0  0  0  0  0  0  0  0  0  0  0
   63.7870   31.8840   49.9990 C   0  0  0  0  0  0  0  0  0  0  0  0
   64.1110   31.4410   51.3270 N   0  0  0  0  0  0  0  0  0  0  0  0
   62.9540   31.0380   52.5560 S   0  0  0  0  0  0  0  0  0  0  0  0
   62.5700   29.5930   52.4060 O   0  0  0  0  0  0  0  0  0  0  0  0
   63.5750   31.2430   53.9090 O   0  0  0  0  0  0  0  0  0  0  0  0
   61.5340   32.0770   52.4170 C   0  0  0  0  0  0  0  0  0  0  0  0
   61.1410   32.8660   53.5040 C   0  0  0  0  0  0  0  0  0  0  0  0
   60.0610   33.7430   53.3790 C   0  0  0  0  0  0  0  0  0  0  0  0
   59.3660   33.8360   52.1700 C   0  0  0  0  0  0  0  0  0  0  0  0
   59.7430   33.0460   51.0700 C   0  0  0  0  0  0  0  0  0  0  0  0
   59.0250   33.1410   49.8260 N   0  0  0  0  0  0  0  0  0  0  0  0
   59.3530   33.9820   48.9630 O   0  0  0  0  0  0  0  0  0  0  0  0
   57.9770   32.2910   49.5580 O   0  0  0  0  0  0  0  0  0  0  0  0
   60.8330   32.1640   51.2060 C   0  0  0  0  0  0  0  0  0  0  0  0
   62.8010   31.2440   49.2270 C   0  0  0  0  0  0  0  0  0  0  0  0
   58.3710   30.8460   45.6580 C   0  0  0  0  0  0  0  0  0  0  0  0
   54.3670   29.4100   44.4800 H   0  0  0  0  0  0  0  0  0  0  0  0
   56.7300   32.4847   43.1462 H   0  0  0  0  0  0  0  0  0  0  0  0
   58.0568   34.3860   44.0622 H   0  0  0  0  0  0  0  0  0  0  0  0
   59.5958   34.0252   45.9922 H   0  0  0  0  0  0  0  0  0  0  0  0
   59.6310   31.9450   48.2540 H   0  0  0  0  0  0  0  0  0  0  0  0
   62.8313   33.2742   46.4737 H   0  0  0  0  0  0  0  0  0  0  0  0
   64.6454   34.3579   47.7940 H   0  0  0  0  0  0  0  0  0  0  0  0
   61.6835   32.7954   54.4583 H   0  0  0  0  0  0  0  0  0  0  0  0
   59.7564   34.3627   54.2353 H   0  0  0  0  0  0  0  0  0  0  0  0
   58.5188   34.5316   52.0786 H   0  0  0  0  0  0  0  0  0  0  0  0
   61.1369   31.5378   50.3542 H   0  0  0  0  0  0  0  0  0  0  0  0
   62.3097   30.3398   49.6156 H   0  0  0  0  0  0  0  0  0  0  0  0
   58.4468   29.8483   46.1151 H   0  0  0  0  0  0  0  0  0  0  0  0
  1  2  1  0
  2  3  2  0
  2  4  2  0
  2  5  1  0
  5  6  2  0
  6  7  1  0
  7  8  2  0
  8  9  1  0
  9 10  1  0
 10 11  1  0
 11 12  2  0
 11 13  1  0
 13 14  2  0
 14 15  1  0
 15 16  2  0
 16 17  1  0
 16 18  1  0
 18 19  1  0
 19 20  1  0
 20 21  2  0
 20 22  2  0
 20 23  1  0
 23 24  2  0
 24 25  1  0
 25 26  2  0
 26 27  1  0
 27 28  1  0
 28 29  2  0
 28 30  1  0
 27 31  2  0
 18 32  2  0
  9 33  2  0
 33  5  1  0
 32 13  1  0
 31 23  1  0
  1 34  1  0
  6 35  1  0
  7 36  1  0
  8 37  1  0
 10 38  1  0
 14 39  1  0
 15 40  1  0
 24 41  1  0
 25 42  1  0
 26 43  1  0
 31 44  1  0
 32 45  1  0
 33 46  1  0
M  CHG  5   1  -1  17  -1  19  -1  28   1  30  -1
M  END
>  <UniqueID>  (66) 
63

>  <SMILES>  (66) 
[NH-]S(=O)(=O)c1cccc(NC(=O)c2ccc([O-])c([N-]S(=O)(=O)c3cccc([N+](=O)[O-])c3)c2)c1

>  <Energy>  (66) 
55.58223151876588

>  <Genealogy>  (66) 
[NH-]S(=O)(=O)c1cccc(NC(=O)c2ccc([O-])c([N-]S(=O)(=O)c3cccc([N+](=O)[O-])c3)c2)c1 (protonated)
[NH-]S(=O)(=O)c1cccc(NC(=O)c2ccc([O-])c([N-]S(=O)(=O)c3cccc([N+](=O)[O-])c3)c2)c1 (3D coordinates assigned)
[NH-]S(=O)(=O)c1cccc(NC(=O)c2ccc([O-])c([N-]S(=O)(=O)c3cccc([N+](=O)[O-])c3)c2)c1 (optimized conformer: 55.58223151876588 kcal/mol)

>  <smiles>  (66) 
NS(=O)(=O)c1cccc(NC(=O)c2ccc(O)c(NS(=O)(=O)c3cccc([N+](=O)[O-])c3)c2)c1

>  <score_type>  (66) 
oracle

>  <origin>  (66) 
adg

>  <m_score__min__energy>  (66) 
-14.970000000000001

>  <m_primary>  (66) 
energy

$$$$
66:0
     RDKit          3D

 51 53  0  0  1  0  0  0  0  0999 V2000
   60.3200   27.5750   48.4080 C   0  0  0  0  0  0  0  0  0  0  0  0
   59.5830   26.6260   47.6660 O   0  0  0  0  0  0  0  0  0  0  0  0
   58.6340   27.0860   46.7630 C   0  0  0  0  0  0  0  0  0  0  0  0
   58.9020   28.0720   45.8470 C   0  0  0  0  0  0  0  0  0  0  0  0
   57.9190   28.5040   44.9600 C   0  0  0  0  0  0  0  0  0  0  0  0
   58.2130   29.4320   44.1170 N   0  0  0  0  0  0  0  0  0  0  0  0
   57.4600   30.9710   44.3000 S   0  0  0  0  0  0  0  0  0  0  0  0
   55.9670   30.8370   44.4070 O   0  0  0  0  0  0  0  0  0  0  0  0
   57.7390   31.7720   43.0760 O   0  0  0  0  0  0  0  0  0  0  0  0
   58.1070   31.8360   45.6910 C   0  0  0  0  0  0  0  0  0  0  0  0
   59.0460   31.2800   46.5310 C   0  0  0  0  0  0  0  0  0  0  0  0
   59.5330   31.9880   47.6130 C   0  0  0  0  0  0  0  0  0  0  0  0
   59.0910   33.2660   47.8780 C   0  0  0  0  0  0  0  0  0  0  0  0
   59.6340   33.9590   49.0220 N   0  0  0  0  0  0  0  0  0  0  0  0
   59.2640   33.4950   50.2740 C   0  0  0  0  0  0  0  0  0  0  0  0
   58.4490   32.4650   50.1580 O   0  0  0  0  0  0  0  0  0  0  0  0
   59.5190   33.8250   51.6150 C   0  0  0  0  0  0  0  0  0  0  0  0
   58.9500   33.5560   52.7380 C   0  0  0  0  0  0  0  0  0  0  0  0
   57.9150   32.5880   52.9140 C   0  0  0  0  0  0  0  0  0  0  0  0
   58.0260   31.6310   53.9420 C   0  0  0  0  0  0  0  0  0  0  0  0
   56.9150   30.8540   53.8750 C   0  0  0  0  0  0  0  0  0  0  0  0
   56.1310   31.2720   52.8730 N   0  0  0  0  0  0  0  0  0  0  0  0
   54.8530   30.7400   52.4390 C   0  0  0  0  0  0  0  0  0  0  0  0
   56.7700   32.2900   52.3480 N   0  0  0  0  0  0  0  0  0  0  0  0
   58.1600   33.8270   47.0500 C   0  0  0  0  0  0  0  0  0  0  0  0
   57.6600   33.1180   45.9500 C   0  0  0  0  0  0  0  0  0  0  0  0
   56.7190   27.9150   45.0460 N   0  0  0  0  0  0  0  0  0  0  0  0
   56.4440   26.9500   45.9370 C   0  0  0  0  0  0  0  0  0  0  0  0
   55.2080   26.3280   46.0430 O   0  0  0  0  0  0  0  0  0  0  0  0
   55.1010   24.9800   45.6280 C   0  0  0  0  0  0  0  0  0  0  0  0
   57.4050   26.5490   46.7830 N   0  0  0  0  0  0  0  0  0  0  0  0
   60.1771   27.3910   49.4831 H   0  0  0  0  0  0  0  0  0  0  0  0
   61.3878   27.4857   48.1595 H   0  0  0  0  0  0  0  0  0  0  0  0
   59.9691   28.5875   48.1595 H   0  0  0  0  0  0  0  0  0  0  0  0
   59.9034   28.5258   45.8130 H   0  0  0  0  0  0  0  0  0  0  0  0
   59.4124   30.2609   46.3384 H   0  0  0  0  0  0  0  0  0  0  0  0
   60.2832   31.5255   48.2713 H   0  0  0  0  0  0  0  0  0  0  0  0
   60.2400   34.7250   48.8400 H   0  0  0  0  0  0  0  0  0  0  0  0
   60.4099   34.4593   51.7329 H   0  0  0  0  0  0  0  0  0  0  0  0
   59.2852   34.1119   53.6260 H   0  0  0  0  0  0  0  0  0  0  0  0
   58.8533   31.5325   54.6603 H   0  0  0  0  0  0  0  0  0  0  0  0
   56.6923   30.0088   54.5428 H   0  0  0  0  0  0  0  0  0  0  0  0
   54.2436   30.4863   53.3189 H   0  0  0  0  0  0  0  0  0  0  0  0
   54.3280   31.4943   51.8345 H   0  0  0  0  0  0  0  0  0  0  0  0
   55.0184   29.8360   51.8345 H   0  0  0  0  0  0  0  0  0  0  0  0
   57.7990   34.8468   47.2494 H   0  0  0  0  0  0  0  0  0  0  0  0
   56.9108   33.5821   45.2917 H   0  0  0  0  0  0  0  0  0  0  0  0
   55.0492   24.3273   46.5119 H   0  0  0  0  0  0  0  0  0  0  0  0
   54.1900   24.8533   45.0247 H   0  0  0  0  0  0  0  0  0  0  0  0
   55.9806   24.7112   45.0247 H   0  0  0  0  0  0  0  0  0  0  0  0
   57.2120   25.7990   47.4830 H   0  0  0  0  0  0  0  0  0  0  0  0
  1  2  1  0
  2  3  1  0
  3  4  2  0
  4  5  1  0
  5  6  2  0
  6  7  1  0
  7  8  2  0
  7  9  2  0
  7 10  1  0
 10 11  2  0
 11 12  1  0
 12 13  2  0
 13 14  1  0
 14 15  1  0
 15 16  2  0
 15 17  1  0
 17 18  2  0
 18 19  1  0
 19 20  1  0
 20 21  2  0
 21 22  1  0
 22 23  1  0
 22 24  1  0
 13 25  1  0
 25 26  2  0
  5 27  1  0
 27 28  2  0
 28 29  1  0
 29 30  1  0
 28 31  1  0
 31  3  1  0
 26 10  1  0
 24 19  2  0
  1 32  1  0
  1 33  1  0
  1 34  1  0
  4 35  1  0
 11 36  1  0
 12 37  1  0
 14 38  1  0
 17 39  1  0
 18 40  1  0
 20 41  1  0
 21 42  1  0
 23 43  1  0
 23 44  1  0
 23 45  1  0
 25 46  1  0
 26 47  1  0
 30 48  1  0
 30 49  1  0
 30 50  1  0
 31 51  1  0
M  END
>  <smiles>  (67) 
COc1cc(=NS(=O)(=O)c2ccc(NC(=O)C=Cc3ccn(C)n3)cc2)nc(OC)[nH]1

>  <score_type>  (67) 
oracle

>  <origin>  (67) 
adg

>  <m_score__min__energy>  (67) 
-8.6899999999999995

>  <m_primary>  (67) 
energy

$$$$
67:0
     RDKit          3D

 56 59  0  0  0  0  0  0  0  0999 V2000
   59.7710   22.5500   45.5420 O   0  0  0  0  0  0  0  0  0  0  0  0
   58.5570   22.3640   45.2330 C   0  0  0  0  0  0  0  0  0  0  0  0
   57.8060   23.4040   44.4450 C   0  0  0  0  0  0  0  0  0  0  0  0
   56.8840   24.2700   45.3290 C   0  0  0  0  0  0  0  0  0  0  0  0
   57.2310   25.7310   45.2550 C   0  0  0  0  0  0  0  0  0  0  0  0
   58.4020   26.2610   44.7430 C   0  0  0  0  0  0  0  0  0  0  0  0
   58.2240   27.6290   44.7270 C   0  0  0  0  0  0  0  0  0  0  0  0
   59.1720   28.5330   44.2560 O   0  0  0  0  0  0  0  0  0  0  0  0
   57.0070   27.9650   45.2060 N   0  0  0  0  0  0  0  0  0  0  0  0
   56.4040   29.3000   45.2470 C   0  0  0  0  0  0  0  0  0  0  0  0
   55.9950   29.7660   43.8430 C   0  0  0  0  0  0  0  0  0  0  0  0
   57.1460   30.4640   43.1030 C   0  0  0  0  0  0  0  0  0  0  0  0
   57.7950   31.4880   43.9830 C   0  0  0  0  0  0  0  0  0  0  0  0
   57.7460   32.8680   43.7830 C   0  0  0  0  0  0  0  0  0  0  0  0
   58.4680   33.4020   44.8270 C   0  0  0  0  0  0  0  0  0  0  0  0
   58.7650   34.7280   45.1380 C   0  0  0  0  0  0  0  0  0  0  0  0
   59.5440   34.9710   46.2850 C   0  0  0  0  0  0  0  0  0  0  0  0
   59.9990   33.8960   47.0840 C   0  0  0  0  0  0  0  0  0  0  0  0
   59.6760   32.5670   46.7460 C   0  0  0  0  0  0  0  0  0  0  0  0
   58.9050   32.3580   45.6030 C   0  0  0  0  0  0  0  0  0  0  0  0
   58.4940   31.1810   45.1020 N   0  0  0  0  0  0  0  0  0  0  0  0
   56.4000   26.8020   45.5200 C   0  0  0  0  0  0  0  0  0  0  0  0
   55.1030   26.7080   46.0110 O   0  0  0  0  0  0  0  0  0  0  0  0
   57.8840   21.1640   45.6290 N   0  0  0  0  0  0  0  0  0  0  0  0
   57.3950   20.8960   46.9770 C   0  0  0  0  0  0  0  0  0  0  0  0
   56.0160   21.4820   47.2020 C   0  0  0  0  0  0  0  0  0  0  0  0
   55.1090   21.5320   46.1240 C   0  0  0  0  0  0  0  0  0  0  0  0
   53.8350   22.0870   46.2890 C   0  0  0  0  0  0  0  0  0  0  0  0
   53.4510   22.6000   47.5310 C   0  0  0  0  0  0  0  0  0  0  0  0
   54.3390   22.5560   48.6140 C   0  0  0  0  0  0  0  0  0  0  0  0
   55.6210   21.9990   48.4590 C   0  0  0  0  0  0  0  0  0  0  0  0
   56.7060   21.9790   49.8520 Cl  0  0  0  0  0  0  0  0  0  0  0  0
   58.5337   24.0609   43.9461 H   0  0  0  0  0  0  0  0  0  0  0  0
   57.1702   22.8759   43.7191 H   0  0  0  0  0  0  0  0  0  0  0  0
   55.8448   24.1358   44.9943 H   0  0  0  0  0  0  0  0  0  0  0  0
   57.0151   23.9452   46.3717 H   0  0  0  0  0  0  0  0  0  0  0  0
   59.2930   25.7052   44.4156 H   0  0  0  0  0  0  0  0  0  0  0  0
   59.0820   28.9800   43.3530 H   0  0  0  0  0  0  0  0  0  0  0  0
   55.5119   29.2715   45.8899 H   0  0  0  0  0  0  0  0  0  0  0  0
   57.1467   30.0062   45.6465 H   0  0  0  0  0  0  0  0  0  0  0  0
   55.6776   28.8902   43.2579 H   0  0  0  0  0  0  0  0  0  0  0  0
   55.1765   30.4924   43.9543 H   0  0  0  0  0  0  0  0  0  0  0  0
   57.8945   29.7135   42.8090 H   0  0  0  0  0  0  0  0  0  0  0  0
   56.7413   30.9672   42.2125 H   0  0  0  0  0  0  0  0  0  0  0  0
   57.2414   33.4104   42.9699 H   0  0  0  0  0  0  0  0  0  0  0  0
   58.4034   35.5551   44.5094 H   0  0  0  0  0  0  0  0  0  0  0  0
   59.8007   36.0041   46.5620 H   0  0  0  0  0  0  0  0  0  0  0  0
   60.6097   34.0993   47.9760 H   0  0  0  0  0  0  0  0  0  0  0  0
   60.0201   31.7234   47.3624 H   0  0  0  0  0  0  0  0  0  0  0  0
   58.6750   30.2300   45.4970 H   0  0  0  0  0  0  0  0  0  0  0  0
   57.3485   19.8076   47.1291 H   0  0  0  0  0  0  0  0  0  0  0  0
   58.0870   21.3658   47.6915 H   0  0  0  0  0  0  0  0  0  0  0  0
   55.4056   21.1309   45.1436 H   0  0  0  0  0  0  0  0  0  0  0  0
   53.1355   22.1195   45.4407 H   0  0  0  0  0  0  0  0  0  0  0  0
   52.4504   23.0389   47.6585 H   0  0  0  0  0  0  0  0  0  0  0  0
   54.0318   22.9591   49.5903 H   0  0  0  0  0  0  0  0  0  0  0  0
  1  2  2  0
  2  3  1  0
  3  4  1  0
  4  5  1  0
  5  6  1  0
  6  7  2  0
  7  8  1  0
  7  9  1  0
  9 10  1  0
 10 11  1  0
 11 12  1  0
 12 13  1  0
 13 14  2  0
 14 15  1  0
 15 16  2  0
 16 17  1  0
 17 18  2  0
 18 19  1  0
 19 20  2  0
 20 21  1  0
  9 22  1  0
 22 23  1  0
  2 24  1  0
 24 25  1  0
 25 26  1  0
 26 27  2  0
 27 28  1  0
 28 29  2  0
 29 30  1  0
 30 31  2  0
 31 32  1  0
 22  5  2  0
 31 26  1  0
 21 13  1  0
 20 15  1  0
  3 33  1  0
  3 34  1  0
  4 35  1  0
  4 36  1  0
  6 37  1  0
  8 38  1  0
 10 39  1  0
 10 40  1  0
 11 41  1  0
 11 42  1  0
 12 43  1  0
 12 44  1  0
 14 45  1  0
 16 46  1  0
 17 47  1  0
 18 48  1  0
 19 49  1  0
 21 50  1  0
 25 51  1  0
 25 52  1  0
 27 53  1  0
 28 54  1  0
 29 55  1  0
 30 56  1  0
M  CHG  2  23  -1  24  -1
M  END
>  <UniqueID>  (68) 
64

>  <SMILES>  (68) 
O=C(CCc1cc(O)n(CCCc2cc3ccccc3[nH]2)c1[O-])[N-]Cc1ccccc1Cl

>  <Energy>  (68) 
109.23300921261978

>  <Genealogy>  (68) 
O=C(CCc1cc(O)n(CCCc2cc3ccccc3[nH]2)c1[O-])[N-]Cc1ccccc1Cl (protonated)
O=C(CCc1cc(O)n(CCCc2cc3ccccc3[nH]2)c1[O-])[N-]Cc1ccccc1Cl (3D coordinates assigned)
O=C(CCc1cc(O)n(CCCc2cc3ccccc3[nH]2)c1[O-])[N-]Cc1ccccc1Cl (optimized conformer: 109.23300921261978 kcal/mol)

>  <smiles>  (68) 
O=C(CCc1cc(O)n(CCCc2cc3ccccc3[nH]2)c1O)NCc1ccccc1Cl

>  <score_type>  (68) 
oracle

>  <origin>  (68) 
adg

>  <m_score__min__energy>  (68) 
-13.109999999999999

>  <m_primary>  (68) 
energy

$$$$
68:0
     RDKit          3D

 44 46  0  0  0  0  0  0  0  0999 V2000
   56.3245   34.2000   45.9827 H   0  0  0  0  0  0  0  0  0  0  0  0
   57.1640   33.4900   45.9480 C   0  0  0  0  0  0  0  0  0  0  0  0
   57.0370   32.3220   45.2680 N   0  0  0  0  0  0  0  0  0  0  0  0
   58.0590   31.4250   45.2170 C   0  0  0  0  0  0  0  0  0  0  0  0
   57.9530   30.3160   44.5440 N   0  0  0  0  0  0  0  0  0  0  0  0
   57.7330   28.9990   45.0780 C   0  0  0  0  0  0  0  0  0  0  0  0
   58.8370   28.2650   45.5290 C   0  0  0  0  0  0  0  0  0  0  0  0
   59.8470   28.6934   45.4491 H   0  0  0  0  0  0  0  0  0  0  0  0
   58.6650   26.9920   46.0800 C   0  0  0  0  0  0  0  0  0  0  0  0
   59.5405   26.4205   46.4218 H   0  0  0  0  0  0  0  0  0  0  0  0
   57.3810   26.4400   46.1990 C   0  0  0  0  0  0  0  0  0  0  0  0
   57.2220   25.0950   46.7830 C   0  0  0  0  0  0  0  0  0  0  0  0
   56.1870   24.8340   47.4510 O   0  0  0  0  0  0  0  0  0  0  0  0
   58.2280   24.0860   46.6370 N   0  0  0  0  0  0  0  0  0  0  0  0
   58.5040   23.3780   45.3940 C   0  0  0  0  0  0  0  0  0  0  0  0
   58.8948   22.3754   45.6221 H   0  0  0  0  0  0  0  0  0  0  0  0
   57.5760   23.2858   44.8107 H   0  0  0  0  0  0  0  0  0  0  0  0
   59.2496   23.9382   44.8107 H   0  0  0  0  0  0  0  0  0  0  0  0
   56.2640   27.1980   45.8050 C   0  0  0  0  0  0  0  0  0  0  0  0
   54.9750   26.7090   45.9920 O   0  0  0  0  0  0  0  0  0  0  0  0
   56.4400   28.4690   45.2470 C   0  0  0  0  0  0  0  0  0  0  0  0
   55.5631   29.0572   44.9387 H   0  0  0  0  0  0  0  0  0  0  0  0
   59.2310   31.7090   45.8420 N   0  0  0  0  0  0  0  0  0  0  0  0
   59.4100   32.8630   46.5440 C   0  0  0  0  0  0  0  0  0  0  0  0
   60.7150   33.1170   47.2060 C   0  0  0  0  0  0  0  0  0  0  0  0
   61.8220   33.5230   46.4400 C   0  0  0  0  0  0  0  0  0  0  0  0
   61.7124   33.6541   45.3533 H   0  0  0  0  0  0  0  0  0  0  0  0
   63.0600   33.7620   47.0430 C   0  0  0  0  0  0  0  0  0  0  0  0
   63.9145   34.0846   46.4300 H   0  0  0  0  0  0  0  0  0  0  0  0
   63.2180   33.5920   48.4290 C   0  0  0  0  0  0  0  0  0  0  0  0
   64.4670   33.8250   49.0940 N   0  0  0  0  0  0  0  0  0  0  0  0
   65.1230   32.8680   50.3840 S   0  0  0  0  0  0  0  0  0  0  0  0
   64.5950   33.3900   51.6890 O   0  0  0  0  0  0  0  0  0  0  0  0
   64.6960   31.4340   50.2300 O   0  0  0  0  0  0  0  0  0  0  0  0
   66.8990   32.9900   50.3960 C   0  0  0  0  0  0  0  0  0  0  0  0
   67.2578   33.0147   51.4355 H   0  0  0  0  0  0  0  0  0  0  0  0
   67.3298   32.1193   49.8799 H   0  0  0  0  0  0  0  0  0  0  0  0
   67.2067   33.9114   49.8799 H   0  0  0  0  0  0  0  0  0  0  0  0
   62.1240   33.1740   49.1930 C   0  0  0  0  0  0  0  0  0  0  0  0
   62.2400   33.0310   50.2775 H   0  0  0  0  0  0  0  0  0  0  0  0
   60.8840   32.9360   48.5920 C   0  0  0  0  0  0  0  0  0  0  0  0
   60.0341   32.6048   49.2068 H   0  0  0  0  0  0  0  0  0  0  0  0
   58.3570   33.7900   46.6020 C   0  0  0  0  0  0  0  0  0  0  0  0
   58.4718   34.7350   47.1532 H   0  0  0  0  0  0  0  0  0  0  0  0
  1  2  1  0
  2  3  1  0
  3  4  1  0
  4  5  2  0
  5  6  1  0
  6  7  2  0
  7  8  1  0
  7  9  1  0
  9 10  1  0
  9 11  2  0
 11 12  1  0
 12 13  2  0
 12 14  1  0
 14 15  1  0
 15 16  1  0
 15 17  1  0
 15 18  1  0
 11 19  1  0
 19 20  1  0
 19 21  2  0
 21 22  1  0
  4 23  1  0
 23 24  2  0
 24 25  1  0
 25 26  2  0
 26 27  1  0
 26 28  1  0
 28 29  1  0
 28 30  2  0
 30 31  1  0
 31 32  1  0
 32 33  2  0
 32 34  2  0
 32 35  1  0
 35 36  1  0
 35 37  1  0
 35 38  1  0
 30 39  1  0
 39 40  1  0
 39 41  2  0
 41 42  1  0
 24 43  1  0
 43 44  1  0
 43  2  2  0
 21  6  1  0
 41 25  1  0
M  CHG  4   3  -1  14  -1  20  -1  31  -1
M  END
>  <UniqueID>  (69) 
65

>  <SMILES>  (69) 
C[N-]C(=O)c1ccc(/N=c2/nc(-c3ccc([N-]S(C)(=O)=O)cc3)cc[n-]2)cc1[O-]

>  <Energy>  (69) 
61.75111394142702

>  <Genealogy>  (69) 
C[N-]C(=O)c1ccc(N=c2nc(-c3ccc([N-]S(C)(=O)=O)cc3)cc[n-]2)cc1[O-] (protonated)
C[N-]C(=O)c1ccc(/N=c2/nc(-c3ccc([N-]S(C)(=O)=O)cc3)cc[n-]2)cc1[O-] (cis-trans isomerization)
C[N-]C(=O)c1ccc(/N=c2/nc(-c3ccc([N-]S(C)(=O)=O)cc3)cc[n-]2)cc1[O-] (3D coordinates assigned)
C[N-]C(=O)c1ccc(/N=c2/nc(-c3ccc([N-]S(C)(=O)=O)cc3)cc[n-]2)cc1[O-] (optimized conformer: 61.75111394142702 kcal/mol)

>  <smiles>  (69) 
CNC(=O)c1ccc(N=c2nc(-c3ccc(NS(C)(=O)=O)cc3)cc[nH]2)cc1O

>  <score_type>  (69) 
oracle

>  <origin>  (69) 
adg

>  <m_score__min__energy>  (69) 
-15.369999999999999

>  <m_primary>  (69) 
energy

$$$$
69:0
     RDKit          3D

 24 25  0  0  0  0  0  0  0  0999 V2000
   56.8150   22.8150   48.4020 O   0  0  0  0  0  0  0  0  0  0  0  0
   56.9470   23.6580   47.4770 C   0  0  0  0  0  0  0  0  0  0  0  0
   58.0900   23.6870   46.7440 N   0  0  0  0  0  0  0  0  0  0  0  0
   58.2530   24.5880   45.7410 C   0  0  0  0  0  0  0  0  0  0  0  0
   57.2400   25.5110   45.4490 C   0  0  0  0  0  0  0  0  0  0  0  0
   57.4070   26.4930   44.3140 C   0  0  0  0  0  0  0  0  0  0  0  0
   57.8670   27.8330   44.8320 C   0  0  0  0  0  0  0  0  0  0  0  0
   59.2400   28.0790   45.0040 C   0  0  0  0  0  0  0  0  0  0  0  0
   59.6830   29.3050   45.5110 C   0  0  0  0  0  0  0  0  0  0  0  0
   58.7590   30.2950   45.8540 C   0  0  0  0  0  0  0  0  0  0  0  0
   59.2010   31.5120   46.3580 O   0  0  0  0  0  0  0  0  0  0  0  0
   57.3920   30.0610   45.6920 C   0  0  0  0  0  0  0  0  0  0  0  0
   56.9390   28.8350   45.1830 C   0  0  0  0  0  0  0  0  0  0  0  0
   55.5700   28.6120   45.0260 O   0  0  0  0  0  0  0  0  0  0  0  0
   56.0650   25.4570   46.2210 C   0  0  0  0  0  0  0  0  0  0  0  0
   55.1160   26.2570   46.0050 O   0  0  0  0  0  0  0  0  0  0  0  0
   55.9470   24.5380   47.2130 N   0  0  0  0  0  0  0  0  0  0  0  0
   59.1841   24.5932   45.1554 H   0  0  0  0  0  0  0  0  0  0  0  0
   58.1538   26.1036   43.6065 H   0  0  0  0  0  0  0  0  0  0  0  0
   56.4367   26.6219   43.8120 H   0  0  0  0  0  0  0  0  0  0  0  0
   59.9715   27.3017   44.7380 H   0  0  0  0  0  0  0  0  0  0  0  0
   60.7597   29.4898   45.6397 H   0  0  0  0  0  0  0  0  0  0  0  0
   56.6669   30.8419   45.9649 H   0  0  0  0  0  0  0  0  0  0  0  0
   55.1470   27.7210   45.2550 H   0  0  0  0  0  0  0  0  0  0  0  0
  1  2  2  0
  2  3  1  0
  3  4  1  0
  4  5  2  0
  5  6  1  0
  6  7  1  0
  7  8  2  0
  8  9  1  0
  9 10  2  0
 10 11  1  0
 10 12  1  0
 12 13  2  0
 13 14  1  0
  5 15  1  0
 15 16  2  0
 15 17  1  0
 17  2  1  0
 13  7  1  0
  4 18  1  0
  6 19  1  0
  6 20  1  0
  8 21  1  0
  9 22  1  0
 12 23  1  0
 14 24  1  0
M  CHG  3   3  -1  11  -1  17  -1
M  END
>  <UniqueID>  (70) 
66

>  <SMILES>  (70) 
O=c1[n-]cc(Cc2ccc([O-])cc2O)c(=O)[n-]1

>  <Energy>  (70) 
26.246069729815265

>  <Genealogy>  (70) 
O=c1[n-]cc(Cc2ccc([O-])cc2O)c(=O)[n-]1 (protonated)
O=c1[n-]cc(Cc2ccc([O-])cc2O)c(=O)[n-]1 (3D coordinates assigned)
O=c1[n-]cc(Cc2ccc([O-])cc2O)c(=O)[n-]1 (optimized conformer: 26.246069729815265 kcal/mol)

>  <smiles>  (70) 
O=c1[nH]cc(Cc2ccc(O)cc2O)c(=O)[nH]1

>  <score_type>  (70) 
oracle

>  <origin>  (70) 
adg

>  <m_score__min__energy>  (70) 
-11.279999999999999

>  <m_primary>  (70) 
energy

$$$$
70:0
     RDKit          3D

 55 57  0  0  0  0  0  0  0  0999 V2000
   61.4990   28.5280   51.1270 C   0  0  0  0  0  0  0  0  0  0  0  0
   60.4120   28.5260   50.2080 O   0  0  0  0  0  0  0  0  0  0  0  0
   60.0590   29.6160   49.3970 C   0  0  0  0  0  0  0  0  0  0  0  0
   59.0310   30.4620   49.8310 C   0  0  0  0  0  0  0  0  0  0  0  0
   58.6220   31.5400   49.0430 C   0  0  0  0  0  0  0  0  0  0  0  0
   59.2310   31.7850   47.8050 C   0  0  0  0  0  0  0  0  0  0  0  0
   58.7930   32.8770   46.9800 N   0  0  0  0  0  0  0  0  0  0  0  0
   57.8670   32.5960   45.8800 C   0  0  0  0  0  0  0  0  0  0  0  0
   58.3450   31.4800   45.1380 O   0  0  0  0  0  0  0  0  0  0  0  0
   57.5940   30.3150   44.9480 C   0  0  0  0  0  0  0  0  0  0  0  0
   56.3450   30.3890   44.7830 O   0  0  0  0  0  0  0  0  0  0  0  0
   58.3030   28.9740   44.9340 C   0  0  0  0  0  0  0  0  0  0  0  0
   58.0560   28.1960   46.2450 C   0  0  0  0  0  0  0  0  0  0  0  0
   59.8160   29.2120   44.7670 C   0  0  0  0  0  0  0  0  0  0  0  0
   57.7760   28.1460   43.7470 C   0  0  0  0  0  0  0  0  0  0  0  0
   59.4020   34.1820   47.0880 C   0  0  0  0  0  0  0  0  0  0  0  0
   58.8990   35.0460   47.8570 O   0  0  0  0  0  0  0  0  0  0  0  0
   60.6680   34.5270   46.3460 C   0  0  0  0  0  0  0  0  0  0  0  0
   61.8540   33.8930   47.0110 C   0  0  0  0  0  0  0  0  0  0  0  0
   63.0200   33.4700   46.3770 C   0  0  0  0  0  0  0  0  0  0  0  0
   63.9090   33.0060   47.2830 N   0  0  0  0  0  0  0  0  0  0  0  0
   63.3160   33.1320   48.4820 C   0  0  0  0  0  0  0  0  0  0  0  0
   63.8470   32.7890   49.7230 C   0  0  0  0  0  0  0  0  0  0  0  0
   63.0530   33.0080   50.8630 C   0  0  0  0  0  0  0  0  0  0  0  0
   61.7570   33.5520   50.7380 C   0  0  0  0  0  0  0  0  0  0  0  0
   61.2420   33.8770   49.4720 C   0  0  0  0  0  0  0  0  0  0  0  0
   62.0560   33.6630   48.3590 C   0  0  0  0  0  0  0  0  0  0  0  0
   60.2800   30.9550   47.3770 C   0  0  0  0  0  0  0  0  0  0  0  0
   60.6910   29.8760   48.1650 C   0  0  0  0  0  0  0  0  0  0  0  0
   61.1094   28.5273   52.1557 H   0  0  0  0  0  0  0  0  0  0  0  0
   62.1154   27.6310   50.9677 H   0  0  0  0  0  0  0  0  0  0  0  0
   62.1121   29.4273   50.9677 H   0  0  0  0  0  0  0  0  0  0  0  0
   58.5424   30.2763   50.7989 H   0  0  0  0  0  0  0  0  0  0  0  0
   57.8168   32.2009   49.3963 H   0  0  0  0  0  0  0  0  0  0  0  0
   56.8710   32.3675   46.2871 H   0  0  0  0  0  0  0  0  0  0  0  0
   57.7983   33.4747   45.2218 H   0  0  0  0  0  0  0  0  0  0  0  0
   58.2638   28.8504   47.1044 H   0  0  0  0  0  0  0  0  0  0  0  0
   57.0081   27.8635   46.2822 H   0  0  0  0  0  0  0  0  0  0  0  0
   58.7202   27.3199   46.2822 H   0  0  0  0  0  0  0  0  0  0  0  0
   60.2871   29.2861   45.7582 H   0  0  0  0  0  0  0  0  0  0  0  0
   60.2601   28.3727   44.2118 H   0  0  0  0  0  0  0  0  0  0  0  0
   59.9810   30.1471   44.2118 H   0  0  0  0  0  0  0  0  0  0  0  0
   57.2214   27.2746   44.1253 H   0  0  0  0  0  0  0  0  0  0  0  0
   57.1074   28.7683   43.1340 H   0  0  0  0  0  0  0  0  0  0  0  0
   58.6228   27.8038   43.1340 H   0  0  0  0  0  0  0  0  0  0  0  0
   60.5933   34.1599   45.3118 H   0  0  0  0  0  0  0  0  0  0  0  0
   60.7979   35.6193   46.3512 H   0  0  0  0  0  0  0  0  0  0  0  0
   63.1929   33.5083   45.2913 H   0  0  0  0  0  0  0  0  0  0  0  0
   64.8600   32.6290   47.0820 H   0  0  0  0  0  0  0  0  0  0  0  0
   64.8563   32.3600   49.8089 H   0  0  0  0  0  0  0  0  0  0  0  0
   63.4449   32.7535   51.8588 H   0  0  0  0  0  0  0  0  0  0  0  0
   61.1465   33.7226   51.6370 H   0  0  0  0  0  0  0  0  0  0  0  0
   60.2276   34.2878   49.3614 H   0  0  0  0  0  0  0  0  0  0  0  0
   60.7802   31.1548   46.4179 H   0  0  0  0  0  0  0  0  0  0  0  0
   61.5107   29.2277   47.8220 H   0  0  0  0  0  0  0  0  0  0  0  0
  1  2  1  0
  2  3  1  0
  3  4  2  0
  4  5  1  0
  5  6  2  0
  6  7  1  0
  7  8  1  0
  8  9  1  0
  9 10  1  0
 10 11  2  0
 10 12  1  0
 12 13  1  0
 12 14  1  0
 12 15  1  0
  7 16  1  0
 16 17  2  0
 16 18  1  0
 18 19  1  0
 19 20  2  0
 20 21  1  0
 21 22  1  0
 22 23  2  0
 23 24  1  0
 24 25  2  0
 25 26  1  0
 26 27  2  0
  6 28  1  0
 28 29  2  0
 29  3  1  0
 27 19  1  0
 27 22  1  0
  1 30  1  0
  1 31  1  0
  1 32  1  0
  4 33  1  0
  5 34  1  0
  8 35  1  0
  8 36  1  0
 13 37  1  0
 13 38  1  0
 13 39  1  0
 14 40  1  0
 14 41  1  0
 14 42  1  0
 15 43  1  0
 15 44  1  0
 15 45  1  0
 18 46  1  0
 18 47  1  0
 20 48  1  0
 21 49  1  0
 23 50  1  0
 24 51  1  0
 25 52  1  0
 26 53  1  0
 28 54  1  0
 29 55  1  0
M  END
>  <UniqueID>  (71) 
67

>  <SMILES>  (71) 
COc1ccc(N(COC(=O)C(C)(C)C)C(=O)Cc2c[nH]c3ccccc23)cc1

>  <Energy>  (71) 
83.7017261800339

>  <Genealogy>  (71) 
COc1ccc(N(COC(=O)C(C)(C)C)C(=O)Cc2c[nH]c3ccccc23)cc1 (3D coordinates assigned)
COc1ccc(N(COC(=O)C(C)(C)C)C(=O)Cc2c[nH]c3ccccc23)cc1 (optimized conformer: 83.7017261800339 kcal/mol)

>  <smiles>  (71) 
COc1ccc(N(COC(=O)C(C)(C)C)C(=O)Cc2c[nH]c3ccccc23)cc1

>  <score_type>  (71) 
oracle

>  <origin>  (71) 
adg

>  <m_score__min__energy>  (71) 
-7.9699999999999998

>  <m_primary>  (71) 
energy

$$$$
71:0
     RDKit          3D

 53 55  0  0  0  0  0  0  0  0999 V2000
   56.0690   22.2670   45.2420 C   0  0  0  0  0  0  0  0  0  0  0  0
   56.6510   23.6880   46.1400 S   0  0  0  0  0  0  0  0  0  0  0  0
   57.3710   23.2140   47.3720 O   0  0  0  0  0  0  0  0  0  0  0  0
   55.4980   24.5520   46.5620 O   0  0  0  0  0  0  0  0  0  0  0  0
   57.7560   24.6000   45.1600 N   0  0  0  0  0  0  0  0  0  0  0  0
   57.7930   26.0390   45.0850 C   0  0  0  0  0  0  0  0  0  0  0  0
   58.1180   26.6490   43.8620 C   0  0  0  0  0  0  0  0  0  0  0  0
   58.1690   28.0410   43.7490 C   0  0  0  0  0  0  0  0  0  0  0  0
   57.8900   28.8470   44.8600 C   0  0  0  0  0  0  0  0  0  0  0  0
   57.9460   30.6020   44.7390 S   0  0  0  0  0  0  0  0  0  0  0  0
   58.5010   30.9710   43.3910 O   0  0  0  0  0  0  0  0  0  0  0  0
   56.5600   31.1760   44.8620 O   0  0  0  0  0  0  0  0  0  0  0  0
   58.9650   31.2450   46.0020 N   0  0  0  0  0  0  0  0  0  0  0  0
   60.2390   30.4830   46.1000 C   0  0  0  0  0  0  0  0  0  0  0  0
   60.5250   29.9080   47.4970 C   0  0  0  0  0  0  0  0  0  0  0  0
   60.2780   30.9220   48.5300 N   0  0  0  0  0  0  0  0  0  0  0  0
   61.0910   30.9530   49.7250 C   0  0  0  0  0  0  0  0  0  0  0  0
   61.8180   29.9610   50.0130 O   0  0  0  0  0  0  0  0  0  0  0  0
   61.0300   32.1160   50.6800 C   0  0  0  0  0  0  0  0  0  0  0  0
   62.2420   33.4070   50.2220 S   0  0  0  0  0  0  0  0  0  0  0  0
   61.3820   33.8480   48.7110 C   0  0  0  0  0  0  0  0  0  0  0  0
   61.9060   33.4710   47.4690 C   0  0  0  0  0  0  0  0  0  0  0  0
   61.2420   33.8250   46.2900 C   0  0  0  0  0  0  0  0  0  0  0  0
   60.0520   34.5610   46.3510 C   0  0  0  0  0  0  0  0  0  0  0  0
   59.2200   35.0100   44.8740 Cl  0  0  0  0  0  0  0  0  0  0  0  0
   59.5280   34.9400   47.5920 C   0  0  0  0  0  0  0  0  0  0  0  0
   60.1940   34.5860   48.7690 C   0  0  0  0  0  0  0  0  0  0  0  0
   59.0960   31.7840   48.4090 C   0  0  0  0  0  0  0  0  0  0  0  0
   58.2000   31.3220   47.2580 C   0  0  0  0  0  0  0  0  0  0  0  0
   57.5490   28.2470   46.0800 C   0  0  0  0  0  0  0  0  0  0  0  0
   57.5020   26.8550   46.1950 C   0  0  0  0  0  0  0  0  0  0  0  0
   55.7506   21.4896   45.9521 H   0  0  0  0  0  0  0  0  0  0  0  0
   55.2171   22.5567   44.6093 H   0  0  0  0  0  0  0  0  0  0  0  0
   56.8794   21.8759   44.6093 H   0  0  0  0  0  0  0  0  0  0  0  0
   58.4410   24.0470   44.6000 H   0  0  0  0  0  0  0  0  0  0  0  0
   58.3348   26.0238   42.9833 H   0  0  0  0  0  0  0  0  0  0  0  0
   58.4287   28.5045   42.7858 H   0  0  0  0  0  0  0  0  0  0  0  0
   60.1970   29.6478   45.3854 H   0  0  0  0  0  0  0  0  0  0  0  0
   61.0493   31.1933   45.8792 H   0  0  0  0  0  0  0  0  0  0  0  0
   59.8686   29.0433   47.6741 H   0  0  0  0  0  0  0  0  0  0  0  0
   61.5796   29.5993   47.5460 H   0  0  0  0  0  0  0  0  0  0  0  0
   60.0186   32.5479   50.6563 H   0  0  0  0  0  0  0  0  0  0  0  0
   61.2711   31.7524   51.6898 H   0  0  0  0  0  0  0  0  0  0  0  0
   62.8419   32.8951   47.4201 H   0  0  0  0  0  0  0  0  0  0  0  0
   61.6543   33.5254   45.3152 H   0  0  0  0  0  0  0  0  0  0  0  0
   58.5923   35.5163   47.6413 H   0  0  0  0  0  0  0  0  0  0  0  0
   59.7833   34.8883   49.7436 H   0  0  0  0  0  0  0  0  0  0  0  0
   58.5246   31.7458   49.3481 H   0  0  0  0  0  0  0  0  0  0  0  0
   59.4297   32.8120   48.2043 H   0  0  0  0  0  0  0  0  0  0  0  0
   57.7924   30.3280   47.4942 H   0  0  0  0  0  0  0  0  0  0  0  0
   57.3839   32.0486   47.1313 H   0  0  0  0  0  0  0  0  0  0  0  0
   57.3169   28.8757   46.9523 H   0  0  0  0  0  0  0  0  0  0  0  0
   57.2362   26.3943   47.1579 H   0  0  0  0  0  0  0  0  0  0  0  0
  1  2  1  0
  2  3  2  0
  2  4  2  0
  2  5  1  0
  5  6  1  0
  6  7  2  0
  7  8  1  0
  8  9  2  0
  9 10  1  0
 10 11  2  0
 10 12  2  0
 10 13  1  0
 13 14  1  0
 14 15  1  0
 15 16  1  0
 16 17  1  0
 17 18  2  0
 17 19  1  0
 19 20  1  0
 20 21  1  0
 21 22  2  0
 22 23  1  0
 23 24  2  0
 24 25  1  0
 24 26  1  0
 26 27  2  0
 16 28  1  0
 28 29  1  0
  9 30  1  0
 30 31  2  0
 31  6  1  0
 29 13  1  0
 27 21  1  0
  1 32  1  0
  1 33  1  0
  1 34  1  0
  5 35  1  0
  7 36  1  0
  8 37  1  0
 14 38  1  0
 14 39  1  0
 15 40  1  0
 15 41  1  0
 19 42  1  0
 19 43  1  0
 22 44  1  0
 23 45  1  0
 26 46  1  0
 27 47  1  0
 28 48  1  0
 28 49  1  0
 29 50  1  0
 29 51  1  0
 30 52  1  0
 31 53  1  0
M  END
>  <UniqueID>  (72) 
68

>  <SMILES>  (72) 
CS(=O)(=O)Nc1ccc(S(=O)(=O)N2CCN(C(=O)CSc3ccc(Cl)cc3)CC2)cc1

>  <Energy>  (72) 
54.582713761764055

>  <Genealogy>  (72) 
CS(=O)(=O)Nc1ccc(S(=O)(=O)N2CCN(C(=O)CSc3ccc(Cl)cc3)CC2)cc1 (3D coordinates assigned)
CS(=O)(=O)Nc1ccc(S(=O)(=O)N2CCN(C(=O)CSc3ccc(Cl)cc3)CC2)cc1 (nonaromatic ring conformer: 54.582713761764055 kcal/mol)

>  <smiles>  (72) 
CS(=O)(=O)Nc1ccc(S(=O)(=O)N2CCN(C(=O)CSc3ccc(Cl)cc3)CC2)cc1

>  <score_type>  (72) 
oracle

>  <origin>  (72) 
adg

>  <m_score__min__energy>  (72) 
-9.9100000000000001

>  <m_primary>  (72) 
energy

$$$$
72:0
     RDKit          3D

 39 40  0  0  0  0  0  0  0  0999 V2000
   59.8200   33.6100   50.2040 C   0  0  0  0  0  0  0  0  0  0  0  0
   60.5550   32.8500   49.1380 C   0  0  0  0  0  0  0  0  0  0  0  0
   61.7840   33.3190   48.6570 C   0  0  0  0  0  0  0  0  0  0  0  0
   62.4560   32.6010   47.6620 C   0  0  0  0  0  0  0  0  0  0  0  0
   63.7780   33.0890   47.1410 C   0  0  0  0  0  0  0  0  0  0  0  0
   61.8850   31.4860   47.1270 N   0  0  0  0  0  0  0  0  0  0  0  0
   60.6660   31.0210   47.5380 C   0  0  0  0  0  0  0  0  0  0  0  0
   60.1990   29.9380   46.9820 N   0  0  0  0  0  0  0  0  0  0  0  0
   59.3030   29.8090   45.8680 C   0  0  0  0  0  0  0  0  0  0  0  0
   59.7730   29.4510   44.7560 O   0  0  0  0  0  0  0  0  0  0  0  0
   57.9210   30.1920   45.9760 N   0  0  0  0  0  0  0  0  0  0  0  0
   57.0390   30.2150   44.8470 C   0  0  0  0  0  0  0  0  0  0  0  0
   55.9860   29.5230   44.8780 O   0  0  0  0  0  0  0  0  0  0  0  0
   57.3630   30.9580   43.6080 C   0  0  0  0  0  0  0  0  0  0  0  0
   57.6340   32.2710   43.5310 C   0  0  0  0  0  0  0  0  0  0  0  0
   58.0960   33.1090   44.6550 C   0  0  0  0  0  0  0  0  0  0  0  0
   57.3980   33.0750   45.8730 C   0  0  0  0  0  0  0  0  0  0  0  0
   57.8260   33.8540   46.9520 C   0  0  0  0  0  0  0  0  0  0  0  0
   58.9710   34.6480   46.8310 C   0  0  0  0  0  0  0  0  0  0  0  0
   59.6900   34.6640   45.6320 C   0  0  0  0  0  0  0  0  0  0  0  0
   59.2600   33.8910   44.5480 C   0  0  0  0  0  0  0  0  0  0  0  0
   59.9930   31.6960   48.5790 C   0  0  0  0  0  0  0  0  0  0  0  0
   60.1524   33.2663   51.1946 H   0  0  0  0  0  0  0  0  0  0  0  0
   60.0302   34.6846   50.0992 H   0  0  0  0  0  0  0  0  0  0  0  0
   58.7389   33.4359   50.0992 H   0  0  0  0  0  0  0  0  0  0  0  0
   62.2182   34.2462   49.0592 H   0  0  0  0  0  0  0  0  0  0  0  0
   64.4380   33.3326   47.9866 H   0  0  0  0  0  0  0  0  0  0  0  0
   64.2430   32.3033   46.5275 H   0  0  0  0  0  0  0  0  0  0  0  0
   63.6209   33.9884   46.5275 H   0  0  0  0  0  0  0  0  0  0  0  0
   62.3890   30.9720   46.3670 H   0  0  0  0  0  0  0  0  0  0  0  0
   57.5360   30.4960   46.9000 H   0  0  0  0  0  0  0  0  0  0  0  0
   57.3835   30.3849   42.6693 H   0  0  0  0  0  0  0  0  0  0  0  0
   57.5014   32.7600   42.5546 H   0  0  0  0  0  0  0  0  0  0  0  0
   56.5111   32.4330   45.9785 H   0  0  0  0  0  0  0  0  0  0  0  0
   57.2621   33.8425   47.8964 H   0  0  0  0  0  0  0  0  0  0  0  0
   59.3064   35.2609   47.6806 H   0  0  0  0  0  0  0  0  0  0  0  0
   60.5938   35.2844   45.5409 H   0  0  0  0  0  0  0  0  0  0  0  0
   59.8339   33.8949   43.6096 H   0  0  0  0  0  0  0  0  0  0  0  0
   59.0296   31.3164   48.9501 H   0  0  0  0  0  0  0  0  0  0  0  0
  1  2  1  0
  2  3  1  0
  3  4  2  0
  4  5  1  0
  4  6  1  0
  6  7  1  0
  7  8  2  3
  8  9  1  0
  9 10  2  0
  9 11  1  0
 11 12  1  0
 12 13  2  0
 12 14  1  0
 14 15  2  3
 15 16  1  0
 16 17  2  0
 17 18  1  0
 18 19  2  0
 19 20  1  0
 20 21  2  0
  7 22  1  0
 22  2  2  0
 21 16  1  0
  1 23  1  0
  1 24  1  0
  1 25  1  0
  3 26  1  0
  5 27  1  0
  5 28  1  0
  5 29  1  0
  6 30  1  0
 11 31  1  0
 14 32  1  0
 15 33  1  0
 17 34  1  0
 18 35  1  0
 19 36  1  0
 20 37  1  0
 21 38  1  0
 22 39  1  0
M  END
>  <UniqueID>  (73) 
69

>  <SMILES>  (73) 
Cc1cc(C)[nH]c(=NC(=O)NC(=O)C=Cc2ccccc2)c1

>  <Energy>  (73) 
57.84134423545705

>  <Genealogy>  (73) 
Cc1cc(C)[nH]c(=NC(=O)NC(=O)C=Cc2ccccc2)c1 (3D coordinates assigned)
Cc1cc(C)[nH]c(=NC(=O)NC(=O)C=Cc2ccccc2)c1 (optimized conformer: 57.84134423545705 kcal/mol)

>  <smiles>  (73) 
Cc1cc(C)[nH]c(=NC(=O)NC(=O)C=Cc2ccccc2)c1

>  <score_type>  (73) 
oracle

>  <origin>  (73) 
adg

>  <m_score__min__energy>  (73) 
-8.4100000000000001

>  <m_primary>  (73) 
energy

$$$$
73:0
     RDKit          3D

 28 29  0  0  0  0  0  0  0  0999 V2000
   54.8440   26.1880   45.9890 N   0  0  0  0  0  0  0  0  0  0  0  0
   56.5260   25.8190   45.8360 S   0  0  0  0  0  0  0  0  0  0  0  0
   57.0370   25.3380   47.1660 O   0  0  0  0  0  0  0  0  0  0  0  0
   56.7100   24.7380   44.8100 O   0  0  0  0  0  0  0  0  0  0  0  0
   57.4130   27.2560   45.3370 C   0  0  0  0  0  0  0  0  0  0  0  0
   58.7710   27.1630   45.0080 C   0  0  0  0  0  0  0  0  0  0  0  0
   59.4830   28.3070   44.6410 C   0  0  0  0  0  0  0  0  0  0  0  0
   58.8420   29.5480   44.5940 C   0  0  0  0  0  0  0  0  0  0  0  0
   57.4800   29.6540   44.9010 C   0  0  0  0  0  0  0  0  0  0  0  0
   56.8660   30.9500   44.8630 N   0  0  0  0  0  0  0  0  0  0  0  0
   57.4460   32.1550   44.3440 C   0  0  0  0  0  0  0  0  0  0  0  0
   57.4330   32.3860   43.1040 O   0  0  0  0  0  0  0  0  0  0  0  0
   58.1130   33.1090   45.2500 C   0  0  0  0  0  0  0  0  0  0  0  0
   58.8790   34.1760   44.7510 C   0  0  0  0  0  0  0  0  0  0  0  0
   59.4960   35.0540   45.6450 C   0  0  0  0  0  0  0  0  0  0  0  0
   59.3460   34.8660   47.0190 C   0  0  0  0  0  0  0  0  0  0  0  0
   58.5790   33.7970   47.4830 C   0  0  0  0  0  0  0  0  0  0  0  0
   57.9870   32.9500   46.5980 N   0  0  0  0  0  0  0  0  0  0  0  0
   56.7710   28.5030   45.2950 C   0  0  0  0  0  0  0  0  0  0  0  0
   54.7760   27.0940   46.5040 H   0  0  0  0  0  0  0  0  0  0  0  0
   59.2778   26.1872   45.0387 H   0  0  0  0  0  0  0  0  0  0  0  0
   60.5509   28.2311   44.3883 H   0  0  0  0  0  0  0  0  0  0  0  0
   59.4109   30.4469   44.3141 H   0  0  0  0  0  0  0  0  0  0  0  0
   58.9917   34.3185   43.6661 H   0  0  0  0  0  0  0  0  0  0  0  0
   60.0992   35.8923   45.2662 H   0  0  0  0  0  0  0  0  0  0  0  0
   59.8277   35.5538   47.7296 H   0  0  0  0  0  0  0  0  0  0  0  0
   58.4529   33.6389   48.5643 H   0  0  0  0  0  0  0  0  0  0  0  0
   55.7091   28.5817   45.5711 H   0  0  0  0  0  0  0  0  0  0  0  0
  1  2  1  0
  2  3  2  0
  2  4  2  0
  2  5  1  0
  5  6  2  0
  6  7  1  0
  7  8  2  0
  8  9  1  0
  9 10  1  0
 10 11  1  0
 11 12  2  0
 11 13  1  0
 13 14  2  0
 14 15  1  0
 15 16  2  0
 16 17  1  0
 17 18  2  0
  9 19  2  0
 19  5  1  0
 18 13  1  0
  1 20  1  0
  6 21  1  0
  7 22  1  0
  8 23  1  0
 14 24  1  0
 15 25  1  0
 16 26  1  0
 17 27  1  0
 19 28  1  0
M  CHG  2   1  -1  10  -1
M  END
>  <UniqueID>  (74) 
70

>  <SMILES>  (74) 
[NH-]S(=O)(=O)c1cccc([N-]C(=O)c2ccccn2)c1

>  <Energy>  (74) 
32.55143361396218

>  <Genealogy>  (74) 
[NH-]S(=O)(=O)c1cccc([N-]C(=O)c2ccccn2)c1 (protonated)
[NH-]S(=O)(=O)c1cccc([N-]C(=O)c2ccccn2)c1 (3D coordinates assigned)
[NH-]S(=O)(=O)c1cccc([N-]C(=O)c2ccccn2)c1 (optimized conformer: 32.55143361396218 kcal/mol)

>  <smiles>  (74) 
NS(=O)(=O)c1cccc(NC(=O)c2ccccn2)c1

>  <score_type>  (74) 
oracle

>  <origin>  (74) 
adg

>  <m_score__min__energy>  (74) 
-11.800000000000001

>  <m_primary>  (74) 
energy

$$$$
74:0
     RDKit          3D

 31 32  0  0  0  0  0  0  0  0999 V2000
   55.2950   29.3060   44.6450 N   0  0  0  0  0  0  0  0  0  0  0  0
   56.2750   28.4460   45.2310 C   0  0  0  0  0  0  0  0  0  0  0  0
   55.9170   27.3130   45.6510 O   0  0  0  0  0  0  0  0  0  0  0  0
   57.6930   28.8680   45.3530 C   0  0  0  0  0  0  0  0  0  0  0  0
   58.7000   27.9130   45.5790 C   0  0  0  0  0  0  0  0  0  0  0  0
   60.0310   28.3090   45.7060 C   0  0  0  0  0  0  0  0  0  0  0  0
   60.3540   29.6610   45.6100 C   0  0  0  0  0  0  0  0  0  0  0  0
   59.3770   30.5790   45.3960 N   0  0  0  0  0  0  0  0  0  0  0  0
   58.0660   30.2260   45.2660 C   0  0  0  0  0  0  0  0  0  0  0  0
   57.0960   31.2100   45.0300 O   0  0  0  0  0  0  0  0  0  0  0  0
   57.3420   32.3930   44.2700 C   0  0  0  0  0  0  0  0  0  0  0  0
   57.3920   33.6110   45.1560 C   0  0  0  0  0  0  0  0  0  0  0  0
   56.6150   34.5740   44.9110 O   0  0  0  0  0  0  0  0  0  0  0  0
   58.3000   33.6850   46.3320 C   0  0  0  0  0  0  0  0  0  0  0  0
   58.0520   32.8820   47.4620 C   0  0  0  0  0  0  0  0  0  0  0  0
   58.8970   32.9410   48.5740 C   0  0  0  0  0  0  0  0  0  0  0  0
   59.9990   33.7980   48.5710 C   0  0  0  0  0  0  0  0  0  0  0  0
   60.2600   34.5950   47.4550 C   0  0  0  0  0  0  0  0  0  0  0  0
   59.4190   34.5410   46.3400 C   0  0  0  0  0  0  0  0  0  0  0  0
   54.3140   28.9710   44.5200 H   0  0  0  0  0  0  0  0  0  0  0  0
   55.5130   30.2980   44.4040 H   0  0  0  0  0  0  0  0  0  0  0  0
   58.4364   26.8478   45.6560 H   0  0  0  0  0  0  0  0  0  0  0  0
   60.8185   27.5611   45.8803 H   0  0  0  0  0  0  0  0  0  0  0  0
   61.4008   29.9846   45.7076 H   0  0  0  0  0  0  0  0  0  0  0  0
   58.3045   32.2899   43.7476 H   0  0  0  0  0  0  0  0  0  0  0  0
   56.5206   32.5206   43.5496 H   0  0  0  0  0  0  0  0  0  0  0  0
   57.1866   32.2030   47.4697 H   0  0  0  0  0  0  0  0  0  0  0  0
   58.6933   32.3113   49.4526 H   0  0  0  0  0  0  0  0  0  0  0  0
   60.6615   33.8453   49.4478 H   0  0  0  0  0  0  0  0  0  0  0  0
   61.1303   35.2677   47.4532 H   0  0  0  0  0  0  0  0  0  0  0  0
   59.6320   35.1706   45.4635 H   0  0  0  0  0  0  0  0  0  0  0  0
  1  2  1  0
  2  3  2  0
  2  4  1  0
  4  5  2  0
  5  6  1  0
  6  7  2  0
  7  8  1  0
  8  9  2  0
  9 10  1  0
 10 11  1  0
 11 12  1  0
 12 13  2  0
 12 14  1  0
 14 15  2  0
 15 16  1  0
 16 17  2  0
 17 18  1  0
 18 19  2  0
  9  4  1  0
 19 14  1  0
  1 20  1  0
  1 21  1  0
  5 22  1  0
  6 23  1  0
  7 24  1  0
 11 25  1  0
 11 26  1  0
 15 27  1  0
 16 28  1  0
 17 29  1  0
 18 30  1  0
 19 31  1  0
M  END
>  <UniqueID>  (75) 
71

>  <SMILES>  (75) 
NC(=O)c1cccnc1OCC(=O)c1ccccc1

>  <Energy>  (75) 
35.115132354718526

>  <Genealogy>  (75) 
NC(=O)c1cccnc1OCC(=O)c1ccccc1 (3D coordinates assigned)
NC(=O)c1cccnc1OCC(=O)c1ccccc1 (optimized conformer: 35.115132354718526 kcal/mol)

>  <smiles>  (75) 
NC(=O)c1cccnc1OCC(=O)c1ccccc1

>  <score_type>  (75) 
oracle

>  <origin>  (75) 
adg

>  <m_score__min__energy>  (75) 
-7.2199999999999998

>  <m_primary>  (75) 
energy

$$$$
75:0
     RDKit          3D

 48 52  0  0  0  0  0  0  0  0999 V2000
   58.5620   32.5100   47.0510 C   0  0  0  0  0  0  0  0  0  0  0  0
   59.6580   33.5390   48.0020 S   0  0  0  0  0  0  0  0  0  0  0  0
   59.3510   34.9840   47.7240 O   0  0  0  0  0  0  0  0  0  0  0  0
   61.0770   33.2490   47.6010 O   0  0  0  0  0  0  0  0  0  0  0  0
   59.4520   33.1890   49.7490 C   0  0  2  0  0  0  0  0  0  0  0  0
   60.6170   32.3830   50.3280 C   0  0  0  0  0  0  0  0  0  0  0  0
   59.9990   31.4890   51.3960 C   0  0  0  0  0  0  0  0  0  0  0  0
   58.5750   31.4560   51.1050 N   0  0  0  0  0  0  0  0  0  0  0  0
   57.6240   30.6040   51.7670 C   0  0  0  0  0  0  0  0  0  0  0  0
   56.3190   30.9920   51.8340 N   0  0  0  0  0  0  0  0  0  0  0  0
   55.4260   30.1800   52.4410 C   0  0  0  0  0  0  0  0  0  0  0  0
   54.0760   30.3810   52.6510 C   0  0  0  0  0  0  0  0  0  0  0  0
   53.2880   31.4060   52.2960 C   0  0  0  0  0  0  0  0  0  0  0  0
   52.3290   31.3610   51.1800 C   0  0  0  0  0  0  0  0  0  0  0  0
   52.3700   30.4410   50.2020 N   0  0  0  0  0  0  0  0  0  0  0  0
   51.3720   30.8200   49.3740 C   0  0  0  0  0  0  0  0  0  0  0  0
   51.0810   30.1850   48.3270 O   0  0  0  0  0  0  0  0  0  0  0  0
   50.7160   31.9400   49.7510 N   0  0  0  0  0  0  0  0  0  0  0  0
   51.3430   32.2770   50.8890 C   0  0  0  0  0  0  0  0  0  0  0  0
   51.0410   33.4160   51.6260 O   0  0  0  0  0  0  0  0  0  0  0  0
   53.6940   29.2660   53.3900 C   0  0  0  0  0  0  0  0  0  0  0  0
   54.7620   28.4550   53.5880 N   0  0  0  0  0  0  0  0  0  0  0  0
   55.8030   29.0290   53.0030 N   0  0  0  0  0  0  0  0  0  0  0  0
   57.1010   28.6120   52.9610 C   0  0  0  0  0  0  0  0  0  0  0  0
   57.5040   27.4890   53.4930 N   0  0  0  0  0  0  0  0  0  0  0  0
   57.8200   27.2550   54.8980 C   0  0  0  0  0  0  0  0  0  0  0  0
   56.5920   26.9080   55.7170 C   0  0  0  0  0  0  0  0  0  0  0  0
   57.2280   28.2840   55.8440 C   0  0  0  0  0  0  0  0  0  0  0  0
   58.0100   29.4130   52.3290 N   0  0  0  0  0  0  0  0  0  0  0  0
   58.2020   32.3620   50.0310 C   0  0  0  0  0  0  0  0  0  0  0  0
   57.9319   31.9184   47.7314 H   0  0  0  0  0  0  0  0  0  0  0  0
   57.9234   33.1424   46.4168 H   0  0  0  0  0  0  0  0  0  0  0  0
   59.1529   31.8329   46.4168 H   0  0  0  0  0  0  0  0  0  0  0  0
   59.3878   34.1828   50.2162 H   0  0  0  0  0  0  0  0  0  0  0  0
   61.0913   31.7745   49.5439 H   0  0  0  0  0  0  0  0  0  0  0  0
   61.3995   33.0353   50.7430 H   0  0  0  0  0  0  0  0  0  0  0  0
   60.4251   30.4763   51.3422 H   0  0  0  0  0  0  0  0  0  0  0  0
   60.1979   31.8692   52.4089 H   0  0  0  0  0  0  0  0  0  0  0  0
   53.3627   32.3385   52.8746 H   0  0  0  0  0  0  0  0  0  0  0  0
   52.6762   29.0713   53.7590 H   0  0  0  0  0  0  0  0  0  0  0  0
   58.8220   26.8239   54.7563 H   0  0  0  0  0  0  0  0  0  0  0  0
   55.6151   26.7969   55.2237 H   0  0  0  0  0  0  0  0  0  0  0  0
   56.3277   26.1051   56.4209 H   0  0  0  0  0  0  0  0  0  0  0  0
   56.7116   29.1682   55.4422 H   0  0  0  0  0  0  0  0  0  0  0  0
   57.6147   28.8892   56.6772 H   0  0  0  0  0  0  0  0  0  0  0  0
   59.0090   29.1100   52.2900 H   0  0  0  0  0  0  0  0  0  0  0  0
   57.9043   31.7963   49.1358 H   0  0  0  0  0  0  0  0  0  0  0  0
   57.3457   32.9947   50.3073 H   0  0  0  0  0  0  0  0  0  0  0  0
  1  2  1  0
  2  3  2  0
  2  4  2  0
  2  5  1  0
  5  6  1  0
  6  7  1  0
  7  8  1  0
  8  9  1  0
  9 10  1  0
 10 11  2  0
 11 12  1  0
 12 13  2  3
 13 14  1  0
 14 15  1  0
 15 16  1  0
 16 17  2  0
 16 18  1  0
 18 19  1  0
 19 20  1  0
 12 21  1  0
 21 22  2  0
 22 23  1  0
 23 24  1  0
 24 25  2  3
 25 26  1  0
 26 27  1  0
 27 28  1  0
 24 29  1  0
  8 30  1  0
 30  5  1  0
 29  9  2  0
 23 11  1  0
 28 26  1  0
 19 14  2  0
  1 31  1  0
  1 32  1  0
  1 33  1  0
  5 34  1  1
  6 35  1  0
  6 36  1  0
  7 37  1  0
  7 38  1  0
 13 39  1  0
 21 40  1  0
 26 41  1  0
 27 42  1  0
 27 43  1  0
 28 44  1  0
 28 45  1  0
 29 46  1  0
 30 47  1  0
 30 48  1  0
M  CHG  4  15  -1  18  -1  20  -1  29   1
M  END
>  <UniqueID>  (76) 
72

>  <SMILES>  (76) 
CS(=O)(=O)[C@@H]1CCN(c2nc3c(=Cc4[n-]c(=O)[n-]c4[O-])cnn3c(=NC3CC3)[nH+]2)C1

>  <Energy>  (76) 
385.7579223179697

>  <Genealogy>  (76) 
CS(=O)(=O)C1CCN(c2nc3c(=Cc4[n-]c(=O)[n-]c4[O-])cnn3c(=NC3CC3)[nH+]2)C1 (protonated)
CS(=O)(=O)[C@@H]1CCN(c2nc3c(=Cc4[n-]c(=O)[n-]c4[O-])cnn3c(=NC3CC3)[nH+]2)C1 (chirality)
CS(=O)(=O)[C@@H]1CCN(c2nc3c(=Cc4[n-]c(=O)[n-]c4[O-])cnn3c(=NC3CC3)[nH+]2)C1 (3D coordinates assigned)
CS(=O)(=O)[C@@H]1CCN(c2nc3c(=Cc4[n-]c(=O)[n-]c4[O-])cnn3c(=NC3CC3)[nH+]2)C1 (nonaromatic ring conformer: 385.7579223179697 kcal/mol)

>  <smiles>  (76) 
CS(=O)(=O)C1CCN(c2nc(=NC3CC3)n3ncc(=Cc4[nH]c(=O)[nH]c4O)c3n2)C1

>  <score_type>  (76) 
oracle

>  <origin>  (76) 
adg

>  <m_score__min__energy>  (76) 
-15.41

>  <m_primary>  (76) 
energy

$$$$
76:0
     RDKit          3D

 50 52  0  0  0  0  0  0  0  0999 V2000
   61.6030   29.4020   52.1360 C   0  0  0  0  0  0  0  0  0  0  0  0
   60.1320   29.6690   51.7810 C   0  0  1  0  0  0  0  0  0  0  0  0
   59.8930   31.0880   51.2160 C   0  0  0  0  0  0  0  0  0  0  0  0
   61.1950   31.7700   50.7660 C   0  0  0  0  0  0  0  0  0  0  0  0
   60.9640   33.2140   50.3010 C   0  0  0  0  0  0  0  0  0  0  0  0
   60.2790   33.2590   49.0090 N   0  0  0  0  0  0  0  0  0  0  0  0
   58.8790   33.0860   48.7730 C   0  0  0  0  0  0  0  0  0  0  0  0
   58.0610   32.6640   49.6330 O   0  0  0  0  0  0  0  0  0  0  0  0
   58.5480   33.5010   47.4150 C   0  0  0  0  0  0  0  0  0  0  0  0
   57.3280   33.5200   46.7420 C   0  0  0  0  0  0  0  0  0  0  0  0
   57.3120   33.9980   45.4190 C   0  0  0  0  0  0  0  0  0  0  0  0
   58.5020   34.4460   44.8060 C   0  0  0  0  0  0  0  0  0  0  0  0
   59.7210   34.4210   45.5090 C   0  0  0  0  0  0  0  0  0  0  0  0
   59.7110   33.9390   46.8160 C   0  0  0  0  0  0  0  0  0  0  0  0
   60.7880   33.8060   47.7910 C   0  0  0  0  0  0  0  0  0  0  0  0
   61.9890   34.1370   47.6080 O   0  0  0  0  0  0  0  0  0  0  0  0
   59.5800   28.6040   50.9230 N   0  0  0  0  0  0  0  0  0  0  0  0
   60.3750   28.3670   49.3840 S   0  0  0  0  0  0  0  0  0  0  0  0
   60.8820   26.9550   49.2820 O   0  0  0  0  0  0  0  0  0  0  0  0
   61.5610   29.2880   49.3190 O   0  0  0  0  0  0  0  0  0  0  0  0
   59.3270   28.7390   48.0180 C   0  0  0  0  0  0  0  0  0  0  0  0
   59.1250   30.0730   47.6430 C   0  0  0  0  0  0  0  0  0  0  0  0
   58.2800   30.3840   46.5740 C   0  0  0  0  0  0  0  0  0  0  0  0
   57.6370   29.3610   45.8650 C   0  0  0  0  0  0  0  0  0  0  0  0
   56.5500   29.7530   44.5360 S   0  0  0  0  0  0  0  0  0  0  0  0
   57.0440   28.9050   43.1130 N   0  0  0  0  0  0  0  0  0  0  0  0
   55.1450   29.3560   44.8940 O   0  0  0  0  0  0  0  0  0  0  0  0
   56.5800   31.2330   44.2730 O   0  0  0  0  0  0  0  0  0  0  0  0
   57.8400   28.0250   46.2380 C   0  0  0  0  0  0  0  0  0  0  0  0
   58.6860   27.7150   47.3070 C   0  0  0  0  0  0  0  0  0  0  0  0
   61.7183   29.3811   53.2297 H   0  0  0  0  0  0  0  0  0  0  0  0
   61.9115   28.4332   51.7162 H   0  0  0  0  0  0  0  0  0  0  0  0
   62.2323   30.2006   51.7162 H   0  0  0  0  0  0  0  0  0  0  0  0
   59.5675   29.6400   52.7247 H   0  0  0  0  0  0  0  0  0  0  0  0
   59.2166   31.0141   50.3517 H   0  0  0  0  0  0  0  0  0  0  0  0
   59.4568   31.6986   52.0203 H   0  0  0  0  0  0  0  0  0  0  0  0
   61.9002   31.7785   51.6102 H   0  0  0  0  0  0  0  0  0  0  0  0
   61.5961   31.2016   49.9139 H   0  0  0  0  0  0  0  0  0  0  0  0
   60.3500   33.7364   51.0493 H   0  0  0  0  0  0  0  0  0  0  0  0
   61.9439   33.7010   50.1888 H   0  0  0  0  0  0  0  0  0  0  0  0
   56.4058   33.1719   47.2302 H   0  0  0  0  0  0  0  0  0  0  0  0
   56.3659   34.0228   44.8585 H   0  0  0  0  0  0  0  0  0  0  0  0
   58.4764   34.8175   43.7709 H   0  0  0  0  0  0  0  0  0  0  0  0
   60.6528   34.7712   45.0409 H   0  0  0  0  0  0  0  0  0  0  0  0
   59.6334   30.8793   48.1920 H   0  0  0  0  0  0  0  0  0  0  0  0
   58.1195   31.4342   46.2888 H   0  0  0  0  0  0  0  0  0  0  0  0
   56.9280   27.8860   43.3110 H   0  0  0  0  0  0  0  0  0  0  0  0
   58.0680   29.0730   42.9980 H   0  0  0  0  0  0  0  0  0  0  0  0
   57.3324   27.2187   45.6883 H   0  0  0  0  0  0  0  0  0  0  0  0
   58.8491   26.6648   47.5909 H   0  0  0  0  0  0  0  0  0  0  0  0
  1  2  1  0
  2  3  1  0
  3  4  1  0
  4  5  1  0
  5  6  1  0
  6  7  1  0
  7  8  2  0
  7  9  1  0
  9 10  2  0
 10 11  1  0
 11 12  2  0
 12 13  1  0
 13 14  2  0
 14 15  1  0
 15 16  2  0
  2 17  1  0
 17 18  1  0
 18 19  2  0
 18 20  2  0
 18 21  1  0
 21 22  2  0
 22 23  1  0
 23 24  2  0
 24 25  1  0
 25 26  1  0
 25 27  2  0
 25 28  2  0
 24 29  1  0
 29 30  2  0
 15  6  1  0
 30 21  1  0
 14  9  1  0
  1 31  1  0
  1 32  1  0
  1 33  1  0
  2 34  1  1
  3 35  1  0
  3 36  1  0
  4 37  1  0
  4 38  1  0
  5 39  1  0
  5 40  1  0
 10 41  1  0
 11 42  1  0
 12 43  1  0
 13 44  1  0
 22 45  1  0
 23 46  1  0
 26 47  1  0
 26 48  1  0
 29 49  1  0
 30 50  1  0
M  CHG  1  17  -1
M  END
>  <UniqueID>  (77) 
73

>  <SMILES>  (77) 
C[C@@H](CCCN1C(=O)c2ccccc2C1=O)[N-]S(=O)(=O)c1ccc(S(N)(=O)=O)cc1

>  <Energy>  (77) 
78.97040481821182

>  <Genealogy>  (77) 
CC(CCCN1C(=O)c2ccccc2C1=O)[N-]S(=O)(=O)c1ccc(S(N)(=O)=O)cc1 (protonated)
C[C@@H](CCCN1C(=O)c2ccccc2C1=O)[N-]S(=O)(=O)c1ccc(S(N)(=O)=O)cc1 (chirality)
C[C@@H](CCCN1C(=O)c2ccccc2C1=O)[N-]S(=O)(=O)c1ccc(S(N)(=O)=O)cc1 (3D coordinates assigned)
C[C@@H](CCCN1C(=O)c2ccccc2C1=O)[N-]S(=O)(=O)c1ccc(S(N)(=O)=O)cc1 (nonaromatic ring conformer: 78.97040481821182 kcal/mol)

>  <smiles>  (77) 
CC(CCCN1C(=O)c2ccccc2C1=O)NS(=O)(=O)c1ccc(S(N)(=O)=O)cc1

>  <score_type>  (77) 
oracle

>  <origin>  (77) 
adg

>  <m_score__min__energy>  (77) 
-10.789999999999999

>  <m_primary>  (77) 
energy

$$$$
77:0
     RDKit          3D

 33 35  0  0  0  0  0  0  0  0999 V2000
   56.9359   25.3038   47.0171 H   0  0  0  0  0  0  0  0  0  0  0  0
   57.2360   26.2630   46.5700 C   0  0  0  0  0  0  0  0  0  0  0  0
   58.5790   26.6450   46.5790 C   0  0  0  0  0  0  0  0  0  0  0  0
   59.3342   25.9808   47.0244 H   0  0  0  0  0  0  0  0  0  0  0  0
   58.9690   27.8710   46.0230 C   0  0  0  0  0  0  0  0  0  0  0  0
   60.4230   28.2610   46.0070 C   0  0  0  0  0  0  0  0  0  0  0  0
   61.0393   27.3686   46.1910 H   0  0  0  0  0  0  0  0  0  0  0  0
   60.6650   28.6927   45.0246 H   0  0  0  0  0  0  0  0  0  0  0  0
   60.6970   29.2570   47.0420 N   0  0  0  0  0  0  0  0  0  0  0  0
   60.3640   30.5100   46.9580 C   0  0  0  0  0  0  0  0  0  0  0  0
   59.0770   30.9500   46.9850 N   0  0  0  0  0  0  0  0  0  0  0  0
   59.2240   32.2820   46.8640 C   0  0  0  0  0  0  0  0  0  0  0  0
   58.2210   33.2480   46.8260 C   0  0  0  0  0  0  0  0  0  0  0  0
   57.1592   32.9700   46.8996 H   0  0  0  0  0  0  0  0  0  0  0  0
   58.6150   34.5930   46.6900 C   0  0  0  0  0  0  0  0  0  0  0  0
   57.8525   35.3852   46.6574 H   0  0  0  0  0  0  0  0  0  0  0  0
   59.9850   34.9320   46.5950 C   0  0  0  0  0  0  0  0  0  0  0  0
   60.2808   35.9861   46.4884 H   0  0  0  0  0  0  0  0  0  0  0  0
   60.9730   33.9290   46.6360 C   0  0  0  0  0  0  0  0  0  0  0  0
   62.0423   34.1767   46.5635 H   0  0  0  0  0  0  0  0  0  0  0  0
   60.5430   32.6110   46.7720 C   0  0  0  0  0  0  0  0  0  0  0  0
   61.2850   31.4970   46.8310 N   0  0  0  0  0  0  0  0  0  0  0  0
   62.3250   31.4100   46.7850 H   0  0  0  0  0  0  0  0  0  0  0  0
   57.9990   28.7070   45.4430 C   0  0  0  0  0  0  0  0  0  0  0  0
   58.2993   29.6684   45.0007 H   0  0  0  0  0  0  0  0  0  0  0  0
   56.6430   28.3200   45.4250 C   0  0  0  0  0  0  0  0  0  0  0  0
   55.6450   29.1220   44.8480 O   0  0  0  0  0  0  0  0  0  0  0  0
   55.8820   30.1080   43.8480 C   0  0  0  0  0  0  0  0  0  0  0  0
   56.1132   31.0699   44.3290 H   0  0  0  0  0  0  0  0  0  0  0  0
   56.7312   29.7979   43.2213 H   0  0  0  0  0  0  0  0  0  0  0  0
   54.9847   30.2177   43.2213 H   0  0  0  0  0  0  0  0  0  0  0  0
   56.2720   27.0950   45.9950 C   0  0  0  0  0  0  0  0  0  0  0  0
   54.9390   26.7000   45.9900 O   0  0  0  0  0  0  0  0  0  0  0  0
  1  2  1  0
  2  3  2  0
  3  4  1  0
  3  5  1  0
  5  6  1  0
  6  7  1  0
  6  8  1  0
  6  9  1  0
  9 10  2  0
 10 11  1  0
 11 12  1  0
 12 13  2  0
 13 14  1  0
 13 15  1  0
 15 16  1  0
 15 17  2  0
 17 18  1  0
 17 19  1  0
 19 20  1  0
 19 21  2  0
 21 22  1  0
 22 23  1  0
  5 24  2  0
 24 25  1  0
 24 26  1  0
 26 27  1  0
 27 28  1  0
 28 29  1  0
 28 30  1  0
 28 31  1  0
 26 32  2  0
 32 33  1  0
 32  2  1  0
 22 10  1  0
 21 12  1  0
M  CHG  2  11  -1  33  -1
M  END
>  <UniqueID>  (78) 
74

>  <SMILES>  (78) 
COc1cc(C/N=c2\[n-]c3ccccc3[nH]2)ccc1[O-]

>  <Energy>  (78) 
70.4691342074482

>  <Genealogy>  (78) 
COc1cc(CN=c2[n-]c3ccccc3[nH]2)ccc1[O-] (protonated)
COc1cc(C/N=c2\[n-]c3ccccc3[nH]2)ccc1[O-] (cis-trans isomerization)
COc1cc(C/N=c2\[n-]c3ccccc3[nH]2)ccc1[O-] (3D coordinates assigned)
COc1cc(C/N=c2\[n-]c3ccccc3[nH]2)ccc1[O-] (optimized conformer: 70.4691342074482 kcal/mol)

>  <smiles>  (78) 
COc1cc(CN=c2[nH]c3ccccc3[nH]2)ccc1O

>  <score_type>  (78) 
oracle

>  <origin>  (78) 
adg

>  <m_score__min__energy>  (78) 
-12.08

>  <m_primary>  (78) 
energy

$$$$
78:0
     RDKit          3D

 45 47  0  0  0  0  0  0  0  0999 V2000
   56.2640   29.9420   42.5170 C   0  0  0  0  0  0  0  0  0  0  0  0
   56.7590   30.1860   43.9420 C   0  0  1  0  0  0  0  0  0  0  0  0
   57.7110   29.0610   44.3800 C   0  0  0  0  0  0  0  0  0  0  0  0
   58.3220   29.3900   45.6740 N   0  0  0  0  0  0  0  0  0  0  0  0
   58.7650   28.3200   46.5370 C   0  0  0  0  0  0  0  0  0  0  0  0
   60.0000   28.1030   46.6770 O   0  0  0  0  0  0  0  0  0  0  0  0
   57.7850   27.4120   47.2380 C   0  0  0  0  0  0  0  0  0  0  0  0
   57.4730   26.2440   46.4130 N   0  0  0  0  0  0  0  0  0  0  0  0
   56.2840   25.9590   45.8370 C   0  0  0  0  0  0  0  0  0  0  0  0
   55.1360   26.7290   45.9870 O   0  0  0  0  0  0  0  0  0  0  0  0
   56.3780   24.8080   45.0810 C   0  0  0  0  0  0  0  0  0  0  0  0
   57.6690   24.3520   45.2220 C   0  0  0  0  0  0  0  0  0  0  0  0
   58.3250   25.2690   46.0180 C   0  0  0  0  0  0  0  0  0  0  0  0
   59.6770   25.2100   46.3530 O   0  0  0  0  0  0  0  0  0  0  0  0
   58.2200   23.1640   44.4940 C   0  0  0  0  0  0  0  0  0  0  0  0
   57.0730   22.2590   44.0040 C   0  0  0  0  0  0  0  0  0  0  0  0
   55.9410   23.0750   43.3400 C   0  0  0  0  0  0  0  0  0  0  0  0
   55.3090   24.0810   44.3230 C   0  0  0  0  0  0  0  0  0  0  0  0
   58.7780   30.7700   45.8870 C   0  0  0  0  0  0  0  0  0  0  0  0
   57.7440   31.7630   45.3270 C   0  0  1  0  0  0  0  0  0  0  0  0
   58.2970   33.1860   45.3690 C   0  0  0  0  0  0  0  0  0  0  0  0
   57.4190   31.4380   43.9890 O   0  0  0  0  0  0  0  0  0  0  0  0
   55.2778   29.4559   42.5496 H   0  0  0  0  0  0  0  0  0  0  0  0
   56.1818   30.9028   41.9878 H   0  0  0  0  0  0  0  0  0  0  0  0
   56.9760   29.2917   41.9878 H   0  0  0  0  0  0  0  0  0  0  0  0
   55.9030   30.1942   44.6328 H   0  0  0  0  0  0  0  0  0  0  0  0
   58.5017   28.9394   43.6251 H   0  0  0  0  0  0  0  0  0  0  0  0
   57.1404   28.1259   44.4795 H   0  0  0  0  0  0  0  0  0  0  0  0
   58.2233   27.0746   48.1888 H   0  0  0  0  0  0  0  0  0  0  0  0
   56.8558   27.9718   47.4204 H   0  0  0  0  0  0  0  0  0  0  0  0
   60.2440   26.0440   46.4240 H   0  0  0  0  0  0  0  0  0  0  0  0
   58.8059   23.5080   43.6289 H   0  0  0  0  0  0  0  0  0  0  0  0
   58.8615   22.5901   45.1789 H   0  0  0  0  0  0  0  0  0  0  0  0
   57.4729   21.5430   43.2709 H   0  0  0  0  0  0  0  0  0  0  0  0
   56.6521   21.7382   44.8767 H   0  0  0  0  0  0  0  0  0  0  0  0
   56.3550   23.6265   42.4830 H   0  0  0  0  0  0  0  0  0  0  0  0
   55.1575   22.3736   43.0171 H   0  0  0  0  0  0  0  0  0  0  0  0
   54.7049   24.8078   43.7602 H   0  0  0  0  0  0  0  0  0  0  0  0
   54.6734   23.5346   45.0354 H   0  0  0  0  0  0  0  0  0  0  0  0
   59.7395   30.9184   45.3738 H   0  0  0  0  0  0  0  0  0  0  0  0
   58.8976   30.9463   46.9662 H   0  0  0  0  0  0  0  0  0  0  0  0
   56.8399   31.6991   45.9503 H   0  0  0  0  0  0  0  0  0  0  0  0
   58.4194   33.5011   46.4158 H   0  0  0  0  0  0  0  0  0  0  0  0
   59.2721   33.2156   44.8607 H   0  0  0  0  0  0  0  0  0  0  0  0
   57.5978   33.8663   44.8607 H   0  0  0  0  0  0  0  0  0  0  0  0
  1  2  1  0
  2  3  1  0
  3  4  1  0
  4  5  1  0
  5  6  2  0
  5  7  1  0
  7  8  1  0
  8  9  1  0
  9 10  1  0
  9 11  2  0
 11 12  1  0
 12 13  2  0
 13 14  1  0
 12 15  1  0
 15 16  1  0
 16 17  1  0
 17 18  1  0
  4 19  1  0
 19 20  1  0
 20 21  1  0
 20 22  1  0
 22  2  1  0
 13  8  1  0
 18 11  1  0
  1 23  1  0
  1 24  1  0
  1 25  1  0
  2 26  1  1
  3 27  1  0
  3 28  1  0
  7 29  1  0
  7 30  1  0
 14 31  1  0
 15 32  1  0
 15 33  1  0
 16 34  1  0
 16 35  1  0
 17 36  1  0
 17 37  1  0
 18 38  1  0
 18 39  1  0
 19 40  1  0
 19 41  1  0
 20 42  1  1
 21 43  1  0
 21 44  1  0
 21 45  1  0
M  CHG  1  10  -1
M  END
>  <UniqueID>  (79) 
75

>  <SMILES>  (79) 
C[C@@H]1CN(C(=O)Cn2c([O-])c3c(c2O)CCCC3)C[C@H](C)O1

>  <Energy>  (79) 
70.39699197596234

>  <Genealogy>  (79) 
CC1CN(C(=O)Cn2c([O-])c3c(c2O)CCCC3)CC(C)O1 (protonated)
C[C@@H]1CN(C(=O)Cn2c([O-])c3c(c2O)CCCC3)C[C@H](C)O1 (chirality)
C[C@@H]1CN(C(=O)Cn2c([O-])c3c(c2O)CCCC3)C[C@H](C)O1 (3D coordinates assigned)
C[C@@H]1CN(C(=O)Cn2c([O-])c3c(c2O)CCCC3)C[C@H](C)O1 (nonaromatic ring conformer: 70.39699197596234 kcal/mol)

>  <smiles>  (79) 
CC1CN(C(=O)Cn2c(O)c3c(c2O)CCCC3)CC(C)O1

>  <score_type>  (79) 
oracle

>  <origin>  (79) 
adg

>  <m_score__min__energy>  (79) 
-10.199999999999999

>  <m_primary>  (79) 
energy

$$$$
79:0
     RDKit          3D

 30 31  0  0  0  0  0  0  0  0999 V2000
   54.2200   26.7130   46.7580 H   0  0  0  0  0  0  0  0  0  0  0  0
   54.4910   26.1910   45.9350 O   0  0  0  0  0  0  0  0  0  0  0  0
   55.5170   25.2780   46.0070 N   0  0  0  0  0  0  0  0  0  0  0  0
   56.6430   25.5050   45.4090 C   0  0  0  0  0  0  0  0  0  0  0  0
   57.0412   24.7590   44.7055 H   0  0  0  0  0  0  0  0  0  0  0  0
   57.4020   26.7480   45.6550 C   0  0  0  0  0  0  0  0  0  0  0  0
   58.4960   26.7780   46.5370 C   0  0  0  0  0  0  0  0  0  0  0  0
   58.8012   25.8600   47.0605 H   0  0  0  0  0  0  0  0  0  0  0  0
   59.1980   27.9660   46.7530 C   0  0  0  0  0  0  0  0  0  0  0  0
   60.0508   27.9781   47.4476 H   0  0  0  0  0  0  0  0  0  0  0  0
   58.8210   29.1490   46.0870 C   0  0  0  0  0  0  0  0  0  0  0  0
   59.5020   30.3650   46.2700 O   0  0  0  0  0  0  0  0  0  0  0  0
   59.3410   31.2430   47.3840 C   0  0  0  0  0  0  0  0  0  0  0  0
   58.3621   31.0578   47.8504 H   0  0  0  0  0  0  0  0  0  0  0  0
   60.1508   31.0513   48.1033 H   0  0  0  0  0  0  0  0  0  0  0  0
   59.4150   32.6820   46.9470 C   0  0  0  0  0  0  0  0  0  0  0  0
   59.8260   33.6730   47.8540 C   0  0  0  0  0  0  0  0  0  0  0  0
   60.0873   33.3970   48.8862 H   0  0  0  0  0  0  0  0  0  0  0  0
   59.9040   35.0090   47.4490 C   0  0  0  0  0  0  0  0  0  0  0  0
   60.2189   35.7821   48.1653 H   0  0  0  0  0  0  0  0  0  0  0  0
   59.5830   35.3640   46.1370 C   0  0  0  0  0  0  0  0  0  0  0  0
   59.6433   36.4160   45.8213 H   0  0  0  0  0  0  0  0  0  0  0  0
   59.1850   34.3820   45.2250 C   0  0  0  0  0  0  0  0  0  0  0  0
   58.9346   34.6615   44.1910 H   0  0  0  0  0  0  0  0  0  0  0  0
   59.1050   33.0450   45.6260 C   0  0  0  0  0  0  0  0  0  0  0  0
   58.7980   32.2741   44.9039 H   0  0  0  0  0  0  0  0  0  0  0  0
   57.7270   29.1170   45.2100 C   0  0  0  0  0  0  0  0  0  0  0  0
   57.1800   30.7000   44.2830 Br  0  0  0  0  0  0  0  0  0  0  0  0
   57.0250   27.9270   44.9950 C   0  0  0  0  0  0  0  0  0  0  0  0
   56.1702   27.9153   44.3027 H   0  0  0  0  0  0  0  0  0  0  0  0
  1  2  1  0
  2  3  1  0
  3  4  2  0
  4  5  1  0
  4  6  1  0
  6  7  2  0
  7  8  1  0
  7  9  1  0
  9 10  1  0
  9 11  2  0
 11 12  1  0
 12 13  1  0
 13 14  1  0
 13 15  1  0
 13 16  1  0
 16 17  2  0
 17 18  1  0
 17 19  1  0
 19 20  1  0
 19 21  2  0
 21 22  1  0
 21 23  1  0
 23 24  1  0
 23 25  2  0
 25 26  1  0
 11 27  1  0
 27 28  1  0
 27 29  2  0
 29 30  1  0
 29  6  1  0
 25 16  1  0
M  END
>  <UniqueID>  (80) 
76

>  <SMILES>  (80) 
O/N=C/c1ccc(OCc2ccccc2)c(Br)c1

>  <Energy>  (80) 
29.012991196405117

>  <Genealogy>  (80) 
O/N=C/c1ccc(OCc2ccccc2)c(Br)c1 (cis-trans isomerization)
O/N=C/c1ccc(OCc2ccccc2)c(Br)c1 (3D coordinates assigned)
O/N=C/c1ccc(OCc2ccccc2)c(Br)c1 (optimized conformer: 29.012991196405117 kcal/mol)

>  <smiles>  (80) 
ON=Cc1ccc(OCc2ccccc2)c(Br)c1

>  <score_type>  (80) 
oracle

>  <origin>  (80) 
adg

>  <m_score__min__energy>  (80) 
-8.1199999999999992

>  <m_primary>  (80) 
energy

$$$$
80:0
     RDKit          3D

 55 58  0  0  1  0  0  0  0  0999 V2000
   60.2780   31.8560   46.1780 O   0  0  0  0  0  0  0  0  0  0  0  0
   59.6840   32.9590   46.3470 C   0  0  0  0  0  0  0  0  0  0  0  0
   60.0880   33.8410   47.4850 C   0  0  0  0  0  0  0  0  0  0  0  0
   61.4490   33.5390   47.9740 C   0  0  0  0  0  0  0  0  0  0  0  0
   62.4880   33.1990   47.0990 C   0  0  0  0  0  0  0  0  0  0  0  0
   63.5820   32.9840   47.8600 N   0  0  0  0  0  0  0  0  0  0  0  0
   63.2410   33.1820   49.1520 C   0  0  0  0  0  0  0  0  0  0  0  0
   61.9560   33.5160   49.2160 N   0  0  0  0  0  0  0  0  0  0  0  0
   58.6390   33.4330   45.5180 N   0  0  0  0  0  0  0  0  0  0  0  0
   58.1240   32.7490   44.3900 C   0  0  0  0  0  0  0  0  0  0  0  0
   58.4720   33.0410   43.0890 C   0  0  0  0  0  0  0  0  0  0  0  0
   57.8970   32.2550   42.0780 C   0  0  0  0  0  0  0  0  0  0  0  0
   57.0190   31.2330   42.3680 C   0  0  0  0  0  0  0  0  0  0  0  0
   56.6650   30.9350   43.6930 C   0  0  0  0  0  0  0  0  0  0  0  0
   55.7460   29.8240   44.0150 C   0  0  0  0  0  0  0  0  0  0  0  0
   56.1480   29.2020   45.2250 N   0  0  0  0  0  0  0  0  0  0  0  0
   57.3560   28.9280   45.5680 C   0  0  0  0  0  0  0  0  0  0  0  0
   58.1130   28.0870   44.7940 C   0  0  0  0  0  0  0  0  0  0  0  0
   59.4170   27.7730   45.1310 C   0  0  0  0  0  0  0  0  0  0  0  0
   59.9180   28.3400   46.2710 N   0  0  0  0  0  0  0  0  0  0  0  0
   59.1750   29.1640   47.0300 C   0  0  0  0  0  0  0  0  0  0  0  0
   59.6460   29.7810   48.2220 N   0  0  0  0  0  0  0  0  0  0  0  0
   60.8260   29.2520   48.9310 C   0  0  0  0  0  0  0  0  0  0  0  0
   61.4220   30.4600   49.6760 C   0  0  0  0  0  0  0  0  0  0  0  0
   60.4170   30.8020   50.7380 C   0  0  0  0  0  0  0  0  0  0  0  0
   61.0060   31.7230   51.6040 O   0  0  0  0  0  0  0  0  0  0  0  0
   59.1480   31.2780   50.1360 C   0  0  0  0  0  0  0  0  0  0  0  0
   58.9260   30.9400   48.7060 C   0  0  0  0  0  0  0  0  0  0  0  0
   57.8850   29.4550   46.6700 N   0  0  0  0  0  0  0  0  0  0  0  0
   57.2380   31.7140   44.6530 C   0  0  0  0  0  0  0  0  0  0  0  0
   60.0573   34.8880   47.1490 H   0  0  0  0  0  0  0  0  0  0  0  0
   59.3862   33.6635   48.3133 H   0  0  0  0  0  0  0  0  0  0  0  0
   62.4249   33.1220   46.0035 H   0  0  0  0  0  0  0  0  0  0  0  0
   64.5240   32.7100   47.4600 H   0  0  0  0  0  0  0  0  0  0  0  0
   63.9182   33.0827   50.0131 H   0  0  0  0  0  0  0  0  0  0  0  0
   58.1860   34.3660   45.7320 H   0  0  0  0  0  0  0  0  0  0  0  0
   59.1715   33.8563   42.8525 H   0  0  0  0  0  0  0  0  0  0  0  0
   58.1536   32.4599   41.0281 H   0  0  0  0  0  0  0  0  0  0  0  0
   56.5884   30.6408   41.5471 H   0  0  0  0  0  0  0  0  0  0  0  0
   54.7246   30.2163   44.1281 H   0  0  0  0  0  0  0  0  0  0  0  0
   55.7715   29.0845   43.2010 H   0  0  0  0  0  0  0  0  0  0  0  0
   57.6733   27.6521   43.8843 H   0  0  0  0  0  0  0  0  0  0  0  0
   60.0242   27.0977   44.5103 H   0  0  0  0  0  0  0  0  0  0  0  0
   60.9060   28.1390   46.5810 H   0  0  0  0  0  0  0  0  0  0  0  0
   60.5292   28.4676   49.6427 H   0  0  0  0  0  0  0  0  0  0  0  0
   61.5507   28.7953   48.2409 H   0  0  0  0  0  0  0  0  0  0  0  0
   62.3882   30.1949   50.1302 H   0  0  0  0  0  0  0  0  0  0  0  0
   61.6112   31.3073   49.0006 H   0  0  0  0  0  0  0  0  0  0  0  0
   60.1381   29.9111   51.3199 H   0  0  0  0  0  0  0  0  0  0  0  0
   61.4300   32.3970   51.0170 H   0  0  0  0  0  0  0  0  0  0  0  0
   58.3196   30.8435   50.7148 H   0  0  0  0  0  0  0  0  0  0  0  0
   59.2024   32.3761   50.1711 H   0  0  0  0  0  0  0  0  0  0  0  0
   57.8510   30.7551   48.5641 H   0  0  0  0  0  0  0  0  0  0  0  0
   59.3077   31.7958   48.1299 H   0  0  0  0  0  0  0  0  0  0  0  0
   56.9820   31.5094   45.7030 H   0  0  0  0  0  0  0  0  0  0  0  0
  1  2  2  0
  2  3  1  0
  3  4  1  0
  4  5  2  0
  5  6  1  0
  6  7  1  0
  7  8  2  0
  2  9  1  0
  9 10  1  0
 10 11  2  0
 11 12  1  0
 12 13  2  0
 13 14  1  0
 14 15  1  0
 15 16  1  0
 16 17  2  0
 17 18  1  0
 18 19  2  0
 19 20  1  0
 20 21  1  0
 21 22  1  0
 22 23  1  0
 23 24  1  0
 24 25  1  0
 25 26  1  0
 25 27  1  0
 27 28  1  0
 21 29  2  0
 14 30  2  0
  8  4  1  0
 30 10  1  0
 29 17  1  0
 28 22  1  0
  3 31  1  0
  3 32  1  0
  5 33  1  0
  6 34  1  0
  7 35  1  0
  9 36  1  0
 11 37  1  0
 12 38  1  0
 13 39  1  0
 15 40  1  0
 15 41  1  0
 18 42  1  0
 19 43  1  0
 20 44  1  0
 23 45  1  0
 23 46  1  0
 24 47  1  0
 24 48  1  0
 25 49  1  0
 26 50  1  0
 27 51  1  0
 27 52  1  0
 28 53  1  0
 28 54  1  0
 30 55  1  0
M  END
>  <smiles>  (81) 
O=C(Cc1c[nH]cn1)Nc1cccc(CN=c2cc[nH]c(N3CCC(O)CC3)n2)c1

>  <score_type>  (81) 
oracle

>  <origin>  (81) 
adg

>  <m_score__min__energy>  (81) 
-9.3499999999999996

>  <m_primary>  (81) 
energy

$$$$
81:0
     RDKit          3D

 50 52  0  0  0  0  0  0  0  0999 V2000
   59.1900   33.8270   51.7140 C   0  0  0  0  0  0  0  0  0  0  0  0
   59.9000   33.9650   50.4890 O   0  0  0  0  0  0  0  0  0  0  0  0
   60.9480   33.1130   50.1250 C   0  0  0  0  0  0  0  0  0  0  0  0
   61.2350   32.1200   50.8460 O   0  0  0  0  0  0  0  0  0  0  0  0
   61.6730   33.3250   48.8530 C   0  0  0  0  0  0  0  0  0  0  0  0
   63.0320   32.9640   48.8010 C   0  0  0  0  0  0  0  0  0  0  0  0
   63.7620   33.0970   47.6190 C   0  0  0  0  0  0  0  0  0  0  0  0
   63.1500   33.5960   46.4700 C   0  0  0  0  0  0  0  0  0  0  0  0
   61.8100   33.9810   46.5060 C   0  0  0  0  0  0  0  0  0  0  0  0
   61.0590   33.8690   47.6900 C   0  0  0  0  0  0  0  0  0  0  0  0
   59.6350   34.3730   47.6600 C   0  0  0  0  0  0  0  0  0  0  0  0
   58.7310   33.3460   48.0610 O   0  0  0  0  0  0  0  0  0  0  0  0
   58.7670   32.0690   47.4990 C   0  0  0  0  0  0  0  0  0  0  0  0
   58.6680   31.9180   46.1120 C   0  0  0  0  0  0  0  0  0  0  0  0
   58.7250   30.6450   45.5360 C   0  0  0  0  0  0  0  0  0  0  0  0
   58.8710   29.5070   46.3440 C   0  0  0  0  0  0  0  0  0  0  0  0
   58.9810   28.1380   45.7270 C   0  0  0  0  0  0  0  0  0  0  0  0
   57.8370   27.8950   44.8590 N   0  0  0  0  0  0  0  0  0  0  0  0
   56.4860   28.1630   45.2430 C   0  0  0  0  0  0  0  0  0  0  0  0
   56.0280   29.3340   45.1770 O   0  0  0  0  0  0  0  0  0  0  0  0
   55.6220   27.0930   45.6280 N   0  0  0  0  0  0  0  0  0  0  0  0
   56.0780   25.8520   46.1780 C   0  0  0  0  0  0  0  0  0  0  0  0
   55.4130   24.6660   45.8370 C   0  0  0  0  0  0  0  0  0  0  0  0
   55.8520   23.4360   46.3480 C   0  0  0  0  0  0  0  0  0  0  0  0
   56.9420   23.3930   47.2230 C   0  0  0  0  0  0  0  0  0  0  0  0
   57.3790   22.1760   47.7290 O   0  0  0  0  0  0  0  0  0  0  0  0
   57.5930   24.5790   47.5910 C   0  0  0  0  0  0  0  0  0  0  0  0
   57.1630   25.8040   47.0700 C   0  0  0  0  0  0  0  0  0  0  0  0
   58.9620   29.6620   47.7380 C   0  0  0  0  0  0  0  0  0  0  0  0
   58.9000   30.9340   48.3180 C   0  0  0  0  0  0  0  0  0  0  0  0
   58.9830   31.0530   49.7040 O   0  0  0  0  0  0  0  0  0  0  0  0
   59.8836   33.9618   52.5570 H   0  0  0  0  0  0  0  0  0  0  0  0
   58.3973   34.5879   51.7661 H   0  0  0  0  0  0  0  0  0  0  0  0
   58.7400   32.8246   51.7661 H   0  0  0  0  0  0  0  0  0  0  0  0
   63.5250   32.5722   49.7029 H   0  0  0  0  0  0  0  0  0  0  0  0
   64.8229   32.8074   47.5938 H   0  0  0  0  0  0  0  0  0  0  0  0
   63.7236   33.6860   45.5357 H   0  0  0  0  0  0  0  0  0  0  0  0
   61.3343   34.3773   45.5968 H   0  0  0  0  0  0  0  0  0  0  0  0
   59.5393   35.2272   48.3464 H   0  0  0  0  0  0  0  0  0  0  0  0
   59.3892   34.6809   46.6330 H   0  0  0  0  0  0  0  0  0  0  0  0
   58.5448   32.8040   45.4718 H   0  0  0  0  0  0  0  0  0  0  0  0
   58.6550   30.5351   44.4437 H   0  0  0  0  0  0  0  0  0  0  0  0
   59.9070   28.0769   45.1365 H   0  0  0  0  0  0  0  0  0  0  0  0
   58.9994   27.3805   46.5244 H   0  0  0  0  0  0  0  0  0  0  0  0
   54.5426   24.7003   45.1653 H   0  0  0  0  0  0  0  0  0  0  0  0
   55.3395   22.5060   46.0608 H   0  0  0  0  0  0  0  0  0  0  0  0
   58.4421   24.5462   48.2896 H   0  0  0  0  0  0  0  0  0  0  0  0
   57.6759   26.7330   47.3595 H   0  0  0  0  0  0  0  0  0  0  0  0
   59.0830   28.7759   48.3785 H   0  0  0  0  0  0  0  0  0  0  0  0
   59.1790   31.9380   50.1580 H   0  0  0  0  0  0  0  0  0  0  0  0
  1  2  1  0
  2  3  1  0
  3  4  2  0
  3  5  1  0
  5  6  2  0
  6  7  1  0
  7  8  2  0
  8  9  1  0
  9 10  2  0
 10 11  1  0
 11 12  1  0
 12 13  1  0
 13 14  2  0
 14 15  1  0
 15 16  2  0
 16 17  1  0
 17 18  1  0
 18 19  1  0
 19 20  2  0
 19 21  1  0
 21 22  1  0
 22 23  2  0
 23 24  1  0
 24 25  2  0
 25 26  1  0
 25 27  1  0
 27 28  2  0
 16 29  1  0
 29 30  2  0
 30 31  1  0
 10  5  1  0
 30 13  1  0
 28 22  1  0
  1 32  1  0
  1 33  1  0
  1 34  1  0
  6 35  1  0
  7 36  1  0
  8 37  1  0
  9 38  1  0
 11 39  1  0
 11 40  1  0
 14 41  1  0
 15 42  1  0
 17 43  1  0
 17 44  1  0
 23 45  1  0
 24 46  1  0
 27 47  1  0
 28 48  1  0
 29 49  1  0
 31 50  1  0
M  CHG  3  18  -1  21  -1  26  -1
M  END
>  <UniqueID>  (82) 
77

>  <SMILES>  (82) 
COC(=O)c1ccccc1COc1ccc(C[N-]C(=O)[N-]c2ccc([O-])cc2)cc1O

>  <Energy>  (82) 
62.480074848493516

>  <Genealogy>  (82) 
COC(=O)c1ccccc1COc1ccc(C[N-]C(=O)[N-]c2ccc([O-])cc2)cc1O (protonated)
COC(=O)c1ccccc1COc1ccc(C[N-]C(=O)[N-]c2ccc([O-])cc2)cc1O (3D coordinates assigned)
COC(=O)c1ccccc1COc1ccc(C[N-]C(=O)[N-]c2ccc([O-])cc2)cc1O (optimized conformer: 62.480074848493516 kcal/mol)

>  <smiles>  (82) 
COC(=O)c1ccccc1COc1ccc(CNC(=O)Nc2ccc(O)cc2)cc1O

>  <score_type>  (82) 
oracle

>  <origin>  (82) 
adg

>  <m_score__min__energy>  (82) 
-13.51

>  <m_primary>  (82) 
energy

$$$$
82:0
     RDKit          3D

 54 57  0  0  1  0  0  0  0  0999 V2000
   66.3530   33.0740   50.1550 C   0  0  0  0  0  0  0  0  0  0  0  0
   65.3090   32.0710   50.2680 N   0  0  0  0  0  0  0  0  0  0  0  0
   65.4350   30.9950   51.2450 C   0  0  0  0  0  0  0  0  0  0  0  0
   64.1540   32.1160   49.4400 C   0  0  0  0  0  0  0  0  0  0  0  0
   63.2460   31.2330   49.5460 O   0  0  0  0  0  0  0  0  0  0  0  0
   64.0020   33.1230   48.5020 O   0  0  0  0  0  0  0  0  0  0  0  0
   62.7340   33.4850   48.0780 C   0  0  0  0  0  0  0  0  0  0  0  0
   61.8080   33.9190   49.0110 C   0  0  0  0  0  0  0  0  0  0  0  0
   60.5210   34.2950   48.6450 C   0  0  0  0  0  0  0  0  0  0  0  0
   60.1130   34.2470   47.3270 C   0  0  0  0  0  0  0  0  0  0  0  0
   58.7630   34.6340   46.8950 C   0  0  0  0  0  0  0  0  0  0  0  0
   58.5080   34.3280   45.4140 C   0  0  0  0  0  0  0  0  0  0  0  0
   57.3170   33.5100   45.2730 N   0  0  0  0  0  0  0  0  0  0  0  0
   57.4280   32.2090   45.2260 C   0  0  0  0  0  0  0  0  0  0  0  0
   58.3250   31.6250   46.0590 N   0  0  0  0  0  0  0  0  0  0  0  0
   58.4180   30.2850   45.9880 C   0  0  0  0  0  0  0  0  0  0  0  0
   59.2060   29.3770   46.6720 C   0  0  0  0  0  0  0  0  0  0  0  0
   60.0980   29.6680   47.6070 C   0  0  0  0  0  0  0  0  0  0  0  0
   59.7720   30.4300   48.8100 C   0  0  0  0  0  0  0  0  0  0  0  0
   58.8760   31.4220   48.9540 N   0  0  0  0  0  0  0  0  0  0  0  0
   58.9390   31.8050   50.2450 C   0  0  0  0  0  0  0  0  0  0  0  0
   58.2380   32.7290   50.7810 O   0  0  0  0  0  0  0  0  0  0  0  0
   59.8410   31.0910   50.9160 N   0  0  0  0  0  0  0  0  0  0  0  0
   60.3920   30.2080   50.0450 C   0  0  0  0  0  0  0  0  0  0  0  0
   61.3890   29.2580   50.3250 O   0  0  0  0  0  0  0  0  0  0  0  0
   58.9240   28.0980   46.2290 C   0  0  0  0  0  0  0  0  0  0  0  0
   57.9730   28.2520   45.2880 N   0  0  0  0  0  0  0  0  0  0  0  0
   57.6770   29.5360   45.1490 N   0  0  0  0  0  0  0  0  0  0  0  0
   56.7880   30.1320   44.3250 C   0  0  0  0  0  0  0  0  0  0  0  0
   56.0900   29.3980   43.5290 N   0  0  0  0  0  0  0  0  0  0  0  0
   56.6700   31.4730   44.3700 N   0  0  0  0  0  0  0  0  0  0  0  0
   61.0550   33.8080   46.3940 C   0  0  0  0  0  0  0  0  0  0  0  0
   62.3300   33.4360   46.7600 C   0  0  0  0  0  0  0  0  0  0  0  0
   66.6748   33.3832   51.1604 H   0  0  0  0  0  0  0  0  0  0  0  0
   67.2098   32.6516   49.6095 H   0  0  0  0  0  0  0  0  0  0  0  0
   65.9653   33.9470   49.6095 H   0  0  0  0  0  0  0  0  0  0  0  0
   65.3859   31.4144   52.2607 H   0  0  0  0  0  0  0  0  0  0  0  0
   64.6150   30.2752   51.1055 H   0  0  0  0  0  0  0  0  0  0  0  0
   66.3991   30.4841   51.1055 H   0  0  0  0  0  0  0  0  0  0  0  0
   62.0987   33.9676   50.0708 H   0  0  0  0  0  0  0  0  0  0  0  0
   59.8164   34.6362   49.4177 H   0  0  0  0  0  0  0  0  0  0  0  0
   58.0279   34.0833   47.5003 H   0  0  0  0  0  0  0  0  0  0  0  0
   58.6679   35.7213   47.0320 H   0  0  0  0  0  0  0  0  0  0  0  0
   58.3686   35.2715   44.8660 H   0  0  0  0  0  0  0  0  0  0  0  0
   59.3709   33.7823   45.0047 H   0  0  0  0  0  0  0  0  0  0  0  0
   61.1325   29.3196   47.4713 H   0  0  0  0  0  0  0  0  0  0  0  0
   58.2630   31.8030   48.2000 H   0  0  0  0  0  0  0  0  0  0  0  0
   60.1160   31.1540   51.9260 H   0  0  0  0  0  0  0  0  0  0  0  0
   62.3240   29.3400   49.9390 H   0  0  0  0  0  0  0  0  0  0  0  0
   59.3787   27.1568   46.5716 H   0  0  0  0  0  0  0  0  0  0  0  0
   56.2680   28.3690   43.5340 H   0  0  0  0  0  0  0  0  0  0  0  0
   55.9930   31.9210   43.7420 H   0  0  0  0  0  0  0  0  0  0  0  0
   60.7697   33.7576   45.3328 H   0  0  0  0  0  0  0  0  0  0  0  0
   63.0368   33.0946   45.9893 H   0  0  0  0  0  0  0  0  0  0  0  0
  1  2  1  0
  2  3  1  0
  2  4  1  0
  4  5  2  0
  4  6  1  0
  6  7  1  0
  7  8  2  0
  8  9  1  0
  9 10  2  0
 10 11  1  0
 11 12  1  0
 12 13  1  0
 13 14  2  0
 14 15  1  0
 15 16  2  0
 16 17  1  0
 17 18  2  0
 18 19  1  0
 19 20  1  0
 20 21  1  0
 21 22  2  0
 21 23  1  0
 23 24  1  0
 24 25  1  0
 17 26  1  0
 26 27  2  0
 27 28  1  0
 28 29  1  0
 29 30  2  3
 29 31  1  0
 10 32  1  0
 32 33  2  0
 33  7  1  0
 31 14  1  0
 28 16  1  0
 24 19  2  0
  1 34  1  0
  1 35  1  0
  1 36  1  0
  3 37  1  0
  3 38  1  0
  3 39  1  0
  8 40  1  0
  9 41  1  0
 11 42  1  0
 11 43  1  0
 12 44  1  0
 12 45  1  0
 18 46  1  0
 20 47  1  0
 23 48  1  0
 25 49  1  0
 26 50  1  0
 30 51  1  0
 31 52  1  0
 32 53  1  0
 33 54  1  0
M  END
>  <smiles>  (83) 
CN(C)C(=O)Oc1ccc(CCN=c2nc3c(=Cc4[nH]c(=O)[nH]c4O)cnn3c(=N)[nH]2)cc1

>  <score_type>  (83) 
oracle

>  <origin>  (83) 
adg

>  <m_score__min__energy>  (83) 
-9.6400000000000006

>  <m_primary>  (83) 
energy

$$$$
83:0
     RDKit          3D

 57 60  0  0  0  0  0  0  0  0999 V2000
   56.0190   26.3770   45.9960 C   0  0  0  0  0  0  0  0  0  0  0  0
   56.7260   27.6230   45.5740 C   0  0  0  0  0  0  0  0  0  0  0  0
   56.0340   28.7670   45.3100 N   0  0  0  0  0  0  0  0  0  0  0  0
   56.8560   29.7830   44.9690 C   0  0  0  0  0  0  0  0  0  0  0  0
   56.4570   30.9930   44.7040 N   0  0  0  0  0  0  0  0  0  0  0  0
   57.1970   32.2070   44.9200 C   0  0  0  0  0  0  0  0  0  0  0  0
   58.0720   32.6490   43.9190 C   0  0  0  0  0  0  0  0  0  0  0  0
   58.7880   33.8400   44.0750 C   0  0  0  0  0  0  0  0  0  0  0  0
   58.6210   34.6100   45.2270 C   0  0  0  0  0  0  0  0  0  0  0  0
   57.7310   34.1940   46.2200 C   0  0  0  0  0  0  0  0  0  0  0  0
   57.0130   33.0040   46.0680 C   0  0  0  0  0  0  0  0  0  0  0  0
   58.4710   29.3290   45.0070 S   0  0  0  0  0  0  0  0  0  0  0  0
   58.1160   27.7430   45.4550 C   0  0  0  0  0  0  0  0  0  0  0  0
   59.1520   26.6910   45.7300 C   0  0  0  0  0  0  0  0  0  0  0  0
   60.4940   27.3170   46.1190 C   0  0  0  0  0  0  0  0  0  0  0  0
   60.3310   28.2140   47.2630 N   0  0  0  0  0  0  0  0  0  0  0  0
   60.3060   27.7400   48.6220 C   0  0  0  0  0  0  0  0  0  0  0  0
   60.5920   26.5390   48.8810 O   0  0  0  0  0  0  0  0  0  0  0  0
   59.9840   28.6760   49.7640 C   0  0  0  0  0  0  0  0  0  0  0  0
   61.2440   29.4270   50.2620 C   0  0  0  0  0  0  0  0  0  0  0  0
   61.2380   30.9030   49.8440 C   0  0  0  0  0  0  0  0  0  0  0  0
   60.0490   31.6220   50.3560 N   0  0  0  0  0  0  0  0  0  0  0  0
   59.8340   33.1080   49.4600 S   0  0  0  0  0  0  0  0  0  0  0  0
   59.7090   34.2610   50.4180 O   0  0  0  0  0  0  0  0  0  0  0  0
   58.5850   33.0360   48.6240 O   0  0  0  0  0  0  0  0  0  0  0  0
   61.2130   33.3940   48.4120 C   0  0  0  0  0  0  0  0  0  0  0  0
   61.1860   33.3930   47.0270 C   0  0  0  0  0  0  0  0  0  0  0  0
   62.4290   33.6920   46.4580 C   0  0  0  0  0  0  0  0  0  0  0  0
   63.4290   33.9280   47.3950 C   0  0  0  0  0  0  0  0  0  0  0  0
   62.7670   33.7670   48.9340 S   0  0  0  0  0  0  0  0  0  0  0  0
   58.7960   30.8220   50.3640 C   0  0  0  0  0  0  0  0  0  0  0  0
   58.8350   29.6360   49.3890 C   0  0  0  0  0  0  0  0  0  0  0  0
   55.9900   26.3260   47.0944 H   0  0  0  0  0  0  0  0  0  0  0  0
   54.9920   26.3869   45.6022 H   0  0  0  0  0  0  0  0  0  0  0  0
   56.5543   25.5004   45.6022 H   0  0  0  0  0  0  0  0  0  0  0  0
   58.1969   32.0539   43.0023 H   0  0  0  0  0  0  0  0  0  0  0  0
   59.4833   34.1702   43.2892 H   0  0  0  0  0  0  0  0  0  0  0  0
   59.1895   35.5433   45.3528 H   0  0  0  0  0  0  0  0  0  0  0  0
   57.5946   34.8047   47.1246 H   0  0  0  0  0  0  0  0  0  0  0  0
   56.3026   32.6888   46.8464 H   0  0  0  0  0  0  0  0  0  0  0  0
   58.8029   26.0517   46.5543 H   0  0  0  0  0  0  0  0  0  0  0  0
   59.2980   26.1008   44.8133 H   0  0  0  0  0  0  0  0  0  0  0  0
   61.2023   26.5182   46.3839 H   0  0  0  0  0  0  0  0  0  0  0  0
   60.8759   27.8964   45.2655 H   0  0  0  0  0  0  0  0  0  0  0  0
   60.0430   29.1960   47.0660 H   0  0  0  0  0  0  0  0  0  0  0  0
   59.6317   28.0672   50.6097 H   0  0  0  0  0  0  0  0  0  0  0  0
   61.2807   29.3693   51.3599 H   0  0  0  0  0  0  0  0  0  0  0  0
   62.1249   28.9496   49.8079 H   0  0  0  0  0  0  0  0  0  0  0  0
   62.1430   31.3874   50.2395 H   0  0  0  0  0  0  0  0  0  0  0  0
   61.2114   30.9438   48.7451 H   0  0  0  0  0  0  0  0  0  0  0  0
   60.2827   33.1797   46.4367 H   0  0  0  0  0  0  0  0  0  0  0  0
   62.5990   33.7362   45.3721 H   0  0  0  0  0  0  0  0  0  0  0  0
   64.4761   34.1778   47.1686 H   0  0  0  0  0  0  0  0  0  0  0  0
   58.6339   30.4347   51.3807 H   0  0  0  0  0  0  0  0  0  0  0  0
   57.9798   31.4857   50.0424 H   0  0  0  0  0  0  0  0  0  0  0  0
   57.8787   29.0945   49.4369 H   0  0  0  0  0  0  0  0  0  0  0  0
   59.0013   30.0144   48.3696 H   0  0  0  0  0  0  0  0  0  0  0  0
  1  2  1  0
  2  3  1  0
  3  4  1  0
  4  5  2  3
  5  6  1  0
  6  7  2  0
  7  8  1  0
  8  9  2  0
  9 10  1  0
 10 11  2  0
  4 12  1  0
 12 13  1  0
 13 14  1  0
 14 15  1  0
 15 16  1  0
 16 17  1  0
 17 18  2  0
 17 19  1  0
 19 20  1  0
 20 21  1  0
 21 22  1  0
 22 23  1  0
 23 24  2  0
 23 25  2  0
 23 26  1  0
 26 27  2  0
 27 28  1  0
 28 29  2  0
 29 30  1  0
 22 31  1  0
 31 32  1  0
 13  2  2  0
 32 19  1  0
 11  6  1  0
 30 26  1  0
  1 33  1  0
  1 34  1  0
  1 35  1  0
  7 36  1  0
  8 37  1  0
  9 38  1  0
 10 39  1  0
 11 40  1  0
 14 41  1  0
 14 42  1  0
 15 43  1  0
 15 44  1  0
 16 45  1  0
 19 46  1  0
 20 47  1  0
 20 48  1  0
 21 49  1  0
 21 50  1  0
 27 51  1  0
 28 52  1  0
 29 53  1  0
 31 54  1  0
 31 55  1  0
 32 56  1  0
 32 57  1  0
M  CHG  1   3  -1
M  END
>  <UniqueID>  (84) 
78

>  <SMILES>  (84) 
Cc1[n-]c(=Nc2ccccc2)sc1CCNC(=O)C1CCN(S(=O)(=O)c2cccs2)CC1

>  <Energy>  (84) 
120.51672299572604

>  <Genealogy>  (84) 
Cc1[n-]c(=Nc2ccccc2)sc1CCNC(=O)C1CCN(S(=O)(=O)c2cccs2)CC1 (protonated)
Cc1[n-]c(=Nc2ccccc2)sc1CCNC(=O)C1CCN(S(=O)(=O)c2cccs2)CC1 (3D coordinates assigned)
Cc1[n-]c(=Nc2ccccc2)sc1CCNC(=O)C1CCN(S(=O)(=O)c2cccs2)CC1 (nonaromatic ring conformer: 120.51672299572604 kcal/mol)

>  <smiles>  (84) 
Cc1[nH]c(=Nc2ccccc2)sc1CCNC(=O)C1CCN(S(=O)(=O)c2cccs2)CC1

>  <score_type>  (84) 
oracle

>  <origin>  (84) 
adg

>  <m_score__min__energy>  (84) 
-11.779999999999999

>  <m_primary>  (84) 
energy

$$$$
84:0
     RDKit          3D

 41 43  0  0  0  0  0  0  0  0999 V2000
   57.2984   33.8327   47.0969 H   0  0  0  0  0  0  0  0  0  0  0  0
   58.2860   33.4590   47.4050 C   0  0  0  0  0  0  0  0  0  0  0  0
   58.4670   32.1360   47.6440 N   0  0  0  0  0  0  0  0  0  0  0  0
   59.6680   31.6210   48.0350 C   0  0  0  0  0  0  0  0  0  0  0  0
   59.8050   30.2410   48.2420 O   0  0  0  0  0  0  0  0  0  0  0  0
   59.5060   29.2440   47.3020 C   0  0  0  0  0  0  0  0  0  0  0  0
   60.5050   28.4680   46.6940 C   0  0  0  0  0  0  0  0  0  0  0  0
   61.5606   28.6262   46.9597 H   0  0  0  0  0  0  0  0  0  0  0  0
   60.1620   27.4960   45.7530 C   0  0  0  0  0  0  0  0  0  0  0  0
   60.9493   26.8844   45.2881 H   0  0  0  0  0  0  0  0  0  0  0  0
   58.8260   27.2940   45.3970 C   0  0  0  0  0  0  0  0  0  0  0  0
   58.5440   26.3380   44.4770 F   0  0  0  0  0  0  0  0  0  0  0  0
   57.8080   28.0800   45.9810 C   0  0  0  0  0  0  0  0  0  0  0  0
   56.3760   27.8990   45.6190 C   0  0  0  0  0  0  0  0  0  0  0  0
   55.7720   26.8500   45.9740 O   0  0  0  0  0  0  0  0  0  0  0  0
   55.6840   28.9130   44.8710 N   0  0  0  0  0  0  0  0  0  0  0  0
   56.2280   29.9220   44.2580 C   0  0  0  0  0  0  0  0  0  0  0  0
   56.6880   31.0350   44.8620 N   0  0  0  0  0  0  0  0  0  0  0  0
   57.1600   31.8170   43.9050 N   0  0  0  0  0  0  0  0  0  0  0  0
   57.8080   33.0980   44.1470 C   0  0  0  0  0  0  0  0  0  0  0  0
   57.8934   33.2668   45.2306 H   0  0  0  0  0  0  0  0  0  0  0  0
   58.8116   33.0921   43.6966 H   0  0  0  0  0  0  0  0  0  0  0  0
   57.2087   33.9030   43.6966 H   0  0  0  0  0  0  0  0  0  0  0  0
   57.0290   31.2160   42.7060 C   0  0  0  0  0  0  0  0  0  0  0  0
   57.3523   31.6319   41.7403 H   0  0  0  0  0  0  0  0  0  0  0  0
   56.4210   29.9910   42.8930 C   0  0  0  0  0  0  0  0  0  0  0  0
   56.1528   29.2438   42.1316 H   0  0  0  0  0  0  0  0  0  0  0  0
   58.1700   29.0570   46.9300 C   0  0  0  0  0  0  0  0  0  0  0  0
   57.3891   29.6832   47.3861 H   0  0  0  0  0  0  0  0  0  0  0  0
   60.7810   32.4810   48.1860 C   0  0  0  0  0  0  0  0  0  0  0  0
   62.1190   31.9770   48.5990 C   0  0  0  0  0  0  0  0  0  0  0  0
   62.2200   30.9770   49.3610 O   0  0  0  0  0  0  0  0  0  0  0  0
   63.3060   32.6270   48.1330 N   0  0  0  0  0  0  0  0  0  0  0  0
   63.4300   33.1800   46.7920 C   0  0  0  0  0  0  0  0  0  0  0  0
   63.6702   34.2514   46.8580 H   0  0  0  0  0  0  0  0  0  0  0  0
   64.2331   32.6567   46.2524 H   0  0  0  0  0  0  0  0  0  0  0  0
   62.4803   33.0497   46.2524 H   0  0  0  0  0  0  0  0  0  0  0  0
   60.5980   33.8540   47.9390 C   0  0  0  0  0  0  0  0  0  0  0  0
   61.4446   34.5469   48.0535 H   0  0  0  0  0  0  0  0  0  0  0  0
   59.3510   34.3430   47.5500 C   0  0  0  0  0  0  0  0  0  0  0  0
   59.2107   35.4173   47.3596 H   0  0  0  0  0  0  0  0  0  0  0  0
  1  2  1  0
  2  3  2  0
  3  4  1  0
  4  5  1  0
  5  6  1  0
  6  7  2  0
  7  8  1  0
  7  9  1  0
  9 10  1  0
  9 11  2  0
 11 12  1  0
 11 13  1  0
 13 14  1  0
 14 15  2  0
 14 16  1  0
 16 17  2  0
 17 18  1  0
 18 19  1  0
 19 20  1  0
 20 21  1  0
 20 22  1  0
 20 23  1  0
 19 24  1  0
 24 25  1  0
 24 26  2  0
 26 27  1  0
 13 28  2  0
 28 29  1  0
  4 30  2  0
 30 31  1  0
 31 32  2  0
 31 33  1  0
 33 34  1  0
 34 35  1  0
 34 36  1  0
 34 37  1  0
 30 38  1  0
 38 39  1  0
 38 40  2  0
 40 41  1  0
 40  2  1  0
 28  6  1  0
 26 17  1  0
M  CHG  2  18  -1  33  -1
M  END
>  <UniqueID>  (85) 
79

>  <SMILES>  (85) 
C[N-]C(=O)c1cccnc1Oc1ccc(F)c(C(=O)/N=c2/ccn(C)[n-]2)c1

>  <Energy>  (85) 
82.14773436357652

>  <Genealogy>  (85) 
C[N-]C(=O)c1cccnc1Oc1ccc(F)c(C(=O)N=c2ccn(C)[n-]2)c1 (protonated)
C[N-]C(=O)c1cccnc1Oc1ccc(F)c(C(=O)/N=c2/ccn(C)[n-]2)c1 (cis-trans isomerization)
C[N-]C(=O)c1cccnc1Oc1ccc(F)c(C(=O)/N=c2/ccn(C)[n-]2)c1 (3D coordinates assigned)
C[N-]C(=O)c1cccnc1Oc1ccc(F)c(C(=O)/N=c2/ccn(C)[n-]2)c1 (optimized conformer: 82.14773436357652 kcal/mol)

>  <smiles>  (85) 
CNC(=O)c1cccnc1Oc1ccc(F)c(C(=O)N=c2ccn(C)[nH]2)c1

>  <score_type>  (85) 
oracle

>  <origin>  (85) 
adg

>  <m_score__min__energy>  (85) 
-10.92

>  <m_primary>  (85) 
energy

$$$$
85:0
     RDKit          3D

 50 53  0  0  0  0  0  0  0  0999 V2000
   57.7720   32.3890   41.6360 C   0  0  0  0  0  0  0  0  0  0  0  0
   57.7650   31.9410   43.0380 N   0  0  0  0  0  0  0  0  0  0  0  0
   58.3270   32.7330   44.0140 C   0  0  0  0  0  0  0  0  0  0  0  0
   58.8300   33.8550   43.7320 O   0  0  0  0  0  0  0  0  0  0  0  0
   58.3240   32.2690   45.3250 C   0  0  0  0  0  0  0  0  0  0  0  0
   57.7960   31.0560   45.6160 C   0  0  0  0  0  0  0  0  0  0  0  0
   57.8760   30.8020   46.9350 N   0  0  0  0  0  0  0  0  0  0  0  0
   58.4850   31.9130   47.4230 C   0  0  0  0  0  0  0  0  0  0  0  0
   58.7450   32.1010   48.8890 C   0  0  0  0  0  0  0  0  0  0  0  0
   59.5430   30.9950   49.4050 N   0  0  0  0  0  0  0  0  0  0  0  0
   60.6540   30.4220   48.7050 C   0  0  0  0  0  0  0  0  0  0  0  0
   61.8300   30.7480   49.0230 O   0  0  0  0  0  0  0  0  0  0  0  0
   60.4220   29.4500   47.6110 C   0  0  0  0  0  0  0  0  0  0  0  0
   60.8020   29.7590   46.2890 C   0  0  0  0  0  0  0  0  0  0  0  0
   60.5810   28.8420   45.2570 C   0  0  0  0  0  0  0  0  0  0  0  0
   59.9800   27.6110   45.5290 C   0  0  0  0  0  0  0  0  0  0  0  0
   59.5960   27.2950   46.8340 C   0  0  0  0  0  0  0  0  0  0  0  0
   59.8150   28.2080   47.8710 C   0  0  0  0  0  0  0  0  0  0  0  0
   58.7710   32.8380   46.4630 N   0  0  0  0  0  0  0  0  0  0  0  0
   59.4380   34.1350   46.6270 C   0  0  0  0  0  0  0  0  0  0  0  0
   60.8230   33.9640   47.1980 C   0  0  0  0  0  0  0  0  0  0  0  0
   61.0600   34.2000   48.5640 C   0  0  0  0  0  0  0  0  0  0  0  0
   62.3380   34.0190   49.0990 C   0  0  0  0  0  0  0  0  0  0  0  0
   63.3870   33.5920   48.2820 C   0  0  0  0  0  0  0  0  0  0  0  0
   63.1580   33.3390   46.9270 C   0  0  0  0  0  0  0  0  0  0  0  0
   61.8810   33.5170   46.3860 C   0  0  0  0  0  0  0  0  0  0  0  0
   57.2730   30.2410   44.6610 N   0  0  0  0  0  0  0  0  0  0  0  0
   56.6840   28.9430   45.0210 C   0  0  0  0  0  0  0  0  0  0  0  0
   57.2530   30.6950   43.3600 C   0  0  0  0  0  0  0  0  0  0  0  0
   56.7620   29.9650   42.4540 O   0  0  0  0  0  0  0  0  0  0  0  0
   57.7892   33.4884   41.6024 H   0  0  0  0  0  0  0  0  0  0  0  0
   58.6641   31.9927   41.1289 H   0  0  0  0  0  0  0  0  0  0  0  0
   56.8680   32.0208   41.1289 H   0  0  0  0  0  0  0  0  0  0  0  0
   59.2890   33.0445   49.0434 H   0  0  0  0  0  0  0  0  0  0  0  0
   57.7838   32.1298   49.4231 H   0  0  0  0  0  0  0  0  0  0  0  0
   61.2751   30.7272   46.0682 H   0  0  0  0  0  0  0  0  0  0  0  0
   60.8812   29.0907   44.2284 H   0  0  0  0  0  0  0  0  0  0  0  0
   59.8091   26.8905   44.7155 H   0  0  0  0  0  0  0  0  0  0  0  0
   59.1204   26.3263   47.0469 H   0  0  0  0  0  0  0  0  0  0  0  0
   59.5104   27.9529   48.8968 H   0  0  0  0  0  0  0  0  0  0  0  0
   59.5119   34.6277   45.6463 H   0  0  0  0  0  0  0  0  0  0  0  0
   58.8459   34.7472   47.3232 H   0  0  0  0  0  0  0  0  0  0  0  0
   60.2357   34.5285   49.2141 H   0  0  0  0  0  0  0  0  0  0  0  0
   62.5183   34.2134   50.1666 H   0  0  0  0  0  0  0  0  0  0  0  0
   64.3931   33.4549   48.7050 H   0  0  0  0  0  0  0  0  0  0  0  0
   63.9838   32.9992   46.2847 H   0  0  0  0  0  0  0  0  0  0  0  0
   61.7030   33.3066   45.3211 H   0  0  0  0  0  0  0  0  0  0  0  0
   56.6420   28.8505   46.1163 H   0  0  0  0  0  0  0  0  0  0  0  0
   55.6667   28.8748   44.6080 H   0  0  0  0  0  0  0  0  0  0  0  0
   57.3025   28.1325   44.6080 H   0  0  0  0  0  0  0  0  0  0  0  0
  1  2  1  0
  2  3  1  0
  3  4  2  0
  3  5  1  0
  5  6  2  0
  6  7  1  0
  7  8  2  0
  8  9  1  0
  9 10  1  0
 10 11  1  0
 11 12  2  0
 11 13  1  0
 13 14  2  0
 14 15  1  0
 15 16  2  0
 16 17  1  0
 17 18  2  0
  8 19  1  0
 19 20  1  0
 20 21  1  0
 21 22  2  0
 22 23  1  0
 23 24  2  0
 24 25  1  0
 25 26  2  0
  6 27  1  0
 27 28  1  0
 27 29  1  0
 29 30  2  0
 29  2  1  0
 19  5  1  0
 26 21  1  0
 18 13  1  0
  1 31  1  0
  1 32  1  0
  1 33  1  0
  9 34  1  0
  9 35  1  0
 14 36  1  0
 15 37  1  0
 16 38  1  0
 17 39  1  0
 18 40  1  0
 20 41  1  0
 20 42  1  0
 22 43  1  0
 23 44  1  0
 24 45  1  0
 25 46  1  0
 26 47  1  0
 28 48  1  0
 28 49  1  0
 28 50  1  0
M  CHG  1  10  -1
M  END
>  <UniqueID>  (86) 
80

>  <SMILES>  (86) 
Cn1c(=O)c2c(nc(C[N-]C(=O)c3ccccc3)n2Cc2ccccc2)n(C)c1=O

>  <Energy>  (86) 
97.07750216243132

>  <Genealogy>  (86) 
Cn1c(=O)c2c(nc(C[N-]C(=O)c3ccccc3)n2Cc2ccccc2)n(C)c1=O (protonated)
Cn1c(=O)c2c(nc(C[N-]C(=O)c3ccccc3)n2Cc2ccccc2)n(C)c1=O (3D coordinates assigned)
Cn1c(=O)c2c(nc(C[N-]C(=O)c3ccccc3)n2Cc2ccccc2)n(C)c1=O (optimized conformer: 97.07750216243132 kcal/mol)

>  <smiles>  (86) 
Cn1c(=O)c2c(nc(CNC(=O)c3ccccc3)n2Cc2ccccc2)n(C)c1=O

>  <score_type>  (86) 
oracle

>  <origin>  (86) 
adg

>  <m_score__min__energy>  (86) 
-10.17

>  <m_primary>  (86) 
energy

$$$$
86:0
     RDKit          3D

 38 40  0  0  0  0  0  0  0  0999 V2000
   59.8320   31.9400   51.6460 O   0  0  0  0  0  0  0  0  0  0  0  0
   58.6920   31.6010   51.2270 C   0  0  0  0  0  0  0  0  0  0  0  0
   58.1160   32.2840   50.1000 N   0  0  0  0  0  0  0  0  0  0  0  0
   58.8920   32.9890   49.1170 C   0  0  0  0  0  0  0  0  0  0  0  0
   60.2030   33.4240   49.3920 C   0  0  0  0  0  0  0  0  0  0  0  0
   60.9460   34.0860   48.4110 C   0  0  0  0  0  0  0  0  0  0  0  0
   60.3980   34.3100   47.1460 C   0  0  0  0  0  0  0  0  0  0  0  0
   59.1020   33.8650   46.8540 C   0  0  0  0  0  0  0  0  0  0  0  0
   58.3990   34.1300   45.2610 S   0  0  0  0  0  0  0  0  0  0  0  0
   59.1050   35.2450   44.5410 O   0  0  0  0  0  0  0  0  0  0  0  0
   56.9520   34.4990   45.4240 O   0  0  0  0  0  0  0  0  0  0  0  0
   58.5150   32.6800   44.3190 N   0  0  0  0  0  0  0  0  0  0  0  0
   57.7350   31.4940   44.5290 C   0  0  0  0  0  0  0  0  0  0  0  0
   58.0920   30.6350   45.5780 C   0  0  0  0  0  0  0  0  0  0  0  0
   57.3590   29.4700   45.8190 C   0  0  0  0  0  0  0  0  0  0  0  0
   56.2610   29.1520   45.0140 C   0  0  0  0  0  0  0  0  0  0  0  0
   55.5250   28.0000   45.2610 O   0  0  0  0  0  0  0  0  0  0  0  0
   55.8950   30.0060   43.9670 C   0  0  0  0  0  0  0  0  0  0  0  0
   56.6260   31.1720   43.7240 C   0  0  0  0  0  0  0  0  0  0  0  0
   58.3560   33.2010   47.8370 C   0  0  0  0  0  0  0  0  0  0  0  0
   57.9400   30.5270   51.9210 C   0  0  0  0  0  0  0  0  0  0  0  0
   58.6220   29.5390   52.6490 C   0  0  0  0  0  0  0  0  0  0  0  0
   57.9310   28.5660   53.2970 N   0  0  0  0  0  0  0  0  0  0  0  0
   56.5760   28.5260   53.2590 C   0  0  0  0  0  0  0  0  0  0  0  0
   55.9570   27.6170   53.8660 O   0  0  0  0  0  0  0  0  0  0  0  0
   55.8890   29.4690   52.5670 N   0  0  0  0  0  0  0  0  0  0  0  0
   56.5320   30.4640   51.9030 C   0  0  0  0  0  0  0  0  0  0  0  0
   55.8520   31.3130   51.2660 O   0  0  0  0  0  0  0  0  0  0  0  0
   57.0750   32.3520   50.0480 H   0  0  0  0  0  0  0  0  0  0  0  0
   60.6439   33.2419   50.3832 H   0  0  0  0  0  0  0  0  0  0  0  0
   61.9657   34.4318   48.6358 H   0  0  0  0  0  0  0  0  0  0  0  0
   60.9844   34.8362   46.3784 H   0  0  0  0  0  0  0  0  0  0  0  0
   58.9545   30.8797   46.2153 H   0  0  0  0  0  0  0  0  0  0  0  0
   57.6465   28.8016   46.6440 H   0  0  0  0  0  0  0  0  0  0  0  0
   55.0300   29.7587   43.3341 H   0  0  0  0  0  0  0  0  0  0  0  0
   56.3338   31.8405   42.9008 H   0  0  0  0  0  0  0  0  0  0  0  0
   57.3423   32.8431   47.6038 H   0  0  0  0  0  0  0  0  0  0  0  0
   59.7210   29.5531   52.6947 H   0  0  0  0  0  0  0  0  0  0  0  0
  1  2  2  0
  2  3  1  0
  3  4  1  0
  4  5  2  0
  5  6  1  0
  6  7  2  0
  7  8  1  0
  8  9  1  0
  9 10  2  0
  9 11  2  0
  9 12  1  0
 12 13  1  0
 13 14  2  0
 14 15  1  0
 15 16  2  0
 16 17  1  0
 16 18  1  0
 18 19  2  0
  8 20  2  0
  2 21  1  0
 21 22  2  0
 22 23  1  0
 23 24  1  0
 24 25  2  0
 24 26  1  0
 26 27  1  0
 27 28  2  0
 20  4  1  0
 27 21  1  0
 19 13  1  0
  3 29  1  0
  5 30  1  0
  6 31  1  0
  7 32  1  0
 14 33  1  0
 15 34  1  0
 18 35  1  0
 19 36  1  0
 20 37  1  0
 22 38  1  0
M  CHG  4  12  -1  17  -1  23  -1  26  -1
M  END
>  <UniqueID>  (87) 
81

>  <SMILES>  (87) 
O=C(Nc1cccc(S(=O)(=O)[N-]c2ccc([O-])cc2)c1)c1c[n-]c(=O)[n-]c1=O

>  <Energy>  (87) 
52.589761002328764

>  <Genealogy>  (87) 
O=C(Nc1cccc(S(=O)(=O)[N-]c2ccc([O-])cc2)c1)c1c[n-]c(=O)[n-]c1=O (protonated)
O=C(Nc1cccc(S(=O)(=O)[N-]c2ccc([O-])cc2)c1)c1c[n-]c(=O)[n-]c1=O (3D coordinates assigned)
O=C(Nc1cccc(S(=O)(=O)[N-]c2ccc([O-])cc2)c1)c1c[n-]c(=O)[n-]c1=O (optimized conformer: 52.589761002328764 kcal/mol)

>  <smiles>  (87) 
O=C(Nc1cccc(S(=O)(=O)Nc2ccc(O)cc2)c1)c1c[nH]c(=O)[nH]c1=O

>  <score_type>  (87) 
oracle

>  <origin>  (87) 
adg

>  <m_score__min__energy>  (87) 
-14.41

>  <m_primary>  (87) 
energy

$$$$
87:0
     RDKit          3D

 55 57  0  0  0  0  0  0  0  0999 V2000
   56.2700   31.8060   51.2380 H   0  0  0  0  0  0  0  0  0  0  0  0
   56.7600   30.9180   51.1450 O   0  0  0  0  0  0  0  0  0  0  0  0
   58.0810   30.8460   50.7110 C   0  0  0  0  0  0  0  0  0  0  0  0
   58.4980   29.7290   49.9820 C   0  0  0  0  0  0  0  0  0  0  0  0
   57.7779   28.9311   49.7478 H   0  0  0  0  0  0  0  0  0  0  0  0
   59.8270   29.6160   49.5460 C   0  0  0  0  0  0  0  0  0  0  0  0
   60.2260   28.4380   48.7510 C   0  0  0  0  0  0  0  0  0  0  0  0
   61.3035   28.2598   48.6193 H   0  0  0  0  0  0  0  0  0  0  0  0
   59.3840   27.5670   48.1760 C   0  0  0  0  0  0  0  0  0  0  0  0
   58.4635   27.3199   48.7252 H   0  0  0  0  0  0  0  0  0  0  0  0
   59.5870   26.9110   46.8680 C   0  0  0  0  0  0  0  0  0  0  0  0
   60.5950   27.2290   46.1780 O   0  0  0  0  0  0  0  0  0  0  0  0
   58.6360   25.9710   46.3550 N   0  0  0  0  0  0  0  0  0  0  0  0
   57.2490   25.8930   46.7950 C   0  0  0  0  0  0  0  0  0  0  0  0
   56.8869   24.8611   46.6760 H   0  0  0  0  0  0  0  0  0  0  0  0
   57.1890   26.1907   47.8522 H   0  0  0  0  0  0  0  0  0  0  0  0
   56.3990   26.8130   45.9780 C   0  0  0  0  0  0  0  0  0  0  0  0
   55.1420   26.7130   46.0110 O   0  0  0  0  0  0  0  0  0  0  0  0
   57.0260   27.7580   45.1100 N   0  0  0  0  0  0  0  0  0  0  0  0
   56.4170   29.0220   44.7300 C   0  0  0  0  0  0  0  0  0  0  0  0
   56.2839   29.0543   43.6386 H   0  0  0  0  0  0  0  0  0  0  0  0
   55.4352   29.1233   45.2156 H   0  0  0  0  0  0  0  0  0  0  0  0
   57.3130   30.1410   45.1600 C   0  0  0  0  0  0  0  0  0  0  0  0
   58.2700   29.9320   46.1660 C   0  0  0  0  0  0  0  0  0  0  0  0
   58.4103   28.9262   46.5888 H   0  0  0  0  0  0  0  0  0  0  0  0
   59.0450   30.9980   46.6320 C   0  0  0  0  0  0  0  0  0  0  0  0
   59.8067   30.8244   47.4064 H   0  0  0  0  0  0  0  0  0  0  0  0
   58.8550   32.2870   46.1160 C   0  0  0  0  0  0  0  0  0  0  0  0
   59.7700   33.6500   46.7700 S   0  0  0  0  0  0  0  0  0  0  0  0
   60.3500   34.4490   45.6350 O   0  0  0  0  0  0  0  0  0  0  0  0
   58.8400   34.5450   47.5410 O   0  0  0  0  0  0  0  0  0  0  0  0
   61.0550   33.1120   47.8290 N   0  0  0  0  0  0  0  0  0  0  0  0
   61.5200   34.2240   48.6810 C   0  0  0  0  0  0  0  0  0  0  0  0
   61.5036   35.1561   48.0971 H   0  0  0  0  0  0  0  0  0  0  0  0
   60.8513   34.3031   49.5508 H   0  0  0  0  0  0  0  0  0  0  0  0
   62.9520   33.9700   49.1840 C   0  0  0  0  0  0  0  0  0  0  0  0
   63.2533   34.8213   49.8120 H   0  0  0  0  0  0  0  0  0  0  0  0
   62.9292   33.0197   49.7376 H   0  0  0  0  0  0  0  0  0  0  0  0
   63.9150   33.8170   48.1470 O   0  0  0  0  0  0  0  0  0  0  0  0
   63.3630   33.3940   46.9070 C   0  0  0  0  0  0  0  0  0  0  0  0
   63.0481   34.2839   46.3423 H   0  0  0  0  0  0  0  0  0  0  0  0
   64.1419   32.8250   46.3783 H   0  0  0  0  0  0  0  0  0  0  0  0
   62.1470   32.4630   47.0730 C   0  0  0  0  0  0  0  0  0  0  0  0
   61.7733   32.1850   46.0765 H   0  0  0  0  0  0  0  0  0  0  0  0
   62.4714   31.5758   47.6366 H   0  0  0  0  0  0  0  0  0  0  0  0
   57.9010   32.4930   45.1070 C   0  0  0  0  0  0  0  0  0  0  0  0
   57.7623   33.4983   44.6826 H   0  0  0  0  0  0  0  0  0  0  0  0
   57.1270   31.4290   44.6390 C   0  0  0  0  0  0  0  0  0  0  0  0
   56.3699   31.6020   43.8600 H   0  0  0  0  0  0  0  0  0  0  0  0
   60.7260   30.6660   49.8050 C   0  0  0  0  0  0  0  0  0  0  0  0
   61.7573   30.6099   49.4264 H   0  0  0  0  0  0  0  0  0  0  0  0
   60.3150   31.7800   50.5410 C   0  0  0  0  0  0  0  0  0  0  0  0
   61.0308   32.5848   50.7645 H   0  0  0  0  0  0  0  0  0  0  0  0
   58.9960   31.8740   50.9940 C   0  0  0  0  0  0  0  0  0  0  0  0
   58.6010   32.9920   51.7240 O   0  0  0  0  0  0  0  0  0  0  0  0
  1  2  1  0
  2  3  1  0
  3  4  2  0
  4  5  1  0
  4  6  1  0
  6  7  1  0
  7  8  1  0
  7  9  2  0
  9 10  1  0
  9 11  1  0
 11 12  2  0
 11 13  1  0
 13 14  1  0
 14 15  1  0
 14 16  1  0
 14 17  1  0
 17 18  2  0
 17 19  1  0
 19 20  1  0
 20 21  1  0
 20 22  1  0
 20 23  1  0
 23 24  2  0
 24 25  1  0
 24 26  1  0
 26 27  1  0
 26 28  2  0
 28 29  1  0
 29 30  2  0
 29 31  2  0
 29 32  1  0
 32 33  1  0
 33 34  1  0
 33 35  1  0
 33 36  1  0
 36 37  1  0
 36 38  1  0
 36 39  1  0
 39 40  1  0
 40 41  1  0
 40 42  1  0
 40 43  1  0
 43 44  1  0
 43 45  1  0
 28 46  1  0
 46 47  1  0
 46 48  2  0
 48 49  1  0
  6 50  2  0
 50 51  1  0
 50 52  1  0
 52 53  1  0
 52 54  2  0
 54 55  1  0
 54  3  1  0
 48 23  1  0
 43 32  1  0
M  CHG  3  13  -1  19  -1  55  -1
M  END
>  <UniqueID>  (88) 
82

>  <SMILES>  (88) 
O=C(/C=C\c1ccc([O-])c(O)c1)[N-]CC(=O)[N-]Cc1ccc(S(=O)(=O)N2CCOCC2)cc1

>  <Energy>  (88) 
68.53808955742404

>  <Genealogy>  (88) 
O=C(C=Cc1ccc([O-])c(O)c1)[N-]CC(=O)[N-]Cc1ccc(S(=O)(=O)N2CCOCC2)cc1 (protonated)
O=C(/C=C\c1ccc([O-])c(O)c1)[N-]CC(=O)[N-]Cc1ccc(S(=O)(=O)N2CCOCC2)cc1 (cis-trans isomerization)
O=C(/C=C\c1ccc([O-])c(O)c1)[N-]CC(=O)[N-]Cc1ccc(S(=O)(=O)N2CCOCC2)cc1 (3D coordinates assigned)
O=C(/C=C\c1ccc([O-])c(O)c1)[N-]CC(=O)[N-]Cc1ccc(S(=O)(=O)N2CCOCC2)cc1 (nonaromatic ring conformer: 68.53808955742404 kcal/mol)

>  <smiles>  (88) 
O=C(C=Cc1ccc(O)c(O)c1)NCC(=O)NCc1ccc(S(=O)(=O)N2CCOCC2)cc1

>  <score_type>  (88) 
oracle

>  <origin>  (88) 
adg

>  <m_score__min__energy>  (88) 
-15.15

>  <m_primary>  (88) 
energy

$$$$
88:0
     RDKit          3D

 76 80  0  0  0  0  0  0  0  0999 V2000
   66.3080   28.3820   51.6460 C   0  0  0  0  0  0  0  0  0  0  0  0
   65.5930   29.6160   51.6470 O   0  0  0  0  0  0  0  0  0  0  0  0
   66.1370   30.8640   51.2910 C   0  0  0  0  0  0  0  0  0  0  0  0
   67.4740   31.2010   51.5800 C   0  0  0  0  0  0  0  0  0  0  0  0
   67.9850   32.4500   51.2150 C   0  0  0  0  0  0  0  0  0  0  0  0
   67.1690   33.3740   50.5610 C   0  0  0  0  0  0  0  0  0  0  0  0
   65.8380   33.0600   50.2740 C   0  0  0  0  0  0  0  0  0  0  0  0
   65.3150   31.8060   50.6340 C   0  0  0  0  0  0  0  0  0  0  0  0
   63.8520   31.5360   50.4070 C   0  0  0  0  0  0  0  0  0  0  0  0
   62.8490   33.0400   50.7000 S   0  0  0  0  0  0  0  0  0  0  0  0
   62.4980   33.3720   48.9610 C   0  0  0  0  0  0  0  0  0  0  0  0
   63.5490   33.2770   48.0430 C   0  0  0  0  0  0  0  0  0  0  0  0
   63.3250   33.5270   46.6910 C   0  0  0  0  0  0  0  0  0  0  0  0
   62.0460   33.8520   46.2430 C   0  0  0  0  0  0  0  0  0  0  0  0
   60.9660   33.9340   47.1390 C   0  0  0  0  0  0  0  0  0  0  0  0
   59.5830   34.2090   46.5850 C   0  0  0  0  0  0  0  0  0  0  0  0
   59.0740   33.0710   45.7490 C   0  0  0  0  0  0  0  0  0  0  0  0
   58.5080   33.1710   44.4820 C   0  0  0  0  0  0  0  0  0  0  0  0
   58.0650   31.9590   44.0730 N   0  0  0  0  0  0  0  0  0  0  0  0
   57.3620   31.6750   42.8270 C   0  0  0  0  0  0  0  0  0  0  0  0
   58.3160   31.0990   45.0780 C   0  0  0  0  0  0  0  0  0  0  0  0
   57.9450   29.7550   45.1660 C   0  0  0  0  0  0  0  0  0  0  0  0
   58.2180   29.0710   46.3640 C   0  0  0  0  0  0  0  0  0  0  0  0
   58.8770   29.7230   47.4270 C   0  0  0  0  0  0  0  0  0  0  0  0
   59.1140   29.0190   48.6480 N   0  0  0  0  0  0  0  0  0  0  0  0
   60.3300   29.1340   49.3840 C   0  0  0  0  0  0  0  0  0  0  0  0
   60.8790   30.2650   49.4780 O   0  0  0  0  0  0  0  0  0  0  0  0
   60.8670   28.0020   50.0240 O   0  0  0  0  0  0  0  0  0  0  0  0
   61.2280   27.9020   51.4080 C   0  0  0  0  0  0  0  0  0  0  0  0
   60.1120   28.4770   52.3120 C   0  0  0  0  0  0  0  0  0  0  0  0
   62.5630   28.6320   51.6660 C   0  0  0  0  0  0  0  0  0  0  0  0
   61.4040   26.4060   51.7260 C   0  0  0  0  0  0  0  0  0  0  0  0
   59.2410   31.0810   47.3090 C   0  0  0  0  0  0  0  0  0  0  0  0
   58.9450   31.7420   46.1160 C   0  0  0  0  0  0  0  0  0  0  0  0
   61.1960   33.7010   48.5190 C   0  0  0  0  0  0  0  0  0  0  0  0
   60.1020   33.8160   49.5100 C   0  0  0  0  0  0  0  0  0  0  0  0
   59.3650   34.8320   49.4780 O   0  0  0  0  0  0  0  0  0  0  0  0
   59.9530   32.9000   50.6080 N   0  0  0  0  0  0  0  0  0  0  0  0
   58.8580   32.4210   51.1240 C   0  0  0  0  0  0  0  0  0  0  0  0
   58.3740   31.2130   50.7710 N   0  0  0  0  0  0  0  0  0  0  0  0
   57.2600   30.8700   51.4690 C   0  0  0  0  0  0  0  0  0  0  0  0
   56.8470   31.8140   52.4030 C   0  0  0  0  0  0  0  0  0  0  0  0
   57.9210   33.1090   52.3490 S   0  0  0  0  0  0  0  0  0  0  0  0
   66.4922   28.0641   52.6828 H   0  0  0  0  0  0  0  0  0  0  0  0
   65.7145   27.6148   51.1272 H   0  0  0  0  0  0  0  0  0  0  0  0
   67.2688   28.5153   51.1272 H   0  0  0  0  0  0  0  0  0  0  0  0
   68.1205   30.4762   52.0965 H   0  0  0  0  0  0  0  0  0  0  0  0
   69.0305   32.7045   51.4434 H   0  0  0  0  0  0  0  0  0  0  0  0
   67.5754   34.3539   50.2701 H   0  0  0  0  0  0  0  0  0  0  0  0
   65.1980   33.7959   49.7652 H   0  0  0  0  0  0  0  0  0  0  0  0
   63.7052   31.2032   49.3689 H   0  0  0  0  0  0  0  0  0  0  0  0
   63.5274   30.7573   51.1129 H   0  0  0  0  0  0  0  0  0  0  0  0
   64.5564   33.0038   48.3900 H   0  0  0  0  0  0  0  0  0  0  0  0
   64.1588   33.4678   45.9760 H   0  0  0  0  0  0  0  0  0  0  0  0
   61.8793   34.0471   45.1733 H   0  0  0  0  0  0  0  0  0  0  0  0
   58.8903   34.3705   47.4241 H   0  0  0  0  0  0  0  0  0  0  0  0
   59.6459   35.0999   45.9428 H   0  0  0  0  0  0  0  0  0  0  0  0
   58.4316   34.0998   43.8976 H   0  0  0  0  0  0  0  0  0  0  0  0
   56.3638   31.2717   43.0529 H   0  0  0  0  0  0  0  0  0  0  0  0
   57.2596   32.6023   42.2442 H   0  0  0  0  0  0  0  0  0  0  0  0
   57.9324   30.9368   42.2442 H   0  0  0  0  0  0  0  0  0  0  0  0
   57.4538   29.2468   44.3231 H   0  0  0  0  0  0  0  0  0  0  0  0
   57.9152   28.0191   46.4729 H   0  0  0  0  0  0  0  0  0  0  0  0
   60.3862   28.3357   53.3679 H   0  0  0  0  0  0  0  0  0  0  0  0
   59.9895   29.5505   52.1055 H   0  0  0  0  0  0  0  0  0  0  0  0
   59.1668   27.9537   52.1055 H   0  0  0  0  0  0  0  0  0  0  0  0
   62.7281   28.7223   52.7498 H   0  0  0  0  0  0  0  0  0  0  0  0
   63.3872   28.0590   51.2161 H   0  0  0  0  0  0  0  0  0  0  0  0
   62.5253   29.6351   51.2161 H   0  0  0  0  0  0  0  0  0  0  0  0
   61.4209   26.2625   52.8165 H   0  0  0  0  0  0  0  0  0  0  0  0
   60.5664   25.8384   51.2944 H   0  0  0  0  0  0  0  0  0  0  0  0
   62.3504   26.0483   51.2944 H   0  0  0  0  0  0  0  0  0  0  0  0
   59.7445   31.6047   48.1350 H   0  0  0  0  0  0  0  0  0  0  0  0
   58.8020   30.6100   50.0280 H   0  0  0  0  0  0  0  0  0  0  0  0
   56.7272   29.9212   51.3082 H   0  0  0  0  0  0  0  0  0  0  0  0
   55.9707   31.7291   53.0625 H   0  0  0  0  0  0  0  0  0  0  0  0
  1  2  1  0
  2  3  1  0
  3  4  2  0
  4  5  1  0
  5  6  2  0
  6  7  1  0
  7  8  2  0
  8  9  1  0
  9 10  1  0
 10 11  1  0
 11 12  2  0
 12 13  1  0
 13 14  2  0
 14 15  1  0
 15 16  1  0
 16 17  1  0
 17 18  2  0
 18 19  1  0
 19 20  1  0
 19 21  1  0
 21 22  2  0
 22 23  1  0
 23 24  2  0
 24 25  1  0
 25 26  1  0
 26 27  2  0
 26 28  1  0
 28 29  1  0
 29 30  1  0
 29 31  1  0
 29 32  1  0
 24 33  1  0
 33 34  2  0
 15 35  2  0
 35 36  1  0
 36 37  2  0
 36 38  1  0
 38 39  2  3
 39 40  1  0
 40 41  1  0
 41 42  2  0
 42 43  1  0
  8  3  1  0
 35 11  1  0
 43 39  1  0
 34 17  1  0
 34 21  1  0
  1 44  1  0
  1 45  1  0
  1 46  1  0
  4 47  1  0
  5 48  1  0
  6 49  1  0
  7 50  1  0
  9 51  1  0
  9 52  1  0
 12 53  1  0
 13 54  1  0
 14 55  1  0
 16 56  1  0
 16 57  1  0
 18 58  1  0
 20 59  1  0
 20 60  1  0
 20 61  1  0
 22 62  1  0
 23 63  1  0
 30 64  1  0
 30 65  1  0
 30 66  1  0
 31 67  1  0
 31 68  1  0
 31 69  1  0
 32 70  1  0
 32 71  1  0
 32 72  1  0
 33 73  1  0
 40 74  1  0
 41 75  1  0
 42 76  1  0
M  CHG  1  25  -1
M  END
>  <UniqueID>  (89) 
83

>  <SMILES>  (89) 
COc1ccccc1CSc1cccc(Cc2cn(C)c3ccc([N-]C(=O)OC(C)(C)C)cc23)c1C(=O)N=c1[nH]ccs1

>  <Energy>  (89) 
145.68607342858797

>  <Genealogy>  (89) 
COc1ccccc1CSc1cccc(Cc2cn(C)c3ccc([N-]C(=O)OC(C)(C)C)cc23)c1C(=O)N=c1[nH]ccs1 (protonated)
COc1ccccc1CSc1cccc(Cc2cn(C)c3ccc([N-]C(=O)OC(C)(C)C)cc23)c1C(=O)N=c1[nH]ccs1 (3D coordinates assigned)
COc1ccccc1CSc1cccc(Cc2cn(C)c3ccc([N-]C(=O)OC(C)(C)C)cc23)c1C(=O)N=c1[nH]ccs1 (optimized conformer: 145.68607342858797 kcal/mol)

>  <smiles>  (89) 
COc1ccccc1CSc1cccc(Cc2cn(C)c3ccc(NC(=O)OC(C)(C)C)cc23)c1C(=O)N=c1[nH]ccs1

>  <score_type>  (89) 
oracle

>  <origin>  (89) 
adg

>  <m_score__min__energy>  (89) 
-10.949999999999999

>  <m_primary>  (89) 
energy

$$$$
89:0
     RDKit          3D

 21 22  0  0  0  0  0  0  0  0999 V2000
   58.8160   27.4860   43.7590 C   0  0  0  0  0  0  0  0  0  0  0  0
   57.6540   28.3190   44.0510 N   0  0  0  0  0  0  0  0  0  0  0  0
   56.9940   29.0970   43.1790 C   0  0  0  0  0  0  0  0  0  0  0  0
   56.0250   29.7890   43.8690 C   0  0  0  0  0  0  0  0  0  0  0  0
   56.0800   29.4620   45.1770 N   0  0  0  0  0  0  0  0  0  0  0  0
   57.0830   28.5610   45.2530 C   0  0  0  0  0  0  0  0  0  0  0  0
   57.5450   27.9710   46.5520 C   0  0  0  0  0  0  0  0  0  0  0  0
   57.1480   26.5300   46.6380 C   0  0  0  0  0  0  0  0  0  0  0  0
   57.9890   25.5350   46.9700 N   0  0  0  0  0  0  0  0  0  0  0  0
   57.2100   24.4330   46.9000 C   0  0  0  0  0  0  0  0  0  0  0  0
   57.6450   23.2790   47.1470 O   0  0  0  0  0  0  0  0  0  0  0  0
   55.9290   24.6670   46.5430 N   0  0  0  0  0  0  0  0  0  0  0  0
   55.9060   25.9990   46.3800 C   0  0  0  0  0  0  0  0  0  0  0  0
   54.7760   26.7130   46.0030 O   0  0  0  0  0  0  0  0  0  0  0  0
   59.2766   27.1558   44.7017 H   0  0  0  0  0  0  0  0  0  0  0  0
   58.5004   26.6072   43.1776 H   0  0  0  0  0  0  0  0  0  0  0  0
   59.5469   28.0671   43.1776 H   0  0  0  0  0  0  0  0  0  0  0  0
   57.1931   29.1691   42.0996 H   0  0  0  0  0  0  0  0  0  0  0  0
   55.3143   30.5000   43.4225 H   0  0  0  0  0  0  0  0  0  0  0  0
   58.6402   28.0503   46.6175 H   0  0  0  0  0  0  0  0  0  0  0  0
   57.0773   28.5214   47.3816 H   0  0  0  0  0  0  0  0  0  0  0  0
  1  2  1  0
  2  3  1  0
  3  4  2  0
  4  5  1  0
  5  6  2  0
  6  7  1  0
  7  8  1  0
  8  9  1  0
  9 10  1  0
 10 11  2  0
 10 12  1  0
 12 13  1  0
 13 14  1  0
  6  2  1  0
 13  8  2  0
  1 15  1  0
  1 16  1  0
  1 17  1  0
  3 18  1  0
  4 19  1  0
  7 20  1  0
  7 21  1  0
M  CHG  3   9  -1  12  -1  14  -1
M  END
>  <UniqueID>  (90) 
84

>  <SMILES>  (90) 
Cn1ccnc1Cc1[n-]c(=O)[n-]c1[O-]

>  <Energy>  (90) 
76.87605770174284

>  <Genealogy>  (90) 
Cn1ccnc1Cc1[n-]c(=O)[n-]c1[O-] (protonated)
Cn1ccnc1Cc1[n-]c(=O)[n-]c1[O-] (3D coordinates assigned)
Cn1ccnc1Cc1[n-]c(=O)[n-]c1[O-] (optimized conformer: 76.87605770174284 kcal/mol)

>  <smiles>  (90) 
Cn1ccnc1Cc1[nH]c(=O)[nH]c1O

>  <score_type>  (90) 
oracle

>  <origin>  (90) 
adg

>  <m_score__min__energy>  (90) 
-14.23

>  <m_primary>  (90) 
energy

$$$$
90:0
     RDKit          3D

 62 65  0  0  0  0  0  0  0  0999 V2000
   59.2860   29.9390   49.1910 C   0  0  0  0  0  0  0  0  0  0  0  0
   58.6880   30.4500   50.4220 N   0  0  0  0  0  0  0  0  0  0  0  0
   57.6690   29.8370   51.0060 N   0  0  0  0  0  0  0  0  0  0  0  0
   57.2680   30.5850   52.0570 C   0  0  0  0  0  0  0  0  0  0  0  0
   56.1070   30.2350   52.9700 C   0  0  0  0  0  0  0  0  0  0  0  0
   55.9480   28.7050   53.0840 C   0  0  0  0  0  0  0  0  0  0  0  0
   54.8080   30.8310   52.3950 C   0  0  0  0  0  0  0  0  0  0  0  0
   56.3640   30.8170   54.3740 C   0  0  0  0  0  0  0  0  0  0  0  0
   58.0530   31.7240   52.1390 C   0  0  0  0  0  0  0  0  0  0  0  0
   58.9500   31.5940   51.1050 C   0  0  0  0  0  0  0  0  0  0  0  0
   59.8510   32.4970   50.8280 N   0  0  0  0  0  0  0  0  0  0  0  0
   59.6900   33.9140   50.7020 C   0  0  0  0  0  0  0  0  0  0  0  0
   59.2220   34.5840   51.6590 O   0  0  0  0  0  0  0  0  0  0  0  0
   59.8880   34.5540   49.4380 N   0  0  0  0  0  0  0  0  0  0  0  0
   59.5760   33.9800   48.1620 C   0  0  0  0  0  0  0  0  0  0  0  0
   60.2520   32.8470   47.6760 C   0  0  0  0  0  0  0  0  0  0  0  0
   59.9240   32.3110   46.4280 C   0  0  0  0  0  0  0  0  0  0  0  0
   58.9280   32.9100   45.6390 C   0  0  0  0  0  0  0  0  0  0  0  0
   58.5240   32.2870   44.3300 C   0  0  0  0  0  0  0  0  0  0  0  0
   58.0090   30.8930   44.5630 C   0  0  0  0  0  0  0  0  0  0  0  0
   58.8830   29.8720   44.9680 C   0  0  0  0  0  0  0  0  0  0  0  0
   58.3920   28.5940   45.2490 C   0  0  0  0  0  0  0  0  0  0  0  0
   57.0240   28.3130   45.1240 C   0  0  0  0  0  0  0  0  0  0  0  0
   56.5460   27.0010   45.4630 N   0  0  0  0  0  0  0  0  0  0  0  0
   56.9850   26.2470   46.6070 C   0  0  0  0  0  0  0  0  0  0  0  0
   57.9130   26.6790   47.3410 O   0  0  0  0  0  0  0  0  0  0  0  0
   56.4110   24.9680   46.9060 N   0  0  0  0  0  0  0  0  0  0  0  0
   55.3520   24.4590   46.3470 C   0  0  0  0  0  0  0  0  0  0  0  0
   54.4000   25.2310   45.7830 N   0  0  0  0  0  0  0  0  0  0  0  0
   53.4130   24.4810   45.2200 C   0  0  0  0  0  0  0  0  0  0  0  0
   53.5840   23.1040   45.3210 C   0  0  0  0  0  0  0  0  0  0  0  0
   55.0220   22.8150   46.1450 S   0  0  0  0  0  0  0  0  0  0  0  0
   56.1450   29.3440   44.7450 C   0  0  0  0  0  0  0  0  0  0  0  0
   56.6360   30.6220   44.4630 C   0  0  0  0  0  0  0  0  0  0  0  0
   58.2710   34.0550   46.1160 C   0  0  0  0  0  0  0  0  0  0  0  0
   58.6040   34.5920   47.3630 C   0  0  0  0  0  0  0  0  0  0  0  0
   60.1005   29.2430   49.4404 H   0  0  0  0  0  0  0  0  0  0  0  0
   58.5204   29.4118   48.6028 H   0  0  0  0  0  0  0  0  0  0  0  0
   59.6874   30.7774   48.6028 H   0  0  0  0  0  0  0  0  0  0  0  0
   55.9181   28.4175   54.1454 H   0  0  0  0  0  0  0  0  0  0  0  0
   55.0129   28.3960   52.5940 H   0  0  0  0  0  0  0  0  0  0  0  0
   56.7996   28.2103   52.5940 H   0  0  0  0  0  0  0  0  0  0  0  0
   54.1470   31.1343   53.2203 H   0  0  0  0  0  0  0  0  0  0  0  0
   55.0493   31.7085   51.7771 H   0  0  0  0  0  0  0  0  0  0  0  0
   54.3002   30.0758   51.7771 H   0  0  0  0  0  0  0  0  0  0  0  0
   56.0435   30.0913   55.1360 H   0  0  0  0  0  0  0  0  0  0  0  0
   57.4375   31.0247   54.4940 H   0  0  0  0  0  0  0  0  0  0  0  0
   55.7943   31.7503   54.4940 H   0  0  0  0  0  0  0  0  0  0  0  0
   57.9760   32.5457   52.8663 H   0  0  0  0  0  0  0  0  0  0  0  0
   61.0430   32.3802   48.2813 H   0  0  0  0  0  0  0  0  0  0  0  0
   60.4481   31.4159   46.0617 H   0  0  0  0  0  0  0  0  0  0  0  0
   57.7336   32.8948   43.8655 H   0  0  0  0  0  0  0  0  0  0  0  0
   59.3990   32.2430   43.6649 H   0  0  0  0  0  0  0  0  0  0  0  0
   59.9591   30.0787   45.0646 H   0  0  0  0  0  0  0  0  0  0  0  0
   59.0844   27.8022   45.5708 H   0  0  0  0  0  0  0  0  0  0  0  0
   55.7860   26.6010   44.8690 H   0  0  0  0  0  0  0  0  0  0  0  0
   52.5425   24.9316   44.7209 H   0  0  0  0  0  0  0  0  0  0  0  0
   52.8984   22.3377   44.9302 H   0  0  0  0  0  0  0  0  0  0  0  0
   55.0660   29.1434   44.6702 H   0  0  0  0  0  0  0  0  0  0  0  0
   55.9418   31.4200   44.1609 H   0  0  0  0  0  0  0  0  0  0  0  0
   57.4902   34.5322   45.5055 H   0  0  0  0  0  0  0  0  0  0  0  0
   58.0984   35.5019   47.7185 H   0  0  0  0  0  0  0  0  0  0  0  0
  1  2  1  0
  2  3  1  0
  3  4  1  0
  4  5  1  0
  5  6  1  0
  5  7  1  0
  5  8  1  0
  4  9  2  0
  9 10  1  0
 10 11  2  3
 11 12  1  0
 12 13  2  0
 12 14  1  0
 14 15  1  0
 15 16  2  0
 16 17  1  0
 17 18  2  0
 18 19  1  0
 19 20  1  0
 20 21  2  0
 21 22  1  0
 22 23  2  0
 23 24  1  0
 24 25  1  0
 25 26  2  0
 25 27  1  0
 27 28  2  3
 28 29  1  0
 29 30  1  0
 30 31  2  0
 31 32  1  0
 23 33  1  0
 33 34  2  0
 18 35  1  0
 35 36  2  0
 10  2  1  0
 36 15  1  0
 34 20  1  0
 32 28  1  0
  1 37  1  0
  1 38  1  0
  1 39  1  0
  6 40  1  0
  6 41  1  0
  6 42  1  0
  7 43  1  0
  7 44  1  0
  7 45  1  0
  8 46  1  0
  8 47  1  0
  8 48  1  0
  9 49  1  0
 16 50  1  0
 17 51  1  0
 19 52  1  0
 19 53  1  0
 21 54  1  0
 22 55  1  0
 24 56  1  0
 30 57  1  0
 31 58  1  0
 33 59  1  0
 34 60  1  0
 35 61  1  0
 36 62  1  0
M  CHG  3   3  -1  14  -1  29  -1
M  END
>  <UniqueID>  (91) 
85

>  <SMILES>  (91) 
Cn1[n-]c(C(C)(C)C)cc1=NC(=O)[N-]c1ccc(Cc2ccc(NC(=O)N=c3[n-]ccs3)cc2)cc1

>  <Energy>  (91) 
144.89872090447085

>  <Genealogy>  (91) 
Cn1[n-]c(C(C)(C)C)cc1=NC(=O)[N-]c1ccc(Cc2ccc(NC(=O)N=c3[n-]ccs3)cc2)cc1 (protonated)
Cn1[n-]c(C(C)(C)C)cc1=NC(=O)[N-]c1ccc(Cc2ccc(NC(=O)N=c3[n-]ccs3)cc2)cc1 (3D coordinates assigned)
Cn1[n-]c(C(C)(C)C)cc1=NC(=O)[N-]c1ccc(Cc2ccc(NC(=O)N=c3[n-]ccs3)cc2)cc1 (optimized conformer: 144.89872090447085 kcal/mol)

>  <smiles>  (91) 
Cn1[nH]c(C(C)(C)C)cc1=NC(=O)Nc1ccc(Cc2ccc(NC(=O)N=c3[nH]ccs3)cc2)cc1

>  <score_type>  (91) 
oracle

>  <origin>  (91) 
adg

>  <m_score__min__energy>  (91) 
-13.16

>  <m_primary>  (91) 
energy

$$$$
91:0
     RDKit          3D

 50 52  0  0  0  0  0  0  0  0999 V2000
   52.1050   22.1830   46.1520 C   0  0  0  0  0  0  0  0  0  0  0  0
   53.3880   22.5540   45.5750 N   0  0  0  0  0  0  0  0  0  0  0  0
   53.8750   23.8990   45.5730 C   0  0  0  0  0  0  0  0  0  0  0  0
   53.1130   24.8550   45.2610 O   0  0  0  0  0  0  0  0  0  0  0  0
   55.2820   24.1770   45.9920 C   0  0  0  0  0  0  0  0  0  0  0  0
   55.6180   25.5700   45.6990 N   0  0  0  0  0  0  0  0  0  0  0  0
   56.7270   26.2550   46.3030 C   0  0  0  0  0  0  0  0  0  0  0  0
   57.4800   25.6500   47.1150 O   0  0  0  0  0  0  0  0  0  0  0  0
   57.0010   27.6680   45.9880 C   0  0  0  0  0  0  0  0  0  0  0  0
   56.1150   28.3790   45.2390 N   0  0  0  0  0  0  0  0  0  0  0  0
   56.3340   29.6830   44.9270 C   0  0  0  0  0  0  0  0  0  0  0  0
   55.4860   30.3030   44.2310 O   0  0  0  0  0  0  0  0  0  0  0  0
   57.5000   30.3210   45.3820 C   0  0  0  0  0  0  0  0  0  0  0  0
   57.7900   31.6650   45.0910 C   0  0  0  0  0  0  0  0  0  0  0  0
   58.9670   32.2480   45.5690 C   0  0  0  0  0  0  0  0  0  0  0  0
   59.8660   31.5020   46.3480 C   0  0  0  0  0  0  0  0  0  0  0  0
   61.0770   32.1050   46.8340 N   0  0  0  0  0  0  0  0  0  0  0  0
   62.1990   31.2520   47.2470 C   0  0  0  0  0  0  0  0  0  0  0  0
   63.4160   32.0890   47.6740 C   0  0  0  0  0  0  0  0  0  0  0  0
   63.0690   33.1920   48.6040 N   0  0  0  0  0  0  0  0  0  0  0  0
   63.4030   32.9390   50.0230 C   0  0  0  0  0  0  0  0  0  0  0  0
   64.7990   32.3230   50.2320 C   0  0  0  0  0  0  0  0  0  0  0  0
   65.7310   32.9460   49.3900 O   0  0  0  0  0  0  0  0  0  0  0  0
   61.7480   33.8360   48.4100 C   0  0  0  0  0  0  0  0  0  0  0  0
   61.1660   33.5550   47.0250 C   0  0  0  0  0  0  0  0  0  0  0  0
   59.5800   30.1580   46.6370 C   0  0  0  0  0  0  0  0  0  0  0  0
   58.4050   29.5680   46.1580 C   0  0  0  0  0  0  0  0  0  0  0  0
   58.1350   28.2670   46.4390 N   0  0  0  0  0  0  0  0  0  0  0  0
   52.1768   22.2038   47.2495 H   0  0  0  0  0  0  0  0  0  0  0  0
   51.3346   22.8952   45.8214 H   0  0  0  0  0  0  0  0  0  0  0  0
   51.8336   21.1696   45.8214 H   0  0  0  0  0  0  0  0  0  0  0  0
   55.3844   23.9957   47.0721 H   0  0  0  0  0  0  0  0  0  0  0  0
   55.9641   23.5140   45.4396 H   0  0  0  0  0  0  0  0  0  0  0  0
   54.9860   26.0910   45.0480 H   0  0  0  0  0  0  0  0  0  0  0  0
   57.0894   32.2592   44.4859 H   0  0  0  0  0  0  0  0  0  0  0  0
   59.1906   33.2989   45.3332 H   0  0  0  0  0  0  0  0  0  0  0  0
   61.8799   30.6272   48.0942 H   0  0  0  0  0  0  0  0  0  0  0  0
   62.4926   30.6288   46.3894 H   0  0  0  0  0  0  0  0  0  0  0  0
   64.1390   31.4262   48.1719 H   0  0  0  0  0  0  0  0  0  0  0  0
   63.8334   32.5467   46.7650 H   0  0  0  0  0  0  0  0  0  0  0  0
   63.3610   33.8952   50.5651 H   0  0  0  0  0  0  0  0  0  0  0  0
   62.6709   32.2094   50.3996 H   0  0  0  0  0  0  0  0  0  0  0  0
   65.1050   32.4619   51.2794 H   0  0  0  0  0  0  0  0  0  0  0  0
   64.7587   31.2500   49.9933 H   0  0  0  0  0  0  0  0  0  0  0  0
   65.2720   33.1020   48.5240 H   0  0  0  0  0  0  0  0  0  0  0  0
   61.0521   33.4530   49.1709 H   0  0  0  0  0  0  0  0  0  0  0  0
   61.8856   34.9233   48.5040 H   0  0  0  0  0  0  0  0  0  0  0  0
   60.1629   34.0000   46.9485 H   0  0  0  0  0  0  0  0  0  0  0  0
   61.8137   33.9941   46.2520 H   0  0  0  0  0  0  0  0  0  0  0  0
   60.2825   29.5665   47.2424 H   0  0  0  0  0  0  0  0  0  0  0  0
  1  2  1  0
  2  3  1  0
  3  4  2  0
  3  5  1  0
  5  6  1  0
  6  7  1  0
  7  8  2  0
  7  9  1  0
  9 10  2  0
 10 11  1  0
 11 12  2  0
 11 13  1  0
 13 14  2  0
 14 15  1  0
 15 16  2  0
 16 17  1  0
 17 18  1  0
 18 19  1  0
 19 20  1  0
 20 21  1  0
 21 22  1  0
 22 23  1  0
 20 24  1  0
 24 25  1  0
 16 26  1  0
 26 27  2  0
 27 28  1  0
 28  9  1  0
 27 13  1  0
 25 17  1  0
  1 29  1  0
  1 30  1  0
  1 31  1  0
  5 32  1  0
  5 33  1  0
  6 34  1  0
 14 35  1  0
 15 36  1  0
 18 37  1  0
 18 38  1  0
 19 39  1  0
 19 40  1  0
 21 41  1  0
 21 42  1  0
 22 43  1  0
 22 44  1  0
 23 45  1  0
 24 46  1  0
 24 47  1  0
 25 48  1  0
 25 49  1  0
 26 50  1  0
M  CHG  2   2  -1  28  -1
M  END
>  <UniqueID>  (92) 
86

>  <SMILES>  (92) 
C[N-]C(=O)CNC(=O)c1nc(=O)c2ccc(N3CCN(CCO)CC3)cc2[n-]1

>  <Energy>  (92) 
63.321861668561624

>  <Genealogy>  (92) 
C[N-]C(=O)CNC(=O)c1nc(=O)c2ccc(N3CCN(CCO)CC3)cc2[n-]1 (protonated)
C[N-]C(=O)CNC(=O)c1nc(=O)c2ccc(N3CCN(CCO)CC3)cc2[n-]1 (3D coordinates assigned)
C[N-]C(=O)CNC(=O)c1nc(=O)c2ccc(N3CCN(CCO)CC3)cc2[n-]1 (nonaromatic ring conformer: 63.321861668561624 kcal/mol)

>  <smiles>  (92) 
CNC(=O)CNC(=O)c1nc(=O)c2ccc(N3CCN(CCO)CC3)cc2[nH]1

>  <score_type>  (92) 
oracle

>  <origin>  (92) 
adg

>  <m_score__min__energy>  (92) 
-11.619999999999999

>  <m_primary>  (92) 
energy

$$$$
92:0
     RDKit          3D

 54 57  0  0  0  0  0  0  0  0999 V2000
   56.0100   23.3380   43.9970 C   0  0  0  0  0  0  0  0  0  0  0  0
   54.8770   22.8570   44.9000 C   0  0  0  0  0  0  0  0  0  0  0  0
   54.9760   23.4790   46.2960 C   0  0  0  0  0  0  0  0  0  0  0  0
   56.1190   24.4650   46.3590 C   0  0  0  0  0  0  0  0  0  0  0  0
   55.8980   25.8410   46.1820 C   0  0  0  0  0  0  0  0  0  0  0  0
   54.6120   26.3310   45.9640 O   0  0  0  0  0  0  0  0  0  0  0  0
   56.9430   26.7070   46.2320 N   0  0  0  0  0  0  0  0  0  0  0  0
   58.2100   26.2690   46.4410 C   0  0  0  0  0  0  0  0  0  0  0  0
   59.5510   27.4480   46.5660 S   0  0  0  0  0  0  0  0  0  0  0  0
   58.5070   28.7870   47.2410 C   0  0  0  0  0  0  0  0  0  0  0  0
   58.4450   29.9470   46.2960 C   0  0  0  0  0  0  0  0  0  0  0  0
   58.9750   31.2140   46.5090 C   0  0  0  0  0  0  0  0  0  0  0  0
   58.6570   32.0330   45.4780 N   0  0  0  0  0  0  0  0  0  0  0  0
   59.0780   33.4260   45.3280 C   0  0  0  0  0  0  0  0  0  0  0  0
   58.9110   34.1760   46.6150 C   0  0  0  0  0  0  0  0  0  0  0  0
   57.7650   34.2580   47.1350 O   0  0  0  0  0  0  0  0  0  0  0  0
   60.0430   34.8010   47.2330 N   0  0  0  0  0  0  0  0  0  0  0  0
   61.2980   34.1820   47.5450 C   0  0  0  0  0  0  0  0  0  0  0  0
   62.2510   33.8880   46.5510 C   0  0  0  0  0  0  0  0  0  0  0  0
   63.4710   33.3030   46.8970 C   0  0  0  0  0  0  0  0  0  0  0  0
   63.7560   33.0170   48.2350 C   0  0  0  0  0  0  0  0  0  0  0  0
   62.8220   33.3220   49.2310 C   0  0  0  0  0  0  0  0  0  0  0  0
   61.6020   33.9120   48.8880 C   0  0  0  0  0  0  0  0  0  0  0  0
   60.7070   34.2120   49.8640 F   0  0  0  0  0  0  0  0  0  0  0  0
   57.9460   31.2880   44.6070 C   0  0  0  0  0  0  0  0  0  0  0  0
   57.4110   31.6790   43.3760 C   0  0  0  0  0  0  0  0  0  0  0  0
   56.6910   30.7220   42.6370 C   0  0  0  0  0  0  0  0  0  0  0  0
   56.5220   29.4110   43.1340 C   0  0  0  0  0  0  0  0  0  0  0  0
   57.0760   29.0420   44.3740 C   0  0  0  0  0  0  0  0  0  0  0  0
   57.7860   30.0100   45.0820 C   0  0  0  0  0  0  0  0  0  0  0  0
   58.4540   24.9420   46.5890 N   0  0  0  0  0  0  0  0  0  0  0  0
   57.4450   24.0350   46.5470 C   0  0  0  0  0  0  0  0  0  0  0  0
   57.7120   22.8110   46.6830 O   0  0  0  0  0  0  0  0  0  0  0  0
   56.8468   23.6933   44.6163 H   0  0  0  0  0  0  0  0  0  0  0  0
   56.3508   22.5069   43.3620 H   0  0  0  0  0  0  0  0  0  0  0  0
   55.6488   24.1604   43.3620 H   0  0  0  0  0  0  0  0  0  0  0  0
   53.9145   23.1401   44.4490 H   0  0  0  0  0  0  0  0  0  0  0  0
   54.9531   21.7643   45.0005 H   0  0  0  0  0  0  0  0  0  0  0  0
   54.0355   24.0006   46.5269 H   0  0  0  0  0  0  0  0  0  0  0  0
   55.1571   22.6788   47.0287 H   0  0  0  0  0  0  0  0  0  0  0  0
   54.3490   26.7230   45.0670 H   0  0  0  0  0  0  0  0  0  0  0  0
   57.4898   28.4020   47.4052 H   0  0  0  0  0  0  0  0  0  0  0  0
   58.9467   29.1303   48.1890 H   0  0  0  0  0  0  0  0  0  0  0  0
   59.5671   31.5091   47.3878 H   0  0  0  0  0  0  0  0  0  0  0  0
   60.1366   33.4524   45.0304 H   0  0  0  0  0  0  0  0  0  0  0  0
   58.4513   33.9021   44.5595 H   0  0  0  0  0  0  0  0  0  0  0  0
   62.0337   34.1200   45.4979 H   0  0  0  0  0  0  0  0  0  0  0  0
   64.2084   33.0671   46.1156 H   0  0  0  0  0  0  0  0  0  0  0  0
   64.7154   32.5517   48.5052 H   0  0  0  0  0  0  0  0  0  0  0  0
   63.0476   33.0975   50.2839 H   0  0  0  0  0  0  0  0  0  0  0  0
   57.5485   32.7025   42.9970 H   0  0  0  0  0  0  0  0  0  0  0  0
   56.2565   30.9973   41.6647 H   0  0  0  0  0  0  0  0  0  0  0  0
   55.9537   28.6735   42.5482 H   0  0  0  0  0  0  0  0  0  0  0  0
   56.9527   28.0236   44.7711 H   0  0  0  0  0  0  0  0  0  0  0  0
  1  2  1  0
  2  3  1  0
  3  4  1  0
  4  5  2  0
  5  6  1  0
  5  7  1  0
  7  8  1  0
  8  9  1  0
  9 10  1  0
 10 11  1  0
 11 12  2  0
 12 13  1  0
 13 14  1  0
 14 15  1  0
 15 16  2  0
 15 17  1  0
 17 18  1  0
 18 19  2  0
 19 20  1  0
 20 21  2  0
 21 22  1  0
 22 23  2  0
 23 24  1  0
 13 25  1  0
 25 26  2  0
 26 27  1  0
 27 28  2  0
 28 29  1  0
 29 30  2  0
  8 31  2  0
 31 32  1  0
 32 33  2  0
 32  4  1  0
 30 11  1  0
 23 18  1  0
 30 25  1  0
  1 34  1  0
  1 35  1  0
  1 36  1  0
  2 37  1  0
  2 38  1  0
  3 39  1  0
  3 40  1  0
  6 41  1  0
 10 42  1  0
 10 43  1  0
 12 44  1  0
 14 45  1  0
 14 46  1  0
 19 47  1  0
 20 48  1  0
 21 49  1  0
 22 50  1  0
 26 51  1  0
 27 52  1  0
 28 53  1  0
 29 54  1  0
M  CHG  2   7  -1  17  -1
M  END
>  <UniqueID>  (93) 
87

>  <SMILES>  (93) 
CCCc1c(O)[n-]c(SCc2cn(CC(=O)[N-]c3ccccc3F)c3ccccc23)nc1=O

>  <Energy>  (93) 
84.32842610672742

>  <Genealogy>  (93) 
CCCc1c(O)[n-]c(SCc2cn(CC(=O)[N-]c3ccccc3F)c3ccccc23)nc1=O (protonated)
CCCc1c(O)[n-]c(SCc2cn(CC(=O)[N-]c3ccccc3F)c3ccccc23)nc1=O (3D coordinates assigned)
CCCc1c(O)[n-]c(SCc2cn(CC(=O)[N-]c3ccccc3F)c3ccccc23)nc1=O (optimized conformer: 84.32842610672742 kcal/mol)

>  <smiles>  (93) 
CCCc1c(O)[nH]c(SCc2cn(CC(=O)Nc3ccccc3F)c3ccccc23)nc1=O

>  <score_type>  (93) 
oracle

>  <origin>  (93) 
adg

>  <m_score__min__energy>  (93) 
-12.890000000000001

>  <m_primary>  (93) 
energy

$$$$
