0:0
     RDKit          3D

 15 15  0  0  0  0  0  0  0  0999 V2000
   59.9210   27.8730   45.2880 N   0  0  0  0  0  0  0  0  0  0  0  0
   58.5320   28.2070   45.2650 C   0  0  0  0  0  0  0  0  0  0  0  0
   58.1140   29.4790   44.8610 C   0  0  0  0  0  0  0  0  0  0  0  0
   56.7480   29.7580   44.8550 C   0  0  0  0  0  0  0  0  0  0  0  0
   56.3340   30.8920   44.4980 O   0  0  0  0  0  0  0  0  0  0  0  0
   55.8600   28.8030   45.2360 N   0  0  0  0  0  0  0  0  0  0  0  0
   56.2790   27.5670   45.6270 C   0  0  0  0  0  0  0  0  0  0  0  0
   55.4310   26.6530   45.9910 N   0  0  0  0  0  0  0  0  0  0  0  0
   55.6310   25.2450   45.8290 C   0  0  0  0  0  0  0  0  0  0  0  0
   54.8370   24.4370   46.3750 O   0  0  0  0  0  0  0  0  0  0  0  0
   57.6080   27.2820   45.6370 N   0  0  0  0  0  0  0  0  0  0  0  0
   60.5430   28.1630   44.5020 H   0  0  0  0  0  0  0  0  0  0  0  0
   60.3300   27.3370   46.0850 H   0  0  0  0  0  0  0  0  0  0  0  0
   58.8457   30.2413   44.5552 H   0  0  0  0  0  0  0  0  0  0  0  0
   56.4748   24.8717   45.2301 H   0  0  0  0  0  0  0  0  0  0  0  0
  1  2  1  0
  2  3  2  0
  3  4  1  0
  4  5  2  0
  4  6  1  0
  6  7  1  0
  7  8  2  3
  8  9  1  0
  9 10  2  0
  7 11  1  0
 11  2  1  0
  1 12  1  0
  1 13  1  0
  3 14  1  0
  9 15  1  0
M  CHG  2   6  -1  11  -1
M  END
>  <UniqueID>  (1) 
1

>  <SMILES>  (1) 
Nc1cc(=O)[n-]c(=NC=O)[n-]1

>  <Energy>  (1) 
13.553981911843561

>  <Genealogy>  (1) 
Nc1cc(=O)[n-]c(=NC=O)[n-]1 (protonated)
Nc1cc(=O)[n-]c(=NC=O)[n-]1 (3D coordinates assigned)
Nc1cc(=O)[n-]c(=NC=O)[n-]1 (optimized conformer: 13.553981911843561 kcal/mol)

>  <smiles>  (1) 
Nc1cc(=O)[nH]c(=NC=O)[nH]1

>  <score_type>  (1) 
oracle

>  <origin>  (1) 
adg

>  <m_score__min__energy>  (1) 
-9.8699999999999992

>  <m_primary>  (1) 
energy

$$$$
1:0
     RDKit          3D

 47 48  0  0  0  0  0  0  0  0999 V2000
   58.0420   21.4650   43.8360 C   0  0  0  0  0  0  0  0  0  0  0  0
   56.6720   21.2800   43.2750 C   0  0  0  0  0  0  0  0  0  0  0  0
   56.1330   20.1430   43.3320 O   0  0  0  0  0  0  0  0  0  0  0  0
   56.0270   22.3900   42.6290 N   0  0  0  0  0  0  0  0  0  0  0  0
   55.8200   23.5880   43.0960 C   0  0  0  0  0  0  0  0  0  0  0  0
   56.9210   24.5060   43.5640 C   0  0  0  0  0  0  0  0  0  0  0  0
   56.9950   24.5910   45.0970 C   0  0  0  0  0  0  0  0  0  0  0  0
   57.9370   25.6840   45.5710 C   0  0  0  0  0  0  0  0  0  0  0  0
   59.2800   25.3420   45.8030 C   0  0  0  0  0  0  0  0  0  0  0  0
   60.1760   26.2760   46.3110 C   0  0  0  0  0  0  0  0  0  0  0  0
   59.7530   27.5690   46.6020 C   0  0  0  0  0  0  0  0  0  0  0  0
   58.4180   27.9520   46.3760 C   0  0  0  0  0  0  0  0  0  0  0  0
   57.9680   29.2590   46.6450 O   0  0  0  0  0  0  0  0  0  0  0  0
   58.7160   30.2840   47.2980 C   0  0  0  0  0  0  0  0  0  0  0  0
   59.4140   31.1780   46.2710 C   0  0  0  0  0  0  0  0  0  0  0  0
   58.4850   32.2540   45.7880 C   0  0  0  0  0  0  0  0  0  0  0  0
   58.3750   33.5530   46.2460 C   0  0  0  0  0  0  0  0  0  0  0  0
   59.1150   34.1600   47.3930 C   0  0  0  0  0  0  0  0  0  0  0  0
   57.4800   34.2200   45.4910 N   0  0  0  0  0  0  0  0  0  0  0  0
   57.0510   33.3880   44.5850 O   0  0  0  0  0  0  0  0  0  0  0  0
   57.6200   32.2100   44.7130 C   0  0  0  0  0  0  0  0  0  0  0  0
   57.3660   31.0490   43.8080 C   0  0  0  0  0  0  0  0  0  0  0  0
   57.5000   27.0080   45.8570 C   0  0  0  0  0  0  0  0  0  0  0  0
   56.0980   27.4340   45.6270 C   0  0  0  0  0  0  0  0  0  0  0  0
   55.1460   26.6870   45.9780 O   0  0  0  0  0  0  0  0  0  0  0  0
   55.8140   28.6690   45.0600 O   0  0  0  0  0  0  0  0  0  0  0  0
   57.9922   21.4583   44.9349 H   0  0  0  0  0  0  0  0  0  0  0  0
   58.6921   20.6465   43.4934 H   0  0  0  0  0  0  0  0  0  0  0  0
   58.4517   22.4266   43.4934 H   0  0  0  0  0  0  0  0  0  0  0  0
   54.7831   23.9508   43.1522 H   0  0  0  0  0  0  0  0  0  0  0  0
   57.8819   24.1292   43.1835 H   0  0  0  0  0  0  0  0  0  0  0  0
   56.7055   25.5141   43.1803 H   0  0  0  0  0  0  0  0  0  0  0  0
   55.9881   24.7981   45.4884 H   0  0  0  0  0  0  0  0  0  0  0  0
   57.3818   23.6304   45.4681 H   0  0  0  0  0  0  0  0  0  0  0  0
   59.6269   24.3223   45.5799 H   0  0  0  0  0  0  0  0  0  0  0  0
   61.2244   25.9912   46.4836 H   0  0  0  0  0  0  0  0  0  0  0  0
   60.4678   28.2977   47.0120 H   0  0  0  0  0  0  0  0  0  0  0  0
   58.0349   30.8965   47.9070 H   0  0  0  0  0  0  0  0  0  0  0  0
   59.4789   29.8146   47.9365 H   0  0  0  0  0  0  0  0  0  0  0  0
   60.2951   31.6435   46.7367 H   0  0  0  0  0  0  0  0  0  0  0  0
   59.7182   30.5609   45.4127 H   0  0  0  0  0  0  0  0  0  0  0  0
   58.6810   33.8040   48.3390 H   0  0  0  0  0  0  0  0  0  0  0  0
   60.1741   33.8671   47.3423 H   0  0  0  0  0  0  0  0  0  0  0  0
   59.0349   35.2559   47.3423 H   0  0  0  0  0  0  0  0  0  0  0  0
   57.1694   30.1502   44.4110 H   0  0  0  0  0  0  0  0  0  0  0  0
   56.4934   31.2629   43.1733 H   0  0  0  0  0  0  0  0  0  0  0  0
   58.2482   30.8790   43.1733 H   0  0  0  0  0  0  0  0  0  0  0  0
  1  2  1  0
  2  3  2  0
  2  4  1  0
  4  5  2  3
  5  6  1  0
  6  7  1  0
  7  8  1  0
  8  9  2  0
  9 10  1  0
 10 11  2  0
 11 12  1  0
 12 13  1  0
 13 14  1  0
 14 15  1  0
 15 16  1  0
 16 17  1  0
 17 18  1  0
 17 19  2  0
 19 20  1  0
 20 21  1  0
 21 22  1  0
 12 23  2  0
 23 24  1  0
 24 25  2  0
 24 26  1  0
 23  8  1  0
 21 16  2  0
  1 27  1  0
  1 28  1  0
  1 29  1  0
  5 30  1  0
  6 31  1  0
  6 32  1  0
  7 33  1  0
  7 34  1  0
  9 35  1  0
 10 36  1  0
 11 37  1  0
 14 38  1  0
 14 39  1  0
 15 40  1  0
 15 41  1  0
 18 42  1  0
 18 43  1  0
 18 44  1  0
 22 45  1  0
 22 46  1  0
 22 47  1  0
M  CHG  1  26  -1
M  END
>  <UniqueID>  (2) 
2

>  <SMILES>  (2) 
CC(=O)N=CCCc1cccc(OCCc2c(C)noc2C)c1C(=O)[O-]

>  <Energy>  (2) 
78.39616994140744

>  <Genealogy>  (2) 
CC(=O)N=CCCc1cccc(OCCc2c(C)noc2C)c1C(=O)[O-] (protonated)
CC(=O)N=CCCc1cccc(OCCc2c(C)noc2C)c1C(=O)[O-] (3D coordinates assigned)
CC(=O)N=CCCc1cccc(OCCc2c(C)noc2C)c1C(=O)[O-] (optimized conformer: 78.39616994140744 kcal/mol)

>  <smiles>  (2) 
CC(=O)N=CCCc1cccc(OCCc2c(C)noc2C)c1C(=O)O

>  <score_type>  (2) 
oracle

>  <origin>  (2) 
adg

>  <m_score__min__energy>  (2) 
-11.029999999999999

>  <m_primary>  (2) 
energy

$$$$
2:0
     RDKit          3D

 38 41  0  0  0  0  0  0  0  0999 V2000
   58.6160   30.8350   47.0210 H   0  0  0  0  0  0  0  0  0  0  0  0
   59.5030   30.5820   47.4350 O   0  0  0  0  0  0  0  0  0  0  0  0
   60.6100   31.4320   47.4670 C   0  0  0  0  0  0  0  0  0  0  0  0
   61.8840   30.8500   47.4990 C   0  0  0  0  0  0  0  0  0  0  0  0
   61.9831   29.7546   47.5132 H   0  0  0  0  0  0  0  0  0  0  0  0
   63.0290   31.6490   47.5130 C   0  0  0  0  0  0  0  0  0  0  0  0
   64.0247   31.1823   47.5414 H   0  0  0  0  0  0  0  0  0  0  0  0
   62.9110   33.0380   47.4910 C   0  0  0  0  0  0  0  0  0  0  0  0
   63.8143   33.6657   47.4965 H   0  0  0  0  0  0  0  0  0  0  0  0
   61.6490   33.6340   47.4620 C   0  0  0  0  0  0  0  0  0  0  0  0
   61.5642   34.7305   47.4390 H   0  0  0  0  0  0  0  0  0  0  0  0
   60.4840   32.8440   47.4620 C   0  0  0  0  0  0  0  0  0  0  0  0
   59.1400   33.5290   47.4060 C   0  0  0  0  0  0  0  0  0  0  0  0
   59.2882   34.6190   47.3997 H   0  0  0  0  0  0  0  0  0  0  0  0
   58.5510   33.2339   48.2869 H   0  0  0  0  0  0  0  0  0  0  0  0
   58.4020   33.1240   46.1690 C   0  0  0  0  0  0  0  0  0  0  0  0
   57.3210   32.3860   46.1490 O   0  0  0  0  0  0  0  0  0  0  0  0
   57.0010   32.2340   44.8850 C   0  0  0  0  0  0  0  0  0  0  0  0
   55.9590   31.5590   44.5030 N   0  0  0  0  0  0  0  0  0  0  0  0
   55.9320   30.1430   44.2740 C   0  0  0  0  0  0  0  0  0  0  0  0
   54.9420   29.6470   43.6720 O   0  0  0  0  0  0  0  0  0  0  0  0
   56.9890   29.2500   44.7890 C   0  0  0  0  0  0  0  0  0  0  0  0
   58.6490   29.5950   44.7930 S   0  0  0  0  0  0  0  0  0  0  0  0
   59.1050   28.1810   45.5740 C   0  0  0  0  0  0  0  0  0  0  0  0
   60.3860   27.7630   45.9250 C   0  0  0  0  0  0  0  0  0  0  0  0
   61.2657   28.3808   45.6918 H   0  0  0  0  0  0  0  0  0  0  0  0
   60.5240   26.5310   46.5850 C   0  0  0  0  0  0  0  0  0  0  0  0
   61.5233   26.1738   46.8743 H   0  0  0  0  0  0  0  0  0  0  0  0
   59.3890   25.7510   46.8780 C   0  0  0  0  0  0  0  0  0  0  0  0
   59.5077   24.7874   47.3951 H   0  0  0  0  0  0  0  0  0  0  0  0
   58.1060   26.1940   46.5150 C   0  0  0  0  0  0  0  0  0  0  0  0
   57.2179   25.5869   46.7445 H   0  0  0  0  0  0  0  0  0  0  0  0
   57.9790   27.4220   45.8560 C   0  0  0  0  0  0  0  0  0  0  0  0
   56.7890   28.0200   45.4250 C   0  0  0  0  0  0  0  0  0  0  0  0
   55.5370   27.4440   45.6070 O   0  0  0  0  0  0  0  0  0  0  0  0
   57.8460   32.8660   44.0390 N   0  0  0  0  0  0  0  0  0  0  0  0
   58.7440   33.4300   44.8690 C   0  0  0  0  0  0  0  0  0  0  0  0
   59.6088   34.0357   44.5603 H   0  0  0  0  0  0  0  0  0  0  0  0
  1  2  1  0
  2  3  1  0
  3  4  2  0
  4  5  1  0
  4  6  1  0
  6  7  1  0
  6  8  2  0
  8  9  1  0
  8 10  1  0
 10 11  1  0
 10 12  2  0
 12 13  1  0
 13 14  1  0
 13 15  1  0
 13 16  1  0
 16 17  1  0
 17 18  1  0
 18 19  2  0
 19 20  1  0
 20 21  2  0
 20 22  1  0
 22 23  1  0
 23 24  1  0
 24 25  2  0
 25 26  1  0
 25 27  1  0
 27 28  1  0
 27 29  2  0
 29 30  1  0
 29 31  1  0
 31 32  1  0
 31 33  2  0
 33 34  1  0
 34 35  1  0
 18 36  1  0
 36 37  1  0
 37 38  1  0
 12  3  1  0
 37 16  2  0
 34 22  2  0
 33 24  1  0
M  CHG  2  35  -1  36  -1
M  END
>  <UniqueID>  (3) 
3

>  <SMILES>  (3) 
O=C(/N=c1\[n-]cc(Cc2ccccc2O)o1)c1sc2ccccc2c1[O-]

>  <Energy>  (3) 
110.78265341889463

>  <Genealogy>  (3) 
O=C(N=c1[n-]cc(Cc2ccccc2O)o1)c1sc2ccccc2c1[O-] (protonated)
O=C(/N=c1\[n-]cc(Cc2ccccc2O)o1)c1sc2ccccc2c1[O-] (cis-trans isomerization)
O=C(/N=c1\[n-]cc(Cc2ccccc2O)o1)c1sc2ccccc2c1[O-] (3D coordinates assigned)
O=C(/N=c1\[n-]cc(Cc2ccccc2O)o1)c1sc2ccccc2c1[O-] (optimized conformer: 110.78265341889463 kcal/mol)

>  <smiles>  (3) 
O=C(N=c1[nH]cc(Cc2ccccc2O)o1)c1sc2ccccc2c1O

>  <score_type>  (3) 
oracle

>  <origin>  (3) 
adg

>  <m_score__min__energy>  (3) 
-13.390000000000001

>  <m_primary>  (3) 
energy

$$$$
3:0
     RDKit          3D

 46 49  0  0  0  0  0  0  0  0999 V2000
   57.4570   29.9430   51.2630 O   0  0  0  0  0  0  0  0  0  0  0  0
   58.5320   30.2050   50.6570 C   0  0  0  0  0  0  0  0  0  0  0  0
   59.1370   31.5820   50.7870 C   0  0  0  0  0  0  0  0  0  0  0  0
   60.0780   31.8420   49.7000 N   0  0  0  0  0  0  0  0  0  0  0  0
   61.5020   31.7160   49.7630 C   0  0  0  0  0  0  0  0  0  0  0  0
   62.1210   31.1050   50.6760 O   0  0  0  0  0  0  0  0  0  0  0  0
   62.1170   32.4220   48.6440 C   0  0  0  0  0  0  0  0  0  0  0  0
   63.4570   32.5800   48.2930 C   0  0  0  0  0  0  0  0  0  0  0  0
   63.7540   33.3540   47.1560 C   0  0  0  0  0  0  0  0  0  0  0  0
   62.7190   33.9510   46.4050 C   0  0  0  0  0  0  0  0  0  0  0  0
   61.3750   33.7790   46.7830 C   0  0  0  0  0  0  0  0  0  0  0  0
   61.1060   33.0020   47.9080 C   0  0  0  0  0  0  0  0  0  0  0  0
   59.8420   32.6640   48.5540 C   0  0  0  0  0  0  0  0  0  0  0  0
   58.7020   33.0580   48.1870 O   0  0  0  0  0  0  0  0  0  0  0  0
   59.2230   29.1310   50.0050 N   0  0  0  0  0  0  0  0  0  0  0  0
   59.3620   28.9330   48.5920 C   0  0  0  0  0  0  0  0  0  0  0  0
   60.5080   29.3520   47.9030 C   0  0  0  0  0  0  0  0  0  0  0  0
   60.5990   29.1690   46.5220 C   0  0  0  0  0  0  0  0  0  0  0  0
   59.5370   28.5950   45.8180 C   0  0  0  0  0  0  0  0  0  0  0  0
   58.3710   28.2180   46.4900 C   0  0  0  0  0  0  0  0  0  0  0  0
   57.0270   27.5280   45.5870 S   0  0  0  0  0  0  0  0  0  0  0  0
   57.5220   26.6150   44.4980 O   0  0  0  0  0  0  0  0  0  0  0  0
   56.1670   26.7340   46.5300 O   0  0  0  0  0  0  0  0  0  0  0  0
   56.0760   28.7920   44.8790 N   0  0  0  0  0  0  0  0  0  0  0  0
   56.6020   29.9540   44.2250 C   0  0  0  0  0  0  0  0  0  0  0  0
   56.4730   30.0560   42.8340 C   0  0  0  0  0  0  0  0  0  0  0  0
   56.9780   31.1670   42.1510 C   0  0  0  0  0  0  0  0  0  0  0  0
   57.6140   32.1890   42.8600 C   0  0  0  0  0  0  0  0  0  0  0  0
   57.7420   32.1010   44.2490 C   0  0  0  0  0  0  0  0  0  0  0  0
   58.5290   33.3890   45.1370 Cl  0  0  0  0  0  0  0  0  0  0  0  0
   57.2420   30.9860   44.9330 C   0  0  0  0  0  0  0  0  0  0  0  0
   58.2820   28.4000   47.8770 C   0  0  0  0  0  0  0  0  0  0  0  0
   58.3338   32.3329   50.7555 H   0  0  0  0  0  0  0  0  0  0  0  0
   59.6788   31.6394   51.7426 H   0  0  0  0  0  0  0  0  0  0  0  0
   64.2573   32.1140   48.8865 H   0  0  0  0  0  0  0  0  0  0  0  0
   64.8012   33.4948   46.8501 H   0  0  0  0  0  0  0  0  0  0  0  0
   62.9647   34.5545   45.5187 H   0  0  0  0  0  0  0  0  0  0  0  0
   60.5608   34.2439   46.2078 H   0  0  0  0  0  0  0  0  0  0  0  0
   61.3363   29.8253   48.4506 H   0  0  0  0  0  0  0  0  0  0  0  0
   61.5090   29.4774   45.9866 H   0  0  0  0  0  0  0  0  0  0  0  0
   59.6190   28.4395   44.7321 H   0  0  0  0  0  0  0  0  0  0  0  0
   55.9696   29.2545   42.2734 H   0  0  0  0  0  0  0  0  0  0  0  0
   56.8747   31.2360   41.0580 H   0  0  0  0  0  0  0  0  0  0  0  0
   58.0140   33.0630   42.3251 H   0  0  0  0  0  0  0  0  0  0  0  0
   57.3502   30.9177   46.0255 H   0  0  0  0  0  0  0  0  0  0  0  0
   57.3588   28.1227   48.4069 H   0  0  0  0  0  0  0  0  0  0  0  0
  1  2  2  0
  2  3  1  0
  3  4  1  0
  4  5  1  0
  5  6  2  0
  5  7  1  0
  7  8  2  0
  8  9  1  0
  9 10  2  0
 10 11  1  0
 11 12  2  0
 12 13  1  0
 13 14  2  0
  2 15  1  0
 15 16  1  0
 16 17  2  0
 17 18  1  0
 18 19  2  0
 19 20  1  0
 20 21  1  0
 21 22  2  0
 21 23  2  0
 21 24  1  0
 24 25  1  0
 25 26  2  0
 26 27  1  0
 27 28  2  0
 28 29  1  0
 29 30  1  0
 29 31  2  0
 20 32  2  0
 13  4  1  0
 32 16  1  0
 12  7  1  0
 31 25  1  0
  3 33  1  0
  3 34  1  0
  8 35  1  0
  9 36  1  0
 10 37  1  0
 11 38  1  0
 17 39  1  0
 18 40  1  0
 19 41  1  0
 26 42  1  0
 27 43  1  0
 28 44  1  0
 31 45  1  0
 32 46  1  0
M  CHG  2  15  -1  24  -1
M  END
>  <UniqueID>  (4) 
4

>  <SMILES>  (4) 
O=C(CN1C(=O)c2ccccc2C1=O)[N-]c1cccc(S(=O)(=O)[N-]c2cccc(Cl)c2)c1

>  <Energy>  (4) 
90.64053343038259

>  <Genealogy>  (4) 
O=C(CN1C(=O)c2ccccc2C1=O)[N-]c1cccc(S(=O)(=O)[N-]c2cccc(Cl)c2)c1 (protonated)
O=C(CN1C(=O)c2ccccc2C1=O)[N-]c1cccc(S(=O)(=O)[N-]c2cccc(Cl)c2)c1 (3D coordinates assigned)
O=C(CN1C(=O)c2ccccc2C1=O)[N-]c1cccc(S(=O)(=O)[N-]c2cccc(Cl)c2)c1 (nonaromatic ring conformer: 90.64053343038259 kcal/mol)

>  <smiles>  (4) 
O=C(CN1C(=O)c2ccccc2C1=O)Nc1cccc(S(=O)(=O)Nc2cccc(Cl)c2)c1

>  <score_type>  (4) 
oracle

>  <origin>  (4) 
adg

>  <m_score__min__energy>  (4) 
-12.82

>  <m_primary>  (4) 
energy

$$$$
4:0
     RDKit          3D

 34 35  0  0  0  0  0  0  0  0999 V2000
   57.1250   30.7990   42.8960 O   0  0  0  0  0  0  0  0  0  0  0  0
   57.3990   30.5640   44.1040 C   0  0  0  0  0  0  0  0  0  0  0  0
   58.3060   29.4250   44.4510 C   0  0  0  0  0  0  0  0  0  0  0  0
   57.5420   28.2610   45.0220 C   0  0  0  0  0  0  0  0  0  0  0  0
   58.2180   26.8160   45.5810 S   0  0  0  0  0  0  0  0  0  0  0  0
   56.7420   26.2240   46.1150 C   0  0  0  0  0  0  0  0  0  0  0  0
   56.5810   25.0990   46.6560 O   0  0  0  0  0  0  0  0  0  0  0  0
   55.7320   27.0930   45.9120 N   0  0  0  0  0  0  0  0  0  0  0  0
   56.1720   28.2340   45.3170 C   0  0  0  0  0  0  0  0  0  0  0  0
   55.2970   29.2840   45.0490 O   0  0  0  0  0  0  0  0  0  0  0  0
   56.9150   31.3890   45.1250 O   0  0  0  0  0  0  0  0  0  0  0  0
   57.6760   32.4400   45.7250 C   0  0  0  0  0  0  0  0  0  0  0  0
   58.4840   33.1630   44.6190 C   0  0  0  0  0  0  0  0  0  0  0  0
   59.1870   34.4590   45.0660 C   0  0  0  0  0  0  0  0  0  0  0  0
   58.8370   34.9570   46.4940 C   0  0  0  0  0  0  0  0  0  0  0  0
   59.4830   34.1820   47.6600 C   0  0  0  0  0  0  0  0  0  0  0  0
   58.7510   32.8820   48.0460 C   0  0  0  0  0  0  0  0  0  0  0  0
   58.5180   31.8880   46.8980 C   0  0  0  0  0  0  0  0  0  0  0  0
   58.8298   29.0962   43.5413 H   0  0  0  0  0  0  0  0  0  0  0  0
   59.0198   29.7738   45.2118 H   0  0  0  0  0  0  0  0  0  0  0  0
   55.2530   30.1120   45.6290 H   0  0  0  0  0  0  0  0  0  0  0  0
   57.0261   33.2012   46.1813 H   0  0  0  0  0  0  0  0  0  0  0  0
   59.2525   32.4684   44.2489 H   0  0  0  0  0  0  0  0  0  0  0  0
   57.7550   33.4589   43.8502 H   0  0  0  0  0  0  0  0  0  0  0  0
   60.2725   34.2859   45.0251 H   0  0  0  0  0  0  0  0  0  0  0  0
   58.8340   35.2433   44.3802 H   0  0  0  0  0  0  0  0  0  0  0  0
   59.1554   36.0071   46.5712 H   0  0  0  0  0  0  0  0  0  0  0  0
   57.7530   34.8047   46.6026 H   0  0  0  0  0  0  0  0  0  0  0  0
   60.5129   33.9240   47.3724 H   0  0  0  0  0  0  0  0  0  0  0  0
   59.4345   34.8414   48.5391 H   0  0  0  0  0  0  0  0  0  0  0  0
   59.3472   32.3740   48.8183 H   0  0  0  0  0  0  0  0  0  0  0  0
   57.7513   33.1885   48.3875 H   0  0  0  0  0  0  0  0  0  0  0  0
   59.4989   31.5854   46.5027 H   0  0  0  0  0  0  0  0  0  0  0  0
   57.9454   31.0509   47.3239 H   0  0  0  0  0  0  0  0  0  0  0  0
  1  2  2  0
  2  3  1  0
  3  4  1  0
  4  5  1  0
  5  6  1  0
  6  7  2  0
  6  8  1  0
  8  9  1  0
  9 10  1  0
  2 11  1  0
 11 12  1  0
 12 13  1  0
 13 14  1  0
 14 15  1  0
 15 16  1  0
 16 17  1  0
 17 18  1  0
  9  4  2  0
 18 12  1  0
  3 19  1  0
  3 20  1  0
 10 21  1  0
 12 22  1  0
 13 23  1  0
 13 24  1  0
 14 25  1  0
 14 26  1  0
 15 27  1  0
 15 28  1  0
 16 29  1  0
 16 30  1  0
 17 31  1  0
 17 32  1  0
 18 33  1  0
 18 34  1  0
M  CHG  1   8  -1
M  END
>  <UniqueID>  (5) 
5

>  <SMILES>  (5) 
O=C(Cc1sc(=O)[n-]c1O)OC1CCCCCC1

>  <Energy>  (5) 
68.99165288338716

>  <Genealogy>  (5) 
O=C(Cc1sc(=O)[n-]c1O)OC1CCCCCC1 (protonated)
O=C(Cc1sc(=O)[n-]c1O)OC1CCCCCC1 (3D coordinates assigned)
O=C(Cc1sc(=O)[n-]c1O)OC1CCCCCC1 (nonaromatic ring conformer: 68.99165288338716 kcal/mol)

>  <smiles>  (5) 
O=C(Cc1sc(=O)[nH]c1O)OC1CCCCCC1

>  <score_type>  (5) 
oracle

>  <origin>  (5) 
adg

>  <m_score__min__energy>  (5) 
-7.9000000000000004

>  <m_primary>  (5) 
energy

$$$$
5:0
     RDKit          3D

 23 24  0  0  0  0  0  0  0  0999 V2000
   56.2820   30.6810   44.3720 O   0  0  0  0  0  0  0  0  0  0  0  0
   56.6410   29.5210   44.7010 C   0  0  0  0  0  0  0  0  0  0  0  0
   55.7430   28.6620   45.2450 N   0  0  0  0  0  0  0  0  0  0  0  0
   56.1030   27.4030   45.6100 C   0  0  0  0  0  0  0  0  0  0  0  0
   55.1510   26.5530   46.1640 O   0  0  0  0  0  0  0  0  0  0  0  0
   57.4280   26.9690   45.4210 C   0  0  0  0  0  0  0  0  0  0  0  0
   57.8590   25.5830   45.8490 C   0  0  0  0  0  0  0  0  0  0  0  0
   56.7810   24.5680   45.5470 C   0  0  0  0  0  0  0  0  0  0  0  0
   56.6450   24.0660   44.2420 C   0  0  0  0  0  0  0  0  0  0  0  0
   55.6670   23.1130   43.9540 C   0  0  0  0  0  0  0  0  0  0  0  0
   55.5320   22.6130   42.6640 O   0  0  0  0  0  0  0  0  0  0  0  0
   54.8270   22.6640   44.9740 C   0  0  0  0  0  0  0  0  0  0  0  0
   54.9640   23.1580   46.2320 N   0  0  0  0  0  0  0  0  0  0  0  0
   55.9060   24.0880   46.5440 C   0  0  0  0  0  0  0  0  0  0  0  0
   55.9810   24.5120   47.7270 O   0  0  0  0  0  0  0  0  0  0  0  0
   58.3390   27.8820   44.8560 C   0  0  0  0  0  0  0  0  0  0  0  0
   59.5400   27.5590   44.6610 O   0  0  0  0  0  0  0  0  0  0  0  0
   57.9250   29.1290   44.5100 N   0  0  0  0  0  0  0  0  0  0  0  0
   55.1440   26.3550   47.1580 H   0  0  0  0  0  0  0  0  0  0  0  0
   58.7758   25.3072   45.3073 H   0  0  0  0  0  0  0  0  0  0  0  0
   58.0422   25.5902   46.9336 H   0  0  0  0  0  0  0  0  0  0  0  0
   57.3118   24.4254   43.4443 H   0  0  0  0  0  0  0  0  0  0  0  0
   54.0546   21.9107   44.7595 H   0  0  0  0  0  0  0  0  0  0  0  0
  1  2  2  0
  2  3  1  0
  3  4  1  0
  4  5  1  0
  4  6  2  0
  6  7  1  0
  7  8  1  0
  8  9  2  0
  9 10  1  0
 10 11  1  0
 10 12  2  0
 12 13  1  0
 13 14  1  0
 14 15  2  0
  6 16  1  0
 16 17  2  0
 16 18  1  0
 18  2  1  0
 14  8  1  0
  5 19  1  0
  7 20  1  0
  7 21  1  0
  9 22  1  0
 12 23  1  0
M  CHG  4   3  -1  11  -1  13  -1  18  -1
M  END
>  <UniqueID>  (6) 
6

>  <SMILES>  (6) 
O=c1[n-]c(O)c(Cc2cc([O-])c[n-]c2=O)c(=O)[n-]1

>  <Energy>  (6) 
27.29731825150873

>  <Genealogy>  (6) 
O=c1[n-]c(O)c(Cc2cc([O-])c[n-]c2=O)c(=O)[n-]1 (protonated)
O=c1[n-]c(O)c(Cc2cc([O-])c[n-]c2=O)c(=O)[n-]1 (3D coordinates assigned)
O=c1[n-]c(O)c(Cc2cc([O-])c[n-]c2=O)c(=O)[n-]1 (optimized conformer: 27.29731825150873 kcal/mol)

>  <smiles>  (6) 
O=c1[nH]c(O)c(Cc2cc(O)c[nH]c2=O)c(=O)[nH]1

>  <score_type>  (6) 
oracle

>  <origin>  (6) 
adg

>  <m_score__min__energy>  (6) 
-12.890000000000001

>  <m_primary>  (6) 
energy

$$$$
6:0
     RDKit          3D

 41 43  0  0  0  0  0  0  0  0999 V2000
   59.1572   35.1851   45.8565 H   0  0  0  0  0  0  0  0  0  0  0  0
   58.7080   34.1920   45.7080 C   0  0  0  0  0  0  0  0  0  0  0  0
   57.2010   33.8840   45.0260 S   0  0  0  0  0  0  0  0  0  0  0  0
   57.3560   32.2130   45.1860 C   0  0  0  0  0  0  0  0  0  0  0  0
   56.4690   31.3220   44.8530 N   0  0  0  0  0  0  0  0  0  0  0  0
   56.7270   30.0540   44.2300 C   0  0  0  0  0  0  0  0  0  0  0  0
   56.0330   29.7230   43.2320 O   0  0  0  0  0  0  0  0  0  0  0  0
   57.7410   29.1040   44.7490 C   0  0  0  0  0  0  0  0  0  0  0  0
   59.1030   29.3820   44.5370 C   0  0  0  0  0  0  0  0  0  0  0  0
   59.3954   30.2870   43.9844 H   0  0  0  0  0  0  0  0  0  0  0  0
   60.0870   28.5190   45.0220 C   0  0  0  0  0  0  0  0  0  0  0  0
   61.1496   28.7457   44.8501 H   0  0  0  0  0  0  0  0  0  0  0  0
   59.7250   27.3700   45.7240 C   0  0  0  0  0  0  0  0  0  0  0  0
   60.5029   26.7011   46.1209 H   0  0  0  0  0  0  0  0  0  0  0  0
   58.3770   27.0670   45.9240 C   0  0  0  0  0  0  0  0  0  0  0  0
   58.0980   26.1623   46.4841 H   0  0  0  0  0  0  0  0  0  0  0  0
   57.3720   27.9110   45.4140 C   0  0  0  0  0  0  0  0  0  0  0  0
   55.9820   27.5950   45.5960 N   0  0  0  0  0  0  0  0  0  0  0  0
   55.4440   26.3340   46.0060 C   0  0  0  0  0  0  0  0  0  0  0  0
   56.1340   25.5870   46.7490 O   0  0  0  0  0  0  0  0  0  0  0  0
   54.1140   25.9520   45.6350 N   0  0  0  0  0  0  0  0  0  0  0  0
   53.6870   24.5690   45.4670 C   0  0  0  0  0  0  0  0  0  0  0  0
   52.7191   24.5501   44.9447 H   0  0  0  0  0  0  0  0  0  0  0  0
   53.5923   24.1033   46.4590 H   0  0  0  0  0  0  0  0  0  0  0  0
   54.7120   23.7880   44.6520 C   0  0  0  0  0  0  0  0  0  0  0  0
   55.3994   23.2642   45.3325 H   0  0  0  0  0  0  0  0  0  0  0  0
   54.1937   23.0538   44.0178 H   0  0  0  0  0  0  0  0  0  0  0  0
   55.2824   24.4826   44.0178 H   0  0  0  0  0  0  0  0  0  0  0  0
   58.5280   31.8780   45.7600 N   0  0  0  0  0  0  0  0  0  0  0  0
   59.2920   32.9680   46.0540 C   0  0  0  0  0  0  0  0  0  0  0  0
   60.6340   32.8260   46.6790 C   0  0  0  0  0  0  0  0  0  0  0  0
   61.5340   33.9100   46.7490 C   0  0  0  0  0  0  0  0  0  0  0  0
   61.2467   34.8869   46.3330 H   0  0  0  0  0  0  0  0  0  0  0  0
   62.7890   33.7500   47.3440 C   0  0  0  0  0  0  0  0  0  0  0  0
   63.4846   34.6007   47.3921 H   0  0  0  0  0  0  0  0  0  0  0  0
   63.1630   32.5160   47.8770 C   0  0  0  0  0  0  0  0  0  0  0  0
   64.1526   32.3941   48.3417 H   0  0  0  0  0  0  0  0  0  0  0  0
   62.2800   31.4360   47.8200 C   0  0  0  0  0  0  0  0  0  0  0  0
   62.5738   30.4638   48.2424 H   0  0  0  0  0  0  0  0  0  0  0  0
   61.0230   31.5880   47.2270 C   0  0  0  0  0  0  0  0  0  0  0  0
   60.3317   30.7333   47.1880 H   0  0  0  0  0  0  0  0  0  0  0  0
  1  2  1  0
  2  3  1  0
  3  4  1  0
  4  5  2  0
  5  6  1  0
  6  7  2  0
  6  8  1  0
  8  9  2  0
  9 10  1  0
  9 11  1  0
 11 12  1  0
 11 13  2  0
 13 14  1  0
 13 15  1  0
 15 16  1  0
 15 17  2  0
 17 18  1  0
 18 19  1  0
 19 20  2  0
 19 21  1  0
 21 22  1  0
 22 23  1  0
 22 24  1  0
 22 25  1  0
 25 26  1  0
 25 27  1  0
 25 28  1  0
  4 29  1  0
 29 30  1  0
 30 31  1  0
 31 32  2  0
 32 33  1  0
 32 34  1  0
 34 35  1  0
 34 36  2  0
 36 37  1  0
 36 38  1  0
 38 39  1  0
 38 40  2  0
 40 41  1  0
 30  2  2  0
 40 31  1  0
 17  8  1  0
M  CHG  3  18  -1  21  -1  29  -1
M  END
>  <UniqueID>  (7) 
7

>  <SMILES>  (7) 
CC[N-]C(=O)[N-]c1ccccc1C(=O)/N=c1/[n-]c(-c2ccccc2)cs1

>  <Energy>  (7) 
84.79400011696993

>  <Genealogy>  (7) 
CC[N-]C(=O)[N-]c1ccccc1C(=O)N=c1[n-]c(-c2ccccc2)cs1 (protonated)
CC[N-]C(=O)[N-]c1ccccc1C(=O)/N=c1/[n-]c(-c2ccccc2)cs1 (cis-trans isomerization)
CC[N-]C(=O)[N-]c1ccccc1C(=O)/N=c1/[n-]c(-c2ccccc2)cs1 (3D coordinates assigned)
CC[N-]C(=O)[N-]c1ccccc1C(=O)/N=c1/[n-]c(-c2ccccc2)cs1 (optimized conformer: 84.79400011696993 kcal/mol)

>  <smiles>  (7) 
CCNC(=O)Nc1ccccc1C(=O)N=c1[nH]c(-c2ccccc2)cs1

>  <score_type>  (7) 
oracle

>  <origin>  (7) 
adg

>  <m_score__min__energy>  (7) 
-15

>  <m_primary>  (7) 
energy

$$$$
7:0
     RDKit          3D

 51 53  0  0  0  0  0  0  0  0999 V2000
   59.2090   35.7460   44.8610 O   0  0  0  0  0  0  0  0  0  0  0  0
   59.1610   34.4960   45.0100 C   0  0  0  0  0  0  0  0  0  0  0  0
   57.9500   33.7760   44.5740 C   0  0  0  0  0  0  0  0  0  0  0  0
   57.9340   32.6930   43.7820 C   0  0  0  0  0  0  0  0  0  0  0  0
   57.6640   31.3140   44.2360 C   0  0  0  0  0  0  0  0  0  0  0  0
   58.7030   30.4790   44.6800 C   0  0  0  0  0  0  0  0  0  0  0  0
   58.4310   29.1680   45.0800 C   0  0  0  0  0  0  0  0  0  0  0  0
   57.1260   28.6690   45.0210 C   0  0  0  0  0  0  0  0  0  0  0  0
   56.8810   27.3580   45.4250 O   0  0  0  0  0  0  0  0  0  0  0  0
   56.0860   29.4940   44.5600 C   0  0  0  0  0  0  0  0  0  0  0  0
   54.7810   29.0180   44.4990 O   0  0  0  0  0  0  0  0  0  0  0  0
   56.3590   30.8070   44.1580 C   0  0  0  0  0  0  0  0  0  0  0  0
   60.2120   33.8060   45.7020 N   0  0  0  0  0  0  0  0  0  0  0  0
   60.4720   33.8240   47.1130 C   0  0  0  0  0  0  0  0  0  0  0  0
   59.4410   34.2080   47.9780 C   0  0  0  0  0  0  0  0  0  0  0  0
   59.6450   34.2250   49.3600 C   0  0  0  0  0  0  0  0  0  0  0  0
   60.8810   33.8460   49.8890 C   0  0  0  0  0  0  0  0  0  0  0  0
   61.9160   33.4380   49.0390 C   0  0  0  0  0  0  0  0  0  0  0  0
   63.4570   32.9320   49.7210 S   0  0  0  0  0  0  0  0  0  0  0  0
   64.5370   33.0430   48.6800 O   0  0  0  0  0  0  0  0  0  0  0  0
   63.7920   33.8250   50.8840 O   0  0  0  0  0  0  0  0  0  0  0  0
   63.3180   31.2860   50.2530 N   0  0  0  0  0  0  0  0  0  0  0  0
   62.2590   30.5390   50.1400 C   0  0  0  0  0  0  0  0  0  0  0  0
   61.5820   30.0540   51.3910 C   0  0  0  0  0  0  0  0  0  0  0  0
   60.1380   30.5740   51.5080 C   0  0  0  0  0  0  0  0  0  0  0  0
   59.0780   29.7380   50.7630 C   0  0  0  0  0  0  0  0  0  0  0  0
   59.2530   29.7160   49.2340 C   0  0  0  0  0  0  0  0  0  0  0  0
   60.6240   29.2150   48.7210 C   0  0  0  0  0  0  0  0  0  0  0  0
   61.6930   30.2070   48.8560 N   0  0  0  0  0  0  0  0  0  0  0  0
   61.7060   33.4110   47.6520 C   0  0  0  0  0  0  0  0  0  0  0  0
   56.9807   34.1580   44.9269 H   0  0  0  0  0  0  0  0  0  0  0  0
   58.1378   32.8441   42.7117 H   0  0  0  0  0  0  0  0  0  0  0  0
   59.7348   30.8588   44.7129 H   0  0  0  0  0  0  0  0  0  0  0  0
   59.2470   28.5257   45.4429 H   0  0  0  0  0  0  0  0  0  0  0  0
   56.2750   26.7390   44.8990 H   0  0  0  0  0  0  0  0  0  0  0  0
   55.5460   31.4438   43.7792 H   0  0  0  0  0  0  0  0  0  0  0  0
   58.4630   34.4985   47.5668 H   0  0  0  0  0  0  0  0  0  0  0  0
   58.8319   34.5370   50.0319 H   0  0  0  0  0  0  0  0  0  0  0  0
   61.0417   33.8682   50.9770 H   0  0  0  0  0  0  0  0  0  0  0  0
   61.5630   28.9542   51.3802 H   0  0  0  0  0  0  0  0  0  0  0  0
   62.1497   30.4354   52.2525 H   0  0  0  0  0  0  0  0  0  0  0  0
   59.8685   30.5936   52.5743 H   0  0  0  0  0  0  0  0  0  0  0  0
   60.1315   31.5673   51.0355 H   0  0  0  0  0  0  0  0  0  0  0  0
   59.1332   28.7031   51.1316 H   0  0  0  0  0  0  0  0  0  0  0  0
   58.1048   30.2101   50.9632 H   0  0  0  0  0  0  0  0  0  0  0  0
   58.4755   29.0605   48.8146 H   0  0  0  0  0  0  0  0  0  0  0  0
   59.1770   30.7642   48.9092 H   0  0  0  0  0  0  0  0  0  0  0  0
   60.9049   28.3194   49.2945 H   0  0  0  0  0  0  0  0  0  0  0  0
   60.5114   29.0027   47.6476 H   0  0  0  0  0  0  0  0  0  0  0  0
   62.0550   30.6410   47.9810 H   0  0  0  0  0  0  0  0  0  0  0  0
   62.5081   33.0660   46.9830 H   0  0  0  0  0  0  0  0  0  0  0  0
  1  2  2  0
  2  3  1  0
  3  4  2  3
  4  5  1  0
  5  6  2  0
  6  7  1  0
  7  8  2  0
  8  9  1  0
  8 10  1  0
 10 11  1  0
 10 12  2  0
  2 13  1  0
 13 14  1  0
 14 15  2  0
 15 16  1  0
 16 17  2  0
 17 18  1  0
 18 19  1  0
 19 20  2  0
 19 21  2  0
 19 22  1  0
 22 23  2  3
 23 24  1  0
 24 25  1  0
 25 26  1  0
 26 27  1  0
 27 28  1  0
 28 29  1  0
 18 30  2  0
 12  5  1  0
 30 14  1  0
 29 23  1  0
  3 31  1  0
  4 32  1  0
  6 33  1  0
  7 34  1  0
  9 35  1  0
 12 36  1  0
 15 37  1  0
 16 38  1  0
 17 39  1  0
 24 40  1  0
 24 41  1  0
 25 42  1  0
 25 43  1  0
 26 44  1  0
 26 45  1  0
 27 46  1  0
 27 47  1  0
 28 48  1  0
 28 49  1  0
 29 50  1  0
 30 51  1  0
M  CHG  2  11  -1  13  -1
M  END
>  <UniqueID>  (8) 
8

>  <SMILES>  (8) 
O=C(C=Cc1ccc(O)c([O-])c1)[N-]c1cccc(S(=O)(=O)N=C2CCCCCN2)c1

>  <Energy>  (8) 
69.59311063302728

>  <Genealogy>  (8) 
O=C(C=Cc1ccc(O)c([O-])c1)[N-]c1cccc(S(=O)(=O)N=C2CCCCCN2)c1 (protonated)
O=C(C=Cc1ccc(O)c([O-])c1)[N-]c1cccc(S(=O)(=O)N=C2CCCCCN2)c1 (3D coordinates assigned)
O=C(C=Cc1ccc(O)c([O-])c1)[N-]c1cccc(S(=O)(=O)N=C2CCCCCN2)c1 (nonaromatic ring conformer: 69.59311063302728 kcal/mol)

>  <smiles>  (8) 
O=C(C=Cc1ccc(O)c(O)c1)Nc1cccc(S(=O)(=O)N=C2CCCCCN2)c1

>  <score_type>  (8) 
oracle

>  <origin>  (8) 
adg

>  <m_score__min__energy>  (8) 
-12.34

>  <m_primary>  (8) 
energy

$$$$
8:0
     RDKit          3D

 56 58  0  0  0  0  0  0  0  0999 V2000
   63.7810   33.1800   47.1190 C   0  0  0  0  0  0  0  0  0  0  0  0
   62.5020   33.7300   46.5000 C   0  0  0  0  0  0  0  0  0  0  0  0
   61.3360   32.9310   46.9400 N   0  0  0  0  0  0  0  0  0  0  0  0
   61.7330   31.8470   47.8700 C   0  0  0  0  0  0  0  0  0  0  0  0
   60.9640   30.5940   47.5750 C   0  0  0  0  0  0  0  0  0  0  0  0
   60.7420   29.7760   48.5070 O   0  0  0  0  0  0  0  0  0  0  0  0
   60.4150   30.3740   46.2690 N   0  0  0  0  0  0  0  0  0  0  0  0
   59.0650   30.0010   45.9590 C   0  0  0  0  0  0  0  0  0  0  0  0
   58.2780   30.8890   45.2130 C   0  0  0  0  0  0  0  0  0  0  0  0
   56.9710   30.5460   44.8540 C   0  0  0  0  0  0  0  0  0  0  0  0
   56.4460   29.3040   45.2240 C   0  0  0  0  0  0  0  0  0  0  0  0
   55.1500   28.9600   44.8630 O   0  0  0  0  0  0  0  0  0  0  0  0
   57.2310   28.4050   45.9510 C   0  0  0  0  0  0  0  0  0  0  0  0
   58.5370   28.7460   46.3140 C   0  0  0  0  0  0  0  0  0  0  0  0
   60.2980   33.7940   47.5400 C   0  0  0  0  0  0  0  0  0  0  0  0
   60.6680   34.1330   48.9600 C   0  0  0  0  0  0  0  0  0  0  0  0
   61.8760   34.3580   49.2370 O   0  0  0  0  0  0  0  0  0  0  0  0
   59.7020   34.1450   50.0190 N   0  0  0  0  0  0  0  0  0  0  0  0
   59.0160   33.0080   50.5630 C   0  0  0  0  0  0  0  0  0  0  0  0
   58.9330   31.8390   49.8020 C   0  0  0  0  0  0  0  0  0  0  0  0
   58.2710   30.7150   50.3030 C   0  0  0  0  0  0  0  0  0  0  0  0
   57.6760   30.7450   51.5700 C   0  0  0  0  0  0  0  0  0  0  0  0
   56.9980   29.6000   52.0150 O   0  0  0  0  0  0  0  0  0  0  0  0
   56.0990   29.5540   53.1220 C   0  0  0  0  0  0  0  0  0  0  0  0
   54.6880   29.7600   52.6520 C   0  0  0  0  0  0  0  0  0  0  0  0
   54.3950   30.8360   51.7990 C   0  0  0  0  0  0  0  0  0  0  0  0
   53.0900   31.0380   51.3400 C   0  0  0  0  0  0  0  0  0  0  0  0
   52.0690   30.1690   51.7310 C   0  0  0  0  0  0  0  0  0  0  0  0
   52.3490   29.1000   52.5860 C   0  0  0  0  0  0  0  0  0  0  0  0
   53.6530   28.8940   53.0480 C   0  0  0  0  0  0  0  0  0  0  0  0
   57.7950   31.9090   52.3540 C   0  0  0  0  0  0  0  0  0  0  0  0
   58.4780   33.0240   51.8590 C   0  0  0  0  0  0  0  0  0  0  0  0
   63.7017   33.2141   48.2156 H   0  0  0  0  0  0  0  0  0  0  0  0
   63.9275   32.1393   46.7941 H   0  0  0  0  0  0  0  0  0  0  0  0
   64.6371   33.7895   46.7941 H   0  0  0  0  0  0  0  0  0  0  0  0
   62.3661   34.7751   46.8152 H   0  0  0  0  0  0  0  0  0  0  0  0
   62.5814   33.6754   45.4042 H   0  0  0  0  0  0  0  0  0  0  0  0
   62.8086   31.6472   47.7549 H   0  0  0  0  0  0  0  0  0  0  0  0
   61.5143   32.1643   48.9003 H   0  0  0  0  0  0  0  0  0  0  0  0
   58.6912   31.8618   44.9081 H   0  0  0  0  0  0  0  0  0  0  0  0
   56.3551   31.2539   44.2799 H   0  0  0  0  0  0  0  0  0  0  0  0
   56.8199   27.4261   46.2384 H   0  0  0  0  0  0  0  0  0  0  0  0
   59.1537   28.0313   46.8787 H   0  0  0  0  0  0  0  0  0  0  0  0
   60.2121   34.7213   46.9546 H   0  0  0  0  0  0  0  0  0  0  0  0
   59.3366   33.2594   47.5350 H   0  0  0  0  0  0  0  0  0  0  0  0
   59.3915   31.8034   48.8027 H   0  0  0  0  0  0  0  0  0  0  0  0
   58.2169   29.7987   49.6967 H   0  0  0  0  0  0  0  0  0  0  0  0
   56.1786   28.5736   53.6144 H   0  0  0  0  0  0  0  0  0  0  0  0
   56.3616   30.3526   53.8314 H   0  0  0  0  0  0  0  0  0  0  0  0
   55.1963   31.5235   51.4903 H   0  0  0  0  0  0  0  0  0  0  0  0
   52.8672   31.8819   50.6705 H   0  0  0  0  0  0  0  0  0  0  0  0
   51.0435   30.3263   51.3655 H   0  0  0  0  0  0  0  0  0  0  0  0
   51.5426   28.4193   52.8963 H   0  0  0  0  0  0  0  0  0  0  0  0
   53.8696   28.0526   53.7227 H   0  0  0  0  0  0  0  0  0  0  0  0
   57.3491   31.9409   53.3591 H   0  0  0  0  0  0  0  0  0  0  0  0
   58.5943   33.9184   52.4887 H   0  0  0  0  0  0  0  0  0  0  0  0
  1  2  1  0
  2  3  1  0
  3  4  1  0
  4  5  1  0
  5  6  2  0
  5  7  1  0
  7  8  1  0
  8  9  2  0
  9 10  1  0
 10 11  2  0
 11 12  1  0
 11 13  1  0
 13 14  2  0
  3 15  1  0
 15 16  1  0
 16 17  2  0
 16 18  1  0
 18 19  1  0
 19 20  2  0
 20 21  1  0
 21 22  2  0
 22 23  1  0
 23 24  1  0
 24 25  1  0
 25 26  2  0
 26 27  1  0
 27 28  2  0
 28 29  1  0
 29 30  2  0
 22 31  1  0
 31 32  2  0
 14  8  1  0
 32 19  1  0
 30 25  1  0
  1 33  1  0
  1 34  1  0
  1 35  1  0
  2 36  1  0
  2 37  1  0
  4 38  1  0
  4 39  1  0
  9 40  1  0
 10 41  1  0
 13 42  1  0
 14 43  1  0
 15 44  1  0
 15 45  1  0
 20 46  1  0
 21 47  1  0
 24 48  1  0
 24 49  1  0
 26 50  1  0
 27 51  1  0
 28 52  1  0
 29 53  1  0
 30 54  1  0
 31 55  1  0
 32 56  1  0
M  CHG  3   7  -1  12  -1  18  -1
M  END
>  <UniqueID>  (9) 
9

>  <SMILES>  (9) 
CCN(CC(=O)[N-]c1ccc([O-])cc1)CC(=O)[N-]c1ccc(OCc2ccccc2)cc1

>  <Energy>  (9) 
66.82925531034104

>  <Genealogy>  (9) 
CCN(CC(=O)[N-]c1ccc([O-])cc1)CC(=O)[N-]c1ccc(OCc2ccccc2)cc1 (protonated)
CCN(CC(=O)[N-]c1ccc([O-])cc1)CC(=O)[N-]c1ccc(OCc2ccccc2)cc1 (3D coordinates assigned)
CCN(CC(=O)[N-]c1ccc([O-])cc1)CC(=O)[N-]c1ccc(OCc2ccccc2)cc1 (optimized conformer: 66.82925531034104 kcal/mol)

>  <smiles>  (9) 
CCN(CC(=O)Nc1ccc(O)cc1)CC(=O)Nc1ccc(OCc2ccccc2)cc1

>  <score_type>  (9) 
oracle

>  <origin>  (9) 
adg

>  <m_score__min__energy>  (9) 
-14.33

>  <m_primary>  (9) 
energy

$$$$
9:0
     RDKit          3D

 36 37  0  0  0  0  0  0  0  0999 V2000
   58.9519   35.2556   46.1430 H   0  0  0  0  0  0  0  0  0  0  0  0
   58.8300   34.1630   46.1050 C   0  0  0  0  0  0  0  0  0  0  0  0
   58.4140   33.5500   44.9200 C   0  0  0  0  0  0  0  0  0  0  0  0
   58.2023   34.1635   44.0319 H   0  0  0  0  0  0  0  0  0  0  0  0
   58.2650   32.1570   44.8570 C   0  0  0  0  0  0  0  0  0  0  0  0
   57.7980   31.5010   43.5820 C   0  0  0  0  0  0  0  0  0  0  0  0
   58.5391   31.6855   42.7904 H   0  0  0  0  0  0  0  0  0  0  0  0
   56.8231   31.9286   43.3050 H   0  0  0  0  0  0  0  0  0  0  0  0
   57.6390   30.0550   43.7620 N   0  0  0  0  0  0  0  0  0  0  0  0
   58.5230   29.5090   43.8780 H   0  0  0  0  0  0  0  0  0  0  0  0
   56.4920   29.4260   43.8200 C   0  0  0  0  0  0  0  0  0  0  0  0
   55.5020   29.5760   42.7920 N   0  0  0  0  0  0  0  0  0  0  0  0
   55.6610   30.1300   41.9240 H   0  0  0  0  0  0  0  0  0  0  0  0
   54.5840   29.0880   42.8860 H   0  0  0  0  0  0  0  0  0  0  0  0
   56.1670   28.6180   44.9630 N   0  0  0  0  0  0  0  0  0  0  0  0
   55.1610   28.5550   45.2380 H   0  0  0  0  0  0  0  0  0  0  0  0
   57.1270   27.8480   45.7130 C   0  0  0  0  0  0  0  0  0  0  0  0
   58.4750   28.2270   45.7610 C   0  0  0  0  0  0  0  0  0  0  0  0
   58.8082   29.1368   45.2402 H   0  0  0  0  0  0  0  0  0  0  0  0
   59.3930   27.4550   46.4660 C   0  0  0  0  0  0  0  0  0  0  0  0
   60.4498   27.7563   46.5139 H   0  0  0  0  0  0  0  0  0  0  0  0
   58.9630   26.2970   47.1110 C   0  0  0  0  0  0  0  0  0  0  0  0
   59.6856   25.6869   47.6729 H   0  0  0  0  0  0  0  0  0  0  0  0
   57.6530   25.9110   47.0530 N   0  0  0  0  0  0  0  0  0  0  0  0
   57.2290   24.6820   47.7360 C   0  0  0  0  0  0  0  0  0  0  0  0
   57.2804   24.8311   48.8246 H   0  0  0  0  0  0  0  0  0  0  0  0
   56.1954   24.4401   47.4475 H   0  0  0  0  0  0  0  0  0  0  0  0
   57.8935   23.8543   47.4475 H   0  0  0  0  0  0  0  0  0  0  0  0
   56.7340   26.6630   46.3630 C   0  0  0  0  0  0  0  0  0  0  0  0
   55.5250   26.3000   46.3130 O   0  0  0  0  0  0  0  0  0  0  0  0
   58.5120   31.3870   46.0050 C   0  0  0  0  0  0  0  0  0  0  0  0
   58.3769   30.2959   45.9700 H   0  0  0  0  0  0  0  0  0  0  0  0
   58.9290   31.9980   47.1940 C   0  0  0  0  0  0  0  0  0  0  0  0
   59.2400   30.9940   48.6030 Cl  0  0  0  0  0  0  0  0  0  0  0  0
   59.0920   33.3930   47.2430 C   0  0  0  0  0  0  0  0  0  0  0  0
   59.6150   34.1990   48.7150 Cl  0  0  0  0  0  0  0  0  0  0  0  0
  1  2  1  0
  2  3  2  0
  3  4  1  0
  3  5  1  0
  5  6  1  0
  6  7  1  0
  6  8  1  0
  6  9  1  0
  9 10  1  0
  9 11  2  0
 11 12  1  0
 12 13  1  0
 12 14  1  0
 11 15  1  0
 15 16  1  0
 15 17  1  0
 17 18  2  0
 18 19  1  0
 18 20  1  0
 20 21  1  0
 20 22  2  0
 22 23  1  0
 22 24  1  0
 24 25  1  0
 25 26  1  0
 25 27  1  0
 25 28  1  0
 24 29  1  0
 29 30  2  0
  5 31  2  0
 31 32  1  0
 31 33  1  0
 33 34  1  0
 33 35  2  0
 35 36  1  0
 35  2  1  0
 29 17  1  0
M  CHG  1   9   1
M  END
>  <UniqueID>  (10) 
10

>  <SMILES>  (10) 
Cn1cccc(N/C(N)=[NH+]/Cc2ccc(Cl)c(Cl)c2)c1=O

>  <Energy>  (10) 
44.08997606905454

>  <Genealogy>  (10) 
Cn1cccc(NC(N)=[NH+]Cc2ccc(Cl)c(Cl)c2)c1=O (protonated)
Cn1cccc(N/C(N)=[NH+]/Cc2ccc(Cl)c(Cl)c2)c1=O (cis-trans isomerization)
Cn1cccc(N/C(N)=[NH+]/Cc2ccc(Cl)c(Cl)c2)c1=O (3D coordinates assigned)
Cn1cccc(N/C(N)=[NH+]/Cc2ccc(Cl)c(Cl)c2)c1=O (optimized conformer: 44.08997606905454 kcal/mol)

>  <smiles>  (10) 
Cn1cccc(NC(N)=NCc2ccc(Cl)c(Cl)c2)c1=O

>  <score_type>  (10) 
oracle

>  <origin>  (10) 
adg

>  <m_score__min__energy>  (10) 
-6.4800000000000004

>  <m_primary>  (10) 
energy

$$$$
10:0
     RDKit          3D

 47 49  0  0  0  0  0  0  0  0999 V2000
   57.7840   21.4900   47.5310 H   0  0  0  0  0  0  0  0  0  0  0  0
   57.7320   21.9690   46.6390 O   0  0  0  0  0  0  0  0  0  0  0  0
   57.0120   23.1520   46.4890 C   0  0  0  0  0  0  0  0  0  0  0  0
   55.6810   23.1000   46.0680 C   0  0  0  0  0  0  0  0  0  0  0  0
   55.2070   22.1281   45.8659 H   0  0  0  0  0  0  0  0  0  0  0  0
   54.9500   24.2800   45.9030 C   0  0  0  0  0  0  0  0  0  0  0  0
   53.9048   24.2338   45.5633 H   0  0  0  0  0  0  0  0  0  0  0  0
   55.5420   25.5190   46.1680 C   0  0  0  0  0  0  0  0  0  0  0  0
   54.7980   26.6810   45.9910 O   0  0  0  0  0  0  0  0  0  0  0  0
   56.8730   25.5820   46.6170 C   0  0  0  0  0  0  0  0  0  0  0  0
   57.5120   26.8980   46.8440 C   0  0  0  0  0  0  0  0  0  0  0  0
   56.8644   27.7865   46.8091 H   0  0  0  0  0  0  0  0  0  0  0  0
   58.8170   27.0960   47.0890 C   0  0  0  0  0  0  0  0  0  0  0  0
   59.1000   27.3679   48.1166 H   0  0  0  0  0  0  0  0  0  0  0  0
   59.9070   26.9800   46.0960 C   0  0  0  0  0  0  0  0  0  0  0  0
   60.7610   26.0580   46.1850 O   0  0  0  0  0  0  0  0  0  0  0  0
   59.9710   27.9630   44.9930 C   0  0  0  0  0  0  0  0  0  0  0  0
   60.9299   28.0611   44.4631 H   0  0  0  0  0  0  0  0  0  0  0  0
   58.9610   28.7460   44.5820 C   0  0  0  0  0  0  0  0  0  0  0  0
   58.3196   28.3609   43.7756 H   0  0  0  0  0  0  0  0  0  0  0  0
   58.6400   30.0830   45.1240 C   0  0  0  0  0  0  0  0  0  0  0  0
   58.1810   31.1160   44.2900 C   0  0  0  0  0  0  0  0  0  0  0  0
   58.0212   30.9232   43.2189 H   0  0  0  0  0  0  0  0  0  0  0  0
   57.9260   32.3870   44.8120 C   0  0  0  0  0  0  0  0  0  0  0  0
   57.5453   33.1831   44.1553 H   0  0  0  0  0  0  0  0  0  0  0  0
   58.1550   32.6520   46.1770 C   0  0  0  0  0  0  0  0  0  0  0  0
   57.9240   33.9110   46.7550 O   0  0  0  0  0  0  0  0  0  0  0  0
   58.8950   34.9510   46.8800 C   0  0  0  0  0  0  0  0  0  0  0  0
   59.0146   35.4512   45.9076 H   0  0  0  0  0  0  0  0  0  0  0  0
   58.5482   35.6672   47.6395 H   0  0  0  0  0  0  0  0  0  0  0  0
   60.2250   34.3930   47.3150 C   0  0  0  0  0  0  0  0  0  0  0  0
   60.5150   34.2520   48.6830 C   0  0  0  0  0  0  0  0  0  0  0  0
   59.7668   34.5436   49.4348 H   0  0  0  0  0  0  0  0  0  0  0  0
   61.7520   33.7420   49.0920 C   0  0  0  0  0  0  0  0  0  0  0  0
   61.9725   33.6289   50.1637 H   0  0  0  0  0  0  0  0  0  0  0  0
   62.7080   33.3760   48.1400 C   0  0  0  0  0  0  0  0  0  0  0  0
   63.6786   32.9709   48.4623 H   0  0  0  0  0  0  0  0  0  0  0  0
   62.4300   33.5250   46.7790 C   0  0  0  0  0  0  0  0  0  0  0  0
   63.1841   33.2395   46.0308 H   0  0  0  0  0  0  0  0  0  0  0  0
   61.1960   34.0360   46.3650 C   0  0  0  0  0  0  0  0  0  0  0  0
   60.9851   34.1587   45.2924 H   0  0  0  0  0  0  0  0  0  0  0  0
   58.6350   31.6260   46.9990 C   0  0  0  0  0  0  0  0  0  0  0  0
   58.8142   31.8219   48.0665 H   0  0  0  0  0  0  0  0  0  0  0  0
   58.8890   30.3540   46.4760 C   0  0  0  0  0  0  0  0  0  0  0  0
   59.2860   29.5628   47.1289 H   0  0  0  0  0  0  0  0  0  0  0  0
   57.6100   24.3910   46.7520 C   0  0  0  0  0  0  0  0  0  0  0  0
   58.6633   24.4333   47.0663 H   0  0  0  0  0  0  0  0  0  0  0  0
  1  2  1  0
  2  3  1  0
  3  4  2  0
  4  5  1  0
  4  6  1  0
  6  7  1  0
  6  8  2  0
  8  9  1  0
  8 10  1  0
 10 11  1  0
 11 12  1  0
 11 13  2  3
 13 14  1  0
 13 15  1  0
 15 16  2  0
 15 17  1  0
 17 18  1  0
 17 19  2  0
 19 20  1  0
 19 21  1  0
 21 22  2  0
 22 23  1  0
 22 24  1  0
 24 25  1  0
 24 26  2  0
 26 27  1  0
 27 28  1  0
 28 29  1  0
 28 30  1  0
 28 31  1  0
 31 32  2  0
 32 33  1  0
 32 34  1  0
 34 35  1  0
 34 36  2  0
 36 37  1  0
 36 38  1  0
 38 39  1  0
 38 40  2  0
 40 41  1  0
 26 42  1  0
 42 43  1  0
 42 44  2  0
 44 45  1  0
 10 46  2  0
 46 47  1  0
 46  3  1  0
 44 21  1  0
 40 31  1  0
M  CHG  1   9  -1
M  END
>  <UniqueID>  (11) 
11

>  <SMILES>  (11) 
O=C(C=Cc1cc(O)ccc1[O-])/C=C\c1ccc(OCc2ccccc2)cc1

>  <Energy>  (11) 
64.92190332266203

>  <Genealogy>  (11) 
O=C(C=Cc1ccc(OCc2ccccc2)cc1)C=Cc1cc(O)ccc1[O-] (protonated)
O=C(C=Cc1cc(O)ccc1[O-])/C=C\c1ccc(OCc2ccccc2)cc1 (cis-trans isomerization)
O=C(C=Cc1cc(O)ccc1[O-])/C=C\c1ccc(OCc2ccccc2)cc1 (3D coordinates assigned)
O=C(C=Cc1cc(O)ccc1[O-])/C=C\c1ccc(OCc2ccccc2)cc1 (optimized conformer: 64.92190332266203 kcal/mol)

>  <smiles>  (11) 
O=C(C=Cc1ccc(OCc2ccccc2)cc1)C=Cc1cc(O)ccc1O

>  <score_type>  (11) 
oracle

>  <origin>  (11) 
adg

>  <m_score__min__energy>  (11) 
-13.720000000000001

>  <m_primary>  (11) 
energy

$$$$
11:0
     RDKit          3D

 26 27  0  0  0  0  0  0  0  0999 V2000
   55.9100   31.4130   44.8090 O   0  0  0  0  0  0  0  0  0  0  0  0
   57.1460   31.2770   44.5920 C   0  0  0  0  0  0  0  0  0  0  0  0
   57.6280   30.0470   43.8660 C   0  0  0  0  0  0  0  0  0  0  0  0
   57.5710   28.8250   44.7580 C   0  0  0  0  0  0  0  0  0  0  0  0
   56.3400   28.3330   45.2290 C   0  0  0  0  0  0  0  0  0  0  0  0
   55.1500   28.9760   44.9030 O   0  0  0  0  0  0  0  0  0  0  0  0
   56.3030   27.2190   46.0070 N   0  0  0  0  0  0  0  0  0  0  0  0
   57.4460   26.5590   46.3370 C   0  0  0  0  0  0  0  0  0  0  0  0
   57.3890   25.2180   47.2730 S   0  0  0  0  0  0  0  0  0  0  0  0
   58.6440   27.0090   45.8860 N   0  0  0  0  0  0  0  0  0  0  0  0
   58.7340   28.1160   45.1070 C   0  0  0  0  0  0  0  0  0  0  0  0
   59.8660   28.4970   44.7090 O   0  0  0  0  0  0  0  0  0  0  0  0
   58.0930   32.2890   45.1180 C   0  0  0  0  0  0  0  0  0  0  0  0
   58.3010   33.4860   44.4080 C   0  0  0  0  0  0  0  0  0  0  0  0
   59.1740   34.4610   44.8980 C   0  0  0  0  0  0  0  0  0  0  0  0
   59.8490   34.2560   46.1010 C   0  0  0  0  0  0  0  0  0  0  0  0
   59.6540   33.0750   46.8180 C   0  0  0  0  0  0  0  0  0  0  0  0
   58.7820   32.0900   46.3380 C   0  0  0  0  0  0  0  0  0  0  0  0
   58.6300   30.6020   47.2690 Cl  0  0  0  0  0  0  0  0  0  0  0  0
   56.9911   29.8779   42.9853 H   0  0  0  0  0  0  0  0  0  0  0  0
   58.6734   30.2087   43.5645 H   0  0  0  0  0  0  0  0  0  0  0  0
   55.3790   26.8690   46.3510 H   0  0  0  0  0  0  0  0  0  0  0  0
   57.7717   33.6557   43.4588 H   0  0  0  0  0  0  0  0  0  0  0  0
   59.3291   35.3923   44.3335 H   0  0  0  0  0  0  0  0  0  0  0  0
   60.5352   35.0254   46.4847 H   0  0  0  0  0  0  0  0  0  0  0  0
   60.1886   32.9167   47.7662 H   0  0  0  0  0  0  0  0  0  0  0  0
  1  2  2  0
  2  3  1  0
  3  4  1  0
  4  5  2  0
  5  6  1  0
  5  7  1  0
  7  8  1  0
  8  9  2  0
  8 10  1  0
 10 11  1  0
 11 12  2  0
  2 13  1  0
 13 14  2  0
 14 15  1  0
 15 16  2  0
 16 17  1  0
 17 18  2  0
 18 19  1  0
 11  4  1  0
 18 13  1  0
  3 20  1  0
  3 21  1  0
  7 22  1  0
 14 23  1  0
 15 24  1  0
 16 25  1  0
 17 26  1  0
M  CHG  2   6  -1  10  -1
M  END
>  <UniqueID>  (12) 
12

>  <SMILES>  (12) 
O=C(Cc1c([O-])[nH]c(=S)[n-]c1=O)c1ccccc1Cl

>  <Energy>  (12) 
34.68258235574835

>  <Genealogy>  (12) 
O=C(Cc1c([O-])[nH]c(=S)[n-]c1=O)c1ccccc1Cl (protonated)
O=C(Cc1c([O-])[nH]c(=S)[n-]c1=O)c1ccccc1Cl (3D coordinates assigned)
O=C(Cc1c([O-])[nH]c(=S)[n-]c1=O)c1ccccc1Cl (optimized conformer: 34.68258235574835 kcal/mol)

>  <smiles>  (12) 
O=C(Cc1c(O)[nH]c(=S)[nH]c1=O)c1ccccc1Cl

>  <score_type>  (12) 
oracle

>  <origin>  (12) 
adg

>  <m_score__min__energy>  (12) 
-12.93

>  <m_primary>  (12) 
energy

$$$$
12:0
     RDKit          3D

 49 51  0  0  1  0  0  0  0  0999 V2000
   59.6600   33.8190   50.3850 C   0  0  0  0  0  0  0  0  0  0  0  0
   60.0170   32.6490   49.4880 C   0  0  0  0  0  0  0  0  0  0  0  0
   61.3120   32.9110   48.8180 C   0  0  0  0  0  0  0  0  0  0  0  0
   62.1170   33.9730   49.1820 C   0  0  0  0  0  0  0  0  0  0  0  0
   63.3240   34.1350   48.4940 C   0  0  0  0  0  0  0  0  0  0  0  0
   63.6860   33.2620   47.4920 C   0  0  0  0  0  0  0  0  0  0  0  0
   62.8850   32.2030   47.1290 C   0  0  0  0  0  0  0  0  0  0  0  0
   61.6970   32.0550   47.8150 C   0  0  0  0  0  0  0  0  0  0  0  0
   60.8490   30.9500   47.4360 N   0  0  0  0  0  0  0  0  0  0  0  0
   60.7600   29.7500   48.1850 C   0  0  0  0  0  0  0  0  0  0  0  0
   61.5040   29.7290   49.2370 O   0  0  0  0  0  0  0  0  0  0  0  0
   59.9510   28.6410   47.8630 N   0  0  0  0  0  0  0  0  0  0  0  0
   60.0640   27.4720   48.7460 C   0  0  0  0  0  0  0  0  0  0  0  0
   59.0560   28.5360   46.7830 C   0  0  0  0  0  0  0  0  0  0  0  0
   58.3530   29.6640   46.3220 C   0  0  0  0  0  0  0  0  0  0  0  0
   57.4770   29.5300   45.2760 C   0  0  0  0  0  0  0  0  0  0  0  0
   56.8340   30.5560   44.8580 N   0  0  0  0  0  0  0  0  0  0  0  0
   57.3750   31.6590   44.1650 C   0  0  0  0  0  0  0  0  0  0  0  0
   57.3900   31.7960   42.9200 O   0  0  0  0  0  0  0  0  0  0  0  0
   57.9710   32.7270   44.9920 C   0  0  0  0  0  0  0  0  0  0  0  0
   57.6790   32.8470   46.3430 C   0  0  0  0  0  0  0  0  0  0  0  0
   58.2290   33.8420   47.1220 C   0  0  0  0  0  0  0  0  0  0  0  0
   59.0950   34.7490   46.5530 C   0  0  0  0  0  0  0  0  0  0  0  0
   59.4100   34.6650   45.2190 C   0  0  0  0  0  0  0  0  0  0  0  0
   58.8420   33.6580   44.4730 C   0  0  0  0  0  0  0  0  0  0  0  0
   57.2500   28.3610   44.6570 N   0  0  0  0  0  0  0  0  0  0  0  0
   57.9300   27.2910   45.1090 C   0  0  0  0  0  0  0  0  0  0  0  0
   58.7890   27.4020   46.1290 N   0  0  0  0  0  0  0  0  0  0  0  0
   59.7527   33.5152   51.4382 H   0  0  0  0  0  0  0  0  0  0  0  0
   60.3433   34.6572   50.1837 H   0  0  0  0  0  0  0  0  0  0  0  0
   58.6252   34.1330   50.1837 H   0  0  0  0  0  0  0  0  0  0  0  0
   60.0972   31.7346   50.0942 H   0  0  0  0  0  0  0  0  0  0  0  0
   59.2327   32.5202   48.7275 H   0  0  0  0  0  0  0  0  0  0  0  0
   61.8198   34.6656   49.9832 H   0  0  0  0  0  0  0  0  0  0  0  0
   63.9916   34.9690   48.7561 H   0  0  0  0  0  0  0  0  0  0  0  0
   64.6408   33.4152   46.9678 H   0  0  0  0  0  0  0  0  0  0  0  0
   63.1784   31.5071   46.3292 H   0  0  0  0  0  0  0  0  0  0  0  0
   60.3020   31.0870   46.5760 H   0  0  0  0  0  0  0  0  0  0  0  0
   60.0322   27.8006   49.7953 H   0  0  0  0  0  0  0  0  0  0  0  0
   59.2282   26.7837   48.5519 H   0  0  0  0  0  0  0  0  0  0  0  0
   61.0162   26.9565   48.5519 H   0  0  0  0  0  0  0  0  0  0  0  0
   58.5048   30.6447   46.7965 H   0  0  0  0  0  0  0  0  0  0  0  0
   56.9883   32.1269   46.8059 H   0  0  0  0  0  0  0  0  0  0  0  0
   57.9780   33.9112   48.1907 H   0  0  0  0  0  0  0  0  0  0  0  0
   59.5368   35.5450   47.1704 H   0  0  0  0  0  0  0  0  0  0  0  0
   60.1005   35.3862   44.7575 H   0  0  0  0  0  0  0  0  0  0  0  0
   59.0975   33.5935   43.4050 H   0  0  0  0  0  0  0  0  0  0  0  0
   56.5850   28.3080   43.8770 H   0  0  0  0  0  0  0  0  0  0  0  0
   57.7774   26.3111   44.6330 H   0  0  0  0  0  0  0  0  0  0  0  0
  1  2  1  0
  2  3  1  0
  3  4  2  0
  4  5  1  0
  5  6  2  0
  6  7  1  0
  7  8  2  0
  8  9  1  0
  9 10  1  0
 10 11  2  0
 10 12  1  0
 12 13  1  0
 12 14  1  0
 14 15  2  0
 15 16  1  0
 16 17  2  0
 17 18  1  0
 18 19  2  0
 18 20  1  0
 20 21  2  0
 21 22  1  0
 22 23  2  0
 23 24  1  0
 24 25  2  0
 16 26  1  0
 26 27  1  0
 27 28  2  0
  8  3  1  0
 28 14  1  0
 25 20  1  0
  1 29  1  0
  1 30  1  0
  1 31  1  0
  2 32  1  0
  2 33  1  0
  4 34  1  0
  5 35  1  0
  6 36  1  0
  7 37  1  0
  9 38  1  0
 13 39  1  0
 13 40  1  0
 13 41  1  0
 15 42  1  0
 21 43  1  0
 22 44  1  0
 23 45  1  0
 24 46  1  0
 25 47  1  0
 26 48  1  0
 27 49  1  0
M  END
>  <smiles>  (13) 
CCc1ccccc1NC(=O)N(C)c1cc(=NC(=O)c2ccccc2)[nH]cn1

>  <score_type>  (13) 
oracle

>  <origin>  (13) 
adg

>  <m_score__min__energy>  (13) 
-9.2400000000000002

>  <m_primary>  (13) 
energy

$$$$
13:0
     RDKit          3D

 54 58  0  0  0  0  0  0  0  0999 V2000
   58.1130   33.7730   48.5164 H   0  0  0  0  0  0  0  0  0  0  0  0
   58.4290   33.7510   47.4630 C   0  0  0  0  0  0  0  0  0  0  0  0
   57.4060   33.8030   46.1250 S   0  0  0  0  0  0  0  0  0  0  0  0
   58.6710   33.7330   45.0290 C   0  0  0  0  0  0  0  0  0  0  0  0
   58.5160   33.7440   43.7370 N   0  0  0  0  0  0  0  0  0  0  0  0
   58.1400   32.6190   42.9220 C   0  0  0  0  0  0  0  0  0  0  0  0
   58.2200   32.7290   41.6690 O   0  0  0  0  0  0  0  0  0  0  0  0
   57.6760   31.3370   43.5000 C   0  0  0  0  0  0  0  0  0  0  0  0
   58.4370   30.6770   44.4790 C   0  0  0  0  0  0  0  0  0  0  0  0
   59.4196   31.0771   44.7695 H   0  0  0  0  0  0  0  0  0  0  0  0
   57.9530   29.5150   45.0860 C   0  0  0  0  0  0  0  0  0  0  0  0
   58.5516   29.0106   45.8588 H   0  0  0  0  0  0  0  0  0  0  0  0
   56.7040   28.9880   44.7130 C   0  0  0  0  0  0  0  0  0  0  0  0
   56.1790   27.8030   45.3340 N   0  0  0  0  0  0  0  0  0  0  0  0
   55.1450   27.6520   45.3000 H   0  0  0  0  0  0  0  0  0  0  0  0
   56.9690   26.9130   46.1390 C   0  0  0  0  0  0  0  0  0  0  0  0
   58.1320   27.2420   46.5020 O   0  0  0  0  0  0  0  0  0  0  0  0
   56.4150   25.6260   46.5820 C   0  0  0  0  0  0  0  0  0  0  0  0
   55.1470   25.2360   46.3480 N   0  0  0  0  0  0  0  0  0  0  0  0
   55.0120   24.0380   46.8900 N   0  0  0  0  0  0  0  0  0  0  0  0
   56.2010   23.7410   47.4370 C   0  0  0  0  0  0  0  0  0  0  0  0
   56.4300   22.6650   48.0460 O   0  0  0  0  0  0  0  0  0  0  0  0
   57.1220   24.7070   47.2710 N   0  0  0  0  0  0  0  0  0  0  0  0
   55.9780   29.6100   43.6870 C   0  0  0  0  0  0  0  0  0  0  0  0
   55.0246   29.1754   43.3522 H   0  0  0  0  0  0  0  0  0  0  0  0
   56.4570   30.7790   43.0860 C   0  0  0  0  0  0  0  0  0  0  0  0
   55.8762   31.2622   42.2865 H   0  0  0  0  0  0  0  0  0  0  0  0
   59.8660   33.6500   45.6500 N   0  0  0  0  0  0  0  0  0  0  0  0
   59.7500   33.6750   47.0050 C   0  0  0  0  0  0  0  0  0  0  0  0
   60.9580   33.6600   47.8710 C   0  0  0  0  0  0  0  0  0  0  0  0
   62.2340   33.7880   47.2880 C   0  0  0  0  0  0  0  0  0  0  0  0
   62.3266   33.8834   46.1961 H   0  0  0  0  0  0  0  0  0  0  0  0
   63.3820   33.7950   48.0820 C   0  0  0  0  0  0  0  0  0  0  0  0
   64.3730   33.8828   47.6127 H   0  0  0  0  0  0  0  0  0  0  0  0
   63.2760   33.6910   49.4690 C   0  0  0  0  0  0  0  0  0  0  0  0
   64.1846   33.6866   50.0890 H   0  0  0  0  0  0  0  0  0  0  0  0
   62.0160   33.5920   50.0760 C   0  0  0  0  0  0  0  0  0  0  0  0
   61.9130   33.4930   51.5450 C   0  0  0  0  0  0  0  0  0  0  0  0
   62.9690   33.5300   52.2310 O   0  0  0  0  0  0  0  0  0  0  0  0
   60.6370   33.3790   52.2060 N   0  0  0  0  0  0  0  0  0  0  0  0
   60.5130   33.0160   53.6080 C   0  0  0  0  0  0  0  0  0  0  0  0
   60.6871   31.9381   53.7413 H   0  0  0  0  0  0  0  0  0  0  0  0
   61.2520   33.5431   54.2293 H   0  0  0  0  0  0  0  0  0  0  0  0
   59.0880   33.3760   54.0060 C   0  0  0  0  0  0  0  0  0  0  0  0
   58.6358   32.5590   54.5874 H   0  0  0  0  0  0  0  0  0  0  0  0
   59.0616   34.2781   54.6350 H   0  0  0  0  0  0  0  0  0  0  0  0
   58.3250   33.5830   52.7010 C   0  0  0  0  0  0  0  0  0  0  0  0
   57.7444   32.6829   52.4506 H   0  0  0  0  0  0  0  0  0  0  0  0
   57.6135   34.4184   52.7778 H   0  0  0  0  0  0  0  0  0  0  0  0
   59.3810   33.8450   51.6360 C   0  0  0  0  0  0  0  0  0  0  0  0
   59.1462   33.2875   50.7173 H   0  0  0  0  0  0  0  0  0  0  0  0
   59.4283   34.9096   51.3634 H   0  0  0  0  0  0  0  0  0  0  0  0
   60.8640   33.5530   49.2740 C   0  0  0  0  0  0  0  0  0  0  0  0
   59.8769   33.4377   49.7455 H   0  0  0  0  0  0  0  0  0  0  0  0
  1  2  1  0
  2  3  1  0
  3  4  1  0
  4  5  2  0
  5  6  1  0
  6  7  2  0
  6  8  1  0
  8  9  2  0
  9 10  1  0
  9 11  1  0
 11 12  1  0
 11 13  2  0
 13 14  1  0
 14 15  1  0
 14 16  1  0
 16 17  2  0
 16 18  1  0
 18 19  2  0
 19 20  1  0
 20 21  1  0
 21 22  2  0
 21 23  1  0
 13 24  1  0
 24 25  1  0
 24 26  2  0
 26 27  1  0
  4 28  1  0
 28 29  1  0
 29 30  1  0
 30 31  2  0
 31 32  1  0
 31 33  1  0
 33 34  1  0
 33 35  2  0
 35 36  1  0
 35 37  1  0
 37 38  1  0
 38 39  2  0
 38 40  1  0
 40 41  1  0
 41 42  1  0
 41 43  1  0
 41 44  1  0
 44 45  1  0
 44 46  1  0
 44 47  1  0
 47 48  1  0
 47 49  1  0
 47 50  1  0
 50 51  1  0
 50 52  1  0
 37 53  2  0
 53 54  1  0
 29  2  2  0
 53 30  1  0
 26  8  1  0
 50 40  1  0
 23 18  1  0
M  CHG  3  20  -1  23  -1  28  -1
M  END
>  <UniqueID>  (14) 
13

>  <SMILES>  (14) 
O=C(/N=c1\[n-]c(-c2cccc(C(=O)N3CCCC3)c2)cs1)c1ccc(NC(=O)c2n[n-]c(=O)[n-]2)cc1

>  <Energy>  (14) 
136.95654079159826

>  <Genealogy>  (14) 
O=C(N=c1[n-]c(-c2cccc(C(=O)N3CCCC3)c2)cs1)c1ccc(NC(=O)c2n[n-]c(=O)[n-]2)cc1 (protonated)
O=C(/N=c1\[n-]c(-c2cccc(C(=O)N3CCCC3)c2)cs1)c1ccc(NC(=O)c2n[n-]c(=O)[n-]2)cc1 (cis-trans isomerization)
O=C(/N=c1\[n-]c(-c2cccc(C(=O)N3CCCC3)c2)cs1)c1ccc(NC(=O)c2n[n-]c(=O)[n-]2)cc1 (3D coordinates assigned)
O=C(/N=c1\[n-]c(-c2cccc(C(=O)N3CCCC3)c2)cs1)c1ccc(NC(=O)c2n[n-]c(=O)[n-]2)cc1 (nonaromatic ring conformer: 136.95654079159826 kcal/mol)

>  <smiles>  (14) 
O=C(N=c1[nH]c(-c2cccc(C(=O)N3CCCC3)c2)cs1)c1ccc(NC(=O)c2n[nH]c(=O)[nH]2)cc1

>  <score_type>  (14) 
oracle

>  <origin>  (14) 
adg

>  <m_score__min__energy>  (14) 
-15.26

>  <m_primary>  (14) 
energy

$$$$
14:0
     RDKit          3D

 27 28  0  0  0  0  0  0  0  0999 V2000
   55.5200   29.8940   44.8710 N   0  0  0  0  0  0  0  0  0  0  0  0
   57.1050   30.0190   44.1900 S   0  0  0  0  0  0  0  0  0  0  0  0
   57.3850   28.7760   43.3920 O   0  0  0  0  0  0  0  0  0  0  0  0
   57.1570   31.2180   43.2860 O   0  0  0  0  0  0  0  0  0  0  0  0
   58.3190   30.1920   45.4600 C   0  0  0  0  0  0  0  0  0  0  0  0
   58.5250   31.4400   46.0700 C   0  0  0  0  0  0  0  0  0  0  0  0
   59.4860   31.5840   47.0730 C   0  0  0  0  0  0  0  0  0  0  0  0
   60.2560   30.4900   47.4670 C   0  0  0  0  0  0  0  0  0  0  0  0
   60.0650   29.2460   46.8620 C   0  0  0  0  0  0  0  0  0  0  0  0
   59.0880   29.0830   45.8630 C   0  0  0  0  0  0  0  0  0  0  0  0
   58.9000   27.8470   45.2250 O   0  0  0  0  0  0  0  0  0  0  0  0
   58.0290   26.8330   45.6520 C   0  0  0  0  0  0  0  0  0  0  0  0
   58.5040   25.6110   46.1630 C   0  0  0  0  0  0  0  0  0  0  0  0
   57.6010   24.6330   46.5960 C   0  0  0  0  0  0  0  0  0  0  0  0
   58.0740   23.4250   47.0940 O   0  0  0  0  0  0  0  0  0  0  0  0
   56.2250   24.8710   46.5300 C   0  0  0  0  0  0  0  0  0  0  0  0
   55.7500   26.0920   46.0410 C   0  0  0  0  0  0  0  0  0  0  0  0
   54.3830   26.3330   45.9860 O   0  0  0  0  0  0  0  0  0  0  0  0
   56.6500   27.0720   45.6100 C   0  0  0  0  0  0  0  0  0  0  0  0
   55.4680   28.9710   45.3580 H   0  0  0  0  0  0  0  0  0  0  0  0
   57.9267   32.3081   45.7563 H   0  0  0  0  0  0  0  0  0  0  0  0
   59.6359   32.5622   47.5532 H   0  0  0  0  0  0  0  0  0  0  0  0
   61.0145   30.6071   48.2550 H   0  0  0  0  0  0  0  0  0  0  0  0
   60.6821   28.3885   47.1684 H   0  0  0  0  0  0  0  0  0  0  0  0
   59.5864   25.4240   46.2223 H   0  0  0  0  0  0  0  0  0  0  0  0
   55.5163   24.0982   46.8625 H   0  0  0  0  0  0  0  0  0  0  0  0
   56.2726   28.0353   45.2362 H   0  0  0  0  0  0  0  0  0  0  0  0
  1  2  1  0
  2  3  2  0
  2  4  2  0
  2  5  1  0
  5  6  2  0
  6  7  1  0
  7  8  2  0
  8  9  1  0
  9 10  2  0
 10 11  1  0
 11 12  1  0
 12 13  2  0
 13 14  1  0
 14 15  1  0
 14 16  2  0
 16 17  1  0
 17 18  1  0
 17 19  2  0
 10  5  1  0
 19 12  1  0
  1 20  1  0
  6 21  1  0
  7 22  1  0
  8 23  1  0
  9 24  1  0
 13 25  1  0
 16 26  1  0
 19 27  1  0
M  CHG  3   1  -1  15  -1  18  -1
M  END
>  <UniqueID>  (15) 
14

>  <SMILES>  (15) 
[NH-]S(=O)(=O)c1ccccc1Oc1cc([O-])cc([O-])c1

>  <Energy>  (15) 
34.753357061626765

>  <Genealogy>  (15) 
[NH-]S(=O)(=O)c1ccccc1Oc1cc([O-])cc([O-])c1 (protonated)
[NH-]S(=O)(=O)c1ccccc1Oc1cc([O-])cc([O-])c1 (3D coordinates assigned)
[NH-]S(=O)(=O)c1ccccc1Oc1cc([O-])cc([O-])c1 (optimized conformer: 34.753357061626765 kcal/mol)

>  <smiles>  (15) 
NS(=O)(=O)c1ccccc1Oc1cc(O)cc(O)c1

>  <score_type>  (15) 
oracle

>  <origin>  (15) 
adg

>  <m_score__min__energy>  (15) 
-14.470000000000001

>  <m_primary>  (15) 
energy

$$$$
15:0
     RDKit          3D

 39 41  0  0  0  0  0  0  0  0999 V2000
   57.8610   27.3650   43.9510 C   0  0  0  0  0  0  0  0  0  0  0  0
   57.0200   27.8270   45.4350 S   0  0  0  0  0  0  0  0  0  0  0  0
   58.0070   27.7390   46.5710 O   0  0  0  0  0  0  0  0  0  0  0  0
   55.8720   26.8820   45.6760 O   0  0  0  0  0  0  0  0  0  0  0  0
   56.3440   29.4270   45.3410 N   0  0  0  0  0  0  0  0  0  0  0  0
   56.8440   30.3590   44.3940 C   0  0  0  0  0  0  0  0  0  0  0  0
   56.5400   30.3080   43.0450 C   0  0  0  0  0  0  0  0  0  0  0  0
   57.0080   31.2210   42.1290 C   0  0  0  0  0  0  0  0  0  0  0  0
   57.8240   32.2550   42.5310 C   0  0  0  0  0  0  0  0  0  0  0  0
   58.1390   32.3250   43.8660 C   0  0  0  0  0  0  0  0  0  0  0  0
   57.6620   31.3950   44.7970 C   0  0  0  0  0  0  0  0  0  0  0  0
   58.1030   31.5890   46.1680 C   0  0  0  0  0  0  0  0  0  0  0  0
   57.8620   32.7960   46.8210 C   0  0  0  0  0  0  0  0  0  0  0  0
   58.2730   33.0290   48.1160 C   0  0  0  0  0  0  0  0  0  0  0  0
   58.9390   32.0660   48.8080 C   0  0  0  0  0  0  0  0  0  0  0  0
   59.3960   32.2950   50.2140 C   0  0  0  0  0  0  0  0  0  0  0  0
   58.4500   31.6560   51.1730 C   0  0  0  0  0  0  0  0  0  0  0  0
   57.7320   30.5110   51.0020 N   0  0  0  0  0  0  0  0  0  0  0  0
   57.0290   30.3520   52.1470 C   0  0  0  0  0  0  0  0  0  0  0  0
   56.2270   29.3860   52.3820 O   0  0  0  0  0  0  0  0  0  0  0  0
   57.3030   31.3480   52.9720 O   0  0  0  0  0  0  0  0  0  0  0  0
   58.1600   32.1520   52.4110 N   0  0  0  0  0  0  0  0  0  0  0  0
   59.2050   30.8390   48.1980 C   0  0  0  0  0  0  0  0  0  0  0  0
   58.7800   30.6350   46.8980 C   0  0  0  0  0  0  0  0  0  0  0  0
   58.7988   26.8498   44.2062 H   0  0  0  0  0  0  0  0  0  0  0  0
   57.2214   26.6916   43.3615 H   0  0  0  0  0  0  0  0  0  0  0  0
   58.0863   28.2660   43.3615 H   0  0  0  0  0  0  0  0  0  0  0  0
   55.5740   29.7120   45.9620 H   0  0  0  0  0  0  0  0  0  0  0  0
   55.8907   29.4955   42.6868 H   0  0  0  0  0  0  0  0  0  0  0  0
   56.7290   31.1248   41.0693 H   0  0  0  0  0  0  0  0  0  0  0  0
   58.2077   32.9943   41.8125 H   0  0  0  0  0  0  0  0  0  0  0  0
   58.7890   33.1406   44.2158 H   0  0  0  0  0  0  0  0  0  0  0  0
   57.3245   33.5914   46.2839 H   0  0  0  0  0  0  0  0  0  0  0  0
   58.0614   33.9980   48.5918 H   0  0  0  0  0  0  0  0  0  0  0  0
   60.3973   31.8591   50.3462 H   0  0  0  0  0  0  0  0  0  0  0  0
   59.4289   33.3770   50.4092 H   0  0  0  0  0  0  0  0  0  0  0  0
   58.5530   33.0290   52.8460 H   0  0  0  0  0  0  0  0  0  0  0  0
   59.7431   30.0485   48.7417 H   0  0  0  0  0  0  0  0  0  0  0  0
   58.9921   29.6655   46.4236 H   0  0  0  0  0  0  0  0  0  0  0  0
  1  2  1  0
  2  3  2  0
  2  4  2  0
  2  5  1  0
  5  6  1  0
  6  7  2  0
  7  8  1  0
  8  9  2  0
  9 10  1  0
 10 11  2  0
 11 12  1  0
 12 13  2  0
 13 14  1  0
 14 15  2  0
 15 16  1  0
 16 17  1  0
 17 18  2  0
 18 19  1  0
 19 20  2  0
 19 21  1  0
 21 22  1  0
 15 23  1  0
 23 24  2  0
 11  6  1  0
 24 12  1  0
 22 17  1  0
  1 25  1  0
  1 26  1  0
  1 27  1  0
  5 28  1  0
  7 29  1  0
  8 30  1  0
  9 31  1  0
 10 32  1  0
 13 33  1  0
 14 34  1  0
 16 35  1  0
 16 36  1  0
 22 37  1  0
 23 38  1  0
 24 39  1  0
M  END
>  <smiles>  (16) 
CS(=O)(=O)Nc1ccccc1-c1ccc(Cc2nc(=O)o[nH]2)cc1

>  <score_type>  (16) 
oracle

>  <origin>  (16) 
adg

>  <m_score__min__energy>  (16) 
-8.3699999999999992

>  <m_primary>  (16) 
energy

$$$$
16:0
     RDKit          3D

 54 57  0  0  0  0  0  0  0  0999 V2000
   62.0260   33.8410   47.3500 C   0  0  0  0  0  0  0  0  0  0  0  0
   60.5470   33.6290   47.1700 C   0  0  0  0  0  0  0  0  0  0  0  0
   59.9940   33.7930   45.8870 C   0  0  0  0  0  0  0  0  0  0  0  0
   58.6280   33.6070   45.6710 C   0  0  0  0  0  0  0  0  0  0  0  0
   57.7950   33.2590   46.7330 C   0  0  0  0  0  0  0  0  0  0  0  0
   58.3220   33.1070   48.0160 C   0  0  0  0  0  0  0  0  0  0  0  0
   59.6940   33.3060   48.2580 C   0  0  0  0  0  0  0  0  0  0  0  0
   60.2120   33.1510   49.6750 C   0  0  0  0  0  0  0  0  0  0  0  0
   59.8120   31.8610   50.2600 N   0  0  0  0  0  0  0  0  0  0  0  0
   60.5220   30.6970   50.2320 C   0  0  0  0  0  0  0  0  0  0  0  0
   61.8580   30.5310   49.5670 C   0  0  0  0  0  0  0  0  0  0  0  0
   59.8220   29.6820   50.8840 C   0  0  0  0  0  0  0  0  0  0  0  0
   60.2700   28.2680   51.1020 C   0  0  0  0  0  0  0  0  0  0  0  0
   58.6800   30.2790   51.3810 C   0  0  0  0  0  0  0  0  0  0  0  0
   57.6400   29.7510   52.1480 C   0  0  0  0  0  0  0  0  0  0  0  0
   56.5910   30.6120   52.5350 C   0  0  0  0  0  0  0  0  0  0  0  0
   55.4590   30.1060   53.3350 C   0  0  0  0  0  0  0  0  0  0  0  0
   55.3600   30.4550   54.5410 O   0  0  0  0  0  0  0  0  0  0  0  0
   54.4930   29.1930   52.8010 N   0  0  0  0  0  0  0  0  0  0  0  0
   53.0630   29.2330   53.0810 C   0  0  0  0  0  0  0  0  0  0  0  0
   52.3880   30.1330   52.0870 C   0  0  0  0  0  0  0  0  0  0  0  0
   52.3770   29.8020   50.7230 C   0  0  0  0  0  0  0  0  0  0  0  0
   51.7750   30.6580   49.7960 C   0  0  0  0  0  0  0  0  0  0  0  0
   51.1910   31.8550   50.2200 C   0  0  0  0  0  0  0  0  0  0  0  0
   50.5950   32.7010   49.2930 O   0  0  0  0  0  0  0  0  0  0  0  0
   51.2130   32.2010   51.5770 C   0  0  0  0  0  0  0  0  0  0  0  0
   50.6390   33.3920   52.0050 O   0  0  0  0  0  0  0  0  0  0  0  0
   51.8150   31.3450   52.5070 C   0  0  0  0  0  0  0  0  0  0  0  0
   56.6030   31.9630   52.1140 C   0  0  0  0  0  0  0  0  0  0  0  0
   57.6650   32.4680   51.3450 C   0  0  0  0  0  0  0  0  0  0  0  0
   58.7010   31.5950   50.9890 C   0  0  0  0  0  0  0  0  0  0  0  0
   62.2636   33.8751   48.4235 H   0  0  0  0  0  0  0  0  0  0  0  0
   62.5752   33.0124   46.8790 H   0  0  0  0  0  0  0  0  0  0  0  0
   62.3203   34.7905   46.8790 H   0  0  0  0  0  0  0  0  0  0  0  0
   60.6452   34.0708   45.0451 H   0  0  0  0  0  0  0  0  0  0  0  0
   58.2084   33.7351   44.6623 H   0  0  0  0  0  0  0  0  0  0  0  0
   56.7199   33.1039   46.5593 H   0  0  0  0  0  0  0  0  0  0  0  0
   57.6578   32.8286   48.8474 H   0  0  0  0  0  0  0  0  0  0  0  0
   61.3102   33.2120   49.6623 H   0  0  0  0  0  0  0  0  0  0  0  0
   59.7810   33.9556   50.2889 H   0  0  0  0  0  0  0  0  0  0  0  0
   62.6400   30.4338   50.3345 H   0  0  0  0  0  0  0  0  0  0  0  0
   61.8456   29.6275   48.9397 H   0  0  0  0  0  0  0  0  0  0  0  0
   62.0671   31.4101   48.9397 H   0  0  0  0  0  0  0  0  0  0  0  0
   60.3340   28.0659   52.1814 H   0  0  0  0  0  0  0  0  0  0  0  0
   59.5461   27.5790   50.6423 H   0  0  0  0  0  0  0  0  0  0  0  0
   61.2585   28.1216   50.6423 H   0  0  0  0  0  0  0  0  0  0  0  0
   57.6382   28.6913   52.4431 H   0  0  0  0  0  0  0  0  0  0  0  0
   52.6445   28.2188   53.0019 H   0  0  0  0  0  0  0  0  0  0  0  0
   52.8972   29.6174   54.0982 H   0  0  0  0  0  0  0  0  0  0  0  0
   52.8436   28.8659   50.3823 H   0  0  0  0  0  0  0  0  0  0  0  0
   51.7609   30.3886   48.7296 H   0  0  0  0  0  0  0  0  0  0  0  0
   51.8394   31.6226   53.5711 H   0  0  0  0  0  0  0  0  0  0  0  0
   55.7706   32.6260   52.3922 H   0  0  0  0  0  0  0  0  0  0  0  0
   57.6824   33.5220   51.0306 H   0  0  0  0  0  0  0  0  0  0  0  0
  1  2  1  0
  2  3  2  0
  3  4  1  0
  4  5  2  0
  5  6  1  0
  6  7  2  0
  7  8  1  0
  8  9  1  0
  9 10  1  0
 10 11  1  0
 10 12  2  0
 12 13  1  0
 12 14  1  0
 14 15  2  0
 15 16  1  0
 16 17  1  0
 17 18  2  0
 17 19  1  0
 19 20  1  0
 20 21  1  0
 21 22  2  0
 22 23  1  0
 23 24  2  0
 24 25  1  0
 24 26  1  0
 26 27  1  0
 26 28  2  0
 16 29  2  0
 29 30  1  0
 30 31  2  0
  7  2  1  0
 31  9  1  0
 31 14  1  0
 28 21  1  0
  1 32  1  0
  1 33  1  0
  1 34  1  0
  3 35  1  0
  4 36  1  0
  5 37  1  0
  6 38  1  0
  8 39  1  0
  8 40  1  0
 11 41  1  0
 11 42  1  0
 11 43  1  0
 13 44  1  0
 13 45  1  0
 13 46  1  0
 15 47  1  0
 20 48  1  0
 20 49  1  0
 22 50  1  0
 23 51  1  0
 28 52  1  0
 29 53  1  0
 30 54  1  0
M  CHG  3  19  -1  25  -1  27  -1
M  END
>  <UniqueID>  (17) 
15

>  <SMILES>  (17) 
Cc1ccccc1Cn1c(C)c(C)c2cc(C(=O)[N-]Cc3ccc([O-])c([O-])c3)ccc21

>  <Energy>  (17) 
95.06775085271511

>  <Genealogy>  (17) 
Cc1ccccc1Cn1c(C)c(C)c2cc(C(=O)[N-]Cc3ccc([O-])c([O-])c3)ccc21 (protonated)
Cc1ccccc1Cn1c(C)c(C)c2cc(C(=O)[N-]Cc3ccc([O-])c([O-])c3)ccc21 (3D coordinates assigned)
Cc1ccccc1Cn1c(C)c(C)c2cc(C(=O)[N-]Cc3ccc([O-])c([O-])c3)ccc21 (optimized conformer: 95.06775085271511 kcal/mol)

>  <smiles>  (17) 
Cc1ccccc1Cn1c(C)c(C)c2cc(C(=O)NCc3ccc(O)c(O)c3)ccc21

>  <score_type>  (17) 
oracle

>  <origin>  (17) 
adg

>  <m_score__min__energy>  (17) 
-19.329999999999998

>  <m_primary>  (17) 
energy

$$$$
17:0
     RDKit          3D

 47 49  0  0  0  0  0  0  0  0999 V2000
   55.5290   21.9660   48.5730 C   0  0  0  0  0  0  0  0  0  0  0  0
   55.9300   23.2060   47.8280 C   0  0  0  0  0  0  0  0  0  0  0  0
   57.0850   23.9080   48.2030 C   0  0  0  0  0  0  0  0  0  0  0  0
   57.4850   25.0430   47.4890 C   0  0  0  0  0  0  0  0  0  0  0  0
   56.7350   25.4940   46.3880 C   0  0  0  0  0  0  0  0  0  0  0  0
   57.1280   26.6470   45.6230 N   0  0  0  0  0  0  0  0  0  0  0  0
   58.1640   27.9080   46.2240 S   0  0  0  0  0  0  0  0  0  0  0  0
   58.0470   27.9210   47.7240 O   0  0  0  0  0  0  0  0  0  0  0  0
   59.5990   27.6340   45.8670 O   0  0  0  0  0  0  0  0  0  0  0  0
   57.6860   29.4900   45.5930 C   0  0  0  0  0  0  0  0  0  0  0  0
   58.5890   30.5610   45.6980 C   0  0  0  0  0  0  0  0  0  0  0  0
   58.2610   31.8320   45.1980 C   0  0  0  0  0  0  0  0  0  0  0  0
   59.2160   32.9560   45.3380 C   0  0  0  0  0  0  0  0  0  0  0  0
   59.3180   33.7930   44.3980 O   0  0  0  0  0  0  0  0  0  0  0  0
   60.0350   33.1130   46.5130 N   0  0  0  0  0  0  0  0  0  0  0  0
   61.3760   33.7020   46.3730 C   0  0  0  0  0  0  0  0  0  0  0  0
   62.1600   33.6260   47.6870 C   0  0  0  0  0  0  0  0  0  0  0  0
   61.3720   34.2370   48.8580 C   0  0  0  0  0  0  0  0  0  0  0  0
   59.8600   33.9170   48.8290 C   0  0  0  0  0  0  0  0  0  0  0  0
   59.5110   32.7910   47.8490 C   0  0  0  0  0  0  0  0  0  0  0  0
   57.0040   32.0280   44.6040 C   0  0  0  0  0  0  0  0  0  0  0  0
   56.1040   30.9660   44.4900 C   0  0  0  0  0  0  0  0  0  0  0  0
   56.4380   29.6990   44.9780 C   0  0  0  0  0  0  0  0  0  0  0  0
   55.5200   28.6660   44.8450 O   0  0  0  0  0  0  0  0  0  0  0  0
   55.6020   24.7640   45.9930 C   0  0  0  0  0  0  0  0  0  0  0  0
   55.2020   23.6290   46.7050 C   0  0  0  0  0  0  0  0  0  0  0  0
   55.5894   22.1528   49.6553 H   0  0  0  0  0  0  0  0  0  0  0  0
   54.4973   21.6946   48.3048 H   0  0  0  0  0  0  0  0  0  0  0  0
   56.2064   21.1419   48.3048 H   0  0  0  0  0  0  0  0  0  0  0  0
   57.6793   23.5646   49.0626 H   0  0  0  0  0  0  0  0  0  0  0  0
   58.3925   25.5864   47.7910 H   0  0  0  0  0  0  0  0  0  0  0  0
   56.6300   26.8460   44.7260 H   0  0  0  0  0  0  0  0  0  0  0  0
   59.5659   30.4022   46.1781 H   0  0  0  0  0  0  0  0  0  0  0  0
   61.9279   33.1545   45.5948 H   0  0  0  0  0  0  0  0  0  0  0  0
   61.2619   34.7611   46.0987 H   0  0  0  0  0  0  0  0  0  0  0  0
   62.3738   32.5710   47.9136 H   0  0  0  0  0  0  0  0  0  0  0  0
   63.0902   34.2002   47.5641 H   0  0  0  0  0  0  0  0  0  0  0  0
   61.7906   33.8478   49.7979 H   0  0  0  0  0  0  0  0  0  0  0  0
   61.4692   35.3294   48.7733 H   0  0  0  0  0  0  0  0  0  0  0  0
   59.5451   33.6146   49.8387 H   0  0  0  0  0  0  0  0  0  0  0  0
   59.3355   34.8236   48.4930 H   0  0  0  0  0  0  0  0  0  0  0  0
   59.9590   31.8496   48.1998 H   0  0  0  0  0  0  0  0  0  0  0  0
   58.4177   32.6833   47.7940 H   0  0  0  0  0  0  0  0  0  0  0  0
   56.7265   33.0232   44.2264 H   0  0  0  0  0  0  0  0  0  0  0  0
   55.1260   31.1275   44.0132 H   0  0  0  0  0  0  0  0  0  0  0  0
   55.0238   25.0882   45.1152 H   0  0  0  0  0  0  0  0  0  0  0  0
   54.3135   23.0656   46.3838 H   0  0  0  0  0  0  0  0  0  0  0  0
  1  2  1  0
  2  3  2  0
  3  4  1  0
  4  5  2  0
  5  6  1  0
  6  7  1  0
  7  8  2  0
  7  9  2  0
  7 10  1  0
 10 11  2  0
 11 12  1  0
 12 13  1  0
 13 14  2  0
 13 15  1  0
 15 16  1  0
 16 17  1  0
 17 18  1  0
 18 19  1  0
 19 20  1  0
 12 21  2  0
 21 22  1  0
 22 23  2  0
 23 24  1  0
  5 25  1  0
 25 26  2  0
 26  2  1  0
 23 10  1  0
 20 15  1  0
  1 27  1  0
  1 28  1  0
  1 29  1  0
  3 30  1  0
  4 31  1  0
  6 32  1  0
 11 33  1  0
 16 34  1  0
 16 35  1  0
 17 36  1  0
 17 37  1  0
 18 38  1  0
 18 39  1  0
 19 40  1  0
 19 41  1  0
 20 42  1  0
 20 43  1  0
 21 44  1  0
 22 45  1  0
 25 46  1  0
 26 47  1  0
M  CHG  1  24  -1
M  END
>  <UniqueID>  (18) 
16

>  <SMILES>  (18) 
Cc1ccc(NS(=O)(=O)c2cc(C(=O)N3CCCCC3)ccc2[O-])cc1

>  <Energy>  (18) 
59.49232703385993

>  <Genealogy>  (18) 
Cc1ccc(NS(=O)(=O)c2cc(C(=O)N3CCCCC3)ccc2[O-])cc1 (protonated)
Cc1ccc(NS(=O)(=O)c2cc(C(=O)N3CCCCC3)ccc2[O-])cc1 (3D coordinates assigned)
Cc1ccc(NS(=O)(=O)c2cc(C(=O)N3CCCCC3)ccc2[O-])cc1 (nonaromatic ring conformer: 59.49232703385993 kcal/mol)

>  <smiles>  (18) 
Cc1ccc(NS(=O)(=O)c2cc(C(=O)N3CCCCC3)ccc2O)cc1

>  <score_type>  (18) 
oracle

>  <origin>  (18) 
adg

>  <m_score__min__energy>  (18) 
-12.07

>  <m_primary>  (18) 
energy

$$$$
18:0
     RDKit          3D

 50 52  0  0  0  0  0  0  0  0999 V2000
   51.9900   22.5370   46.6780 C   0  0  0  0  0  0  0  0  0  0  0  0
   53.3050   21.8960   47.1100 C   0  0  0  0  0  0  0  0  0  0  0  0
   54.4580   22.4910   46.3550 C   0  0  0  0  0  0  0  0  0  0  0  0
   54.4170   22.7180   45.0300 N   0  0  0  0  0  0  0  0  0  0  0  0
   55.6340   23.2200   44.7330 C   0  0  0  0  0  0  0  0  0  0  0  0
   56.0280   23.5390   43.3170 C   0  0  0  0  0  0  0  0  0  0  0  0
   56.5960   22.3040   42.6270 C   0  0  0  0  0  0  0  0  0  0  0  0
   56.4470   23.3130   45.8180 N   0  0  0  0  0  0  0  0  0  0  0  0
   57.8700   23.6890   45.8190 C   0  0  0  0  0  0  0  0  0  0  0  0
   58.0280   25.1820   45.9390 C   0  0  0  0  0  0  0  0  0  0  0  0
   56.9160   25.9880   46.2320 C   0  0  0  0  0  0  0  0  0  0  0  0
   57.0560   27.3750   46.3390 C   0  0  0  0  0  0  0  0  0  0  0  0
   58.3120   27.9740   46.1640 C   0  0  0  0  0  0  0  0  0  0  0  0
   58.4570   29.4420   46.2470 C   0  0  0  0  0  0  0  0  0  0  0  0
   59.2890   29.9720   47.2470 C   0  0  0  0  0  0  0  0  0  0  0  0
   59.4870   31.3500   47.3490 C   0  0  0  0  0  0  0  0  0  0  0  0
   58.8560   32.2140   46.4560 C   0  0  0  0  0  0  0  0  0  0  0  0
   58.0150   31.7050   45.4650 C   0  0  0  0  0  0  0  0  0  0  0  0
   57.7970   30.3220   45.3520 C   0  0  0  0  0  0  0  0  0  0  0  0
   56.6660   29.7370   44.1200 S   0  0  0  0  0  0  0  0  0  0  0  0
   55.1340   29.3900   44.8400 N   0  0  0  0  0  0  0  0  0  0  0  0
   57.2160   28.4990   43.4700 O   0  0  0  0  0  0  0  0  0  0  0  0
   56.4640   30.7900   43.0660 O   0  0  0  0  0  0  0  0  0  0  0  0
   59.4200   27.1740   45.8490 C   0  0  0  0  0  0  0  0  0  0  0  0
   59.2800   25.7870   45.7380 C   0  0  0  0  0  0  0  0  0  0  0  0
   55.7040   22.8440   46.8510 C   0  0  0  0  0  0  0  0  0  0  0  0
   56.1440   22.7160   48.2590 C   0  0  0  0  0  0  0  0  0  0  0  0
   57.3640   22.7570   48.5580 O   0  0  0  0  0  0  0  0  0  0  0  0
   55.2070   22.5760   49.2750 O   0  0  0  0  0  0  0  0  0  0  0  0
   51.4099   22.8198   47.5688 H   0  0  0  0  0  0  0  0  0  0  0  0
   52.1994   23.4341   46.0768 H   0  0  0  0  0  0  0  0  0  0  0  0
   51.4124   21.8194   46.0768 H   0  0  0  0  0  0  0  0  0  0  0  0
   53.4526   22.0651   48.1869 H   0  0  0  0  0  0  0  0  0  0  0  0
   53.2603   20.8180   46.8958 H   0  0  0  0  0  0  0  0  0  0  0  0
   55.1423   23.8864   42.7648 H   0  0  0  0  0  0  0  0  0  0  0  0
   56.7991   24.3233   43.3316 H   0  0  0  0  0  0  0  0  0  0  0  0
   56.9288   21.5805   43.3858 H   0  0  0  0  0  0  0  0  0  0  0  0
   55.8186   21.8449   41.9986 H   0  0  0  0  0  0  0  0  0  0  0  0
   57.4505   22.5955   41.9986 H   0  0  0  0  0  0  0  0  0  0  0  0
   58.3707   23.2037   46.6697 H   0  0  0  0  0  0  0  0  0  0  0  0
   58.3222   23.3614   44.8713 H   0  0  0  0  0  0  0  0  0  0  0  0
   55.9288   25.5253   46.3782 H   0  0  0  0  0  0  0  0  0  0  0  0
   56.1777   27.9988   46.5613 H   0  0  0  0  0  0  0  0  0  0  0  0
   59.7888   29.2954   47.9558 H   0  0  0  0  0  0  0  0  0  0  0  0
   60.1417   31.7543   48.1350 H   0  0  0  0  0  0  0  0  0  0  0  0
   59.0209   33.2989   46.5322 H   0  0  0  0  0  0  0  0  0  0  0  0
   57.5182   32.3936   44.7658 H   0  0  0  0  0  0  0  0  0  0  0  0
   55.3050   28.7080   45.6120 H   0  0  0  0  0  0  0  0  0  0  0  0
   60.4036   27.6396   45.6885 H   0  0  0  0  0  0  0  0  0  0  0  0
   60.1544   25.1666   45.4921 H   0  0  0  0  0  0  0  0  0  0  0  0
  1  2  1  0
  2  3  1  0
  3  4  1  0
  4  5  2  0
  5  6  1  0
  6  7  1  0
  5  8  1  0
  8  9  1  0
  9 10  1  0
 10 11  2  0
 11 12  1  0
 12 13  2  0
 13 14  1  0
 14 15  2  0
 15 16  1  0
 16 17  2  0
 17 18  1  0
 18 19  2  0
 19 20  1  0
 20 21  1  0
 20 22  2  0
 20 23  2  0
 13 24  1  0
 24 25  2  0
  8 26  1  0
 26 27  1  0
 27 28  2  0
 27 29  1  0
 26  3  2  0
 25 10  1  0
 19 14  1  0
  1 30  1  0
  1 31  1  0
  1 32  1  0
  2 33  1  0
  2 34  1  0
  6 35  1  0
  6 36  1  0
  7 37  1  0
  7 38  1  0
  7 39  1  0
  9 40  1  0
  9 41  1  0
 11 42  1  0
 12 43  1  0
 15 44  1  0
 16 45  1  0
 17 46  1  0
 18 47  1  0
 21 48  1  0
 24 49  1  0
 25 50  1  0
M  CHG  2  21  -1  29  -1
M  END
>  <UniqueID>  (19) 
17

>  <SMILES>  (19) 
CCc1nc(CC)n(Cc2ccc(-c3ccccc3S([NH-])(=O)=O)cc2)c1C(=O)[O-]

>  <Energy>  (19) 
85.00545794161056

>  <Genealogy>  (19) 
CCc1nc(CC)n(Cc2ccc(-c3ccccc3S([NH-])(=O)=O)cc2)c1C(=O)[O-] (protonated)
CCc1nc(CC)n(Cc2ccc(-c3ccccc3S([NH-])(=O)=O)cc2)c1C(=O)[O-] (3D coordinates assigned)
CCc1nc(CC)n(Cc2ccc(-c3ccccc3S([NH-])(=O)=O)cc2)c1C(=O)[O-] (optimized conformer: 85.00545794161056 kcal/mol)

>  <smiles>  (19) 
CCc1nc(CC)n(Cc2ccc(-c3ccccc3S(N)(=O)=O)cc2)c1C(=O)O

>  <score_type>  (19) 
oracle

>  <origin>  (19) 
adg

>  <m_score__min__energy>  (19) 
-13.57

>  <m_primary>  (19) 
energy

$$$$
19:0
     RDKit          3D

 81 86  0  0  0  0  0  0  0  0999 V2000
   59.2590   34.9270   46.9670 C   0  0  0  0  0  0  0  0  0  0  0  0
   60.0460   34.2920   48.0200 N   0  0  0  0  0  0  0  0  0  0  0  0
   59.7180   34.2380   49.3320 C   0  0  0  0  0  0  0  0  0  0  0  0
   60.7450   33.6400   50.0600 C   0  0  0  0  0  0  0  0  0  0  0  0
   60.7690   33.4740   51.5280 C   0  0  0  0  0  0  0  0  0  0  0  0
   61.9980   33.6410   52.1830 C   0  0  0  0  0  0  0  0  0  0  0  0
   62.0930   33.4570   53.5620 C   0  0  0  0  0  0  0  0  0  0  0  0
   60.9680   33.0970   54.3010 C   0  0  0  0  0  0  0  0  0  0  0  0
   59.7390   32.9070   53.6640 C   0  0  0  0  0  0  0  0  0  0  0  0
   59.6220   33.0770   52.2730 C   0  0  0  0  0  0  0  0  0  0  0  0
   58.2690   32.8610   51.6280 C   0  0  0  0  0  0  0  0  0  0  0  0
   58.0970   31.4940   51.2590 O   0  0  0  0  0  0  0  0  0  0  0  0
   58.9030   30.7820   50.3600 C   0  0  0  0  0  0  0  0  0  0  0  0
   59.7450   29.7970   50.8790 C   0  0  0  0  0  0  0  0  0  0  0  0
   60.5880   29.0760   50.0370 C   0  0  0  0  0  0  0  0  0  0  0  0
   60.5790   29.3150   48.6630 C   0  0  0  0  0  0  0  0  0  0  0  0
   59.7230   30.2890   48.1120 C   0  0  0  0  0  0  0  0  0  0  0  0
   59.6630   30.4960   46.6460 C   0  0  0  0  0  0  0  0  0  0  0  0
   60.6040   30.0760   45.9230 O   0  0  0  0  0  0  0  0  0  0  0  0
   58.5510   31.1860   46.0540 N   0  0  0  0  0  0  0  0  0  0  0  0
   58.4810   31.5100   44.6330 C   0  0  0  0  0  0  0  0  0  0  0  0
   57.8700   30.3360   43.8490 C   0  0  0  0  0  0  0  0  0  0  0  0
   57.9460   29.0070   44.6260 C   0  0  0  0  0  0  0  0  0  0  0  0
   58.4550   27.8670   43.7240 C   0  0  0  0  0  0  0  0  0  0  0  0
   58.5480   26.5300   44.4940 C   0  0  0  0  0  0  0  0  0  0  0  0
   58.0230   26.6550   45.8690 N   0  0  0  0  0  0  0  0  0  0  0  0
   58.1230   25.3760   46.6060 C   0  0  0  0  0  0  0  0  0  0  0  0
   57.8640   24.2340   45.6600 C   0  0  0  0  0  0  0  0  0  0  0  0
   58.8830   23.3000   45.3980 C   0  0  0  0  0  0  0  0  0  0  0  0
   58.6700   22.2650   44.4840 C   0  0  0  0  0  0  0  0  0  0  0  0
   57.4450   22.1580   43.8170 C   0  0  0  0  0  0  0  0  0  0  0  0
   56.4280   23.0810   44.0730 C   0  0  0  0  0  0  0  0  0  0  0  0
   56.6380   24.1230   44.9840 C   0  0  0  0  0  0  0  0  0  0  0  0
   56.6380   27.1760   45.8470 C   0  0  0  0  0  0  0  0  0  0  0  0
   56.5950   28.6000   45.2470 C   0  0  0  0  0  0  0  0  0  0  0  0
   58.8790   31.0150   48.9690 C   0  0  0  0  0  0  0  0  0  0  0  0
   61.7190   33.3030   49.1350 C   0  0  0  0  0  0  0  0  0  0  0  0
   62.9470   32.6530   49.2790 C   0  0  0  0  0  0  0  0  0  0  0  0
   63.7420   32.4790   48.1300 C   0  0  0  0  0  0  0  0  0  0  0  0
   63.2980   32.9450   46.8760 C   0  0  0  0  0  0  0  0  0  0  0  0
   62.0430   33.5690   46.7510 C   0  0  0  0  0  0  0  0  0  0  0  0
   61.2690   33.7260   47.9070 C   0  0  0  0  0  0  0  0  0  0  0  0
   58.4792   35.5562   47.4209 H   0  0  0  0  0  0  0  0  0  0  0  0
   59.9164   35.5506   46.3434 H   0  0  0  0  0  0  0  0  0  0  0  0
   58.7884   34.1526   46.3434 H   0  0  0  0  0  0  0  0  0  0  0  0
   58.7769   34.6120   49.7616 H   0  0  0  0  0  0  0  0  0  0  0  0
   62.8921   33.9187   51.6055 H   0  0  0  0  0  0  0  0  0  0  0  0
   63.0596   33.5966   54.0682 H   0  0  0  0  0  0  0  0  0  0  0  0
   61.0477   32.9619   55.3898 H   0  0  0  0  0  0  0  0  0  0  0  0
   58.8561   32.6222   54.2552 H   0  0  0  0  0  0  0  0  0  0  0  0
   57.4803   33.1443   52.3405 H   0  0  0  0  0  0  0  0  0  0  0  0
   58.2069   33.4816   50.7219 H   0  0  0  0  0  0  0  0  0  0  0  0
   59.7426   29.5891   51.9592 H   0  0  0  0  0  0  0  0  0  0  0  0
   61.2630   28.3157   50.4569 H   0  0  0  0  0  0  0  0  0  0  0  0
   61.2454   28.7386   48.0044 H   0  0  0  0  0  0  0  0  0  0  0  0
   57.6610   31.2650   46.5990 H   0  0  0  0  0  0  0  0  0  0  0  0
   57.8551   32.4040   44.4947 H   0  0  0  0  0  0  0  0  0  0  0  0
   59.4974   31.7010   44.2583 H   0  0  0  0  0  0  0  0  0  0  0  0
   56.8142   30.5627   43.6394 H   0  0  0  0  0  0  0  0  0  0  0  0
   58.4485   30.2154   42.9212 H   0  0  0  0  0  0  0  0  0  0  0  0
   58.6577   29.1767   45.4474 H   0  0  0  0  0  0  0  0  0  0  0  0
   57.7621   27.7445   42.8785 H   0  0  0  0  0  0  0  0  0  0  0  0
   59.4628   28.1315   43.3712 H   0  0  0  0  0  0  0  0  0  0  0  0
   57.9641   25.7679   43.9572 H   0  0  0  0  0  0  0  0  0  0  0  0
   59.6079   26.2424   44.5560 H   0  0  0  0  0  0  0  0  0  0  0  0
   59.1314   25.2767   47.0342 H   0  0  0  0  0  0  0  0  0  0  0  0
   57.3791   25.3589   47.4161 H   0  0  0  0  0  0  0  0  0  0  0  0
   59.8505   23.3849   45.9144 H   0  0  0  0  0  0  0  0  0  0  0  0
   59.4672   21.5327   44.2885 H   0  0  0  0  0  0  0  0  0  0  0  0
   57.2826   21.3475   43.0913 H   0  0  0  0  0  0  0  0  0  0  0  0
   55.4605   22.9888   43.5578 H   0  0  0  0  0  0  0  0  0  0  0  0
   55.8403   24.8570   45.1709 H   0  0  0  0  0  0  0  0  0  0  0  0
   56.0116   26.5088   45.2367 H   0  0  0  0  0  0  0  0  0  0  0  0
   56.2612   27.2177   46.8796 H   0  0  0  0  0  0  0  0  0  0  0  0
   55.8211   28.6329   44.4660 H   0  0  0  0  0  0  0  0  0  0  0  0
   56.3697   29.3046   46.0611 H   0  0  0  0  0  0  0  0  0  0  0  0
   58.1954   31.7696   48.5528 H   0  0  0  0  0  0  0  0  0  0  0  0
   63.2829   32.2880   50.2608 H   0  0  0  0  0  0  0  0  0  0  0  0
   64.7167   31.9757   48.2116 H   0  0  0  0  0  0  0  0  0  0  0  0
   63.9368   32.8200   45.9892 H   0  0  0  0  0  0  0  0  0  0  0  0
   61.6810   33.9228   45.7744 H   0  0  0  0  0  0  0  0  0  0  0  0
  1  2  1  0
  2  3  1  0
  3  4  2  0
  4  5  1  0
  5  6  2  0
  6  7  1  0
  7  8  2  0
  8  9  1  0
  9 10  2  0
 10 11  1  0
 11 12  1  0
 12 13  1  0
 13 14  2  0
 14 15  1  0
 15 16  2  0
 16 17  1  0
 17 18  1  0
 18 19  2  0
 18 20  1  0
 20 21  1  0
 21 22  1  0
 22 23  1  0
 23 24  1  0
 24 25  1  0
 25 26  1  0
 26 27  1  0
 27 28  1  0
 28 29  2  0
 29 30  1  0
 30 31  2  0
 31 32  1  0
 32 33  2  0
 26 34  1  0
 34 35  1  0
 17 36  2  0
  4 37  1  0
 37 38  2  0
 38 39  1  0
 39 40  2  0
 40 41  1  0
 41 42  2  0
 42  2  1  0
 10  5  1  0
 36 13  1  0
 42 37  1  0
 35 23  1  0
 33 28  1  0
  1 43  1  0
  1 44  1  0
  1 45  1  0
  3 46  1  0
  6 47  1  0
  7 48  1  0
  8 49  1  0
  9 50  1  0
 11 51  1  0
 11 52  1  0
 14 53  1  0
 15 54  1  0
 16 55  1  0
 20 56  1  0
 21 57  1  0
 21 58  1  0
 22 59  1  0
 22 60  1  0
 23 61  1  0
 24 62  1  0
 24 63  1  0
 25 64  1  0
 25 65  1  0
 27 66  1  0
 27 67  1  0
 29 68  1  0
 30 69  1  0
 31 70  1  0
 32 71  1  0
 33 72  1  0
 34 73  1  0
 34 74  1  0
 35 75  1  0
 35 76  1  0
 36 77  1  0
 38 78  1  0
 39 79  1  0
 40 80  1  0
 41 81  1  0
M  END
>  <UniqueID>  (20) 
18

>  <SMILES>  (20) 
Cn1cc(-c2ccccc2COc2cccc(C(=O)NCCC3CCN(Cc4ccccc4)CC3)c2)c2ccccc21

>  <Energy>  (20) 
136.8230890815005

>  <Genealogy>  (20) 
Cn1cc(-c2ccccc2COc2cccc(C(=O)NCCC3CCN(Cc4ccccc4)CC3)c2)c2ccccc21 (3D coordinates assigned)
Cn1cc(-c2ccccc2COc2cccc(C(=O)NCCC3CCN(Cc4ccccc4)CC3)c2)c2ccccc21 (nonaromatic ring conformer: 136.8230890815005 kcal/mol)

>  <smiles>  (20) 
Cn1cc(-c2ccccc2COc2cccc(C(=O)NCCC3CCN(Cc4ccccc4)CC3)c2)c2ccccc21

>  <score_type>  (20) 
oracle

>  <origin>  (20) 
adg

>  <m_score__min__energy>  (20) 
-10.800000000000001

>  <m_primary>  (20) 
energy

$$$$
20:0
     RDKit          3D

 74 79  0  0  0  0  0  0  0  0999 V2000
   56.8310   34.6870   44.8890 N   0  0  0  0  0  0  0  0  0  0  0  0
   58.2380   34.6150   45.1060 C   0  0  0  0  0  0  0  0  0  0  0  0
   58.9570   35.6130   44.8320 O   0  0  0  0  0  0  0  0  0  0  0  0
   58.8590   33.4010   45.6620 C   0  0  0  0  0  0  0  0  0  0  0  0
   59.8570   33.4340   46.5730 N   0  0  0  0  0  0  0  0  0  0  0  0
   60.1590   32.1850   46.9020 N   0  0  0  0  0  0  0  0  0  0  0  0
   61.1880   31.8550   47.8410 C   0  0  0  0  0  0  0  0  0  0  0  0
   60.8740   31.2160   49.0490 C   0  0  0  0  0  0  0  0  0  0  0  0
   61.8760   30.9670   49.9950 C   0  0  0  0  0  0  0  0  0  0  0  0
   63.2000   31.3510   49.7390 C   0  0  0  0  0  0  0  0  0  0  0  0
   64.4640   31.0310   50.9240 S   0  0  0  0  0  0  0  0  0  0  0  0
   64.1780   31.9600   52.3540 N   0  0  0  0  0  0  0  0  0  0  0  0
   65.8030   31.4160   50.3590 O   0  0  0  0  0  0  0  0  0  0  0  0
   64.4780   29.5670   51.2610 O   0  0  0  0  0  0  0  0  0  0  0  0
   63.5120   31.9950   48.5310 C   0  0  0  0  0  0  0  0  0  0  0  0
   62.5080   32.2560   47.5950 C   0  0  0  0  0  0  0  0  0  0  0  0
   59.3640   31.3450   46.2040 C   0  0  0  0  0  0  0  0  0  0  0  0
   58.5440   32.0760   45.3910 C   0  0  0  0  0  0  0  0  0  0  0  0
   57.5140   31.4540   44.4970 C   0  0  0  0  0  0  0  0  0  0  0  0
   57.9520   30.0320   44.0760 C   0  0  0  0  0  0  0  0  0  0  0  0
   58.4750   29.2400   45.2100 N   0  0  0  0  0  0  0  0  0  0  0  0
   58.2840   27.8110   45.2320 C   0  0  0  0  0  0  0  0  0  0  0  0
   58.4860   27.0830   46.4140 C   0  0  0  0  0  0  0  0  0  0  0  0
   58.3410   25.6940   46.4230 C   0  0  0  0  0  0  0  0  0  0  0  0
   57.9930   25.0020   45.2490 C   0  0  0  0  0  0  0  0  0  0  0  0
   57.8740   23.5200   45.2740 C   0  0  0  0  0  0  0  0  0  0  0  0
   57.7150   22.8930   44.1920 O   0  0  0  0  0  0  0  0  0  0  0  0
   57.8520   22.7730   46.4990 N   0  0  0  0  0  0  0  0  0  0  0  0
   56.8080   22.3450   47.1510 C   0  0  0  0  0  0  0  0  0  0  0  0
   55.4900   22.5270   46.6820 C   0  0  0  0  0  0  0  0  0  0  0  0
   54.4120   22.0420   47.4340 C   0  0  0  0  0  0  0  0  0  0  0  0
   53.0400   22.2060   46.9210 C   0  0  0  0  0  0  0  0  0  0  0  0
   52.8730   22.3250   45.6780 O   0  0  0  0  0  0  0  0  0  0  0  0
   51.8930   22.1360   47.7950 N   0  0  0  0  0  0  0  0  0  0  0  0
   50.6150   21.6230   47.2820 C   0  0  0  0  0  0  0  0  0  0  0  0
   50.0280   20.6080   48.2720 C   0  0  0  0  0  0  0  0  0  0  0  0
   49.9740   21.1350   49.7260 C   0  0  0  0  0  0  0  0  0  0  0  0
   50.6360   22.5070   49.9090 C   0  0  0  0  0  0  0  0  0  0  0  0
   51.9910   22.5720   49.1980 C   0  0  0  0  0  0  0  0  0  0  0  0
   54.6570   21.4420   48.6750 C   0  0  0  0  0  0  0  0  0  0  0  0
   55.9720   21.2890   49.1160 C   0  0  0  0  0  0  0  0  0  0  0  0
   57.0020   21.7360   48.3510 N   0  0  0  0  0  0  0  0  0  0  0  0
   57.7930   25.7330   44.0640 C   0  0  0  0  0  0  0  0  0  0  0  0
   57.9300   27.1250   44.0580 C   0  0  0  0  0  0  0  0  0  0  0  0
   59.3610   29.8780   46.1570 C   0  0  0  0  0  0  0  0  0  0  0  0
   60.1250   29.1960   46.8910 O   0  0  0  0  0  0  0  0  0  0  0  0
   56.1710   34.7830   45.6910 H   0  0  0  0  0  0  0  0  0  0  0  0
   59.8377   30.9095   49.2541 H   0  0  0  0  0  0  0  0  0  0  0  0
   61.6235   30.4683   50.9424 H   0  0  0  0  0  0  0  0  0  0  0  0
   63.6240   31.3570   53.0030 H   0  0  0  0  0  0  0  0  0  0  0  0
   63.5590   32.7580   52.0850 H   0  0  0  0  0  0  0  0  0  0  0  0
   64.5493   32.2948   48.3210 H   0  0  0  0  0  0  0  0  0  0  0  0
   62.7552   32.7793   46.6596 H   0  0  0  0  0  0  0  0  0  0  0  0
   56.5564   31.3937   45.0349 H   0  0  0  0  0  0  0  0  0  0  0  0
   57.4033   32.0744   43.5954 H   0  0  0  0  0  0  0  0  0  0  0  0
   57.0839   29.5074   43.6503 H   0  0  0  0  0  0  0  0  0  0  0  0
   58.7629   30.1369   43.3402 H   0  0  0  0  0  0  0  0  0  0  0  0
   58.7604   27.6097   47.3399 H   0  0  0  0  0  0  0  0  0  0  0  0
   58.5005   25.1358   47.3573 H   0  0  0  0  0  0  0  0  0  0  0  0
   55.3095   23.0475   45.7299 H   0  0  0  0  0  0  0  0  0  0  0  0
   49.9108   22.4584   47.1547 H   0  0  0  0  0  0  0  0  0  0  0  0
   50.7838   21.1300   46.3133 H   0  0  0  0  0  0  0  0  0  0  0  0
   49.0054   20.3591   47.9522 H   0  0  0  0  0  0  0  0  0  0  0  0
   50.6882   19.7282   48.2677 H   0  0  0  0  0  0  0  0  0  0  0  0
   48.9192   21.2152   50.0275 H   0  0  0  0  0  0  0  0  0  0  0  0
   50.5348   20.4217   50.3478 H   0  0  0  0  0  0  0  0  0  0  0  0
   49.9755   23.2817   49.4923 H   0  0  0  0  0  0  0  0  0  0  0  0
   50.8005   22.6718   50.9841 H   0  0  0  0  0  0  0  0  0  0  0  0
   52.3575   23.6088   49.2240 H   0  0  0  0  0  0  0  0  0  0  0  0
   52.6838   21.8949   49.7192 H   0  0  0  0  0  0  0  0  0  0  0  0
   53.8195   21.0940   49.2975 H   0  0  0  0  0  0  0  0  0  0  0  0
   56.1748   20.8063   50.0834 H   0  0  0  0  0  0  0  0  0  0  0  0
   57.5270   25.2063   43.1356 H   0  0  0  0  0  0  0  0  0  0  0  0
   57.7594   27.6866   43.1277 H   0  0  0  0  0  0  0  0  0  0  0  0
  1  2  1  0
  2  3  2  0
  2  4  1  0
  4  5  2  0
  5  6  1  0
  6  7  1  0
  7  8  2  0
  8  9  1  0
  9 10  2  0
 10 11  1  0
 11 12  1  0
 11 13  2  0
 11 14  2  0
 10 15  1  0
 15 16  2  0
  6 17  1  0
 17 18  2  0
 18 19  1  0
 19 20  1  0
 20 21  1  0
 21 22  1  0
 22 23  2  0
 23 24  1  0
 24 25  2  0
 25 26  1  0
 26 27  2  0
 26 28  1  0
 28 29  2  3
 29 30  1  0
 30 31  2  0
 31 32  1  0
 32 33  2  0
 32 34  1  0
 34 35  1  0
 35 36  1  0
 36 37  1  0
 37 38  1  0
 38 39  1  0
 31 40  1  0
 40 41  2  0
 41 42  1  0
 25 43  1  0
 43 44  2  0
 21 45  1  0
 45 46  2  0
 18  4  1  0
 44 22  1  0
 16  7  1  0
 45 17  1  0
 42 29  1  0
 39 34  1  0
  1 47  1  0
  8 48  1  0
  9 49  1  0
 12 50  1  0
 12 51  1  0
 15 52  1  0
 16 53  1  0
 19 54  1  0
 19 55  1  0
 20 56  1  0
 20 57  1  0
 23 58  1  0
 24 59  1  0
 30 60  1  0
 35 61  1  0
 35 62  1  0
 36 63  1  0
 36 64  1  0
 37 65  1  0
 37 66  1  0
 38 67  1  0
 38 68  1  0
 39 69  1  0
 39 70  1  0
 40 71  1  0
 41 72  1  0
 43 73  1  0
 44 74  1  0
M  CHG  2   1  -1  42  -1
M  END
>  <UniqueID>  (21) 
19

>  <SMILES>  (21) 
[NH-]C(=O)c1nn(-c2ccc(S(N)(=O)=O)cc2)c2c1CCN(c1ccc(C(=O)N=c3cc(C(=O)N4CCCCC4)cc[n-]3)cc1)C2=O

>  <Energy>  (21) 
142.70546242704728

>  <Genealogy>  (21) 
[NH-]C(=O)c1nn(-c2ccc(S(N)(=O)=O)cc2)c2c1CCN(c1ccc(C(=O)N=c3cc(C(=O)N4CCCCC4)cc[n-]3)cc1)C2=O (protonated)
[NH-]C(=O)c1nn(-c2ccc(S(N)(=O)=O)cc2)c2c1CCN(c1ccc(C(=O)N=c3cc(C(=O)N4CCCCC4)cc[n-]3)cc1)C2=O (3D coordinates assigned)
[NH-]C(=O)c1nn(-c2ccc(S(N)(=O)=O)cc2)c2c1CCN(c1ccc(C(=O)N=c3cc(C(=O)N4CCCCC4)cc[n-]3)cc1)C2=O (nonaromatic ring conformer: 142.70546242704728 kcal/mol)

>  <smiles>  (21) 
NC(=O)c1nn(-c2ccc(S(N)(=O)=O)cc2)c2c1CCN(c1ccc(C(=O)N=c3cc(C(=O)N4CCCCC4)cc[nH]3)cc1)C2=O

>  <score_type>  (21) 
oracle

>  <origin>  (21) 
adg

>  <m_score__min__energy>  (21) 
-12.41

>  <m_primary>  (21) 
energy

$$$$
21:0
     RDKit          3D

 60 63  0  0  0  0  0  0  0  0999 V2000
   55.1080   29.5000   45.0350 N   0  0  0  0  0  0  0  0  0  0  0  0
   56.6080   29.6800   44.1940 S   0  0  0  0  0  0  0  0  0  0  0  0
   57.0600   31.1090   44.3080 O   0  0  0  0  0  0  0  0  0  0  0  0
   56.4210   29.3340   42.7450 O   0  0  0  0  0  0  0  0  0  0  0  0
   57.8060   28.6030   44.9020 C   0  0  0  0  0  0  0  0  0  0  0  0
   59.1370   29.0250   45.0160 C   0  0  0  0  0  0  0  0  0  0  0  0
   60.0970   28.1810   45.5800 C   0  0  0  0  0  0  0  0  0  0  0  0
   59.7390   26.9010   46.0310 C   0  0  0  0  0  0  0  0  0  0  0  0
   60.7880   25.9820   46.5940 C   0  0  0  0  0  0  0  0  0  0  0  0
   61.4170   26.5920   47.7600 N   0  0  0  0  0  0  0  0  0  0  0  0
   60.6810   27.1000   48.8780 C   0  0  0  0  0  0  0  0  0  0  0  0
   60.3110   26.3170   49.7930 O   0  0  0  0  0  0  0  0  0  0  0  0
   60.3600   28.5430   48.9600 C   0  0  0  0  0  0  0  0  0  0  0  0
   59.0580   28.9970   48.7160 C   0  0  0  0  0  0  0  0  0  0  0  0
   58.7530   30.3560   48.8100 C   0  0  0  0  0  0  0  0  0  0  0  0
   59.7420   31.2960   49.1630 C   0  0  0  0  0  0  0  0  0  0  0  0
   59.4410   32.6650   49.2490 O   0  0  0  0  0  0  0  0  0  0  0  0
   59.9500   33.6890   48.3920 C   0  0  0  0  0  0  0  0  0  0  0  0
   59.1250   33.7960   47.1360 C   0  0  0  0  0  0  0  0  0  0  0  0
   57.8060   33.3150   47.1080 C   0  0  0  0  0  0  0  0  0  0  0  0
   57.0380   33.4300   45.9470 C   0  0  0  0  0  0  0  0  0  0  0  0
   57.5770   34.0310   44.8070 C   0  0  0  0  0  0  0  0  0  0  0  0
   58.8840   34.5240   44.8290 C   0  0  0  0  0  0  0  0  0  0  0  0
   59.6540   34.4150   45.9910 C   0  0  0  0  0  0  0  0  0  0  0  0
   61.0570   30.8390   49.4320 C   0  0  0  0  0  0  0  0  0  0  0  0
   62.1260   31.6730   49.8170 O   0  0  0  0  0  0  0  0  0  0  0  0
   63.3930   31.8270   49.1730 C   0  0  0  0  0  0  0  0  0  0  0  0
   63.2670   31.6100   47.6690 C   0  0  0  0  0  0  0  0  0  0  0  0
   62.8690   32.9570   47.0820 C   0  0  0  0  0  0  0  0  0  0  0  0
   63.2510   34.0160   48.1130 C   0  0  0  0  0  0  0  0  0  0  0  0
   63.8430   33.2740   49.3060 C   0  0  0  0  0  0  0  0  0  0  0  0
   61.3490   29.4730   49.3140 C   0  0  0  0  0  0  0  0  0  0  0  0
   58.4050   26.4780   45.9120 C   0  0  0  0  0  0  0  0  0  0  0  0
   57.4440   27.3270   45.3570 C   0  0  0  0  0  0  0  0  0  0  0  0
   55.1970   28.6490   45.6350 H   0  0  0  0  0  0  0  0  0  0  0  0
   59.4273   30.0245   44.6601 H   0  0  0  0  0  0  0  0  0  0  0  0
   61.1390   28.5215   45.6711 H   0  0  0  0  0  0  0  0  0  0  0  0
   60.3185   25.0321   46.8894 H   0  0  0  0  0  0  0  0  0  0  0  0
   61.5546   25.7987   45.8267 H   0  0  0  0  0  0  0  0  0  0  0  0
   58.2700   28.2777   48.4484 H   0  0  0  0  0  0  0  0  0  0  0  0
   57.7275   30.6976   48.6059 H   0  0  0  0  0  0  0  0  0  0  0  0
   59.9225   34.6512   48.9244 H   0  0  0  0  0  0  0  0  0  0  0  0
   60.9833   33.4340   48.1139 H   0  0  0  0  0  0  0  0  0  0  0  0
   57.3755   32.8454   48.0047 H   0  0  0  0  0  0  0  0  0  0  0  0
   56.0071   33.0467   45.9304 H   0  0  0  0  0  0  0  0  0  0  0  0
   56.9724   34.1161   43.8920 H   0  0  0  0  0  0  0  0  0  0  0  0
   59.3076   34.9983   43.9315 H   0  0  0  0  0  0  0  0  0  0  0  0
   60.6783   34.8156   46.0088 H   0  0  0  0  0  0  0  0  0  0  0  0
   64.0847   31.1064   49.6338 H   0  0  0  0  0  0  0  0  0  0  0  0
   64.2282   31.2791   47.2488 H   0  0  0  0  0  0  0  0  0  0  0  0
   62.5239   30.8334   47.4351 H   0  0  0  0  0  0  0  0  0  0  0  0
   63.4080   33.1338   46.1396 H   0  0  0  0  0  0  0  0  0  0  0  0
   61.7916   32.9897   46.8624 H   0  0  0  0  0  0  0  0  0  0  0  0
   63.9949   34.7065   47.6891 H   0  0  0  0  0  0  0  0  0  0  0  0
   62.3751   34.6104   48.4122 H   0  0  0  0  0  0  0  0  0  0  0  0
   64.9411   33.3350   49.2861 H   0  0  0  0  0  0  0  0  0  0  0  0
   63.5065   33.7122   50.2572 H   0  0  0  0  0  0  0  0  0  0  0  0
   62.3746   29.1231   49.5028 H   0  0  0  0  0  0  0  0  0  0  0  0
   58.1156   25.4744   46.2571 H   0  0  0  0  0  0  0  0  0  0  0  0
   56.3990   26.9930   45.2767 H   0  0  0  0  0  0  0  0  0  0  0  0
  1  2  1  0
  2  3  2  0
  2  4  2  0
  2  5  1  0
  5  6  2  0
  6  7  1  0
  7  8  2  0
  8  9  1  0
  9 10  1  0
 10 11  1  0
 11 12  2  0
 11 13  1  0
 13 14  2  0
 14 15  1  0
 15 16  2  0
 16 17  1  0
 17 18  1  0
 18 19  1  0
 19 20  2  0
 20 21  1  0
 21 22  2  0
 22 23  1  0
 23 24  2  0
 16 25  1  0
 25 26  1  0
 26 27  1  0
 27 28  1  0
 28 29  1  0
 29 30  1  0
 30 31  1  0
 25 32  2  0
  8 33  1  0
 33 34  2  0
 34  5  1  0
 32 13  1  0
 24 19  1  0
 31 27  1  0
  1 35  1  0
  6 36  1  0
  7 37  1  0
  9 38  1  0
  9 39  1  0
 14 40  1  0
 15 41  1  0
 18 42  1  0
 18 43  1  0
 20 44  1  0
 21 45  1  0
 22 46  1  0
 23 47  1  0
 24 48  1  0
 27 49  1  0
 28 50  1  0
 28 51  1  0
 29 52  1  0
 29 53  1  0
 30 54  1  0
 30 55  1  0
 31 56  1  0
 31 57  1  0
 32 58  1  0
 33 59  1  0
 34 60  1  0
M  CHG  2   1  -1  10  -1
M  END
>  <UniqueID>  (22) 
20

>  <SMILES>  (22) 
[NH-]S(=O)(=O)c1ccc(C[N-]C(=O)c2ccc(OCc3ccccc3)c(OC3CCCC3)c2)cc1

>  <Energy>  (22) 
64.60929358208176

>  <Genealogy>  (22) 
[NH-]S(=O)(=O)c1ccc(C[N-]C(=O)c2ccc(OCc3ccccc3)c(OC3CCCC3)c2)cc1 (protonated)
[NH-]S(=O)(=O)c1ccc(C[N-]C(=O)c2ccc(OCc3ccccc3)c(OC3CCCC3)c2)cc1 (3D coordinates assigned)
[NH-]S(=O)(=O)c1ccc(C[N-]C(=O)c2ccc(OCc3ccccc3)c(OC3CCCC3)c2)cc1 (nonaromatic ring conformer: 64.60929358208176 kcal/mol)

>  <smiles>  (22) 
NS(=O)(=O)c1ccc(CNC(=O)c2ccc(OCc3ccccc3)c(OC3CCCC3)c2)cc1

>  <score_type>  (22) 
oracle

>  <origin>  (22) 
adg

>  <m_score__min__energy>  (22) 
-13.5

>  <m_primary>  (22) 
energy

$$$$
22:0
     RDKit          3D

 33 35  0  0  0  0  0  0  0  0999 V2000
   55.1430   27.4900   45.6140 H   0  0  0  0  0  0  0  0  0  0  0  0
   54.8160   26.6900   46.1420 O   0  0  0  0  0  0  0  0  0  0  0  0
   54.8860   25.4030   45.6120 C   0  0  0  0  0  0  0  0  0  0  0  0
   53.8050   24.5860   45.7220 N   0  0  0  0  0  0  0  0  0  0  0  0
   53.8160   23.3310   45.2100 C   0  0  0  0  0  0  0  0  0  0  0  0
   52.8010   22.5960   45.3250 O   0  0  0  0  0  0  0  0  0  0  0  0
   54.9190   22.8680   44.5730 N   0  0  0  0  0  0  0  0  0  0  0  0
   56.0290   23.6380   44.4350 C   0  0  0  0  0  0  0  0  0  0  0  0
   57.0340   23.1530   43.8510 O   0  0  0  0  0  0  0  0  0  0  0  0
   56.0500   24.9510   44.9560 C   0  0  0  0  0  0  0  0  0  0  0  0
   57.2470   25.8260   44.8220 C   0  0  0  0  0  0  0  0  0  0  0  0
   58.1970   25.4740   44.0710 O   0  0  0  0  0  0  0  0  0  0  0  0
   57.3160   27.0650   45.5520 N   0  0  0  0  0  0  0  0  0  0  0  0
   57.1540   28.2720   45.0950 C   0  0  0  0  0  0  0  0  0  0  0  0
   55.9270   28.8120   44.9320 N   0  0  0  0  0  0  0  0  0  0  0  0
   55.9890   30.0780   44.4390 C   0  0  0  0  0  0  0  0  0  0  0  0
   55.0911   30.6789   44.2322 H   0  0  0  0  0  0  0  0  0  0  0  0
   57.2770   30.5530   44.2170 C   0  0  0  0  0  0  0  0  0  0  0  0
   57.6320   31.8740   43.6120 C   0  0  0  0  0  0  0  0  0  0  0  0
   58.4645   31.7390   42.9058 H   0  0  0  0  0  0  0  0  0  0  0  0
   56.7549   32.2758   43.0835 H   0  0  0  0  0  0  0  0  0  0  0  0
   58.0440   32.8400   44.6880 C   0  0  0  0  0  0  0  0  0  0  0  0
   58.9050   33.9100   44.3900 C   0  0  0  0  0  0  0  0  0  0  0  0
   59.2567   34.0593   43.3585 H   0  0  0  0  0  0  0  0  0  0  0  0
   59.3160   34.7850   45.3990 C   0  0  0  0  0  0  0  0  0  0  0  0
   59.9847   35.6248   45.1593 H   0  0  0  0  0  0  0  0  0  0  0  0
   58.8780   34.5940   46.7130 C   0  0  0  0  0  0  0  0  0  0  0  0
   59.1995   35.2858   47.5055 H   0  0  0  0  0  0  0  0  0  0  0  0
   58.0330   33.5260   47.0200 C   0  0  0  0  0  0  0  0  0  0  0  0
   57.6922   33.3755   48.0550 H   0  0  0  0  0  0  0  0  0  0  0  0
   57.6190   32.6470   46.0140 C   0  0  0  0  0  0  0  0  0  0  0  0
   56.9590   31.8024   46.2610 H   0  0  0  0  0  0  0  0  0  0  0  0
   58.3740   29.3440   44.6270 S   0  0  0  0  0  0  0  0  0  0  0  0
  1  2  1  0
  2  3  1  0
  3  4  1  0
  4  5  1  0
  5  6  2  0
  5  7  1  0
  7  8  1  0
  8  9  2  0
  8 10  1  0
 10 11  1  0
 11 12  2  0
 11 13  1  0
 13 14  2  0
 14 15  1  0
 15 16  1  0
 16 17  1  0
 16 18  2  0
 18 19  1  0
 19 20  1  0
 19 21  1  0
 19 22  1  0
 22 23  2  0
 23 24  1  0
 23 25  1  0
 25 26  1  0
 25 27  2  0
 27 28  1  0
 27 29  1  0
 29 30  1  0
 29 31  2  0
 31 32  1  0
 18 33  1  0
 10  3  2  0
 33 14  1  0
 31 22  1  0
M  CHG  3   4  -1   7  -1  15  -1
M  END
>  <UniqueID>  (23) 
21

>  <SMILES>  (23) 
O=C(/N=c1/[n-]cc(Cc2ccccc2)s1)c1c(O)[n-]c(=O)[n-]c1=O

>  <Energy>  (23) 
72.70577808157104

>  <Genealogy>  (23) 
O=C(N=c1[n-]cc(Cc2ccccc2)s1)c1c(O)[n-]c(=O)[n-]c1=O (protonated)
O=C(/N=c1/[n-]cc(Cc2ccccc2)s1)c1c(O)[n-]c(=O)[n-]c1=O (cis-trans isomerization)
O=C(/N=c1/[n-]cc(Cc2ccccc2)s1)c1c(O)[n-]c(=O)[n-]c1=O (3D coordinates assigned)
O=C(/N=c1/[n-]cc(Cc2ccccc2)s1)c1c(O)[n-]c(=O)[n-]c1=O (optimized conformer: 72.70577808157104 kcal/mol)

>  <smiles>  (23) 
O=C(N=c1[nH]cc(Cc2ccccc2)s1)c1c(O)[nH]c(=O)[nH]c1=O

>  <score_type>  (23) 
oracle

>  <origin>  (23) 
adg

>  <m_score__min__energy>  (23) 
-14.460000000000001

>  <m_primary>  (23) 
energy

$$$$
23:0
     RDKit          3D

 39 41  0  0  0  0  0  0  0  0999 V2000
   58.9650   27.5960   45.2780 O   0  0  0  0  0  0  0  0  0  0  0  0
   57.7190   27.4240   45.3630 C   0  0  0  0  0  0  0  0  0  0  0  0
   56.8120   28.3460   44.7370 N   0  0  0  0  0  0  0  0  0  0  0  0
   57.2000   29.6310   44.2230 C   0  0  0  0  0  0  0  0  0  0  0  0
   56.6730   30.0690   42.9990 C   0  0  0  0  0  0  0  0  0  0  0  0
   57.0190   31.3220   42.4900 C   0  0  0  0  0  0  0  0  0  0  0  0
   57.8790   32.1580   43.2040 C   0  0  0  0  0  0  0  0  0  0  0  0
   58.3870   31.7530   44.4510 C   0  0  0  0  0  0  0  0  0  0  0  0
   59.2330   32.5920   45.2520 N   0  0  0  0  0  0  0  0  0  0  0  0
   58.8150   34.1120   45.9840 S   0  0  0  0  0  0  0  0  0  0  0  0
   57.3790   34.1140   46.4250 O   0  0  0  0  0  0  0  0  0  0  0  0
   58.9910   35.1910   44.9550 O   0  0  0  0  0  0  0  0  0  0  0  0
   59.9000   34.4750   47.3590 C   0  0  0  0  0  0  0  0  0  0  0  0
   61.0320   33.4900   47.4370 C   0  0  0  0  0  0  0  0  0  0  0  0
   60.7770   32.1400   47.7330 C   0  0  0  0  0  0  0  0  0  0  0  0
   61.8250   31.2150   47.7560 C   0  0  0  0  0  0  0  0  0  0  0  0
   63.1320   31.6300   47.4810 C   0  0  0  0  0  0  0  0  0  0  0  0
   63.3930   32.9700   47.1870 C   0  0  0  0  0  0  0  0  0  0  0  0
   62.3480   33.8990   47.1650 C   0  0  0  0  0  0  0  0  0  0  0  0
   58.0450   30.4890   44.9510 C   0  0  0  0  0  0  0  0  0  0  0  0
   57.1940   26.2460   46.0720 C   0  0  0  0  0  0  0  0  0  0  0  0
   57.9290   25.2770   46.5590 O   0  0  0  0  0  0  0  0  0  0  0  0
   57.0980   24.4200   47.1110 C   0  0  0  0  0  0  0  0  0  0  0  0
   57.4780   23.3620   47.6760 O   0  0  0  0  0  0  0  0  0  0  0  0
   55.8010   24.7770   47.0160 N   0  0  0  0  0  0  0  0  0  0  0  0
   55.8780   25.9450   46.3510 C   0  0  0  0  0  0  0  0  0  0  0  0
   54.7720   26.7130   46.0080 O   0  0  0  0  0  0  0  0  0  0  0  0
   55.8300   28.0290   44.5690 H   0  0  0  0  0  0  0  0  0  0  0  0
   55.9834   29.4217   42.4373 H   0  0  0  0  0  0  0  0  0  0  0  0
   56.6124   31.6517   41.5226 H   0  0  0  0  0  0  0  0  0  0  0  0
   58.1604   33.1373   42.7896 H   0  0  0  0  0  0  0  0  0  0  0  0
   60.3134   35.4864   47.2317 H   0  0  0  0  0  0  0  0  0  0  0  0
   59.3163   34.4069   48.2888 H   0  0  0  0  0  0  0  0  0  0  0  0
   59.7497   31.8102   47.9472 H   0  0  0  0  0  0  0  0  0  0  0  0
   61.6214   30.1598   47.9906 H   0  0  0  0  0  0  0  0  0  0  0  0
   63.9550   30.9003   47.4963 H   0  0  0  0  0  0  0  0  0  0  0  0
   64.4217   33.2951   46.9725 H   0  0  0  0  0  0  0  0  0  0  0  0
   62.5573   34.9539   46.9339 H   0  0  0  0  0  0  0  0  0  0  0  0
   58.4419   30.1639   45.9240 H   0  0  0  0  0  0  0  0  0  0  0  0
  1  2  2  0
  2  3  1  0
  3  4  1  0
  4  5  2  0
  5  6  1  0
  6  7  2  0
  7  8  1  0
  8  9  1  0
  9 10  1  0
 10 11  2  0
 10 12  2  0
 10 13  1  0
 13 14  1  0
 14 15  2  0
 15 16  1  0
 16 17  2  0
 17 18  1  0
 18 19  2  0
  8 20  2  0
  2 21  1  0
 21 22  1  0
 22 23  1  0
 23 24  2  0
 23 25  1  0
 25 26  1  0
 26 27  1  0
 20  4  1  0
 26 21  2  0
 19 14  1  0
  3 28  1  0
  5 29  1  0
  6 30  1  0
  7 31  1  0
 13 32  1  0
 13 33  1  0
 15 34  1  0
 16 35  1  0
 17 36  1  0
 18 37  1  0
 19 38  1  0
 20 39  1  0
M  CHG  3   9  -1  25  -1  27  -1
M  END
>  <UniqueID>  (24) 
22

>  <SMILES>  (24) 
O=C(Nc1cccc([N-]S(=O)(=O)Cc2ccccc2)c1)c1oc(=O)[n-]c1[O-]

>  <Energy>  (24) 
73.48012611512623

>  <Genealogy>  (24) 
O=C(Nc1cccc([N-]S(=O)(=O)Cc2ccccc2)c1)c1oc(=O)[n-]c1[O-] (protonated)
O=C(Nc1cccc([N-]S(=O)(=O)Cc2ccccc2)c1)c1oc(=O)[n-]c1[O-] (3D coordinates assigned)
O=C(Nc1cccc([N-]S(=O)(=O)Cc2ccccc2)c1)c1oc(=O)[n-]c1[O-] (optimized conformer: 73.48012611512623 kcal/mol)

>  <smiles>  (24) 
O=C(Nc1cccc(NS(=O)(=O)Cc2ccccc2)c1)c1oc(=O)[nH]c1O

>  <score_type>  (24) 
oracle

>  <origin>  (24) 
adg

>  <m_score__min__energy>  (24) 
-16.140000000000001

>  <m_primary>  (24) 
energy

$$$$
24:0
     RDKit          3D

 47 48  0  0  0  0  0  0  0  0999 V2000
   54.4640   24.3690   45.1730 C   0  0  0  0  0  0  0  0  0  0  0  0
   55.5170   24.6090   46.2500 C   0  0  0  0  0  0  0  0  0  0  0  0
   56.4970   25.6010   45.8090 N   0  0  0  0  0  0  0  0  0  0  0  0
   57.4430   25.3110   44.7730 C   0  0  0  0  0  0  0  0  0  0  0  0
   57.4920   24.1600   44.2610 O   0  0  0  0  0  0  0  0  0  0  0  0
   58.3260   26.3960   44.2380 C   0  0  0  0  0  0  0  0  0  0  0  0
   58.3220   27.5390   45.1540 N   0  0  0  0  0  0  0  0  0  0  0  0
   57.7870   28.7990   44.7240 C   0  0  0  0  0  0  0  0  0  0  0  0
   58.6500   29.7890   44.2260 C   0  0  0  0  0  0  0  0  0  0  0  0
   58.1370   31.0080   43.7750 C   0  0  0  0  0  0  0  0  0  0  0  0
   56.7600   31.2450   43.8150 C   0  0  0  0  0  0  0  0  0  0  0  0
   55.8950   30.2630   44.3060 C   0  0  0  0  0  0  0  0  0  0  0  0
   56.4040   29.0400   44.7600 C   0  0  0  0  0  0  0  0  0  0  0  0
   55.5320   28.0760   45.2500 O   0  0  0  0  0  0  0  0  0  0  0  0
   59.0130   27.4040   46.7450 S   0  0  0  0  0  0  0  0  0  0  0  0
   57.9580   26.9660   47.7220 O   0  0  0  0  0  0  0  0  0  0  0  0
   60.1020   26.3670   46.7230 O   0  0  0  0  0  0  0  0  0  0  0  0
   59.6840   28.9410   47.2310 N   0  0  0  0  0  0  0  0  0  0  0  0
   58.5970   29.8960   47.5260 C   0  0  0  0  0  0  0  0  0  0  0  0
   59.1100   31.0530   48.3900 C   0  0  0  0  0  0  0  0  0  0  0  0
   59.5610   30.5720   49.7170 N   0  0  0  0  0  0  0  0  0  0  0  0
   60.5470   31.4990   50.2930 C   0  0  0  0  0  0  0  0  0  0  0  0
   60.0680   29.1780   49.7070 C   0  0  0  0  0  0  0  0  0  0  0  0
   60.6540   28.7760   48.3420 C   0  0  0  0  0  0  0  0  0  0  0  0
   53.4969   24.1486   45.6484 H   0  0  0  0  0  0  0  0  0  0  0  0
   54.3683   25.2684   44.5469 H   0  0  0  0  0  0  0  0  0  0  0  0
   54.7674   23.5170   44.5469 H   0  0  0  0  0  0  0  0  0  0  0  0
   55.0224   24.9723   47.1629 H   0  0  0  0  0  0  0  0  0  0  0  0
   56.0400   23.6617   46.4478 H   0  0  0  0  0  0  0  0  0  0  0  0
   56.4910   26.5610   46.2270 H   0  0  0  0  0  0  0  0  0  0  0  0
   59.3524   26.0139   44.1361 H   0  0  0  0  0  0  0  0  0  0  0  0
   57.9498   26.7178   43.2557 H   0  0  0  0  0  0  0  0  0  0  0  0
   59.7338   29.6040   44.1909 H   0  0  0  0  0  0  0  0  0  0  0  0
   58.8170   31.7814   43.3884 H   0  0  0  0  0  0  0  0  0  0  0  0
   56.3569   32.2049   43.4599 H   0  0  0  0  0  0  0  0  0  0  0  0
   54.8117   30.4514   44.3359 H   0  0  0  0  0  0  0  0  0  0  0  0
   58.2038   30.2983   46.5807 H   0  0  0  0  0  0  0  0  0  0  0  0
   57.8039   29.3690   48.0766 H   0  0  0  0  0  0  0  0  0  0  0  0
   59.9548   31.5364   47.8775 H   0  0  0  0  0  0  0  0  0  0  0  0
   58.2870   31.7673   48.5398 H   0  0  0  0  0  0  0  0  0  0  0  0
   60.4969   31.4519   51.3908 H   0  0  0  0  0  0  0  0  0  0  0  0
   61.5560   31.2148   49.9595 H   0  0  0  0  0  0  0  0  0  0  0  0
   60.3256   32.5236   49.9595 H   0  0  0  0  0  0  0  0  0  0  0  0
   60.8540   29.0826   50.4706 H   0  0  0  0  0  0  0  0  0  0  0  0
   59.2188   28.5110   49.9167 H   0  0  0  0  0  0  0  0  0  0  0  0
   61.5333   29.4046   48.1377 H   0  0  0  0  0  0  0  0  0  0  0  0
   60.9195   27.7099   48.3955 H   0  0  0  0  0  0  0  0  0  0  0  0
  1  2  1  0
  2  3  1  0
  3  4  1  0
  4  5  2  0
  4  6  1  0
  6  7  1  0
  7  8  1  0
  8  9  2  0
  9 10  1  0
 10 11  2  0
 11 12  1  0
 12 13  2  0
 13 14  1  0
  7 15  1  0
 15 16  2  0
 15 17  2  0
 15 18  1  0
 18 19  1  0
 19 20  1  0
 20 21  1  0
 21 22  1  0
 21 23  1  0
 23 24  1  0
 13  8  1  0
 24 18  1  0
  1 25  1  0
  1 26  1  0
  1 27  1  0
  2 28  1  0
  2 29  1  0
  3 30  1  0
  6 31  1  0
  6 32  1  0
  9 33  1  0
 10 34  1  0
 11 35  1  0
 12 36  1  0
 19 37  1  0
 19 38  1  0
 20 39  1  0
 20 40  1  0
 22 41  1  0
 22 42  1  0
 22 43  1  0
 23 44  1  0
 23 45  1  0
 24 46  1  0
 24 47  1  0
M  CHG  1  14  -1
M  END
>  <UniqueID>  (25) 
23

>  <SMILES>  (25) 
CCNC(=O)CN(c1ccccc1[O-])S(=O)(=O)N1CCN(C)CC1

>  <Energy>  (25) 
53.14277178328843

>  <Genealogy>  (25) 
CCNC(=O)CN(c1ccccc1[O-])S(=O)(=O)N1CCN(C)CC1 (protonated)
CCNC(=O)CN(c1ccccc1[O-])S(=O)(=O)N1CCN(C)CC1 (3D coordinates assigned)
CCNC(=O)CN(c1ccccc1[O-])S(=O)(=O)N1CCN(C)CC1 (nonaromatic ring conformer: 53.14277178328843 kcal/mol)

>  <smiles>  (25) 
CCNC(=O)CN(c1ccccc1O)S(=O)(=O)N1CCN(C)CC1

>  <score_type>  (25) 
oracle

>  <origin>  (25) 
adg

>  <m_score__min__energy>  (25) 
-10.84

>  <m_primary>  (25) 
energy

$$$$
25:0
     RDKit          3D

 33 35  0  0  0  0  0  0  0  0999 V2000
   55.6440   30.0650   44.9230 O   0  0  0  0  0  0  0  0  0  0  0  0
   56.6900   30.3890   44.3020 C   0  0  0  0  0  0  0  0  0  0  0  0
   57.6660   29.3200   43.9030 C   0  0  0  0  0  0  0  0  0  0  0  0
   58.7060   28.8230   45.3190 S   0  0  0  0  0  0  0  0  0  0  0  0
   57.8060   27.3100   45.6460 C   0  0  0  0  0  0  0  0  0  0  0  0
   58.4950   26.1470   45.8900 N   0  0  0  0  0  0  0  0  0  0  0  0
   57.8390   24.9770   46.1460 C   0  0  0  0  0  0  0  0  0  0  0  0
   58.4810   23.9170   46.3710 O   0  0  0  0  0  0  0  0  0  0  0  0
   56.4530   25.0000   46.1470 C   0  0  0  0  0  0  0  0  0  0  0  0
   55.4730   24.0610   46.3540 C   0  0  0  0  0  0  0  0  0  0  0  0
   54.2730   24.6790   46.2250 N   0  0  0  0  0  0  0  0  0  0  0  0
   54.4640   25.9670   45.9460 N   0  0  0  0  0  0  0  0  0  0  0  0
   55.7920   26.1560   45.8990 C   0  0  0  0  0  0  0  0  0  0  0  0
   56.4380   27.3190   45.6460 N   0  0  0  0  0  0  0  0  0  0  0  0
   56.9290   31.7750   44.0280 N   0  0  0  0  0  0  0  0  0  0  0  0
   58.2470   32.3600   43.8110 C   0  0  0  0  0  0  0  0  0  0  0  0
   58.6050   33.2390   44.9790 C   0  0  0  0  0  0  0  0  0  0  0  0
   59.1590   34.5090   44.7400 C   0  0  0  0  0  0  0  0  0  0  0  0
   59.4940   35.3490   45.8040 C   0  0  0  0  0  0  0  0  0  0  0  0
   59.2750   34.9340   47.1180 C   0  0  0  0  0  0  0  0  0  0  0  0
   58.7150   33.6810   47.3710 C   0  0  0  0  0  0  0  0  0  0  0  0
   58.3710   32.8290   46.3150 C   0  0  0  0  0  0  0  0  0  0  0  0
   57.7990   31.5930   46.6250 O   0  0  0  0  0  0  0  0  0  0  0  0
   57.1104   28.4431   43.5393 H   0  0  0  0  0  0  0  0  0  0  0  0
   58.3181   29.7181   43.1116 H   0  0  0  0  0  0  0  0  0  0  0  0
   55.6328   22.9972   46.5835 H   0  0  0  0  0  0  0  0  0  0  0  0
   58.9929   31.5573   43.7142 H   0  0  0  0  0  0  0  0  0  0  0  0
   58.2337   32.9617   42.8902 H   0  0  0  0  0  0  0  0  0  0  0  0
   59.3300   34.8437   43.7062 H   0  0  0  0  0  0  0  0  0  0  0  0
   59.9310   36.3389   45.6060 H   0  0  0  0  0  0  0  0  0  0  0  0
   59.5440   35.5949   47.9551 H   0  0  0  0  0  0  0  0  0  0  0  0
   58.5425   33.3602   48.4089 H   0  0  0  0  0  0  0  0  0  0  0  0
   57.0120   31.2040   46.1220 H   0  0  0  0  0  0  0  0  0  0  0  0
  1  2  2  0
  2  3  1  0
  3  4  1  0
  4  5  1  0
  5  6  2  0
  6  7  1  0
  7  8  2  0
  7  9  1  0
  9 10  2  0
 10 11  1  0
 11 12  1  0
 12 13  2  0
 13 14  1  0
  2 15  1  0
 15 16  1  0
 16 17  1  0
 17 18  2  0
 18 19  1  0
 19 20  2  0
 20 21  1  0
 21 22  2  0
 22 23  1  0
 14  5  1  0
 22 17  1  0
 13  9  1  0
  3 24  1  0
  3 25  1  0
 10 26  1  0
 16 27  1  0
 16 28  1  0
 18 29  1  0
 19 30  1  0
 20 31  1  0
 21 32  1  0
 23 33  1  0
M  CHG  3  11  -1  14  -1  15  -1
M  END
>  <UniqueID>  (26) 
24

>  <SMILES>  (26) 
O=C(CSc1nc(=O)c2c[n-]nc2[n-]1)[N-]Cc1ccccc1O

>  <Energy>  (26) 
71.58331077445854

>  <Genealogy>  (26) 
O=C(CSc1nc(=O)c2c[n-]nc2[n-]1)[N-]Cc1ccccc1O (protonated)
O=C(CSc1nc(=O)c2c[n-]nc2[n-]1)[N-]Cc1ccccc1O (3D coordinates assigned)
O=C(CSc1nc(=O)c2c[n-]nc2[n-]1)[N-]Cc1ccccc1O (optimized conformer: 71.58331077445854 kcal/mol)

>  <smiles>  (26) 
O=C(CSc1nc(=O)c2c[nH]nc2[nH]1)NCc1ccccc1O

>  <score_type>  (26) 
oracle

>  <origin>  (26) 
adg

>  <m_score__min__energy>  (26) 
-13.31

>  <m_primary>  (26) 
energy

$$$$
26:0
     RDKit          3D

 41 42  0  0  0  0  0  0  0  0999 V2000
   59.6410   35.5640   46.2190 C   0  0  0  0  0  0  0  0  0  0  0  0
   59.2630   34.9730   44.9010 C   0  0  0  0  0  0  0  0  0  0  0  0
   58.2060   34.1590   44.7910 C   0  0  0  0  0  0  0  0  0  0  0  0
   58.3300   32.6890   44.7050 C   0  0  0  0  0  0  0  0  0  0  0  0
   58.6650   31.8660   45.7240 C   0  0  0  0  0  0  0  0  0  0  0  0
   58.0790   30.4980   45.7880 C   0  0  0  0  0  0  0  0  0  0  0  0
   57.0320   30.1200   44.9290 C   0  0  0  0  0  0  0  0  0  0  0  0
   56.4970   28.8300   44.9860 C   0  0  0  0  0  0  0  0  0  0  0  0
   57.0000   27.8890   45.9000 C   0  0  0  0  0  0  0  0  0  0  0  0
   56.4370   26.5210   45.9630 C   0  0  0  0  0  0  0  0  0  0  0  0
   57.1960   25.5160   45.9900 O   0  0  0  0  0  0  0  0  0  0  0  0
   55.0610   26.3270   45.9920 O   0  0  0  0  0  0  0  0  0  0  0  0
   58.0490   28.2630   46.7540 C   0  0  0  0  0  0  0  0  0  0  0  0
   58.5850   29.5530   46.6970 C   0  0  0  0  0  0  0  0  0  0  0  0
   59.5560   32.3040   46.8300 C   0  0  0  0  0  0  0  0  0  0  0  0
   59.0120   32.9340   47.9600 C   0  0  0  0  0  0  0  0  0  0  0  0
   59.8430   33.3570   49.0010 C   0  0  0  0  0  0  0  0  0  0  0  0
   61.2290   33.1680   48.9170 C   0  0  0  0  0  0  0  0  0  0  0  0
   62.2730   33.6770   50.2400 S   0  0  0  0  0  0  0  0  0  0  0  0
   63.5560   32.4680   50.4770 C   0  0  0  0  0  0  0  0  0  0  0  0
   61.4710   33.8110   51.5030 O   0  0  0  0  0  0  0  0  0  0  0  0
   62.8910   35.0090   49.9160 O   0  0  0  0  0  0  0  0  0  0  0  0
   61.7770   32.5490   47.7880 C   0  0  0  0  0  0  0  0  0  0  0  0
   60.9470   32.1260   46.7450 C   0  0  0  0  0  0  0  0  0  0  0  0
   59.2406   34.9379   47.0300 H   0  0  0  0  0  0  0  0  0  0  0  0
   60.7371   35.6108   46.2990 H   0  0  0  0  0  0  0  0  0  0  0  0
   59.2238   36.5787   46.2990 H   0  0  0  0  0  0  0  0  0  0  0  0
   59.8610   35.2096   44.0086 H   0  0  0  0  0  0  0  0  0  0  0  0
   57.2005   34.6041   44.7634 H   0  0  0  0  0  0  0  0  0  0  0  0
   58.1327   32.2243   43.7277 H   0  0  0  0  0  0  0  0  0  0  0  0
   56.6306   30.8455   44.2061 H   0  0  0  0  0  0  0  0  0  0  0  0
   55.6758   28.5494   44.3101 H   0  0  0  0  0  0  0  0  0  0  0  0
   58.4526   27.5356   47.4737 H   0  0  0  0  0  0  0  0  0  0  0  0
   59.4100   29.8308   47.3695 H   0  0  0  0  0  0  0  0  0  0  0  0
   57.9260   33.0957   48.0266 H   0  0  0  0  0  0  0  0  0  0  0  0
   59.4080   33.8396   49.8886 H   0  0  0  0  0  0  0  0  0  0  0  0
   63.7199   32.3135   51.5537 H   0  0  0  0  0  0  0  0  0  0  0  0
   63.2548   31.5177   50.0119 H   0  0  0  0  0  0  0  0  0  0  0  0
   64.4867   32.8250   50.0119 H   0  0  0  0  0  0  0  0  0  0  0  0
   62.8640   32.3947   47.7207 H   0  0  0  0  0  0  0  0  0  0  0  0
   61.3851   31.6519   45.8543 H   0  0  0  0  0  0  0  0  0  0  0  0
  1  2  1  0
  2  3  2  3
  3  4  1  0
  4  5  2  3
  5  6  1  0
  6  7  2  0
  7  8  1  0
  8  9  2  0
  9 10  1  0
 10 11  2  0
 10 12  1  0
  9 13  1  0
 13 14  2  0
  5 15  1  0
 15 16  2  0
 16 17  1  0
 17 18  2  0
 18 19  1  0
 19 20  1  0
 19 21  2  0
 19 22  2  0
 18 23  1  0
 23 24  2  0
 14  6  1  0
 24 15  1  0
  1 25  1  0
  1 26  1  0
  1 27  1  0
  2 28  1  0
  3 29  1  0
  4 30  1  0
  7 31  1  0
  8 32  1  0
 13 33  1  0
 14 34  1  0
 16 35  1  0
 17 36  1  0
 20 37  1  0
 20 38  1  0
 20 39  1  0
 23 40  1  0
 24 41  1  0
M  CHG  1  12  -1
M  END
>  <UniqueID>  (27) 
25

>  <SMILES>  (27) 
CC=CC=C(c1ccc(C(=O)[O-])cc1)c1ccc(S(C)(=O)=O)cc1

>  <Energy>  (27) 
50.47322499984709

>  <Genealogy>  (27) 
CC=CC=C(c1ccc(C(=O)[O-])cc1)c1ccc(S(C)(=O)=O)cc1 (protonated)
CC=CC=C(c1ccc(C(=O)[O-])cc1)c1ccc(S(C)(=O)=O)cc1 (3D coordinates assigned)
CC=CC=C(c1ccc(C(=O)[O-])cc1)c1ccc(S(C)(=O)=O)cc1 (optimized conformer: 50.47322499984709 kcal/mol)

>  <smiles>  (27) 
CC=CC=C(c1ccc(C(=O)O)cc1)c1ccc(S(C)(=O)=O)cc1

>  <score_type>  (27) 
oracle

>  <origin>  (27) 
adg

>  <m_score__min__energy>  (27) 
-9.7400000000000002

>  <m_primary>  (27) 
energy

$$$$
27:0
     RDKit          3D

 53 56  0  0  0  0  0  0  0  0999 V2000
   59.2564   29.9848   47.4923 H   0  0  0  0  0  0  0  0  0  0  0  0
   59.0000   28.9210   47.3800 C   0  0  0  0  0  0  0  0  0  0  0  0
   59.6760   27.9660   48.2810 C   0  0  0  0  0  0  0  0  0  0  0  0
   60.2330   26.9300   47.8280 O   0  0  0  0  0  0  0  0  0  0  0  0
   59.6820   28.2390   49.6870 N   0  0  0  0  0  0  0  0  0  0  0  0
   60.8350   28.3680   50.5310 C   0  0  0  0  0  0  0  0  0  0  0  0
   61.2570   27.3200   51.3710 C   0  0  0  0  0  0  0  0  0  0  0  0
   60.6959   26.3740   51.3902 H   0  0  0  0  0  0  0  0  0  0  0  0
   62.3860   27.4760   52.1810 C   0  0  0  0  0  0  0  0  0  0  0  0
   62.7152   26.6499   52.8284 H   0  0  0  0  0  0  0  0  0  0  0  0
   63.0960   28.6770   52.1700 C   0  0  0  0  0  0  0  0  0  0  0  0
   63.9905   28.7924   52.7998 H   0  0  0  0  0  0  0  0  0  0  0  0
   62.6720   29.7330   51.3600 C   0  0  0  0  0  0  0  0  0  0  0  0
   63.2307   30.6805   51.3573 H   0  0  0  0  0  0  0  0  0  0  0  0
   61.5360   29.5890   50.5500 C   0  0  0  0  0  0  0  0  0  0  0  0
   61.1180   30.6830   49.7240 N   0  0  0  0  0  0  0  0  0  0  0  0
   61.7110   30.8480   48.3920 C   0  0  0  0  0  0  0  0  0  0  0  0
   62.8070   30.8275   48.4834 H   0  0  0  0  0  0  0  0  0  0  0  0
   61.3566   30.0267   47.7517 H   0  0  0  0  0  0  0  0  0  0  0  0
   61.2890   32.1750   47.7510 C   0  0  0  0  0  0  0  0  0  0  0  0
   61.8131   33.0009   48.2542 H   0  0  0  0  0  0  0  0  0  0  0  0
   61.5505   32.1485   46.6829 H   0  0  0  0  0  0  0  0  0  0  0  0
   59.8370   32.3790   47.8750 N   0  0  0  0  0  0  0  0  0  0  0  0
   59.1120   33.0860   46.8430 C   0  0  0  0  0  0  0  0  0  0  0  0
   57.7120   32.9800   46.7520 C   0  0  0  0  0  0  0  0  0  0  0  0
   57.1640   32.3518   47.4697 H   0  0  0  0  0  0  0  0  0  0  0  0
   57.0120   33.6680   45.7550 C   0  0  0  0  0  0  0  0  0  0  0  0
   55.9177   33.5768   45.6904 H   0  0  0  0  0  0  0  0  0  0  0  0
   57.6990   34.4700   44.8420 C   0  0  0  0  0  0  0  0  0  0  0  0
   57.1468   35.0092   44.0582 H   0  0  0  0  0  0  0  0  0  0  0  0
   59.0890   34.5870   44.9250 C   0  0  0  0  0  0  0  0  0  0  0  0
   59.6303   35.2198   44.2062 H   0  0  0  0  0  0  0  0  0  0  0  0
   59.7930   33.9020   45.9190 C   0  0  0  0  0  0  0  0  0  0  0  0
   60.8868   34.0009   45.9802 H   0  0  0  0  0  0  0  0  0  0  0  0
   59.1390   31.9950   49.1140 C   0  0  0  0  0  0  0  0  0  0  0  0
   58.5162   32.8378   49.4483 H   0  0  0  0  0  0  0  0  0  0  0  0
   58.5220   31.1098   48.9001 H   0  0  0  0  0  0  0  0  0  0  0  0
   60.1230   31.6330   50.2280 C   0  0  0  0  0  0  0  0  0  0  0  0
   60.6318   32.5441   50.5758 H   0  0  0  0  0  0  0  0  0  0  0  0
   59.5729   31.1733   51.0623 H   0  0  0  0  0  0  0  0  0  0  0  0
   58.1000   28.6040   46.4360 C   0  0  0  0  0  0  0  0  0  0  0  0
   57.5817   27.6389   46.5362 H   0  0  0  0  0  0  0  0  0  0  0  0
   57.7480   29.4460   45.2720 C   0  0  0  0  0  0  0  0  0  0  0  0
   58.6620   30.3880   44.7650 C   0  0  0  0  0  0  0  0  0  0  0  0
   59.6629   30.4750   45.2130 H   0  0  0  0  0  0  0  0  0  0  0  0
   58.3050   31.2140   43.6950 C   0  0  0  0  0  0  0  0  0  0  0  0
   59.0301   31.9366   43.2925 H   0  0  0  0  0  0  0  0  0  0  0  0
   57.0280   31.1220   43.1370 C   0  0  0  0  0  0  0  0  0  0  0  0
   56.7505   31.7683   42.2912 H   0  0  0  0  0  0  0  0  0  0  0  0
   56.1030   30.2110   43.6510 C   0  0  0  0  0  0  0  0  0  0  0  0
   55.0954   30.1467   43.2144 H   0  0  0  0  0  0  0  0  0  0  0  0
   56.4550   29.3790   44.7210 C   0  0  0  0  0  0  0  0  0  0  0  0
   55.5190   28.4810   45.2230 O   0  0  0  0  0  0  0  0  0  0  0  0
  1  2  1  0
  2  3  1  0
  3  4  2  0
  3  5  1  0
  5  6  1  0
  6  7  2  0
  7  8  1  0
  7  9  1  0
  9 10  1  0
  9 11  2  0
 11 12  1  0
 11 13  1  0
 13 14  1  0
 13 15  2  0
 15 16  1  0
 16 17  1  0
 17 18  1  0
 17 19  1  0
 17 20  1  0
 20 21  1  0
 20 22  1  0
 20 23  1  0
 23 24  1  0
 24 25  2  0
 25 26  1  0
 25 27  1  0
 27 28  1  0
 27 29  2  0
 29 30  1  0
 29 31  1  0
 31 32  1  0
 31 33  2  0
 33 34  1  0
 23 35  1  0
 35 36  1  0
 35 37  1  0
 35 38  1  0
 38 39  1  0
 38 40  1  0
  2 41  2  0
 41 42  1  0
 41 43  1  0
 43 44  2  0
 44 45  1  0
 44 46  1  0
 46 47  1  0
 46 48  2  0
 48 49  1  0
 48 50  1  0
 50 51  1  0
 50 52  2  0
 52 53  1  0
 15  6  1  0
 38 16  1  0
 52 43  1  0
 33 24  1  0
M  CHG  2   5  -1  53  -1
M  END
>  <UniqueID>  (28) 
26

>  <SMILES>  (28) 
O=C(/C=C\c1ccccc1[O-])[N-]c1ccccc1N1CCN(c2ccccc2)CC1

>  <Energy>  (28) 
77.46541503125316

>  <Genealogy>  (28) 
O=C(C=Cc1ccccc1[O-])[N-]c1ccccc1N1CCN(c2ccccc2)CC1 (protonated)
O=C(/C=C\c1ccccc1[O-])[N-]c1ccccc1N1CCN(c2ccccc2)CC1 (cis-trans isomerization)
O=C(/C=C\c1ccccc1[O-])[N-]c1ccccc1N1CCN(c2ccccc2)CC1 (3D coordinates assigned)
O=C(/C=C\c1ccccc1[O-])[N-]c1ccccc1N1CCN(c2ccccc2)CC1 (nonaromatic ring conformer: 77.46541503125316 kcal/mol)

>  <smiles>  (28) 
O=C(C=Cc1ccccc1O)Nc1ccccc1N1CCN(c2ccccc2)CC1

>  <score_type>  (28) 
oracle

>  <origin>  (28) 
adg

>  <m_score__min__energy>  (28) 
-13.9

>  <m_primary>  (28) 
energy

$$$$
28:0
     RDKit          3D

 64 67  0  0  0  0  0  0  0  0999 V2000
   56.4260   30.4770   43.8610 C   0  0  0  0  0  0  0  0  0  0  0  0
   57.8180   30.9060   43.3960 C   0  0  0  0  0  0  0  0  0  0  0  0
   58.8880   30.7680   44.4950 C   0  0  0  0  0  0  0  0  0  0  0  0
   59.6540   29.4340   44.4570 C   0  0  0  0  0  0  0  0  0  0  0  0
   58.7580   28.2350   44.6500 C   0  0  0  0  0  0  0  0  0  0  0  0
   58.8780   27.1150   43.9120 N   0  0  0  0  0  0  0  0  0  0  0  0
   57.9460   26.2710   44.3820 C   0  0  0  0  0  0  0  0  0  0  0  0
   57.6660   24.6340   43.7010 S   0  0  0  0  0  0  0  0  0  0  0  0
   58.2590   23.7870   45.1980 C   0  0  0  0  0  0  0  0  0  0  0  0
   57.2540   26.8860   45.4130 C   0  0  0  0  0  0  0  0  0  0  0  0
   56.1300   26.2900   46.1730 C   0  0  0  0  0  0  0  0  0  0  0  0
   54.9560   26.7040   45.9940 O   0  0  0  0  0  0  0  0  0  0  0  0
   56.3490   25.2960   47.1190 O   0  0  0  0  0  0  0  0  0  0  0  0
   57.7830   28.1260   45.5900 N   0  0  0  0  0  0  0  0  0  0  0  0
   57.4400   29.1210   46.6160 C   0  0  0  0  0  0  0  0  0  0  0  0
   58.6190   29.4020   47.5130 C   0  0  0  0  0  0  0  0  0  0  0  0
   59.5950   28.4140   47.7270 C   0  0  0  0  0  0  0  0  0  0  0  0
   60.6980   28.6770   48.5410 C   0  0  0  0  0  0  0  0  0  0  0  0
   60.8300   29.9210   49.1770 C   0  0  0  0  0  0  0  0  0  0  0  0
   62.0000   30.1900   50.0350 C   0  0  0  0  0  0  0  0  0  0  0  0
   62.1670   29.4100   51.1930 C   0  0  0  0  0  0  0  0  0  0  0  0
   63.2620   29.6100   52.0330 C   0  0  0  0  0  0  0  0  0  0  0  0
   64.2020   30.5940   51.7320 C   0  0  0  0  0  0  0  0  0  0  0  0
   64.0470   31.3860   50.5930 C   0  0  0  0  0  0  0  0  0  0  0  0
   62.9480   31.2050   49.7380 C   0  0  0  0  0  0  0  0  0  0  0  0
   62.7890   32.2810   48.3350 S   0  0  0  0  0  0  0  0  0  0  0  0
   64.0820   33.0080   48.0930 O   0  0  0  0  0  0  0  0  0  0  0  0
   62.4650   31.4560   47.1220 O   0  0  0  0  0  0  0  0  0  0  0  0
   61.5370   33.4580   48.5730 N   0  0  0  0  0  0  0  0  0  0  0  0
   60.6140   33.7220   47.6990 C   0  0  0  0  0  0  0  0  0  0  0  0
   59.2980   33.7420   48.0580 N   0  0  0  0  0  0  0  0  0  0  0  0
   58.3110   33.9880   47.1550 C   0  0  0  0  0  0  0  0  0  0  0  0
   58.6320   34.2260   45.8170 C   0  0  0  0  0  0  0  0  0  0  0  0
   59.9710   34.2120   45.4220 C   0  0  0  0  0  0  0  0  0  0  0  0
   60.9700   33.9610   46.3640 C   0  0  0  0  0  0  0  0  0  0  0  0
   62.2720   33.9310   45.9790 F   0  0  0  0  0  0  0  0  0  0  0  0
   59.8550   30.9060   48.9710 C   0  0  0  0  0  0  0  0  0  0  0  0
   58.7500   30.6440   48.1560 C   0  0  0  0  0  0  0  0  0  0  0  0
   56.3936   30.4670   44.9605 H   0  0  0  0  0  0  0  0  0  0  0  0
   55.6770   31.1860   43.4785 H   0  0  0  0  0  0  0  0  0  0  0  0
   56.2060   29.4694   43.4785 H   0  0  0  0  0  0  0  0  0  0  0  0
   58.1107   30.2790   42.5409 H   0  0  0  0  0  0  0  0  0  0  0  0
   57.7608   31.9703   43.1239 H   0  0  0  0  0  0  0  0  0  0  0  0
   59.6129   31.5869   44.3771 H   0  0  0  0  0  0  0  0  0  0  0  0
   58.3608   30.8055   45.4597 H   0  0  0  0  0  0  0  0  0  0  0  0
   60.1543   29.3445   43.4815 H   0  0  0  0  0  0  0  0  0  0  0  0
   60.3746   29.4440   45.2881 H   0  0  0  0  0  0  0  0  0  0  0  0
   59.5570   26.9300   43.1400 H   0  0  0  0  0  0  0  0  0  0  0  0
   57.8891   24.3153   46.0891 H   0  0  0  0  0  0  0  0  0  0  0  0
   57.8875   22.7517   45.2050 H   0  0  0  0  0  0  0  0  0  0  0  0
   59.3590   23.7819   45.2050 H   0  0  0  0  0  0  0  0  0  0  0  0
   57.1329   30.0550   46.1227 H   0  0  0  0  0  0  0  0  0  0  0  0
   56.6198   28.7216   47.2307 H   0  0  0  0  0  0  0  0  0  0  0  0
   59.4893   27.4282   47.2506 H   0  0  0  0  0  0  0  0  0  0  0  0
   61.4681   27.9048   48.6848 H   0  0  0  0  0  0  0  0  0  0  0  0
   61.4266   28.6344   51.4387 H   0  0  0  0  0  0  0  0  0  0  0  0
   63.3839   28.9907   52.9339 H   0  0  0  0  0  0  0  0  0  0  0  0
   65.0677   30.7468   52.3932 H   0  0  0  0  0  0  0  0  0  0  0  0
   64.7938   32.1602   50.3628 H   0  0  0  0  0  0  0  0  0  0  0  0
   57.2598   33.9995   47.4788 H   0  0  0  0  0  0  0  0  0  0  0  0
   57.8379   34.4225   45.0816 H   0  0  0  0  0  0  0  0  0  0  0  0
   60.2380   34.3983   44.3713 H   0  0  0  0  0  0  0  0  0  0  0  0
   59.9596   31.8894   49.4526 H   0  0  0  0  0  0  0  0  0  0  0  0
   57.9781   31.4153   48.0173 H   0  0  0  0  0  0  0  0  0  0  0  0
  1  2  1  0
  2  3  1  0
  3  4  1  0
  4  5  1  0
  5  6  2  0
  6  7  1  0
  7  8  1  0
  8  9  1  0
  7 10  2  0
 10 11  1  0
 11 12  2  0
 11 13  1  0
 10 14  1  0
 14 15  1  0
 15 16  1  0
 16 17  2  0
 17 18  1  0
 18 19  2  0
 19 20  1  0
 20 21  2  0
 21 22  1  0
 22 23  2  0
 23 24  1  0
 24 25  2  0
 25 26  1  0
 26 27  2  0
 26 28  2  0
 26 29  1  0
 29 30  2  3
 30 31  1  0
 31 32  1  0
 32 33  2  0
 33 34  1  0
 34 35  2  0
 35 36  1  0
 19 37  1  0
 37 38  2  0
 14  5  1  0
 38 16  1  0
 25 20  1  0
 35 30  1  0
  1 39  1  0
  1 40  1  0
  1 41  1  0
  2 42  1  0
  2 43  1  0
  3 44  1  0
  3 45  1  0
  4 46  1  0
  4 47  1  0
  6 48  1  0
  9 49  1  0
  9 50  1  0
  9 51  1  0
 15 52  1  0
 15 53  1  0
 17 54  1  0
 18 55  1  0
 21 56  1  0
 22 57  1  0
 23 58  1  0
 24 59  1  0
 32 60  1  0
 33 61  1  0
 34 62  1  0
 37 63  1  0
 38 64  1  0
M  CHG  3   6   1  13  -1  31  -1
M  END
>  <UniqueID>  (29) 
27

>  <SMILES>  (29) 
CCCCc1[nH+]c(SC)c(C(=O)[O-])n1Cc1ccc(-c2ccccc2S(=O)(=O)N=c2[n-]cccc2F)cc1

>  <Energy>  (29) 
99.5797678425954

>  <Genealogy>  (29) 
CCCCc1[nH+]c(SC)c(C(=O)[O-])n1Cc1ccc(-c2ccccc2S(=O)(=O)N=c2[n-]cccc2F)cc1 (protonated)
CCCCc1[nH+]c(SC)c(C(=O)[O-])n1Cc1ccc(-c2ccccc2S(=O)(=O)N=c2[n-]cccc2F)cc1 (3D coordinates assigned)
CCCCc1[nH+]c(SC)c(C(=O)[O-])n1Cc1ccc(-c2ccccc2S(=O)(=O)N=c2[n-]cccc2F)cc1 (optimized conformer: 99.5797678425954 kcal/mol)

>  <smiles>  (29) 
CCCCc1nc(SC)c(C(=O)O)n1Cc1ccc(-c2ccccc2S(=O)(=O)N=c2[nH]cccc2F)cc1

>  <score_type>  (29) 
oracle

>  <origin>  (29) 
adg

>  <m_score__min__energy>  (29) 
-10.81

>  <m_primary>  (29) 
energy

$$$$
29:0
     RDKit          3D

 45 47  0  0  0  0  0  0  0  0999 V2000
   52.9450   22.6580   46.6350 C   0  0  0  0  0  0  0  0  0  0  0  0
   54.0870   23.7360   45.8000 S   0  0  0  0  0  0  0  0  0  0  0  0
   53.4380   25.0700   45.5630 O   0  0  0  0  0  0  0  0  0  0  0  0
   54.4600   23.1260   44.4780 O   0  0  0  0  0  0  0  0  0  0  0  0
   55.5000   23.9530   46.7800 N   0  0  0  0  0  0  0  0  0  0  0  0
   56.5930   24.7810   46.3770 C   0  0  0  0  0  0  0  0  0  0  0  0
   57.8590   24.2030   46.2430 C   0  0  0  0  0  0  0  0  0  0  0  0
   58.9560   24.9830   45.8790 C   0  0  0  0  0  0  0  0  0  0  0  0
   58.7970   26.3490   45.6460 C   0  0  0  0  0  0  0  0  0  0  0  0
   57.5320   26.9500   45.7540 C   0  0  0  0  0  0  0  0  0  0  0  0
   57.3870   28.4050   45.4960 C   0  0  0  0  0  0  0  0  0  0  0  0
   56.3050   28.8960   44.7500 C   0  0  0  0  0  0  0  0  0  0  0  0
   56.1950   30.2260   44.4950 N   0  0  0  0  0  0  0  0  0  0  0  0
   57.1060   31.1250   44.9510 C   0  0  0  0  0  0  0  0  0  0  0  0
   56.9730   32.3420   44.6550 O   0  0  0  0  0  0  0  0  0  0  0  0
   58.1960   30.6890   45.7250 C   0  0  0  0  0  0  0  0  0  0  0  0
   59.2000   31.6330   46.2520 C   0  0  0  0  0  0  0  0  0  0  0  0
   60.3990   31.2590   46.3440 O   0  0  0  0  0  0  0  0  0  0  0  0
   58.8470   32.9470   46.7020 N   0  0  0  0  0  0  0  0  0  0  0  0
   59.6870   34.1380   46.5920 C   0  0  0  0  0  0  0  0  0  0  0  0
   61.0430   33.8970   47.2000 C   0  0  0  0  0  0  0  0  0  0  0  0
   62.1750   33.7940   46.3760 C   0  0  0  0  0  0  0  0  0  0  0  0
   63.4390   33.5820   46.9370 C   0  0  0  0  0  0  0  0  0  0  0  0
   63.5800   33.4730   48.3240 C   0  0  0  0  0  0  0  0  0  0  0  0
   64.8050   33.2670   48.8660 F   0  0  0  0  0  0  0  0  0  0  0  0
   62.4560   33.5680   49.1500 C   0  0  0  0  0  0  0  0  0  0  0  0
   61.1910   33.7790   48.5920 C   0  0  0  0  0  0  0  0  0  0  0  0
   58.3420   29.3180   45.9720 C   0  0  0  0  0  0  0  0  0  0  0  0
   56.4160   26.1540   46.0930 C   0  0  0  0  0  0  0  0  0  0  0  0
   55.1430   26.7260   46.0980 O   0  0  0  0  0  0  0  0  0  0  0  0
   53.0636   22.7700   47.7228 H   0  0  0  0  0  0  0  0  0  0  0  0
   51.9160   22.9218   46.3493 H   0  0  0  0  0  0  0  0  0  0  0  0
   53.1491   21.6155   46.3493 H   0  0  0  0  0  0  0  0  0  0  0  0
   57.9904   23.1263   46.4259 H   0  0  0  0  0  0  0  0  0  0  0  0
   59.9485   24.5202   45.7754 H   0  0  0  0  0  0  0  0  0  0  0  0
   59.6700   26.9611   45.3753 H   0  0  0  0  0  0  0  0  0  0  0  0
   55.5420   28.2008   44.3697 H   0  0  0  0  0  0  0  0  0  0  0  0
   59.8093   34.3956   45.5296 H   0  0  0  0  0  0  0  0  0  0  0  0
   59.2004   34.9625   47.1337 H   0  0  0  0  0  0  0  0  0  0  0  0
   62.0677   33.8803   45.2847 H   0  0  0  0  0  0  0  0  0  0  0  0
   64.3224   33.5010   46.2866 H   0  0  0  0  0  0  0  0  0  0  0  0
   62.5668   33.4766   50.2406 H   0  0  0  0  0  0  0  0  0  0  0  0
   60.3091   33.8528   49.2453 H   0  0  0  0  0  0  0  0  0  0  0  0
   59.2096   28.9544   46.5421 H   0  0  0  0  0  0  0  0  0  0  0  0
   54.3150   26.2130   46.3710 H   0  0  0  0  0  0  0  0  0  0  0  0
  1  2  1  0
  2  3  2  0
  2  4  2  0
  2  5  1  0
  5  6  1  0
  6  7  2  0
  7  8  1  0
  8  9  2  0
  9 10  1  0
 10 11  1  0
 11 12  2  0
 12 13  1  0
 13 14  1  0
 14 15  2  0
 14 16  1  0
 16 17  1  0
 17 18  2  0
 17 19  1  0
 19 20  1  0
 20 21  1  0
 21 22  2  0
 22 23  1  0
 23 24  2  0
 24 25  1  0
 24 26  1  0
 26 27  2  0
 16 28  2  0
 10 29  2  0
 29 30  1  0
 29  6  1  0
 28 11  1  0
 27 21  1  0
  1 31  1  0
  1 32  1  0
  1 33  1  0
  7 34  1  0
  8 35  1  0
  9 36  1  0
 12 37  1  0
 20 38  1  0
 20 39  1  0
 22 40  1  0
 23 41  1  0
 26 42  1  0
 27 43  1  0
 28 44  1  0
 30 45  1  0
M  CHG  3   5  -1  13  -1  19  -1
M  END
>  <UniqueID>  (30) 
28

>  <SMILES>  (30) 
CS(=O)(=O)[N-]c1cccc(-c2c[n-]c(=O)c(C(=O)[N-]Cc3ccc(F)cc3)c2)c1O

>  <Energy>  (30) 
62.405329272103124

>  <Genealogy>  (30) 
CS(=O)(=O)[N-]c1cccc(-c2c[n-]c(=O)c(C(=O)[N-]Cc3ccc(F)cc3)c2)c1O (protonated)
CS(=O)(=O)[N-]c1cccc(-c2c[n-]c(=O)c(C(=O)[N-]Cc3ccc(F)cc3)c2)c1O (3D coordinates assigned)
CS(=O)(=O)[N-]c1cccc(-c2c[n-]c(=O)c(C(=O)[N-]Cc3ccc(F)cc3)c2)c1O (optimized conformer: 62.405329272103124 kcal/mol)

>  <smiles>  (30) 
CS(=O)(=O)Nc1cccc(-c2c[nH]c(=O)c(C(=O)NCc3ccc(F)cc3)c2)c1O

>  <score_type>  (30) 
oracle

>  <origin>  (30) 
adg

>  <m_score__min__energy>  (30) 
-13.99

>  <m_primary>  (30) 
energy

$$$$
30:0
     RDKit          3D

 41 43  0  0  0  0  0  0  0  0999 V2000
   52.9180   24.2990   45.2110 C   0  0  0  0  0  0  0  0  0  0  0  0
   53.8180   25.3320   45.6000 O   0  0  0  0  0  0  0  0  0  0  0  0
   55.1520   25.1210   45.9830 C   0  0  0  0  0  0  0  0  0  0  0  0
   55.6340   23.8500   46.3470 C   0  0  0  0  0  0  0  0  0  0  0  0
   56.9650   23.6860   46.7360 C   0  0  0  0  0  0  0  0  0  0  0  0
   57.8250   24.7840   46.7740 C   0  0  0  0  0  0  0  0  0  0  0  0
   57.3660   26.0600   46.4130 C   0  0  0  0  0  0  0  0  0  0  0  0
   58.3120   27.2320   46.4840 C   0  0  0  0  0  0  0  0  0  0  0  0
   58.9100   27.7150   44.8260 S   0  0  0  0  0  0  0  0  0  0  0  0
   58.0400   29.2810   44.7970 C   0  0  0  0  0  0  0  0  0  0  0  0
   56.7470   29.4180   44.4340 N   0  0  0  0  0  0  0  0  0  0  0  0
   56.3170   30.6770   44.4510 N   0  0  0  0  0  0  0  0  0  0  0  0
   57.2730   31.5500   44.8400 C   0  0  0  0  0  0  0  0  0  0  0  0
   57.0120   33.3160   44.9770 S   0  0  0  0  0  0  0  0  0  0  0  0
   57.3650   33.3850   46.7680 C   0  0  0  0  0  0  0  0  0  0  0  0
   58.8500   33.3730   47.0020 C   0  0  0  0  0  0  0  0  0  0  0  0
   59.6950   34.1690   46.2120 C   0  0  0  0  0  0  0  0  0  0  0  0
   61.0720   34.1960   46.4560 C   0  0  0  0  0  0  0  0  0  0  0  0
   61.6140   33.4370   47.5000 C   0  0  0  0  0  0  0  0  0  0  0  0
   63.0290   33.4710   47.7580 C   0  0  0  0  0  0  0  0  0  0  0  0
   64.1680   33.4990   47.9660 N   0  0  0  0  0  0  0  0  0  0  0  0
   60.7740   32.6500   48.2980 C   0  0  0  0  0  0  0  0  0  0  0  0
   59.4000   32.6150   48.0480 C   0  0  0  0  0  0  0  0  0  0  0  0
   58.7300   30.7710   45.1690 S   0  0  0  0  0  0  0  0  0  0  0  0
   56.0230   26.2210   46.0100 C   0  0  0  0  0  0  0  0  0  0  0  0
   55.5450   27.4740   45.6400 O   0  0  0  0  0  0  0  0  0  0  0  0
   52.5002   23.8195   46.1085 H   0  0  0  0  0  0  0  0  0  0  0  0
   52.1021   24.7298   44.6120 H   0  0  0  0  0  0  0  0  0  0  0  0
   53.4565   23.5498   44.6120 H   0  0  0  0  0  0  0  0  0  0  0  0
   54.9591   22.9816   46.3250 H   0  0  0  0  0  0  0  0  0  0  0  0
   57.3365   22.6884   47.0132 H   0  0  0  0  0  0  0  0  0  0  0  0
   58.8701   24.6485   47.0891 H   0  0  0  0  0  0  0  0  0  0  0  0
   57.7884   28.0865   46.9376 H   0  0  0  0  0  0  0  0  0  0  0  0
   59.1808   26.9367   47.0907 H   0  0  0  0  0  0  0  0  0  0  0  0
   56.1330   28.6200   44.1580 H   0  0  0  0  0  0  0  0  0  0  0  0
   56.9378   34.3076   47.1879 H   0  0  0  0  0  0  0  0  0  0  0  0
   56.9160   32.5084   47.2578 H   0  0  0  0  0  0  0  0  0  0  0  0
   59.2718   34.7745   45.3970 H   0  0  0  0  0  0  0  0  0  0  0  0
   61.7296   34.8141   45.8271 H   0  0  0  0  0  0  0  0  0  0  0  0
   61.1970   32.0583   49.1232 H   0  0  0  0  0  0  0  0  0  0  0  0
   58.7457   31.9904   48.6739 H   0  0  0  0  0  0  0  0  0  0  0  0
  1  2  1  0
  2  3  1  0
  3  4  2  0
  4  5  1  0
  5  6  2  0
  6  7  1  0
  7  8  1  0
  8  9  1  0
  9 10  1  0
 10 11  2  0
 11 12  1  0
 12 13  2  0
 13 14  1  0
 14 15  1  0
 15 16  1  0
 16 17  2  0
 17 18  1  0
 18 19  2  0
 19 20  1  0
 20 21  3  0
 19 22  1  0
 22 23  2  0
 13 24  1  0
  7 25  2  0
 25 26  1  0
 25  3  1  0
 24 10  1  0
 23 16  1  0
  1 27  1  0
  1 28  1  0
  1 29  1  0
  4 30  1  0
  5 31  1  0
  6 32  1  0
  8 33  1  0
  8 34  1  0
 11 35  1  0
 15 36  1  0
 15 37  1  0
 17 38  1  0
 18 39  1  0
 22 40  1  0
 23 41  1  0
M  CHG  2  11   1  26  -1
M  END
>  <UniqueID>  (31) 
29

>  <SMILES>  (31) 
COc1cccc(CSc2[nH+]nc(SCc3ccc(C#N)cc3)s2)c1[O-]

>  <Energy>  (31) 
65.11157590213455

>  <Genealogy>  (31) 
COc1cccc(CSc2[nH+]nc(SCc3ccc(C#N)cc3)s2)c1[O-] (protonated)
COc1cccc(CSc2[nH+]nc(SCc3ccc(C#N)cc3)s2)c1[O-] (3D coordinates assigned)
COc1cccc(CSc2[nH+]nc(SCc3ccc(C#N)cc3)s2)c1[O-] (optimized conformer: 65.11157590213455 kcal/mol)

>  <smiles>  (31) 
COc1cccc(CSc2nnc(SCc3ccc(C#N)cc3)s2)c1O

>  <score_type>  (31) 
oracle

>  <origin>  (31) 
adg

>  <m_score__min__energy>  (31) 
-11.68

>  <m_primary>  (31) 
energy

$$$$
31:0
     RDKit          3D

 47 50  0  0  0  0  0  0  0  0999 V2000
   58.1820   31.4280   47.0440 O   0  0  0  0  0  0  0  0  0  0  0  0
   57.7330   30.6400   46.1700 C   0  0  0  0  0  0  0  0  0  0  0  0
   57.0680   31.1470   45.0980 N   0  0  0  0  0  0  0  0  0  0  0  0
   56.5230   30.3460   44.1470 C   0  0  0  0  0  0  0  0  0  0  0  0
   56.6260   28.9600   44.2570 C   0  0  0  0  0  0  0  0  0  0  0  0
   57.3170   28.3990   45.3410 C   0  0  0  0  0  0  0  0  0  0  0  0
   57.4290   26.9270   45.4530 C   0  0  0  0  0  0  0  0  0  0  0  0
   58.6770   26.3130   45.2780 C   0  0  0  0  0  0  0  0  0  0  0  0
   58.8010   24.9240   45.3700 C   0  0  0  0  0  0  0  0  0  0  0  0
   57.6800   24.1240   45.6500 C   0  0  0  0  0  0  0  0  0  0  0  0
   57.7990   22.6110   45.7360 C   0  0  0  0  0  0  0  0  0  0  0  0
   56.5330   21.9980   46.3660 C   0  0  0  0  0  0  0  0  0  0  0  0
   56.5180   20.4800   46.1460 C   0  0  0  0  0  0  0  0  0  0  0  0
   56.5180   20.1000   44.7170 N   0  0  0  0  0  0  0  0  0  0  0  0
   56.9760   21.1540   43.7930 C   0  0  0  0  0  0  0  0  0  0  0  0
   58.1460   21.9670   44.3670 C   0  0  0  0  0  0  0  0  0  0  0  0
   56.4310   24.7430   45.8330 C   0  0  0  0  0  0  0  0  0  0  0  0
   56.3050   26.1330   45.7450 C   0  0  0  0  0  0  0  0  0  0  0  0
   55.0620   26.7160   45.9670 O   0  0  0  0  0  0  0  0  0  0  0  0
   57.8890   29.2460   46.3100 C   0  0  0  0  0  0  0  0  0  0  0  0
   58.5380   28.6870   47.4220 O   0  0  0  0  0  0  0  0  0  0  0  0
   59.5270   29.3230   48.1860 C   0  0  0  0  0  0  0  0  0  0  0  0
   60.5760   29.9700   47.5230 C   0  0  0  0  0  0  0  0  0  0  0  0
   61.5720   30.6310   48.2490 C   0  0  0  0  0  0  0  0  0  0  0  0
   61.5190   30.6570   49.6460 C   0  0  0  0  0  0  0  0  0  0  0  0
   60.4680   30.0280   50.3160 C   0  0  0  0  0  0  0  0  0  0  0  0
   59.4700   29.3670   49.5930 C   0  0  0  0  0  0  0  0  0  0  0  0
   55.9993   30.7913   43.2882 H   0  0  0  0  0  0  0  0  0  0  0  0
   56.1676   28.3097   43.4974 H   0  0  0  0  0  0  0  0  0  0  0  0
   59.5641   26.9282   45.0670 H   0  0  0  0  0  0  0  0  0  0  0  0
   59.7840   24.4531   45.2220 H   0  0  0  0  0  0  0  0  0  0  0  0
   58.6459   22.3822   46.3996 H   0  0  0  0  0  0  0  0  0  0  0  0
   56.5246   22.2095   47.4455 H   0  0  0  0  0  0  0  0  0  0  0  0
   55.6443   22.4397   45.8917 H   0  0  0  0  0  0  0  0  0  0  0  0
   57.4105   20.0485   46.6228 H   0  0  0  0  0  0  0  0  0  0  0  0
   55.5873   20.0942   46.5875 H   0  0  0  0  0  0  0  0  0  0  0  0
   57.1390   19.2650   44.6000 H   0  0  0  0  0  0  0  0  0  0  0  0
   57.3001   20.6835   42.8530 H   0  0  0  0  0  0  0  0  0  0  0  0
   56.1358   21.8448   43.6288 H   0  0  0  0  0  0  0  0  0  0  0  0
   59.0100   21.2991   44.4989 H   0  0  0  0  0  0  0  0  0  0  0  0
   58.3709   22.7791   43.6600 H   0  0  0  0  0  0  0  0  0  0  0  0
   55.5445   24.1281   46.0474 H   0  0  0  0  0  0  0  0  0  0  0  0
   60.6174   29.9586   46.4238 H   0  0  0  0  0  0  0  0  0  0  0  0
   62.3974   31.1307   47.7208 H   0  0  0  0  0  0  0  0  0  0  0  0
   62.3051   31.1729   50.2169 H   0  0  0  0  0  0  0  0  0  0  0  0
   60.4248   30.0524   51.4149 H   0  0  0  0  0  0  0  0  0  0  0  0
   58.6386   28.8803   50.1240 H   0  0  0  0  0  0  0  0  0  0  0  0
  1  2  2  0
  2  3  1  0
  3  4  1  0
  4  5  2  0
  5  6  1  0
  6  7  1  0
  7  8  2  0
  8  9  1  0
  9 10  2  0
 10 11  1  0
 11 12  1  0
 12 13  1  0
 13 14  1  0
 14 15  1  0
 15 16  1  0
 10 17  1  0
 17 18  2  0
 18 19  1  0
  6 20  2  0
 20 21  1  0
 21 22  1  0
 22 23  2  0
 23 24  1  0
 24 25  2  0
 25 26  1  0
 26 27  2  0
 20  2  1  0
 27 22  1  0
 18  7  1  0
 16 11  1  0
  4 28  1  0
  5 29  1  0
  8 30  1  0
  9 31  1  0
 11 32  1  0
 12 33  1  0
 12 34  1  0
 13 35  1  0
 13 36  1  0
 14 37  1  0
 15 38  1  0
 15 39  1  0
 16 40  1  0
 16 41  1  0
 17 42  1  0
 23 43  1  0
 24 44  1  0
 25 45  1  0
 26 46  1  0
 27 47  1  0
M  CHG  2   3  -1  19  -1
M  END
>  <UniqueID>  (32) 
30

>  <SMILES>  (32) 
O=c1[n-]ccc(-c2ccc(C3CCNCC3)cc2[O-])c1Oc1ccccc1

>  <Energy>  (32) 
73.72418098732847

>  <Genealogy>  (32) 
O=c1[n-]ccc(-c2ccc(C3CCNCC3)cc2[O-])c1Oc1ccccc1 (protonated)
O=c1[n-]ccc(-c2ccc(C3CCNCC3)cc2[O-])c1Oc1ccccc1 (3D coordinates assigned)
O=c1[n-]ccc(-c2ccc(C3CCNCC3)cc2[O-])c1Oc1ccccc1 (nonaromatic ring conformer: 73.72418098732847 kcal/mol)

>  <smiles>  (32) 
O=c1[nH]ccc(-c2ccc(C3CCNCC3)cc2O)c1Oc1ccccc1

>  <score_type>  (32) 
oracle

>  <origin>  (32) 
adg

>  <m_score__min__energy>  (32) 
-12.57

>  <m_primary>  (32) 
energy

$$$$
32:0
     RDKit          3D

 59 62  0  0  0  0  0  0  0  0999 V2000
   57.3950   23.5060   44.9190 C   0  0  0  0  0  0  0  0  0  0  0  0
   57.8200   24.7580   45.6260 C   0  0  0  0  0  0  0  0  0  0  0  0
   56.8630   25.6180   46.1790 C   0  0  0  0  0  0  0  0  0  0  0  0
   57.2680   26.7570   46.8760 C   0  0  0  0  0  0  0  0  0  0  0  0
   58.6350   27.0130   47.0420 C   0  0  0  0  0  0  0  0  0  0  0  0
   59.0640   28.1990   47.7150 N   0  0  0  0  0  0  0  0  0  0  0  0
   58.7830   28.3980   48.9960 N   0  0  0  0  0  0  0  0  0  0  0  0
   59.2370   29.6170   49.3470 C   0  0  0  0  0  0  0  0  0  0  0  0
   59.0670   30.1650   50.7050 C   0  0  0  0  0  0  0  0  0  0  0  0
   60.1790   30.6710   51.4450 N   0  0  0  0  0  0  0  0  0  0  0  0
   57.9160   30.2090   51.2100 O   0  0  0  0  0  0  0  0  0  0  0  0
   59.8350   30.2260   48.2500 C   0  0  0  0  0  0  0  0  0  0  0  0
   60.6540   31.4580   48.2130 C   0  0  0  0  0  0  0  0  0  0  0  0
   60.2670   32.5420   47.4140 C   0  0  0  0  0  0  0  0  0  0  0  0
   61.0670   33.6830   47.3440 C   0  0  0  0  0  0  0  0  0  0  0  0
   62.2570   33.7550   48.0740 C   0  0  0  0  0  0  0  0  0  0  0  0
   62.6520   32.6820   48.8920 C   0  0  0  0  0  0  0  0  0  0  0  0
   63.8570   32.6900   49.6740 N   0  0  0  0  0  0  0  0  0  0  0  0
   64.1510   32.0250   51.2540 S   0  0  0  0  0  0  0  0  0  0  0  0
   62.9880   31.1400   51.6010 O   0  0  0  0  0  0  0  0  0  0  0  0
   64.2420   33.0980   52.3000 O   0  0  0  0  0  0  0  0  0  0  0  0
   65.6320   31.0140   51.2520 C   0  0  0  0  0  0  0  0  0  0  0  0
   66.8140   31.6590   50.5120 C   0  0  0  0  0  0  0  0  0  0  0  0
   66.4590   32.9370   49.8990 N   0  0  0  0  0  0  0  0  0  0  0  0
   61.8530   31.5340   48.9420 C   0  0  0  0  0  0  0  0  0  0  0  0
   59.7110   29.2910   47.2350 C   0  0  0  0  0  0  0  0  0  0  0  0
   60.2860   29.4250   46.0680 N   0  0  0  0  0  0  0  0  0  0  0  0
   59.7080   29.4280   44.7190 C   0  0  1  0  0  0  0  0  0  0  0  0
   59.9400   28.1840   44.1120 O   0  0  0  0  0  0  0  0  0  0  0  0
   58.2260   29.6940   44.7540 C   0  0  0  0  0  0  0  0  0  0  0  0
   57.6270   30.9350   44.8600 C   0  0  0  0  0  0  0  0  0  0  0  0
   56.2850   30.8240   44.7950 N   0  0  0  0  0  0  0  0  0  0  0  0
   56.0480   29.5080   44.6270 C   0  0  0  0  0  0  0  0  0  0  0  0
   54.7720   28.9730   44.5060 O   0  0  0  0  0  0  0  0  0  0  0  0
   57.2130   28.7730   44.5840 C   0  0  0  0  0  0  0  0  0  0  0  0
   59.5510   26.1780   46.4780 N   0  0  0  0  0  0  0  0  0  0  0  0
   59.1800   25.0620   45.7930 C   0  0  0  0  0  0  0  0  0  0  0  0
   57.1339   22.7367   45.6607 H   0  0  0  0  0  0  0  0  0  0  0  0
   56.5192   23.7201   44.2888 H   0  0  0  0  0  0  0  0  0  0  0  0
   58.2201   23.1427   44.2888 H   0  0  0  0  0  0  0  0  0  0  0  0
   55.7919   25.3956   46.0639 H   0  0  0  0  0  0  0  0  0  0  0  0
   56.5199   27.4481   47.2916 H   0  0  0  0  0  0  0  0  0  0  0  0
   61.1160   30.7880   51.0020 H   0  0  0  0  0  0  0  0  0  0  0  0
   60.0480   31.0090   52.4240 H   0  0  0  0  0  0  0  0  0  0  0  0
   59.3297   32.4933   46.8402 H   0  0  0  0  0  0  0  0  0  0  0  0
   60.7601   34.5293   46.7119 H   0  0  0  0  0  0  0  0  0  0  0  0
   62.8867   34.6545   48.0082 H   0  0  0  0  0  0  0  0  0  0  0  0
   65.9313   30.8329   52.2949 H   0  0  0  0  0  0  0  0  0  0  0  0
   65.3870   30.0827   50.7203 H   0  0  0  0  0  0  0  0  0  0  0  0
   67.6307   31.8265   51.2296 H   0  0  0  0  0  0  0  0  0  0  0  0
   67.1182   30.9745   49.7065 H   0  0  0  0  0  0  0  0  0  0  0  0
   65.7790   33.4350   50.5100 H   0  0  0  0  0  0  0  0  0  0  0  0
   65.9860   32.7580   48.9810 H   0  0  0  0  0  0  0  0  0  0  0  0
   62.1676   30.6801   49.5600 H   0  0  0  0  0  0  0  0  0  0  0  0
   60.1882   30.2325   44.1427 H   0  0  0  0  0  0  0  0  0  0  0  0
   59.6790   27.4810   44.7640 H   0  0  0  0  0  0  0  0  0  0  0  0
   58.1708   31.8835   44.9809 H   0  0  0  0  0  0  0  0  0  0  0  0
   57.3135   27.6865   44.4443 H   0  0  0  0  0  0  0  0  0  0  0  0
   59.9473   24.3972   45.3696 H   0  0  0  0  0  0  0  0  0  0  0  0
  1  2  1  0
  2  3  2  0
  3  4  1  0
  4  5  2  0
  5  6  1  0
  6  7  1  0
  7  8  1  0
  8  9  1  0
  9 10  1  0
  9 11  2  0
  8 12  2  0
 12 13  1  0
 13 14  2  0
 14 15  1  0
 15 16  2  0
 16 17  1  0
 17 18  1  0
 18 19  1  0
 19 20  2  0
 19 21  2  0
 19 22  1  0
 22 23  1  0
 23 24  1  0
 17 25  2  0
 12 26  1  0
 26 27  2  3
 27 28  1  0
 28 29  1  0
 28 30  1  0
 30 31  2  0
 31 32  1  0
 32 33  1  0
 33 34  1  0
 33 35  2  0
  5 36  1  0
 36 37  2  0
 37  2  1  0
 26  6  1  0
 35 30  1  0
 25 13  1  0
  1 38  1  0
  1 39  1  0
  1 40  1  0
  3 41  1  0
  4 42  1  0
 10 43  1  0
 10 44  1  0
 14 45  1  0
 15 46  1  0
 16 47  1  0
 22 48  1  0
 22 49  1  0
 23 50  1  0
 23 51  1  0
 24 52  1  0
 24 53  1  0
 25 54  1  0
 28 55  1  6
 29 56  1  0
 31 57  1  0
 35 58  1  0
 37 59  1  0
M  CHG  4   7  -1  18  -1  32  -1  34  -1
M  END
>  <UniqueID>  (33) 
31

>  <SMILES>  (33) 
Cc1ccc(-n2[n-]c(C(N)=O)c(-c3cccc([N-]S(=O)(=O)CCN)c3)c2=N[C@@H](O)c2c[n-]c([O-])c2)nc1

>  <Energy>  (33) 
136.8741102981731

>  <Genealogy>  (33) 
Cc1ccc(-n2[n-]c(C(N)=O)c(-c3cccc([N-]S(=O)(=O)CCN)c3)c2=NC(O)c2c[n-]c([O-])c2)nc1 (protonated)
Cc1ccc(-n2[n-]c(C(N)=O)c(-c3cccc([N-]S(=O)(=O)CCN)c3)c2=N[C@@H](O)c2c[n-]c([O-])c2)nc1 (chirality)
Cc1ccc(-n2[n-]c(C(N)=O)c(-c3cccc([N-]S(=O)(=O)CCN)c3)c2=N[C@@H](O)c2c[n-]c([O-])c2)nc1 (3D coordinates assigned)
Cc1ccc(-n2[n-]c(C(N)=O)c(-c3cccc([N-]S(=O)(=O)CCN)c3)c2=N[C@@H](O)c2c[n-]c([O-])c2)nc1 (optimized conformer: 136.8741102981731 kcal/mol)

>  <smiles>  (33) 
Cc1ccc(-n2[nH]c(C(N)=O)c(-c3cccc(NS(=O)(=O)CCN)c3)c2=NC(O)c2c[nH]c(O)c2)nc1

>  <score_type>  (33) 
oracle

>  <origin>  (33) 
adg

>  <m_score__min__energy>  (33) 
-15.06

>  <m_primary>  (33) 
energy

$$$$
33:0
     RDKit          3D

 41 43  0  0  0  0  0  0  0  0999 V2000
   57.0000   31.2180   42.2370 C   0  0  0  0  0  0  0  0  0  0  0  0
   56.6470   30.3840   43.4250 C   0  0  0  0  0  0  0  0  0  0  0  0
   55.4890   29.7070   43.5600 N   0  0  0  0  0  0  0  0  0  0  0  0
   55.5150   28.9950   44.6780 N   0  0  0  0  0  0  0  0  0  0  0  0
   56.7080   29.2170   45.2570 C   0  0  0  0  0  0  0  0  0  0  0  0
   57.0690   28.6760   46.3360 O   0  0  0  0  0  0  0  0  0  0  0  0
   57.4650   30.0930   44.5040 C   0  0  0  0  0  0  0  0  0  0  0  0
   58.8780   30.5370   44.7520 C   0  0  0  0  0  0  0  0  0  0  0  0
   58.9040   31.9160   45.3650 C   0  0  0  0  0  0  0  0  0  0  0  0
   58.2030   32.9560   44.7280 C   0  0  0  0  0  0  0  0  0  0  0  0
   58.1870   34.2390   45.2740 C   0  0  0  0  0  0  0  0  0  0  0  0
   58.8740   34.5020   46.4570 C   0  0  0  0  0  0  0  0  0  0  0  0
   59.5810   33.4840   47.0990 C   0  0  0  0  0  0  0  0  0  0  0  0
   59.6050   32.1810   46.5640 C   0  0  0  0  0  0  0  0  0  0  0  0
   60.3120   31.1360   47.1840 O   0  0  0  0  0  0  0  0  0  0  0  0
   59.8640   30.3620   48.6430 S   0  0  0  0  0  0  0  0  0  0  0  0
   61.0230   29.5590   49.1630 O   0  0  0  0  0  0  0  0  0  0  0  0
   58.7180   29.4290   48.3720 O   0  0  0  0  0  0  0  0  0  0  0  0
   59.3510   31.5580   49.8310 C   0  0  0  0  0  0  0  0  0  0  0  0
   60.1610   32.6720   50.0840 C   0  0  0  0  0  0  0  0  0  0  0  0
   59.7780   33.6220   51.0350 C   0  0  0  0  0  0  0  0  0  0  0  0
   58.5750   33.4700   51.7380 C   0  0  0  0  0  0  0  0  0  0  0  0
   58.1830   34.4420   52.7120 N   0  0  0  0  0  0  0  0  0  0  0  0
   57.7580   32.3600   51.4790 C   0  0  0  0  0  0  0  0  0  0  0  0
   58.1430   31.4100   50.5280 C   0  0  0  0  0  0  0  0  0  0  0  0
   57.4081   32.1822   42.5741 H   0  0  0  0  0  0  0  0  0  0  0  0
   57.7530   30.6929   41.6310 H   0  0  0  0  0  0  0  0  0  0  0  0
   56.0988   31.3930   41.6310 H   0  0  0  0  0  0  0  0  0  0  0  0
   54.6880   29.7150   42.8910 H   0  0  0  0  0  0  0  0  0  0  0  0
   59.3643   29.8277   45.4379 H   0  0  0  0  0  0  0  0  0  0  0  0
   59.4131   30.5668   43.7914 H   0  0  0  0  0  0  0  0  0  0  0  0
   57.6628   32.7554   43.7910 H   0  0  0  0  0  0  0  0  0  0  0  0
   57.6316   35.0439   44.7703 H   0  0  0  0  0  0  0  0  0  0  0  0
   58.8593   35.5146   46.8863 H   0  0  0  0  0  0  0  0  0  0  0  0
   60.1241   33.7010   48.0306 H   0  0  0  0  0  0  0  0  0  0  0  0
   61.1035   32.8000   49.5315 H   0  0  0  0  0  0  0  0  0  0  0  0
   60.4225   34.4913   51.2323 H   0  0  0  0  0  0  0  0  0  0  0  0
   57.8720   35.3950   52.4210 H   0  0  0  0  0  0  0  0  0  0  0  0
   58.2020   34.2140   53.7310 H   0  0  0  0  0  0  0  0  0  0  0  0
   56.8115   32.2363   52.0256 H   0  0  0  0  0  0  0  0  0  0  0  0
   57.4962   30.5435   50.3258 H   0  0  0  0  0  0  0  0  0  0  0  0
  1  2  1  0
  2  3  1  0
  3  4  1  0
  4  5  1  0
  5  6  2  0
  5  7  1  0
  7  8  1  0
  8  9  1  0
  9 10  2  0
 10 11  1  0
 11 12  2  0
 12 13  1  0
 13 14  2  0
 14 15  1  0
 15 16  1  0
 16 17  2  0
 16 18  2  0
 16 19  1  0
 19 20  2  0
 20 21  1  0
 21 22  2  0
 22 23  1  0
 22 24  1  0
 24 25  2  0
  7  2  2  0
 14  9  1  0
 25 19  1  0
  1 26  1  0
  1 27  1  0
  1 28  1  0
  3 29  1  0
  8 30  1  0
  8 31  1  0
 10 32  1  0
 11 33  1  0
 12 34  1  0
 13 35  1  0
 20 36  1  0
 21 37  1  0
 23 38  1  0
 23 39  1  0
 24 40  1  0
 25 41  1  0
M  CHG  1   4  -1
M  END
>  <UniqueID>  (34) 
32

>  <SMILES>  (34) 
Cc1[nH][n-]c(=O)c1Cc1ccccc1OS(=O)(=O)c1ccc(N)cc1

>  <Energy>  (34) 
70.86542175913192

>  <Genealogy>  (34) 
Cc1[nH][n-]c(=O)c1Cc1ccccc1OS(=O)(=O)c1ccc(N)cc1 (protonated)
Cc1[nH][n-]c(=O)c1Cc1ccccc1OS(=O)(=O)c1ccc(N)cc1 (3D coordinates assigned)
Cc1[nH][n-]c(=O)c1Cc1ccccc1OS(=O)(=O)c1ccc(N)cc1 (optimized conformer: 70.86542175913192 kcal/mol)

>  <smiles>  (34) 
Cc1[nH][nH]c(=O)c1Cc1ccccc1OS(=O)(=O)c1ccc(N)cc1

>  <score_type>  (34) 
oracle

>  <origin>  (34) 
adg

>  <m_score__min__energy>  (34) 
-10.92

>  <m_primary>  (34) 
energy

$$$$
34:0
     RDKit          3D

 52 54  0  0  0  0  0  0  0  0999 V2000
   63.0580   32.3060   47.4580 C   0  0  0  0  0  0  0  0  0  0  0  0
   61.6990   31.9430   47.2470 O   0  0  0  0  0  0  0  0  0  0  0  0
   60.6480   32.8570   47.0700 C   0  0  0  0  0  0  0  0  0  0  0  0
   60.6560   34.1280   47.6790 C   0  0  0  0  0  0  0  0  0  0  0  0
   59.5920   35.0120   47.4860 C   0  0  0  0  0  0  0  0  0  0  0  0
   58.5150   34.6440   46.6800 C   0  0  0  0  0  0  0  0  0  0  0  0
   58.4950   33.3900   46.0690 C   0  0  0  0  0  0  0  0  0  0  0  0
   59.5510   32.4820   46.2670 C   0  0  0  0  0  0  0  0  0  0  0  0
   59.5480   31.1980   45.6200 N   0  0  0  0  0  0  0  0  0  0  0  0
   58.3960   30.6340   44.9730 C   0  0  0  0  0  0  0  0  0  0  0  0
   57.2700   31.1930   45.0810 O   0  0  0  0  0  0  0  0  0  0  0  0
   58.5220   29.3930   44.2630 N   0  0  0  0  0  0  0  0  0  0  0  0
   57.4320   28.7330   43.6000 C   0  0  0  0  0  0  0  0  0  0  0  0
   56.3710   29.5960   42.6950 S   0  0  0  0  0  0  0  0  0  0  0  0
   57.4030   27.2990   43.5180 N   0  0  0  0  0  0  0  0  0  0  0  0
   58.0570   26.4390   44.4690 C   0  0  0  0  0  0  0  0  0  0  0  0
   58.9100   26.9770   45.4490 C   0  0  0  0  0  0  0  0  0  0  0  0
   59.5430   26.1440   46.3850 C   0  0  0  0  0  0  0  0  0  0  0  0
   60.4490   26.7290   47.4400 C   0  0  0  0  0  0  0  0  0  0  0  0
   59.6840   27.5660   48.3890 N   0  0  0  0  0  0  0  0  0  0  0  0
   59.3020   28.8640   47.7740 C   0  0  0  0  0  0  0  0  0  0  0  0
   58.8890   29.9050   48.8140 C   0  0  0  0  0  0  0  0  0  0  0  0
   60.3250   30.4860   49.7900 S   0  0  0  0  0  0  0  0  0  0  0  0
   61.2990   28.9360   49.7490 C   0  0  0  0  0  0  0  0  0  0  0  0
   60.3950   27.7000   49.6860 C   0  0  0  0  0  0  0  0  0  0  0  0
   59.2920   24.7660   46.3610 C   0  0  0  0  0  0  0  0  0  0  0  0
   58.4310   24.2240   45.4040 C   0  0  0  0  0  0  0  0  0  0  0  0
   57.8100   25.0510   44.4620 C   0  0  0  0  0  0  0  0  0  0  0  0
   56.7550   24.3150   43.2620 Cl  0  0  0  0  0  0  0  0  0  0  0  0
   63.2597   32.3599   48.5380 H   0  0  0  0  0  0  0  0  0  0  0  0
   63.7144   31.5517   46.9996 H   0  0  0  0  0  0  0  0  0  0  0  0
   63.2509   33.2871   46.9996 H   0  0  0  0  0  0  0  0  0  0  0  0
   61.5060   34.4258   48.3106 H   0  0  0  0  0  0  0  0  0  0  0  0
   59.6035   35.9996   47.9703 H   0  0  0  0  0  0  0  0  0  0  0  0
   57.6801   35.3435   46.5258 H   0  0  0  0  0  0  0  0  0  0  0  0
   57.6468   33.1091   45.4274 H   0  0  0  0  0  0  0  0  0  0  0  0
   60.3980   30.5980   45.7050 H   0  0  0  0  0  0  0  0  0  0  0  0
   59.4340   28.8870   44.3240 H   0  0  0  0  0  0  0  0  0  0  0  0
   56.8650   26.8620   42.7360 H   0  0  0  0  0  0  0  0  0  0  0  0
   59.0832   28.0628   45.4825 H   0  0  0  0  0  0  0  0  0  0  0  0
   60.9340   25.9105   47.9921 H   0  0  0  0  0  0  0  0  0  0  0  0
   61.2028   27.3590   46.9452 H   0  0  0  0  0  0  0  0  0  0  0  0
   60.1613   29.2526   47.2078 H   0  0  0  0  0  0  0  0  0  0  0  0
   58.4360   28.6824   47.1205 H   0  0  0  0  0  0  0  0  0  0  0  0
   58.4359   30.7647   48.2986 H   0  0  0  0  0  0  0  0  0  0  0  0
   58.1701   29.4377   49.5030 H   0  0  0  0  0  0  0  0  0  0  0  0
   61.9498   28.9473   48.8622 H   0  0  0  0  0  0  0  0  0  0  0  0
   61.8930   28.8797   50.6731 H   0  0  0  0  0  0  0  0  0  0  0  0
   61.0147   26.8043   49.8401 H   0  0  0  0  0  0  0  0  0  0  0  0
   59.6312   27.8110   50.4698 H   0  0  0  0  0  0  0  0  0  0  0  0
   59.7749   24.1082   47.0987 H   0  0  0  0  0  0  0  0  0  0  0  0
   58.2402   23.1408   45.3910 H   0  0  0  0  0  0  0  0  0  0  0  0
  1  2  1  0
  2  3  1  0
  3  4  2  0
  4  5  1  0
  5  6  2  0
  6  7  1  0
  7  8  2  0
  8  9  1  0
  9 10  1  0
 10 11  2  0
 10 12  1  0
 12 13  1  0
 13 14  2  0
 13 15  1  0
 15 16  1  0
 16 17  2  0
 17 18  1  0
 18 19  1  0
 19 20  1  0
 20 21  1  0
 21 22  1  0
 22 23  1  0
 23 24  1  0
 24 25  1  0
 18 26  2  0
 26 27  1  0
 27 28  2  0
 28 29  1  0
  8  3  1  0
 28 16  1  0
 25 20  1  0
  1 30  1  0
  1 31  1  0
  1 32  1  0
  4 33  1  0
  5 34  1  0
  6 35  1  0
  7 36  1  0
  9 37  1  0
 12 38  1  0
 15 39  1  0
 17 40  1  0
 19 41  1  0
 19 42  1  0
 21 43  1  0
 21 44  1  0
 22 45  1  0
 22 46  1  0
 24 47  1  0
 24 48  1  0
 25 49  1  0
 25 50  1  0
 26 51  1  0
 27 52  1  0
M  END
>  <UniqueID>  (35) 
33

>  <SMILES>  (35) 
COc1ccccc1NC(=O)NC(=S)Nc1cc(CN2CCSCC2)ccc1Cl

>  <Energy>  (35) 
68.40471851415451

>  <Genealogy>  (35) 
COc1ccccc1NC(=O)NC(=S)Nc1cc(CN2CCSCC2)ccc1Cl (3D coordinates assigned)
COc1ccccc1NC(=O)NC(=S)Nc1cc(CN2CCSCC2)ccc1Cl (nonaromatic ring conformer: 68.40471851415451 kcal/mol)

>  <smiles>  (35) 
COc1ccccc1NC(=O)NC(=S)Nc1cc(CN2CCSCC2)ccc1Cl

>  <score_type>  (35) 
oracle

>  <origin>  (35) 
adg

>  <m_score__min__energy>  (35) 
-8.2599999999999998

>  <m_primary>  (35) 
energy

$$$$
35:0
     RDKit          3D

 54 57  0  0  0  0  0  0  0  0999 V2000
   55.7330   24.0840   44.4080 C   0  0  0  0  0  0  0  0  0  0  0  0
   54.8050   24.7470   45.7710 S   0  0  0  0  0  0  0  0  0  0  0  0
   53.3390   24.6320   45.4620 O   0  0  0  0  0  0  0  0  0  0  0  0
   55.1280   23.9730   47.0180 O   0  0  0  0  0  0  0  0  0  0  0  0
   55.2340   26.4120   45.9810 N   0  0  0  0  0  0  0  0  0  0  0  0
   56.5580   26.9450   45.8480 C   0  0  0  0  0  0  0  0  0  0  0  0
   57.7000   26.2140   46.2200 C   0  0  0  0  0  0  0  0  0  0  0  0
   58.9710   26.7830   46.0860 C   0  0  0  0  0  0  0  0  0  0  0  0
   59.1120   28.0830   45.5950 C   0  0  0  0  0  0  0  0  0  0  0  0
   57.9780   28.8260   45.2340 C   0  0  0  0  0  0  0  0  0  0  0  0
   58.0880   30.1780   44.7660 N   0  0  0  0  0  0  0  0  0  0  0  0
   58.8370   31.1720   45.4810 C   0  0  0  0  0  0  0  0  0  0  0  0
   59.9160   30.8600   46.0530 O   0  0  0  0  0  0  0  0  0  0  0  0
   58.3020   32.5880   45.5550 C   0  0  1  0  0  0  0  0  0  0  0  0
   58.0650   33.0220   47.0380 C   0  0  0  0  0  0  0  0  0  0  0  0
   59.0130   34.0390   47.5600 N   0  0  0  0  0  0  0  0  0  0  0  0
   60.0620   33.5960   48.5140 C   0  0  2  0  0  0  0  0  0  0  0  0
   61.4680   33.4550   47.8780 C   0  0  0  0  0  0  0  0  0  0  0  0
   61.9340   32.0030   48.1010 C   0  0  0  0  0  0  0  0  0  0  0  0
   60.8230   31.3750   48.8510 C   0  0  0  0  0  0  0  0  0  0  0  0
   60.7650   30.0520   49.2980 C   0  0  0  0  0  0  0  0  0  0  0  0
   59.6210   29.6200   49.9840 C   0  0  0  0  0  0  0  0  0  0  0  0
   58.5590   30.5130   50.2210 C   0  0  0  0  0  0  0  0  0  0  0  0
   57.4280   30.0810   50.9020 O   0  0  0  0  0  0  0  0  0  0  0  0
   58.6410   31.8410   49.7700 C   0  0  0  0  0  0  0  0  0  0  0  0
   59.7870   32.2470   49.0800 C   0  0  0  0  0  0  0  0  0  0  0  0
   59.4480   35.1020   46.6300 C   0  0  0  0  0  0  0  0  0  0  0  0
   58.8890   34.9150   45.2170 C   0  0  0  0  0  0  0  0  0  0  0  0
   59.1180   33.5410   44.7740 N   0  0  0  0  0  0  0  0  0  0  0  0
   56.7080   28.2400   45.3410 C   0  0  0  0  0  0  0  0  0  0  0  0
   56.5716   23.4848   44.7923 H   0  0  0  0  0  0  0  0  0  0  0  0
   55.0788   23.4476   43.7940 H   0  0  0  0  0  0  0  0  0  0  0  0
   56.1230   24.9092   43.7940 H   0  0  0  0  0  0  0  0  0  0  0  0
   57.5940   25.1936   46.6168 H   0  0  0  0  0  0  0  0  0  0  0  0
   59.8628   26.2043   46.3684 H   0  0  0  0  0  0  0  0  0  0  0  0
   60.1139   28.5250   45.4912 H   0  0  0  0  0  0  0  0  0  0  0  0
   57.3370   30.5210   44.1240 H   0  0  0  0  0  0  0  0  0  0  0  0
   57.3154   32.6035   45.0688 H   0  0  0  0  0  0  0  0  0  0  0  0
   57.0482   33.4348   47.1131 H   0  0  0  0  0  0  0  0  0  0  0  0
   58.2200   32.1198   47.6478 H   0  0  0  0  0  0  0  0  0  0  0  0
   60.0434   34.3887   49.2765 H   0  0  0  0  0  0  0  0  0  0  0  0
   61.4163   33.6716   46.8008 H   0  0  0  0  0  0  0  0  0  0  0  0
   62.1736   34.1631   48.3371 H   0  0  0  0  0  0  0  0  0  0  0  0
   62.0931   31.4925   47.1397 H   0  0  0  0  0  0  0  0  0  0  0  0
   62.8910   31.9463   48.6404 H   0  0  0  0  0  0  0  0  0  0  0  0
   61.6019   29.3620   49.1149 H   0  0  0  0  0  0  0  0  0  0  0  0
   59.5532   28.5807   50.3379 H   0  0  0  0  0  0  0  0  0  0  0  0
   57.8191   32.5479   49.9563 H   0  0  0  0  0  0  0  0  0  0  0  0
   59.1048   36.0721   47.0188 H   0  0  0  0  0  0  0  0  0  0  0  0
   60.5450   35.0563   46.5624 H   0  0  0  0  0  0  0  0  0  0  0  0
   57.8088   35.1227   45.2208 H   0  0  0  0  0  0  0  0  0  0  0  0
   59.3963   35.6084   44.5300 H   0  0  0  0  0  0  0  0  0  0  0  0
   60.1400   33.3400   44.8690 H   0  0  0  0  0  0  0  0  0  0  0  0
   55.8198   28.8054   45.0225 H   0  0  0  0  0  0  0  0  0  0  0  0
  1  2  1  0
  2  3  2  0
  2  4  2  0
  2  5  1  0
  5  6  1  0
  6  7  2  0
  7  8  1  0
  8  9  2  0
  9 10  1  0
 10 11  1  0
 11 12  1  0
 12 13  2  0
 12 14  1  0
 14 15  1  0
 15 16  1  0
 16 17  1  0
 17 18  1  0
 18 19  1  0
 19 20  1  0
 20 21  2  0
 21 22  1  0
 22 23  2  0
 23 24  1  0
 23 25  1  0
 25 26  2  0
 16 27  1  0
 27 28  1  0
 28 29  1  0
 10 30  2  0
 30  6  1  0
 29 14  1  0
 26 17  1  0
 26 20  1  0
  1 31  1  0
  1 32  1  0
  1 33  1  0
  7 34  1  0
  8 35  1  0
  9 36  1  0
 11 37  1  0
 14 38  1  6
 15 39  1  0
 15 40  1  0
 17 41  1  1
 18 42  1  0
 18 43  1  0
 19 44  1  0
 19 45  1  0
 21 46  1  0
 22 47  1  0
 25 48  1  0
 27 49  1  0
 27 50  1  0
 28 51  1  0
 28 52  1  0
 29 53  1  0
 30 54  1  0
M  CHG  2   5  -1  24  -1
M  END
>  <UniqueID>  (36) 
34

>  <SMILES>  (36) 
CS(=O)(=O)[N-]c1cccc(NC(=O)[C@H]2CN([C@@H]3CCc4ccc([O-])cc43)CCN2)c1

>  <Energy>  (36) 
85.49864716747551

>  <Genealogy>  (36) 
CS(=O)(=O)[N-]c1cccc(NC(=O)C2CN(C3CCc4ccc([O-])cc43)CCN2)c1 (protonated)
CS(=O)(=O)[N-]c1cccc(NC(=O)[C@H]2CN([C@@H]3CCc4ccc([O-])cc43)CCN2)c1 (chirality)
CS(=O)(=O)[N-]c1cccc(NC(=O)[C@H]2CN([C@@H]3CCc4ccc([O-])cc43)CCN2)c1 (3D coordinates assigned)
CS(=O)(=O)[N-]c1cccc(NC(=O)[C@H]2CN([C@@H]3CCc4ccc([O-])cc43)CCN2)c1 (nonaromatic ring conformer: 85.49864716747551 kcal/mol)

>  <smiles>  (36) 
CS(=O)(=O)Nc1cccc(NC(=O)C2CN(C3CCc4ccc(O)cc43)CCN2)c1

>  <score_type>  (36) 
oracle

>  <origin>  (36) 
adg

>  <m_score__min__energy>  (36) 
-13.210000000000001

>  <m_primary>  (36) 
energy

$$$$
36:0
     RDKit          3D

 36 38  0  0  0  0  0  0  0  0999 V2000
   59.0210   28.0440   54.1840 H   0  0  0  0  0  0  0  0  0  0  0  0
   58.4920   27.9370   53.3260 O   0  0  0  0  0  0  0  0  0  0  0  0
   57.3130   28.6480   53.1200 C   0  0  0  0  0  0  0  0  0  0  0  0
   56.1340   28.1340   53.5490 N   0  0  0  0  0  0  0  0  0  0  0  0
   54.9630   28.7960   53.3720 C   0  0  0  0  0  0  0  0  0  0  0  0
   53.8950   28.2710   53.7900 O   0  0  0  0  0  0  0  0  0  0  0  0
   54.9450   30.0080   52.7330 N   0  0  0  0  0  0  0  0  0  0  0  0
   53.6970   30.7070   52.5490 C   0  0  0  0  0  0  0  0  0  0  0  0
   52.8190   30.8910   53.6290 C   0  0  0  0  0  0  0  0  0  0  0  0
   53.0854   30.5043   54.6237 H   0  0  0  0  0  0  0  0  0  0  0  0
   51.6070   31.5640   53.4450 C   0  0  0  0  0  0  0  0  0  0  0  0
   50.9219   31.7043   54.2941 H   0  0  0  0  0  0  0  0  0  0  0  0
   51.2650   32.0590   52.1820 C   0  0  0  0  0  0  0  0  0  0  0  0
   50.0610   32.7270   52.0010 O   0  0  0  0  0  0  0  0  0  0  0  0
   52.1350   31.8800   51.1020 C   0  0  0  0  0  0  0  0  0  0  0  0
   51.8656   32.2694   50.1091 H   0  0  0  0  0  0  0  0  0  0  0  0
   53.3480   31.2060   51.2830 C   0  0  0  0  0  0  0  0  0  0  0  0
   54.0302   31.0665   50.4315 H   0  0  0  0  0  0  0  0  0  0  0  0
   56.1140   30.5550   52.2720 C   0  0  0  0  0  0  0  0  0  0  0  0
   56.0980   31.6570   51.6530 O   0  0  0  0  0  0  0  0  0  0  0  0
   57.3380   29.8950   52.4860 C   0  0  0  0  0  0  0  0  0  0  0  0
   58.6280   30.4600   52.0260 C   0  0  0  0  0  0  0  0  0  0  0  0
   59.3246   30.8351   52.7903 H   0  0  0  0  0  0  0  0  0  0  0  0
   59.0070   30.5460   50.7340 C   0  0  0  0  0  0  0  0  0  0  0  0
   59.1610   31.8420   50.0260 C   0  0  0  0  0  0  0  0  0  0  0  0
   59.7180   32.9680   50.6260 C   0  0  0  0  0  0  0  0  0  0  0  0
   60.1042   33.0271   51.6543 H   0  0  0  0  0  0  0  0  0  0  0  0
   59.6980   34.2210   49.5070 S   0  0  0  0  0  0  0  0  0  0  0  0
   58.9700   33.3640   48.2600 C   0  0  0  0  0  0  0  0  0  0  0  0
   58.7259   33.7578   47.2623 H   0  0  0  0  0  0  0  0  0  0  0  0
   58.7300   32.0730   48.7070 C   0  0  0  0  0  0  0  0  0  0  0  0
   58.2478   31.3020   48.0880 H   0  0  0  0  0  0  0  0  0  0  0  0
   59.2360   29.2760   49.9630 C   0  0  0  0  0  0  0  0  0  0  0  0
   59.3862   28.4428   50.6652 H   0  0  0  0  0  0  0  0  0  0  0  0
   58.3608   29.0686   49.3298 H   0  0  0  0  0  0  0  0  0  0  0  0
   60.1286   29.3873   49.3298 H   0  0  0  0  0  0  0  0  0  0  0  0
  1  2  1  0
  2  3  1  0
  3  4  1  0
  4  5  1  0
  5  6  2  0
  5  7  1  0
  7  8  1  0
  8  9  2  0
  9 10  1  0
  9 11  1  0
 11 12  1  0
 11 13  2  0
 13 14  1  0
 13 15  1  0
 15 16  1  0
 15 17  2  0
 17 18  1  0
  7 19  1  0
 19 20  2  0
 19 21  1  0
 21 22  1  0
 22 23  1  0
 22 24  2  0
 24 25  1  0
 25 26  2  0
 26 27  1  0
 26 28  1  0
 28 29  1  0
 29 30  1  0
 29 31  2  0
 31 32  1  0
 24 33  1  0
 33 34  1  0
 33 35  1  0
 33 36  1  0
 21  3  2  0
 31 25  1  0
 17  8  1  0
M  CHG  2   4  -1  14  -1
M  END
>  <UniqueID>  (37) 
35

>  <SMILES>  (37) 
C/C(=C/c1c(O)[n-]c(=O)n(-c2ccc([O-])cc2)c1=O)c1ccsc1

>  <Energy>  (37) 
85.03907939165472

>  <Genealogy>  (37) 
CC(=Cc1c(O)[n-]c(=O)n(-c2ccc([O-])cc2)c1=O)c1ccsc1 (protonated)
C/C(=C/c1c(O)[n-]c(=O)n(-c2ccc([O-])cc2)c1=O)c1ccsc1 (cis-trans isomerization)
C/C(=C/c1c(O)[n-]c(=O)n(-c2ccc([O-])cc2)c1=O)c1ccsc1 (3D coordinates assigned)
C/C(=C/c1c(O)[n-]c(=O)n(-c2ccc([O-])cc2)c1=O)c1ccsc1 (optimized conformer: 85.03907939165472 kcal/mol)

>  <smiles>  (37) 
CC(=Cc1c(O)[nH]c(=O)n(-c2ccc(O)cc2)c1=O)c1ccsc1

>  <score_type>  (37) 
oracle

>  <origin>  (37) 
adg

>  <m_score__min__energy>  (37) 
-10.869999999999999

>  <m_primary>  (37) 
energy

$$$$
37:0
     RDKit          3D

 39 41  0  0  0  0  0  0  0  0999 V2000
   56.8170   20.7560   43.0040 C   0  0  0  0  0  0  0  0  0  0  0  0
   55.8930   21.6630   43.5980 O   0  0  0  0  0  0  0  0  0  0  0  0
   56.2320   22.9380   44.0750 C   0  0  0  0  0  0  0  0  0  0  0  0
   57.4460   23.5710   43.7430 C   0  0  0  0  0  0  0  0  0  0  0  0
   57.7350   24.8450   44.2430 C   0  0  0  0  0  0  0  0  0  0  0  0
   56.8210   25.5000   45.0750 C   0  0  0  0  0  0  0  0  0  0  0  0
   57.1760   27.1080   45.6980 S   0  0  0  0  0  0  0  0  0  0  0  0
   57.2520   27.0400   47.1960 O   0  0  0  0  0  0  0  0  0  0  0  0
   58.4910   27.6060   45.1650 O   0  0  0  0  0  0  0  0  0  0  0  0
   55.9220   28.2180   45.2460 N   0  0  0  0  0  0  0  0  0  0  0  0
   56.0870   29.3720   44.4120 C   0  0  0  0  0  0  0  0  0  0  0  0
   55.0560   29.9450   43.9700 O   0  0  0  0  0  0  0  0  0  0  0  0
   57.4360   29.9400   44.0590 C   0  0  0  0  0  0  0  0  0  0  0  0
   58.0140   30.6780   45.2280 C   0  0  0  0  0  0  0  0  0  0  0  0
   58.3820   30.1330   46.4560 C   0  0  0  0  0  0  0  0  0  0  0  0
   58.8130   31.1040   47.2930 N   0  0  0  0  0  0  0  0  0  0  0  0
   58.7120   32.2570   46.6100 C   0  0  0  0  0  0  0  0  0  0  0  0
   59.0300   33.5370   47.0620 C   0  0  0  0  0  0  0  0  0  0  0  0
   58.8350   34.6130   46.1770 C   0  0  0  0  0  0  0  0  0  0  0  0
   58.3310   34.3890   44.8770 C   0  0  0  0  0  0  0  0  0  0  0  0
   58.0180   33.0860   44.4480 C   0  0  0  0  0  0  0  0  0  0  0  0
   58.2240   32.0390   45.3470 C   0  0  0  0  0  0  0  0  0  0  0  0
   55.6160   24.8700   45.4120 C   0  0  0  0  0  0  0  0  0  0  0  0
   55.3250   23.5980   44.9110 C   0  0  0  0  0  0  0  0  0  0  0  0
   57.3634   20.2196   43.7937 H   0  0  0  0  0  0  0  0  0  0  0  0
   56.2714   20.0331   42.3798 H   0  0  0  0  0  0  0  0  0  0  0  0
   57.5297   21.3150   42.3798 H   0  0  0  0  0  0  0  0  0  0  0  0
   58.1688   23.0618   43.0886 H   0  0  0  0  0  0  0  0  0  0  0  0
   58.6849   25.3338   43.9808 H   0  0  0  0  0  0  0  0  0  0  0  0
   58.1125   29.1194   43.7779 H   0  0  0  0  0  0  0  0  0  0  0  0
   57.3198   30.6390   43.2177 H   0  0  0  0  0  0  0  0  0  0  0  0
   58.3295   29.0638   46.7092 H   0  0  0  0  0  0  0  0  0  0  0  0
   59.1480   30.9780   48.2740 H   0  0  0  0  0  0  0  0  0  0  0  0
   59.4205   33.7002   48.0773 H   0  0  0  0  0  0  0  0  0  0  0  0
   59.0769   35.6363   46.5000 H   0  0  0  0  0  0  0  0  0  0  0  0
   58.1821   35.2391   44.1950 H   0  0  0  0  0  0  0  0  0  0  0  0
   57.6242   32.8991   43.4380 H   0  0  0  0  0  0  0  0  0  0  0  0
   54.8973   25.3774   46.0723 H   0  0  0  0  0  0  0  0  0  0  0  0
   54.3747   23.1117   45.1763 H   0  0  0  0  0  0  0  0  0  0  0  0
  1  2  1  0
  2  3  1  0
  3  4  2  0
  4  5  1  0
  5  6  2  0
  6  7  1  0
  7  8  2  0
  7  9  2  0
  7 10  1  0
 10 11  1  0
 11 12  2  0
 11 13  1  0
 13 14  1  0
 14 15  2  0
 15 16  1  0
 16 17  1  0
 17 18  2  0
 18 19  1  0
 19 20  2  0
 20 21  1  0
 21 22  2  0
  6 23  1  0
 23 24  2  0
 24  3  1  0
 22 14  1  0
 22 17  1  0
  1 25  1  0
  1 26  1  0
  1 27  1  0
  4 28  1  0
  5 29  1  0
 13 30  1  0
 13 31  1  0
 15 32  1  0
 16 33  1  0
 18 34  1  0
 19 35  1  0
 20 36  1  0
 21 37  1  0
 23 38  1  0
 24 39  1  0
M  CHG  1  10  -1
M  END
>  <UniqueID>  (38) 
36

>  <SMILES>  (38) 
COc1ccc(S(=O)(=O)[N-]C(=O)Cc2c[nH]c3ccccc23)cc1

>  <Energy>  (38) 
74.55948816653981

>  <Genealogy>  (38) 
COc1ccc(S(=O)(=O)[N-]C(=O)Cc2c[nH]c3ccccc23)cc1 (protonated)
COc1ccc(S(=O)(=O)[N-]C(=O)Cc2c[nH]c3ccccc23)cc1 (3D coordinates assigned)
COc1ccc(S(=O)(=O)[N-]C(=O)Cc2c[nH]c3ccccc23)cc1 (optimized conformer: 74.55948816653981 kcal/mol)

>  <smiles>  (38) 
COc1ccc(S(=O)(=O)NC(=O)Cc2c[nH]c3ccccc23)cc1

>  <score_type>  (38) 
oracle

>  <origin>  (38) 
adg

>  <m_score__min__energy>  (38) 
-10.07

>  <m_primary>  (38) 
energy

$$$$
38:0
     RDKit          3D

 52 55  0  0  0  0  0  0  0  0999 V2000
   57.3600   23.4060   48.0550 N   0  0  0  0  0  0  0  0  0  0  0  0
   56.5470   23.9420   46.6260 S   0  0  0  0  0  0  0  0  0  0  0  0
   56.7950   22.9640   45.5110 O   0  0  0  0  0  0  0  0  0  0  0  0
   55.0680   24.0160   46.8840 O   0  0  0  0  0  0  0  0  0  0  0  0
   57.1480   25.5340   46.1740 C   0  0  0  0  0  0  0  0  0  0  0  0
   58.5260   25.7750   46.0950 C   0  0  0  0  0  0  0  0  0  0  0  0
   58.9980   27.0380   45.7250 C   0  0  0  0  0  0  0  0  0  0  0  0
   58.0960   28.0670   45.4390 C   0  0  0  0  0  0  0  0  0  0  0  0
   56.7170   27.8410   45.5190 C   0  0  0  0  0  0  0  0  0  0  0  0
   55.8230   28.9310   45.2470 N   0  0  0  0  0  0  0  0  0  0  0  0
   56.0150   29.9740   44.2800 C   0  0  0  0  0  0  0  0  0  0  0  0
   55.9880   29.6810   43.0570 O   0  0  0  0  0  0  0  0  0  0  0  0
   56.2470   31.3360   44.6610 N   0  0  0  0  0  0  0  0  0  0  0  0
   57.4930   31.8950   45.1010 C   0  0  0  0  0  0  0  0  0  0  0  0
   57.7630   33.2390   44.8180 C   0  0  0  0  0  0  0  0  0  0  0  0
   58.9490   33.8310   45.2570 C   0  0  0  0  0  0  0  0  0  0  0  0
   59.8730   33.0880   45.9950 C   0  0  0  0  0  0  0  0  0  0  0  0
   61.0130   33.6780   46.4360 N   0  0  0  0  0  0  0  0  0  0  0  0
   61.9530   33.0080   47.1550 C   0  0  0  0  0  0  0  0  0  0  0  0
   63.1570   33.7310   47.6210 C   0  0  0  0  0  0  0  0  0  0  0  0
   63.7340   34.5360   46.8420 O   0  0  0  0  0  0  0  0  0  0  0  0
   63.7040   33.5440   48.9350 N   0  0  0  0  0  0  0  0  0  0  0  0
   63.0610   33.9110   50.1960 C   0  0  0  0  0  0  0  0  0  0  0  0
   61.6930   33.2890   50.2980 C   0  0  0  0  0  0  0  0  0  0  0  0
   61.5270   32.0220   50.8840 C   0  0  0  0  0  0  0  0  0  0  0  0
   60.2600   31.4370   50.9450 C   0  0  0  0  0  0  0  0  0  0  0  0
   59.1460   32.1150   50.4370 C   0  0  0  0  0  0  0  0  0  0  0  0
   57.9180   31.5460   50.5020 F   0  0  0  0  0  0  0  0  0  0  0  0
   59.3000   33.3850   49.8700 C   0  0  0  0  0  0  0  0  0  0  0  0
   60.5690   33.9710   49.8020 C   0  0  0  0  0  0  0  0  0  0  0  0
   61.7480   31.6500   47.4710 C   0  0  0  0  0  0  0  0  0  0  0  0
   62.7130   30.9480   48.1960 O   0  0  0  0  0  0  0  0  0  0  0  0
   60.5710   31.0130   47.0350 C   0  0  0  0  0  0  0  0  0  0  0  0
   60.3800   29.7960   47.3140 O   0  0  0  0  0  0  0  0  0  0  0  0
   59.6180   31.7320   46.2920 C   0  0  0  0  0  0  0  0  0  0  0  0
   58.4180   31.1440   45.8480 C   0  0  0  0  0  0  0  0  0  0  0  0
   56.2460   26.5740   45.9120 C   0  0  0  0  0  0  0  0  0  0  0  0
   57.1650   24.1130   48.7980 H   0  0  0  0  0  0  0  0  0  0  0  0
   59.2381   24.9687   46.3246 H   0  0  0  0  0  0  0  0  0  0  0  0
   60.0805   27.2222   45.6589 H   0  0  0  0  0  0  0  0  0  0  0  0
   58.4719   29.0594   45.1496 H   0  0  0  0  0  0  0  0  0  0  0  0
   57.0355   33.8332   44.2456 H   0  0  0  0  0  0  0  0  0  0  0  0
   59.1560   34.8852   45.0210 H   0  0  0  0  0  0  0  0  0  0  0  0
   63.6811   33.5584   51.0333 H   0  0  0  0  0  0  0  0  0  0  0  0
   62.9551   35.0053   50.2331 H   0  0  0  0  0  0  0  0  0  0  0  0
   62.3972   31.4898   51.2956 H   0  0  0  0  0  0  0  0  0  0  0  0
   60.1374   30.4402   51.3938 H   0  0  0  0  0  0  0  0  0  0  0  0
   58.4240   33.9225   49.4779 H   0  0  0  0  0  0  0  0  0  0  0  0
   60.6872   34.9705   49.3581 H   0  0  0  0  0  0  0  0  0  0  0  0
   63.4410   31.4140   48.7230 H   0  0  0  0  0  0  0  0  0  0  0  0
   58.2031   30.0919   46.0867 H   0  0  0  0  0  0  0  0  0  0  0  0
   55.1647   26.3994   46.0139 H   0  0  0  0  0  0  0  0  0  0  0  0
  1  2  1  0
  2  3  2  0
  2  4  2  0
  2  5  1  0
  5  6  2  0
  6  7  1  0
  7  8  2  0
  8  9  1  0
  9 10  1  0
 10 11  1  0
 11 12  2  0
 11 13  1  0
 13 14  1  0
 14 15  2  0
 15 16  1  0
 16 17  2  0
 17 18  1  0
 18 19  1  0
 19 20  1  0
 20 21  2  0
 20 22  1  0
 22 23  1  0
 23 24  1  0
 24 25  2  0
 25 26  1  0
 26 27  2  0
 27 28  1  0
 27 29  1  0
 29 30  2  0
 19 31  2  0
 31 32  1  0
 31 33  1  0
 33 34  2  0
 33 35  1  0
 35 36  2  0
  9 37  2  0
 37  5  1  0
 36 14  1  0
 35 17  1  0
 30 24  1  0
  1 38  1  0
  6 39  1  0
  7 40  1  0
  8 41  1  0
 15 42  1  0
 16 43  1  0
 23 44  1  0
 23 45  1  0
 25 46  1  0
 26 47  1  0
 29 48  1  0
 30 49  1  0
 32 50  1  0
 36 51  1  0
 37 52  1  0
M  CHG  5   1  -1  10  -1  13  -1  18  -1  22  -1
M  END
>  <UniqueID>  (39) 
37

>  <SMILES>  (39) 
[NH-]S(=O)(=O)c1cccc([N-]C(=O)[N-]c2ccc3[n-]c(C(=O)[N-]Cc4ccc(F)cc4)c(O)c(=O)c3c2)c1

>  <Energy>  (39) 
66.73987601107895

>  <Genealogy>  (39) 
[NH-]S(=O)(=O)c1cccc([N-]C(=O)[N-]c2ccc3[n-]c(C(=O)[N-]Cc4ccc(F)cc4)c(O)c(=O)c3c2)c1 (protonated)
[NH-]S(=O)(=O)c1cccc([N-]C(=O)[N-]c2ccc3[n-]c(C(=O)[N-]Cc4ccc(F)cc4)c(O)c(=O)c3c2)c1 (3D coordinates assigned)
[NH-]S(=O)(=O)c1cccc([N-]C(=O)[N-]c2ccc3[n-]c(C(=O)[N-]Cc4ccc(F)cc4)c(O)c(=O)c3c2)c1 (optimized conformer: 66.73987601107895 kcal/mol)

>  <smiles>  (39) 
NS(=O)(=O)c1cccc(NC(=O)Nc2ccc3[nH]c(C(=O)NCc4ccc(F)cc4)c(O)c(=O)c3c2)c1

>  <score_type>  (39) 
oracle

>  <origin>  (39) 
adg

>  <m_score__min__energy>  (39) 
-14.890000000000001

>  <m_primary>  (39) 
energy

$$$$
39:0
     RDKit          3D

 44 46  0  0  0  0  0  0  0  0999 V2000
   62.3550   33.1810   47.2000 C   0  0  0  0  0  0  0  0  0  0  0  0
   61.0320   33.0100   47.7020 O   0  0  0  0  0  0  0  0  0  0  0  0
   59.8620   33.3380   46.9980 C   0  0  0  0  0  0  0  0  0  0  0  0
   59.9120   33.8840   45.6980 C   0  0  0  0  0  0  0  0  0  0  0  0
   58.7330   34.1910   45.0180 C   0  0  0  0  0  0  0  0  0  0  0  0
   57.4950   33.9470   45.6140 C   0  0  0  0  0  0  0  0  0  0  0  0
   57.4340   33.4040   46.8980 C   0  0  0  0  0  0  0  0  0  0  0  0
   58.6090   33.1100   47.6060 C   0  0  0  0  0  0  0  0  0  0  0  0
   58.5030   32.4720   48.9680 C   0  0  0  0  0  0  0  0  0  0  0  0
   59.2510   31.2190   48.9810 N   0  0  0  0  0  0  0  0  0  0  0  0
   58.9890   30.1810   49.9360 C   0  0  0  0  0  0  0  0  0  0  0  0
   57.8660   30.1100   50.5070 O   0  0  0  0  0  0  0  0  0  0  0  0
   60.0660   29.2090   50.3110 C   0  0  0  0  0  0  0  0  0  0  0  0
   60.6600   28.6620   49.1360 O   0  0  0  0  0  0  0  0  0  0  0  0
   59.9300   28.0390   48.1170 C   0  0  0  0  0  0  0  0  0  0  0  0
   59.7200   26.7960   48.1630 O   0  0  0  0  0  0  0  0  0  0  0  0
   59.4060   28.8510   46.9890 C   0  0  0  0  0  0  0  0  0  0  0  0
   58.1380   28.5610   46.4570 C   0  0  0  0  0  0  0  0  0  0  0  0
   57.6450   29.3050   45.3820 C   0  0  0  0  0  0  0  0  0  0  0  0
   56.3800   29.0490   44.8290 C   0  0  0  0  0  0  0  0  0  0  0  0
   55.9240   29.8120   43.7490 C   0  0  0  0  0  0  0  0  0  0  0  0
   56.7270   30.8270   43.2170 C   0  0  0  0  0  0  0  0  0  0  0  0
   57.9880   31.0880   43.7660 C   0  0  0  0  0  0  0  0  0  0  0  0
   58.4500   30.3340   44.8510 C   0  0  0  0  0  0  0  0  0  0  0  0
   59.6430   30.5920   45.3790 O   0  0  0  0  0  0  0  0  0  0  0  0
   60.1400   29.9100   46.4080 C   0  0  0  0  0  0  0  0  0  0  0  0
   61.2780   30.2280   46.8520 O   0  0  0  0  0  0  0  0  0  0  0  0
   63.0576   33.2718   48.0415 H   0  0  0  0  0  0  0  0  0  0  0  0
   62.6293   32.3108   46.5855 H   0  0  0  0  0  0  0  0  0  0  0  0
   62.3991   34.0923   46.5855 H   0  0  0  0  0  0  0  0  0  0  0  0
   60.8847   34.0684   45.2185 H   0  0  0  0  0  0  0  0  0  0  0  0
   58.7795   34.6267   44.0090 H   0  0  0  0  0  0  0  0  0  0  0  0
   56.5674   34.1827   45.0717 H   0  0  0  0  0  0  0  0  0  0  0  0
   56.4555   33.2046   47.3594 H   0  0  0  0  0  0  0  0  0  0  0  0
   58.9178   33.1539   49.7250 H   0  0  0  0  0  0  0  0  0  0  0  0
   57.4460   32.2689   49.1951 H   0  0  0  0  0  0  0  0  0  0  0  0
   60.1320   31.1750   48.4200 H   0  0  0  0  0  0  0  0  0  0  0  0
   60.8360   29.7281   50.9006 H   0  0  0  0  0  0  0  0  0  0  0  0
   59.6264   28.3948   50.9059 H   0  0  0  0  0  0  0  0  0  0  0  0
   57.5338   27.7485   46.8868 H   0  0  0  0  0  0  0  0  0  0  0  0
   55.7486   28.2497   45.2444 H   0  0  0  0  0  0  0  0  0  0  0  0
   54.9320   29.6137   43.3170 H   0  0  0  0  0  0  0  0  0  0  0  0
   56.3663   31.4216   42.3648 H   0  0  0  0  0  0  0  0  0  0  0  0
   58.6164   31.8864   43.3443 H   0  0  0  0  0  0  0  0  0  0  0  0
  1  2  1  0
  2  3  1  0
  3  4  2  0
  4  5  1  0
  5  6  2  0
  6  7  1  0
  7  8  2  0
  8  9  1  0
  9 10  1  0
 10 11  1  0
 11 12  2  0
 11 13  1  0
 13 14  1  0
 14 15  1  0
 15 16  2  0
 15 17  1  0
 17 18  2  0
 18 19  1  0
 19 20  2  0
 20 21  1  0
 21 22  2  0
 22 23  1  0
 23 24  2  0
 24 25  1  0
 25 26  1  0
 26 27  2  0
  8  3  1  0
 26 17  1  0
 24 19  1  0
  1 28  1  0
  1 29  1  0
  1 30  1  0
  4 31  1  0
  5 32  1  0
  6 33  1  0
  7 34  1  0
  9 35  1  0
  9 36  1  0
 10 37  1  0
 13 38  1  0
 13 39  1  0
 18 40  1  0
 20 41  1  0
 21 42  1  0
 22 43  1  0
 23 44  1  0
M  END
>  <UniqueID>  (40) 
38

>  <SMILES>  (40) 
COc1ccccc1CNC(=O)COC(=O)c1cc2ccccc2oc1=O

>  <Energy>  (40) 
45.42626812782988

>  <Genealogy>  (40) 
COc1ccccc1CNC(=O)COC(=O)c1cc2ccccc2oc1=O (3D coordinates assigned)
COc1ccccc1CNC(=O)COC(=O)c1cc2ccccc2oc1=O (optimized conformer: 45.42626812782988 kcal/mol)

>  <smiles>  (40) 
COc1ccccc1CNC(=O)COC(=O)c1cc2ccccc2oc1=O

>  <score_type>  (40) 
oracle

>  <origin>  (40) 
adg

>  <m_score__min__energy>  (40) 
-8.1699999999999999

>  <m_primary>  (40) 
energy

$$$$
40:0
     RDKit          3D

 50 52  0  0  0  0  0  0  0  0999 V2000
   56.4520   24.4330   43.5550 C   0  0  0  0  0  0  0  0  0  0  0  0
   56.6770   24.0510   44.9540 N   0  0  0  0  0  0  0  0  0  0  0  0
   58.0460   24.3340   45.4370 C   0  0  0  0  0  0  0  0  0  0  0  0
   58.3720   25.8010   45.5630 C   0  0  0  0  0  0  0  0  0  0  0  0
   59.4490   26.1540   46.1130 O   0  0  0  0  0  0  0  0  0  0  0  0
   57.4470   26.7870   45.0730 N   0  0  0  0  0  0  0  0  0  0  0  0
   57.6060   28.2060   45.2460 C   0  0  0  0  0  0  0  0  0  0  0  0
   58.2550   28.7450   46.3710 C   0  0  0  0  0  0  0  0  0  0  0  0
   58.4000   30.1270   46.5100 C   0  0  0  0  0  0  0  0  0  0  0  0
   57.8820   30.9990   45.5390 C   0  0  0  0  0  0  0  0  0  0  0  0
   58.0510   32.4230   45.6750 N   0  0  0  0  0  0  0  0  0  0  0  0
   58.2490   33.2510   44.4800 C   0  0  0  0  0  0  0  0  0  0  0  0
   58.6930   34.6600   44.8760 C   0  0  0  0  0  0  0  0  0  0  0  0
   59.5800   34.5800   45.9710 O   0  0  0  0  0  0  0  0  0  0  0  0
   58.8670   34.2550   47.1530 C   0  0  0  0  0  0  0  0  0  0  0  0
   57.8890   33.0680   46.9850 C   0  0  0  0  0  0  0  0  0  0  0  0
   57.2110   30.4620   44.4290 C   0  0  0  0  0  0  0  0  0  0  0  0
   57.0630   29.0800   44.2930 C   0  0  0  0  0  0  0  0  0  0  0  0
   55.4160   24.6500   46.0120 S   0  0  0  0  0  0  0  0  0  0  0  0
   55.1130   26.0790   45.6550 O   0  0  0  0  0  0  0  0  0  0  0  0
   55.9160   24.6230   47.4280 O   0  0  0  0  0  0  0  0  0  0  0  0
   53.9300   23.6960   45.9300 C   0  0  0  0  0  0  0  0  0  0  0  0
   52.8690   24.0980   45.1060 C   0  0  0  0  0  0  0  0  0  0  0  0
   51.6990   23.3360   45.0360 C   0  0  0  0  0  0  0  0  0  0  0  0
   51.5720   22.1780   45.8080 C   0  0  0  0  0  0  0  0  0  0  0  0
   52.6110   21.7890   46.6590 C   0  0  0  0  0  0  0  0  0  0  0  0
   53.7830   22.5490   46.7270 C   0  0  0  0  0  0  0  0  0  0  0  0
   55.8940   25.3803   43.5188 H   0  0  0  0  0  0  0  0  0  0  0  0
   57.4205   24.5583   43.0488 H   0  0  0  0  0  0  0  0  0  0  0  0
   55.8728   23.6467   43.0488 H   0  0  0  0  0  0  0  0  0  0  0  0
   58.1644   23.8691   46.4269 H   0  0  0  0  0  0  0  0  0  0  0  0
   58.7353   23.9230   44.6846 H   0  0  0  0  0  0  0  0  0  0  0  0
   56.6750   26.4590   44.4490 H   0  0  0  0  0  0  0  0  0  0  0  0
   58.6512   28.0734   47.1469 H   0  0  0  0  0  0  0  0  0  0  0  0
   58.9239   30.5355   47.3867 H   0  0  0  0  0  0  0  0  0  0  0  0
   59.0214   32.7925   43.8451 H   0  0  0  0  0  0  0  0  0  0  0  0
   57.2986   33.3174   43.9301 H   0  0  0  0  0  0  0  0  0  0  0  0
   59.2016   35.1375   44.0255 H   0  0  0  0  0  0  0  0  0  0  0  0
   57.8135   35.2576   45.1576 H   0  0  0  0  0  0  0  0  0  0  0  0
   59.5942   33.9971   47.9370 H   0  0  0  0  0  0  0  0  0  0  0  0
   58.2612   35.1352   47.4143 H   0  0  0  0  0  0  0  0  0  0  0  0
   58.0847   32.3281   47.7751 H   0  0  0  0  0  0  0  0  0  0  0  0
   56.8610   33.4527   47.0574 H   0  0  0  0  0  0  0  0  0  0  0  0
   56.7992   31.1339   43.6616 H   0  0  0  0  0  0  0  0  0  0  0  0
   56.5153   28.6731   43.4302 H   0  0  0  0  0  0  0  0  0  0  0  0
   52.9579   25.0188   44.5109 H   0  0  0  0  0  0  0  0  0  0  0  0
   50.8783   23.6479   44.3733 H   0  0  0  0  0  0  0  0  0  0  0  0
   50.6554   21.5730   45.7462 H   0  0  0  0  0  0  0  0  0  0  0  0
   52.5064   20.8842   47.2757 H   0  0  0  0  0  0  0  0  0  0  0  0
   54.5929   22.2472   47.4074 H   0  0  0  0  0  0  0  0  0  0  0  0
  1  2  1  0
  2  3  1  0
  3  4  1  0
  4  5  2  0
  4  6  1  0
  6  7  1  0
  7  8  2  0
  8  9  1  0
  9 10  2  0
 10 11  1  0
 11 12  1  0
 12 13  1  0
 13 14  1  0
 14 15  1  0
 15 16  1  0
 10 17  1  0
 17 18  2  0
  2 19  1  0
 19 20  2  0
 19 21  2  0
 19 22  1  0
 22 23  2  0
 23 24  1  0
 24 25  2  0
 25 26  1  0
 26 27  2  0
 18  7  1  0
 27 22  1  0
 16 11  1  0
  1 28  1  0
  1 29  1  0
  1 30  1  0
  3 31  1  0
  3 32  1  0
  6 33  1  0
  8 34  1  0
  9 35  1  0
 12 36  1  0
 12 37  1  0
 13 38  1  0
 13 39  1  0
 15 40  1  0
 15 41  1  0
 16 42  1  0
 16 43  1  0
 17 44  1  0
 18 45  1  0
 23 46  1  0
 24 47  1  0
 25 48  1  0
 26 49  1  0
 27 50  1  0
M  END
>  <UniqueID>  (41) 
39

>  <SMILES>  (41) 
CN(CC(=O)Nc1ccc(N2CCOCC2)cc1)S(=O)(=O)c1ccccc1

>  <Energy>  (41) 
65.64654900083339

>  <Genealogy>  (41) 
CN(CC(=O)Nc1ccc(N2CCOCC2)cc1)S(=O)(=O)c1ccccc1 (3D coordinates assigned)
CN(CC(=O)Nc1ccc(N2CCOCC2)cc1)S(=O)(=O)c1ccccc1 (nonaromatic ring conformer: 65.64654900083339 kcal/mol)

>  <smiles>  (41) 
CN(CC(=O)Nc1ccc(N2CCOCC2)cc1)S(=O)(=O)c1ccccc1

>  <score_type>  (41) 
oracle

>  <origin>  (41) 
adg

>  <m_score__min__energy>  (41) 
-8.5899999999999999

>  <m_primary>  (41) 
energy

$$$$
41:0
     RDKit          3D

 54 57  0  0  0  0  0  0  0  0999 V2000
   59.8110   33.8550   51.0450 N   0  0  0  0  0  0  0  0  0  0  0  0
   60.1450   34.2530   49.7160 C   0  0  0  0  0  0  0  0  0  0  0  0
   59.3030   34.9090   49.0450 O   0  0  0  0  0  0  0  0  0  0  0  0
   61.4490   33.8640   49.1250 C   0  0  0  0  0  0  0  0  0  0  0  0
   62.6250   34.1380   49.8480 C   0  0  0  0  0  0  0  0  0  0  0  0
   63.8710   33.7270   49.3730 C   0  0  0  0  0  0  0  0  0  0  0  0
   63.9650   33.0320   48.1690 C   0  0  0  0  0  0  0  0  0  0  0  0
   62.8160   32.7610   47.4270 C   0  0  0  0  0  0  0  0  0  0  0  0
   61.5530   33.1800   47.8810 C   0  0  0  0  0  0  0  0  0  0  0  0
   60.3830   32.9410   47.0040 C   0  0  0  0  0  0  0  0  0  0  0  0
   60.1220   33.7970   45.9220 C   0  0  0  0  0  0  0  0  0  0  0  0
   59.0300   33.5600   45.0830 C   0  0  0  0  0  0  0  0  0  0  0  0
   58.1830   32.4660   45.3160 C   0  0  0  0  0  0  0  0  0  0  0  0
   57.0300   32.1910   44.3940 C   0  0  0  0  0  0  0  0  0  0  0  0
   56.3600   30.9660   44.8110 N   0  0  0  0  0  0  0  0  0  0  0  0
   56.6000   29.6820   44.2260 C   0  0  0  0  0  0  0  0  0  0  0  0
   56.0380   29.3890   43.1390 O   0  0  0  0  0  0  0  0  0  0  0  0
   57.4670   28.6820   44.8820 C   0  0  0  0  0  0  0  0  0  0  0  0
   56.9060   27.5900   45.5610 C   0  0  0  0  0  0  0  0  0  0  0  0
   55.5190   27.4680   45.6190 O   0  0  0  0  0  0  0  0  0  0  0  0
   57.7130   26.6610   46.1690 N   0  0  0  0  0  0  0  0  0  0  0  0
   57.1210   25.5010   46.8640 C   0  0  0  0  0  0  0  0  0  0  0  0
   56.9130   24.3590   45.9030 C   0  0  0  0  0  0  0  0  0  0  0  0
   57.9200   23.3980   45.7160 C   0  0  0  0  0  0  0  0  0  0  0  0
   57.7170   22.3240   44.8450 C   0  0  0  0  0  0  0  0  0  0  0  0
   56.5080   22.1950   44.1540 C   0  0  0  0  0  0  0  0  0  0  0  0
   56.3200   21.1190   43.2900 O   0  0  0  0  0  0  0  0  0  0  0  0
   55.4980   23.1490   44.3390 C   0  0  0  0  0  0  0  0  0  0  0  0
   55.6980   24.2240   45.2100 C   0  0  0  0  0  0  0  0  0  0  0  0
   59.0770   26.8000   46.1000 C   0  0  0  0  0  0  0  0  0  0  0  0
   59.8400   25.9610   46.6490 O   0  0  0  0  0  0  0  0  0  0  0  0
   59.6270   27.8460   45.4340 N   0  0  0  0  0  0  0  0  0  0  0  0
   58.8600   28.7810   44.8220 C   0  0  0  0  0  0  0  0  0  0  0  0
   59.4160   29.7210   44.1940 O   0  0  0  0  0  0  0  0  0  0  0  0
   58.4610   31.5930   46.3790 C   0  0  0  0  0  0  0  0  0  0  0  0
   59.5540   31.8300   47.2180 C   0  0  0  0  0  0  0  0  0  0  0  0
   59.2720   34.4880   51.6770 H   0  0  0  0  0  0  0  0  0  0  0  0
   62.5610   34.6838   50.8009 H   0  0  0  0  0  0  0  0  0  0  0  0
   64.7802   33.9520   49.9498 H   0  0  0  0  0  0  0  0  0  0  0  0
   64.9468   32.6967   47.8034 H   0  0  0  0  0  0  0  0  0  0  0  0
   62.8985   32.2136   46.4764 H   0  0  0  0  0  0  0  0  0  0  0  0
   60.7802   34.6581   45.7340 H   0  0  0  0  0  0  0  0  0  0  0  0
   58.8336   34.2341   44.2362 H   0  0  0  0  0  0  0  0  0  0  0  0
   56.3197   33.0299   44.4339 H   0  0  0  0  0  0  0  0  0  0  0  0
   57.4011   32.0755   43.3650 H   0  0  0  0  0  0  0  0  0  0  0  0
   57.7972   25.1778   47.6692 H   0  0  0  0  0  0  0  0  0  0  0  0
   56.1471   25.7959   47.2818 H   0  0  0  0  0  0  0  0  0  0  0  0
   58.8729   23.4911   46.2576 H   0  0  0  0  0  0  0  0  0  0  0  0
   58.5117   21.5769   44.7024 H   0  0  0  0  0  0  0  0  0  0  0  0
   56.9120   20.2980   43.3300 H   0  0  0  0  0  0  0  0  0  0  0  0
   54.5455   23.0516   43.7974 H   0  0  0  0  0  0  0  0  0  0  0  0
   54.9004   24.9678   45.3536 H   0  0  0  0  0  0  0  0  0  0  0  0
   57.8164   30.7188   46.5528 H   0  0  0  0  0  0  0  0  0  0  0  0
   59.7648   31.1419   48.0499 H   0  0  0  0  0  0  0  0  0  0  0  0
  1  2  1  0
  2  3  2  0
  2  4  1  0
  4  5  2  0
  5  6  1  0
  6  7  2  0
  7  8  1  0
  8  9  2  0
  9 10  1  0
 10 11  2  0
 11 12  1  0
 12 13  2  0
 13 14  1  0
 14 15  1  0
 15 16  1  0
 16 17  2  0
 16 18  1  0
 18 19  2  0
 19 20  1  0
 19 21  1  0
 21 22  1  0
 22 23  1  0
 23 24  2  0
 24 25  1  0
 25 26  2  0
 26 27  1  0
 26 28  1  0
 28 29  2  0
 21 30  1  0
 30 31  2  0
 30 32  1  0
 32 33  1  0
 33 34  2  0
 13 35  1  0
 35 36  2  0
  9  4  1  0
 36 10  1  0
 33 18  1  0
 29 23  1  0
  1 37  1  0
  5 38  1  0
  6 39  1  0
  7 40  1  0
  8 41  1  0
 11 42  1  0
 12 43  1  0
 14 44  1  0
 14 45  1  0
 22 46  1  0
 22 47  1  0
 24 48  1  0
 25 49  1  0
 27 50  1  0
 28 51  1  0
 29 52  1  0
 35 53  1  0
 36 54  1  0
M  CHG  4   1  -1  15  -1  20  -1  32  -1
M  END
>  <UniqueID>  (42) 
40

>  <SMILES>  (42) 
[NH-]C(=O)c1ccccc1-c1ccc(C[N-]C(=O)c2c([O-])n(Cc3ccc(O)cc3)c(=O)[n-]c2=O)cc1

>  <Energy>  (42) 
78.06761914859041

>  <Genealogy>  (42) 
[NH-]C(=O)c1ccccc1-c1ccc(C[N-]C(=O)c2c([O-])n(Cc3ccc(O)cc3)c(=O)[n-]c2=O)cc1 (protonated)
[NH-]C(=O)c1ccccc1-c1ccc(C[N-]C(=O)c2c([O-])n(Cc3ccc(O)cc3)c(=O)[n-]c2=O)cc1 (3D coordinates assigned)
[NH-]C(=O)c1ccccc1-c1ccc(C[N-]C(=O)c2c([O-])n(Cc3ccc(O)cc3)c(=O)[n-]c2=O)cc1 (optimized conformer: 78.06761914859041 kcal/mol)

>  <smiles>  (42) 
NC(=O)c1ccccc1-c1ccc(CNC(=O)c2c(O)n(Cc3ccc(O)cc3)c(=O)[nH]c2=O)cc1

>  <score_type>  (42) 
oracle

>  <origin>  (42) 
adg

>  <m_score__min__energy>  (42) 
-17.510000000000002

>  <m_primary>  (42) 
energy

$$$$
42:0
     RDKit          3D

 41 43  0  0  0  0  0  0  0  0999 V2000
   57.7640   33.8070   44.1490 O   0  0  0  0  0  0  0  0  0  0  0  0
   57.3390   33.1290   45.1230 C   0  0  0  0  0  0  0  0  0  0  0  0
   57.6620   33.5480   46.5210 C   0  0  0  0  0  0  0  0  0  0  0  0
   59.1540   33.5640   46.7080 C   0  0  0  0  0  0  0  0  0  0  0  0
   59.7310   32.6040   47.4840 N   0  0  0  0  0  0  0  0  0  0  0  0
   61.0670   32.5980   47.7300 C   0  0  0  0  0  0  0  0  0  0  0  0
   61.6410   31.6020   48.5260 C   0  0  0  0  0  0  0  0  0  0  0  0
   63.0190   31.6110   48.7660 C   0  0  0  0  0  0  0  0  0  0  0  0
   63.8250   32.6100   48.2070 C   0  0  0  0  0  0  0  0  0  0  0  0
   63.2540   33.6110   47.4110 C   0  0  0  0  0  0  0  0  0  0  0  0
   61.8750   33.6100   47.1740 C   0  0  0  0  0  0  0  0  0  0  0  0
   61.3010   34.5810   46.4170 N   0  0  0  0  0  0  0  0  0  0  0  0
   59.9630   34.5900   46.1770 C   0  0  0  0  0  0  0  0  0  0  0  0
   59.4630   35.5180   45.4880 O   0  0  0  0  0  0  0  0  0  0  0  0
   56.6030   31.9240   44.9010 N   0  0  0  0  0  0  0  0  0  0  0  0
   57.2490   30.6370   44.6950 C   0  0  0  0  0  0  0  0  0  0  0  0
   56.2200   29.6190   44.1990 C   0  0  0  0  0  0  0  0  0  0  0  0
   55.9120   28.6460   45.2440 N   0  0  0  0  0  0  0  0  0  0  0  0
   56.8680   27.7430   45.8190 C   0  0  0  0  0  0  0  0  0  0  0  0
   57.8060   28.2110   46.5180 O   0  0  0  0  0  0  0  0  0  0  0  0
   56.7670   26.2820   45.6370 C   0  0  0  0  0  0  0  0  0  0  0  0
   57.9220   25.5400   45.3400 C   0  0  0  0  0  0  0  0  0  0  0  0
   57.8460   24.1540   45.1780 C   0  0  0  0  0  0  0  0  0  0  0  0
   56.6160   23.5030   45.2920 C   0  0  0  0  0  0  0  0  0  0  0  0
   55.4600   24.2340   45.5760 C   0  0  0  0  0  0  0  0  0  0  0  0
   55.5280   25.6220   45.7420 C   0  0  0  0  0  0  0  0  0  0  0  0
   54.3620   26.3390   45.9930 O   0  0  0  0  0  0  0  0  0  0  0  0
   57.2588   34.5549   46.7043 H   0  0  0  0  0  0  0  0  0  0  0  0
   57.2115   32.8376   47.2298 H   0  0  0  0  0  0  0  0  0  0  0  0
   61.0105   30.8133   48.9624 H   0  0  0  0  0  0  0  0  0  0  0  0
   63.4709   30.8306   49.3960 H   0  0  0  0  0  0  0  0  0  0  0  0
   64.9091   32.6087   48.3934 H   0  0  0  0  0  0  0  0  0  0  0  0
   63.8881   34.3960   46.9732 H   0  0  0  0  0  0  0  0  0  0  0  0
   58.0479   30.7442   43.9465 H   0  0  0  0  0  0  0  0  0  0  0  0
   57.6789   30.2880   45.6455 H   0  0  0  0  0  0  0  0  0  0  0  0
   55.2980   30.1469   43.9139 H   0  0  0  0  0  0  0  0  0  0  0  0
   56.6383   29.0867   43.3320 H   0  0  0  0  0  0  0  0  0  0  0  0
   58.8900   26.0517   45.2345 H   0  0  0  0  0  0  0  0  0  0  0  0
   58.7559   23.5754   44.9605 H   0  0  0  0  0  0  0  0  0  0  0  0
   56.5572   22.4128   45.1580 H   0  0  0  0  0  0  0  0  0  0  0  0
   54.4935   23.7172   45.6694 H   0  0  0  0  0  0  0  0  0  0  0  0
  1  2  2  0
  2  3  1  0
  3  4  1  0
  4  5  2  0
  5  6  1  0
  6  7  2  0
  7  8  1  0
  8  9  2  0
  9 10  1  0
 10 11  2  0
 11 12  1  0
 12 13  1  0
 13 14  2  0
  2 15  1  0
 15 16  1  0
 16 17  1  0
 17 18  1  0
 18 19  1  0
 19 20  2  0
 19 21  1  0
 21 22  2  0
 22 23  1  0
 23 24  2  0
 24 25  1  0
 25 26  2  0
 26 27  1  0
 13  4  1  0
 26 21  1  0
 11  6  1  0
  3 28  1  0
  3 29  1  0
  7 30  1  0
  8 31  1  0
  9 32  1  0
 10 33  1  0
 16 34  1  0
 16 35  1  0
 17 36  1  0
 17 37  1  0
 22 38  1  0
 23 39  1  0
 24 40  1  0
 25 41  1  0
M  CHG  4  12  -1  15  -1  18  -1  27  -1
M  END
>  <UniqueID>  (43) 
41

>  <SMILES>  (43) 
O=C(Cc1nc2ccccc2[n-]c1=O)[N-]CC[N-]C(=O)c1ccccc1[O-]

>  <Energy>  (43) 
44.674136739498465

>  <Genealogy>  (43) 
O=C(Cc1nc2ccccc2[n-]c1=O)[N-]CC[N-]C(=O)c1ccccc1[O-] (protonated)
O=C(Cc1nc2ccccc2[n-]c1=O)[N-]CC[N-]C(=O)c1ccccc1[O-] (3D coordinates assigned)
O=C(Cc1nc2ccccc2[n-]c1=O)[N-]CC[N-]C(=O)c1ccccc1[O-] (optimized conformer: 44.674136739498465 kcal/mol)

>  <smiles>  (43) 
O=C(Cc1nc2ccccc2[nH]c1=O)NCCNC(=O)c1ccccc1O

>  <score_type>  (43) 
oracle

>  <origin>  (43) 
adg

>  <m_score__min__energy>  (43) 
-15.93

>  <m_primary>  (43) 
energy

$$$$
43:0
     RDKit          3D

 80 84  0  0  1  0  0  0  0  0999 V2000
   63.7820   29.3140   53.6540 C   0  0  0  0  0  0  0  0  0  0  0  0
   63.4420   29.3240   52.2400 N   0  0  0  0  0  0  0  0  0  0  0  0
   62.5330   28.3050   51.6830 C   0  0  0  0  0  0  0  0  0  0  0  0
   63.9590   30.3050   51.3460 C   0  0  0  0  0  0  0  0  0  0  0  0
   65.2750   30.7710   51.4520 C   0  0  0  0  0  0  0  0  0  0  0  0
   65.7530   31.7390   50.5610 C   0  0  0  0  0  0  0  0  0  0  0  0
   64.9090   32.2200   49.5800 C   0  0  0  0  0  0  0  0  0  0  0  0
   63.6080   31.7810   49.4490 C   0  0  0  0  0  0  0  0  0  0  0  0
   62.7110   32.3360   48.4050 C   0  0  0  0  0  0  0  0  0  0  0  0
   63.3290   32.8020   47.3810 O   0  0  0  0  0  0  0  0  0  0  0  0
   61.3240   32.3410   48.5390 N   0  0  0  0  0  0  0  0  0  0  0  0
   60.3810   32.8510   47.6120 C   0  0  0  0  0  0  0  0  0  0  0  0
   59.8860   34.1340   47.8850 C   0  0  0  0  0  0  0  0  0  0  0  0
   58.9560   34.7470   47.0870 C   0  0  0  0  0  0  0  0  0  0  0  0
   58.5170   34.0400   45.9850 C   0  0  0  0  0  0  0  0  0  0  0  0
   58.9920   32.7610   45.6860 C   0  0  0  0  0  0  0  0  0  0  0  0
   58.4530   32.1270   44.5390 N   0  0  0  0  0  0  0  0  0  0  0  0
   57.5060   31.0720   44.5910 C   0  0  0  0  0  0  0  0  0  0  0  0
   57.9280   29.9160   45.2650 C   0  0  0  0  0  0  0  0  0  0  0  0
   57.0710   28.8130   45.3960 C   0  0  0  0  0  0  0  0  0  0  0  0
   57.4720   27.7350   46.0170 N   0  0  0  0  0  0  0  0  0  0  0  0
   58.5470   27.9710   46.9550 C   0  0  0  0  0  0  0  0  0  0  0  0
   59.7320   27.2860   46.9010 C   0  0  0  0  0  0  0  0  0  0  0  0
   60.6910   27.5700   47.8580 C   0  0  0  0  0  0  0  0  0  0  0  0
   60.4940   28.5140   48.8590 C   0  0  0  0  0  0  0  0  0  0  0  0
   59.2800   29.2150   48.9120 C   0  0  0  0  0  0  0  0  0  0  0  0
   59.0080   30.3940   50.1700 S   0  0  0  0  0  0  0  0  0  0  0  0
   58.6890   31.7420   49.5380 O   0  0  0  0  0  0  0  0  0  0  0  0
   57.8100   30.0520   50.9970 O   0  0  0  0  0  0  0  0  0  0  0  0
   60.3730   30.6420   51.1640 N   0  0  0  0  0  0  0  0  0  0  0  0
   60.1210   30.4670   52.5770 C   0  0  0  0  0  0  0  0  0  0  0  0
   60.4190   31.8000   53.2270 C   0  0  0  0  0  0  0  0  0  0  0  0
   61.5210   32.5060   52.6430 N   0  0  0  0  0  0  0  0  0  0  0  0
   62.4750   32.9910   53.5910 C   0  0  0  0  0  0  0  0  0  0  0  0
   63.4230   34.0050   52.9840 C   0  0  0  0  0  0  0  0  0  0  0  0
   63.4540   33.8950   51.5950 O   0  0  0  0  0  0  0  0  0  0  0  0
   62.2080   34.1510   51.0330 C   0  0  0  0  0  0  0  0  0  0  0  0
   61.0620   33.6150   51.8090 C   0  0  0  0  0  0  0  0  0  0  0  0
   58.3690   28.8960   47.9450 C   0  0  0  0  0  0  0  0  0  0  0  0
   55.8570   28.9250   44.8530 N   0  0  0  0  0  0  0  0  0  0  0  0
   55.4380   30.0410   44.1950 C   0  0  0  0  0  0  0  0  0  0  0  0
   56.2760   31.1180   44.0670 N   0  0  0  0  0  0  0  0  0  0  0  0
   59.9310   32.1620   46.5090 C   0  0  0  0  0  0  0  0  0  0  0  0
   63.1490   30.8180   50.3460 C   0  0  0  0  0  0  0  0  0  0  0  0
   62.8598   29.3411   54.2531 H   0  0  0  0  0  0  0  0  0  0  0  0
   64.3453   28.3989   53.8892 H   0  0  0  0  0  0  0  0  0  0  0  0
   64.3981   30.1944   53.8892 H   0  0  0  0  0  0  0  0  0  0  0  0
   62.0463   27.7593   52.5048 H   0  0  0  0  0  0  0  0  0  0  0  0
   61.7671   28.7957   51.0644 H   0  0  0  0  0  0  0  0  0  0  0  0
   63.1076   27.5999   51.0644 H   0  0  0  0  0  0  0  0  0  0  0  0
   65.9353   30.3753   52.2378 H   0  0  0  0  0  0  0  0  0  0  0  0
   66.7852   32.1107   50.6412 H   0  0  0  0  0  0  0  0  0  0  0  0
   65.2869   32.9790   48.8792 H   0  0  0  0  0  0  0  0  0  0  0  0
   60.8980   31.9220   49.4230 H   0  0  0  0  0  0  0  0  0  0  0  0
   60.2577   34.6679   48.7720 H   0  0  0  0  0  0  0  0  0  0  0  0
   58.5771   35.7545   47.3135 H   0  0  0  0  0  0  0  0  0  0  0  0
   57.7693   34.4988   45.3214 H   0  0  0  0  0  0  0  0  0  0  0  0
   58.7530   32.4450   43.5820 H   0  0  0  0  0  0  0  0  0  0  0  0
   58.9398   29.8742   45.6945 H   0  0  0  0  0  0  0  0  0  0  0  0
   59.9160   26.5329   46.1206 H   0  0  0  0  0  0  0  0  0  0  0  0
   61.6471   27.0270   47.8250 H   0  0  0  0  0  0  0  0  0  0  0  0
   61.2816   28.7093   49.6017 H   0  0  0  0  0  0  0  0  0  0  0  0
   60.8210   31.5570   50.9920 H   0  0  0  0  0  0  0  0  0  0  0  0
   59.0706   30.1871   52.7452 H   0  0  0  0  0  0  0  0  0  0  0  0
   60.7459   29.6664   52.9995 H   0  0  0  0  0  0  0  0  0  0  0  0
   59.5223   32.4318   53.1448 H   0  0  0  0  0  0  0  0  0  0  0  0
   60.6972   31.5876   54.2698 H   0  0  0  0  0  0  0  0  0  0  0  0
   61.9361   33.4651   54.4246 H   0  0  0  0  0  0  0  0  0  0  0  0
   63.0732   32.1345   53.9353 H   0  0  0  0  0  0  0  0  0  0  0  0
   63.0892   35.0170   53.2568 H   0  0  0  0  0  0  0  0  0  0  0  0
   64.4343   33.8135   53.3720 H   0  0  0  0  0  0  0  0  0  0  0  0
   62.0863   35.2410   50.9487 H   0  0  0  0  0  0  0  0  0  0  0  0
   62.1929   33.6404   50.0588 H   0  0  0  0  0  0  0  0  0  0  0  0
   60.6475   34.4086   52.4481 H   0  0  0  0  0  0  0  0  0  0  0  0
   60.2830   33.2595   51.1185 H   0  0  0  0  0  0  0  0  0  0  0  0
   57.4079   29.4307   47.9651 H   0  0  0  0  0  0  0  0  0  0  0  0
   55.1580   28.1400   44.9090 H   0  0  0  0  0  0  0  0  0  0  0  0
   54.4259   30.0783   43.7657 H   0  0  0  0  0  0  0  0  0  0  0  0
   60.3102   31.1540   46.2852 H   0  0  0  0  0  0  0  0  0  0  0  0
   62.1144   30.4551   50.2574 H   0  0  0  0  0  0  0  0  0  0  0  0
  1  2  1  0
  2  3  1  0
  2  4  1  0
  4  5  2  0
  5  6  1  0
  6  7  2  0
  7  8  1  0
  8  9  1  0
  9 10  2  0
  9 11  1  0
 11 12  1  0
 12 13  2  0
 13 14  1  0
 14 15  2  0
 15 16  1  0
 16 17  1  0
 17 18  1  0
 18 19  2  0
 19 20  1  0
 20 21  2  0
 21 22  1  0
 22 23  2  0
 23 24  1  0
 24 25  2  0
 25 26  1  0
 26 27  1  0
 27 28  2  0
 27 29  2  0
 27 30  1  0
 30 31  1  0
 31 32  1  0
 32 33  1  0
 33 34  1  0
 34 35  1  0
 35 36  1  0
 36 37  1  0
 37 38  1  0
 26 39  2  0
 20 40  1  0
 40 41  1  0
 41 42  2  0
 16 43  2  0
  8 44  2  0
 44  4  1  0
 43 12  1  0
 42 18  1  0
 39 22  1  0
 38 33  1  0
  1 45  1  0
  1 46  1  0
  1 47  1  0
  3 48  1  0
  3 49  1  0
  3 50  1  0
  5 51  1  0
  6 52  1  0
  7 53  1  0
 11 54  1  0
 13 55  1  0
 14 56  1  0
 15 57  1  0
 17 58  1  0
 19 59  1  0
 23 60  1  0
 24 61  1  0
 25 62  1  0
 30 63  1  0
 31 64  1  0
 31 65  1  0
 32 66  1  0
 32 67  1  0
 34 68  1  0
 34 69  1  0
 35 70  1  0
 35 71  1  0
 37 72  1  0
 37 73  1  0
 38 74  1  0
 38 75  1  0
 39 76  1  0
 40 77  1  0
 41 78  1  0
 43 79  1  0
 44 80  1  0
M  END
>  <smiles>  (44) 
CN(C)c1cccc(C(=O)Nc2cccc(Nc3cc(=Nc4cccc(S(=O)(=O)NCCN5CCOCC5)c4)[nH]cn3)c2)c1

>  <score_type>  (44) 
oracle

>  <origin>  (44) 
adg

>  <m_score__min__energy>  (44) 
-10.52

>  <m_primary>  (44) 
energy

$$$$
44:0
     RDKit          3D

 35 37  0  0  0  0  0  0  0  0999 V2000
   56.6470   34.7380   44.8870 N   0  0  0  0  0  0  0  0  0  0  0  0
   57.5360   33.2580   44.7940 S   0  0  0  0  0  0  0  0  0  0  0  0
   56.6040   32.1270   45.1270 O   0  0  0  0  0  0  0  0  0  0  0  0
   58.0540   33.0870   43.3930 O   0  0  0  0  0  0  0  0  0  0  0  0
   58.8960   33.2880   45.9300 C   0  0  0  0  0  0  0  0  0  0  0  0
   59.4020   34.5310   46.3410 C   0  0  0  0  0  0  0  0  0  0  0  0
   60.4400   34.6050   47.2730 C   0  0  0  0  0  0  0  0  0  0  0  0
   60.9840   33.4370   47.8060 C   0  0  0  0  0  0  0  0  0  0  0  0
   60.5020   32.1920   47.4000 C   0  0  0  0  0  0  0  0  0  0  0  0
   59.4680   32.1010   46.4530 C   0  0  0  0  0  0  0  0  0  0  0  0
   59.0210   30.7580   46.0310 C   0  0  0  0  0  0  0  0  0  0  0  0
   58.9540   30.4340   44.6680 C   0  0  0  0  0  0  0  0  0  0  0  0
   58.5240   29.1680   44.2650 C   0  0  0  0  0  0  0  0  0  0  0  0
   58.1320   28.2120   45.2170 C   0  0  0  0  0  0  0  0  0  0  0  0
   57.7010   26.8650   44.7800 C   0  0  0  0  0  0  0  0  0  0  0  0
   57.8060   26.5550   43.5630 O   0  0  0  0  0  0  0  0  0  0  0  0
   57.1570   25.8640   45.7210 C   0  0  0  0  0  0  0  0  0  0  0  0
   57.8200   24.7440   46.1790 C   0  0  0  0  0  0  0  0  0  0  0  0
   56.9190   24.0880   46.9910 C   0  0  0  0  0  0  0  0  0  0  0  0
   57.1860   22.9060   47.6680 O   0  0  0  0  0  0  0  0  0  0  0  0
   55.7310   24.7210   47.0540 N   0  0  0  0  0  0  0  0  0  0  0  0
   55.8850   25.8030   46.2670 C   0  0  0  0  0  0  0  0  0  0  0  0
   54.8590   26.7070   46.0200 O   0  0  0  0  0  0  0  0  0  0  0  0
   58.2030   28.5390   46.5830 C   0  0  0  0  0  0  0  0  0  0  0  0
   58.6340   29.8060   46.9850 C   0  0  0  0  0  0  0  0  0  0  0  0
   55.9230   34.6120   45.6300 H   0  0  0  0  0  0  0  0  0  0  0  0
   58.9769   35.4563   45.9250 H   0  0  0  0  0  0  0  0  0  0  0  0
   60.8284   35.5852   47.5866 H   0  0  0  0  0  0  0  0  0  0  0  0
   61.7942   33.4971   48.5476 H   0  0  0  0  0  0  0  0  0  0  0  0
   60.9350   31.2744   47.8248 H   0  0  0  0  0  0  0  0  0  0  0  0
   59.2415   31.1806   43.9130 H   0  0  0  0  0  0  0  0  0  0  0  0
   58.4920   28.9174   43.1944 H   0  0  0  0  0  0  0  0  0  0  0  0
   58.8506   24.4386   45.9455 H   0  0  0  0  0  0  0  0  0  0  0  0
   57.9176   27.7930   47.3394 H   0  0  0  0  0  0  0  0  0  0  0  0
   58.6699   30.0578   48.0552 H   0  0  0  0  0  0  0  0  0  0  0  0
  1  2  1  0
  2  3  2  0
  2  4  2  0
  2  5  1  0
  5  6  2  0
  6  7  1  0
  7  8  2  0
  8  9  1  0
  9 10  2  0
 10 11  1  0
 11 12  2  0
 12 13  1  0
 13 14  2  0
 14 15  1  0
 15 16  2  0
 15 17  1  0
 17 18  1  0
 18 19  2  0
 19 20  1  0
 19 21  1  0
 21 22  1  0
 22 23  1  0
 14 24  1  0
 24 25  2  0
 10  5  1  0
 25 11  1  0
 22 17  2  0
  1 26  1  0
  6 27  1  0
  7 28  1  0
  8 29  1  0
  9 30  1  0
 12 31  1  0
 13 32  1  0
 18 33  1  0
 24 34  1  0
 25 35  1  0
M  CHG  4   1  -1  20  -1  21  -1  23  -1
M  END
>  <UniqueID>  (45) 
42

>  <SMILES>  (45) 
[NH-]S(=O)(=O)c1ccccc1-c1ccc(C(=O)c2cc([O-])[n-]c2[O-])cc1

>  <Energy>  (45) 
78.03816728085536

>  <Genealogy>  (45) 
[NH-]S(=O)(=O)c1ccccc1-c1ccc(C(=O)c2cc([O-])[n-]c2[O-])cc1 (protonated)
[NH-]S(=O)(=O)c1ccccc1-c1ccc(C(=O)c2cc([O-])[n-]c2[O-])cc1 (3D coordinates assigned)
[NH-]S(=O)(=O)c1ccccc1-c1ccc(C(=O)c2cc([O-])[n-]c2[O-])cc1 (optimized conformer: 78.03816728085536 kcal/mol)

>  <smiles>  (45) 
NS(=O)(=O)c1ccccc1-c1ccc(C(=O)c2cc(O)[nH]c2O)cc1

>  <score_type>  (45) 
oracle

>  <origin>  (45) 
adg

>  <m_score__min__energy>  (45) 
-17.780000000000001

>  <m_primary>  (45) 
energy

$$$$
45:0
     RDKit          3D

 52 54  0  0  0  0  0  0  0  0999 V2000
   62.8880   34.0820   48.1240 O   0  0  0  0  0  0  0  0  0  0  0  0
   61.7480   33.9170   48.6370 C   0  0  0  0  0  0  0  0  0  0  0  0
   61.5120   32.8440   49.5540 N   0  0  0  0  0  0  0  0  0  0  0  0
   61.0200   31.5370   49.2220 C   0  0  0  0  0  0  0  0  0  0  0  0
   60.3620   30.7950   50.2090 C   0  0  0  0  0  0  0  0  0  0  0  0
   59.8980   29.5060   49.9370 C   0  0  0  0  0  0  0  0  0  0  0  0
   60.1140   28.9240   48.6760 C   0  0  0  0  0  0  0  0  0  0  0  0
   59.6200   27.5300   48.3800 C   0  0  0  0  0  0  0  0  0  0  0  0
   60.2920   26.9510   47.1590 C   0  0  0  0  0  0  0  0  0  0  0  0
   61.3850   26.3410   47.3230 O   0  0  0  0  0  0  0  0  0  0  0  0
   59.7370   27.0710   45.8260 N   0  0  0  0  0  0  0  0  0  0  0  0
   58.9510   25.9350   45.3070 C   0  0  0  0  0  0  0  0  0  0  0  0
   57.4270   26.0930   45.4440 C   0  0  0  0  0  0  0  0  0  0  0  0
   57.0070   27.4980   45.9220 C   0  0  0  0  0  0  0  0  0  0  0  0
   57.3690   28.6360   44.9380 C   0  0  1  0  0  0  0  0  0  0  0  0
   56.2700   29.6700   44.8140 C   0  0  0  0  0  0  0  0  0  0  0  0
   55.0590   29.3190   44.8620 O   0  0  0  0  0  0  0  0  0  0  0  0
   56.5740   31.0030   44.5560 O   0  0  0  0  0  0  0  0  0  0  0  0
   58.7510   29.2610   45.2410 C   0  0  0  0  0  0  0  0  0  0  0  0
   59.9230   28.2940   45.0290 C   0  0  0  0  0  0  0  0  0  0  0  0
   60.7750   29.6690   47.6850 C   0  0  0  0  0  0  0  0  0  0  0  0
   61.2360   30.9610   47.9580 C   0  0  0  0  0  0  0  0  0  0  0  0
   60.6470   34.7360   48.2290 N   0  0  0  0  0  0  0  0  0  0  0  0
   59.6260   34.3590   47.2960 C   0  0  0  0  0  0  0  0  0  0  0  0
   59.7090   34.8490   45.9850 C   0  0  0  0  0  0  0  0  0  0  0  0
   58.7400   34.5040   45.0370 C   0  0  0  0  0  0  0  0  0  0  0  0
   57.6900   33.6540   45.3870 C   0  0  0  0  0  0  0  0  0  0  0  0
   57.6160   33.1320   46.6810 C   0  0  0  0  0  0  0  0  0  0  0  0
   58.5890   33.4640   47.6360 C   0  0  0  0  0  0  0  0  0  0  0  0
   58.5410   32.8820   48.9020 O   0  0  0  0  0  0  0  0  0  0  0  0
   60.2089   31.2304   51.2075 H   0  0  0  0  0  0  0  0  0  0  0  0
   59.3604   28.9430   50.7142 H   0  0  0  0  0  0  0  0  0  0  0  0
   59.8330   26.8845   49.2448 H   0  0  0  0  0  0  0  0  0  0  0  0
   58.5385   27.5818   48.1860 H   0  0  0  0  0  0  0  0  0  0  0  0
   59.1884   25.8129   44.2399 H   0  0  0  0  0  0  0  0  0  0  0  0
   59.2290   25.0611   45.9144 H   0  0  0  0  0  0  0  0  0  0  0  0
   56.9655   25.9039   44.4636 H   0  0  0  0  0  0  0  0  0  0  0  0
   57.0886   25.3725   46.2032 H   0  0  0  0  0  0  0  0  0  0  0  0
   55.9167   27.5014   46.0677 H   0  0  0  0  0  0  0  0  0  0  0  0
   57.5612   27.6950   46.8516 H   0  0  0  0  0  0  0  0  0  0  0  0
   57.4568   28.1706   43.9452 H   0  0  0  0  0  0  0  0  0  0  0  0
   58.8925   30.1289   44.5801 H   0  0  0  0  0  0  0  0  0  0  0  0
   58.7521   29.5403   46.3049 H   0  0  0  0  0  0  0  0  0  0  0  0
   59.9820   28.0257   43.9639 H   0  0  0  0  0  0  0  0  0  0  0  0
   60.8522   28.7878   45.3494 H   0  0  0  0  0  0  0  0  0  0  0  0
   60.9311   29.2330   46.6872 H   0  0  0  0  0  0  0  0  0  0  0  0
   61.7694   31.5283   47.1810 H   0  0  0  0  0  0  0  0  0  0  0  0
   60.5416   35.5090   45.7001 H   0  0  0  0  0  0  0  0  0  0  0  0
   58.8057   34.9033   44.0141 H   0  0  0  0  0  0  0  0  0  0  0  0
   56.9209   33.3950   44.6444 H   0  0  0  0  0  0  0  0  0  0  0  0
   56.7907   32.4573   46.9525 H   0  0  0  0  0  0  0  0  0  0  0  0
   59.3230   32.9390   49.5450 H   0  0  0  0  0  0  0  0  0  0  0  0
  1  2  2  0
  2  3  1  0
  3  4  1  0
  4  5  2  0
  5  6  1  0
  6  7  2  0
  7  8  1  0
  8  9  1  0
  9 10  2  0
  9 11  1  0
 11 12  1  0
 12 13  1  0
 13 14  1  0
 14 15  1  0
 15 16  1  0
 16 17  2  0
 16 18  1  0
 15 19  1  0
 19 20  1  0
  7 21  1  0
 21 22  2  0
  2 23  1  0
 23 24  1  0
 24 25  2  0
 25 26  1  0
 26 27  2  0
 27 28  1  0
 28 29  2  0
 29 30  1  0
 22  4  1  0
 29 24  1  0
 20 11  1  0
  5 31  1  0
  6 32  1  0
  8 33  1  0
  8 34  1  0
 12 35  1  0
 12 36  1  0
 13 37  1  0
 13 38  1  0
 14 39  1  0
 14 40  1  0
 15 41  1  6
 19 42  1  0
 19 43  1  0
 20 44  1  0
 20 45  1  0
 21 46  1  0
 22 47  1  0
 25 48  1  0
 26 49  1  0
 27 50  1  0
 28 51  1  0
 30 52  1  0
M  CHG  3   3  -1  18  -1  23  -1
M  END
>  <UniqueID>  (46) 
43

>  <SMILES>  (46) 
O=C([N-]c1ccc(CC(=O)N2CCC[C@@H](C(=O)[O-])CC2)cc1)[N-]c1ccccc1O

>  <Energy>  (46) 
65.06631392984455

>  <Genealogy>  (46) 
O=C([N-]c1ccc(CC(=O)N2CCCC(C(=O)[O-])CC2)cc1)[N-]c1ccccc1O (protonated)
O=C([N-]c1ccc(CC(=O)N2CCC[C@@H](C(=O)[O-])CC2)cc1)[N-]c1ccccc1O (chirality)
O=C([N-]c1ccc(CC(=O)N2CCC[C@@H](C(=O)[O-])CC2)cc1)[N-]c1ccccc1O (3D coordinates assigned)
O=C([N-]c1ccc(CC(=O)N2CCC[C@@H](C(=O)[O-])CC2)cc1)[N-]c1ccccc1O (nonaromatic ring conformer: 65.06631392984455 kcal/mol)

>  <smiles>  (46) 
O=C(Nc1ccc(CC(=O)N2CCCC(C(=O)O)CC2)cc1)Nc1ccccc1O

>  <score_type>  (46) 
oracle

>  <origin>  (46) 
adg

>  <m_score__min__energy>  (46) 
-11.289999999999999

>  <m_primary>  (46) 
energy

$$$$
46:0
     RDKit          3D

 64 67  0  0  0  0  0  0  0  0999 V2000
   58.3200   29.2220   53.7730 O   0  0  0  0  0  0  0  0  0  0  0  0
   57.2410   29.8760   53.7080 C   0  0  0  0  0  0  0  0  0  0  0  0
   57.2190   31.2160   53.0410 C   0  0  0  0  0  0  0  0  0  0  0  0
   57.9540   31.1940   51.7250 C   0  0  0  0  0  0  0  0  0  0  0  0
   58.2130   29.9760   51.0810 C   0  0  0  0  0  0  0  0  0  0  0  0
   58.8540   29.9570   49.8420 C   0  0  0  0  0  0  0  0  0  0  0  0
   59.2100   31.1580   49.2080 C   0  0  0  0  0  0  0  0  0  0  0  0
   59.8190   31.1270   47.9510 O   0  0  0  0  0  0  0  0  0  0  0  0
   58.9340   32.3910   49.8340 C   0  0  0  0  0  0  0  0  0  0  0  0
   59.2760   33.6610   49.1500 C   0  0  0  0  0  0  0  0  0  0  0  0
   59.7740   34.5980   49.8360 O   0  0  0  0  0  0  0  0  0  0  0  0
   59.1950   33.8150   47.7170 N   0  0  0  0  0  0  0  0  0  0  0  0
   57.9870   33.4430   46.9930 C   0  0  0  0  0  0  0  0  0  0  0  0
   58.1670   33.9770   45.5770 C   0  0  0  0  0  0  0  0  0  0  0  0
   59.3000   34.9920   45.6750 C   0  0  0  0  0  0  0  0  0  0  0  0
   60.1400   34.5450   46.8750 C   0  0  2  0  0  0  0  0  0  0  0  0
   61.2920   33.6080   46.4470 C   0  0  0  0  0  0  0  0  0  0  0  0
   62.5610   34.0210   47.0990 N   0  0  0  0  0  0  0  0  0  0  0  0
   63.6940   33.1190   46.7860 C   0  0  0  0  0  0  0  0  0  0  0  0
   63.7040   31.8560   47.6760 C   0  0  0  0  0  0  0  0  0  0  0  0
   62.5040   31.7290   48.4080 O   0  0  0  0  0  0  0  0  0  0  0  0
   62.3710   32.8240   49.2950 C   0  0  0  0  0  0  0  0  0  0  0  0
   62.4270   34.1860   48.5620 C   0  0  0  0  0  0  0  0  0  0  0  0
   58.3470   32.3930   51.1100 C   0  0  0  0  0  0  0  0  0  0  0  0
   56.0390   29.3440   54.2610 N   0  0  0  0  0  0  0  0  0  0  0  0
   55.0850   28.5540   53.4960 C   0  0  0  0  0  0  0  0  0  0  0  0
   54.0870   29.4820   52.8640 C   0  0  0  0  0  0  0  0  0  0  0  0
   54.4610   30.3140   51.7990 C   0  0  0  0  0  0  0  0  0  0  0  0
   53.5450   31.2280   51.2620 C   0  0  0  0  0  0  0  0  0  0  0  0
   52.2450   31.3330   51.7910 C   0  0  0  0  0  0  0  0  0  0  0  0
   51.2850   32.3140   51.2310 C   0  0  0  0  0  0  0  0  0  0  0  0
   51.0340   32.3360   49.9950 O   0  0  0  0  0  0  0  0  0  0  0  0
   50.6430   33.2260   52.0610 O   0  0  0  0  0  0  0  0  0  0  0  0
   51.8770   30.5000   52.8630 C   0  0  0  0  0  0  0  0  0  0  0  0
   52.7910   29.5830   53.3960 C   0  0  0  0  0  0  0  0  0  0  0  0
   56.1738   31.5079   52.8611 H   0  0  0  0  0  0  0  0  0  0  0  0
   57.7206   31.9375   53.7027 H   0  0  0  0  0  0  0  0  0  0  0  0
   57.9094   29.0308   51.5548 H   0  0  0  0  0  0  0  0  0  0  0  0
   59.0818   28.9953   49.3590 H   0  0  0  0  0  0  0  0  0  0  0  0
   60.7860   31.4040   47.8220 H   0  0  0  0  0  0  0  0  0  0  0  0
   57.8718   32.3492   46.9776 H   0  0  0  0  0  0  0  0  0  0  0  0
   57.0867   33.8582   47.4696 H   0  0  0  0  0  0  0  0  0  0  0  0
   58.4370   33.1625   44.8888 H   0  0  0  0  0  0  0  0  0  0  0  0
   57.2428   34.4281   45.1866 H   0  0  0  0  0  0  0  0  0  0  0  0
   59.9052   34.9838   44.7565 H   0  0  0  0  0  0  0  0  0  0  0  0
   58.9223   36.0178   45.7980 H   0  0  0  0  0  0  0  0  0  0  0  0
   60.6119   35.3990   47.3830 H   0  0  0  0  0  0  0  0  0  0  0  0
   61.0503   32.5767   46.7437 H   0  0  0  0  0  0  0  0  0  0  0  0
   61.4146   33.6669   45.3554 H   0  0  0  0  0  0  0  0  0  0  0  0
   63.6184   32.8089   45.7333 H   0  0  0  0  0  0  0  0  0  0  0  0
   64.6257   33.6717   46.9772 H   0  0  0  0  0  0  0  0  0  0  0  0
   63.8282   30.9694   47.0368 H   0  0  0  0  0  0  0  0  0  0  0  0
   64.5360   31.9439   48.3902 H   0  0  0  0  0  0  0  0  0  0  0  0
   61.4053   32.7421   49.8153 H   0  0  0  0  0  0  0  0  0  0  0  0
   63.2133   32.7880   50.0016 H   0  0  0  0  0  0  0  0  0  0  0  0
   61.5016   34.7418   48.7737 H   0  0  0  0  0  0  0  0  0  0  0  0
   63.3102   34.7319   48.9252 H   0  0  0  0  0  0  0  0  0  0  0  0
   58.1931   33.3475   51.6347 H   0  0  0  0  0  0  0  0  0  0  0  0
   55.6143   27.9911   52.7131 H   0  0  0  0  0  0  0  0  0  0  0  0
   54.5688   27.8447   54.1597 H   0  0  0  0  0  0  0  0  0  0  0  0
   55.4775   30.2488   51.3836 H   0  0  0  0  0  0  0  0  0  0  0  0
   53.8444   31.8690   50.4197 H   0  0  0  0  0  0  0  0  0  0  0  0
   50.8638   30.5695   53.2856 H   0  0  0  0  0  0  0  0  0  0  0  0
   52.4925   28.9383   54.2358 H   0  0  0  0  0  0  0  0  0  0  0  0
  1  2  2  0
  2  3  1  0
  3  4  1  0
  4  5  2  0
  5  6  1  0
  6  7  2  0
  7  8  1  0
  7  9  1  0
  9 10  1  0
 10 11  2  0
 10 12  1  0
 12 13  1  0
 13 14  1  0
 14 15  1  0
 15 16  1  0
 16 17  1  0
 17 18  1  0
 18 19  1  0
 19 20  1  0
 20 21  1  0
 21 22  1  0
 22 23  1  0
  9 24  2  0
  2 25  1  0
 25 26  1  0
 26 27  1  0
 27 28  2  0
 28 29  1  0
 29 30  2  0
 30 31  1  0
 31 32  2  0
 31 33  1  0
 30 34  1  0
 34 35  2  0
 24  4  1  0
 35 27  1  0
 16 12  1  0
 23 18  1  0
  3 36  1  0
  3 37  1  0
  5 38  1  0
  6 39  1  0
  8 40  1  0
 13 41  1  0
 13 42  1  0
 14 43  1  0
 14 44  1  0
 15 45  1  0
 15 46  1  0
 16 47  1  1
 17 48  1  0
 17 49  1  0
 19 50  1  0
 19 51  1  0
 20 52  1  0
 20 53  1  0
 22 54  1  0
 22 55  1  0
 23 56  1  0
 23 57  1  0
 24 58  1  0
 26 59  1  0
 26 60  1  0
 28 61  1  0
 29 62  1  0
 34 63  1  0
 35 64  1  0
M  CHG  2  25  -1  33  -1
M  END
>  <UniqueID>  (47) 
44

>  <SMILES>  (47) 
O=C(Cc1ccc(O)c(C(=O)N2CCC[C@@H]2CN2CCOCC2)c1)[N-]Cc1ccc(C(=O)[O-])cc1

>  <Energy>  (47) 
84.80485136144101

>  <Genealogy>  (47) 
O=C(Cc1ccc(O)c(C(=O)N2CCCC2CN2CCOCC2)c1)[N-]Cc1ccc(C(=O)[O-])cc1 (protonated)
O=C(Cc1ccc(O)c(C(=O)N2CCC[C@@H]2CN2CCOCC2)c1)[N-]Cc1ccc(C(=O)[O-])cc1 (chirality)
O=C(Cc1ccc(O)c(C(=O)N2CCC[C@@H]2CN2CCOCC2)c1)[N-]Cc1ccc(C(=O)[O-])cc1 (3D coordinates assigned)
O=C(Cc1ccc(O)c(C(=O)N2CCC[C@@H]2CN2CCOCC2)c1)[N-]Cc1ccc(C(=O)[O-])cc1 (nonaromatic ring conformer: 84.80485136144101 kcal/mol)

>  <smiles>  (47) 
O=C(Cc1ccc(O)c(C(=O)N2CCCC2CN2CCOCC2)c1)NCc1ccc(C(=O)O)cc1

>  <score_type>  (47) 
oracle

>  <origin>  (47) 
adg

>  <m_score__min__energy>  (47) 
-14.34

>  <m_primary>  (47) 
energy

$$$$
47:0
     RDKit          3D

 53 56  0  0  0  0  0  0  0  0999 V2000
   56.9670   26.2120   47.2480 O   0  0  0  0  0  0  0  0  0  0  0  0
   56.4120   26.2690   46.1180 C   0  0  0  0  0  0  0  0  0  0  0  0
   57.2180   26.6290   44.9080 C   0  0  0  0  0  0  0  0  0  0  0  0
   57.4830   28.1030   44.9080 C   0  0  0  0  0  0  0  0  0  0  0  0
   58.7090   28.7360   44.8490 C   0  0  0  0  0  0  0  0  0  0  0  0
   59.9400   28.0890   44.8320 O   0  0  0  0  0  0  0  0  0  0  0  0
   58.5800   30.0790   44.8030 N   0  0  0  0  0  0  0  0  0  0  0  0
   57.2480   30.3080   44.8120 C   0  0  0  0  0  0  0  0  0  0  0  0
   56.6450   31.6810   44.8020 C   0  0  0  0  0  0  0  0  0  0  0  0
   57.6590   32.7060   45.2250 C   0  0  0  0  0  0  0  0  0  0  0  0
   58.3840   33.4170   44.2600 C   0  0  0  0  0  0  0  0  0  0  0  0
   59.3050   34.3890   44.6490 C   0  0  0  0  0  0  0  0  0  0  0  0
   59.5100   34.6590   46.0030 C   0  0  0  0  0  0  0  0  0  0  0  0
   58.7880   33.9630   46.9810 C   0  0  0  0  0  0  0  0  0  0  0  0
   59.0340   34.2620   48.3620 N   0  0  0  0  0  0  0  0  0  0  0  0
   59.1550   33.0780   49.6230 S   0  0  0  0  0  0  0  0  0  0  0  0
   59.2760   33.7740   50.9460 O   0  0  0  0  0  0  0  0  0  0  0  0
   57.9200   32.2250   49.6110 O   0  0  0  0  0  0  0  0  0  0  0  0
   60.5480   32.0870   49.3400 N   0  0  0  0  0  0  0  0  0  0  0  0
   61.7490   32.5090   48.6920 C   0  0  0  0  0  0  0  0  0  0  0  0
   61.8120   32.7560   47.3090 C   0  0  0  0  0  0  0  0  0  0  0  0
   63.0070   33.1990   46.7330 C   0  0  0  0  0  0  0  0  0  0  0  0
   64.1340   33.4060   47.5290 C   0  0  0  0  0  0  0  0  0  0  0  0
   64.0770   33.1470   48.9000 C   0  0  0  0  0  0  0  0  0  0  0  0
   62.8930   32.6920   49.4760 C   0  0  0  0  0  0  0  0  0  0  0  0
   57.8550   32.9890   46.5840 C   0  0  0  0  0  0  0  0  0  0  0  0
   56.5520   29.1170   44.8690 C   0  0  0  0  0  0  0  0  0  0  0  0
   55.1680   28.9700   44.8840 O   0  0  0  0  0  0  0  0  0  0  0  0
   55.0080   26.0250   45.9900 N   0  0  0  0  0  0  0  0  0  0  0  0
   54.4420   24.7250   45.6170 C   0  0  0  0  0  0  0  0  0  0  0  0
   55.4470   23.9030   44.8620 C   0  0  0  0  0  0  0  0  0  0  0  0
   55.4580   23.7200   43.4860 C   0  0  0  0  0  0  0  0  0  0  0  0
   56.4100   22.8020   43.0490 C   0  0  0  0  0  0  0  0  0  0  0  0
   57.1550   22.2480   44.0830 C   0  0  0  0  0  0  0  0  0  0  0  0
   56.6100   22.8900   45.5370 S   0  0  0  0  0  0  0  0  0  0  0  0
   58.1734   26.0842   44.9280 H   0  0  0  0  0  0  0  0  0  0  0  0
   56.6603   26.3557   44.0001 H   0  0  0  0  0  0  0  0  0  0  0  0
   56.2961   31.9154   43.7855 H   0  0  0  0  0  0  0  0  0  0  0  0
   55.8017   31.7035   45.5079 H   0  0  0  0  0  0  0  0  0  0  0  0
   58.2262   33.2078   43.1917 H   0  0  0  0  0  0  0  0  0  0  0  0
   59.8714   34.9444   43.8869 H   0  0  0  0  0  0  0  0  0  0  0  0
   60.2425   35.4225   46.3037 H   0  0  0  0  0  0  0  0  0  0  0  0
   60.9224   32.6009   46.6809 H   0  0  0  0  0  0  0  0  0  0  0  0
   63.0584   33.3846   45.6500 H   0  0  0  0  0  0  0  0  0  0  0  0
   65.0671   33.7731   47.0768 H   0  0  0  0  0  0  0  0  0  0  0  0
   64.9681   33.3024   49.5259 H   0  0  0  0  0  0  0  0  0  0  0  0
   62.8574   32.4753   50.5539 H   0  0  0  0  0  0  0  0  0  0  0  0
   57.2751   32.4456   47.3446 H   0  0  0  0  0  0  0  0  0  0  0  0
   54.1465   24.1853   46.5288 H   0  0  0  0  0  0  0  0  0  0  0  0
   53.5674   24.8932   44.9714 H   0  0  0  0  0  0  0  0  0  0  0  0
   54.7777   24.2509   42.8038 H   0  0  0  0  0  0  0  0  0  0  0  0
   56.5575   22.5414   41.9905 H   0  0  0  0  0  0  0  0  0  0  0  0
   57.9652   21.5128   43.9688 H   0  0  0  0  0  0  0  0  0  0  0  0
  1  2  2  0
  2  3  1  0
  3  4  1  0
  4  5  2  0
  5  6  1  0
  5  7  1  0
  7  8  1  0
  8  9  1  0
  9 10  1  0
 10 11  2  0
 11 12  1  0
 12 13  2  0
 13 14  1  0
 14 15  1  0
 15 16  1  0
 16 17  2  0
 16 18  2  0
 16 19  1  0
 19 20  1  0
 20 21  2  0
 21 22  1  0
 22 23  2  0
 23 24  1  0
 24 25  2  0
 14 26  2  0
  8 27  2  0
 27 28  1  0
  2 29  1  0
 29 30  1  0
 30 31  1  0
 31 32  2  0
 32 33  1  0
 33 34  2  0
 34 35  1  0
 27  4  1  0
 35 31  1  0
 26 10  1  0
 25 20  1  0
  3 36  1  0
  3 37  1  0
  9 38  1  0
  9 39  1  0
 11 40  1  0
 12 41  1  0
 13 42  1  0
 21 43  1  0
 22 44  1  0
 23 45  1  0
 24 46  1  0
 25 47  1  0
 26 48  1  0
 30 49  1  0
 30 50  1  0
 32 51  1  0
 33 52  1  0
 34 53  1  0
M  CHG  6   6  -1   7  -1  15  -1  19  -1  28  -1  29  -1
M  END
>  <UniqueID>  (48) 
45

>  <SMILES>  (48) 
O=C(Cc1c([O-])[n-]c(Cc2cccc([N-]S(=O)(=O)[N-]c3ccccc3)c2)c1[O-])[N-]Cc1cccs1

>  <Energy>  (48) 
103.24970754549503

>  <Genealogy>  (48) 
O=C(Cc1c([O-])[n-]c(Cc2cccc([N-]S(=O)(=O)[N-]c3ccccc3)c2)c1[O-])[N-]Cc1cccs1 (protonated)
O=C(Cc1c([O-])[n-]c(Cc2cccc([N-]S(=O)(=O)[N-]c3ccccc3)c2)c1[O-])[N-]Cc1cccs1 (3D coordinates assigned)
O=C(Cc1c([O-])[n-]c(Cc2cccc([N-]S(=O)(=O)[N-]c3ccccc3)c2)c1[O-])[N-]Cc1cccs1 (optimized conformer: 103.24970754549503 kcal/mol)

>  <smiles>  (48) 
O=C(Cc1c(O)[nH]c(Cc2cccc(NS(=O)(=O)Nc3ccccc3)c2)c1O)NCc1cccs1

>  <score_type>  (48) 
oracle

>  <origin>  (48) 
adg

>  <m_score__min__energy>  (48) 
-19.940000000000001

>  <m_primary>  (48) 
energy

$$$$
48:0
     RDKit          3D

 54 57  0  0  0  0  0  0  0  0999 V2000
   51.9030   20.7600   48.6760 C   0  0  0  0  0  0  0  0  0  0  0  0
   52.1270   20.7550   47.1660 C   0  0  0  0  0  0  0  0  0  0  0  0
   52.8960   21.9750   46.7370 C   0  0  0  0  0  0  0  0  0  0  0  0
   52.2660   22.9750   45.9790 C   0  0  0  0  0  0  0  0  0  0  0  0
   52.9660   24.1250   45.6040 C   0  0  0  0  0  0  0  0  0  0  0  0
   54.2990   24.2940   45.9920 C   0  0  0  0  0  0  0  0  0  0  0  0
   54.9730   25.4160   45.6250 N   0  0  0  0  0  0  0  0  0  0  0  0
   56.2700   25.6340   45.9770 C   0  0  0  0  0  0  0  0  0  0  0  0
   56.9420   26.8800   45.5490 C   0  0  0  0  0  0  0  0  0  0  0  0
   58.1970   26.9010   45.4140 O   0  0  0  0  0  0  0  0  0  0  0  0
   56.1720   28.0570   45.2590 N   0  0  0  0  0  0  0  0  0  0  0  0
   56.7640   29.3470   45.0400 C   0  0  0  0  0  0  0  0  0  0  0  0
   56.4870   30.0310   43.8480 C   0  0  0  0  0  0  0  0  0  0  0  0
   57.0430   31.2880   43.6090 C   0  0  0  0  0  0  0  0  0  0  0  0
   57.8660   31.8820   44.5660 C   0  0  0  0  0  0  0  0  0  0  0  0
   58.1240   31.2360   45.7830 C   0  0  0  0  0  0  0  0  0  0  0  0
   59.1510   32.0340   46.9840 S   0  0  0  0  0  0  0  0  0  0  0  0
   58.3100   32.3850   48.1800 O   0  0  0  0  0  0  0  0  0  0  0  0
   59.6910   33.3190   46.4200 O   0  0  0  0  0  0  0  0  0  0  0  0
   60.4870   31.0260   47.4990 N   0  0  0  0  0  0  0  0  0  0  0  0
   60.0980   30.0170   48.5090 C   0  0  0  0  0  0  0  0  0  0  0  0
   60.4830   28.5880   48.1110 C   0  0  0  0  0  0  0  0  0  0  0  0
   60.0790   28.3210   46.7310 N   0  0  0  0  0  0  0  0  0  0  0  0
   60.7730   29.1950   45.7710 C   0  0  0  0  0  0  0  0  0  0  0  0
   61.2970   30.5200   46.3740 C   0  0  0  0  0  0  0  0  0  0  0  0
   57.5670   29.9630   46.0220 C   0  0  0  0  0  0  0  0  0  0  0  0
   57.7750   29.3280   47.2430 O   0  0  0  0  0  0  0  0  0  0  0  0
   56.9440   24.6750   46.7500 C   0  0  0  0  0  0  0  0  0  0  0  0
   56.2820   23.5090   47.1460 C   0  0  0  0  0  0  0  0  0  0  0  0
   56.8980   22.6540   47.8400 O   0  0  0  0  0  0  0  0  0  0  0  0
   54.9430   23.3030   46.7680 C   0  0  0  0  0  0  0  0  0  0  0  0
   54.2310   22.1480   47.1410 C   0  0  0  0  0  0  0  0  0  0  0  0
   52.8748   20.7383   49.1909 H   0  0  0  0  0  0  0  0  0  0  0  0
   51.3564   21.6706   48.9626 H   0  0  0  0  0  0  0  0  0  0  0  0
   51.3163   19.8747   48.9626 H   0  0  0  0  0  0  0  0  0  0  0  0
   52.6946   19.8546   46.8884 H   0  0  0  0  0  0  0  0  0  0  0  0
   51.1483   20.7599   46.6639 H   0  0  0  0  0  0  0  0  0  0  0  0
   51.2150   22.8525   45.6785 H   0  0  0  0  0  0  0  0  0  0  0  0
   52.4673   24.8991   45.0022 H   0  0  0  0  0  0  0  0  0  0  0  0
   55.1550   27.9480   45.0460 H   0  0  0  0  0  0  0  0  0  0  0  0
   55.8270   29.5736   43.0963 H   0  0  0  0  0  0  0  0  0  0  0  0
   56.8322   31.8114   42.6647 H   0  0  0  0  0  0  0  0  0  0  0  0
   58.3161   32.8652   44.3640 H   0  0  0  0  0  0  0  0  0  0  0  0
   60.5962   30.2621   49.4586 H   0  0  0  0  0  0  0  0  0  0  0  0
   59.0021   30.0484   48.5986 H   0  0  0  0  0  0  0  0  0  0  0  0
   61.5727   28.4672   48.2003 H   0  0  0  0  0  0  0  0  0  0  0  0
   59.9703   27.8795   48.7782 H   0  0  0  0  0  0  0  0  0  0  0  0
   59.0460   28.4720   46.6500 H   0  0  0  0  0  0  0  0  0  0  0  0
   61.6302   28.6417   45.3598 H   0  0  0  0  0  0  0  0  0  0  0  0
   60.0324   29.4703   45.0057 H   0  0  0  0  0  0  0  0  0  0  0  0
   62.3237   30.3552   46.7329 H   0  0  0  0  0  0  0  0  0  0  0  0
   61.2448   31.2764   45.5771 H   0  0  0  0  0  0  0  0  0  0  0  0
   57.9911   24.8408   47.0435 H   0  0  0  0  0  0  0  0  0  0  0  0
   54.7219   21.3763   47.7521 H   0  0  0  0  0  0  0  0  0  0  0  0
  1  2  1  0
  2  3  1  0
  3  4  2  0
  4  5  1  0
  5  6  2  0
  6  7  1  0
  7  8  1  0
  8  9  1  0
  9 10  2  0
  9 11  1  0
 11 12  1  0
 12 13  2  0
 13 14  1  0
 14 15  2  0
 15 16  1  0
 16 17  1  0
 17 18  2  0
 17 19  2  0
 17 20  1  0
 20 21  1  0
 21 22  1  0
 22 23  1  0
 23 24  1  0
 24 25  1  0
 16 26  2  0
 26 27  1  0
  8 28  2  0
 28 29  1  0
 29 30  2  0
 29 31  1  0
 31 32  2  0
 32  3  1  0
 31  6  1  0
 26 12  1  0
 25 20  1  0
  1 33  1  0
  1 34  1  0
  1 35  1  0
  2 36  1  0
  2 37  1  0
  4 38  1  0
  5 39  1  0
 11 40  1  0
 13 41  1  0
 14 42  1  0
 15 43  1  0
 21 44  1  0
 21 45  1  0
 22 46  1  0
 22 47  1  0
 23 48  1  0
 24 49  1  0
 24 50  1  0
 25 51  1  0
 25 52  1  0
 28 53  1  0
 32 54  1  0
M  CHG  2   7  -1  27  -1
M  END
>  <UniqueID>  (49) 
46

>  <SMILES>  (49) 
CCc1ccc2[n-]c(C(=O)Nc3cccc(S(=O)(=O)N4CCNCC4)c3[O-])cc(=O)c2c1

>  <Energy>  (49) 
75.17981710727804

>  <Genealogy>  (49) 
CCc1ccc2[n-]c(C(=O)Nc3cccc(S(=O)(=O)N4CCNCC4)c3[O-])cc(=O)c2c1 (protonated)
CCc1ccc2[n-]c(C(=O)Nc3cccc(S(=O)(=O)N4CCNCC4)c3[O-])cc(=O)c2c1 (3D coordinates assigned)
CCc1ccc2[n-]c(C(=O)Nc3cccc(S(=O)(=O)N4CCNCC4)c3[O-])cc(=O)c2c1 (nonaromatic ring conformer: 75.17981710727804 kcal/mol)

>  <smiles>  (49) 
CCc1ccc2[nH]c(C(=O)Nc3cccc(S(=O)(=O)N4CCNCC4)c3O)cc(=O)c2c1

>  <score_type>  (49) 
oracle

>  <origin>  (49) 
adg

>  <m_score__min__energy>  (49) 
-13.359999999999999

>  <m_primary>  (49) 
energy

$$$$
49:0
     RDKit          3D

 30 31  0  0  0  0  0  0  0  0999 V2000
   58.0394   29.1229   43.4385 H   0  0  0  0  0  0  0  0  0  0  0  0
   57.3100   29.7650   43.9540 C   0  0  0  0  0  0  0  0  0  0  0  0
   56.3620   29.1080   44.8750 C   0  0  0  0  0  0  0  0  0  0  0  0
   55.1540   29.4690   44.8560 O   0  0  0  0  0  0  0  0  0  0  0  0
   56.7920   28.0290   45.7210 N   0  0  0  0  0  0  0  0  0  0  0  0
   56.4010   26.7930   45.6490 C   0  0  0  0  0  0  0  0  0  0  0  0
   55.1930   26.3460   46.0600 N   0  0  0  0  0  0  0  0  0  0  0  0
   55.0460   25.0330   45.8960 N   0  0  0  0  0  0  0  0  0  0  0  0
   56.1290   24.4370   45.3480 C   0  0  0  0  0  0  0  0  0  0  0  0
   56.2350   22.9630   45.1230 C   0  0  0  0  0  0  0  0  0  0  0  0
   55.2675   22.4921   45.3514 H   0  0  0  0  0  0  0  0  0  0  0  0
   57.0195   22.5598   45.7802 H   0  0  0  0  0  0  0  0  0  0  0  0
   56.6070   22.6660   43.6750 C   0  0  0  0  0  0  0  0  0  0  0  0
   57.4664   21.9799   43.6506 H   0  0  0  0  0  0  0  0  0  0  0  0
   55.7511   22.2000   43.1647 H   0  0  0  0  0  0  0  0  0  0  0  0
   56.8719   23.6038   43.1647 H   0  0  0  0  0  0  0  0  0  0  0  0
   57.3650   25.5480   45.0570 S   0  0  0  0  0  0  0  0  0  0  0  0
   57.3560   31.0820   43.6930 C   0  0  0  0  0  0  0  0  0  0  0  0
   57.0131   31.4131   42.7016 H   0  0  0  0  0  0  0  0  0  0  0  0
   57.8300   32.1220   44.6300 C   0  0  0  0  0  0  0  0  0  0  0  0
   58.0190   31.8400   45.9950 C   0  0  0  0  0  0  0  0  0  0  0  0
   57.8334   30.8249   46.3760 H   0  0  0  0  0  0  0  0  0  0  0  0
   58.4420   32.8460   46.8690 C   0  0  0  0  0  0  0  0  0  0  0  0
   58.6081   32.6162   47.9318 H   0  0  0  0  0  0  0  0  0  0  0  0
   58.6540   34.1430   46.3940 C   0  0  0  0  0  0  0  0  0  0  0  0
   58.9929   34.9323   47.0812 H   0  0  0  0  0  0  0  0  0  0  0  0
   58.4350   34.4370   45.0440 C   0  0  0  0  0  0  0  0  0  0  0  0
   58.5936   35.4600   44.6721 H   0  0  0  0  0  0  0  0  0  0  0  0
   58.0150   33.4330   44.1670 C   0  0  0  0  0  0  0  0  0  0  0  0
   57.8288   33.6719   43.1095 H   0  0  0  0  0  0  0  0  0  0  0  0
  1  2  1  0
  2  3  1  0
  3  4  2  0
  3  5  1  0
  5  6  2  3
  6  7  1  0
  7  8  1  0
  8  9  2  0
  9 10  1  0
 10 11  1  0
 10 12  1  0
 10 13  1  0
 13 14  1  0
 13 15  1  0
 13 16  1  0
  9 17  1  0
  2 18  2  0
 18 19  1  0
 18 20  1  0
 20 21  2  0
 21 22  1  0
 21 23  1  0
 23 24  1  0
 23 25  2  0
 25 26  1  0
 25 27  1  0
 27 28  1  0
 27 29  2  0
 29 30  1  0
 17  6  1  0
 29 20  1  0
M  CHG  1   7  -1
M  END
>  <UniqueID>  (50) 
47

>  <SMILES>  (50) 
CCc1n[n-]c(=NC(=O)/C=C\c2ccccc2)s1

>  <Energy>  (50) 
69.04851452247962

>  <Genealogy>  (50) 
CCc1n[n-]c(=NC(=O)C=Cc2ccccc2)s1 (protonated)
CCc1n[n-]c(=NC(=O)/C=C\c2ccccc2)s1 (cis-trans isomerization)
CCc1n[n-]c(=NC(=O)/C=C\c2ccccc2)s1 (3D coordinates assigned)
CCc1n[n-]c(=NC(=O)/C=C\c2ccccc2)s1 (optimized conformer: 69.04851452247962 kcal/mol)

>  <smiles>  (50) 
CCc1n[nH]c(=NC(=O)C=Cc2ccccc2)s1

>  <score_type>  (50) 
oracle

>  <origin>  (50) 
adg

>  <m_score__min__energy>  (50) 
-9.7699999999999996

>  <m_primary>  (50) 
energy

$$$$
50:0
     RDKit          3D

 77 80  0  0  0  0  0  0  0  0999 V2000
   59.4230   28.3070   46.6390 C   0  0  0  0  0  0  0  0  0  0  0  0
   57.9690   28.7140   46.4190 C   0  0  0  0  0  0  0  0  0  0  0  0
   57.5930   28.6060   44.9960 N   0  0  0  0  0  0  0  0  0  0  0  0
   58.6690   28.0510   44.1430 C   0  0  0  0  0  0  0  0  0  0  0  0
   58.1810   27.0870   43.0540 C   0  0  0  0  0  0  0  0  0  0  0  0
   56.8840   30.0750   44.3390 S   0  0  0  0  0  0  0  0  0  0  0  0
   56.8810   30.0020   42.8370 O   0  0  0  0  0  0  0  0  0  0  0  0
   55.4510   30.1680   44.7840 O   0  0  0  0  0  0  0  0  0  0  0  0
   57.7130   31.5570   44.8330 C   0  0  0  0  0  0  0  0  0  0  0  0
   57.1660   32.8120   44.5310 C   0  0  0  0  0  0  0  0  0  0  0  0
   57.8110   33.9810   44.9400 C   0  0  0  0  0  0  0  0  0  0  0  0
   58.9990   33.9050   45.6710 C   0  0  0  0  0  0  0  0  0  0  0  0
   59.5480   32.6550   46.0110 C   0  0  0  0  0  0  0  0  0  0  0  0
   60.8050   32.5700   46.7990 C   0  0  0  0  0  0  0  0  0  0  0  0
   61.1740   31.3640   47.4210 C   0  0  0  0  0  0  0  0  0  0  0  0
   62.3680   31.2750   48.1420 C   0  0  0  0  0  0  0  0  0  0  0  0
   63.2160   32.3870   48.2540 C   0  0  0  0  0  0  0  0  0  0  0  0
   64.5210   32.2720   49.0010 C   0  0  0  0  0  0  0  0  0  0  0  0
   64.4150   32.8520   50.4260 C   0  0  1  0  0  0  0  0  0  0  0  0
   64.0350   31.8130   51.3960 N   0  0  0  0  0  0  0  0  0  0  0  0
   64.7050   30.5390   51.5100 C   0  0  0  0  0  0  0  0  0  0  0  0
   66.1120   30.4660   51.4550 C   0  0  0  0  0  0  0  0  0  0  0  0
   66.7710   29.2540   51.6590 C   0  0  0  0  0  0  0  0  0  0  0  0
   66.0430   28.0980   51.9240 C   0  0  0  0  0  0  0  0  0  0  0  0
   64.6500   28.1440   51.9720 C   0  0  0  0  0  0  0  0  0  0  0  0
   63.9640   29.3520   51.7530 C   0  0  0  0  0  0  0  0  0  0  0  0
   62.4820   29.3280   51.7360 C   0  0  0  0  0  0  0  0  0  0  0  0
   61.8660   28.3490   51.2360 O   0  0  0  0  0  0  0  0  0  0  0  0
   61.7470   30.4020   52.3310 N   0  0  0  0  0  0  0  0  0  0  0  0
   60.2990   30.5180   52.2260 C   0  0  0  0  0  0  0  0  0  0  0  0
   59.9560   31.5620   51.2030 C   0  0  0  0  0  0  0  0  0  0  0  0
   58.8850   31.3530   50.3180 C   0  0  0  0  0  0  0  0  0  0  0  0
   58.5460   32.3340   49.3800 C   0  0  0  0  0  0  0  0  0  0  0  0
   59.2670   33.5320   49.3260 C   0  0  0  0  0  0  0  0  0  0  0  0
   60.3220   33.7540   50.2160 C   0  0  0  0  0  0  0  0  0  0  0  0
   60.6650   32.7750   51.1550 C   0  0  0  0  0  0  0  0  0  0  0  0
   65.7350   33.4630   50.8170 C   0  0  0  0  0  0  0  0  0  0  0  0
   66.9030   33.2320   50.0260 N   0  0  0  0  0  0  0  0  0  0  0  0
   65.8250   34.1470   51.8710 O   0  0  0  0  0  0  0  0  0  0  0  0
   62.8450   33.5950   47.6410 C   0  0  0  0  0  0  0  0  0  0  0  0
   61.6500   33.6870   46.9230 C   0  0  0  0  0  0  0  0  0  0  0  0
   58.8920   31.4850   45.5900 C   0  0  0  0  0  0  0  0  0  0  0  0
   59.6284   28.2495   47.7181 H   0  0  0  0  0  0  0  0  0  0  0  0
   59.6023   27.3241   46.1787 H   0  0  0  0  0  0  0  0  0  0  0  0
   60.0865   29.0539   46.1787 H   0  0  0  0  0  0  0  0  0  0  0  0
   57.3184   28.0552   47.0128 H   0  0  0  0  0  0  0  0  0  0  0  0
   57.8499   29.7619   46.7317 H   0  0  0  0  0  0  0  0  0  0  0  0
   59.1868   28.8891   43.6537 H   0  0  0  0  0  0  0  0  0  0  0  0
   59.3262   27.4690   44.8058 H   0  0  0  0  0  0  0  0  0  0  0  0
   57.7319   26.1997   43.5242 H   0  0  0  0  0  0  0  0  0  0  0  0
   57.4293   27.5907   42.4285 H   0  0  0  0  0  0  0  0  0  0  0  0
   59.0319   26.7794   42.4285 H   0  0  0  0  0  0  0  0  0  0  0  0
   56.2229   32.8762   43.9684 H   0  0  0  0  0  0  0  0  0  0  0  0
   57.3834   34.9623   44.6864 H   0  0  0  0  0  0  0  0  0  0  0  0
   59.5086   34.8286   45.9829 H   0  0  0  0  0  0  0  0  0  0  0  0
   60.5183   30.4845   47.3395 H   0  0  0  0  0  0  0  0  0  0  0  0
   62.6448   30.3263   48.6251 H   0  0  0  0  0  0  0  0  0  0  0  0
   64.8011   31.2104   49.0680 H   0  0  0  0  0  0  0  0  0  0  0  0
   65.2821   32.8464   48.4525 H   0  0  0  0  0  0  0  0  0  0  0  0
   63.6314   33.6239   50.4319 H   0  0  0  0  0  0  0  0  0  0  0  0
   63.2350   32.0040   52.0380 H   0  0  0  0  0  0  0  0  0  0  0  0
   66.6963   31.3749   51.2489 H   0  0  0  0  0  0  0  0  0  0  0  0
   67.8691   29.2117   51.6103 H   0  0  0  0  0  0  0  0  0  0  0  0
   66.5672   27.1463   52.0959 H   0  0  0  0  0  0  0  0  0  0  0  0
   64.0820   27.2260   52.1833 H   0  0  0  0  0  0  0  0  0  0  0  0
   59.8744   29.5505   51.9198 H   0  0  0  0  0  0  0  0  0  0  0  0
   59.8816   30.8079   53.2016 H   0  0  0  0  0  0  0  0  0  0  0  0
   58.3114   30.4154   50.3628 H   0  0  0  0  0  0  0  0  0  0  0  0
   57.7115   32.1633   48.6839 H   0  0  0  0  0  0  0  0  0  0  0  0
   59.0036   34.2993   48.5831 H   0  0  0  0  0  0  0  0  0  0  0  0
   60.8831   34.6994   50.1780 H   0  0  0  0  0  0  0  0  0  0  0  0
   61.4919   32.9550   51.8577 H   0  0  0  0  0  0  0  0  0  0  0  0
   67.8260   33.6140   50.3310 H   0  0  0  0  0  0  0  0  0  0  0  0
   66.8490   32.6970   49.1300 H   0  0  0  0  0  0  0  0  0  0  0  0
   63.4998   34.4747   47.7268 H   0  0  0  0  0  0  0  0  0  0  0  0
   61.3682   34.6400   46.4514 H   0  0  0  0  0  0  0  0  0  0  0  0
   59.3077   30.5022   45.8571 H   0  0  0  0  0  0  0  0  0  0  0  0
  1  2  1  0
  2  3  1  0
  3  4  1  0
  4  5  1  0
  3  6  1  0
  6  7  2  0
  6  8  2  0
  6  9  1  0
  9 10  2  0
 10 11  1  0
 11 12  2  0
 12 13  1  0
 13 14  1  0
 14 15  2  0
 15 16  1  0
 16 17  2  0
 17 18  1  0
 18 19  1  0
 19 20  1  0
 20 21  1  0
 21 22  2  0
 22 23  1  0
 23 24  2  0
 24 25  1  0
 25 26  2  0
 26 27  1  0
 27 28  2  0
 27 29  1  0
 29 30  1  0
 30 31  1  0
 31 32  2  0
 32 33  1  0
 33 34  2  0
 34 35  1  0
 35 36  2  0
 19 37  1  0
 37 38  1  0
 37 39  2  0
 17 40  1  0
 40 41  2  0
 13 42  2  0
 42  9  1  0
 41 14  1  0
 26 21  1  0
 36 31  1  0
  1 43  1  0
  1 44  1  0
  1 45  1  0
  2 46  1  0
  2 47  1  0
  4 48  1  0
  4 49  1  0
  5 50  1  0
  5 51  1  0
  5 52  1  0
 10 53  1  0
 11 54  1  0
 12 55  1  0
 15 56  1  0
 16 57  1  0
 18 58  1  0
 18 59  1  0
 19 60  1  6
 20 61  1  0
 22 62  1  0
 23 63  1  0
 24 64  1  0
 25 65  1  0
 30 66  1  0
 30 67  1  0
 32 68  1  0
 33 69  1  0
 34 70  1  0
 35 71  1  0
 36 72  1  0
 38 73  1  0
 38 74  1  0
 40 75  1  0
 41 76  1  0
 42 77  1  0
M  CHG  1  29  -1
M  END
>  <UniqueID>  (51) 
48

>  <SMILES>  (51) 
CCN(CC)S(=O)(=O)c1cccc(-c2ccc(C[C@@H](Nc3ccccc3C(=O)[N-]Cc3ccccc3)C(N)=O)cc2)c1

>  <Energy>  (51) 
86.58587324548371

>  <Genealogy>  (51) 
CCN(CC)S(=O)(=O)c1cccc(-c2ccc(CC(Nc3ccccc3C(=O)[N-]Cc3ccccc3)C(N)=O)cc2)c1 (protonated)
CCN(CC)S(=O)(=O)c1cccc(-c2ccc(C[C@@H](Nc3ccccc3C(=O)[N-]Cc3ccccc3)C(N)=O)cc2)c1 (chirality)
CCN(CC)S(=O)(=O)c1cccc(-c2ccc(C[C@@H](Nc3ccccc3C(=O)[N-]Cc3ccccc3)C(N)=O)cc2)c1 (3D coordinates assigned)
CCN(CC)S(=O)(=O)c1cccc(-c2ccc(C[C@@H](Nc3ccccc3C(=O)[N-]Cc3ccccc3)C(N)=O)cc2)c1 (optimized conformer: 86.58587324548371 kcal/mol)

>  <smiles>  (51) 
CCN(CC)S(=O)(=O)c1cccc(-c2ccc(CC(Nc3ccccc3C(=O)NCc3ccccc3)C(N)=O)cc2)c1

>  <score_type>  (51) 
oracle

>  <origin>  (51) 
adg

>  <m_score__min__energy>  (51) 
-12.17

>  <m_primary>  (51) 
energy

$$$$
51:0
     RDKit          3D

 39 41  0  0  0  0  0  0  0  0999 V2000
   55.6913   25.1565   46.8446 H   0  0  0  0  0  0  0  0  0  0  0  0
   56.3270   25.9700   46.4650 C   0  0  0  0  0  0  0  0  0  0  0  0
   55.7630   27.0530   45.8730 N   0  0  0  0  0  0  0  0  0  0  0  0
   57.5970   32.6240   45.2140 C   0  0  0  0  0  0  0  0  0  0  0  0
   56.8950   31.5620   44.9360 N   0  0  0  0  0  0  0  0  0  0  0  0
   55.8880   29.7080   43.5410 C   0  0  0  0  0  0  0  0  0  0  0  0
   54.8730   29.9249   43.1768 H   0  0  0  0  0  0  0  0  0  0  0  0
   56.3891   29.0239   42.8404 H   0  0  0  0  0  0  0  0  0  0  0  0
   56.6650   30.9800   43.6390 C   0  0  0  0  0  0  0  0  0  0  0  0
   57.1480   31.4910   42.5900 O   0  0  0  0  0  0  0  0  0  0  0  0
   55.8100   29.0850   44.8610 N   0  0  0  0  0  0  0  0  0  0  0  0
   56.4870   28.0940   45.3780 C   0  0  0  0  0  0  0  0  0  0  0  0
   57.5320   33.5330   46.6340 S   0  0  0  0  0  0  0  0  0  0  0  0
   58.7320   34.6040   46.1290 C   0  0  0  0  0  0  0  0  0  0  0  0
   59.1169   35.4596   46.7033 H   0  0  0  0  0  0  0  0  0  0  0  0
   59.1510   34.2180   44.8600 C   0  0  0  0  0  0  0  0  0  0  0  0
   59.9319   34.7571   44.3035 H   0  0  0  0  0  0  0  0  0  0  0  0
   58.5200   33.1230   44.3620 N   0  0  0  0  0  0  0  0  0  0  0  0
   58.7300   32.7150   43.4230 H   0  0  0  0  0  0  0  0  0  0  0  0
   57.9120   28.0370   45.4740 C   0  0  0  0  0  0  0  0  0  0  0  0
   59.0540   29.2870   44.8490 S   0  0  0  0  0  0  0  0  0  0  0  0
   60.2380   29.0830   46.2240 C   0  0  0  0  0  0  0  0  0  0  0  0
   60.0077   28.1582   46.7732 H   0  0  0  0  0  0  0  0  0  0  0  0
   61.2610   29.0239   45.8241 H   0  0  0  0  0  0  0  0  0  0  0  0
   60.1270   30.2600   47.1530 C   0  0  0  0  0  0  0  0  0  0  0  0
   59.0590   30.3450   48.0630 C   0  0  0  0  0  0  0  0  0  0  0  0
   58.3211   29.5312   48.1195 H   0  0  0  0  0  0  0  0  0  0  0  0
   58.9310   31.4620   48.8980 C   0  0  0  0  0  0  0  0  0  0  0  0
   58.0965   31.5210   49.6123 H   0  0  0  0  0  0  0  0  0  0  0  0
   59.8630   32.5030   48.8250 C   0  0  0  0  0  0  0  0  0  0  0  0
   59.7350   33.5860   49.6300 F   0  0  0  0  0  0  0  0  0  0  0  0
   60.9200   32.4300   47.9120 C   0  0  0  0  0  0  0  0  0  0  0  0
   61.6501   33.2505   47.8511 H   0  0  0  0  0  0  0  0  0  0  0  0
   61.0510   31.3160   47.0760 C   0  0  0  0  0  0  0  0  0  0  0  0
   61.8807   31.2664   46.3554 H   0  0  0  0  0  0  0  0  0  0  0  0
   58.4970   26.9250   46.0960 C   0  0  0  0  0  0  0  0  0  0  0  0
   59.5912   26.8696   46.1940 H   0  0  0  0  0  0  0  0  0  0  0  0
   57.7080   25.8900   46.5910 C   0  0  0  0  0  0  0  0  0  0  0  0
   58.1729   25.0191   47.0762 H   0  0  0  0  0  0  0  0  0  0  0  0
  1  2  1  0
  2  3  1  0
  3  4  1  0
  4  5  2  0
  5  6  1  0
  6  7  1  0
  6  8  1  0
  6  9  1  0
  9 10  2  0
  9 11  1  0
 11 12  2  0
 12 13  1  0
 13 14  1  0
 14 15  1  0
 14 16  2  0
 16 17  1  0
 16 18  1  0
 18 19  1  0
  4 20  1  0
 20 21  1  0
 21 22  1  0
 22 23  1  0
 22 24  1  0
 22 25  1  0
 25 26  2  0
 26 27  1  0
 26 28  1  0
 28 29  1  0
 28 30  2  0
 30 31  1  0
 30 32  1  0
 32 33  1  0
 32 34  2  0
 34 35  1  0
 20 36  2  0
 36 37  1  0
 36 38  1  0
 38 39  1  0
 38  2  2  0
 18 12  1  0
 34 25  1  0
M  CHG  1   3  -1
M  END
>  <UniqueID>  (52) 
49

>  <SMILES>  (52) 
O=C(C/N=c1/[n-]cccc1SCc1ccc(F)cc1)/N=c1/[nH]ccs1

>  <Energy>  (52) 
77.90664528189971

>  <Genealogy>  (52) 
O=C(CN=c1[n-]cccc1SCc1ccc(F)cc1)N=c1[nH]ccs1 (protonated)
O=C(C/N=c1/[n-]cccc1SCc1ccc(F)cc1)/N=c1/[nH]ccs1 (cis-trans isomerization)
O=C(C/N=c1/[n-]cccc1SCc1ccc(F)cc1)/N=c1/[nH]ccs1 (3D coordinates assigned)
O=C(C/N=c1/[n-]cccc1SCc1ccc(F)cc1)/N=c1/[nH]ccs1 (optimized conformer: 77.90664528189971 kcal/mol)

>  <smiles>  (52) 
O=C(CN=c1[nH]cccc1SCc1ccc(F)cc1)N=c1[nH]ccs1

>  <score_type>  (52) 
oracle

>  <origin>  (52) 
adg

>  <m_score__min__energy>  (52) 
-9.1999999999999993

>  <m_primary>  (52) 
energy

$$$$
52:0
     RDKit          3D

 70 73  0  0  0  0  0  0  0  0999 V2000
   55.2380   28.4190   53.8950 C   0  0  0  0  0  0  0  0  0  0  0  0
   54.3260   29.2020   52.9920 C   0  0  0  0  0  0  0  0  0  0  0  0
   52.9790   28.8750   52.9220 C   0  0  0  0  0  0  0  0  0  0  0  0
   52.1050   29.5680   52.1040 C   0  0  0  0  0  0  0  0  0  0  0  0
   52.6100   30.6040   51.3480 C   0  0  0  0  0  0  0  0  0  0  0  0
   51.7680   31.3530   50.4870 N   0  0  0  0  0  0  0  0  0  0  0  0
   51.3360   30.8500   49.4330 O   0  0  0  0  0  0  0  0  0  0  0  0
   51.4240   32.6440   50.8200 O   0  0  0  0  0  0  0  0  0  0  0  0
   53.9440   30.9090   51.4300 C   0  0  0  0  0  0  0  0  0  0  0  0
   54.8480   30.2560   52.2230 C   0  0  0  0  0  0  0  0  0  0  0  0
   56.5150   30.6350   52.4430 S   0  0  0  0  0  0  0  0  0  0  0  0
   56.7990   30.8050   53.9320 O   0  0  0  0  0  0  0  0  0  0  0  0
   57.3780   29.4390   51.9990 O   0  0  0  0  0  0  0  0  0  0  0  0
   56.9810   32.0280   51.5800 N   0  0  0  0  0  0  0  0  0  0  0  0
   58.1250   32.2340   50.7910 C   0  0  0  0  0  0  0  0  0  0  0  0
   59.4110   32.3950   51.2090 C   0  0  0  0  0  0  0  0  0  0  0  0
   60.4730   32.6390   50.3260 C   0  0  0  0  0  0  0  0  0  0  0  0
   60.1710   32.7180   48.9670 C   0  0  0  0  0  0  0  0  0  0  0  0
   58.9120   32.5670   48.4860 C   0  0  0  0  0  0  0  0  0  0  0  0
   58.5290   32.5790   47.0800 C   0  0  0  0  0  0  0  0  0  0  0  0
   57.7010   33.5580   46.6000 N   0  0  0  0  0  0  0  0  0  0  0  0
   57.2970   33.5940   45.3140 C   0  0  0  0  0  0  0  0  0  0  0  0
   56.5130   34.5440   44.9120 N   0  0  0  0  0  0  0  0  0  0  0  0
   57.6630   32.6890   44.3940 N   0  0  0  0  0  0  0  0  0  0  0  0
   58.4760   31.7050   44.8140 C   0  0  0  0  0  0  0  0  0  0  0  0
   58.8440   30.8440   43.9350 N   0  0  0  0  0  0  0  0  0  0  0  0
   58.9140   31.6380   46.1510 C   0  0  0  0  0  0  0  0  0  0  0  0
   59.9260   30.2220   46.5340 S   0  0  0  0  0  0  0  0  0  0  0  0
   59.0170   28.7250   46.1940 C   0  0  0  0  0  0  0  0  0  0  0  0
   58.9940   28.1190   44.9560 C   0  0  0  0  0  0  0  0  0  0  0  0
   58.2840   26.9630   44.6860 C   0  0  0  0  0  0  0  0  0  0  0  0
   57.5510   26.3590   45.6820 C   0  0  0  0  0  0  0  0  0  0  0  0
   56.7970   25.1610   45.4280 N   0  0  0  0  0  0  0  0  0  0  0  0
   55.3970   25.2550   45.6270 C   0  0  0  0  0  0  0  0  0  0  0  0
   54.8830   26.3200   46.0000 O   0  0  0  0  0  0  0  0  0  0  0  0
   54.4810   24.0930   45.4040 C   0  0  0  0  0  0  0  0  0  0  0  0
   55.1160   23.0340   44.6890 N   0  0  0  0  0  0  0  0  0  0  0  0
   55.9600   22.2050   45.4900 C   0  0  0  0  0  0  0  0  0  0  0  0
   55.6020   23.3540   43.3870 C   0  0  0  0  0  0  0  0  0  0  0  0
   57.5490   26.9350   46.9330 C   0  0  0  0  0  0  0  0  0  0  0  0
   58.2640   28.0920   47.1880 C   0  0  0  0  0  0  0  0  0  0  0  0
   57.9110   32.3280   49.4050 C   0  0  0  0  0  0  0  0  0  0  0  0
   54.9878   28.6338   54.9444 H   0  0  0  0  0  0  0  0  0  0  0  0
   55.1117   27.3437   53.7006 H   0  0  0  0  0  0  0  0  0  0  0  0
   56.2818   28.7066   53.7006 H   0  0  0  0  0  0  0  0  0  0  0  0
   52.5968   28.0436   53.5325 H   0  0  0  0  0  0  0  0  0  0  0  0
   51.0390   29.3004   52.0582 H   0  0  0  0  0  0  0  0  0  0  0  0
   54.3152   31.7403   50.8126 H   0  0  0  0  0  0  0  0  0  0  0  0
   56.3090   32.8530   51.6370 H   0  0  0  0  0  0  0  0  0  0  0  0
   59.6262   32.3309   52.2858 H   0  0  0  0  0  0  0  0  0  0  0  0
   61.5032   32.7631   50.6910 H   0  0  0  0  0  0  0  0  0  0  0  0
   60.9876   32.9107   48.2557 H   0  0  0  0  0  0  0  0  0  0  0  0
   57.3480   34.3350   47.1940 H   0  0  0  0  0  0  0  0  0  0  0  0
   55.9130   35.0440   45.6020 H   0  0  0  0  0  0  0  0  0  0  0  0
   57.3450   32.7300   43.4080 H   0  0  0  0  0  0  0  0  0  0  0  0
   59.6510   30.2180   43.9720 H   0  0  0  0  0  0  0  0  0  0  0  0
   59.5706   28.5789   44.1399 H   0  0  0  0  0  0  0  0  0  0  0  0
   58.3052   26.5269   43.6763 H   0  0  0  0  0  0  0  0  0  0  0  0
   57.2420   24.2710   45.1150 H   0  0  0  0  0  0  0  0  0  0  0  0
   54.1490   23.7114   46.3808 H   0  0  0  0  0  0  0  0  0  0  0  0
   53.6310   24.4447   44.8009 H   0  0  0  0  0  0  0  0  0  0  0  0
   55.7618   22.3997   46.5543 H   0  0  0  0  0  0  0  0  0  0  0  0
   55.7546   21.1478   45.2662 H   0  0  0  0  0  0  0  0  0  0  0  0
   57.0134   22.4293   45.2662 H   0  0  0  0  0  0  0  0  0  0  0  0
   56.5178   23.9570   43.4754 H   0  0  0  0  0  0  0  0  0  0  0  0
   55.8255   22.4258   42.8407 H   0  0  0  0  0  0  0  0  0  0  0  0
   54.8376   23.9261   42.8407 H   0  0  0  0  0  0  0  0  0  0  0  0
   56.9695   26.4676   47.7428 H   0  0  0  0  0  0  0  0  0  0  0  0
   58.2394   28.5251   48.1989 H   0  0  0  0  0  0  0  0  0  0  0  0
   56.8842   32.2036   49.0306 H   0  0  0  0  0  0  0  0  0  0  0  0
  1  2  1  0
  2  3  2  0
  3  4  1  0
  4  5  2  0
  5  6  1  0
  6  7  2  0
  6  8  1  0
  5  9  1  0
  9 10  2  0
 10 11  1  0
 11 12  2  0
 11 13  2  0
 11 14  1  0
 14 15  1  0
 15 16  2  0
 16 17  1  0
 17 18  2  0
 18 19  1  0
 19 20  1  0
 20 21  1  0
 21 22  1  0
 22 23  2  3
 22 24  1  0
 24 25  1  0
 25 26  2  3
 25 27  1  0
 27 28  1  0
 28 29  1  0
 29 30  2  0
 30 31  1  0
 31 32  2  0
 32 33  1  0
 33 34  1  0
 34 35  2  0
 34 36  1  0
 36 37  1  0
 37 38  1  0
 37 39  1  0
 32 40  1  0
 40 41  2  0
 19 42  2  0
 10  2  1  0
 42 15  1  0
 27 20  2  0
 41 29  1  0
  1 43  1  0
  1 44  1  0
  1 45  1  0
  3 46  1  0
  4 47  1  0
  9 48  1  0
 14 49  1  0
 16 50  1  0
 17 51  1  0
 18 52  1  0
 21 53  1  0
 23 54  1  0
 24 55  1  0
 26 56  1  0
 30 57  1  0
 31 58  1  0
 33 59  1  0
 36 60  1  0
 36 61  1  0
 38 62  1  0
 38 63  1  0
 38 64  1  0
 39 65  1  0
 39 66  1  0
 39 67  1  0
 40 68  1  0
 41 69  1  0
 42 70  1  0
M  CHG  2   6   1   8  -1
M  END
>  <smiles>  (53) 
Cc1ccc([N+](=O)[O-])cc1S(=O)(=O)Nc1cccc(-c2[nH]c(=N)[nH]c(=N)c2Sc2ccc(NC(=O)CN(C)C)cc2)c1

>  <score_type>  (53) 
oracle

>  <origin>  (53) 
adg

>  <m_score__min__energy>  (53) 
-11.800000000000001

>  <m_primary>  (53) 
energy

$$$$
53:0
     RDKit          3D

 45 46  0  0  0  0  0  0  0  0999 V2000
   58.0540   30.2130   51.5110 C   0  0  0  0  0  0  0  0  0  0  0  0
   58.6310   31.2230   50.5990 N   0  0  0  0  0  0  0  0  0  0  0  0
   58.7230   32.5250   51.0260 C   0  0  0  0  0  0  0  0  0  0  0  0
   58.3130   32.8680   52.1700 O   0  0  0  0  0  0  0  0  0  0  0  0
   59.2750   33.4950   50.2000 C   0  0  0  0  0  0  0  0  0  0  0  0
   59.7340   33.1470   48.9350 C   0  0  0  0  0  0  0  0  0  0  0  0
   60.3440   34.2030   48.0410 C   0  0  0  0  0  0  0  0  0  0  0  0
   59.3260   34.9080   47.2640 N   0  0  0  0  0  0  0  0  0  0  0  0
   59.4510   35.3390   45.9020 C   0  0  0  0  0  0  0  0  0  0  0  0
   60.0040   36.4450   45.6640 O   0  0  0  0  0  0  0  0  0  0  0  0
   58.8870   34.5470   44.7560 C   0  0  0  0  0  0  0  0  0  0  0  0
   58.5440   33.1930   45.1880 N   0  0  0  0  0  0  0  0  0  0  0  0
   57.9650   32.2420   44.2800 C   0  0  0  0  0  0  0  0  0  0  0  0
   57.7080   32.5940   43.0960 O   0  0  0  0  0  0  0  0  0  0  0  0
   57.7020   30.8430   44.6950 C   0  0  0  0  0  0  0  0  0  0  0  0
   56.4260   30.2840   44.4970 C   0  0  0  0  0  0  0  0  0  0  0  0
   56.1650   28.9600   44.8610 C   0  0  0  0  0  0  0  0  0  0  0  0
   57.1700   28.1770   45.4390 C   0  0  0  0  0  0  0  0  0  0  0  0
   56.8540   26.4970   45.8600 S   0  0  0  0  0  0  0  0  0  0  0  0
   55.1500   26.2460   45.9910 N   0  0  0  0  0  0  0  0  0  0  0  0
   57.5100   26.1680   47.1710 O   0  0  0  0  0  0  0  0  0  0  0  0
   57.4160   25.5910   44.8000 O   0  0  0  0  0  0  0  0  0  0  0  0
   58.4400   28.7270   45.6500 C   0  0  0  0  0  0  0  0  0  0  0  0
   58.7040   30.0510   45.2870 C   0  0  0  0  0  0  0  0  0  0  0  0
   59.5780   31.8210   48.5090 C   0  0  0  0  0  0  0  0  0  0  0  0
   59.9650   31.4970   47.3520 O   0  0  0  0  0  0  0  0  0  0  0  0
   59.0100   30.8850   49.3450 N   0  0  0  0  0  0  0  0  0  0  0  0
   58.8700   29.4930   48.8690 C   0  0  0  0  0  0  0  0  0  0  0  0
   58.2283   30.5181   52.5534 H   0  0  0  0  0  0  0  0  0  0  0  0
   56.9723   30.1302   51.3292 H   0  0  0  0  0  0  0  0  0  0  0  0
   58.5320   29.2391   51.3292 H   0  0  0  0  0  0  0  0  0  0  0  0
   59.3489   34.5366   50.5460 H   0  0  0  0  0  0  0  0  0  0  0  0
   60.8831   34.9306   48.6655 H   0  0  0  0  0  0  0  0  0  0  0  0
   61.0272   33.7040   47.3380 H   0  0  0  0  0  0  0  0  0  0  0  0
   57.9820   35.0474   44.3811 H   0  0  0  0  0  0  0  0  0  0  0  0
   59.6439   34.4851   43.9602 H   0  0  0  0  0  0  0  0  0  0  0  0
   58.8180   32.8870   46.1480 H   0  0  0  0  0  0  0  0  0  0  0  0
   55.6266   30.8945   44.0517 H   0  0  0  0  0  0  0  0  0  0  0  0
   55.1658   28.5321   44.6924 H   0  0  0  0  0  0  0  0  0  0  0  0
   54.7530   27.0890   46.4630 H   0  0  0  0  0  0  0  0  0  0  0  0
   59.2335   28.1148   46.1033 H   0  0  0  0  0  0  0  0  0  0  0  0
   59.7023   30.4772   45.4653 H   0  0  0  0  0  0  0  0  0  0  0  0
   58.8018   28.8152   49.7327 H   0  0  0  0  0  0  0  0  0  0  0  0
   57.9583   29.4037   48.2600 H   0  0  0  0  0  0  0  0  0  0  0  0
   59.7456   29.2239   48.2600 H   0  0  0  0  0  0  0  0  0  0  0  0
  1  2  1  0
  2  3  1  0
  3  4  2  0
  3  5  1  0
  5  6  2  0
  6  7  1  0
  7  8  1  0
  8  9  1  0
  9 10  2  0
  9 11  1  0
 11 12  1  0
 12 13  1  0
 13 14  2  0
 13 15  1  0
 15 16  2  0
 16 17  1  0
 17 18  2  0
 18 19  1  0
 19 20  1  0
 19 21  2  0
 19 22  2  0
 18 23  1  0
 23 24  2  0
  6 25  1  0
 25 26  2  0
 25 27  1  0
 27 28  1  0
 27  2  1  0
 24 15  1  0
  1 29  1  0
  1 30  1  0
  1 31  1  0
  5 32  1  0
  7 33  1  0
  7 34  1  0
 11 35  1  0
 11 36  1  0
 12 37  1  0
 16 38  1  0
 17 39  1  0
 20 40  1  0
 23 41  1  0
 24 42  1  0
 28 43  1  0
 28 44  1  0
 28 45  1  0
M  CHG  2   8  -1  20  -1
M  END
>  <UniqueID>  (54) 
50

>  <SMILES>  (54) 
Cn1c(=O)cc(C[N-]C(=O)CNC(=O)c2ccc(S([NH-])(=O)=O)cc2)c(=O)n1C

>  <Energy>  (54) 
46.2394720368878

>  <Genealogy>  (54) 
Cn1c(=O)cc(C[N-]C(=O)CNC(=O)c2ccc(S([NH-])(=O)=O)cc2)c(=O)n1C (protonated)
Cn1c(=O)cc(C[N-]C(=O)CNC(=O)c2ccc(S([NH-])(=O)=O)cc2)c(=O)n1C (3D coordinates assigned)
Cn1c(=O)cc(C[N-]C(=O)CNC(=O)c2ccc(S([NH-])(=O)=O)cc2)c(=O)n1C (optimized conformer: 46.2394720368878 kcal/mol)

>  <smiles>  (54) 
Cn1c(=O)cc(CNC(=O)CNC(=O)c2ccc(S(N)(=O)=O)cc2)c(=O)n1C

>  <score_type>  (54) 
oracle

>  <origin>  (54) 
adg

>  <m_score__min__energy>  (54) 
-11.460000000000001

>  <m_primary>  (54) 
energy

$$$$
54:0
     RDKit          3D

 37 40  0  0  0  0  0  0  0  0999 V2000
   54.5110   26.1720   45.9850 O   0  0  0  0  0  0  0  0  0  0  0  0
   55.8380   25.8450   45.7320 C   0  0  0  0  0  0  0  0  0  0  0  0
   56.2710   24.5830   45.5260 N   0  0  0  0  0  0  0  0  0  0  0  0
   57.6070   24.6900   45.3420 C   0  0  0  0  0  0  0  0  0  0  0  0
   57.9980   26.0090   45.4490 C   0  0  0  0  0  0  0  0  0  0  0  0
   56.8760   26.7470   45.6640 C   0  0  0  0  0  0  0  0  0  0  0  0
   56.8870   28.2280   45.9090 C   0  0  2  0  0  0  0  0  0  0  0  0
   55.8300   28.8280   45.2050 O   0  0  0  0  0  0  0  0  0  0  0  0
   58.1890   28.8400   45.5000 N   0  0  0  0  0  0  0  0  0  0  0  0
   59.3840   28.0310   45.8830 C   0  0  1  0  0  0  0  0  0  0  0  0
   59.5180   28.0200   47.3840 C   0  0  0  0  0  0  0  0  0  0  0  0
   59.3750   29.1840   48.0230 C   0  0  0  0  0  0  0  0  0  0  0  0
   59.2210   30.4470   47.2190 C   0  0  0  0  0  0  0  0  0  0  0  0
   58.2890   30.2560   45.9760 C   0  0  1  0  0  0  0  0  0  0  0  0
   58.7390   31.1360   44.7960 C   0  0  0  0  0  0  0  0  0  0  0  0
   58.2950   32.5580   44.9600 C   0  0  0  0  0  0  0  0  0  0  0  0
   57.0090   32.9080   45.1690 N   0  0  0  0  0  0  0  0  0  0  0  0
   57.0580   34.2440   45.3040 C   0  0  0  0  0  0  0  0  0  0  0  0
   58.3600   34.6650   45.1840 C   0  0  0  0  0  0  0  0  0  0  0  0
   59.1520   33.6010   44.9700 N   0  0  0  0  0  0  0  0  0  0  0  0
   59.3500   26.6080   45.2770 C   0  0  0  0  0  0  0  0  0  0  0  0
   54.2640   27.0830   46.3530 H   0  0  0  0  0  0  0  0  0  0  0  0
   58.2837   23.8474   45.1368 H   0  0  0  0  0  0  0  0  0  0  0  0
   56.7597   28.4008   46.9879 H   0  0  0  0  0  0  0  0  0  0  0  0
   55.1490   28.1230   45.0420 H   0  0  0  0  0  0  0  0  0  0  0  0
   60.2819   28.5027   45.4572 H   0  0  0  0  0  0  0  0  0  0  0  0
   59.7256   27.0892   47.9322 H   0  0  0  0  0  0  0  0  0  0  0  0
   59.3698   29.2192   49.1224 H   0  0  0  0  0  0  0  0  0  0  0  0
   60.2140   30.7662   46.8697 H   0  0  0  0  0  0  0  0  0  0  0  0
   58.7590   31.2037   47.8702 H   0  0  0  0  0  0  0  0  0  0  0  0
   57.2929   30.5618   46.3284 H   0  0  0  0  0  0  0  0  0  0  0  0
   59.8368   31.1111   44.7319 H   0  0  0  0  0  0  0  0  0  0  0  0
   58.2798   30.7384   43.8789 H   0  0  0  0  0  0  0  0  0  0  0  0
   56.1916   34.8978   45.4826 H   0  0  0  0  0  0  0  0  0  0  0  0
   58.7005   35.7087   45.2523 H   0  0  0  0  0  0  0  0  0  0  0  0
   59.5892   26.6637   44.2048 H   0  0  0  0  0  0  0  0  0  0  0  0
   60.0899   25.9795   45.7942 H   0  0  0  0  0  0  0  0  0  0  0  0
  1  2  1  0
  2  3  1  0
  3  4  1  0
  4  5  2  0
  5  6  1  0
  6  7  1  0
  7  8  1  0
  7  9  1  0
  9 10  1  0
 10 11  1  0
 11 12  2  0
 12 13  1  0
 13 14  1  0
 14 15  1  0
 15 16  1  0
 16 17  2  0
 17 18  1  0
 18 19  2  0
 19 20  1  0
 10 21  1  0
  6  2  2  0
 14  9  1  0
 20 16  1  0
 21  5  1  0
  1 22  1  0
  4 23  1  0
  7 24  1  1
  8 25  1  0
 10 26  1  6
 11 27  1  0
 12 28  1  0
 13 29  1  0
 13 30  1  0
 14 31  1  1
 15 32  1  0
 15 33  1  0
 18 34  1  0
 19 35  1  0
 21 36  1  0
 21 37  1  0
M  CHG  2   3  -1  20  -1
M  END
>  <UniqueID>  (55) 
51

>  <SMILES>  (55) 
Oc1[n-]cc2c1[C@H](O)N1C(Cc3ncc[n-]3)CC=C[C@H]1C2

>  <Energy>  (55) 
105.69467283707712

>  <Genealogy>  (55) 
Oc1[n-]cc2c1C(O)N1C(C=CCC1Cc1ncc[n-]1)C2 (protonated)
Oc1[n-]cc2c1[C@H](O)N1C(Cc3ncc[n-]3)CC=C[C@H]1C2 (chirality)
Oc1[n-]cc2c1[C@H](O)N1C(Cc3ncc[n-]3)CC=C[C@H]1C2 (3D coordinates assigned)
Oc1[n-]cc2c1[C@H](O)N1C(Cc3ncc[n-]3)CC=C[C@H]1C2 (nonaromatic ring conformer: 105.69467283707712 kcal/mol)

>  <smiles>  (55) 
Oc1[nH]cc2c1C(O)N1C(C=CCC1Cc1ncc[nH]1)C2

>  <score_type>  (55) 
oracle

>  <origin>  (55) 
adg

>  <m_score__min__energy>  (55) 
-10.779999999999999

>  <m_primary>  (55) 
energy

$$$$
55:0
     RDKit          3D

 16 16  0  0  0  0  0  0  0  0999 V2000
   54.3640   28.6110   52.5220 N   0  0  0  0  0  0  0  0  0  0  0  0
   53.4080   29.6480   52.2820 C   0  0  0  0  0  0  0  0  0  0  0  0
   53.0310   30.5100   53.3180 C   0  0  0  0  0  0  0  0  0  0  0  0
   52.0990   31.5220   53.0840 C   0  0  0  0  0  0  0  0  0  0  0  0
   51.5340   31.6850   51.8150 C   0  0  0  0  0  0  0  0  0  0  0  0
   50.6070   32.7040   51.6200 O   0  0  0  0  0  0  0  0  0  0  0  0
   51.9050   30.8220   50.7600 C   0  0  0  0  0  0  0  0  0  0  0  0
   51.3400   30.9480   49.3990 C   0  0  0  0  0  0  0  0  0  0  0  0
   51.3130   29.9740   48.6010 O   0  0  0  0  0  0  0  0  0  0  0  0
   52.8450   29.8070   51.0080 C   0  0  0  0  0  0  0  0  0  0  0  0
   55.1210   28.7350   53.2300 H   0  0  0  0  0  0  0  0  0  0  0  0
   54.3210   27.7110   51.9920 H   0  0  0  0  0  0  0  0  0  0  0  0
   53.4704   30.3896   54.3192 H   0  0  0  0  0  0  0  0  0  0  0  0
   51.8068   32.1958   53.9029 H   0  0  0  0  0  0  0  0  0  0  0  0
   50.9329   31.9173   49.0754 H   0  0  0  0  0  0  0  0  0  0  0  0
   53.1422   29.1300   50.1936 H   0  0  0  0  0  0  0  0  0  0  0  0
  1  2  1  0
  2  3  2  0
  3  4  1  0
  4  5  2  0
  5  6  1  0
  5  7  1  0
  7  8  1  0
  8  9  2  0
  7 10  2  0
 10  2  1  0
  1 11  1  0
  1 12  1  0
  3 13  1  0
  4 14  1  0
  8 15  1  0
 10 16  1  0
M  CHG  1   6  -1
M  END
>  <UniqueID>  (56) 
52

>  <SMILES>  (56) 
Nc1ccc([O-])c(C=O)c1

>  <Energy>  (56) 
15.080327052745409

>  <Genealogy>  (56) 
Nc1ccc([O-])c(C=O)c1 (protonated)
Nc1ccc([O-])c(C=O)c1 (3D coordinates assigned)
Nc1ccc([O-])c(C=O)c1 (optimized conformer: 15.080327052745409 kcal/mol)

>  <smiles>  (56) 
Nc1ccc(O)c(C=O)c1

>  <score_type>  (56) 
oracle

>  <origin>  (56) 
adg

>  <m_score__min__energy>  (56) 
-8.6899999999999995

>  <m_primary>  (56) 
energy

$$$$
56:0
     RDKit          3D

 51 53  0  0  0  0  0  0  0  0999 V2000
   57.7850   20.0320   46.9390 C   0  0  0  0  0  0  0  0  0  0  0  0
   57.7830   21.4090   46.5840 O   0  0  0  0  0  0  0  0  0  0  0  0
   57.3140   21.9180   45.3610 C   0  0  0  0  0  0  0  0  0  0  0  0
   57.1090   21.0890   44.2400 C   0  0  0  0  0  0  0  0  0  0  0  0
   56.6490   21.6300   43.0360 C   0  0  0  0  0  0  0  0  0  0  0  0
   56.3920   22.9970   42.9360 C   0  0  0  0  0  0  0  0  0  0  0  0
   56.5900   23.8310   44.0410 C   0  0  0  0  0  0  0  0  0  0  0  0
   57.0470   23.2990   45.2570 C   0  0  0  0  0  0  0  0  0  0  0  0
   57.3120   24.3630   46.6430 S   0  0  0  0  0  0  0  0  0  0  0  0
   56.2070   25.3740   46.7540 O   0  0  0  0  0  0  0  0  0  0  0  0
   57.3340   23.5350   47.8990 O   0  0  0  0  0  0  0  0  0  0  0  0
   58.8330   25.1840   46.4710 N   0  0  0  0  0  0  0  0  0  0  0  0
   58.9750   26.1840   47.5260 C   0  0  0  0  0  0  0  0  0  0  0  0
   58.6540   27.5390   46.9660 C   0  0  0  0  0  0  0  0  0  0  0  0
   58.7960   28.6900   47.7550 C   0  0  0  0  0  0  0  0  0  0  0  0
   58.5160   29.9510   47.2200 C   0  0  0  0  0  0  0  0  0  0  0  0
   58.1080   30.0890   45.8810 C   0  0  0  0  0  0  0  0  0  0  0  0
   57.8140   31.4420   45.3370 C   0  0  0  0  0  0  0  0  0  0  0  0
   56.6440   31.6880   44.9270 O   0  0  0  0  0  0  0  0  0  0  0  0
   58.8330   32.4700   45.2440 N   0  0  0  0  0  0  0  0  0  0  0  0
   59.6090   32.5690   46.5160 C   0  0  0  0  0  0  0  0  0  0  0  0
   59.1420   33.7270   47.4100 C   0  0  0  0  0  0  0  0  0  0  0  0
   59.2820   35.0750   46.6830 C   0  0  0  0  0  0  0  0  0  0  0  0
   59.0940   34.9510   45.1590 C   0  0  0  0  0  0  0  0  0  0  0  0
   58.2090   33.7480   44.8140 C   0  0  0  0  0  0  0  0  0  0  0  0
   57.9720   28.9300   45.0920 C   0  0  0  0  0  0  0  0  0  0  0  0
   58.2480   27.6690   45.6290 C   0  0  0  0  0  0  0  0  0  0  0  0
   57.7851   19.9358   48.0348 H   0  0  0  0  0  0  0  0  0  0  0  0
   56.8876   19.5462   46.5284 H   0  0  0  0  0  0  0  0  0  0  0  0
   58.6838   19.5488   46.5284 H   0  0  0  0  0  0  0  0  0  0  0  0
   57.3121   20.0104   44.3128 H   0  0  0  0  0  0  0  0  0  0  0  0
   56.4894   20.9763   42.1658 H   0  0  0  0  0  0  0  0  0  0  0  0
   56.0329   23.4201   41.9862 H   0  0  0  0  0  0  0  0  0  0  0  0
   56.3867   24.9088   43.9569 H   0  0  0  0  0  0  0  0  0  0  0  0
   58.2826   25.9521   48.3487 H   0  0  0  0  0  0  0  0  0  0  0  0
   60.0068   26.1759   47.9073 H   0  0  0  0  0  0  0  0  0  0  0  0
   59.1292   28.6001   48.7995 H   0  0  0  0  0  0  0  0  0  0  0  0
   58.6159   30.8450   47.8532 H   0  0  0  0  0  0  0  0  0  0  0  0
   59.5260   32.1900   44.5110 H   0  0  0  0  0  0  0  0  0  0  0  0
   59.4935   31.6271   47.0722 H   0  0  0  0  0  0  0  0  0  0  0  0
   60.6590   32.7596   46.2492 H   0  0  0  0  0  0  0  0  0  0  0  0
   58.0868   33.5711   47.6788 H   0  0  0  0  0  0  0  0  0  0  0  0
   59.7703   33.7485   48.3127 H   0  0  0  0  0  0  0  0  0  0  0  0
   58.5229   35.7673   47.0760 H   0  0  0  0  0  0  0  0  0  0  0  0
   60.3021   35.4451   46.8629 H   0  0  0  0  0  0  0  0  0  0  0  0
   58.6200   35.8679   44.7787 H   0  0  0  0  0  0  0  0  0  0  0  0
   60.0802   34.8073   44.6934 H   0  0  0  0  0  0  0  0  0  0  0  0
   57.2395   33.8606   45.3214 H   0  0  0  0  0  0  0  0  0  0  0  0
   58.0792   33.7177   43.7221 H   0  0  0  0  0  0  0  0  0  0  0  0
   57.6461   29.0178   44.0451 H   0  0  0  0  0  0  0  0  0  0  0  0
   58.1462   26.7728   44.9993 H   0  0  0  0  0  0  0  0  0  0  0  0
  1  2  1  0
  2  3  1  0
  3  4  2  0
  4  5  1  0
  5  6  2  0
  6  7  1  0
  7  8  2  0
  8  9  1  0
  9 10  2  0
  9 11  2  0
  9 12  1  0
 12 13  1  0
 13 14  1  0
 14 15  2  0
 15 16  1  0
 16 17  2  0
 17 18  1  0
 18 19  2  0
 18 20  1  0
 20 21  1  0
 21 22  1  0
 22 23  1  0
 23 24  1  0
 24 25  1  0
 17 26  1  0
 26 27  2  0
  8  3  1  0
 27 14  1  0
 25 20  1  0
  1 28  1  0
  1 29  1  0
  1 30  1  0
  4 31  1  0
  5 32  1  0
  6 33  1  0
  7 34  1  0
 13 35  1  0
 13 36  1  0
 15 37  1  0
 16 38  1  0
 20 39  1  0
 21 40  1  0
 21 41  1  0
 22 42  1  0
 22 43  1  0
 23 44  1  0
 23 45  1  0
 24 46  1  0
 24 47  1  0
 25 48  1  0
 25 49  1  0
 26 50  1  0
 27 51  1  0
M  CHG  2  12  -1  20   1
M  END
>  <UniqueID>  (57) 
53

>  <SMILES>  (57) 
COc1ccccc1S(=O)(=O)[N-]Cc1ccc(C(=O)[NH+]2CCCCC2)cc1

>  <Energy>  (57) 
60.88004856310186

>  <Genealogy>  (57) 
COc1ccccc1S(=O)(=O)[N-]Cc1ccc(C(=O)[NH+]2CCCCC2)cc1 (protonated)
COc1ccccc1S(=O)(=O)[N-]Cc1ccc(C(=O)[NH+]2CCCCC2)cc1 (3D coordinates assigned)
COc1ccccc1S(=O)(=O)[N-]Cc1ccc(C(=O)[NH+]2CCCCC2)cc1 (nonaromatic ring conformer: 60.88004856310186 kcal/mol)

>  <smiles>  (57) 
COc1ccccc1S(=O)(=O)NCc1ccc(C(=O)N2CCCCC2)cc1

>  <score_type>  (57) 
oracle

>  <origin>  (57) 
adg

>  <m_score__min__energy>  (57) 
-9.6300000000000008

>  <m_primary>  (57) 
energy

$$$$
57:0
     RDKit          3D

 39 39  0  0  0  0  0  0  0  0999 V2000
   59.8070   33.7520   49.7390 C   0  0  0  0  0  0  0  0  0  0  0  0
   59.9810   34.5150   48.4300 C   0  0  0  0  0  0  0  0  0  0  0  0
   59.2450   33.8170   47.2780 C   0  0  0  0  0  0  0  0  0  0  0  0
   59.1080   34.7140   46.0370 C   0  0  0  0  0  0  0  0  0  0  0  0
   58.0790   34.1840   45.0100 C   0  0  0  0  0  0  0  0  0  0  0  0
   57.9550   32.6510   45.0150 C   0  0  0  0  0  0  0  0  0  0  0  0
   57.8620   32.0750   43.5910 C   0  0  0  0  0  0  0  0  0  0  0  0
   57.4070   30.6050   43.5740 C   0  0  0  0  0  0  0  0  0  0  0  0
   57.4640   29.9150   44.9460 C   0  0  0  0  0  0  0  0  0  0  0  0
   56.3270   28.9430   45.1300 C   0  0  0  0  0  0  0  0  0  0  0  0
   55.1510   29.3420   44.9160 O   0  0  0  0  0  0  0  0  0  0  0  0
   56.5330   27.5580   45.5990 C   0  0  0  0  0  0  0  0  0  0  0  0
   57.7490   26.9360   45.8310 C   0  0  0  0  0  0  0  0  0  0  0  0
   57.4590   25.6660   46.2720 C   0  0  0  0  0  0  0  0  0  0  0  0
   56.0830   25.5790   46.2790 C   0  0  0  0  0  0  0  0  0  0  0  0
   55.3560   24.4570   46.6630 O   0  0  0  0  0  0  0  0  0  0  0  0
   55.5060   26.7230   45.8690 N   0  0  0  0  0  0  0  0  0  0  0  0
   59.9631   34.4364   50.5859 H   0  0  0  0  0  0  0  0  0  0  0  0
   58.7905   33.3343   49.7876 H   0  0  0  0  0  0  0  0  0  0  0  0
   60.5419   32.9349   49.7876 H   0  0  0  0  0  0  0  0  0  0  0  0
   59.5769   35.5310   48.5505 H   0  0  0  0  0  0  0  0  0  0  0  0
   61.0533   34.5501   48.1874 H   0  0  0  0  0  0  0  0  0  0  0  0
   59.8045   32.9120   46.9990 H   0  0  0  0  0  0  0  0  0  0  0  0
   58.2309   33.5740   47.6281 H   0  0  0  0  0  0  0  0  0  0  0  0
   58.7916   35.7157   46.3633 H   0  0  0  0  0  0  0  0  0  0  0  0
   60.0879   34.7314   45.5375 H   0  0  0  0  0  0  0  0  0  0  0  0
   57.0950   34.6154   45.2460 H   0  0  0  0  0  0  0  0  0  0  0  0
   58.4305   34.4810   44.0109 H   0  0  0  0  0  0  0  0  0  0  0  0
   58.8383   32.2250   45.5133 H   0  0  0  0  0  0  0  0  0  0  0  0
   57.0304   32.3869   45.5492 H   0  0  0  0  0  0  0  0  0  0  0  0
   57.1404   32.6735   43.0156 H   0  0  0  0  0  0  0  0  0  0  0  0
   58.8685   32.1166   43.1492 H   0  0  0  0  0  0  0  0  0  0  0  0
   56.3689   30.5688   43.2119 H   0  0  0  0  0  0  0  0  0  0  0  0
   58.1048   30.0644   42.9177 H   0  0  0  0  0  0  0  0  0  0  0  0
   58.4158   29.3702   45.0316 H   0  0  0  0  0  0  0  0  0  0  0  0
   57.3813   30.6897   45.7226 H   0  0  0  0  0  0  0  0  0  0  0  0
   58.7491   27.3719   45.6903 H   0  0  0  0  0  0  0  0  0  0  0  0
   58.1757   24.8826   46.5594 H   0  0  0  0  0  0  0  0  0  0  0  0
   54.7490   24.4820   47.4740 H   0  0  0  0  0  0  0  0  0  0  0  0
  1  2  1  0
  2  3  1  0
  3  4  1  0
  4  5  1  0
  5  6  1  0
  6  7  1  0
  7  8  1  0
  8  9  1  0
  9 10  1  0
 10 11  2  0
 10 12  1  0
 12 13  2  0
 13 14  1  0
 14 15  2  0
 15 16  1  0
 15 17  1  0
 17 12  1  0
  1 18  1  0
  1 19  1  0
  1 20  1  0
  2 21  1  0
  2 22  1  0
  3 23  1  0
  3 24  1  0
  4 25  1  0
  4 26  1  0
  5 27  1  0
  5 28  1  0
  6 29  1  0
  6 30  1  0
  7 31  1  0
  7 32  1  0
  8 33  1  0
  8 34  1  0
  9 35  1  0
  9 36  1  0
 13 37  1  0
 14 38  1  0
 16 39  1  0
M  CHG  1  17  -1
M  END
>  <UniqueID>  (58) 
54

>  <SMILES>  (58) 
CCCCCCCCCC(=O)c1ccc(O)[n-]1

>  <Energy>  (58) 
46.498674815659626

>  <Genealogy>  (58) 
CCCCCCCCCC(=O)c1ccc(O)[n-]1 (protonated)
CCCCCCCCCC(=O)c1ccc(O)[n-]1 (3D coordinates assigned)
CCCCCCCCCC(=O)c1ccc(O)[n-]1 (optimized conformer: 46.498674815659626 kcal/mol)

>  <smiles>  (58) 
CCCCCCCCCC(=O)c1ccc(O)[nH]1

>  <score_type>  (58) 
oracle

>  <origin>  (58) 
adg

>  <m_score__min__energy>  (58) 
-9.4100000000000001

>  <m_primary>  (58) 
energy

$$$$
58:0
     RDKit          3D

 40 43  0  0  0  0  0  0  0  0999 V2000
   59.3900   34.7550   45.2410 O   0  0  0  0  0  0  0  0  0  0  0  0
   59.3630   33.6310   46.2390 S   0  0  0  0  0  0  0  0  0  0  0  0
   58.1040   33.7380   47.0530 O   0  0  0  0  0  0  0  0  0  0  0  0
   59.3700   32.1160   45.3960 N   0  0  0  0  0  0  0  0  0  0  0  0
   58.2200   31.2900   45.1630 C   0  0  0  0  0  0  0  0  0  0  0  0
   58.2560   29.8960   45.3500 C   0  0  0  0  0  0  0  0  0  0  0  0
   57.1150   29.1060   45.1290 C   0  0  0  0  0  0  0  0  0  0  0  0
   57.1880   27.6850   45.3610 N   0  0  0  0  0  0  0  0  0  0  0  0
   57.7110   26.7520   44.5230 C   0  0  0  0  0  0  0  0  0  0  0  0
   57.5030   25.5230   45.1000 C   0  0  0  0  0  0  0  0  0  0  0  0
   57.8160   24.2310   44.6850 C   0  0  0  0  0  0  0  0  0  0  0  0
   57.4370   23.1690   45.5280 C   0  0  0  0  0  0  0  0  0  0  0  0
   56.7580   23.4240   46.7430 C   0  0  0  0  0  0  0  0  0  0  0  0
   56.4530   24.7450   47.1240 C   0  0  0  0  0  0  0  0  0  0  0  0
   56.8440   25.7720   46.2700 C   0  0  0  0  0  0  0  0  0  0  0  0
   56.6460   27.0930   46.4230 N   0  0  0  0  0  0  0  0  0  0  0  0
   55.9350   29.7260   44.6690 C   0  0  0  0  0  0  0  0  0  0  0  0
   54.8050   28.9780   44.3580 O   0  0  0  0  0  0  0  0  0  0  0  0
   55.8960   31.1110   44.4890 C   0  0  0  0  0  0  0  0  0  0  0  0
   57.0300   31.8940   44.7360 C   0  0  0  0  0  0  0  0  0  0  0  0
   56.9810   33.2760   44.5530 O   0  0  0  0  0  0  0  0  0  0  0  0
   60.7470   33.7160   47.3240 C   0  0  0  0  0  0  0  0  0  0  0  0
   62.0310   33.4460   46.8310 C   0  0  0  0  0  0  0  0  0  0  0  0
   63.1410   33.5210   47.6800 C   0  0  0  0  0  0  0  0  0  0  0  0
   62.9720   33.8720   49.0240 C   0  0  0  0  0  0  0  0  0  0  0  0
   61.6940   34.1410   49.5200 C   0  0  0  0  0  0  0  0  0  0  0  0
   60.5830   34.0630   48.6750 C   0  0  0  0  0  0  0  0  0  0  0  0
   59.1917   29.4171   45.6742 H   0  0  0  0  0  0  0  0  0  0  0  0
   58.2086   26.9451   43.5611 H   0  0  0  0  0  0  0  0  0  0  0  0
   58.3393   24.0473   43.7350 H   0  0  0  0  0  0  0  0  0  0  0  0
   57.6704   22.1334   45.2400 H   0  0  0  0  0  0  0  0  0  0  0  0
   56.4669   22.5860   47.3933 H   0  0  0  0  0  0  0  0  0  0  0  0
   55.9238   24.9579   48.0645 H   0  0  0  0  0  0  0  0  0  0  0  0
   54.9658   31.5906   44.1501 H   0  0  0  0  0  0  0  0  0  0  0  0
   57.6980   33.8860   44.9260 H   0  0  0  0  0  0  0  0  0  0  0  0
   62.1666   33.1744   45.7737 H   0  0  0  0  0  0  0  0  0  0  0  0
   64.1466   33.3040   47.2907 H   0  0  0  0  0  0  0  0  0  0  0  0
   63.8453   33.9361   49.6898 H   0  0  0  0  0  0  0  0  0  0  0  0
   61.5617   34.4146   50.5772 H   0  0  0  0  0  0  0  0  0  0  0  0
   59.5780   34.2739   49.0692 H   0  0  0  0  0  0  0  0  0  0  0  0
  1  2  2  0
  2  3  2  0
  2  4  1  0
  4  5  1  0
  5  6  2  0
  6  7  1  0
  7  8  1  0
  8  9  1  0
  9 10  2  0
 10 11  1  0
 11 12  2  0
 12 13  1  0
 13 14  2  0
 14 15  1  0
 15 16  2  0
  7 17  2  0
 17 18  1  0
 17 19  1  0
 19 20  2  0
 20 21  1  0
  2 22  1  0
 22 23  2  0
 23 24  1  0
 24 25  2  0
 25 26  1  0
 26 27  2  0
 20  5  1  0
 27 22  1  0
 16  8  1  0
 15 10  1  0
  6 28  1  0
  9 29  1  0
 11 30  1  0
 12 31  1  0
 13 32  1  0
 14 33  1  0
 19 34  1  0
 21 35  1  0
 23 36  1  0
 24 37  1  0
 25 38  1  0
 26 39  1  0
 27 40  1  0
M  CHG  2   4  -1  18  -1
M  END
>  <UniqueID>  (59) 
55

>  <SMILES>  (59) 
O=S(=O)([N-]c1cc(-n2cc3ccccc3n2)c([O-])cc1O)c1ccccc1

>  <Energy>  (59) 
90.60643467614386

>  <Genealogy>  (59) 
O=S(=O)([N-]c1cc(-n2cc3ccccc3n2)c([O-])cc1O)c1ccccc1 (protonated)
O=S(=O)([N-]c1cc(-n2cc3ccccc3n2)c([O-])cc1O)c1ccccc1 (3D coordinates assigned)
O=S(=O)([N-]c1cc(-n2cc3ccccc3n2)c([O-])cc1O)c1ccccc1 (optimized conformer: 90.60643467614386 kcal/mol)

>  <smiles>  (59) 
O=S(=O)(Nc1cc(-n2cc3ccccc3n2)c(O)cc1O)c1ccccc1

>  <score_type>  (59) 
oracle

>  <origin>  (59) 
adg

>  <m_score__min__energy>  (59) 
-11.550000000000001

>  <m_primary>  (59) 
energy

$$$$
59:0
     RDKit          3D

 42 45  0  0  0  0  0  0  0  0999 V2000
   57.6330   31.7370   42.5680 O   0  0  0  0  0  0  0  0  0  0  0  0
   57.7610   32.0960   43.7690 C   0  0  0  0  0  0  0  0  0  0  0  0
   57.5340   31.1140   44.8410 C   0  0  0  0  0  0  0  0  0  0  0  0
   58.1860   29.9400   44.9760 C   0  0  0  0  0  0  0  0  0  0  0  0
   59.5930   29.9320   44.8150 C   0  0  0  0  0  0  0  0  0  0  0  0
   60.3540   28.7800   45.0910 C   0  0  0  0  0  0  0  0  0  0  0  0
   59.7290   27.5950   45.4960 C   0  0  0  0  0  0  0  0  0  0  0  0
   58.3350   27.5780   45.5740 C   0  0  0  0  0  0  0  0  0  0  0  0
   57.4620   26.5240   45.7970 C   0  0  0  0  0  0  0  0  0  0  0  0
   57.8060   25.2650   46.1150 C   0  0  0  0  0  0  0  0  0  0  0  0
   56.9380   24.3480   46.8810 C   0  0  0  0  0  0  0  0  0  0  0  0
   57.3520   23.4930   47.8350 N   0  0  0  0  0  0  0  0  0  0  0  0
   56.2130   22.8850   48.2290 C   0  0  0  0  0  0  0  0  0  0  0  0
   56.1910   22.0020   49.1250 O   0  0  0  0  0  0  0  0  0  0  0  0
   55.1000   23.2970   47.5870 N   0  0  0  0  0  0  0  0  0  0  0  0
   55.5760   24.2230   46.7380 C   0  0  0  0  0  0  0  0  0  0  0  0
   54.7850   24.9420   45.8480 O   0  0  0  0  0  0  0  0  0  0  0  0
   56.1880   26.9360   45.6110 N   0  0  0  0  0  0  0  0  0  0  0  0
   56.2620   28.2430   45.2820 C   0  0  0  0  0  0  0  0  0  0  0  0
   55.1480   28.9650   44.8790 O   0  0  0  0  0  0  0  0  0  0  0  0
   57.5770   28.6980   45.2990 C   0  0  0  0  0  0  0  0  0  0  0  0
   58.2250   33.4140   44.0850 N   0  0  0  0  0  0  0  0  0  0  0  0
   57.6790   34.2260   45.1660 C   0  0  0  0  0  0  0  0  0  0  0  0
   58.4450   33.9850   46.4380 C   0  0  0  0  0  0  0  0  0  0  0  0
   59.5600   34.7820   46.7480 C   0  0  0  0  0  0  0  0  0  0  0  0
   60.2640   34.5750   47.9380 C   0  0  0  0  0  0  0  0  0  0  0  0
   59.8580   33.5760   48.8270 C   0  0  0  0  0  0  0  0  0  0  0  0
   58.7480   32.7830   48.5280 C   0  0  0  0  0  0  0  0  0  0  0  0
   58.0400   32.9850   47.3390 C   0  0  0  0  0  0  0  0  0  0  0  0
   56.7701   31.3567   45.5943 H   0  0  0  0  0  0  0  0  0  0  0  0
   60.1012   30.8436   44.4675 H   0  0  0  0  0  0  0  0  0  0  0  0
   61.4487   28.8116   44.9875 H   0  0  0  0  0  0  0  0  0  0  0  0
   60.3198   26.7015   45.7460 H   0  0  0  0  0  0  0  0  0  0  0  0
   58.7890   24.8965   45.7865 H   0  0  0  0  0  0  0  0  0  0  0  0
   55.1830   25.6890   45.2910 H   0  0  0  0  0  0  0  0  0  0  0  0
   57.7526   35.2893   44.8940 H   0  0  0  0  0  0  0  0  0  0  0  0
   56.6261   33.9496   45.3245 H   0  0  0  0  0  0  0  0  0  0  0  0
   59.8800   35.5714   46.0520 H   0  0  0  0  0  0  0  0  0  0  0  0
   61.1383   35.1991   48.1748 H   0  0  0  0  0  0  0  0  0  0  0  0
   60.4131   33.4142   49.7628 H   0  0  0  0  0  0  0  0  0  0  0  0
   58.4298   31.9976   49.2294 H   0  0  0  0  0  0  0  0  0  0  0  0
   57.1645   32.3602   47.1084 H   0  0  0  0  0  0  0  0  0  0  0  0
  1  2  2  0
  2  3  1  0
  3  4  2  3
  4  5  1  0
  5  6  2  0
  6  7  1  0
  7  8  2  0
  8  9  1  0
  9 10  2  3
 10 11  1  0
 11 12  1  0
 12 13  1  0
 13 14  2  0
 13 15  1  0
 15 16  1  0
 16 17  1  0
  9 18  1  0
 18 19  1  0
 19 20  1  0
 19 21  2  0
  2 22  1  0
 22 23  1  0
 23 24  1  0
 24 25  2  0
 25 26  1  0
 26 27  2  0
 27 28  1  0
 28 29  2  0
 21  4  1  0
 29 24  1  0
 21  8  1  0
 16 11  2  0
  3 30  1  0
  5 31  1  0
  6 32  1  0
  7 33  1  0
 10 34  1  0
 17 35  1  0
 23 36  1  0
 23 37  1  0
 25 38  1  0
 26 39  1  0
 27 40  1  0
 28 41  1  0
 29 42  1  0
M  CHG  5  12  -1  15  -1  18  -1  20  -1  22  -1
M  END
>  <UniqueID>  (60) 
56

>  <SMILES>  (60) 
O=C(C=c1cccc2c(=Cc3[n-]c(=O)[n-]c3O)[n-]c([O-])c12)[N-]Cc1ccccc1

>  <Energy>  (60) 
124.12865696695208

>  <Genealogy>  (60) 
O=C(C=c1cccc2c(=Cc3[n-]c(=O)[n-]c3O)[n-]c([O-])c12)[N-]Cc1ccccc1 (protonated)
O=C(C=c1cccc2c(=Cc3[n-]c(=O)[n-]c3O)[n-]c([O-])c12)[N-]Cc1ccccc1 (3D coordinates assigned)
O=C(C=c1cccc2c(=Cc3[n-]c(=O)[n-]c3O)[n-]c([O-])c12)[N-]Cc1ccccc1 (optimized conformer: 124.12865696695208 kcal/mol)

>  <smiles>  (60) 
O=C(C=c1cccc2c(=Cc3[nH]c(=O)[nH]c3O)[nH]c(O)c12)NCc1ccccc1

>  <score_type>  (60) 
oracle

>  <origin>  (60) 
adg

>  <m_score__min__energy>  (60) 
-18.300000000000001

>  <m_primary>  (60) 
energy

$$$$
60:0
     RDKit          3D

 35 37  0  0  0  0  0  0  0  0999 V2000
   54.7860   29.9630   43.4900 O   0  0  0  0  0  0  0  0  0  0  0  0
   55.8990   29.7300   44.0310 C   0  0  0  0  0  0  0  0  0  0  0  0
   57.1570   30.2260   43.3720 C   0  0  0  0  0  0  0  0  0  0  0  0
   57.7160   31.3520   44.1230 N   0  0  0  0  0  0  0  0  0  0  0  0
   58.1600   32.5160   43.6000 C   0  0  0  0  0  0  0  0  0  0  0  0
   58.1890   32.8010   42.2390 O   0  0  0  0  0  0  0  0  0  0  0  0
   58.5630   33.3740   44.6020 C   0  0  0  0  0  0  0  0  0  0  0  0
   58.3440   32.7200   45.7870 C   0  0  0  0  0  0  0  0  0  0  0  0
   57.8140   31.4860   45.4680 C   0  0  0  0  0  0  0  0  0  0  0  0
   57.4180   30.5280   46.4010 O   0  0  0  0  0  0  0  0  0  0  0  0
   58.6010   33.3180   47.1330 C   0  0  0  0  0  0  0  0  0  0  0  0
   59.2320   34.6910   47.0260 C   0  0  0  0  0  0  0  0  0  0  0  0
   59.4490   35.3350   45.8570 C   0  0  0  0  0  0  0  0  0  0  0  0
   59.0890   34.7690   44.4970 C   0  0  0  0  0  0  0  0  0  0  0  0
   55.9310   28.9580   45.2380 N   0  0  0  0  0  0  0  0  0  0  0  0
   56.7640   27.8200   45.5030 C   0  0  0  0  0  0  0  0  0  0  0  0
   58.1650   27.9040   45.4200 C   0  0  0  0  0  0  0  0  0  0  0  0
   58.9560   26.7890   45.7130 C   0  0  0  0  0  0  0  0  0  0  0  0
   58.3570   25.5890   46.1060 C   0  0  0  0  0  0  0  0  0  0  0  0
   56.9670   25.5060   46.2180 C   0  0  0  0  0  0  0  0  0  0  0  0
   56.1700   26.6190   45.9250 C   0  0  0  0  0  0  0  0  0  0  0  0
   54.7890   26.5270   46.0470 O   0  0  0  0  0  0  0  0  0  0  0  0
   57.8946   29.4106   43.3386 H   0  0  0  0  0  0  0  0  0  0  0  0
   56.9177   30.5607   42.3519 H   0  0  0  0  0  0  0  0  0  0  0  0
   56.5210   30.0650   46.3450 H   0  0  0  0  0  0  0  0  0  0  0  0
   57.6462   33.4057   47.6721 H   0  0  0  0  0  0  0  0  0  0  0  0
   59.2996   32.6611   47.6719 H   0  0  0  0  0  0  0  0  0  0  0  0
   59.5321   35.1951   47.9565 H   0  0  0  0  0  0  0  0  0  0  0  0
   59.9153   36.3306   45.8949 H   0  0  0  0  0  0  0  0  0  0  0  0
   58.3195   35.4068   44.0375 H   0  0  0  0  0  0  0  0  0  0  0  0
   60.0006   34.7470   43.8818 H   0  0  0  0  0  0  0  0  0  0  0  0
   58.6406   28.8505   45.1234 H   0  0  0  0  0  0  0  0  0  0  0  0
   60.0511   26.8563   45.6341 H   0  0  0  0  0  0  0  0  0  0  0  0
   58.9801   24.7099   46.3271 H   0  0  0  0  0  0  0  0  0  0  0  0
   56.4976   24.5638   46.5372 H   0  0  0  0  0  0  0  0  0  0  0  0
  1  2  2  0
  2  3  1  0
  3  4  1  0
  4  5  1  0
  5  6  1  0
  5  7  2  0
  7  8  1  0
  8  9  2  0
  9 10  1  0
  8 11  1  0
 11 12  1  0
 12 13  2  0
 13 14  1  0
  2 15  1  0
 15 16  1  0
 16 17  2  0
 17 18  1  0
 18 19  2  0
 19 20  1  0
 20 21  2  0
 21 22  1  0
  9  4  1  0
 21 16  1  0
 14  7  1  0
  3 23  1  0
  3 24  1  0
 10 25  1  0
 11 26  1  0
 11 27  1  0
 12 28  1  0
 13 29  1  0
 14 30  1  0
 14 31  1  0
 17 32  1  0
 18 33  1  0
 19 34  1  0
 20 35  1  0
M  CHG  3   6  -1  15  -1  22  -1
M  END
>  <UniqueID>  (61) 
57

>  <SMILES>  (61) 
O=C(Cn1c([O-])c2c(c1O)CC=CC2)[N-]c1ccccc1[O-]

>  <Energy>  (61) 
73.28350961244493

>  <Genealogy>  (61) 
O=C(Cn1c([O-])c2c(c1O)CC=CC2)[N-]c1ccccc1[O-] (protonated)
O=C(Cn1c([O-])c2c(c1O)CC=CC2)[N-]c1ccccc1[O-] (3D coordinates assigned)
O=C(Cn1c([O-])c2c(c1O)CC=CC2)[N-]c1ccccc1[O-] (nonaromatic ring conformer: 73.28350961244493 kcal/mol)

>  <smiles>  (61) 
O=C(Cn1c(O)c2c(c1O)CC=CC2)Nc1ccccc1O

>  <score_type>  (61) 
oracle

>  <origin>  (61) 
adg

>  <m_score__min__energy>  (61) 
-14.470000000000001

>  <m_primary>  (61) 
energy

$$$$
61:0
     RDKit          3D

 48 49  0  0  0  0  0  0  0  0999 V2000
   55.6880   23.2000   43.4730 H   0  0  0  0  0  0  0  0  0  0  0  0
   55.8140   22.3550   42.9700 O   0  0  0  0  0  0  0  0  0  0  0  0
   57.0860   21.8730   43.3120 C   0  0  0  0  0  0  0  0  0  0  0  0
   57.8194   22.2397   42.5787 H   0  0  0  0  0  0  0  0  0  0  0  0
   57.0578   20.7734   43.3097 H   0  0  0  0  0  0  0  0  0  0  0  0
   57.4940   22.3510   44.7140 C   0  0  2  0  0  0  0  0  0  0  0  0
   57.2217   21.5600   45.4283 H   0  0  0  0  0  0  0  0  0  0  0  0
   56.8190   23.5530   45.0070 O   0  0  0  0  0  0  0  0  0  0  0  0
   57.6970   24.3260   45.7930 C   0  0  2  0  0  0  0  0  0  0  0  0
   57.5501   24.0892   46.8571 H   0  0  0  0  0  0  0  0  0  0  0  0
   57.4210   25.7690   45.6280 N   0  0  0  0  0  0  0  0  0  0  0  0
   58.4440   26.5930   45.2480 C   0  0  0  0  0  0  0  0  0  0  0  0
   59.4517   26.1745   45.1087 H   0  0  0  0  0  0  0  0  0  0  0  0
   58.2310   27.9610   45.0330 C   0  0  0  0  0  0  0  0  0  0  0  0
   59.3800   28.8040   44.6240 C   0  0  0  0  0  0  0  0  0  0  0  0
   59.4917   29.0594   43.5599 H   0  0  0  0  0  0  0  0  0  0  0  0
   60.2890   29.2690   45.4930 C   0  0  0  0  0  0  0  0  0  0  0  0
   61.2216   28.6997   45.6203 H   0  0  0  0  0  0  0  0  0  0  0  0
   60.1120   30.5040   46.2920 C   0  0  0  0  0  0  0  0  0  0  0  0
   61.0990   30.9090   46.9620 O   0  0  0  0  0  0  0  0  0  0  0  0
   58.8630   31.2480   46.3100 N   0  0  0  0  0  0  0  0  0  0  0  0
   58.0860   30.5530   46.2210 H   0  0  0  0  0  0  0  0  0  0  0  0
   58.7980   32.1540   45.1370 C   0  0  0  0  0  0  0  0  0  0  0  0
   59.0099   31.5717   44.2281 H   0  0  0  0  0  0  0  0  0  0  0  0
   59.5413   32.9511   45.2858 H   0  0  0  0  0  0  0  0  0  0  0  0
   57.4240   32.8160   44.9890 C   0  0  0  0  0  0  0  0  0  0  0  0
   57.0050   33.0179   45.9858 H   0  0  0  0  0  0  0  0  0  0  0  0
   57.5302   33.7618   44.4375 H   0  0  0  0  0  0  0  0  0  0  0  0
   56.7505   32.1435   44.4375 H   0  0  0  0  0  0  0  0  0  0  0  0
   58.6280   31.9080   47.6250 C   0  0  0  0  0  0  0  0  0  0  0  0
   57.5413   31.9657   47.7854 H   0  0  0  0  0  0  0  0  0  0  0  0
   59.1550   31.2928   48.3692 H   0  0  0  0  0  0  0  0  0  0  0  0
   59.2040   33.3280   47.7680 C   0  0  0  0  0  0  0  0  0  0  0  0
   59.3050   33.5770   48.8347 H   0  0  0  0  0  0  0  0  0  0  0  0
   60.1916   33.3734   47.2858 H   0  0  0  0  0  0  0  0  0  0  0  0
   58.5271   34.0486   47.2858 H   0  0  0  0  0  0  0  0  0  0  0  0
   56.9390   28.4630   45.2620 C   0  0  0  0  0  0  0  0  0  0  0  0
   56.6900   29.6950   45.1690 O   0  0  0  0  0  0  0  0  0  0  0  0
   55.9410   27.6160   45.6150 N   0  0  0  0  0  0  0  0  0  0  0  0
   56.1590   26.2870   45.7830 C   0  0  0  0  0  0  0  0  0  0  0  0
   55.1860   25.5430   46.0810 O   0  0  0  0  0  0  0  0  0  0  0  0
   59.1250   23.9920   45.3890 C   0  0  0  0  0  0  0  0  0  0  0  0
   59.4927   24.6934   44.6256 H   0  0  0  0  0  0  0  0  0  0  0  0
   59.8365   24.0635   46.2248 H   0  0  0  0  0  0  0  0  0  0  0  0
   59.0100   22.5920   44.8280 C   0  0  1  0  0  0  0  0  0  0  0  0
   59.5229   22.4901   43.8602 H   0  0  0  0  0  0  0  0  0  0  0  0
   59.6240   21.6420   45.6650 O   0  0  0  0  0  0  0  0  0  0  0  0
   59.4390   20.7390   45.2940 H   0  0  0  0  0  0  0  0  0  0  0  0
  1  2  1  0
  2  3  1  0
  3  4  1  0
  3  5  1  0
  3  6  1  0
  6  7  1  1
  6  8  1  0
  8  9  1  0
  9 10  1  1
  9 11  1  0
 11 12  1  0
 12 13  1  0
 12 14  2  0
 14 15  1  0
 15 16  1  0
 15 17  2  0
 17 18  1  0
 17 19  1  0
 19 20  2  0
 19 21  1  0
 21 22  1  0
 21 23  1  0
 23 24  1  0
 23 25  1  0
 23 26  1  0
 26 27  1  0
 26 28  1  0
 26 29  1  0
 21 30  1  0
 30 31  1  0
 30 32  1  0
 30 33  1  0
 33 34  1  0
 33 35  1  0
 33 36  1  0
 14 37  1  0
 37 38  2  0
 37 39  1  0
 39 40  1  0
 40 41  2  0
  9 42  1  0
 42 43  1  0
 42 44  1  0
 42 45  1  0
 45 46  1  6
 45 47  1  0
 47 48  1  0
 45  6  1  0
 40 11  1  0
M  CHG  2  21   1  39  -1
M  END
>  <UniqueID>  (62) 
58

>  <SMILES>  (62) 
CC[NH+](CC)C(=O)/C=C/c1cn([C@@H]2C[C@@H](O)C(CO)O2)c(=O)[n-]c1=O

>  <Energy>  (62) 
62.16097741718428

>  <Genealogy>  (62) 
CC[NH+](CC)C(=O)C=Cc1cn(C2CC(O)C(CO)O2)c(=O)[n-]c1=O (protonated)
CC[NH+](CC)C(=O)C=Cc1cn([C@@H]2C[C@@H](O)C(CO)O2)c(=O)[n-]c1=O (chirality)
CC[NH+](CC)C(=O)/C=C/c1cn([C@@H]2C[C@@H](O)C(CO)O2)c(=O)[n-]c1=O (cis-trans isomerization)
CC[NH+](CC)C(=O)/C=C/c1cn([C@@H]2C[C@@H](O)C(CO)O2)c(=O)[n-]c1=O (3D coordinates assigned)
CC[NH+](CC)C(=O)/C=C/c1cn([C@@H]2C[C@@H](O)C(CO)O2)c(=O)[n-]c1=O (nonaromatic ring conformer: 62.16097741718428 kcal/mol)

>  <smiles>  (62) 
CCN(CC)C(=O)C=Cc1cn(C2CC(O)C(CO)O2)c(=O)[nH]c1=O

>  <score_type>  (62) 
oracle

>  <origin>  (62) 
adg

>  <m_score__min__energy>  (62) 
-7.9699999999999998

>  <m_primary>  (62) 
energy

$$$$
62:0
     RDKit          3D

 55 58  0  0  0  0  0  0  0  0999 V2000
   57.7020   32.6010   42.4780 O   0  0  0  0  0  0  0  0  0  0  0  0
   57.5290   31.6110   43.2400 C   0  0  0  0  0  0  0  0  0  0  0  0
   56.7340   30.4440   42.7370 C   0  0  0  0  0  0  0  0  0  0  0  0
   56.8050   29.3590   43.7080 N   0  0  0  0  0  0  0  0  0  0  0  0
   57.5790   28.2620   43.6260 C   0  0  0  0  0  0  0  0  0  0  0  0
   57.4570   27.6230   44.8400 C   0  0  0  0  0  0  0  0  0  0  0  0
   58.1570   26.3700   45.2690 C   0  0  0  0  0  0  0  0  0  0  0  0
   59.4700   26.6620   45.7610 O   0  0  0  0  0  0  0  0  0  0  0  0
   59.8550   27.8580   46.3940 C   0  0  0  0  0  0  0  0  0  0  0  0
   60.4380   28.9350   45.6960 C   0  0  0  0  0  0  0  0  0  0  0  0
   60.7880   30.1060   46.3770 C   0  0  0  0  0  0  0  0  0  0  0  0
   60.5580   30.2160   47.7520 C   0  0  0  0  0  0  0  0  0  0  0  0
   59.9870   29.1510   48.4520 C   0  0  0  0  0  0  0  0  0  0  0  0
   59.6410   27.9750   47.7750 C   0  0  0  0  0  0  0  0  0  0  0  0
   56.6100   28.3300   45.6160 N   0  0  0  0  0  0  0  0  0  0  0  0
   56.2390   29.3880   44.9060 N   0  0  0  0  0  0  0  0  0  0  0  0
   57.9420   31.6560   44.6190 N   0  0  0  0  0  0  0  0  0  0  0  0
   58.5170   32.8120   45.2560 C   0  0  0  0  0  0  0  0  0  0  0  0
   58.6520   34.0030   44.5250 C   0  0  0  0  0  0  0  0  0  0  0  0
   59.2320   35.1330   45.1090 C   0  0  0  0  0  0  0  0  0  0  0  0
   59.6880   35.0820   46.4290 C   0  0  0  0  0  0  0  0  0  0  0  0
   59.5400   33.9060   47.1800 C   0  0  0  0  0  0  0  0  0  0  0  0
   60.1550   33.8210   48.8340 S   0  0  0  0  0  0  0  0  0  0  0  0
   59.5930   34.9630   49.6340 O   0  0  0  0  0  0  0  0  0  0  0  0
   59.6950   32.5370   49.4690 O   0  0  0  0  0  0  0  0  0  0  0  0
   61.9030   33.8910   48.8680 N   0  0  0  0  0  0  0  0  0  0  0  0
   62.4550   33.5440   47.5420 C   0  0  0  0  0  0  0  0  0  0  0  0
   63.9220   33.0960   47.6640 C   0  0  0  0  0  0  0  0  0  0  0  0
   64.1180   31.9580   48.5000 O   0  0  0  0  0  0  0  0  0  0  0  0
   63.0770   31.7530   49.4450 C   0  0  0  0  0  0  0  0  0  0  0  0
   62.4660   33.0690   49.9650 C   0  0  0  0  0  0  0  0  0  0  0  0
   58.9250   32.7860   46.6030 C   0  0  0  0  0  0  0  0  0  0  0  0
   55.6852   30.7458   42.5991 H   0  0  0  0  0  0  0  0  0  0  0  0
   57.1451   30.1051   41.7747 H   0  0  0  0  0  0  0  0  0  0  0  0
   58.1850   27.9411   42.7659 H   0  0  0  0  0  0  0  0  0  0  0  0
   57.5731   25.8858   46.0656 H   0  0  0  0  0  0  0  0  0  0  0  0
   58.2475   25.7022   44.3996 H   0  0  0  0  0  0  0  0  0  0  0  0
   60.6181   28.8546   44.6138 H   0  0  0  0  0  0  0  0  0  0  0  0
   61.2456   30.9429   45.8291 H   0  0  0  0  0  0  0  0  0  0  0  0
   60.8269   31.1415   48.2822 H   0  0  0  0  0  0  0  0  0  0  0  0
   59.8092   29.2358   49.5342 H   0  0  0  0  0  0  0  0  0  0  0  0
   59.1976   27.1359   48.3312 H   0  0  0  0  0  0  0  0  0  0  0  0
   57.6540   30.8610   45.2350 H   0  0  0  0  0  0  0  0  0  0  0  0
   58.2985   34.0474   43.4843 H   0  0  0  0  0  0  0  0  0  0  0  0
   59.3295   36.0627   44.5292 H   0  0  0  0  0  0  0  0  0  0  0  0
   60.1638   35.9653   46.8801 H   0  0  0  0  0  0  0  0  0  0  0  0
   61.8625   32.7256   47.1071 H   0  0  0  0  0  0  0  0  0  0  0  0
   62.4093   34.4332   46.8961 H   0  0  0  0  0  0  0  0  0  0  0  0
   64.2932   32.8527   46.6575 H   0  0  0  0  0  0  0  0  0  0  0  0
   64.4690   33.9287   48.1303 H   0  0  0  0  0  0  0  0  0  0  0  0
   62.2816   31.1622   48.9672 H   0  0  0  0  0  0  0  0  0  0  0  0
   63.5152   31.2307   50.3082 H   0  0  0  0  0  0  0  0  0  0  0  0
   61.6631   32.8305   50.6781 H   0  0  0  0  0  0  0  0  0  0  0  0
   63.2671   33.6485   50.4472 H   0  0  0  0  0  0  0  0  0  0  0  0
   58.7603   31.8813   47.2066 H   0  0  0  0  0  0  0  0  0  0  0  0
  1  2  2  0
  2  3  1  0
  3  4  1  0
  4  5  1  0
  5  6  2  0
  6  7  1  0
  7  8  1  0
  8  9  1  0
  9 10  2  0
 10 11  1  0
 11 12  2  0
 12 13  1  0
 13 14  2  0
  6 15  1  0
 15 16  2  0
  2 17  1  0
 17 18  1  0
 18 19  2  0
 19 20  1  0
 20 21  2  0
 21 22  1  0
 22 23  1  0
 23 24  2  0
 23 25  2  0
 23 26  1  0
 26 27  1  0
 27 28  1  0
 28 29  1  0
 29 30  1  0
 30 31  1  0
 22 32  2  0
 16  4  1  0
 32 18  1  0
 14  9  1  0
 31 26  1  0
  3 33  1  0
  3 34  1  0
  5 35  1  0
  7 36  1  0
  7 37  1  0
 10 38  1  0
 11 39  1  0
 12 40  1  0
 13 41  1  0
 14 42  1  0
 17 43  1  0
 19 44  1  0
 20 45  1  0
 21 46  1  0
 27 47  1  0
 27 48  1  0
 28 49  1  0
 28 50  1  0
 30 51  1  0
 30 52  1  0
 31 53  1  0
 31 54  1  0
 32 55  1  0
M  END
>  <UniqueID>  (63) 
59

>  <SMILES>  (63) 
O=C(Cn1cc(COc2ccccc2)nn1)Nc1cccc(S(=O)(=O)N2CCOCC2)c1

>  <Energy>  (63) 
102.51762544574335

>  <Genealogy>  (63) 
O=C(Cn1cc(COc2ccccc2)nn1)Nc1cccc(S(=O)(=O)N2CCOCC2)c1 (3D coordinates assigned)
O=C(Cn1cc(COc2ccccc2)nn1)Nc1cccc(S(=O)(=O)N2CCOCC2)c1 (nonaromatic ring conformer: 102.51762544574335 kcal/mol)

>  <smiles>  (63) 
O=C(Cn1cc(COc2ccccc2)nn1)Nc1cccc(S(=O)(=O)N2CCOCC2)c1

>  <score_type>  (63) 
oracle

>  <origin>  (63) 
adg

>  <m_score__min__energy>  (63) 
-10.52

>  <m_primary>  (63) 
energy

$$$$
63:0
     RDKit          3D

 76 81  0  0  0  0  0  0  0  0999 V2000
   59.7980   30.7540   46.0550 H   0  0  0  0  0  0  0  0  0  0  0  0
   60.4800   30.0920   46.3530 O   0  0  0  0  0  0  0  0  0  0  0  0
   59.8050   28.8860   46.6100 C   0  0  1  0  0  0  0  0  0  0  0  0
   60.5172   28.0616   46.7618 H   0  0  0  0  0  0  0  0  0  0  0  0
   59.0000   29.0080   47.9120 C   0  0  0  0  0  0  0  0  0  0  0  0
   59.6772   28.9054   48.7728 H   0  0  0  0  0  0  0  0  0  0  0  0
   58.5077   29.9910   47.9479 H   0  0  0  0  0  0  0  0  0  0  0  0
   58.2385   28.2150   47.9479 H   0  0  0  0  0  0  0  0  0  0  0  0
   58.9380   28.5160   45.3800 C   0  0  2  0  0  0  0  0  0  0  0  0
   59.6532   28.5559   44.5452 H   0  0  0  0  0  0  0  0  0  0  0  0
   57.8200   29.4380   45.1620 N   0  0  0  0  0  0  0  0  0  0  0  0
   57.9230   30.7990   44.7160 C   0  0  0  0  0  0  0  0  0  0  0  0
   58.2200   31.7800   45.6080 N   0  0  0  0  0  0  0  0  0  0  0  0
   58.2540   33.0910   45.2430 C   0  0  0  0  0  0  0  0  0  0  0  0
   58.4620   34.0260   46.1250 N   0  0  0  0  0  0  0  0  0  0  0  0
   59.5700   34.0590   47.0360 C   0  0  0  0  0  0  0  0  0  0  0  0
   59.9410   35.1470   47.5570 O   0  0  0  0  0  0  0  0  0  0  0  0
   60.2660   32.8470   47.3490 N   0  0  0  0  0  0  0  0  0  0  0  0
   59.7800   31.9320   47.2110 H   0  0  0  0  0  0  0  0  0  0  0  0
   61.5640   32.8680   47.9630 C   0  0  0  0  0  0  0  0  0  0  0  0
   62.5230   33.7610   47.4740 C   0  0  0  0  0  0  0  0  0  0  0  0
   62.2391   34.5036   46.7138 H   0  0  0  0  0  0  0  0  0  0  0  0
   63.8360   33.7180   47.9420 C   0  0  0  0  0  0  0  0  0  0  0  0
   64.5779   34.4298   47.5509 H   0  0  0  0  0  0  0  0  0  0  0  0
   64.2170   32.7790   48.9030 C   0  0  0  0  0  0  0  0  0  0  0  0
   65.5680   32.7010   49.2590 O   0  0  0  0  0  0  0  0  0  0  0  0
   66.0490   33.1920   50.4780 C   0  0  0  0  0  0  0  0  0  0  0  0
   65.2210   33.3150   51.5520 N   0  0  0  0  0  0  0  0  0  0  0  0
   65.6690   33.8060   52.7370 C   0  0  0  0  0  0  0  0  0  0  0  0
   64.8460   33.8790   53.7430 N   0  0  0  0  0  0  0  0  0  0  0  0
   63.5490   33.2700   53.8320 C   0  0  0  0  0  0  0  0  0  0  0  0
   63.3660   32.2020   54.7200 C   0  0  0  0  0  0  0  0  0  0  0  0
   64.2019   31.8678   55.3522 H   0  0  0  0  0  0  0  0  0  0  0  0
   62.1300   31.5590   54.8080 C   0  0  0  0  0  0  0  0  0  0  0  0
   61.9902   30.7318   55.5194 H   0  0  0  0  0  0  0  0  0  0  0  0
   61.0690   31.9660   53.9920 C   0  0  0  0  0  0  0  0  0  0  0  0
   60.0957   31.4589   54.0659 H   0  0  0  0  0  0  0  0  0  0  0  0
   61.2410   33.0190   53.0790 C   0  0  0  0  0  0  0  0  0  0  0  0
   60.1200   33.4140   52.1610 C   0  0  0  0  0  0  0  0  0  0  0  0
   60.4332   34.2801   51.5596 H   0  0  0  0  0  0  0  0  0  0  0  0
   59.8808   32.5631   51.5062 H   0  0  0  0  0  0  0  0  0  0  0  0
   58.6650   33.8460   53.0980 S   0  0  0  0  0  0  0  0  0  0  0  0
   57.7700   34.7270   52.2710 O   0  0  0  0  0  0  0  0  0  0  0  0
   57.9180   32.6010   53.4890 O   0  0  0  0  0  0  0  0  0  0  0  0
   59.1540   34.7240   54.5650 C   0  0  0  0  0  0  0  0  0  0  0  0
   58.8385   34.1576   55.4536 H   0  0  0  0  0  0  0  0  0  0  0  0
   60.2476   34.8418   54.5744 H   0  0  0  0  0  0  0  0  0  0  0  0
   58.6783   35.7158   54.5744 H   0  0  0  0  0  0  0  0  0  0  0  0
   62.4890   33.6590   52.9910 C   0  0  0  0  0  0  0  0  0  0  0  0
   62.6385   34.4683   52.2611 H   0  0  0  0  0  0  0  0  0  0  0  0
   66.9760   34.1670   52.8620 N   0  0  0  0  0  0  0  0  0  0  0  0
   67.8390   34.0540   51.8190 C   0  0  0  0  0  0  0  0  0  0  0  0
   68.8905   34.3537   51.9396 H   0  0  0  0  0  0  0  0  0  0  0  0
   67.3910   33.5580   50.5960 C   0  0  0  0  0  0  0  0  0  0  0  0
   68.0789   33.4573   49.7435 H   0  0  0  0  0  0  0  0  0  0  0  0
   63.2470   31.9300   49.4810 C   0  0  0  0  0  0  0  0  0  0  0  0
   63.5780   31.0560   50.5370 C   0  0  0  0  0  0  0  0  0  0  0  0
   64.6107   31.0219   50.9142 H   0  0  0  0  0  0  0  0  0  0  0  0
   62.6050   30.2340   51.1070 C   0  0  0  0  0  0  0  0  0  0  0  0
   62.8777   29.5441   51.9192 H   0  0  0  0  0  0  0  0  0  0  0  0
   61.2890   30.2840   50.6510 C   0  0  0  0  0  0  0  0  0  0  0  0
   60.5265   29.6342   51.1052 H   0  0  0  0  0  0  0  0  0  0  0  0
   60.9360   31.1540   49.6220 C   0  0  0  0  0  0  0  0  0  0  0  0
   59.8907   31.1997   49.2824 H   0  0  0  0  0  0  0  0  0  0  0  0
   61.9050   31.9770   49.0110 C   0  0  0  0  0  0  0  0  0  0  0  0
   57.9920   33.4340   43.9560 N   0  0  0  0  0  0  0  0  0  0  0  0
   57.7010   32.4890   43.0240 C   0  0  0  0  0  0  0  0  0  0  0  0
   57.5047   32.7858   41.9831 H   0  0  0  0  0  0  0  0  0  0  0  0
   57.6510   31.1430   43.3860 C   0  0  0  0  0  0  0  0  0  0  0  0
   57.4036   30.3695   42.6440 H   0  0  0  0  0  0  0  0  0  0  0  0
   56.6480   28.6460   45.0810 C   0  0  0  0  0  0  0  0  0  0  0  0
   55.5000   29.1120   44.8630 O   0  0  0  0  0  0  0  0  0  0  0  0
   56.8920   27.3090   45.2850 O   0  0  0  0  0  0  0  0  0  0  0  0
   58.2800   27.1070   45.5120 C   0  0  0  0  0  0  0  0  0  0  0  0
   58.6952   26.4179   44.7619 H   0  0  0  0  0  0  0  0  0  0  0  0
   58.4696   26.6609   46.4994 H   0  0  0  0  0  0  0  0  0  0  0  0
  1  2  1  0
  2  3  1  0
  3  4  1  1
  3  5  1  0
  5  6  1  0
  5  7  1  0
  5  8  1  0
  3  9  1  0
  9 10  1  6
  9 11  1  0
 11 12  1  0
 12 13  2  0
 13 14  1  0
 14 15  2  3
 15 16  1  0
 16 17  2  0
 16 18  1  0
 18 19  1  0
 18 20  1  0
 20 21  2  0
 21 22  1  0
 21 23  1  0
 23 24  1  0
 23 25  2  0
 25 26  1  0
 26 27  1  0
 27 28  2  0
 28 29  1  0
 29 30  2  0
 30 31  1  0
 31 32  2  0
 32 33  1  0
 32 34  1  0
 34 35  1  0
 34 36  2  0
 36 37  1  0
 36 38  1  0
 38 39  1  0
 39 40  1  0
 39 41  1  0
 39 42  1  0
 42 43  2  0
 42 44  2  0
 42 45  1  0
 45 46  1  0
 45 47  1  0
 45 48  1  0
 38 49  2  0
 49 50  1  0
 29 51  1  0
 51 52  1  0
 52 53  1  0
 52 54  2  0
 54 55  1  0
 25 56  1  0
 56 57  2  0
 57 58  1  0
 57 59  1  0
 59 60  1  0
 59 61  2  0
 61 62  1  0
 61 63  1  0
 63 64  1  0
 63 65  2  0
 14 66  1  0
 66 67  1  0
 67 68  1  0
 67 69  2  0
 69 70  1  0
 11 71  1  0
 71 72  2  0
 71 73  1  0
 73 74  1  0
 74 75  1  0
 74 76  1  0
 74  9  1  0
 69 12  1  0
 65 20  1  0
 54 27  1  0
 65 56  1  0
 49 31  1  0
M  CHG  2  51  -1  66  -1
M  END
>  <UniqueID>  (64) 
60

>  <SMILES>  (64) 
C[C@H](O)[C@H]1COC(=O)N1c1cc[n-]c(=NC(=O)Nc2ccc(Oc3cc[n-]/c(=N\c4cccc(CS(C)(=O)=O)c4)n3)c3ccccc23)n1

>  <Energy>  (64) 
122.71413496347307

>  <Genealogy>  (64) 
CC(O)C1COC(=O)N1c1cc[n-]c(=NC(=O)Nc2ccc(Oc3cc[n-]c(=Nc4cccc(CS(C)(=O)=O)c4)n3)c3ccccc23)n1 (protonated)
C[C@H](O)[C@H]1COC(=O)N1c1cc[n-]c(=NC(=O)Nc2ccc(Oc3cc[n-]c(=Nc4cccc(CS(C)(=O)=O)c4)n3)c3ccccc23)n1 (chirality)
C[C@H](O)[C@H]1COC(=O)N1c1cc[n-]c(=NC(=O)Nc2ccc(Oc3cc[n-]/c(=N\c4cccc(CS(C)(=O)=O)c4)n3)c3ccccc23)n1 (cis-trans isomerization)
C[C@H](O)[C@H]1COC(=O)N1c1cc[n-]c(=NC(=O)Nc2ccc(Oc3cc[n-]/c(=N\c4cccc(CS(C)(=O)=O)c4)n3)c3ccccc23)n1 (3D coordinates assigned)
C[C@H](O)[C@H]1COC(=O)N1c1cc[n-]c(=NC(=O)Nc2ccc(Oc3cc[n-]/c(=N\c4cccc(CS(C)(=O)=O)c4)n3)c3ccccc23)n1 (nonaromatic ring conformer: 122.71413496347307 kcal/mol)

>  <smiles>  (64) 
CC(O)C1COC(=O)N1c1cc[nH]c(=NC(=O)Nc2ccc(Oc3cc[nH]c(=Nc4cccc(CS(C)(=O)=O)c4)n3)c3ccccc23)n1

>  <score_type>  (64) 
oracle

>  <origin>  (64) 
adg

>  <m_score__min__energy>  (64) 
-12.18

>  <m_primary>  (64) 
energy

$$$$
64:0
     RDKit          3D

 47 50  0  0  0  0  0  0  0  0999 V2000
   58.6630   29.9650   44.3930 C   0  0  0  0  0  0  0  0  0  0  0  0
   58.6140   29.8610   45.7300 C   0  0  0  0  0  0  0  0  0  0  0  0
   58.5860   28.6790   46.4880 C   0  0  0  0  0  0  0  0  0  0  0  0
   58.3870   27.3990   46.1200 C   0  0  0  0  0  0  0  0  0  0  0  0
   57.1090   26.6760   46.2090 C   0  0  0  0  0  0  0  0  0  0  0  0
   56.9810   25.3870   46.5780 N   0  0  0  0  0  0  0  0  0  0  0  0
   55.6710   25.1310   46.3740 C   0  0  0  0  0  0  0  0  0  0  0  0
   55.1510   24.0130   46.6210 O   0  0  0  0  0  0  0  0  0  0  0  0
   54.9640   26.1670   45.8720 N   0  0  0  0  0  0  0  0  0  0  0  0
   55.8930   27.1300   45.7610 C   0  0  0  0  0  0  0  0  0  0  0  0
   55.6360   28.3970   45.2540 O   0  0  0  0  0  0  0  0  0  0  0  0
   58.7680   29.0600   47.8070 C   0  0  0  0  0  0  0  0  0  0  0  0
   58.8330   30.4380   47.8200 C   0  0  0  0  0  0  0  0  0  0  0  0
   58.9830   31.2690   49.0580 C   0  0  0  0  0  0  0  0  0  0  0  0
   58.7060   30.9270   46.5660 N   0  0  0  0  0  0  0  0  0  0  0  0
   58.7600   32.3190   46.1990 C   0  0  0  0  0  0  0  0  0  0  0  0
   57.6250   32.9210   45.6350 C   0  0  0  0  0  0  0  0  0  0  0  0
   57.6700   34.2460   45.1960 C   0  0  0  0  0  0  0  0  0  0  0  0
   58.8540   34.9770   45.3030 C   0  0  0  0  0  0  0  0  0  0  0  0
   59.9940   34.3870   45.8560 C   0  0  0  0  0  0  0  0  0  0  0  0
   59.9580   33.0630   46.3220 C   0  0  0  0  0  0  0  0  0  0  0  0
   61.1810   32.4740   46.9100 C   0  0  0  0  0  0  0  0  0  0  0  0
   61.4260   31.2510   46.7220 O   0  0  0  0  0  0  0  0  0  0  0  0
   62.0980   33.2720   47.6810 N   0  0  0  0  0  0  0  0  0  0  0  0
   61.5950   34.2180   48.6800 C   0  0  0  0  0  0  0  0  0  0  0  0
   61.7560   33.6010   50.0680 C   0  0  0  0  0  0  0  0  0  0  0  0
   63.1180   33.1000   50.2530 N   0  0  0  0  0  0  0  0  0  0  0  0
   63.9130   32.6170   49.1650 C   0  0  0  0  0  0  0  0  0  0  0  0
   64.9940   32.0180   49.4030 O   0  0  0  0  0  0  0  0  0  0  0  0
   63.5190   32.9120   47.7460 C   0  0  0  0  0  0  0  0  0  0  0  0
   58.6806   30.9574   43.9188 H   0  0  0  0  0  0  0  0  0  0  0  0
   58.6856   29.0579   43.7712 H   0  0  0  0  0  0  0  0  0  0  0  0
   59.2513   26.8487   45.7199 H   0  0  0  0  0  0  0  0  0  0  0  0
   58.8458   28.3919   48.6774 H   0  0  0  0  0  0  0  0  0  0  0  0
   58.8675   30.6292   49.9453 H   0  0  0  0  0  0  0  0  0  0  0  0
   59.9797   31.7344   49.0687 H   0  0  0  0  0  0  0  0  0  0  0  0
   58.2119   32.0534   49.0687 H   0  0  0  0  0  0  0  0  0  0  0  0
   56.6929   32.3451   45.5379 H   0  0  0  0  0  0  0  0  0  0  0  0
   56.7720   34.7136   44.7658 H   0  0  0  0  0  0  0  0  0  0  0  0
   58.8901   36.0188   44.9517 H   0  0  0  0  0  0  0  0  0  0  0  0
   60.9273   34.9648   45.9267 H   0  0  0  0  0  0  0  0  0  0  0  0
   62.1683   35.1550   48.6233 H   0  0  0  0  0  0  0  0  0  0  0  0
   60.5337   34.4345   48.4883 H   0  0  0  0  0  0  0  0  0  0  0  0
   61.5452   34.3655   50.8303 H   0  0  0  0  0  0  0  0  0  0  0  0
   61.0523   32.7613   50.1671 H   0  0  0  0  0  0  0  0  0  0  0  0
   64.1239   33.7489   47.3671 H   0  0  0  0  0  0  0  0  0  0  0  0
   63.6917   32.0164   47.1311 H   0  0  0  0  0  0  0  0  0  0  0  0
  1  2  2  0
  2  3  1  0
  3  4  2  3
  4  5  1  0
  5  6  1  0
  6  7  1  0
  7  8  2  0
  7  9  1  0
  9 10  1  0
 10 11  1  0
  3 12  1  0
 12 13  2  0
 13 14  1  0
 13 15  1  0
 15 16  1  0
 16 17  2  0
 17 18  1  0
 18 19  2  0
 19 20  1  0
 20 21  2  0
 21 22  1  0
 22 23  2  0
 22 24  1  0
 24 25  1  0
 25 26  1  0
 26 27  1  0
 27 28  1  0
 28 29  2  0
 28 30  1  0
 15  2  1  0
 21 16  1  0
 30 24  1  0
 10  5  2  0
  1 31  1  0
  1 32  1  0
  4 33  1  0
 12 34  1  0
 14 35  1  0
 14 36  1  0
 14 37  1  0
 17 38  1  0
 18 39  1  0
 19 40  1  0
 20 41  1  0
 25 42  1  0
 25 43  1  0
 26 44  1  0
 26 45  1  0
 30 46  1  0
 30 47  1  0
M  CHG  4   6  -1   9  -1  11  -1  27  -1
M  END
>  <UniqueID>  (65) 
61

>  <SMILES>  (65) 
C=c1c(=Cc2[n-]c(=O)[n-]c2[O-])cc(C)n1-c1ccccc1C(=O)N1CC[N-]C(=O)C1

>  <Energy>  (65) 
129.4572889893554

>  <Genealogy>  (65) 
C=c1c(=Cc2[n-]c(=O)[n-]c2[O-])cc(C)n1-c1ccccc1C(=O)N1CC[N-]C(=O)C1 (protonated)
C=c1c(=Cc2[n-]c(=O)[n-]c2[O-])cc(C)n1-c1ccccc1C(=O)N1CC[N-]C(=O)C1 (3D coordinates assigned)
C=c1c(=Cc2[n-]c(=O)[n-]c2[O-])cc(C)n1-c1ccccc1C(=O)N1CC[N-]C(=O)C1 (nonaromatic ring conformer: 129.4572889893554 kcal/mol)

>  <smiles>  (65) 
C=c1c(=Cc2[nH]c(=O)[nH]c2O)cc(C)n1-c1ccccc1C(=O)N1CCNC(=O)C1

>  <score_type>  (65) 
oracle

>  <origin>  (65) 
adg

>  <m_score__min__energy>  (65) 
-16.859999999999999

>  <m_primary>  (65) 
energy

$$$$
65:0
     RDKit          3D

 55 57  0  0  0  0  0  0  0  0999 V2000
   58.9970   34.2450   44.4970 C   0  0  0  0  0  0  0  0  0  0  0  0
   58.6050   33.0560   45.2800 N   0  0  2  0  0  0  0  0  0  0  0  0
   57.1870   32.7010   45.0090 C   0  0  0  0  0  0  0  0  0  0  0  0
   57.0390   31.2150   44.8090 C   0  0  0  0  0  0  0  0  0  0  0  0
   55.9170   30.7300   44.5130 O   0  0  0  0  0  0  0  0  0  0  0  0
   58.1930   30.3700   44.7980 N   0  0  0  0  0  0  0  0  0  0  0  0
   58.3140   29.1940   45.6020 C   0  0  0  0  0  0  0  0  0  0  0  0
   59.4890   28.9700   46.3260 C   0  0  0  0  0  0  0  0  0  0  0  0
   59.6520   27.7850   47.0470 C   0  0  0  0  0  0  0  0  0  0  0  0
   58.6620   26.7980   47.0110 C   0  0  0  0  0  0  0  0  0  0  0  0
   57.4880   27.0040   46.2720 C   0  0  0  0  0  0  0  0  0  0  0  0
   56.2860   25.7180   46.1330 S   0  0  0  0  0  0  0  0  0  0  0  0
   56.2690   24.9180   47.4060 O   0  0  0  0  0  0  0  0  0  0  0  0
   54.9250   26.3330   45.9560 O   0  0  0  0  0  0  0  0  0  0  0  0
   56.6230   24.6440   44.7970 N   0  0  0  0  0  0  0  0  0  0  0  0
   55.4330   23.8390   44.4280 C   0  0  0  0  0  0  0  0  0  0  0  0
   55.5030   22.3970   44.9450 C   0  0  0  0  0  0  0  0  0  0  0  0
   56.7620   21.6740   44.4300 C   0  0  0  0  0  0  0  0  0  0  0  0
   57.9290   22.6350   44.1490 C   0  0  0  0  0  0  0  0  0  0  0  0
   57.8490   23.8590   45.0600 C   0  0  0  0  0  0  0  0  0  0  0  0
   57.3080   28.2140   45.5870 C   0  0  0  0  0  0  0  0  0  0  0  0
   58.8410   33.3230   46.7190 C   0  0  0  0  0  0  0  0  0  0  0  0
   60.2490   32.9840   47.1620 C   0  0  0  0  0  0  0  0  0  0  0  0
   61.3220   33.8000   46.7660 C   0  0  0  0  0  0  0  0  0  0  0  0
   62.6310   33.4640   47.1160 C   0  0  0  0  0  0  0  0  0  0  0  0
   62.8830   32.3230   47.8800 C   0  0  0  0  0  0  0  0  0  0  0  0
   64.1530   32.0090   48.2320 F   0  0  0  0  0  0  0  0  0  0  0  0
   61.8260   31.5000   48.2680 C   0  0  0  0  0  0  0  0  0  0  0  0
   60.5170   31.8150   47.8960 C   0  0  0  0  0  0  0  0  0  0  0  0
   59.2665   35.0625   45.1819 H   0  0  0  0  0  0  0  0  0  0  0  0
   59.8612   33.9979   43.8629 H   0  0  0  0  0  0  0  0  0  0  0  0
   58.1553   34.5603   43.8629 H   0  0  0  0  0  0  0  0  0  0  0  0
   59.2280   32.2740   44.9750 H   0  0  0  0  0  0  0  0  0  0  0  0
   56.5670   33.0141   45.8620 H   0  0  0  0  0  0  0  0  0  0  0  0
   56.8626   33.2153   44.0923 H   0  0  0  0  0  0  0  0  0  0  0  0
   60.2861   29.7281   46.3277 H   0  0  0  0  0  0  0  0  0  0  0  0
   60.5618   27.6276   47.6449 H   0  0  0  0  0  0  0  0  0  0  0  0
   58.8044   25.8577   47.5637 H   0  0  0  0  0  0  0  0  0  0  0  0
   54.5389   24.3203   44.8511 H   0  0  0  0  0  0  0  0  0  0  0  0
   55.3932   23.7938   43.3296 H   0  0  0  0  0  0  0  0  0  0  0  0
   55.5239   22.4120   46.0447 H   0  0  0  0  0  0  0  0  0  0  0  0
   54.6189   21.8551   44.5779 H   0  0  0  0  0  0  0  0  0  0  0  0
   57.0827   20.9441   45.1879 H   0  0  0  0  0  0  0  0  0  0  0  0
   56.4983   21.1869   43.4796 H   0  0  0  0  0  0  0  0  0  0  0  0
   58.8796   22.1117   44.3292 H   0  0  0  0  0  0  0  0  0  0  0  0
   57.8703   22.9676   43.1021 H   0  0  0  0  0  0  0  0  0  0  0  0
   57.8435   23.5260   46.1084 H   0  0  0  0  0  0  0  0  0  0  0  0
   58.7212   24.4988   44.8602 H   0  0  0  0  0  0  0  0  0  0  0  0
   56.3742   28.3967   45.0351 H   0  0  0  0  0  0  0  0  0  0  0  0
   58.6609   34.3910   46.9112 H   0  0  0  0  0  0  0  0  0  0  0  0
   58.1537   32.6808   47.2892 H   0  0  0  0  0  0  0  0  0  0  0  0
   61.1296   34.7088   46.1768 H   0  0  0  0  0  0  0  0  0  0  0  0
   63.4665   34.1003   46.7888 H   0  0  0  0  0  0  0  0  0  0  0  0
   62.0238   30.6001   48.8688 H   0  0  0  0  0  0  0  0  0  0  0  0
   59.6916   31.1451   48.1787 H   0  0  0  0  0  0  0  0  0  0  0  0
  1  2  1  0
  2  3  1  0
  3  4  1  0
  4  5  2  0
  4  6  1  0
  6  7  1  0
  7  8  2  0
  8  9  1  0
  9 10  2  0
 10 11  1  0
 11 12  1  0
 12 13  2  0
 12 14  2  0
 12 15  1  0
 15 16  1  0
 16 17  1  0
 17 18  1  0
 18 19  1  0
 19 20  1  0
 11 21  2  0
  2 22  1  0
 22 23  1  0
 23 24  2  0
 24 25  1  0
 25 26  2  0
 26 27  1  0
 26 28  1  0
 28 29  2  0
 21  7  1  0
 29 23  1  0
 20 15  1  0
  1 30  1  0
  1 31  1  0
  1 32  1  0
  2 33  1  6
  3 34  1  0
  3 35  1  0
  8 36  1  0
  9 37  1  0
 10 38  1  0
 16 39  1  0
 16 40  1  0
 17 41  1  0
 17 42  1  0
 18 43  1  0
 18 44  1  0
 19 45  1  0
 19 46  1  0
 20 47  1  0
 20 48  1  0
 21 49  1  0
 22 50  1  0
 22 51  1  0
 24 52  1  0
 25 53  1  0
 28 54  1  0
 29 55  1  0
M  CHG  2   2   1   6  -1
M  END
>  <UniqueID>  (66) 
62

>  <SMILES>  (66) 
C[N@H+](CC(=O)[N-]c1cccc(S(=O)(=O)N2CCCCC2)c1)Cc1ccc(F)cc1

>  <Energy>  (66) 
66.08059620382713

>  <Genealogy>  (66) 
C[NH+](CC(=O)[N-]c1cccc(S(=O)(=O)N2CCCCC2)c1)Cc1ccc(F)cc1 (protonated)
C[N@H+](CC(=O)[N-]c1cccc(S(=O)(=O)N2CCCCC2)c1)Cc1ccc(F)cc1 (chirality)
C[N@H+](CC(=O)[N-]c1cccc(S(=O)(=O)N2CCCCC2)c1)Cc1ccc(F)cc1 (3D coordinates assigned)
C[N@H+](CC(=O)[N-]c1cccc(S(=O)(=O)N2CCCCC2)c1)Cc1ccc(F)cc1 (nonaromatic ring conformer: 66.08059620382713 kcal/mol)

>  <smiles>  (66) 
CN(CC(=O)Nc1cccc(S(=O)(=O)N2CCCCC2)c1)Cc1ccc(F)cc1

>  <score_type>  (66) 
oracle

>  <origin>  (66) 
adg

>  <m_score__min__energy>  (66) 
-9.2100000000000009

>  <m_primary>  (66) 
energy

$$$$
66:0
     RDKit          3D

 57 60  0  0  0  0  0  0  0  0999 V2000
   51.9840   23.9800   45.2070 C   0  0  0  0  0  0  0  0  0  0  0  0
   53.4050   24.0190   45.6210 C   0  0  0  0  0  0  0  0  0  0  0  0
   53.9910   22.8540   46.0220 C   0  0  0  0  0  0  0  0  0  0  0  0
   55.3130   22.8730   46.4170 C   0  0  0  0  0  0  0  0  0  0  0  0
   56.0370   21.6470   46.8580 C   0  0  0  0  0  0  0  0  0  0  0  0
   55.9660   24.0350   46.3900 N   0  0  0  0  0  0  0  0  0  0  0  0
   55.3770   25.1840   45.9920 C   0  0  0  0  0  0  0  0  0  0  0  0
   56.0780   26.2540   46.0230 N   0  0  0  0  0  0  0  0  0  0  0  0
   57.3670   26.3020   45.4530 C   0  0  0  0  0  0  0  0  0  0  0  0
   57.8340   25.1640   45.0640 O   0  0  0  0  0  0  0  0  0  0  0  0
   58.1770   27.4970   45.2810 C   0  0  0  0  0  0  0  0  0  0  0  0
   59.5420   27.5440   45.3980 C   0  0  0  0  0  0  0  0  0  0  0  0
   60.1890   28.7390   45.1880 C   0  0  0  0  0  0  0  0  0  0  0  0
   59.5060   29.9060   44.8600 C   0  0  0  0  0  0  0  0  0  0  0  0
   58.1400   29.8700   44.7420 C   0  0  0  0  0  0  0  0  0  0  0  0
   57.1530   31.2400   44.3000 S   0  0  0  0  0  0  0  0  0  0  0  0
   57.1780   31.3080   42.7770 O   0  0  0  0  0  0  0  0  0  0  0  0
   55.6970   30.8600   44.6050 O   0  0  0  0  0  0  0  0  0  0  0  0
   57.5410   32.7000   45.0200 N   0  0  0  0  0  0  0  0  0  0  0  0
   57.4160   32.7430   46.4140 C   0  0  0  0  0  0  0  0  0  0  0  0
   58.7600   32.2820   47.0060 C   0  0  0  0  0  0  0  0  0  0  0  0
   59.7520   33.2460   46.5790 N   0  0  0  0  0  0  0  0  0  0  0  0
   60.9230   33.5600   47.3350 C   0  0  0  0  0  0  0  0  0  0  0  0
   60.8350   33.9510   48.6760 C   0  0  0  0  0  0  0  0  0  0  0  0
   61.9380   34.2650   49.4350 C   0  0  0  0  0  0  0  0  0  0  0  0
   63.2020   34.2030   48.8840 C   0  0  0  0  0  0  0  0  0  0  0  0
   63.2830   33.8170   47.5640 C   0  0  0  0  0  0  0  0  0  0  0  0
   62.2010   33.5020   46.7920 C   0  0  0  0  0  0  0  0  0  0  0  0
   59.6120   33.9650   45.3140 C   0  0  0  0  0  0  0  0  0  0  0  0
   58.6160   33.3570   44.3880 C   0  0  0  0  0  0  0  0  0  0  0  0
   57.5170   28.6630   44.9580 C   0  0  0  0  0  0  0  0  0  0  0  0
   54.0780   25.1820   45.6010 N   0  0  0  0  0  0  0  0  0  0  0  0
   51.3422   23.9624   46.1002 H   0  0  0  0  0  0  0  0  0  0  0  0
   51.7524   24.8721   44.6066 H   0  0  0  0  0  0  0  0  0  0  0  0
   51.8017   23.0765   44.6066 H   0  0  0  0  0  0  0  0  0  0  0  0
   53.4188   21.9146   46.0303 H   0  0  0  0  0  0  0  0  0  0  0  0
   56.0591   21.6096   47.9571 H   0  0  0  0  0  0  0  0  0  0  0  0
   55.5197   20.7566   46.4712 H   0  0  0  0  0  0  0  0  0  0  0  0
   57.0665   21.6700   46.4712 H   0  0  0  0  0  0  0  0  0  0  0  0
   56.9590   24.0390   46.6890 H   0  0  0  0  0  0  0  0  0  0  0  0
   60.1114   26.6390   45.6561 H   0  0  0  0  0  0  0  0  0  0  0  0
   61.2844   28.7736   45.2826 H   0  0  0  0  0  0  0  0  0  0  0  0
   60.0546   30.8455   44.6974 H   0  0  0  0  0  0  0  0  0  0  0  0
   57.1924   33.7692   46.7409 H   0  0  0  0  0  0  0  0  0  0  0  0
   56.5964   32.0923   46.7528 H   0  0  0  0  0  0  0  0  0  0  0  0
   58.7026   32.2575   48.1042 H   0  0  0  0  0  0  0  0  0  0  0  0
   59.0179   31.2690   46.6635 H   0  0  0  0  0  0  0  0  0  0  0  0
   59.8408   34.0097   49.1430 H   0  0  0  0  0  0  0  0  0  0  0  0
   61.8124   34.5667   50.4853 H   0  0  0  0  0  0  0  0  0  0  0  0
   64.0999   34.4495   49.4697 H   0  0  0  0  0  0  0  0  0  0  0  0
   64.2802   33.7589   47.1034 H   0  0  0  0  0  0  0  0  0  0  0  0
   62.3409   33.2030   45.7427 H   0  0  0  0  0  0  0  0  0  0  0  0
   59.2983   34.9963   45.5333 H   0  0  0  0  0  0  0  0  0  0  0  0
   60.5886   33.9223   44.8096 H   0  0  0  0  0  0  0  0  0  0  0  0
   58.2033   34.1577   43.7566 H   0  0  0  0  0  0  0  0  0  0  0  0
   59.1556   32.5866   43.8176 H   0  0  0  0  0  0  0  0  0  0  0  0
   56.4214   28.6259   44.8671 H   0  0  0  0  0  0  0  0  0  0  0  0
  1  2  1  0
  2  3  1  0
  3  4  2  0
  4  5  1  0
  4  6  1  0
  6  7  1  0
  7  8  2  3
  8  9  1  0
  9 10  2  0
  9 11  1  0
 11 12  2  0
 12 13  1  0
 13 14  2  0
 14 15  1  0
 15 16  1  0
 16 17  2  0
 16 18  2  0
 16 19  1  0
 19 20  1  0
 20 21  1  0
 21 22  1  0
 22 23  1  0
 23 24  2  0
 24 25  1  0
 25 26  2  0
 26 27  1  0
 27 28  2  0
 22 29  1  0
 29 30  1  0
 15 31  2  0
  7 32  1  0
 32  2  2  0
 31 11  1  0
 30 19  1  0
 28 23  1  0
  1 33  1  0
  1 34  1  0
  1 35  1  0
  3 36  1  0
  5 37  1  0
  5 38  1  0
  5 39  1  0
  6 40  1  0
 12 41  1  0
 13 42  1  0
 14 43  1  0
 20 44  1  0
 20 45  1  0
 21 46  1  0
 21 47  1  0
 24 48  1  0
 25 49  1  0
 26 50  1  0
 27 51  1  0
 28 52  1  0
 29 53  1  0
 29 54  1  0
 30 55  1  0
 30 56  1  0
 31 57  1  0
M  END
>  <smiles>  (67) 
Cc1cc(C)[nH]c(=NC(=O)c2cccc(S(=O)(=O)N3CCN(c4ccccc4)CC3)c2)n1

>  <score_type>  (67) 
oracle

>  <origin>  (67) 
adg

>  <m_score__min__energy>  (67) 
-10.49

>  <m_primary>  (67) 
energy

$$$$
67:0
     RDKit          3D

 53 54  0  0  0  0  0  0  0  0999 V2000
   60.3030   27.7010   47.4600 C   0  0  0  0  0  0  0  0  0  0  0  0
   60.2610   29.1350   47.1130 N   0  0  0  0  0  0  0  0  0  0  0  0
   59.0690   29.4370   46.2860 C   0  0  0  0  0  0  0  0  0  0  0  0
   58.6620   28.2110   45.4590 C   0  0  0  0  0  0  0  0  0  0  0  0
   57.1600   28.0780   45.3910 C   0  0  0  0  0  0  0  0  0  0  0  0
   56.6220   27.1420   46.0440 O   0  0  0  0  0  0  0  0  0  0  0  0
   56.3130   29.0030   44.6770 N   0  0  0  0  0  0  0  0  0  0  0  0
   55.1260   29.3370   45.2380 O   0  0  0  0  0  0  0  0  0  0  0  0
   56.5930   29.5240   43.3340 C   0  0  0  0  0  0  0  0  0  0  0  0
   57.6560   30.6290   43.3750 C   0  0  0  0  0  0  0  0  0  0  0  0
   57.3520   31.6660   44.4180 C   0  0  0  0  0  0  0  0  0  0  0  0
   57.0440   31.3030   45.5850 O   0  0  0  0  0  0  0  0  0  0  0  0
   57.4360   33.0580   44.0900 N   0  0  0  0  0  0  0  0  0  0  0  0
   57.2230   34.1190   45.0690 C   0  0  0  0  0  0  0  0  0  0  0  0
   58.3120   34.0920   46.1000 C   0  0  0  0  0  0  0  0  0  0  0  0
   59.5750   34.6330   45.8100 C   0  0  0  0  0  0  0  0  0  0  0  0
   60.5960   34.6050   46.7680 C   0  0  0  0  0  0  0  0  0  0  0  0
   60.3610   34.0340   48.0230 C   0  0  0  0  0  0  0  0  0  0  0  0
   59.1090   33.4850   48.3180 C   0  0  0  0  0  0  0  0  0  0  0  0
   58.0880   33.5070   47.3570 C   0  0  0  0  0  0  0  0  0  0  0  0
   60.2890   29.9680   48.3320 C   0  0  0  0  0  0  0  0  0  0  0  0
   61.4920   30.8700   48.3360 C   0  0  0  0  0  0  0  0  0  0  0  0
   62.0460   31.3140   49.5480 C   0  0  0  0  0  0  0  0  0  0  0  0
   63.1380   32.1880   49.5410 C   0  0  0  0  0  0  0  0  0  0  0  0
   63.6890   32.6180   48.3270 C   0  0  0  0  0  0  0  0  0  0  0  0
   63.1580   32.1620   47.1180 C   0  0  0  0  0  0  0  0  0  0  0  0
   62.0650   31.2880   47.1200 C   0  0  0  0  0  0  0  0  0  0  0  0
   60.3063   27.5885   48.5542 H   0  0  0  0  0  0  0  0  0  0  0  0
   59.4192   27.1966   47.0422 H   0  0  0  0  0  0  0  0  0  0  0  0
   61.2148   27.2492   47.0422 H   0  0  0  0  0  0  0  0  0  0  0  0
   58.2351   29.7224   46.9441 H   0  0  0  0  0  0  0  0  0  0  0  0
   59.3122   30.2625   45.6009 H   0  0  0  0  0  0  0  0  0  0  0  0
   59.0602   28.3169   44.4391 H   0  0  0  0  0  0  0  0  0  0  0  0
   59.0717   27.3114   45.9415 H   0  0  0  0  0  0  0  0  0  0  0  0
   56.9551   28.7019   42.6991 H   0  0  0  0  0  0  0  0  0  0  0  0
   55.6645   29.9506   42.9267 H   0  0  0  0  0  0  0  0  0  0  0  0
   58.6319   30.1743   43.6006 H   0  0  0  0  0  0  0  0  0  0  0  0
   57.6653   31.1271   42.3943 H   0  0  0  0  0  0  0  0  0  0  0  0
   57.7760   33.3310   43.1420 H   0  0  0  0  0  0  0  0  0  0  0  0
   57.2294   35.0930   44.5578 H   0  0  0  0  0  0  0  0  0  0  0  0
   56.2531   33.9639   45.5642 H   0  0  0  0  0  0  0  0  0  0  0  0
   59.7636   35.0818   44.8236 H   0  0  0  0  0  0  0  0  0  0  0  0
   61.5823   35.0319   46.5336 H   0  0  0  0  0  0  0  0  0  0  0  0
   61.1609   34.0167   48.7779 H   0  0  0  0  0  0  0  0  0  0  0  0
   58.9250   33.0355   49.3049 H   0  0  0  0  0  0  0  0  0  0  0  0
   57.1080   33.0644   47.5886 H   0  0  0  0  0  0  0  0  0  0  0  0
   59.3775   30.5826   48.3696 H   0  0  0  0  0  0  0  0  0  0  0  0
   60.3419   29.3066   49.2094 H   0  0  0  0  0  0  0  0  0  0  0  0
   61.6206   30.9740   50.5037 H   0  0  0  0  0  0  0  0  0  0  0  0
   63.5655   32.5388   50.4919 H   0  0  0  0  0  0  0  0  0  0  0  0
   64.5400   33.3149   48.3257 H   0  0  0  0  0  0  0  0  0  0  0  0
   63.5988   32.4897   46.1649 H   0  0  0  0  0  0  0  0  0  0  0  0
   61.6517   30.9260   46.1670 H   0  0  0  0  0  0  0  0  0  0  0  0
  1  2  1  0
  2  3  1  0
  3  4  1  0
  4  5  1  0
  5  6  2  0
  5  7  1  0
  7  8  1  0
  7  9  1  0
  9 10  1  0
 10 11  1  0
 11 12  2  0
 11 13  1  0
 13 14  1  0
 14 15  1  0
 15 16  2  0
 16 17  1  0
 17 18  2  0
 18 19  1  0
 19 20  2  0
  2 21  1  0
 21 22  1  0
 22 23  2  0
 23 24  1  0
 24 25  2  0
 25 26  1  0
 26 27  2  0
 20 15  1  0
 27 22  1  0
  1 28  1  0
  1 29  1  0
  1 30  1  0
  3 31  1  0
  3 32  1  0
  4 33  1  0
  4 34  1  0
  9 35  1  0
  9 36  1  0
 10 37  1  0
 10 38  1  0
 13 39  1  0
 14 40  1  0
 14 41  1  0
 16 42  1  0
 17 43  1  0
 18 44  1  0
 19 45  1  0
 20 46  1  0
 21 47  1  0
 21 48  1  0
 23 49  1  0
 24 50  1  0
 25 51  1  0
 26 52  1  0
 27 53  1  0
M  CHG  1   8  -1
M  END
>  <UniqueID>  (68) 
63

>  <SMILES>  (68) 
CN(CCC(=O)N([O-])CCC(=O)NCc1ccccc1)Cc1ccccc1

>  <Energy>  (68) 
44.07641946156063

>  <Genealogy>  (68) 
CN(CCC(=O)N([O-])CCC(=O)NCc1ccccc1)Cc1ccccc1 (protonated)
CN(CCC(=O)N([O-])CCC(=O)NCc1ccccc1)Cc1ccccc1 (3D coordinates assigned)
CN(CCC(=O)N([O-])CCC(=O)NCc1ccccc1)Cc1ccccc1 (optimized conformer: 44.07641946156063 kcal/mol)

>  <smiles>  (68) 
CN(CCC(=O)N(O)CCC(=O)NCc1ccccc1)Cc1ccccc1

>  <score_type>  (68) 
oracle

>  <origin>  (68) 
adg

>  <m_score__min__energy>  (68) 
-11.34

>  <m_primary>  (68) 
energy

$$$$
68:0
     RDKit          3D

 50 53  0  0  0  0  0  0  0  0999 V2000
   57.7530   27.8410   44.0350 O   0  0  0  0  0  0  0  0  0  0  0  0
   57.5400   28.4320   45.1270 C   0  0  0  0  0  0  0  0  0  0  0  0
   57.6300   27.6500   46.4080 C   0  0  0  0  0  0  0  0  0  0  0  0
   57.1750   26.2770   46.1820 N   0  0  0  0  0  0  0  0  0  0  0  0
   55.8970   25.8600   46.0300 C   0  0  0  0  0  0  0  0  0  0  0  0
   54.7930   26.7080   46.0130 O   0  0  0  0  0  0  0  0  0  0  0  0
   55.8520   24.4850   45.9020 C   0  0  0  0  0  0  0  0  0  0  0  0
   57.1500   24.0400   45.9920 C   0  0  0  0  0  0  0  0  0  0  0  0
   57.9410   25.1610   46.1700 C   0  0  0  0  0  0  0  0  0  0  0  0
   59.3250   25.1560   46.3230 O   0  0  0  0  0  0  0  0  0  0  0  0
   57.5520   22.6010   45.9190 C   0  0  0  0  0  0  0  0  0  0  0  0
   56.3530   21.6940   45.6970 C   0  0  0  0  0  0  0  0  0  0  0  0
   55.0740   22.1330   45.6060 C   0  0  0  0  0  0  0  0  0  0  0  0
   54.6670   23.5930   45.7070 C   0  0  0  0  0  0  0  0  0  0  0  0
   57.0750   29.7900   45.1040 N   0  0  0  0  0  0  0  0  0  0  0  0
   57.7690   30.9150   45.6550 C   0  0  0  0  0  0  0  0  0  0  0  0
   58.4520   30.8240   46.8790 C   0  0  0  0  0  0  0  0  0  0  0  0
   59.1280   31.9340   47.3940 C   0  0  0  0  0  0  0  0  0  0  0  0
   59.1390   33.1450   46.6850 C   0  0  0  0  0  0  0  0  0  0  0  0
   59.9500   34.5630   47.3590 S   0  0  0  0  0  0  0  0  0  0  0  0
   59.8330   35.7100   46.3900 O   0  0  0  0  0  0  0  0  0  0  0  0
   59.2680   34.9640   48.6410 O   0  0  0  0  0  0  0  0  0  0  0  0
   61.6390   34.2390   47.6840 N   0  0  0  0  0  0  0  0  0  0  0  0
   61.8080   33.2530   48.7780 C   0  0  0  0  0  0  0  0  0  0  0  0
   62.2220   31.8650   48.2470 C   0  0  0  0  0  0  0  0  0  0  0  0
   63.4360   31.8870   47.5080 O   0  0  0  0  0  0  0  0  0  0  0  0
   63.6350   33.0860   46.7640 C   0  0  0  0  0  0  0  0  0  0  0  0
   62.3370   33.8490   46.4400 C   0  0  0  0  0  0  0  0  0  0  0  0
   58.4950   33.2230   45.4400 C   0  0  0  0  0  0  0  0  0  0  0  0
   57.8230   32.1110   44.9240 C   0  0  0  0  0  0  0  0  0  0  0  0
   58.6736   27.6367   46.7555 H   0  0  0  0  0  0  0  0  0  0  0  0
   56.9928   28.1239   47.1692 H   0  0  0  0  0  0  0  0  0  0  0  0
   58.2577   22.4697   45.0855 H   0  0  0  0  0  0  0  0  0  0  0  0
   58.0181   22.3257   46.8766 H   0  0  0  0  0  0  0  0  0  0  0  0
   56.5347   20.6131   45.6043 H   0  0  0  0  0  0  0  0  0  0  0  0
   54.2819   21.3860   45.4494 H   0  0  0  0  0  0  0  0  0  0  0  0
   54.1502   23.8840   44.7806 H   0  0  0  0  0  0  0  0  0  0  0  0
   54.0058   23.7054   46.5789 H   0  0  0  0  0  0  0  0  0  0  0  0
   58.4550   29.8748   47.4350 H   0  0  0  0  0  0  0  0  0  0  0  0
   59.6528   31.8580   48.3577 H   0  0  0  0  0  0  0  0  0  0  0  0
   62.5854   33.6162   49.4663 H   0  0  0  0  0  0  0  0  0  0  0  0
   60.8407   33.1457   49.2907 H   0  0  0  0  0  0  0  0  0  0  0  0
   62.3464   31.1860   49.1034 H   0  0  0  0  0  0  0  0  0  0  0  0
   61.4294   31.5271   47.5632 H   0  0  0  0  0  0  0  0  0  0  0  0
   64.2892   33.7501   47.3479 H   0  0  0  0  0  0  0  0  0  0  0  0
   64.0780   32.7915   45.8012 H   0  0  0  0  0  0  0  0  0  0  0  0
   62.5833   34.7536   45.8647 H   0  0  0  0  0  0  0  0  0  0  0  0
   61.6769   33.1933   45.8532 H   0  0  0  0  0  0  0  0  0  0  0  0
   58.5192   34.1625   44.8684 H   0  0  0  0  0  0  0  0  0  0  0  0
   57.3345   32.1742   43.9405 H   0  0  0  0  0  0  0  0  0  0  0  0
  1  2  2  0
  2  3  1  0
  3  4  1  0
  4  5  1  0
  5  6  1  0
  5  7  2  0
  7  8  1  0
  8  9  2  0
  9 10  1  0
  8 11  1  0
 11 12  1  0
 12 13  2  0
 13 14  1  0
  2 15  1  0
 15 16  1  0
 16 17  2  0
 17 18  1  0
 18 19  2  0
 19 20  1  0
 20 21  2  0
 20 22  2  0
 20 23  1  0
 23 24  1  0
 24 25  1  0
 25 26  1  0
 26 27  1  0
 27 28  1  0
 19 29  1  0
 29 30  2  0
  9  4  1  0
 30 16  1  0
 14  7  1  0
 28 23  1  0
  3 31  1  0
  3 32  1  0
 11 33  1  0
 11 34  1  0
 12 35  1  0
 13 36  1  0
 14 37  1  0
 14 38  1  0
 17 39  1  0
 18 40  1  0
 24 41  1  0
 24 42  1  0
 25 43  1  0
 25 44  1  0
 27 45  1  0
 27 46  1  0
 28 47  1  0
 28 48  1  0
 29 49  1  0
 30 50  1  0
M  CHG  3   6  -1  10  -1  15  -1
M  END
>  <UniqueID>  (69) 
64

>  <SMILES>  (69) 
O=C(Cn1c([O-])c2c(c1[O-])CC=CC2)[N-]c1ccc(S(=O)(=O)N2CCOCC2)cc1

>  <Energy>  (69) 
100.26101604971727

>  <Genealogy>  (69) 
O=C(Cn1c([O-])c2c(c1[O-])CC=CC2)[N-]c1ccc(S(=O)(=O)N2CCOCC2)cc1 (protonated)
O=C(Cn1c([O-])c2c(c1[O-])CC=CC2)[N-]c1ccc(S(=O)(=O)N2CCOCC2)cc1 (3D coordinates assigned)
O=C(Cn1c([O-])c2c(c1[O-])CC=CC2)[N-]c1ccc(S(=O)(=O)N2CCOCC2)cc1 (nonaromatic ring conformer: 100.26101604971727 kcal/mol)

>  <smiles>  (69) 
O=C(Cn1c(O)c2c(c1O)CC=CC2)Nc1ccc(S(=O)(=O)N2CCOCC2)cc1

>  <score_type>  (69) 
oracle

>  <origin>  (69) 
adg

>  <m_score__min__energy>  (69) 
-15.27

>  <m_primary>  (69) 
energy

$$$$
69:0
     RDKit          3D

 50 52  0  0  0  0  0  0  0  0999 V2000
   60.1010   29.3960   44.9100 O   0  0  0  0  0  0  0  0  0  0  0  0
   59.0150   29.6880   45.4820 C   0  0  0  0  0  0  0  0  0  0  0  0
   58.9590   29.8080   46.9090 N   0  0  0  0  0  0  0  0  0  0  0  0
   60.1550   29.6520   47.7350 C   0  0  0  0  0  0  0  0  0  0  0  0
   60.2580   30.7560   48.7990 C   0  0  0  0  0  0  0  0  0  0  0  0
   61.2470   31.8350   48.3970 C   0  0  0  0  0  0  0  0  0  0  0  0
   62.2580   31.5110   47.4740 C   0  0  0  0  0  0  0  0  0  0  0  0
   63.2170   32.4620   47.1060 C   0  0  0  0  0  0  0  0  0  0  0  0
   63.1750   33.7480   47.6510 C   0  0  0  0  0  0  0  0  0  0  0  0
   62.1720   34.0880   48.5620 C   0  0  0  0  0  0  0  0  0  0  0  0
   61.2060   33.1440   48.9420 C   0  0  0  0  0  0  0  0  0  0  0  0
   59.9720   33.6510   50.0950 Cl  0  0  0  0  0  0  0  0  0  0  0  0
   57.8100   29.9370   44.6660 C   0  0  0  0  0  0  0  0  0  0  0  0
   57.3230   29.0020   43.8230 C   0  0  0  0  0  0  0  0  0  0  0  0
   57.7710   27.5900   43.7760 C   0  0  0  0  0  0  0  0  0  0  0  0
   58.2210   27.1440   42.6840 O   0  0  0  0  0  0  0  0  0  0  0  0
   57.7730   26.7130   44.9730 C   0  0  0  0  0  0  0  0  0  0  0  0
   58.8950   25.9110   45.2570 C   0  0  0  0  0  0  0  0  0  0  0  0
   58.9220   25.1110   46.4030 C   0  0  0  0  0  0  0  0  0  0  0  0
   57.8260   25.0900   47.2680 C   0  0  0  0  0  0  0  0  0  0  0  0
   56.6970   25.8650   46.9850 C   0  0  0  0  0  0  0  0  0  0  0  0
   56.6640   26.6750   45.8440 C   0  0  0  0  0  0  0  0  0  0  0  0
   55.5360   27.4530   45.5980 O   0  0  0  0  0  0  0  0  0  0  0  0
   57.1300   31.2520   44.8030 C   0  0  0  0  0  0  0  0  0  0  0  0
   55.9090   31.3390   44.5020 O   0  0  0  0  0  0  0  0  0  0  0  0
   57.8430   32.4710   45.2590 C   0  0  0  0  0  0  0  0  0  0  0  0
   57.8650   32.8300   46.6190 C   0  0  0  0  0  0  0  0  0  0  0  0
   58.5590   33.9700   47.0380 C   0  0  0  0  0  0  0  0  0  0  0  0
   59.2440   34.7560   46.1090 C   0  0  0  0  0  0  0  0  0  0  0  0
   59.2400   34.4000   44.7590 C   0  0  0  0  0  0  0  0  0  0  0  0
   58.5480   33.2610   44.3350 C   0  0  0  0  0  0  0  0  0  0  0  0
   58.0560   30.0990   47.3450 H   0  0  0  0  0  0  0  0  0  0  0  0
   60.1160   28.6745   48.2380 H   0  0  0  0  0  0  0  0  0  0  0  0
   61.0360   29.7231   47.0802 H   0  0  0  0  0  0  0  0  0  0  0  0
   59.2670   31.2138   48.9344 H   0  0  0  0  0  0  0  0  0  0  0  0
   60.6127   30.2980   49.7341 H   0  0  0  0  0  0  0  0  0  0  0  0
   62.2952   30.5019   47.0378 H   0  0  0  0  0  0  0  0  0  0  0  0
   64.0053   32.1964   46.3863 H   0  0  0  0  0  0  0  0  0  0  0  0
   63.9317   34.4926   47.3627 H   0  0  0  0  0  0  0  0  0  0  0  0
   62.1393   35.1031   48.9845 H   0  0  0  0  0  0  0  0  0  0  0  0
   56.5359   29.3107   43.1193 H   0  0  0  0  0  0  0  0  0  0  0  0
   59.7560   25.9140   44.5725 H   0  0  0  0  0  0  0  0  0  0  0  0
   59.8078   24.4972   46.6237 H   0  0  0  0  0  0  0  0  0  0  0  0
   57.8508   24.4638   48.1720 H   0  0  0  0  0  0  0  0  0  0  0  0
   55.8307   25.8379   47.6623 H   0  0  0  0  0  0  0  0  0  0  0  0
   57.3336   32.2110   47.3569 H   0  0  0  0  0  0  0  0  0  0  0  0
   58.5652   34.2481   48.1022 H   0  0  0  0  0  0  0  0  0  0  0  0
   59.7858   35.6541   46.4403 H   0  0  0  0  0  0  0  0  0  0  0  0
   59.7823   35.0167   44.0272 H   0  0  0  0  0  0  0  0  0  0  0  0
   58.5556   32.9816   43.2711 H   0  0  0  0  0  0  0  0  0  0  0  0
  1  2  2  0
  2  3  1  0
  3  4  1  0
  4  5  1  0
  5  6  1  0
  6  7  2  0
  7  8  1  0
  8  9  2  0
  9 10  1  0
 10 11  2  0
 11 12  1  0
  2 13  1  0
 13 14  2  3
 14 15  1  0
 15 16  2  0
 15 17  1  0
 17 18  2  0
 18 19  1  0
 19 20  2  0
 20 21  1  0
 21 22  2  0
 22 23  1  0
 13 24  1  0
 24 25  2  0
 24 26  1  0
 26 27  2  0
 27 28  1  0
 28 29  2  0
 29 30  1  0
 30 31  2  0
 11  6  1  0
 22 17  1  0
 31 26  1  0
  3 32  1  0
  4 33  1  0
  4 34  1  0
  5 35  1  0
  5 36  1  0
  7 37  1  0
  8 38  1  0
  9 39  1  0
 10 40  1  0
 14 41  1  0
 18 42  1  0
 19 43  1  0
 20 44  1  0
 21 45  1  0
 27 46  1  0
 28 47  1  0
 29 48  1  0
 30 49  1  0
 31 50  1  0
M  CHG  1  23  -1
M  END
>  <UniqueID>  (70) 
65

>  <SMILES>  (70) 
O=C(NCCc1ccccc1Cl)C(=CC(=O)c1ccccc1[O-])C(=O)c1ccccc1

>  <Energy>  (70) 
68.27004640788574

>  <Genealogy>  (70) 
O=C(NCCc1ccccc1Cl)C(=CC(=O)c1ccccc1[O-])C(=O)c1ccccc1 (protonated)
O=C(NCCc1ccccc1Cl)C(=CC(=O)c1ccccc1[O-])C(=O)c1ccccc1 (3D coordinates assigned)
O=C(NCCc1ccccc1Cl)C(=CC(=O)c1ccccc1[O-])C(=O)c1ccccc1 (optimized conformer: 68.27004640788574 kcal/mol)

>  <smiles>  (70) 
O=C(NCCc1ccccc1Cl)C(=CC(=O)c1ccccc1O)C(=O)c1ccccc1

>  <score_type>  (70) 
oracle

>  <origin>  (70) 
adg

>  <m_score__min__energy>  (70) 
-13.880000000000001

>  <m_primary>  (70) 
energy

$$$$
70:0
     RDKit          3D

 51 54  0  0  0  0  0  0  0  0999 V2000
   59.9000   29.6710   45.2540 C   0  0  0  0  0  0  0  0  0  0  0  0
   58.9770   28.4840   45.2440 C   0  0  0  0  0  0  0  0  0  0  0  0
   58.9060   27.6600   44.1080 C   0  0  0  0  0  0  0  0  0  0  0  0
   58.0490   26.5570   44.0870 C   0  0  0  0  0  0  0  0  0  0  0  0
   57.2600   26.2630   45.2000 C   0  0  0  0  0  0  0  0  0  0  0  0
   57.3180   27.0780   46.3340 C   0  0  0  0  0  0  0  0  0  0  0  0
   58.1570   28.2060   46.3580 C   0  0  0  0  0  0  0  0  0  0  0  0
   58.2440   29.0340   47.5280 N   0  0  0  0  0  0  0  0  0  0  0  0
   59.2670   28.9810   48.5320 C   0  0  0  0  0  0  0  0  0  0  0  0
   59.8650   27.8910   48.7300 O   0  0  0  0  0  0  0  0  0  0  0  0
   59.6710   30.1990   49.3190 C   0  0  0  0  0  0  0  0  0  0  0  0
   59.8430   31.3480   48.4290 N   0  0  0  0  0  0  0  0  0  0  0  0
   58.8840   31.8810   47.6410 C   0  0  0  0  0  0  0  0  0  0  0  0
   59.3980   32.9260   46.8780 C   0  0  0  0  0  0  0  0  0  0  0  0
   58.6070   33.7070   45.8990 C   0  0  0  0  0  0  0  0  0  0  0  0
   57.7730   34.5490   46.3300 O   0  0  0  0  0  0  0  0  0  0  0  0
   58.7170   33.5100   44.4120 C   0  0  0  0  0  0  0  0  0  0  0  0
   57.8950   32.3430   43.9110 C   0  0  0  0  0  0  0  0  0  0  0  0
   57.7980   32.1170   42.5270 C   0  0  0  0  0  0  0  0  0  0  0  0
   57.0090   31.0760   42.0310 C   0  0  0  0  0  0  0  0  0  0  0  0
   56.2960   30.2560   42.9090 C   0  0  0  0  0  0  0  0  0  0  0  0
   56.3670   30.4800   44.2900 C   0  0  0  0  0  0  0  0  0  0  0  0
   55.6540   29.6750   45.1760 O   0  0  0  0  0  0  0  0  0  0  0  0
   57.1570   31.5220   44.7870 C   0  0  0  0  0  0  0  0  0  0  0  0
   60.7420   33.0230   47.2380 C   0  0  0  0  0  0  0  0  0  0  0  0
   61.7580   33.9060   46.8540 C   0  0  0  0  0  0  0  0  0  0  0  0
   63.0340   33.7400   47.4180 C   0  0  0  0  0  0  0  0  0  0  0  0
   63.2750   32.7130   48.3550 C   0  0  0  0  0  0  0  0  0  0  0  0
   64.5440   32.5590   48.9000 O   0  0  0  0  0  0  0  0  0  0  0  0
   62.2370   31.8510   48.7440 C   0  0  0  0  0  0  0  0  0  0  0  0
   60.9730   32.0390   48.1740 C   0  0  0  0  0  0  0  0  0  0  0  0
   60.1208   29.9550   46.2935 H   0  0  0  0  0  0  0  0  0  0  0  0
   60.8362   29.4118   44.7379 H   0  0  0  0  0  0  0  0  0  0  0  0
   59.4182   30.5145   44.7379 H   0  0  0  0  0  0  0  0  0  0  0  0
   59.5291   27.8849   43.2298 H   0  0  0  0  0  0  0  0  0  0  0  0
   57.9960   25.9195   43.1922 H   0  0  0  0  0  0  0  0  0  0  0  0
   56.5920   25.3892   45.1848 H   0  0  0  0  0  0  0  0  0  0  0  0
   56.7033   26.8354   47.2134 H   0  0  0  0  0  0  0  0  0  0  0  0
   58.8901   30.4277   50.0592 H   0  0  0  0  0  0  0  0  0  0  0  0
   60.6253   29.9952   49.8268 H   0  0  0  0  0  0  0  0  0  0  0  0
   57.8399   31.5365   47.6068 H   0  0  0  0  0  0  0  0  0  0  0  0
   58.3699   34.4251   43.9100 H   0  0  0  0  0  0  0  0  0  0  0  0
   59.7712   33.2934   44.1845 H   0  0  0  0  0  0  0  0  0  0  0  0
   58.3478   32.7651   41.8287 H   0  0  0  0  0  0  0  0  0  0  0  0
   56.9491   30.9017   40.9466 H   0  0  0  0  0  0  0  0  0  0  0  0
   55.6789   29.4346   42.5160 H   0  0  0  0  0  0  0  0  0  0  0  0
   55.8140   29.7160   46.1750 H   0  0  0  0  0  0  0  0  0  0  0  0
   57.2026   31.7021   45.8712 H   0  0  0  0  0  0  0  0  0  0  0  0
   61.5623   34.7097   46.1289 H   0  0  0  0  0  0  0  0  0  0  0  0
   63.8515   34.4159   47.1268 H   0  0  0  0  0  0  0  0  0  0  0  0
   62.4128   31.0498   49.4769 H   0  0  0  0  0  0  0  0  0  0  0  0
  1  2  1  0
  2  3  2  0
  3  4  1  0
  4  5  2  0
  5  6  1  0
  6  7  2  0
  7  8  1  0
  8  9  1  0
  9 10  2  0
  9 11  1  0
 11 12  1  0
 12 13  1  0
 13 14  2  0
 14 15  1  0
 15 16  2  0
 15 17  1  0
 17 18  1  0
 18 19  2  0
 19 20  1  0
 20 21  2  0
 21 22  1  0
 22 23  1  0
 22 24  2  0
 14 25  1  0
 25 26  2  0
 26 27  1  0
 27 28  2  0
 28 29  1  0
 28 30  1  0
 30 31  2  0
  7  2  1  0
 31 12  1  0
 24 18  1  0
 31 25  1  0
  1 32  1  0
  1 33  1  0
  1 34  1  0
  3 35  1  0
  4 36  1  0
  5 37  1  0
  6 38  1  0
 11 39  1  0
 11 40  1  0
 13 41  1  0
 17 42  1  0
 17 43  1  0
 19 44  1  0
 20 45  1  0
 21 46  1  0
 23 47  1  0
 24 48  1  0
 26 49  1  0
 27 50  1  0
 30 51  1  0
M  CHG  2   8  -1  29  -1
M  END
>  <UniqueID>  (71) 
66

>  <SMILES>  (71) 
Cc1ccccc1[N-]C(=O)Cn1cc(C(=O)Cc2cccc(O)c2)c2ccc([O-])cc21

>  <Energy>  (71) 
96.29605058359877

>  <Genealogy>  (71) 
Cc1ccccc1[N-]C(=O)Cn1cc(C(=O)Cc2cccc(O)c2)c2ccc([O-])cc21 (protonated)
Cc1ccccc1[N-]C(=O)Cn1cc(C(=O)Cc2cccc(O)c2)c2ccc([O-])cc21 (3D coordinates assigned)
Cc1ccccc1[N-]C(=O)Cn1cc(C(=O)Cc2cccc(O)c2)c2ccc([O-])cc21 (optimized conformer: 96.29605058359877 kcal/mol)

>  <smiles>  (71) 
Cc1ccccc1NC(=O)Cn1cc(C(=O)Cc2cccc(O)c2)c2ccc(O)cc21

>  <score_type>  (71) 
oracle

>  <origin>  (71) 
adg

>  <m_score__min__energy>  (71) 
-12.390000000000001

>  <m_primary>  (71) 
energy

$$$$
71:0
     RDKit          3D

 41 43  0  0  0  0  0  0  0  0999 V2000
   56.6050   31.3150   51.9880 C   0  0  0  0  0  0  0  0  0  0  0  0
   57.0670   30.1900   51.2480 O   0  0  0  0  0  0  0  0  0  0  0  0
   58.3580   30.0660   50.7080 C   0  0  0  0  0  0  0  0  0  0  0  0
   58.6270   30.3310   49.3510 C   0  0  0  0  0  0  0  0  0  0  0  0
   59.9270   30.1830   48.8320 C   0  0  0  0  0  0  0  0  0  0  0  0
   60.2140   30.4560   47.4010 C   0  0  0  0  0  0  0  0  0  0  0  0
   61.2310   29.9290   46.8700 O   0  0  0  0  0  0  0  0  0  0  0  0
   59.3330   31.3150   46.5700 C   0  0  0  0  0  0  0  0  0  0  0  0
   59.6660   32.6680   46.3690 C   0  0  0  0  0  0  0  0  0  0  0  0
   58.8460   33.4960   45.5960 C   0  0  0  0  0  0  0  0  0  0  0  0
   59.2860   35.1750   45.3420 Cl  0  0  0  0  0  0  0  0  0  0  0  0
   57.6780   32.9870   45.0260 C   0  0  0  0  0  0  0  0  0  0  0  0
   57.3270   31.6530   45.2310 C   0  0  0  0  0  0  0  0  0  0  0  0
   58.1320   30.8140   46.0180 C   0  0  0  0  0  0  0  0  0  0  0  0
   57.7900   29.4300   46.1700 N   0  0  0  0  0  0  0  0  0  0  0  0
   56.9900   28.6640   45.2590 C   0  0  0  0  0  0  0  0  0  0  0  0
   55.9150   29.1630   44.8340 O   0  0  0  0  0  0  0  0  0  0  0  0
   57.4650   27.3500   44.6990 C   0  0  0  0  0  0  0  0  0  0  0  0
   57.1480   26.2080   45.6210 C   0  0  0  0  0  0  0  0  0  0  0  0
   58.2380   25.0200   46.1130 S   0  0  0  0  0  0  0  0  0  0  0  0
   57.0860   24.2280   47.0460 C   0  0  0  0  0  0  0  0  0  0  0  0
   57.3090   23.1870   47.7160 O   0  0  0  0  0  0  0  0  0  0  0  0
   55.8780   24.8310   47.0050 N   0  0  0  0  0  0  0  0  0  0  0  0
   55.9110   25.9320   46.2080 C   0  0  0  0  0  0  0  0  0  0  0  0
   54.7810   26.7110   45.9950 O   0  0  0  0  0  0  0  0  0  0  0  0
   60.9640   29.7990   49.6960 C   0  0  0  0  0  0  0  0  0  0  0  0
   60.7050   29.5390   51.0430 C   0  0  0  0  0  0  0  0  0  0  0  0
   59.4110   29.6660   51.5520 C   0  0  0  0  0  0  0  0  0  0  0  0
   59.1900   29.3940   52.9020 O   0  0  0  0  0  0  0  0  0  0  0  0
   56.6908   31.1061   53.0646 H   0  0  0  0  0  0  0  0  0  0  0  0
   57.2144   32.1953   51.7356 H   0  0  0  0  0  0  0  0  0  0  0  0
   55.5528   31.5129   51.7356 H   0  0  0  0  0  0  0  0  0  0  0  0
   57.8114   30.6575   48.6890 H   0  0  0  0  0  0  0  0  0  0  0  0
   60.5797   33.0777   46.8242 H   0  0  0  0  0  0  0  0  0  0  0  0
   57.0347   33.6377   44.4154 H   0  0  0  0  0  0  0  0  0  0  0  0
   56.4105   31.2542   44.7716 H   0  0  0  0  0  0  0  0  0  0  0  0
   56.9714   27.1751   43.7317 H   0  0  0  0  0  0  0  0  0  0  0  0
   58.5573   27.4022   44.5796 H   0  0  0  0  0  0  0  0  0  0  0  0
   61.9891   29.7021   49.3089 H   0  0  0  0  0  0  0  0  0  0  0  0
   61.5259   29.2320   51.7078 H   0  0  0  0  0  0  0  0  0  0  0  0
   58.2650   29.4280   53.3150 H   0  0  0  0  0  0  0  0  0  0  0  0
  1  2  1  0
  2  3  1  0
  3  4  2  0
  4  5  1  0
  5  6  1  0
  6  7  2  0
  6  8  1  0
  8  9  2  0
  9 10  1  0
 10 11  1  0
 10 12  2  0
 12 13  1  0
 13 14  2  0
 14 15  1  0
 15 16  1  0
 16 17  2  0
 16 18  1  0
 18 19  1  0
 19 20  1  0
 20 21  1  0
 21 22  2  0
 21 23  1  0
 23 24  1  0
 24 25  1  0
  5 26  2  0
 26 27  1  0
 27 28  2  0
 28 29  1  0
 28  3  1  0
 14  8  1  0
 24 19  2  0
  1 30  1  0
  1 31  1  0
  1 32  1  0
  4 33  1  0
  9 34  1  0
 12 35  1  0
 13 36  1  0
 18 37  1  0
 18 38  1  0
 26 39  1  0
 27 40  1  0
 29 41  1  0
M  CHG  3  15  -1  23  -1  25  -1
M  END
>  <UniqueID>  (72) 
67

>  <SMILES>  (72) 
COc1cc(C(=O)c2cc(Cl)ccc2[N-]C(=O)Cc2sc(=O)[n-]c2[O-])ccc1O

>  <Energy>  (72) 
85.3929516856269

>  <Genealogy>  (72) 
COc1cc(C(=O)c2cc(Cl)ccc2[N-]C(=O)Cc2sc(=O)[n-]c2[O-])ccc1O (protonated)
COc1cc(C(=O)c2cc(Cl)ccc2[N-]C(=O)Cc2sc(=O)[n-]c2[O-])ccc1O (3D coordinates assigned)
COc1cc(C(=O)c2cc(Cl)ccc2[N-]C(=O)Cc2sc(=O)[n-]c2[O-])ccc1O (optimized conformer: 85.3929516856269 kcal/mol)

>  <smiles>  (72) 
COc1cc(C(=O)c2cc(Cl)ccc2NC(=O)Cc2sc(=O)[nH]c2O)ccc1O

>  <score_type>  (72) 
oracle

>  <origin>  (72) 
adg

>  <m_score__min__energy>  (72) 
-15.779999999999999

>  <m_primary>  (72) 
energy

$$$$
72:0
     RDKit          3D

 50 53  0  0  0  0  0  0  0  0999 V2000
   65.4130   32.4440   50.1110 C   0  0  0  0  0  0  0  0  0  0  0  0
   64.9300   33.1940   49.0040 O   0  0  0  0  0  0  0  0  0  0  0  0
   63.7240   32.9020   48.3610 C   0  0  0  0  0  0  0  0  0  0  0  0
   63.2230   33.7880   47.4040 C   0  0  0  0  0  0  0  0  0  0  0  0
   62.0180   33.4990   46.7620 C   0  0  0  0  0  0  0  0  0  0  0  0
   61.3080   32.3310   47.0900 C   0  0  0  0  0  0  0  0  0  0  0  0
   60.0800   31.9800   46.4340 N   0  0  0  0  0  0  0  0  0  0  0  0
   58.8410   32.6950   46.5990 C   0  0  0  0  0  0  0  0  0  0  0  0
   58.7870   33.7190   47.3290 O   0  0  0  0  0  0  0  0  0  0  0  0
   57.6550   32.2750   45.9160 N   0  0  0  0  0  0  0  0  0  0  0  0
   57.4870   31.0360   45.2150 C   0  0  0  0  0  0  0  0  0  0  0  0
   57.1350   31.0040   43.8550 C   0  0  0  0  0  0  0  0  0  0  0  0
   57.0160   29.7830   43.1890 C   0  0  0  0  0  0  0  0  0  0  0  0
   57.2560   28.5870   43.8680 C   0  0  0  0  0  0  0  0  0  0  0  0
   57.6190   28.6020   45.2250 C   0  0  0  0  0  0  0  0  0  0  0  0
   57.8790   27.3090   45.9570 C   0  0  0  0  0  0  0  0  0  0  0  0
   56.7580   26.3250   45.7400 C   0  0  0  0  0  0  0  0  0  0  0  0
   55.4860   26.7330   45.9920 N   0  0  0  0  0  0  0  0  0  0  0  0
   54.4420   25.9120   45.8730 N   0  0  0  0  0  0  0  0  0  0  0  0
   54.5940   24.6190   45.4960 C   0  0  0  0  0  0  0  0  0  0  0  0
   53.5800   23.8770   45.4110 O   0  0  0  0  0  0  0  0  0  0  0  0
   55.8740   24.1240   45.2080 C   0  0  0  0  0  0  0  0  0  0  0  0
   56.9810   24.9870   45.3460 C   0  0  0  0  0  0  0  0  0  0  0  0
   58.3020   24.4950   45.0530 N   0  0  0  0  0  0  0  0  0  0  0  0
   58.5520   23.0670   44.8870 C   0  0  0  0  0  0  0  0  0  0  0  0
   57.4020   22.4300   44.1100 C   0  0  0  0  0  0  0  0  0  0  0  0
   56.0730   22.6690   44.8360 C   0  0  0  0  0  0  0  0  0  0  0  0
   57.7550   29.8350   45.8850 C   0  0  0  0  0  0  0  0  0  0  0  0
   61.8590   31.4590   48.0390 C   0  0  0  0  0  0  0  0  0  0  0  0
   63.0340   31.7630   48.6510 N   0  0  0  0  0  0  0  0  0  0  0  0
   65.1003   32.9295   51.0472 H   0  0  0  0  0  0  0  0  0  0  0  0
   65.0011   31.4248   50.0711 H   0  0  0  0  0  0  0  0  0  0  0  0
   66.5113   32.3974   50.0711 H   0  0  0  0  0  0  0  0  0  0  0  0
   63.7747   34.7073   47.1581 H   0  0  0  0  0  0  0  0  0  0  0  0
   61.6235   34.1858   45.9987 H   0  0  0  0  0  0  0  0  0  0  0  0
   60.0810   31.1120   45.8530 H   0  0  0  0  0  0  0  0  0  0  0  0
   56.9527   31.9440   43.3135 H   0  0  0  0  0  0  0  0  0  0  0  0
   56.7324   29.7631   42.1264 H   0  0  0  0  0  0  0  0  0  0  0  0
   57.1604   27.6280   43.3377 H   0  0  0  0  0  0  0  0  0  0  0  0
   58.8179   26.8704   45.5881 H   0  0  0  0  0  0  0  0  0  0  0  0
   57.9488   27.5259   47.0332 H   0  0  0  0  0  0  0  0  0  0  0  0
   59.0930   25.1500   44.8800 H   0  0  0  0  0  0  0  0  0  0  0  0
   59.4916   22.9222   44.3337 H   0  0  0  0  0  0  0  0  0  0  0  0
   58.6294   22.5933   45.8767 H   0  0  0  0  0  0  0  0  0  0  0  0
   57.3520   22.8754   43.1055 H   0  0  0  0  0  0  0  0  0  0  0  0
   57.5783   21.3469   44.0334 H   0  0  0  0  0  0  0  0  0  0  0  0
   55.2491   22.3565   44.1775 H   0  0  0  0  0  0  0  0  0  0  0  0
   56.0882   22.0830   45.7668 H   0  0  0  0  0  0  0  0  0  0  0  0
   58.0748   29.8576   46.9372 H   0  0  0  0  0  0  0  0  0  0  0  0
   61.3376   30.5235   48.2899 H   0  0  0  0  0  0  0  0  0  0  0  0
  1  2  1  0
  2  3  1  0
  3  4  2  0
  4  5  1  0
  5  6  2  0
  6  7  1  0
  7  8  1  0
  8  9  2  0
  8 10  1  0
 10 11  1  0
 11 12  2  0
 12 13  1  0
 13 14  2  0
 14 15  1  0
 15 16  1  0
 16 17  1  0
 17 18  2  0
 18 19  1  0
 19 20  1  0
 20 21  2  0
 20 22  1  0
 22 23  2  0
 23 24  1  0
 24 25  1  0
 25 26  1  0
 26 27  1  0
 15 28  2  0
  6 29  1  0
 29 30  2  0
 30  3  1  0
 28 11  1  0
 23 17  1  0
 27 22  1  0
  1 31  1  0
  1 32  1  0
  1 33  1  0
  4 34  1  0
  5 35  1  0
  7 36  1  0
 12 37  1  0
 13 38  1  0
 14 39  1  0
 16 40  1  0
 16 41  1  0
 24 42  1  0
 25 43  1  0
 25 44  1  0
 26 45  1  0
 26 46  1  0
 27 47  1  0
 27 48  1  0
 28 49  1  0
 29 50  1  0
M  CHG  2  10  -1  19  -1
M  END
>  <UniqueID>  (73) 
68

>  <SMILES>  (73) 
COc1ccc(NC(=O)[N-]c2cccc(Cc3n[n-]c(=O)c4c3NCCC4)c2)cn1

>  <Energy>  (73) 
61.65797465512009

>  <Genealogy>  (73) 
COc1ccc(NC(=O)[N-]c2cccc(Cc3n[n-]c(=O)c4c3NCCC4)c2)cn1 (protonated)
COc1ccc(NC(=O)[N-]c2cccc(Cc3n[n-]c(=O)c4c3NCCC4)c2)cn1 (3D coordinates assigned)
COc1ccc(NC(=O)[N-]c2cccc(Cc3n[n-]c(=O)c4c3NCCC4)c2)cn1 (nonaromatic ring conformer: 61.65797465512009 kcal/mol)

>  <smiles>  (73) 
COc1ccc(NC(=O)Nc2cccc(Cc3n[nH]c(=O)c4c3NCCC4)c2)cn1

>  <score_type>  (73) 
oracle

>  <origin>  (73) 
adg

>  <m_score__min__energy>  (73) 
-12.24

>  <m_primary>  (73) 
energy

$$$$
73:0
     RDKit          3D

 38 40  0  0  1  0  0  0  0  0999 V2000
   61.4710   32.4050   48.9570 N   0  0  0  0  0  0  0  0  0  0  0  0
   60.6750   33.2160   48.3470 C   0  0  0  0  0  0  0  0  0  0  0  0
   60.2090   33.1510   47.0710 N   0  0  0  0  0  0  0  0  0  0  0  0
   59.4020   34.2000   46.8380 C   0  0  0  0  0  0  0  0  0  0  0  0
   58.5190   34.6040   45.3160 S   0  0  0  0  0  0  0  0  0  0  0  0
   57.0490   33.5400   45.1640 C   0  0  0  0  0  0  0  0  0  0  0  0
   57.4160   32.1130   44.9560 C   0  0  0  0  0  0  0  0  0  0  0  0
   56.5920   31.2570   44.5970 O   0  0  0  0  0  0  0  0  0  0  0  0
   58.7850   31.7150   45.1830 N   0  0  0  0  0  0  0  0  0  0  0  0
   59.1110   30.6770   45.8020 C   0  0  0  0  0  0  0  0  0  0  0  0
   59.7060   30.3750   46.9380 N   0  0  0  0  0  0  0  0  0  0  0  0
   59.8950   29.1460   47.2910 C   0  0  0  0  0  0  0  0  0  0  0  0
   59.4600   28.1280   46.4520 C   0  0  0  0  0  0  0  0  0  0  0  0
   59.5600   26.6670   46.6340 C   0  0  0  0  0  0  0  0  0  0  0  0
   58.3890   25.9140   46.1910 C   0  0  0  0  0  0  0  0  0  0  0  0
   58.4900   24.6120   45.6900 C   0  0  0  0  0  0  0  0  0  0  0  0
   57.3730   23.9090   45.2730 C   0  0  0  0  0  0  0  0  0  0  0  0
   56.1110   24.4620   45.3310 C   0  0  0  0  0  0  0  0  0  0  0  0
   56.0090   25.7440   45.8230 C   0  0  0  0  0  0  0  0  0  0  0  0
   54.7400   26.3390   45.8960 O   0  0  0  0  0  0  0  0  0  0  0  0
   57.1200   26.4410   46.2370 C   0  0  0  0  0  0  0  0  0  0  0  0
   58.7420   28.9620   45.0850 S   0  0  0  0  0  0  0  0  0  0  0  0
   59.3740   34.9200   47.9930 N   0  0  0  0  0  0  0  0  0  0  0  0
   60.1440   34.3220   48.9030 N   0  0  0  0  0  0  0  0  0  0  0  0
   62.1160   31.8160   48.3610 H   0  0  0  0  0  0  0  0  0  0  0  0
   56.4529   33.6233   46.0847 H   0  0  0  0  0  0  0  0  0  0  0  0
   56.4745   33.8754   44.2880 H   0  0  0  0  0  0  0  0  0  0  0  0
   60.0380   31.1980   47.5770 H   0  0  0  0  0  0  0  0  0  0  0  0
   60.3934   28.9095   48.2427 H   0  0  0  0  0  0  0  0  0  0  0  0
   60.4317   26.3100   46.0659 H   0  0  0  0  0  0  0  0  0  0  0  0
   59.6482   26.4946   47.7168 H   0  0  0  0  0  0  0  0  0  0  0  0
   59.4796   24.1360   45.6259 H   0  0  0  0  0  0  0  0  0  0  0  0
   57.4946   22.8863   44.8867 H   0  0  0  0  0  0  0  0  0  0  0  0
   55.2239   23.9029   44.9985 H   0  0  0  0  0  0  0  0  0  0  0  0
   54.3910   26.6970   46.7640 H   0  0  0  0  0  0  0  0  0  0  0  0
   56.9877   27.4632   46.6211 H   0  0  0  0  0  0  0  0  0  0  0  0
   58.8360   35.7980   48.1420 H   0  0  0  0  0  0  0  0  0  0  0  0
   60.2800   34.6960   49.8800 H   0  0  0  0  0  0  0  0  0  0  0  0
  1  2  2  3
  2  3  1  0
  3  4  2  0
  4  5  1  0
  5  6  1  0
  6  7  1  0
  7  8  2  0
  7  9  1  0
  9 10  2  0
 10 11  1  0
 11 12  1  0
 12 13  2  0
 13 14  1  0
 14 15  1  0
 15 16  2  0
 16 17  1  0
 17 18  2  0
 18 19  1  0
 19 20  1  0
 19 21  2  0
 13 22  1  0
  4 23  1  0
 23 24  1  0
 24  2  1  0
 22 10  1  0
 21 15  1  0
  1 25  1  0
  6 26  1  0
  6 27  1  0
 11 28  1  0
 12 29  1  0
 14 30  1  0
 14 31  1  0
 16 32  1  0
 17 33  1  0
 18 34  1  0
 20 35  1  0
 21 36  1  0
 23 37  1  0
 24 38  1  0
M  END
>  <smiles>  (74) 
N=c1nc(SCC(=O)N=c2[nH]cc(Cc3cccc(O)c3)s2)[nH][nH]1

>  <score_type>  (74) 
oracle

>  <origin>  (74) 
adg

>  <m_score__min__energy>  (74) 
-8.8499999999999996

>  <m_primary>  (74) 
energy

$$$$
74:0
     RDKit          3D

 43 44  0  0  0  0  0  0  0  0999 V2000
   63.5790   33.1520   47.1710 C   0  0  0  0  0  0  0  0  0  0  0  0
   62.3500   32.3430   47.5860 C   0  0  0  0  0  0  0  0  0  0  0  0
   61.0660   33.1870   47.6070 C   0  0  0  0  0  0  0  0  0  0  0  0
   60.9470   34.1100   46.3810 C   0  0  0  0  0  0  0  0  0  0  0  0
   59.6620   34.9580   46.3930 C   0  0  0  0  0  0  0  0  0  0  0  0
   58.4190   34.2590   45.8130 C   0  0  0  0  0  0  0  0  0  0  0  0
   58.7430   33.3580   44.6130 C   0  0  0  0  0  0  0  0  0  0  0  0
   58.0720   32.0200   44.7630 C   0  0  0  0  0  0  0  0  0  0  0  0
   57.1130   31.5980   43.8300 C   0  0  0  0  0  0  0  0  0  0  0  0
   56.4650   30.3690   43.9900 C   0  0  0  0  0  0  0  0  0  0  0  0
   56.7710   29.5410   45.0800 C   0  0  0  0  0  0  0  0  0  0  0  0
   56.0730   28.2930   45.2350 N   0  0  0  0  0  0  0  0  0  0  0  0
   56.6500   27.1170   45.8260 C   0  0  0  0  0  0  0  0  0  0  0  0
   58.0410   26.9720   45.8780 C   0  0  0  0  0  0  0  0  0  0  0  0
   58.5720   25.8310   46.4840 C   0  0  0  0  0  0  0  0  0  0  0  0
   59.8180   25.6670   46.5410 O   0  0  0  0  0  0  0  0  0  0  0  0
   57.7410   24.8960   47.0140 N   0  0  0  0  0  0  0  0  0  0  0  0
   56.3930   25.0560   46.9670 C   0  0  0  0  0  0  0  0  0  0  0  0
   55.6390   24.1820   47.4670 O   0  0  0  0  0  0  0  0  0  0  0  0
   55.8590   26.1590   46.3810 N   0  0  0  0  0  0  0  0  0  0  0  0
   57.7040   29.9820   46.0340 C   0  0  0  0  0  0  0  0  0  0  0  0
   58.3520   31.2100   45.8750 C   0  0  0  0  0  0  0  0  0  0  0  0
   64.1089   33.5008   48.0696 H   0  0  0  0  0  0  0  0  0  0  0  0
   64.2500   32.5184   46.5724 H   0  0  0  0  0  0  0  0  0  0  0  0
   63.2624   34.0188   46.5724 H   0  0  0  0  0  0  0  0  0  0  0  0
   62.2160   31.5155   46.8737 H   0  0  0  0  0  0  0  0  0  0  0  0
   62.5232   31.9748   48.6080 H   0  0  0  0  0  0  0  0  0  0  0  0
   60.1992   32.5100   47.6243 H   0  0  0  0  0  0  0  0  0  0  0  0
   61.0996   33.8242   48.5030 H   0  0  0  0  0  0  0  0  0  0  0  0
   61.8141   34.7867   46.3654 H   0  0  0  0  0  0  0  0  0  0  0  0
   60.9119   33.4696   45.4874 H   0  0  0  0  0  0  0  0  0  0  0  0
   59.4440   35.2334   47.4354 H   0  0  0  0  0  0  0  0  0  0  0  0
   59.8586   35.8253   45.7456 H   0  0  0  0  0  0  0  0  0  0  0  0
   57.9637   33.6421   46.6017 H   0  0  0  0  0  0  0  0  0  0  0  0
   57.7346   35.0443   45.4596 H   0  0  0  0  0  0  0  0  0  0  0  0
   58.3863   33.8406   43.6911 H   0  0  0  0  0  0  0  0  0  0  0  0
   59.8315   33.2069   44.5650 H   0  0  0  0  0  0  0  0  0  0  0  0
   56.8695   32.2369   42.9683 H   0  0  0  0  0  0  0  0  0  0  0  0
   55.7104   30.0496   43.2562 H   0  0  0  0  0  0  0  0  0  0  0  0
   55.1170   28.2140   44.8180 H   0  0  0  0  0  0  0  0  0  0  0  0
   58.7021   27.7403   45.4507 H   0  0  0  0  0  0  0  0  0  0  0  0
   57.9256   29.3567   46.9114 H   0  0  0  0  0  0  0  0  0  0  0  0
   59.0848   31.5434   46.6246 H   0  0  0  0  0  0  0  0  0  0  0  0
  1  2  1  0
  2  3  1  0
  3  4  1  0
  4  5  1  0
  5  6  1  0
  6  7  1  0
  7  8  1  0
  8  9  2  0
  9 10  1  0
 10 11  2  0
 11 12  1  0
 12 13  1  0
 13 14  2  0
 14 15  1  0
 15 16  2  0
 15 17  1  0
 17 18  1  0
 18 19  2  0
 18 20  1  0
 11 21  1  0
 21 22  2  0
 22  8  1  0
 20 13  1  0
  1 23  1  0
  1 24  1  0
  1 25  1  0
  2 26  1  0
  2 27  1  0
  3 28  1  0
  3 29  1  0
  4 30  1  0
  4 31  1  0
  5 32  1  0
  5 33  1  0
  6 34  1  0
  6 35  1  0
  7 36  1  0
  7 37  1  0
  9 38  1  0
 10 39  1  0
 12 40  1  0
 14 41  1  0
 21 42  1  0
 22 43  1  0
M  CHG  2  17  -1  20  -1
M  END
>  <UniqueID>  (75) 
69

>  <SMILES>  (75) 
CCCCCCCc1ccc(Nc2cc(=O)[n-]c(=O)[n-]2)cc1

>  <Energy>  (75) 
36.78390158308359

>  <Genealogy>  (75) 
CCCCCCCc1ccc(Nc2cc(=O)[n-]c(=O)[n-]2)cc1 (protonated)
CCCCCCCc1ccc(Nc2cc(=O)[n-]c(=O)[n-]2)cc1 (3D coordinates assigned)
CCCCCCCc1ccc(Nc2cc(=O)[n-]c(=O)[n-]2)cc1 (optimized conformer: 36.78390158308359 kcal/mol)

>  <smiles>  (75) 
CCCCCCCc1ccc(Nc2cc(=O)[nH]c(=O)[nH]2)cc1

>  <score_type>  (75) 
oracle

>  <origin>  (75) 
adg

>  <m_score__min__energy>  (75) 
-11.300000000000001

>  <m_primary>  (75) 
energy

$$$$
75:0
     RDKit          3D

 36 38  0  0  0  0  0  0  0  0999 V2000
   52.6630   24.4710   45.4570 H   0  0  0  0  0  0  0  0  0  0  0  0
   53.3590   23.7430   45.3400 O   0  0  0  0  0  0  0  0  0  0  0  0
   54.7230   24.0200   45.4080 C   0  0  0  0  0  0  0  0  0  0  0  0
   55.6620   23.0150   45.1520 C   0  0  0  0  0  0  0  0  0  0  0  0
   55.3238   21.9989   44.9006 H   0  0  0  0  0  0  0  0  0  0  0  0
   57.0270   23.2990   45.2150 C   0  0  0  0  0  0  0  0  0  0  0  0
   57.7619   22.5069   45.0089 H   0  0  0  0  0  0  0  0  0  0  0  0
   57.4630   24.5860   45.5390 C   0  0  0  0  0  0  0  0  0  0  0  0
   58.5405   24.8038   45.5791 H   0  0  0  0  0  0  0  0  0  0  0  0
   56.5310   25.6080   45.8150 C   0  0  0  0  0  0  0  0  0  0  0  0
   56.9640   26.9890   46.1460 C   0  0  0  0  0  0  0  0  0  0  0  0
   56.7595   27.3705   47.1573 H   0  0  0  0  0  0  0  0  0  0  0  0
   57.5910   27.7960   45.2780 C   0  0  0  0  0  0  0  0  0  0  0  0
   58.2616   27.3474   44.5303 H   0  0  0  0  0  0  0  0  0  0  0  0
   57.4170   29.2700   45.2850 C   0  0  0  0  0  0  0  0  0  0  0  0
   56.1970   29.8190   44.8730 C   0  0  0  0  0  0  0  0  0  0  0  0
   55.1460   28.9990   44.4760 O   0  0  0  0  0  0  0  0  0  0  0  0
   56.0250   31.1630   44.8690 N   0  0  0  0  0  0  0  0  0  0  0  0
   57.0140   32.0070   45.2500 C   0  0  0  0  0  0  0  0  0  0  0  0
   56.7920   33.2490   45.2490 O   0  0  0  0  0  0  0  0  0  0  0  0
   58.2330   31.5130   45.6360 N   0  0  0  0  0  0  0  0  0  0  0  0
   59.2880   32.4180   46.0260 C   0  0  0  0  0  0  0  0  0  0  0  0
   60.2630   32.0140   46.9540 C   0  0  0  0  0  0  0  0  0  0  0  0
   60.2236   31.0028   47.3853 H   0  0  0  0  0  0  0  0  0  0  0  0
   61.2830   32.8930   47.3310 C   0  0  0  0  0  0  0  0  0  0  0  0
   62.0440   32.5720   48.0575 H   0  0  0  0  0  0  0  0  0  0  0  0
   61.3370   34.1790   46.7860 C   0  0  0  0  0  0  0  0  0  0  0  0
   62.1403   34.8691   47.0833 H   0  0  0  0  0  0  0  0  0  0  0  0
   60.3700   34.5880   45.8630 C   0  0  0  0  0  0  0  0  0  0  0  0
   60.4126   35.6005   45.4352 H   0  0  0  0  0  0  0  0  0  0  0  0
   59.3490   33.7120   45.4830 C   0  0  0  0  0  0  0  0  0  0  0  0
   58.5904   34.0373   44.7559 H   0  0  0  0  0  0  0  0  0  0  0  0
   58.4520   30.1590   45.6440 C   0  0  0  0  0  0  0  0  0  0  0  0
   59.5960   29.7070   45.9340 O   0  0  0  0  0  0  0  0  0  0  0  0
   55.1540   25.3140   45.7350 C   0  0  0  0  0  0  0  0  0  0  0  0
   54.2060   26.3010   45.9890 O   0  0  0  0  0  0  0  0  0  0  0  0
  1  2  1  0
  2  3  1  0
  3  4  2  0
  4  5  1  0
  4  6  1  0
  6  7  1  0
  6  8  2  0
  8  9  1  0
  8 10  1  0
 10 11  1  0
 11 12  1  0
 11 13  2  0
 13 14  1  0
 13 15  1  0
 15 16  2  0
 16 17  1  0
 16 18  1  0
 18 19  1  0
 19 20  2  0
 19 21  1  0
 21 22  1  0
 22 23  2  0
 23 24  1  0
 23 25  1  0
 25 26  1  0
 25 27  2  0
 27 28  1  0
 27 29  1  0
 29 30  1  0
 29 31  2  0
 31 32  1  0
 21 33  1  0
 33 34  2  0
 10 35  2  0
 35 36  1  0
 35  3  1  0
 33 15  1  0
 31 22  1  0
M  CHG  3  17  -1  18  -1  36  -1
M  END
>  <UniqueID>  (76) 
70

>  <SMILES>  (76) 
O=c1[n-]c([O-])c(/C=C/c2cccc(O)c2[O-])c(=O)n1-c1ccccc1

>  <Energy>  (76) 
59.074135414235755

>  <Genealogy>  (76) 
O=c1[n-]c([O-])c(C=Cc2cccc(O)c2[O-])c(=O)n1-c1ccccc1 (protonated)
O=c1[n-]c([O-])c(/C=C/c2cccc(O)c2[O-])c(=O)n1-c1ccccc1 (cis-trans isomerization)
O=c1[n-]c([O-])c(/C=C/c2cccc(O)c2[O-])c(=O)n1-c1ccccc1 (3D coordinates assigned)
O=c1[n-]c([O-])c(/C=C/c2cccc(O)c2[O-])c(=O)n1-c1ccccc1 (optimized conformer: 59.074135414235755 kcal/mol)

>  <smiles>  (76) 
O=c1[nH]c(O)c(C=Cc2cccc(O)c2O)c(=O)n1-c1ccccc1

>  <score_type>  (76) 
oracle

>  <origin>  (76) 
adg

>  <m_score__min__energy>  (76) 
-15.73

>  <m_primary>  (76) 
energy

$$$$
76:0
     RDKit          3D

 60 63  0  0  0  0  0  0  0  0999 V2000
   57.9310   22.4520   44.2660 C   0  0  0  0  0  0  0  0  0  0  0  0
   58.9250   22.9250   45.2820 C   0  0  0  0  0  0  0  0  0  0  0  0
   60.0410   22.3490   45.3610 O   0  0  0  0  0  0  0  0  0  0  0  0
   58.6080   23.9580   46.2210 N   0  0  0  0  0  0  0  0  0  0  0  0
   57.3200   24.5070   46.3520 N   0  0  0  0  0  0  0  0  0  0  0  0
   56.8370   25.5970   45.7320 C   0  0  0  0  0  0  0  0  0  0  0  0
   57.6410   26.5420   44.8900 C   0  0  0  0  0  0  0  0  0  0  0  0
   58.4120   27.5260   45.7450 C   0  0  0  0  0  0  0  0  0  0  0  0
   58.6810   27.2090   47.0900 C   0  0  0  0  0  0  0  0  0  0  0  0
   59.3990   28.0920   47.8970 C   0  0  0  0  0  0  0  0  0  0  0  0
   59.8370   29.3120   47.3820 C   0  0  0  0  0  0  0  0  0  0  0  0
   59.5590   29.6540   46.0580 C   0  0  0  0  0  0  0  0  0  0  0  0
   58.8380   28.7710   45.2230 C   0  0  0  0  0  0  0  0  0  0  0  0
   58.5130   29.1080   43.8960 O   0  0  0  0  0  0  0  0  0  0  0  0
   57.2160   29.4740   43.4210 C   0  0  0  0  0  0  0  0  0  0  0  0
   56.3380   29.9770   44.5320 C   0  0  0  0  0  0  0  0  0  0  0  0
   55.6720   29.1520   45.2110 O   0  0  0  0  0  0  0  0  0  0  0  0
   56.2750   31.3800   44.8240 N   0  0  0  0  0  0  0  0  0  0  0  0
   57.3690   32.2430   45.1740 C   0  0  0  0  0  0  0  0  0  0  0  0
   57.8740   33.1100   44.1970 C   0  0  0  0  0  0  0  0  0  0  0  0
   58.8940   34.0120   44.5090 C   0  0  0  0  0  0  0  0  0  0  0  0
   59.4200   34.0550   45.8040 C   0  0  0  0  0  0  0  0  0  0  0  0
   58.9240   33.1950   46.7930 C   0  0  0  0  0  0  0  0  0  0  0  0
   59.6040   33.2220   48.4190 S   0  0  0  0  0  0  0  0  0  0  0  0
   59.9600   34.6350   48.7930 O   0  0  0  0  0  0  0  0  0  0  0  0
   58.5580   32.7250   49.3790 O   0  0  0  0  0  0  0  0  0  0  0  0
   61.0130   32.1790   48.4720 N   0  0  0  0  0  0  0  0  0  0  0  0
   61.7410   32.1640   47.1890 C   0  0  0  0  0  0  0  0  0  0  0  0
   62.6720   33.3870   47.0100 C   0  0  0  0  0  0  0  0  0  0  0  0
   62.6840   34.2370   48.1380 O   0  0  0  0  0  0  0  0  0  0  0  0
   63.0080   33.4870   49.2860 C   0  0  0  0  0  0  0  0  0  0  0  0
   61.8960   32.4700   49.6210 C   0  0  0  0  0  0  0  0  0  0  0  0
   57.8940   32.2970   46.4790 C   0  0  0  0  0  0  0  0  0  0  0  0
   55.5160   25.7400   45.9710 N   0  0  0  0  0  0  0  0  0  0  0  0
   55.1430   24.7220   46.7390 N   0  0  0  0  0  0  0  0  0  0  0  0
   56.2430   23.9750   46.9580 C   0  0  0  0  0  0  0  0  0  0  0  0
   56.2290   22.5620   47.7860 S   0  0  0  0  0  0  0  0  0  0  0  0
   57.0526   22.0340   44.7794 H   0  0  0  0  0  0  0  0  0  0  0  0
   57.6194   23.2983   43.6363 H   0  0  0  0  0  0  0  0  0  0  0  0
   58.3912   21.6763   43.6363 H   0  0  0  0  0  0  0  0  0  0  0  0
   58.3516   25.9631   44.2818 H   0  0  0  0  0  0  0  0  0  0  0  0
   56.9492   27.1085   44.2493 H   0  0  0  0  0  0  0  0  0  0  0  0
   58.3220   26.2570   47.5082 H   0  0  0  0  0  0  0  0  0  0  0  0
   59.6200   27.8256   48.9411 H   0  0  0  0  0  0  0  0  0  0  0  0
   60.4028   30.0060   48.0209 H   0  0  0  0  0  0  0  0  0  0  0  0
   59.9043   30.6199   45.6607 H   0  0  0  0  0  0  0  0  0  0  0  0
   57.3237   30.2662   42.6654 H   0  0  0  0  0  0  0  0  0  0  0  0
   56.7439   28.5789   42.9897 H   0  0  0  0  0  0  0  0  0  0  0  0
   57.4645   33.0805   43.1765 H   0  0  0  0  0  0  0  0  0  0  0  0
   59.2840   34.6894   43.7350 H   0  0  0  0  0  0  0  0  0  0  0  0
   60.2244   34.7650   46.0467 H   0  0  0  0  0  0  0  0  0  0  0  0
   62.3503   31.2493   47.1419 H   0  0  0  0  0  0  0  0  0  0  0  0
   60.9919   32.1991   46.3842 H   0  0  0  0  0  0  0  0  0  0  0  0
   63.6956   33.0260   46.8313 H   0  0  0  0  0  0  0  0  0  0  0  0
   62.2904   33.9713   46.1597 H   0  0  0  0  0  0  0  0  0  0  0  0
   63.9480   32.9446   49.1067 H   0  0  0  0  0  0  0  0  0  0  0  0
   63.1148   34.1784   50.1349 H   0  0  0  0  0  0  0  0  0  0  0  0
   62.3668   31.5310   49.9477 H   0  0  0  0  0  0  0  0  0  0  0  0
   61.2720   32.9136   50.4109 H   0  0  0  0  0  0  0  0  0  0  0  0
   57.4937   31.6306   47.2572 H   0  0  0  0  0  0  0  0  0  0  0  0
  1  2  1  0
  2  3  2  0
  2  4  1  0
  4  5  1  0
  5  6  1  0
  6  7  1  0
  7  8  1  0
  8  9  2  0
  9 10  1  0
 10 11  2  0
 11 12  1  0
 12 13  2  0
 13 14  1  0
 14 15  1  0
 15 16  1  0
 16 17  2  0
 16 18  1  0
 18 19  1  0
 19 20  2  0
 20 21  1  0
 21 22  2  0
 22 23  1  0
 23 24  1  0
 24 25  2  0
 24 26  2  0
 24 27  1  0
 27 28  1  0
 28 29  1  0
 29 30  1  0
 30 31  1  0
 31 32  1  0
 23 33  2  0
  6 34  2  0
 34 35  1  0
 35 36  1  0
 36 37  2  0
 36  5  1  0
 13  8  1  0
 33 19  1  0
 32 27  1  0
  1 38  1  0
  1 39  1  0
  1 40  1  0
  7 41  1  0
  7 42  1  0
  9 43  1  0
 10 44  1  0
 11 45  1  0
 12 46  1  0
 15 47  1  0
 15 48  1  0
 20 49  1  0
 21 50  1  0
 22 51  1  0
 28 52  1  0
 28 53  1  0
 29 54  1  0
 29 55  1  0
 31 56  1  0
 31 57  1  0
 32 58  1  0
 32 59  1  0
 33 60  1  0
M  CHG  3   4  -1  18  -1  35  -1
M  END
>  <UniqueID>  (77) 
71

>  <SMILES>  (77) 
CC(=O)[N-]n1c(Cc2ccccc2OCC(=O)[N-]c2cccc(S(=O)(=O)N3CCOCC3)c2)n[n-]c1=S

>  <Energy>  (77) 
119.13478657316976

>  <Genealogy>  (77) 
CC(=O)[N-]n1c(Cc2ccccc2OCC(=O)[N-]c2cccc(S(=O)(=O)N3CCOCC3)c2)n[n-]c1=S (protonated)
CC(=O)[N-]n1c(Cc2ccccc2OCC(=O)[N-]c2cccc(S(=O)(=O)N3CCOCC3)c2)n[n-]c1=S (3D coordinates assigned)
CC(=O)[N-]n1c(Cc2ccccc2OCC(=O)[N-]c2cccc(S(=O)(=O)N3CCOCC3)c2)n[n-]c1=S (nonaromatic ring conformer: 119.13478657316976 kcal/mol)

>  <smiles>  (77) 
CC(=O)Nn1c(Cc2ccccc2OCC(=O)Nc2cccc(S(=O)(=O)N3CCOCC3)c2)n[nH]c1=S

>  <score_type>  (77) 
oracle

>  <origin>  (77) 
adg

>  <m_score__min__energy>  (77) 
-15.390000000000001

>  <m_primary>  (77) 
energy

$$$$
77:0
     RDKit          3D

 68 71  0  0  0  0  0  0  0  0999 V2000
   58.7020   31.8840   53.0620 C   0  0  0  0  0  0  0  0  0  0  0  0
   58.7540   31.9190   51.5990 N   0  0  0  0  0  0  0  0  0  0  0  0
   59.2650   33.1170   50.9070 C   0  0  0  0  0  0  0  0  0  0  0  0
   60.7810   33.0250   50.6320 C   0  0  0  0  0  0  0  0  0  0  0  0
   61.2450   31.5480   50.5780 C   0  0  0  0  0  0  0  0  0  0  0  0
   62.7680   31.3830   50.7650 C   0  0  0  0  0  0  0  0  0  0  0  0
   63.4750   32.6430   50.5040 N   0  0  0  0  0  0  0  0  0  0  0  0
   64.6110   32.6560   49.6340 C   0  0  0  0  0  0  0  0  0  0  0  0
   65.7160   32.2090   50.0410 O   0  0  0  0  0  0  0  0  0  0  0  0
   64.4550   33.0910   48.2100 C   0  0  0  0  0  0  0  0  0  0  0  0
   63.0270   32.8900   47.7840 C   0  0  0  0  0  0  0  0  0  0  0  0
   62.1250   33.9670   47.7910 C   0  0  0  0  0  0  0  0  0  0  0  0
   60.7630   33.7500   47.5670 C   0  0  0  0  0  0  0  0  0  0  0  0
   60.2860   32.4520   47.3120 C   0  0  0  0  0  0  0  0  0  0  0  0
   58.8850   32.1960   47.1480 N   0  0  0  0  0  0  0  0  0  0  0  0
   58.0710   32.5160   45.6510 S   0  0  0  0  0  0  0  0  0  0  0  0
   56.7370   33.1440   45.9390 O   0  0  0  0  0  0  0  0  0  0  0  0
   58.8940   33.4800   44.8440 O   0  0  0  0  0  0  0  0  0  0  0  0
   57.8210   31.0240   44.7540 C   0  0  0  0  0  0  0  0  0  0  0  0
   56.6470   30.8310   44.0110 C   0  0  0  0  0  0  0  0  0  0  0  0
   56.4330   29.6240   43.3400 C   0  0  0  0  0  0  0  0  0  0  0  0
   57.3940   28.6090   43.4000 C   0  0  0  0  0  0  0  0  0  0  0  0
   58.5680   28.7990   44.1380 C   0  0  0  0  0  0  0  0  0  0  0  0
   58.7810   30.0030   44.8160 C   0  0  0  0  0  0  0  0  0  0  0  0
   61.1950   31.3860   47.2430 C   0  0  0  0  0  0  0  0  0  0  0  0
   62.5540   31.6000   47.4960 C   0  0  0  0  0  0  0  0  0  0  0  0
   63.0760   33.8780   51.1900 C   0  0  0  0  0  0  0  0  0  0  0  0
   61.6180   33.8030   51.6670 C   0  0  0  0  0  0  0  0  0  0  0  0
   58.1880   30.8080   50.8690 C   0  0  0  0  0  0  0  0  0  0  0  0
   57.3360   30.0650   51.4240 O   0  0  0  0  0  0  0  0  0  0  0  0
   58.5230   30.5610   49.4970 N   0  0  0  0  0  0  0  0  0  0  0  0
   59.0580   29.3400   48.9770 C   0  0  0  0  0  0  0  0  0  0  0  0
   58.5990   28.7970   47.7620 C   0  0  0  0  0  0  0  0  0  0  0  0
   59.1970   27.6480   47.2360 C   0  0  0  0  0  0  0  0  0  0  0  0
   60.2620   27.0440   47.9080 C   0  0  0  0  0  0  0  0  0  0  0  0
   60.7220   27.5760   49.1160 C   0  0  0  0  0  0  0  0  0  0  0  0
   60.1260   28.7260   49.6440 C   0  0  0  0  0  0  0  0  0  0  0  0
   59.5486   32.4538   53.4727 H   0  0  0  0  0  0  0  0  0  0  0  0
   57.7577   32.3311   53.4061 H   0  0  0  0  0  0  0  0  0  0  0  0
   58.7607   30.8409   53.4061 H   0  0  0  0  0  0  0  0  0  0  0  0
   58.7364   33.2257   49.9485 H   0  0  0  0  0  0  0  0  0  0  0  0
   59.0907   33.9856   51.5591 H   0  0  0  0  0  0  0  0  0  0  0  0
   60.9493   33.4937   49.6512 H   0  0  0  0  0  0  0  0  0  0  0  0
   60.7322   30.9909   51.3759 H   0  0  0  0  0  0  0  0  0  0  0  0
   60.9943   31.1625   49.5787 H   0  0  0  0  0  0  0  0  0  0  0  0
   62.9702   31.0657   51.7986 H   0  0  0  0  0  0  0  0  0  0  0  0
   63.1268   30.6280   50.0500 H   0  0  0  0  0  0  0  0  0  0  0  0
   64.7194   34.1549   48.1195 H   0  0  0  0  0  0  0  0  0  0  0  0
   65.1193   32.4949   47.5671 H   0  0  0  0  0  0  0  0  0  0  0  0
   62.4932   34.9873   47.9739 H   0  0  0  0  0  0  0  0  0  0  0  0
   60.0617   34.5972   47.5902 H   0  0  0  0  0  0  0  0  0  0  0  0
   58.2870   32.0910   47.9990 H   0  0  0  0  0  0  0  0  0  0  0  0
   55.8938   31.6308   43.9564 H   0  0  0  0  0  0  0  0  0  0  0  0
   55.5082   29.4718   42.7642 H   0  0  0  0  0  0  0  0  0  0  0  0
   57.2269   27.6614   42.8670 H   0  0  0  0  0  0  0  0  0  0  0  0
   59.3234   28.0007   44.1846 H   0  0  0  0  0  0  0  0  0  0  0  0
   59.7024   30.1498   45.3987 H   0  0  0  0  0  0  0  0  0  0  0  0
   60.8376   30.3772   46.9888 H   0  0  0  0  0  0  0  0  0  0  0  0
   63.2556   30.7532   47.4691 H   0  0  0  0  0  0  0  0  0  0  0  0
   63.7307   34.0324   52.0604 H   0  0  0  0  0  0  0  0  0  0  0  0
   63.1679   34.7147   50.4819 H   0  0  0  0  0  0  0  0  0  0  0  0
   61.5752   33.2862   52.6371 H   0  0  0  0  0  0  0  0  0  0  0  0
   61.2141   34.8203   51.7769 H   0  0  0  0  0  0  0  0  0  0  0  0
   57.7679   29.2779   47.2253 H   0  0  0  0  0  0  0  0  0  0  0  0
   58.8285   27.2194   46.2923 H   0  0  0  0  0  0  0  0  0  0  0  0
   60.7398   26.1477   47.4857 H   0  0  0  0  0  0  0  0  0  0  0  0
   61.5518   27.0908   49.6508 H   0  0  0  0  0  0  0  0  0  0  0  0
   60.4979   29.1506   50.5881 H   0  0  0  0  0  0  0  0  0  0  0  0
  1  2  1  0
  2  3  1  0
  3  4  1  0
  4  5  1  0
  5  6  1  0
  6  7  1  0
  7  8  1  0
  8  9  2  0
  8 10  1  0
 10 11  1  0
 11 12  2  0
 12 13  1  0
 13 14  2  0
 14 15  1  0
 15 16  1  0
 16 17  2  0
 16 18  2  0
 16 19  1  0
 19 20  2  0
 20 21  1  0
 21 22  2  0
 22 23  1  0
 23 24  2  0
 14 25  1  0
 25 26  2  0
  7 27  1  0
 27 28  1  0
  2 29  1  0
 29 30  2  0
 29 31  1  0
 31 32  1  0
 32 33  2  0
 33 34  1  0
 34 35  2  0
 35 36  1  0
 36 37  2  0
 28  4  1  0
 37 32  1  0
 26 11  1  0
 24 19  1  0
  1 38  1  0
  1 39  1  0
  1 40  1  0
  3 41  1  0
  3 42  1  0
  4 43  1  0
  5 44  1  0
  5 45  1  0
  6 46  1  0
  6 47  1  0
 10 48  1  0
 10 49  1  0
 12 50  1  0
 13 51  1  0
 15 52  1  0
 20 53  1  0
 21 54  1  0
 22 55  1  0
 23 56  1  0
 24 57  1  0
 25 58  1  0
 26 59  1  0
 27 60  1  0
 27 61  1  0
 28 62  1  0
 28 63  1  0
 33 64  1  0
 34 65  1  0
 35 66  1  0
 36 67  1  0
 37 68  1  0
M  CHG  1  31  -1
M  END
>  <UniqueID>  (78) 
72

>  <SMILES>  (78) 
CN(CC1CCN(C(=O)Cc2ccc(NS(=O)(=O)c3ccccc3)cc2)CC1)C(=O)[N-]c1ccccc1

>  <Energy>  (78) 
78.41005230707466

>  <Genealogy>  (78) 
CN(CC1CCN(C(=O)Cc2ccc(NS(=O)(=O)c3ccccc3)cc2)CC1)C(=O)[N-]c1ccccc1 (protonated)
CN(CC1CCN(C(=O)Cc2ccc(NS(=O)(=O)c3ccccc3)cc2)CC1)C(=O)[N-]c1ccccc1 (3D coordinates assigned)
CN(CC1CCN(C(=O)Cc2ccc(NS(=O)(=O)c3ccccc3)cc2)CC1)C(=O)[N-]c1ccccc1 (nonaromatic ring conformer: 78.41005230707466 kcal/mol)

>  <smiles>  (78) 
CN(CC1CCN(C(=O)Cc2ccc(NS(=O)(=O)c3ccccc3)cc2)CC1)C(=O)Nc1ccccc1

>  <score_type>  (78) 
oracle

>  <origin>  (78) 
adg

>  <m_score__min__energy>  (78) 
-12.19

>  <m_primary>  (78) 
energy

$$$$
78:0
     RDKit          3D

 48 50  0  0  0  0  0  0  0  0999 V2000
   56.6460   21.9840   43.5340 C   0  0  0  0  0  0  0  0  0  0  0  0
   56.8410   23.4230   43.8870 C   0  0  0  0  0  0  0  0  0  0  0  0
   57.4200   24.2940   43.0920 O   0  0  0  0  0  0  0  0  0  0  0  0
   57.4300   25.4670   43.6850 C   0  0  0  0  0  0  0  0  0  0  0  0
   57.9940   26.6960   43.0460 C   0  0  0  0  0  0  0  0  0  0  0  0
   56.8450   25.3640   44.9420 C   0  0  0  0  0  0  0  0  0  0  0  0
   56.6360   26.4390   45.9360 C   0  0  0  0  0  0  0  0  0  0  0  0
   57.0950   26.2990   47.1000 O   0  0  0  0  0  0  0  0  0  0  0  0
   55.8940   27.6240   45.6230 N   0  0  0  0  0  0  0  0  0  0  0  0
   56.4600   28.8670   45.1860 C   0  0  0  0  0  0  0  0  0  0  0  0
   55.7680   29.6330   44.2420 C   0  0  0  0  0  0  0  0  0  0  0  0
   56.3110   30.8310   43.7700 C   0  0  0  0  0  0  0  0  0  0  0  0
   57.5570   31.2830   44.2380 C   0  0  0  0  0  0  0  0  0  0  0  0
   58.1550   32.5700   43.7000 C   0  0  0  0  0  0  0  0  0  0  0  0
   58.0990   33.7200   44.6430 N   0  0  0  0  0  0  0  0  0  0  0  0
   57.0780   33.5620   45.7140 C   0  0  0  0  0  0  0  0  0  0  0  0
   57.7230   33.2900   47.0850 C   0  0  0  0  0  0  0  0  0  0  0  0
   58.6080   34.3210   47.5040 O   0  0  0  0  0  0  0  0  0  0  0  0
   59.2890   34.9650   46.4330 C   0  0  0  0  0  0  0  0  0  0  0  0
   59.4330   34.0920   45.1740 C   0  0  0  0  0  0  0  0  0  0  0  0
   58.2120   30.5490   45.2410 C   0  0  0  0  0  0  0  0  0  0  0  0
   57.6720   29.3480   45.7070 C   0  0  0  0  0  0  0  0  0  0  0  0
   56.4630   24.0390   45.0680 C   0  0  0  0  0  0  0  0  0  0  0  0
   55.7440   23.4120   46.2230 C   0  0  0  0  0  0  0  0  0  0  0  0
   56.5653   21.3882   44.4551 H   0  0  0  0  0  0  0  0  0  0  0  0
   55.7246   21.8729   42.9435 H   0  0  0  0  0  0  0  0  0  0  0  0
   57.5046   21.6317   42.9435 H   0  0  0  0  0  0  0  0  0  0  0  0
   58.3171   27.4000   43.8270 H   0  0  0  0  0  0  0  0  0  0  0  0
   58.8562   26.4213   42.4205 H   0  0  0  0  0  0  0  0  0  0  0  0
   57.2236   27.1706   42.4205 H   0  0  0  0  0  0  0  0  0  0  0  0
   54.7914   29.2906   43.8693 H   0  0  0  0  0  0  0  0  0  0  0  0
   55.7591   31.4249   43.0265 H   0  0  0  0  0  0  0  0  0  0  0  0
   59.2098   32.3808   43.4516 H   0  0  0  0  0  0  0  0  0  0  0  0
   57.5504   32.8535   42.8259 H   0  0  0  0  0  0  0  0  0  0  0  0
   57.7840   34.5340   44.0620 H   0  0  0  0  0  0  0  0  0  0  0  0
   56.4832   34.4851   45.7775 H   0  0  0  0  0  0  0  0  0  0  0  0
   56.4449   32.6998   45.4575 H   0  0  0  0  0  0  0  0  0  0  0  0
   56.9233   33.1906   47.8337 H   0  0  0  0  0  0  0  0  0  0  0  0
   58.3172   32.3693   46.9889 H   0  0  0  0  0  0  0  0  0  0  0  0
   58.7303   35.8733   46.1631 H   0  0  0  0  0  0  0  0  0  0  0  0
   60.3066   35.1862   46.7874 H   0  0  0  0  0  0  0  0  0  0  0  0
   59.9845   34.6535   44.4055 H   0  0  0  0  0  0  0  0  0  0  0  0
   59.9786   33.1742   45.4386 H   0  0  0  0  0  0  0  0  0  0  0  0
   59.1569   30.9228   45.6624 H   0  0  0  0  0  0  0  0  0  0  0  0
   58.1985   28.7765   46.4856 H   0  0  0  0  0  0  0  0  0  0  0  0
   56.1707   23.7841   47.1661 H   0  0  0  0  0  0  0  0  0  0  0  0
   54.6764   23.6727   46.1755 H   0  0  0  0  0  0  0  0  0  0  0  0
   55.8570   22.3189   46.1755 H   0  0  0  0  0  0  0  0  0  0  0  0
  1  2  1  0
  2  3  1  0
  3  4  1  0
  4  5  1  0
  4  6  2  0
  6  7  1  0
  7  8  2  0
  7  9  1  0
  9 10  1  0
 10 11  2  0
 11 12  1  0
 12 13  2  0
 13 14  1  0
 14 15  1  0
 15 16  1  0
 16 17  1  0
 17 18  1  0
 18 19  1  0
 19 20  1  0
 13 21  1  0
 21 22  2  0
  6 23  1  0
 23 24  1  0
 23  2  2  0
 22 10  1  0
 20 15  1  0
  1 25  1  0
  1 26  1  0
  1 27  1  0
  5 28  1  0
  5 29  1  0
  5 30  1  0
 11 31  1  0
 12 32  1  0
 14 33  1  0
 14 34  1  0
 15 35  1  0
 16 36  1  0
 16 37  1  0
 17 38  1  0
 17 39  1  0
 19 40  1  0
 19 41  1  0
 20 42  1  0
 20 43  1  0
 21 44  1  0
 22 45  1  0
 24 46  1  0
 24 47  1  0
 24 48  1  0
M  CHG  2   9  -1  15   1
M  END
>  <UniqueID>  (79) 
73

>  <SMILES>  (79) 
Cc1oc(C)c(C(=O)[N-]c2ccc(C[NH+]3CCOCC3)cc2)c1C

>  <Energy>  (79) 
96.05755715910632

>  <Genealogy>  (79) 
Cc1oc(C)c(C(=O)[N-]c2ccc(C[NH+]3CCOCC3)cc2)c1C (protonated)
Cc1oc(C)c(C(=O)[N-]c2ccc(C[NH+]3CCOCC3)cc2)c1C (3D coordinates assigned)
Cc1oc(C)c(C(=O)[N-]c2ccc(C[NH+]3CCOCC3)cc2)c1C (nonaromatic ring conformer: 96.05755715910632 kcal/mol)

>  <smiles>  (79) 
Cc1oc(C)c(C(=O)Nc2ccc(CN3CCOCC3)cc2)c1C

>  <score_type>  (79) 
oracle

>  <origin>  (79) 
adg

>  <m_score__min__energy>  (79) 
-8.0899999999999999

>  <m_primary>  (79) 
energy

$$$$
79:0
     RDKit          3D

 38 40  0  0  0  0  0  0  0  0999 V2000
   55.6020   29.0910   44.8250 O   0  0  0  0  0  0  0  0  0  0  0  0
   56.6480   28.8420   45.4800 C   0  0  0  0  0  0  0  0  0  0  0  0
   57.3630   29.9350   46.0720 N   0  0  0  0  0  0  0  0  0  0  0  0
   57.7090   31.1720   45.4280 C   0  0  0  0  0  0  0  0  0  0  0  0
   57.5770   31.3310   44.0370 C   0  0  0  0  0  0  0  0  0  0  0  0
   57.9010   32.5470   43.4330 C   0  0  0  0  0  0  0  0  0  0  0  0
   58.3450   33.6160   44.2100 C   0  0  0  0  0  0  0  0  0  0  0  0
   58.4580   33.4770   45.5960 C   0  0  0  0  0  0  0  0  0  0  0  0
   58.1310   32.2560   46.2180 C   0  0  0  0  0  0  0  0  0  0  0  0
   58.2200   32.0740   47.6080 O   0  0  0  0  0  0  0  0  0  0  0  0
   59.3140   31.4620   48.2950 C   0  0  0  0  0  0  0  0  0  0  0  0
   60.5700   32.2760   48.1300 C   0  0  0  0  0  0  0  0  0  0  0  0
   61.5850   31.8540   47.2540 C   0  0  0  0  0  0  0  0  0  0  0  0
   62.7530   32.6110   47.1130 C   0  0  0  0  0  0  0  0  0  0  0  0
   62.9200   33.7850   47.8510 C   0  0  0  0  0  0  0  0  0  0  0  0
   61.9210   34.2050   48.7340 C   0  0  0  0  0  0  0  0  0  0  0  0
   60.7510   33.4520   48.8770 C   0  0  0  0  0  0  0  0  0  0  0  0
   57.0670   27.4330   45.6770 C   0  0  0  0  0  0  0  0  0  0  0  0
   58.4250   27.0790   45.5980 C   0  0  0  0  0  0  0  0  0  0  0  0
   58.8200   25.7550   45.7920 C   0  0  0  0  0  0  0  0  0  0  0  0
   57.8540   24.7880   46.0760 C   0  0  0  0  0  0  0  0  0  0  0  0
   58.1920   23.5900   46.2560 O   0  0  0  0  0  0  0  0  0  0  0  0
   56.5440   25.1410   46.1600 N   0  0  0  0  0  0  0  0  0  0  0  0
   56.1300   26.4230   45.9720 C   0  0  0  0  0  0  0  0  0  0  0  0
   54.7730   26.7130   46.0600 O   0  0  0  0  0  0  0  0  0  0  0  0
   57.2167   30.4932   43.4220 H   0  0  0  0  0  0  0  0  0  0  0  0
   57.8059   32.6619   42.3432 H   0  0  0  0  0  0  0  0  0  0  0  0
   58.6070   34.5710   43.7311 H   0  0  0  0  0  0  0  0  0  0  0  0
   58.8041   34.3255   46.2045 H   0  0  0  0  0  0  0  0  0  0  0  0
   59.0711   31.3862   49.3652 H   0  0  0  0  0  0  0  0  0  0  0  0
   59.4830   30.4618   47.8696 H   0  0  0  0  0  0  0  0  0  0  0  0
   61.4605   30.9255   46.6774 H   0  0  0  0  0  0  0  0  0  0  0  0
   63.5410   32.2812   46.4199 H   0  0  0  0  0  0  0  0  0  0  0  0
   63.8384   34.3796   47.7373 H   0  0  0  0  0  0  0  0  0  0  0  0
   62.0551   35.1283   49.3167 H   0  0  0  0  0  0  0  0  0  0  0  0
   59.9694   33.7819   49.5772 H   0  0  0  0  0  0  0  0  0  0  0  0
   59.1799   27.8494   45.3822 H   0  0  0  0  0  0  0  0  0  0  0  0
   59.8817   25.4760   45.7219 H   0  0  0  0  0  0  0  0  0  0  0  0
  1  2  2  0
  2  3  1  0
  3  4  1  0
  4  5  2  0
  5  6  1  0
  6  7  2  0
  7  8  1  0
  8  9  2  0
  9 10  1  0
 10 11  1  0
 11 12  1  0
 12 13  2  0
 13 14  1  0
 14 15  2  0
 15 16  1  0
 16 17  2  0
  2 18  1  0
 18 19  1  0
 19 20  2  0
 20 21  1  0
 21 22  2  0
 21 23  1  0
 23 24  1  0
 24 25  1  0
  9  4  1  0
 17 12  1  0
 24 18  2  0
  5 26  1  0
  6 27  1  0
  7 28  1  0
  8 29  1  0
 11 30  1  0
 11 31  1  0
 13 32  1  0
 14 33  1  0
 15 34  1  0
 16 35  1  0
 17 36  1  0
 19 37  1  0
 20 38  1  0
M  CHG  3   3  -1  23  -1  25  -1
M  END
>  <UniqueID>  (80) 
74

>  <SMILES>  (80) 
O=C([N-]c1ccccc1OCc1ccccc1)c1ccc(=O)[n-]c1[O-]

>  <Energy>  (80) 
49.84584441524887

>  <Genealogy>  (80) 
O=C([N-]c1ccccc1OCc1ccccc1)c1ccc(=O)[n-]c1[O-] (protonated)
O=C([N-]c1ccccc1OCc1ccccc1)c1ccc(=O)[n-]c1[O-] (3D coordinates assigned)
O=C([N-]c1ccccc1OCc1ccccc1)c1ccc(=O)[n-]c1[O-] (optimized conformer: 49.84584441524887 kcal/mol)

>  <smiles>  (80) 
O=C(Nc1ccccc1OCc1ccccc1)c1ccc(=O)[nH]c1O

>  <score_type>  (80) 
oracle

>  <origin>  (80) 
adg

>  <m_score__min__energy>  (80) 
-15.52

>  <m_primary>  (80) 
energy

$$$$
80:0
     RDKit          3D

 34 36  0  0  0  0  0  0  0  0999 V2000
   61.0240   26.3580   48.5900 O   0  0  0  0  0  0  0  0  0  0  0  0
   60.5560   27.5240   48.6800 C   0  0  0  0  0  0  0  0  0  0  0  0
   60.9550   28.3200   49.7050 N   0  0  0  0  0  0  0  0  0  0  0  0
   60.4950   29.5880   49.8570 C   0  0  0  0  0  0  0  0  0  0  0  0
   59.5760   30.1200   48.9490 C   0  0  0  0  0  0  0  0  0  0  0  0
   59.1460   31.4740   49.1010 N   0  0  0  0  0  0  0  0  0  0  0  0
   60.0330   32.7610   48.3590 S   0  0  0  0  0  0  0  0  0  0  0  0
   61.3790   32.2600   47.9130 O   0  0  0  0  0  0  0  0  0  0  0  0
   60.2400   33.8600   49.3630 O   0  0  0  0  0  0  0  0  0  0  0  0
   59.1280   33.3780   46.9810 C   0  0  0  0  0  0  0  0  0  0  0  0
   59.8110   33.8040   45.8320 C   0  0  0  0  0  0  0  0  0  0  0  0
   59.0960   34.2240   44.7050 C   0  0  0  0  0  0  0  0  0  0  0  0
   57.6990   34.2180   44.7210 C   0  0  0  0  0  0  0  0  0  0  0  0
   57.0140   33.7920   45.8630 C   0  0  0  0  0  0  0  0  0  0  0  0
   57.7260   33.3710   46.9900 C   0  0  0  0  0  0  0  0  0  0  0  0
   59.1260   29.3230   47.8770 C   0  0  0  0  0  0  0  0  0  0  0  0
   58.1980   29.8120   46.9380 C   0  0  0  0  0  0  0  0  0  0  0  0
   57.7990   29.0230   45.8530 C   0  0  0  0  0  0  0  0  0  0  0  0
   56.6830   29.6560   44.6490 S   0  0  0  0  0  0  0  0  0  0  0  0
   56.5590   31.1480   44.7860 O   0  0  0  0  0  0  0  0  0  0  0  0
   57.1890   29.3240   43.2740 O   0  0  0  0  0  0  0  0  0  0  0  0
   55.1680   28.9670   44.8730 O   0  0  0  0  0  0  0  0  0  0  0  0
   58.3090   27.7280   45.7110 C   0  0  0  0  0  0  0  0  0  0  0  0
   59.2130   27.2190   46.6450 C   0  0  0  0  0  0  0  0  0  0  0  0
   59.6320   28.0070   47.7320 C   0  0  0  0  0  0  0  0  0  0  0  0
   60.8478   30.2003   50.7000 H   0  0  0  0  0  0  0  0  0  0  0  0
   60.9109   33.8078   45.8171 H   0  0  0  0  0  0  0  0  0  0  0  0
   59.6341   34.5591   43.8060 H   0  0  0  0  0  0  0  0  0  0  0  0
   57.1377   34.5486   43.8346 H   0  0  0  0  0  0  0  0  0  0  0  0
   55.9141   33.7881   45.8747 H   0  0  0  0  0  0  0  0  0  0  0  0
   57.1849   33.0334   47.8862 H   0  0  0  0  0  0  0  0  0  0  0  0
   57.7827   30.8235   47.0582 H   0  0  0  0  0  0  0  0  0  0  0  0
   57.9959   27.1074   44.8585 H   0  0  0  0  0  0  0  0  0  0  0  0
   59.5999   26.1957   46.5302 H   0  0  0  0  0  0  0  0  0  0  0  0
  1  2  2  0
  2  3  1  0
  3  4  1  0
  4  5  2  0
  5  6  1  0
  6  7  1  0
  7  8  2  0
  7  9  2  0
  7 10  1  0
 10 11  2  0
 11 12  1  0
 12 13  2  0
 13 14  1  0
 14 15  2  0
  5 16  1  0
 16 17  2  0
 17 18  1  0
 18 19  1  0
 19 20  2  0
 19 21  2  0
 19 22  1  0
 18 23  2  0
 23 24  1  0
 24 25  2  0
 25  2  1  0
 15 10  1  0
 25 16  1  0
  4 26  1  0
 11 27  1  0
 12 28  1  0
 13 29  1  0
 14 30  1  0
 15 31  1  0
 17 32  1  0
 23 33  1  0
 24 34  1  0
M  CHG  3   3  -1   6  -1  22  -1
M  END
>  <UniqueID>  (81) 
75

>  <SMILES>  (81) 
O=c1[n-]cc([N-]S(=O)(=O)c2ccccc2)c2cc(S(=O)(=O)[O-])ccc12

>  <Energy>  (81) 
50.59191135090051

>  <Genealogy>  (81) 
O=c1[n-]cc([N-]S(=O)(=O)c2ccccc2)c2cc(S(=O)(=O)[O-])ccc12 (protonated)
O=c1[n-]cc([N-]S(=O)(=O)c2ccccc2)c2cc(S(=O)(=O)[O-])ccc12 (3D coordinates assigned)
O=c1[n-]cc([N-]S(=O)(=O)c2ccccc2)c2cc(S(=O)(=O)[O-])ccc12 (optimized conformer: 50.59191135090051 kcal/mol)

>  <smiles>  (81) 
O=c1[nH]cc(NS(=O)(=O)c2ccccc2)c2cc(S(=O)(=O)O)ccc12

>  <score_type>  (81) 
oracle

>  <origin>  (81) 
adg

>  <m_score__min__energy>  (81) 
-13.699999999999999

>  <m_primary>  (81) 
energy

$$$$
81:0
     RDKit          3D

 59 62  0  0  0  0  0  0  0  0999 V2000
   61.6860   31.5110   47.8810 N   0  0  0  0  0  0  0  0  0  0  0  0
   61.3270   32.9180   48.0250 C   0  0  0  0  0  0  0  0  0  0  0  0
   60.3230   33.3140   46.9750 C   0  0  0  0  0  0  0  0  0  0  0  0
   60.1470   34.6680   46.6450 C   0  0  0  0  0  0  0  0  0  0  0  0
   59.2430   35.0390   45.6470 C   0  0  0  0  0  0  0  0  0  0  0  0
   58.5150   34.0640   44.9620 C   0  0  0  0  0  0  0  0  0  0  0  0
   58.6800   32.7070   45.2760 C   0  0  0  0  0  0  0  0  0  0  0  0
   57.9050   31.6780   44.5520 C   0  0  0  0  0  0  0  0  0  0  0  0
   57.6520   31.8200   43.1780 C   0  0  0  0  0  0  0  0  0  0  0  0
   56.9140   30.8520   42.4940 C   0  0  0  0  0  0  0  0  0  0  0  0
   56.3930   29.7520   43.1810 C   0  0  0  0  0  0  0  0  0  0  0  0
   56.5990   29.6170   44.5580 C   0  0  0  0  0  0  0  0  0  0  0  0
   55.9840   28.5180   45.2460 N   0  0  0  0  0  0  0  0  0  0  0  0
   56.6640   27.4640   45.9460 C   0  0  0  0  0  0  0  0  0  0  0  0
   56.1970   26.2970   45.8750 O   0  0  0  0  0  0  0  0  0  0  0  0
   57.8720   27.7130   46.7710 C   0  0  0  0  0  0  0  0  0  0  0  0
   58.7920   26.6840   47.0390 C   0  0  0  0  0  0  0  0  0  0  0  0
   59.8590   26.9000   47.9130 C   0  0  0  0  0  0  0  0  0  0  0  0
   60.0480   28.1570   48.5050 C   0  0  0  0  0  0  0  0  0  0  0  0
   61.1120   28.3360   49.5630 C   0  0  0  0  0  0  0  0  0  0  0  0
   61.4330   29.7630   49.7710 N   0  0  0  0  0  0  0  0  0  0  0  0
   61.2520   30.2190   51.1580 C   0  0  0  0  0  0  0  0  0  0  0  0
   59.8970   30.8430   51.4030 C   0  0  0  0  0  0  0  0  0  0  0  0
   59.7580   32.2420   51.4130 C   0  0  0  0  0  0  0  0  0  0  0  0
   58.5040   32.8250   51.6140 C   0  0  0  0  0  0  0  0  0  0  0  0
   57.3790   32.0190   51.8050 C   0  0  0  0  0  0  0  0  0  0  0  0
   57.5060   30.6250   51.8060 C   0  0  0  0  0  0  0  0  0  0  0  0
   56.3890   29.8150   51.9860 O   0  0  0  0  0  0  0  0  0  0  0  0
   58.7650   30.0390   51.6220 C   0  0  0  0  0  0  0  0  0  0  0  0
   59.1920   29.2130   48.1590 C   0  0  0  0  0  0  0  0  0  0  0  0
   58.1060   28.9910   47.3060 C   0  0  0  0  0  0  0  0  0  0  0  0
   57.3930   30.5620   45.2340 C   0  0  0  0  0  0  0  0  0  0  0  0
   59.5860   32.3360   46.2820 C   0  0  0  0  0  0  0  0  0  0  0  0
   60.8320   30.9420   48.0840 H   0  0  0  0  0  0  0  0  0  0  0  0
   62.3820   31.2720   48.6240 H   0  0  0  0  0  0  0  0  0  0  0  0
   60.8919   33.0808   49.0221 H   0  0  0  0  0  0  0  0  0  0  0  0
   62.2319   33.5313   47.9026 H   0  0  0  0  0  0  0  0  0  0  0  0
   60.7240   35.4400   47.1752 H   0  0  0  0  0  0  0  0  0  0  0  0
   59.1042   36.1019   45.4000 H   0  0  0  0  0  0  0  0  0  0  0  0
   57.8090   34.3615   44.1727 H   0  0  0  0  0  0  0  0  0  0  0  0
   58.0369   32.6977   42.6382 H   0  0  0  0  0  0  0  0  0  0  0  0
   56.7423   30.9553   41.4124 H   0  0  0  0  0  0  0  0  0  0  0  0
   55.8181   28.9886   42.6362 H   0  0  0  0  0  0  0  0  0  0  0  0
   58.6703   25.7027   46.5570 H   0  0  0  0  0  0  0  0  0  0  0  0
   60.5557   26.0792   48.1386 H   0  0  0  0  0  0  0  0  0  0  0  0
   60.7500   27.9092   50.5100 H   0  0  0  0  0  0  0  0  0  0  0  0
   62.0243   27.8223   49.2258 H   0  0  0  0  0  0  0  0  0  0  0  0
   62.3940   30.0040   49.4350 H   0  0  0  0  0  0  0  0  0  0  0  0
   61.3663   29.3547   51.8288 H   0  0  0  0  0  0  0  0  0  0  0  0
   62.0100   30.9923   51.3515 H   0  0  0  0  0  0  0  0  0  0  0  0
   60.6407   32.8808   51.2619 H   0  0  0  0  0  0  0  0  0  0  0  0
   58.4025   33.9203   51.6218 H   0  0  0  0  0  0  0  0  0  0  0  0
   56.3918   32.4806   51.9548 H   0  0  0  0  0  0  0  0  0  0  0  0
   55.6800   29.7210   51.2680 H   0  0  0  0  0  0  0  0  0  0  0  0
   58.8683   28.9442   51.6490 H   0  0  0  0  0  0  0  0  0  0  0  0
   59.3757   30.2205   48.5604 H   0  0  0  0  0  0  0  0  0  0  0  0
   57.4311   29.8218   47.0525 H   0  0  0  0  0  0  0  0  0  0  0  0
   57.6140   30.4258   46.3029 H   0  0  0  0  0  0  0  0  0  0  0  0
   59.7208   31.2729   46.5304 H   0  0  0  0  0  0  0  0  0  0  0  0
  1  2  1  0
  2  3  1  0
  3  4  2  0
  4  5  1  0
  5  6  2  0
  6  7  1  0
  7  8  1  0
  8  9  2  0
  9 10  1  0
 10 11  2  0
 11 12  1  0
 12 13  1  0
 13 14  1  0
 14 15  2  0
 14 16  1  0
 16 17  2  0
 17 18  1  0
 18 19  2  0
 19 20  1  0
 20 21  1  0
 21 22  1  0
 22 23  1  0
 23 24  2  0
 24 25  1  0
 25 26  2  0
 26 27  1  0
 27 28  1  0
 27 29  2  0
 19 30  1  0
 30 31  2  0
 12 32  2  0
  7 33  2  0
 33  3  1  0
 32  8  1  0
 31 16  1  0
 29 23  1  0
  1 34  1  0
  1 35  1  0
  2 36  1  0
  2 37  1  0
  4 38  1  0
  5 39  1  0
  6 40  1  0
  9 41  1  0
 10 42  1  0
 11 43  1  0
 17 44  1  0
 18 45  1  0
 20 46  1  0
 20 47  1  0
 21 48  1  0
 22 49  1  0
 22 50  1  0
 24 51  1  0
 25 52  1  0
 26 53  1  0
 28 54  1  0
 29 55  1  0
 30 56  1  0
 31 57  1  0
 32 58  1  0
 33 59  1  0
M  CHG  1  13  -1
M  END
>  <UniqueID>  (82) 
76

>  <SMILES>  (82) 
NCc1cccc(-c2cccc([N-]C(=O)c3ccc(CNCc4cccc(O)c4)cc3)c2)c1

>  <Energy>  (82) 
69.63361963123302

>  <Genealogy>  (82) 
NCc1cccc(-c2cccc([N-]C(=O)c3ccc(CNCc4cccc(O)c4)cc3)c2)c1 (protonated)
NCc1cccc(-c2cccc([N-]C(=O)c3ccc(CNCc4cccc(O)c4)cc3)c2)c1 (3D coordinates assigned)
NCc1cccc(-c2cccc([N-]C(=O)c3ccc(CNCc4cccc(O)c4)cc3)c2)c1 (optimized conformer: 69.63361963123302 kcal/mol)

>  <smiles>  (82) 
NCc1cccc(-c2cccc(NC(=O)c3ccc(CNCc4cccc(O)c4)cc3)c2)c1

>  <score_type>  (82) 
oracle

>  <origin>  (82) 
adg

>  <m_score__min__energy>  (82) 
-12.640000000000001

>  <m_primary>  (82) 
energy

$$$$
82:0
     RDKit          3D

 71 74  0  0  0  0  0  0  0  0999 V2000
   59.3080   32.4230   49.3760 C   0  0  0  0  0  0  0  0  0  0  0  0
   58.5140   33.2160   48.5010 O   0  0  0  0  0  0  0  0  0  0  0  0
   58.3590   32.9740   47.1250 C   0  0  0  0  0  0  0  0  0  0  0  0
   57.8140   31.7690   46.6400 C   0  0  0  0  0  0  0  0  0  0  0  0
   57.6990   31.5430   45.2620 C   0  0  0  0  0  0  0  0  0  0  0  0
   57.0600   30.0100   44.6660 S   0  0  0  0  0  0  0  0  0  0  0  0
   55.6060   29.9010   45.0400 O   0  0  0  0  0  0  0  0  0  0  0  0
   57.1570   29.9810   43.1660 O   0  0  0  0  0  0  0  0  0  0  0  0
   57.9340   28.6510   45.3290 N   0  0  0  0  0  0  0  0  0  0  0  0
   58.9120   28.1520   44.3560 C   0  0  0  0  0  0  0  0  0  0  0  0
   59.5800   26.8610   44.8730 C   0  0  0  0  0  0  0  0  0  0  0  0
   59.4130   26.6580   46.3310 N   0  0  0  0  0  0  0  0  0  0  0  0
   58.5120   25.5380   46.7270 C   0  0  0  0  0  0  0  0  0  0  0  0
   57.2090   25.9960   47.4380 C   0  0  0  0  0  0  0  0  0  0  0  0
   55.9490   26.0990   46.5530 C   0  0  0  0  0  0  0  0  0  0  0  0
   55.8780   25.0180   45.5580 N   0  0  0  0  0  0  0  0  0  0  0  0
   54.5890   24.4600   45.2040 C   0  0  0  0  0  0  0  0  0  0  0  0
   53.6130   24.5920   45.9920 O   0  0  0  0  0  0  0  0  0  0  0  0
   54.3620   23.7060   43.9260 C   0  0  0  0  0  0  0  0  0  0  0  0
   53.0120   23.3510   43.8230 O   0  0  0  0  0  0  0  0  0  0  0  0
   57.0730   24.7890   44.7350 C   0  0  0  0  0  0  0  0  0  0  0  0
   58.2710   24.4790   45.6280 C   0  0  0  0  0  0  0  0  0  0  0  0
   59.4600   27.8920   47.1430 C   0  0  0  0  0  0  0  0  0  0  0  0
   58.6230   29.0510   46.5620 C   0  0  0  0  0  0  0  0  0  0  0  0
   58.1190   32.5280   44.3620 C   0  0  0  0  0  0  0  0  0  0  0  0
   58.6470   33.7320   44.8320 C   0  0  0  0  0  0  0  0  0  0  0  0
   58.7680   33.9660   46.2100 C   0  0  0  0  0  0  0  0  0  0  0  0
   59.3690   35.2580   46.7010 C   0  0  0  0  0  0  0  0  0  0  0  0
   60.4820   34.9860   47.6090 N   0  0  0  0  0  0  0  0  0  0  0  0
   61.5840   34.1380   47.2420 C   0  0  0  0  0  0  0  0  0  0  0  0
   61.6840   33.7210   46.0560 O   0  0  0  0  0  0  0  0  0  0  0  0
   62.6090   33.7490   48.2260 C   0  0  0  0  0  0  0  0  0  0  0  0
   63.7140   32.9270   48.0050 C   0  0  0  0  0  0  0  0  0  0  0  0
   64.5130   32.7550   49.1420 C   0  0  0  0  0  0  0  0  0  0  0  0
   64.0520   33.4560   50.2480 C   0  0  0  0  0  0  0  0  0  0  0  0
   64.6490   33.4130   51.6160 C   0  0  0  0  0  0  0  0  0  0  0  0
   62.6390   34.2640   49.8310 S   0  0  0  0  0  0  0  0  0  0  0  0
   59.0614   32.6693   50.4193 H   0  0  0  0  0  0  0  0  0  0  0  0
   59.1035   31.3579   49.1925 H   0  0  0  0  0  0  0  0  0  0  0  0
   60.3729   32.6288   49.1925 H   0  0  0  0  0  0  0  0  0  0  0  0
   57.4759   30.9990   47.3490 H   0  0  0  0  0  0  0  0  0  0  0  0
   58.4006   27.9391   43.4057 H   0  0  0  0  0  0  0  0  0  0  0  0
   59.6873   28.9180   44.2068 H   0  0  0  0  0  0  0  0  0  0  0  0
   59.1348   26.0031   44.3478 H   0  0  0  0  0  0  0  0  0  0  0  0
   60.6588   26.9519   44.6782 H   0  0  0  0  0  0  0  0  0  0  0  0
   59.0901   25.0041   47.4956 H   0  0  0  0  0  0  0  0  0  0  0  0
   56.9957   25.2773   48.2429 H   0  0  0  0  0  0  0  0  0  0  0  0
   57.4084   27.0203   47.7859 H   0  0  0  0  0  0  0  0  0  0  0  0
   55.0587   26.0466   47.1970 H   0  0  0  0  0  0  0  0  0  0  0  0
   55.9953   27.0546   46.0102 H   0  0  0  0  0  0  0  0  0  0  0  0
   54.6395   24.3414   43.0720 H   0  0  0  0  0  0  0  0  0  0  0  0
   54.9799   22.7959   43.9244 H   0  0  0  0  0  0  0  0  0  0  0  0
   52.5710   23.7100   44.6360 H   0  0  0  0  0  0  0  0  0  0  0  0
   56.8928   23.9396   44.0597 H   0  0  0  0  0  0  0  0  0  0  0  0
   57.2855   25.6945   44.1477 H   0  0  0  0  0  0  0  0  0  0  0  0
   58.1010   23.5065   46.1131 H   0  0  0  0  0  0  0  0  0  0  0  0
   59.1621   24.4740   44.9831 H   0  0  0  0  0  0  0  0  0  0  0  0
   59.0803   27.6601   48.1490 H   0  0  0  0  0  0  0  0  0  0  0  0
   60.5074   28.2278   47.1560 H   0  0  0  0  0  0  0  0  0  0  0  0
   57.8739   29.3592   47.3063 H   0  0  0  0  0  0  0  0  0  0  0  0
   59.3028   29.8823   46.3236 H   0  0  0  0  0  0  0  0  0  0  0  0
   58.0329   32.3533   43.2794 H   0  0  0  0  0  0  0  0  0  0  0  0
   58.9704   34.5026   44.1168 H   0  0  0  0  0  0  0  0  0  0  0  0
   59.7354   35.8379   45.8411 H   0  0  0  0  0  0  0  0  0  0  0  0
   58.5987   35.8295   47.2396 H   0  0  0  0  0  0  0  0  0  0  0  0
   60.4730   35.4530   48.5420 H   0  0  0  0  0  0  0  0  0  0  0  0
   63.9357   32.4602   47.0340 H   0  0  0  0  0  0  0  0  0  0  0  0
   65.4160   32.1270   49.1573 H   0  0  0  0  0  0  0  0  0  0  0  0
   63.8479   33.4707   52.3676 H   0  0  0  0  0  0  0  0  0  0  0  0
   65.2049   32.4725   51.7441 H   0  0  0  0  0  0  0  0  0  0  0  0
   65.3340   34.2641   51.7441 H   0  0  0  0  0  0  0  0  0  0  0  0
  1  2  1  0
  2  3  1  0
  3  4  2  0
  4  5  1  0
  5  6  1  0
  6  7  2  0
  6  8  2  0
  6  9  1  0
  9 10  1  0
 10 11  1  0
 11 12  1  0
 12 13  1  0
 13 14  1  0
 14 15  1  0
 15 16  1  0
 16 17  1  0
 17 18  2  0
 17 19  1  0
 19 20  1  0
 16 21  1  0
 21 22  1  0
 12 23  1  0
 23 24  1  0
  5 25  2  0
 25 26  1  0
 26 27  2  0
 27 28  1  0
 28 29  1  0
 29 30  1  0
 30 31  2  0
 30 32  1  0
 32 33  2  0
 33 34  1  0
 34 35  2  0
 35 36  1  0
 35 37  1  0
 27  3  1  0
 37 32  1  0
 24  9  1  0
 22 13  1  0
  1 38  1  0
  1 39  1  0
  1 40  1  0
  4 41  1  0
 10 42  1  0
 10 43  1  0
 11 44  1  0
 11 45  1  0
 13 46  1  0
 14 47  1  0
 14 48  1  0
 15 49  1  0
 15 50  1  0
 19 51  1  0
 19 52  1  0
 20 53  1  0
 21 54  1  0
 21 55  1  0
 22 56  1  0
 22 57  1  0
 23 58  1  0
 23 59  1  0
 24 60  1  0
 24 61  1  0
 25 62  1  0
 26 63  1  0
 28 64  1  0
 28 65  1  0
 29 66  1  0
 33 67  1  0
 34 68  1  0
 36 69  1  0
 36 70  1  0
 36 71  1  0
M  END
>  <UniqueID>  (83) 
77

>  <SMILES>  (83) 
COc1cc(S(=O)(=O)N2CCN(C3CCN(C(=O)CO)CC3)CC2)ccc1CNC(=O)c1ccc(C)s1

>  <Energy>  (83) 
116.68409924616412

>  <Genealogy>  (83) 
COc1cc(S(=O)(=O)N2CCN(C3CCN(C(=O)CO)CC3)CC2)ccc1CNC(=O)c1ccc(C)s1 (3D coordinates assigned)
COc1cc(S(=O)(=O)N2CCN(C3CCN(C(=O)CO)CC3)CC2)ccc1CNC(=O)c1ccc(C)s1 (nonaromatic ring conformer: 116.68409924616412 kcal/mol)

>  <smiles>  (83) 
COc1cc(S(=O)(=O)N2CCN(C3CCN(C(=O)CO)CC3)CC2)ccc1CNC(=O)c1ccc(C)s1

>  <score_type>  (83) 
oracle

>  <origin>  (83) 
adg

>  <m_score__min__energy>  (83) 
-9.3000000000000007

>  <m_primary>  (83) 
energy

$$$$
83:0
     RDKit          3D

 30 32  0  0  0  0  0  0  0  0999 V2000
   59.5990   35.3660   46.0390 C   0  0  0  0  0  0  0  0  0  0  0  0
   59.0800   34.0070   46.1800 N   0  0  0  0  0  0  0  0  0  0  0  0
   58.6400   33.2160   45.0850 C   0  0  0  0  0  0  0  0  0  0  0  0
   58.4410   33.7030   43.9400 O   0  0  0  0  0  0  0  0  0  0  0  0
   58.4200   31.8090   45.4330 C   0  0  0  0  0  0  0  0  0  0  0  0
   58.1400   30.8050   44.5890 C   0  0  0  0  0  0  0  0  0  0  0  0
   58.3120   29.3750   44.9120 C   0  0  0  0  0  0  0  0  0  0  0  0
   59.5680   28.7900   44.7540 C   0  0  0  0  0  0  0  0  0  0  0  0
   59.7570   27.5100   45.0360 O   0  0  0  0  0  0  0  0  0  0  0  0
   58.7800   26.7100   45.4470 C   0  0  0  0  0  0  0  0  0  0  0  0
   59.0900   25.3810   45.7520 C   0  0  0  0  0  0  0  0  0  0  0  0
   58.0990   24.5130   46.2000 C   0  0  0  0  0  0  0  0  0  0  0  0
   56.7830   24.9570   46.3160 C   0  0  0  0  0  0  0  0  0  0  0  0
   56.4320   26.2710   45.9860 C   0  0  0  0  0  0  0  0  0  0  0  0
   55.0720   26.5860   46.0630 O   0  0  0  0  0  0  0  0  0  0  0  0
   57.4480   27.1900   45.5790 C   0  0  0  0  0  0  0  0  0  0  0  0
   57.2340   28.5670   45.3180 C   0  0  0  0  0  0  0  0  0  0  0  0
   56.0990   29.0950   45.4540 O   0  0  0  0  0  0  0  0  0  0  0  0
   58.5710   31.5280   47.1990 S   0  0  0  0  0  0  0  0  0  0  0  0
   59.2160   33.1990   47.3520 C   0  0  0  0  0  0  0  0  0  0  0  0
   60.3040   33.5530   48.5240 S   0  0  0  0  0  0  0  0  0  0  0  0
   59.7649   35.8004   47.0359 H   0  0  0  0  0  0  0  0  0  0  0  0
   60.5504   35.3398   45.4875 H   0  0  0  0  0  0  0  0  0  0  0  0
   58.8723   35.9806   45.4875 H   0  0  0  0  0  0  0  0  0  0  0  0
   57.7572   31.0641   43.5909 H   0  0  0  0  0  0  0  0  0  0  0  0
   60.4101   29.3978   44.3915 H   0  0  0  0  0  0  0  0  0  0  0  0
   60.1227   25.0198   45.6372 H   0  0  0  0  0  0  0  0  0  0  0  0
   58.3544   23.4758   46.4627 H   0  0  0  0  0  0  0  0  0  0  0  0
   56.0075   24.2633   46.6728 H   0  0  0  0  0  0  0  0  0  0  0  0
   54.6960   27.4690   46.3720 H   0  0  0  0  0  0  0  0  0  0  0  0
  1  2  1  0
  2  3  1  0
  3  4  2  0
  3  5  1  0
  5  6  2  3
  6  7  1  0
  7  8  2  0
  8  9  1  0
  9 10  1  0
 10 11  2  0
 11 12  1  0
 12 13  2  0
 13 14  1  0
 14 15  1  0
 14 16  2  0
 16 17  1  0
 17 18  2  0
  5 19  1  0
 19 20  1  0
 20 21  2  0
 20  2  1  0
 17  7  1  0
 16 10  1  0
  1 22  1  0
  1 23  1  0
  1 24  1  0
  6 25  1  0
  8 26  1  0
 11 27  1  0
 12 28  1  0
 13 29  1  0
 15 30  1  0
M  END
>  <UniqueID>  (84) 
78

>  <SMILES>  (84) 
CN1C(=O)C(=Cc2coc3cccc(O)c3c2=O)SC1=S

>  <Energy>  (84) 
71.63878046562232

>  <Genealogy>  (84) 
CN1C(=O)C(=Cc2coc3cccc(O)c3c2=O)SC1=S (3D coordinates assigned)
CN1C(=O)C(=Cc2coc3cccc(O)c3c2=O)SC1=S (nonaromatic ring conformer: 71.63878046562232 kcal/mol)

>  <smiles>  (84) 
CN1C(=O)C(=Cc2coc3cccc(O)c3c2=O)SC1=S

>  <score_type>  (84) 
oracle

>  <origin>  (84) 
adg

>  <m_score__min__energy>  (84) 
-8.8800000000000008

>  <m_primary>  (84) 
energy

$$$$
84:0
     RDKit          3D

 61 64  0  0  0  0  0  0  0  0999 V2000
   59.3350   33.2040   49.8210 C   0  0  0  0  0  0  0  0  0  0  0  0
   59.8100   33.9770   48.6260 C   0  0  0  0  0  0  0  0  0  0  0  0
   60.8840   34.6350   48.7250 O   0  0  0  0  0  0  0  0  0  0  0  0
   59.0620   33.9900   47.3890 N   0  0  0  0  0  0  0  0  0  0  0  0
   57.7330   33.3540   47.3140 C   0  0  0  0  0  0  0  0  0  0  0  0
   56.9560   33.8010   46.0680 C   0  0  0  0  0  0  0  0  0  0  0  0
   57.7650   33.6370   44.7570 C   0  0  0  0  0  0  0  0  0  0  0  0
   57.4910   32.3080   44.1040 C   0  0  0  0  0  0  0  0  0  0  0  0
   57.8120   32.1230   42.8990 O   0  0  0  0  0  0  0  0  0  0  0  0
   56.8420   31.2640   44.8440 N   0  0  0  0  0  0  0  0  0  0  0  0
   57.3760   30.1800   45.3340 C   0  0  0  0  0  0  0  0  0  0  0  0
   56.6960   29.0120   45.1730 N   0  0  0  0  0  0  0  0  0  0  0  0
   57.1500   27.8290   45.6630 C   0  0  0  0  0  0  0  0  0  0  0  0
   58.3420   27.7830   46.3810 C   0  0  0  0  0  0  0  0  0  0  0  0
   59.0580   28.9590   46.6110 C   0  0  0  0  0  0  0  0  0  0  0  0
   60.2450   28.8770   47.3530 O   0  0  0  0  0  0  0  0  0  0  0  0
   61.0630   29.9570   47.7270 C   0  0  0  0  0  0  0  0  0  0  0  0
   61.7310   30.7500   46.7730 C   0  0  0  0  0  0  0  0  0  0  0  0
   62.5390   31.8120   47.1810 C   0  0  0  0  0  0  0  0  0  0  0  0
   62.6710   32.1080   48.5370 C   0  0  0  0  0  0  0  0  0  0  0  0
   61.9860   31.3520   49.4910 C   0  0  0  0  0  0  0  0  0  0  0  0
   61.1690   30.2750   49.0910 C   0  0  0  0  0  0  0  0  0  0  0  0
   60.4370   29.5010   50.0080 O   0  0  0  0  0  0  0  0  0  0  0  0
   60.4910   29.6170   51.4310 C   0  0  0  0  0  0  0  0  0  0  0  0
   59.9140   28.3770   52.1150 C   0  0  0  0  0  0  0  0  0  0  0  0
   58.7510   28.7200   52.8680 O   0  0  0  0  0  0  0  0  0  0  0  0
   58.0490   29.9200   52.7100 C   0  0  0  0  0  0  0  0  0  0  0  0
   56.9300   29.9390   51.9400 N   0  0  0  0  0  0  0  0  0  0  0  0
   56.2280   31.0870   51.7550 C   0  0  0  0  0  0  0  0  0  0  0  0
   56.6560   32.2700   52.3560 C   0  0  0  0  0  0  0  0  0  0  0  0
   57.8080   32.2360   53.1390 C   0  0  0  0  0  0  0  0  0  0  0  0
   58.4810   31.0680   53.3030 N   0  0  0  0  0  0  0  0  0  0  0  0
   58.5930   30.1700   46.0610 C   0  0  0  0  0  0  0  0  0  0  0  0
   59.3140   31.3010   46.2520 F   0  0  0  0  0  0  0  0  0  0  0  0
   59.2890   33.8310   44.9490 C   0  0  0  0  0  0  0  0  0  0  0  0
   59.6140   34.6540   46.1960 C   0  0  0  0  0  0  0  0  0  0  0  0
   59.6514   33.7188   50.7402 H   0  0  0  0  0  0  0  0  0  0  0  0
   58.2375   33.1334   49.7995 H   0  0  0  0  0  0  0  0  0  0  0  0
   59.7679   32.1930   49.7995 H   0  0  0  0  0  0  0  0  0  0  0  0
   57.8623   32.2622   47.2802 H   0  0  0  0  0  0  0  0  0  0  0  0
   57.1586   33.6571   48.2018 H   0  0  0  0  0  0  0  0  0  0  0  0
   56.0394   33.1977   45.9917 H   0  0  0  0  0  0  0  0  0  0  0  0
   56.7350   34.8721   46.1856 H   0  0  0  0  0  0  0  0  0  0  0  0
   57.4184   34.4428   44.0932 H   0  0  0  0  0  0  0  0  0  0  0  0
   56.5753   26.9067   45.4923 H   0  0  0  0  0  0  0  0  0  0  0  0
   58.7181   26.8235   46.7656 H   0  0  0  0  0  0  0  0  0  0  0  0
   61.6150   30.5309   45.7013 H   0  0  0  0  0  0  0  0  0  0  0  0
   63.0722   32.4161   46.4322 H   0  0  0  0  0  0  0  0  0  0  0  0
   63.3165   32.9394   48.8565 H   0  0  0  0  0  0  0  0  0  0  0  0
   62.0844   31.5979   50.5586 H   0  0  0  0  0  0  0  0  0  0  0  0
   61.5393   29.7410   51.7403 H   0  0  0  0  0  0  0  0  0  0  0  0
   59.8897   30.4882   51.7300 H   0  0  0  0  0  0  0  0  0  0  0  0
   59.6445   27.6336   51.3503 H   0  0  0  0  0  0  0  0  0  0  0  0
   60.6705   27.9609   52.7966 H   0  0  0  0  0  0  0  0  0  0  0  0
   55.3220   31.0834   51.1312 H   0  0  0  0  0  0  0  0  0  0  0  0
   56.0978   33.2074   52.2154 H   0  0  0  0  0  0  0  0  0  0  0  0
   58.1718   33.1540   53.6236 H   0  0  0  0  0  0  0  0  0  0  0  0
   59.7628   32.8428   45.0434 H   0  0  0  0  0  0  0  0  0  0  0  0
   59.6727   34.3771   44.0746 H   0  0  0  0  0  0  0  0  0  0  0  0
   60.7054   34.7440   46.3001 H   0  0  0  0  0  0  0  0  0  0  0  0
   59.1676   35.6545   46.0977 H   0  0  0  0  0  0  0  0  0  0  0  0
  1  2  1  0
  2  3  2  0
  2  4  1  0
  4  5  1  0
  5  6  1  0
  6  7  1  0
  7  8  1  0
  8  9  2  0
  8 10  1  0
 10 11  2  3
 11 12  1  0
 12 13  1  0
 13 14  2  0
 14 15  1  0
 15 16  1  0
 16 17  1  0
 17 18  2  0
 18 19  1  0
 19 20  2  0
 20 21  1  0
 21 22  2  0
 22 23  1  0
 23 24  1  0
 24 25  1  0
 25 26  1  0
 26 27  1  0
 27 28  2  0
 28 29  1  0
 29 30  2  0
 30 31  1  0
 31 32  2  0
 15 33  2  0
 33 34  1  0
  7 35  1  0
 35 36  1  0
 36  4  1  0
 33 11  1  0
 22 17  1  0
 32 27  1  0
  1 37  1  0
  1 38  1  0
  1 39  1  0
  5 40  1  0
  5 41  1  0
  6 42  1  0
  6 43  1  0
  7 44  1  0
 13 45  1  0
 14 46  1  0
 18 47  1  0
 19 48  1  0
 20 49  1  0
 21 50  1  0
 24 51  1  0
 24 52  1  0
 25 53  1  0
 25 54  1  0
 29 55  1  0
 30 56  1  0
 31 57  1  0
 35 58  1  0
 35 59  1  0
 36 60  1  0
 36 61  1  0
M  CHG  1  12  -1
M  END
>  <UniqueID>  (85) 
79

>  <SMILES>  (85) 
CC(=O)N1CCC(C(=O)N=c2[n-]ccc(Oc3ccccc3OCCOc3ncccn3)c2F)CC1

>  <Energy>  (85) 
80.64813708660722

>  <Genealogy>  (85) 
CC(=O)N1CCC(C(=O)N=c2[n-]ccc(Oc3ccccc3OCCOc3ncccn3)c2F)CC1 (protonated)
CC(=O)N1CCC(C(=O)N=c2[n-]ccc(Oc3ccccc3OCCOc3ncccn3)c2F)CC1 (3D coordinates assigned)
CC(=O)N1CCC(C(=O)N=c2[n-]ccc(Oc3ccccc3OCCOc3ncccn3)c2F)CC1 (nonaromatic ring conformer: 80.64813708660722 kcal/mol)

>  <smiles>  (85) 
CC(=O)N1CCC(C(=O)N=c2[nH]ccc(Oc3ccccc3OCCOc3ncccn3)c2F)CC1

>  <score_type>  (85) 
oracle

>  <origin>  (85) 
adg

>  <m_score__min__energy>  (85) 
-10.99

>  <m_primary>  (85) 
energy

$$$$
85:0
     RDKit          3D

 45 47  0  0  0  0  0  0  0  0999 V2000
   62.1800   34.1870   46.7600 O   0  0  0  0  0  0  0  0  0  0  0  0
   61.1360   33.7210   47.2870 C   0  0  0  0  0  0  0  0  0  0  0  0
   61.2260   33.1470   48.6000 N   0  0  0  0  0  0  0  0  0  0  0  0
   61.8820   32.0750   48.9540 C   0  0  0  0  0  0  0  0  0  0  0  0
   62.8890   32.0760   50.0380 C   0  0  0  0  0  0  0  0  0  0  0  0
   64.4670   32.4040   49.7380 S   0  0  0  0  0  0  0  0  0  0  0  0
   61.6630   30.8450   48.2430 N   0  0  0  0  0  0  0  0  0  0  0  0
   60.5500   30.6080   47.3620 C   0  0  0  0  0  0  0  0  0  0  0  0
   60.7450   30.2880   46.0070 C   0  0  0  0  0  0  0  0  0  0  0  0
   59.6470   30.0820   45.1650 C   0  0  0  0  0  0  0  0  0  0  0  0
   58.3430   30.2060   45.6630 C   0  0  0  0  0  0  0  0  0  0  0  0
   56.9500   29.9440   44.6210 S   0  0  0  0  0  0  0  0  0  0  0  0
   56.1100   31.1910   44.6190 O   0  0  0  0  0  0  0  0  0  0  0  0
   57.4050   29.6340   43.2210 O   0  0  0  0  0  0  0  0  0  0  0  0
   56.0380   28.6060   45.2450 N   0  0  0  0  0  0  0  0  0  0  0  0
   56.5330   27.3200   45.6550 C   0  0  0  0  0  0  0  0  0  0  0  0
   57.9240   27.1400   45.6740 C   0  0  0  0  0  0  0  0  0  0  0  0
   58.4810   25.9190   46.0630 C   0  0  0  0  0  0  0  0  0  0  0  0
   57.6530   24.8590   46.4300 C   0  0  0  0  0  0  0  0  0  0  0  0
   56.2660   25.0170   46.4040 C   0  0  0  0  0  0  0  0  0  0  0  0
   55.6970   26.2360   46.0140 C   0  0  0  0  0  0  0  0  0  0  0  0
   54.3130   26.3330   45.9760 O   0  0  0  0  0  0  0  0  0  0  0  0
   58.1460   30.5490   47.0060 C   0  0  0  0  0  0  0  0  0  0  0  0
   59.2430   30.7570   47.8480 C   0  0  0  0  0  0  0  0  0  0  0  0
   59.8390   33.8490   46.5780 C   0  0  0  0  0  0  0  0  0  0  0  0
   59.8120   34.0910   45.1910 C   0  0  0  0  0  0  0  0  0  0  0  0
   58.5920   34.2170   44.5200 C   0  0  0  0  0  0  0  0  0  0  0  0
   57.3890   34.1110   45.2230 C   0  0  0  0  0  0  0  0  0  0  0  0
   57.4050   33.8830   46.6010 C   0  0  0  0  0  0  0  0  0  0  0  0
   58.6210   33.7560   47.2780 C   0  0  0  0  0  0  0  0  0  0  0  0
   62.5721   31.8519   51.0672 H   0  0  0  0  0  0  0  0  0  0  0  0
   62.3980   30.1050   48.3060 H   0  0  0  0  0  0  0  0  0  0  0  0
   61.7658   30.1992   45.6070 H   0  0  0  0  0  0  0  0  0  0  0  0
   59.8078   29.8218   44.1084 H   0  0  0  0  0  0  0  0  0  0  0  0
   58.5837   27.9694   45.3793 H   0  0  0  0  0  0  0  0  0  0  0  0
   59.5737   25.7940   46.0797 H   0  0  0  0  0  0  0  0  0  0  0  0
   58.0920   23.8992   46.7397 H   0  0  0  0  0  0  0  0  0  0  0  0
   55.6154   24.1780   46.6919 H   0  0  0  0  0  0  0  0  0  0  0  0
   57.1246   30.6553   47.4003 H   0  0  0  0  0  0  0  0  0  0  0  0
   59.0796   31.0394   48.8985 H   0  0  0  0  0  0  0  0  0  0  0  0
   60.7555   34.1813   44.6328 H   0  0  0  0  0  0  0  0  0  0  0  0
   58.5790   34.4001   43.4354 H   0  0  0  0  0  0  0  0  0  0  0  0
   56.4305   34.2070   44.6918 H   0  0  0  0  0  0  0  0  0  0  0  0
   56.4579   33.8032   47.1548 H   0  0  0  0  0  0  0  0  0  0  0  0
   58.6265   33.5824   48.3642 H   0  0  0  0  0  0  0  0  0  0  0  0
  1  2  2  0
  2  3  1  0
  3  4  2  3
  4  5  1  0
  5  6  2  0
  4  7  1  0
  7  8  1  0
  8  9  2  0
  9 10  1  0
 10 11  2  0
 11 12  1  0
 12 13  2  0
 12 14  2  0
 12 15  1  0
 15 16  1  0
 16 17  2  0
 17 18  1  0
 18 19  2  0
 19 20  1  0
 20 21  2  0
 21 22  1  0
 11 23  1  0
 23 24  2  0
  2 25  1  0
 25 26  2  0
 26 27  1  0
 27 28  2  0
 28 29  1  0
 29 30  2  0
 24  8  1  0
 30 25  1  0
 21 16  1  0
  5 31  1  0
  7 32  1  0
  9 33  1  0
 10 34  1  0
 17 35  1  0
 18 36  1  0
 19 37  1  0
 20 38  1  0
 23 39  1  0
 24 40  1  0
 26 41  1  0
 27 42  1  0
 28 43  1  0
 29 44  1  0
 30 45  1  0
M  CHG  2  15  -1  22  -1
M  END
>  <UniqueID>  (86) 
80

>  <SMILES>  (86) 
O=C(N=C(C=S)Nc1ccc(S(=O)(=O)[N-]c2ccccc2[O-])cc1)c1ccccc1

>  <Energy>  (86) 
71.85380559530113

>  <Genealogy>  (86) 
O=C(N=C(C=S)Nc1ccc(S(=O)(=O)[N-]c2ccccc2[O-])cc1)c1ccccc1 (protonated)
O=C(N=C(C=S)Nc1ccc(S(=O)(=O)[N-]c2ccccc2[O-])cc1)c1ccccc1 (3D coordinates assigned)
O=C(N=C(C=S)Nc1ccc(S(=O)(=O)[N-]c2ccccc2[O-])cc1)c1ccccc1 (optimized conformer: 71.85380559530113 kcal/mol)

>  <smiles>  (86) 
O=C(N=C(C=S)Nc1ccc(S(=O)(=O)Nc2ccccc2O)cc1)c1ccccc1

>  <score_type>  (86) 
oracle

>  <origin>  (86) 
adg

>  <m_score__min__energy>  (86) 
-15.460000000000001

>  <m_primary>  (86) 
energy

$$$$
86:0
     RDKit          3D

 44 46  0  0  0  0  0  0  0  0999 V2000
   56.3200   31.5440   53.3540 O   0  0  0  0  0  0  0  0  0  0  0  0
   56.2030   31.2600   52.1320 C   0  0  0  0  0  0  0  0  0  0  0  0
   57.1870   31.8450   51.1520 C   0  0  0  0  0  0  0  0  0  0  0  0
   58.1570   30.7790   50.6290 C   0  0  0  0  0  0  0  0  0  0  0  0
   59.0790   31.3400   49.5840 C   0  0  0  0  0  0  0  0  0  0  0  0
   59.9790   30.6060   49.0920 O   0  0  0  0  0  0  0  0  0  0  0  0
   58.9620   32.7120   49.1790 N   0  0  0  0  0  0  0  0  0  0  0  0
   59.8370   33.3020   48.1710 C   0  0  0  0  0  0  0  0  0  0  0  0
   59.2830   33.0650   46.7920 C   0  0  0  0  0  0  0  0  0  0  0  0
   59.3920   34.0520   45.7990 C   0  0  0  0  0  0  0  0  0  0  0  0
   58.8760   33.8300   44.5210 C   0  0  0  0  0  0  0  0  0  0  0  0
   58.2440   32.6160   44.2150 C   0  0  0  0  0  0  0  0  0  0  0  0
   57.7240   32.3820   42.9330 C   0  0  0  0  0  0  0  0  0  0  0  0
   57.1000   31.1660   42.6420 C   0  0  0  0  0  0  0  0  0  0  0  0
   56.9930   30.1750   43.6220 C   0  0  0  0  0  0  0  0  0  0  0  0
   57.5070   30.3960   44.9030 C   0  0  0  0  0  0  0  0  0  0  0  0
   58.1320   31.6140   45.2110 C   0  0  0  0  0  0  0  0  0  0  0  0
   58.6490   31.8480   46.4940 C   0  0  0  0  0  0  0  0  0  0  0  0
   55.2370   30.2750   51.7450 N   0  0  0  0  0  0  0  0  0  0  0  0
   53.8170   30.3740   51.8990 C   0  0  0  0  0  0  0  0  0  0  0  0
   53.1340   29.3610   52.5870 C   0  0  0  0  0  0  0  0  0  0  0  0
   51.7540   29.4480   52.7830 C   0  0  0  0  0  0  0  0  0  0  0  0
   51.0480   30.5610   52.3180 C   0  0  0  0  0  0  0  0  0  0  0  0
   51.7270   31.5940   51.6630 C   0  0  0  0  0  0  0  0  0  0  0  0
   51.0300   32.7110   51.2180 O   0  0  0  0  0  0  0  0  0  0  0  0
   53.1090   31.5060   51.4600 C   0  0  0  0  0  0  0  0  0  0  0  0
   56.6345   32.2736   50.3028 H   0  0  0  0  0  0  0  0  0  0  0  0
   57.7711   32.6205   51.6692 H   0  0  0  0  0  0  0  0  0  0  0  0
   58.7574   30.3990   51.4687 H   0  0  0  0  0  0  0  0  0  0  0  0
   57.5679   29.9703   50.1718 H   0  0  0  0  0  0  0  0  0  0  0  0
   58.2480   33.3220   49.6380 H   0  0  0  0  0  0  0  0  0  0  0  0
   59.9162   34.3847   48.3487 H   0  0  0  0  0  0  0  0  0  0  0  0
   60.8298   32.8337   48.2421 H   0  0  0  0  0  0  0  0  0  0  0  0
   59.8874   35.0066   46.0298 H   0  0  0  0  0  0  0  0  0  0  0  0
   58.9655   34.6104   43.7509 H   0  0  0  0  0  0  0  0  0  0  0  0
   57.8076   33.1564   42.1563 H   0  0  0  0  0  0  0  0  0  0  0  0
   56.6909   30.9877   41.6366 H   0  0  0  0  0  0  0  0  0  0  0  0
   56.5032   29.2191   43.3846 H   0  0  0  0  0  0  0  0  0  0  0  0
   57.4213   29.6134   45.6713 H   0  0  0  0  0  0  0  0  0  0  0  0
   58.5573   31.0742   47.2705 H   0  0  0  0  0  0  0  0  0  0  0  0
   53.6880   28.4932   52.9744 H   0  0  0  0  0  0  0  0  0  0  0  0
   51.2216   28.6389   53.3044 H   0  0  0  0  0  0  0  0  0  0  0  0
   49.9600   30.6247   52.4668 H   0  0  0  0  0  0  0  0  0  0  0  0
   53.6425   32.3250   50.9555 H   0  0  0  0  0  0  0  0  0  0  0  0
  1  2  2  0
  2  3  1  0
  3  4  1  0
  4  5  1  0
  5  6  2  0
  5  7  1  0
  7  8  1  0
  8  9  1  0
  9 10  2  0
 10 11  1  0
 11 12  2  0
 12 13  1  0
 13 14  2  0
 14 15  1  0
 15 16  2  0
 16 17  1  0
 17 18  2  0
  2 19  1  0
 19 20  1  0
 20 21  2  0
 21 22  1  0
 22 23  2  0
 23 24  1  0
 24 25  1  0
 24 26  2  0
 18  9  1  0
 26 20  1  0
 17 12  1  0
  3 27  1  0
  3 28  1  0
  4 29  1  0
  4 30  1  0
  7 31  1  0
  8 32  1  0
  8 33  1  0
 10 34  1  0
 11 35  1  0
 13 36  1  0
 14 37  1  0
 15 38  1  0
 16 39  1  0
 18 40  1  0
 21 41  1  0
 22 42  1  0
 23 43  1  0
 26 44  1  0
M  CHG  2  19  -1  25  -1
M  END
>  <UniqueID>  (87) 
81

>  <SMILES>  (87) 
O=C(CCC(=O)NCc1ccc2ccccc2c1)[N-]c1cccc([O-])c1

>  <Energy>  (87) 
46.87090321828577

>  <Genealogy>  (87) 
O=C(CCC(=O)NCc1ccc2ccccc2c1)[N-]c1cccc([O-])c1 (protonated)
O=C(CCC(=O)NCc1ccc2ccccc2c1)[N-]c1cccc([O-])c1 (3D coordinates assigned)
O=C(CCC(=O)NCc1ccc2ccccc2c1)[N-]c1cccc([O-])c1 (optimized conformer: 46.87090321828577 kcal/mol)

>  <smiles>  (87) 
O=C(CCC(=O)Nc1cccc(O)c1)NCc1ccc2ccccc2c1

>  <score_type>  (87) 
oracle

>  <origin>  (87) 
adg

>  <m_score__min__energy>  (87) 
-14.050000000000001

>  <m_primary>  (87) 
energy

$$$$
87:0
     RDKit          3D

 45 47  0  0  0  0  0  0  0  0999 V2000
   55.3560   29.3180   44.8710 O   0  0  0  0  0  0  0  0  0  0  0  0
   56.4140   29.9940   44.7830 C   0  0  0  0  0  0  0  0  0  0  0  0
   56.3180   31.4240   44.7080 N   0  0  0  0  0  0  0  0  0  0  0  0
   57.3150   32.3730   45.1130 C   0  0  0  0  0  0  0  0  0  0  0  0
   57.8540   33.2380   44.1520 C   0  0  0  0  0  0  0  0  0  0  0  0
   58.8220   34.1780   44.5120 C   0  0  0  0  0  0  0  0  0  0  0  0
   59.2550   34.2670   45.8390 C   0  0  0  0  0  0  0  0  0  0  0  0
   60.2010   35.1790   46.1780 F   0  0  0  0  0  0  0  0  0  0  0  0
   58.7040   33.4240   46.8130 C   0  0  0  0  0  0  0  0  0  0  0  0
   59.2330   33.5320   48.4850 Cl  0  0  0  0  0  0  0  0  0  0  0  0
   57.7230   32.4900   46.4540 C   0  0  0  0  0  0  0  0  0  0  0  0
   57.6700   29.3020   44.7400 N   0  0  0  0  0  0  0  0  0  0  0  0
   58.0830   28.1870   45.5480 C   0  0  0  0  0  0  0  0  0  0  0  0
   57.0950   27.2900   45.9710 C   0  0  0  0  0  0  0  0  0  0  0  0
   57.4290   26.1770   46.7460 C   0  0  0  0  0  0  0  0  0  0  0  0
   58.7600   25.9380   47.0880 C   0  0  0  0  0  0  0  0  0  0  0  0
   59.7600   26.8010   46.6420 C   0  0  0  0  0  0  0  0  0  0  0  0
   59.4380   27.9210   45.8630 C   0  0  0  0  0  0  0  0  0  0  0  0
   60.7940   28.9420   45.2670 S   0  0  0  0  0  0  0  0  0  0  0  0
   60.1710   30.4710   46.0350 C   0  0  0  0  0  0  0  0  0  0  0  0
   60.8310   30.6480   47.3710 C   0  0  0  0  0  0  0  0  0  0  0  0
   60.4610   29.9030   48.3220 O   0  0  0  0  0  0  0  0  0  0  0  0
   61.8950   31.6050   47.5810 N   0  0  0  0  0  0  0  0  0  0  0  0
   62.6700   31.5470   48.8260 C   0  0  0  0  0  0  0  0  0  0  0  0
   64.0470   32.1770   48.6150 C   0  0  0  0  0  0  0  0  0  0  0  0
   63.9230   33.4830   48.0930 O   0  0  0  0  0  0  0  0  0  0  0  0
   63.3720   33.4250   46.7890 C   0  0  0  0  0  0  0  0  0  0  0  0
   61.9470   32.8560   46.8050 C   0  0  0  0  0  0  0  0  0  0  0  0
   57.5129   33.1765   43.1080 H   0  0  0  0  0  0  0  0  0  0  0  0
   59.2448   34.8498   43.7504 H   0  0  0  0  0  0  0  0  0  0  0  0
   57.2707   31.8465   47.2230 H   0  0  0  0  0  0  0  0  0  0  0  0
   56.0456   27.4633   45.6904 H   0  0  0  0  0  0  0  0  0  0  0  0
   56.6418   25.4884   47.0869 H   0  0  0  0  0  0  0  0  0  0  0  0
   59.0206   25.0687   47.7096 H   0  0  0  0  0  0  0  0  0  0  0  0
   60.8097   26.6015   46.9034 H   0  0  0  0  0  0  0  0  0  0  0  0
   60.4064   31.3305   45.3901 H   0  0  0  0  0  0  0  0  0  0  0  0
   59.0805   30.4057   46.1639 H   0  0  0  0  0  0  0  0  0  0  0  0
   62.1348   32.0969   49.6141 H   0  0  0  0  0  0  0  0  0  0  0  0
   62.7959   30.4957   49.1241 H   0  0  0  0  0  0  0  0  0  0  0  0
   64.5752   32.2219   49.5788 H   0  0  0  0  0  0  0  0  0  0  0  0
   64.6117   31.5618   47.8990 H   0  0  0  0  0  0  0  0  0  0  0  0
   63.3467   34.4402   46.3663 H   0  0  0  0  0  0  0  0  0  0  0  0
   64.0015   32.7616   46.1777 H   0  0  0  0  0  0  0  0  0  0  0  0
   61.2691   33.5925   47.2612 H   0  0  0  0  0  0  0  0  0  0  0  0
   61.6391   32.6437   45.7705 H   0  0  0  0  0  0  0  0  0  0  0  0
  1  2  2  0
  2  3  1  0
  3  4  1  0
  4  5  2  0
  5  6  1  0
  6  7  2  0
  7  8  1  0
  7  9  1  0
  9 10  1  0
  9 11  2  0
  2 12  1  0
 12 13  1  0
 13 14  2  0
 14 15  1  0
 15 16  2  0
 16 17  1  0
 17 18  2  0
 18 19  1  0
 19 20  1  0
 20 21  1  0
 21 22  2  0
 21 23  1  0
 23 24  1  0
 24 25  1  0
 25 26  1  0
 26 27  1  0
 27 28  1  0
 11  4  1  0
 18 13  1  0
 28 23  1  0
  5 29  1  0
  6 30  1  0
 11 31  1  0
 14 32  1  0
 15 33  1  0
 16 34  1  0
 17 35  1  0
 20 36  1  0
 20 37  1  0
 24 38  1  0
 24 39  1  0
 25 40  1  0
 25 41  1  0
 27 42  1  0
 27 43  1  0
 28 44  1  0
 28 45  1  0
M  CHG  2   3  -1  12  -1
M  END
>  <UniqueID>  (88) 
82

>  <SMILES>  (88) 
O=C([N-]c1ccc(F)c(Cl)c1)[N-]c1ccccc1SCC(=O)N1CCOCC1

>  <Energy>  (88) 
54.196119074718865

>  <Genealogy>  (88) 
O=C([N-]c1ccc(F)c(Cl)c1)[N-]c1ccccc1SCC(=O)N1CCOCC1 (protonated)
O=C([N-]c1ccc(F)c(Cl)c1)[N-]c1ccccc1SCC(=O)N1CCOCC1 (3D coordinates assigned)
O=C([N-]c1ccc(F)c(Cl)c1)[N-]c1ccccc1SCC(=O)N1CCOCC1 (nonaromatic ring conformer: 54.196119074718865 kcal/mol)

>  <smiles>  (88) 
O=C(Nc1ccc(F)c(Cl)c1)Nc1ccccc1SCC(=O)N1CCOCC1

>  <score_type>  (88) 
oracle

>  <origin>  (88) 
adg

>  <m_score__min__energy>  (88) 
-11.699999999999999

>  <m_primary>  (88) 
energy

$$$$
88:0
     RDKit          3D

 72 75  0  0  0  0  0  0  0  0999 V2000
   54.4523   27.6376   52.5557 H   0  0  0  0  0  0  0  0  0  0  0  0
   54.7810   28.2260   53.4250 C   0  0  0  0  0  0  0  0  0  0  0  0
   56.0480   28.2260   53.7130 N   0  0  0  0  0  0  0  0  0  0  0  0
   56.8680   29.3890   53.8520 C   0  0  0  0  0  0  0  0  0  0  0  0
   57.2110   29.7660   55.0040 O   0  0  0  0  0  0  0  0  0  0  0  0
   57.2300   30.2310   52.6970 C   0  0  0  0  0  0  0  0  0  0  0  0
   58.3510   29.8840   51.9200 C   0  0  0  0  0  0  0  0  0  0  0  0
   58.8708   28.9315   52.1003 H   0  0  0  0  0  0  0  0  0  0  0  0
   58.8040   30.7470   50.9210 C   0  0  0  0  0  0  0  0  0  0  0  0
   59.6260   30.4338   50.2606 H   0  0  0  0  0  0  0  0  0  0  0  0
   58.2160   32.0170   50.7520 C   0  0  0  0  0  0  0  0  0  0  0  0
   58.9210   32.9790   49.8680 C   0  0  0  0  0  0  0  0  0  0  0  0
   59.5150   33.9350   50.4210 O   0  0  0  0  0  0  0  0  0  0  0  0
   58.9800   32.9270   48.4340 N   0  0  0  0  0  0  0  0  0  0  0  0
   59.5370   32.1590   47.5390 C   0  0  0  0  0  0  0  0  0  0  0  0
   60.3159   32.6210   46.9146 H   0  0  0  0  0  0  0  0  0  0  0  0
   59.2400   30.7480   47.2730 C   0  0  0  0  0  0  0  0  0  0  0  0
   58.1610   30.3390   46.4810 C   0  0  0  0  0  0  0  0  0  0  0  0
   57.5380   31.0900   45.9732 H   0  0  0  0  0  0  0  0  0  0  0  0
   57.8720   28.9770   46.3330 C   0  0  0  0  0  0  0  0  0  0  0  0
   56.8220   28.5690   45.3650 C   0  0  0  0  0  0  0  0  0  0  0  0
   56.8340   29.0820   44.2120 O   0  0  0  0  0  0  0  0  0  0  0  0
   55.8940   27.4910   45.6280 N   0  0  0  0  0  0  0  0  0  0  0  0
   56.1810   26.0590   45.7350 C   0  0  0  0  0  0  0  0  0  0  0  0
   55.3159   25.4844   45.3726 H   0  0  0  0  0  0  0  0  0  0  0  0
   56.3786   25.8041   46.7867 H   0  0  0  0  0  0  0  0  0  0  0  0
   57.4100   25.7160   44.8900 C   0  0  0  0  0  0  0  0  0  0  0  0
   57.8702   26.6513   44.5385 H   0  0  0  0  0  0  0  0  0  0  0  0
   57.0766   25.0919   44.0478 H   0  0  0  0  0  0  0  0  0  0  0  0
   58.4530   24.9200   45.6800 C   0  0  0  0  0  0  0  0  0  0  0  0
   58.2774   25.0540   46.7576 H   0  0  0  0  0  0  0  0  0  0  0  0
   58.3704   23.8532   45.4249 H   0  0  0  0  0  0  0  0  0  0  0  0
   59.4602   25.2811   45.4249 H   0  0  0  0  0  0  0  0  0  0  0  0
   58.5850   28.0350   47.0800 C   0  0  0  0  0  0  0  0  0  0  0  0
   58.3001   26.9737   47.0313 H   0  0  0  0  0  0  0  0  0  0  0  0
   59.6570   28.4270   47.8890 C   0  0  0  0  0  0  0  0  0  0  0  0
   60.4900   27.4710   48.5740 N   0  0  0  0  0  0  0  0  0  0  0  0
   60.9420   26.7170   48.0130 H   0  0  0  0  0  0  0  0  0  0  0  0
   60.7180   27.4310   49.9960 C   0  0  0  0  0  0  0  0  0  0  0  0
   60.7970   28.5290   50.6880 N   0  0  0  0  0  0  0  0  0  0  0  0
   60.7360   29.4530   50.2030 H   0  0  0  0  0  0  0  0  0  0  0  0
   61.1030   28.5540   52.1180 C   0  0  0  0  0  0  0  0  0  0  0  0
   62.1778   28.7477   52.2498 H   0  0  0  0  0  0  0  0  0  0  0  0
   60.5008   29.3473   52.5850 H   0  0  0  0  0  0  0  0  0  0  0  0
   60.7500   27.2210   52.7950 C   0  0  0  0  0  0  0  0  0  0  0  0
   61.1368   27.2189   53.8248 H   0  0  0  0  0  0  0  0  0  0  0  0
   59.6572   27.0971   52.8139 H   0  0  0  0  0  0  0  0  0  0  0  0
   61.3790   26.0720   52.0130 C   0  0  0  0  0  0  0  0  0  0  0  0
   62.4750   26.1388   52.0788 H   0  0  0  0  0  0  0  0  0  0  0  0
   61.0473   25.1122   52.4358 H   0  0  0  0  0  0  0  0  0  0  0  0
   60.9690   26.1600   50.6200 N   0  0  0  0  0  0  0  0  0  0  0  0
   60.9430   25.2880   50.0440 H   0  0  0  0  0  0  0  0  0  0  0  0
   59.9700   29.7870   47.9870 C   0  0  0  0  0  0  0  0  0  0  0  0
   61.0140   30.1880   48.8230 O   0  0  0  0  0  0  0  0  0  0  0  0
   57.1100   32.3670   51.5380 C   0  0  0  0  0  0  0  0  0  0  0  0
   56.6463   33.3578   51.4228 H   0  0  0  0  0  0  0  0  0  0  0  0
   56.5920   31.4550   52.4730 C   0  0  0  0  0  0  0  0  0  0  0  0
   55.6786   31.7055   53.0324 H   0  0  0  0  0  0  0  0  0  0  0  0
   53.7320   28.9780   54.2020 C   0  0  0  0  0  0  0  0  0  0  0  0
   52.9913   28.2640   54.5912 H   0  0  0  0  0  0  0  0  0  0  0  0
   54.2227   29.5119   55.0292 H   0  0  0  0  0  0  0  0  0  0  0  0
   53.0370   29.9800   53.3310 C   0  0  0  0  0  0  0  0  0  0  0  0
   53.5080   30.2310   52.0210 C   0  0  0  0  0  0  0  0  0  0  0  0
   54.3922   29.6974   51.6423 H   0  0  0  0  0  0  0  0  0  0  0  0
   52.8480   31.1590   51.2070 C   0  0  0  0  0  0  0  0  0  0  0  0
   53.2213   31.3644   50.1929 H   0  0  0  0  0  0  0  0  0  0  0  0
   51.7160   31.8240   51.6820 C   0  0  0  0  0  0  0  0  0  0  0  0
   51.0290   32.7100   50.8580 O   0  0  0  0  0  0  0  0  0  0  0  0
   51.2650   31.5920   52.9900 C   0  0  0  0  0  0  0  0  0  0  0  0
   50.3907   32.1391   53.3725 H   0  0  0  0  0  0  0  0  0  0  0  0
   51.9190   30.6720   53.8070 C   0  0  0  0  0  0  0  0  0  0  0  0
   51.5549   30.4896   54.8289 H   0  0  0  0  0  0  0  0  0  0  0  0
  1  2  1  0
  2  3  2  3
  3  4  1  0
  4  5  2  0
  4  6  1  0
  6  7  2  0
  7  8  1  0
  7  9  1  0
  9 10  1  0
  9 11  2  0
 11 12  1  0
 12 13  2  0
 12 14  1  0
 14 15  2  0
 15 16  1  0
 15 17  1  0
 17 18  2  0
 18 19  1  0
 18 20  1  0
 20 21  1  0
 21 22  2  0
 21 23  1  0
 23 24  1  0
 24 25  1  0
 24 26  1  0
 24 27  1  0
 27 28  1  0
 27 29  1  0
 27 30  1  0
 30 31  1  0
 30 32  1  0
 30 33  1  0
 20 34  2  0
 34 35  1  0
 34 36  1  0
 36 37  1  0
 37 38  1  0
 37 39  1  0
 39 40  2  0
 40 41  1  0
 40 42  1  0
 42 43  1  0
 42 44  1  0
 42 45  1  0
 45 46  1  0
 45 47  1  0
 45 48  1  0
 48 49  1  0
 48 50  1  0
 48 51  1  0
 51 52  1  0
 36 53  2  0
 53 54  1  0
 11 55  1  0
 55 56  1  0
 55 57  2  0
 57 58  1  0
  2 59  1  0
 59 60  1  0
 59 61  1  0
 59 62  1  0
 62 63  2  0
 63 64  1  0
 63 65  1  0
 65 66  1  0
 65 67  2  0
 67 68  1  0
 67 69  1  0
 69 70  1  0
 69 71  2  0
 71 72  1  0
 57  6  1  0
 71 62  1  0
 53 17  1  0
 51 39  1  0
M  CHG  4  23  -1  40   1  54  -1  68  -1
M  END
>  <UniqueID>  (89) 
83

>  <SMILES>  (89) 
CCC[N-]C(=O)c1cc(/C=N/C(=O)c2ccc(C(=O)N=CCc3ccc([O-])cc3)cc2)c([O-])c(NC2=[NH+]CCCN2)c1

>  <Energy>  (89) 
121.09321260484927

>  <Genealogy>  (89) 
CCC[N-]C(=O)c1cc(C=NC(=O)c2ccc(C(=O)N=CCc3ccc([O-])cc3)cc2)c([O-])c(NC2=[NH+]CCCN2)c1 (protonated)
CCC[N-]C(=O)c1cc(/C=N/C(=O)c2ccc(C(=O)N=CCc3ccc([O-])cc3)cc2)c([O-])c(NC2=[NH+]CCCN2)c1 (cis-trans isomerization)
CCC[N-]C(=O)c1cc(/C=N/C(=O)c2ccc(C(=O)N=CCc3ccc([O-])cc3)cc2)c([O-])c(NC2=[NH+]CCCN2)c1 (3D coordinates assigned)
CCC[N-]C(=O)c1cc(/C=N/C(=O)c2ccc(C(=O)N=CCc3ccc([O-])cc3)cc2)c([O-])c(NC2=[NH+]CCCN2)c1 (nonaromatic ring conformer: 121.09321260484927 kcal/mol)

>  <smiles>  (89) 
CCCNC(=O)c1cc(C=NC(=O)c2ccc(C(=O)N=CCc3ccc(O)cc3)cc2)c(O)c(NC2=NCCCN2)c1

>  <score_type>  (89) 
oracle

>  <origin>  (89) 
adg

>  <m_score__min__energy>  (89) 
-15.65

>  <m_primary>  (89) 
energy

$$$$
89:0
     RDKit          3D

 66 70  0  0  0  0  0  0  0  0999 V2000
   59.5250   25.8920   45.9540 O   0  0  0  0  0  0  0  0  0  0  0  0
   58.8940   26.6850   46.7030 C   0  0  0  0  0  0  0  0  0  0  0  0
   59.0540   26.6220   48.1280 N   0  0  0  0  0  0  0  0  0  0  0  0
   59.9080   27.4130   48.9700 C   0  0  0  0  0  0  0  0  0  0  0  0
   60.7810   26.8500   49.9180 C   0  0  0  0  0  0  0  0  0  0  0  0
   61.5870   27.6770   50.7080 C   0  0  0  0  0  0  0  0  0  0  0  0
   61.5120   29.0660   50.5800 C   0  0  0  0  0  0  0  0  0  0  0  0
   60.6090   29.6410   49.6740 C   0  0  0  0  0  0  0  0  0  0  0  0
   60.4940   31.1080   49.5540 C   0  0  0  0  0  0  0  0  0  0  0  0
   59.3660   31.6240   49.3290 O   0  0  0  0  0  0  0  0  0  0  0  0
   61.6430   31.9560   49.7310 N   0  0  0  0  0  0  0  0  0  0  0  0
   62.8630   31.6560   48.9620 C   0  0  0  0  0  0  0  0  0  0  0  0
   63.9940   32.6230   49.2900 C   0  0  0  0  0  0  0  0  0  0  0  0
   63.9680   32.8960   50.7320 N   0  0  0  0  0  0  0  0  0  0  0  0
   65.4690   33.6210   51.2780 S   0  0  0  0  0  0  0  0  0  0  0  0
   65.2180   34.9810   51.8660 O   0  0  0  0  0  0  0  0  0  0  0  0
   66.4320   33.7850   50.1340 O   0  0  0  0  0  0  0  0  0  0  0  0
   66.2080   32.6200   52.5090 N   0  0  0  0  0  0  0  0  0  0  0  0
   65.2320   31.7180   53.1570 C   0  0  0  0  0  0  0  0  0  0  0  0
   65.2700   30.2870   52.5910 C   0  0  0  0  0  0  0  0  0  0  0  0
   65.6770   30.2950   51.2410 O   0  0  0  0  0  0  0  0  0  0  0  0
   67.0380   30.6690   51.1480 C   0  0  0  0  0  0  0  0  0  0  0  0
   67.3990   31.9050   52.0090 C   0  0  0  0  0  0  0  0  0  0  0  0
   62.8180   33.7530   51.0620 C   0  0  0  0  0  0  0  0  0  0  0  0
   61.4850   33.1990   50.5050 C   0  0  0  0  0  0  0  0  0  0  0  0
   59.8210   28.8060   48.8660 C   0  0  0  0  0  0  0  0  0  0  0  0
   58.0100   27.7200   46.1050 C   0  0  0  0  0  0  0  0  0  0  0  0
   56.6710   27.4330   45.7910 C   0  0  0  0  0  0  0  0  0  0  0  0
   56.1280   26.1790   46.0440 O   0  0  0  0  0  0  0  0  0  0  0  0
   55.8820   28.3910   45.2480 N   0  0  0  0  0  0  0  0  0  0  0  0
   56.3480   29.6380   44.9930 C   0  0  0  0  0  0  0  0  0  0  0  0
   55.5690   30.4940   44.4940 O   0  0  0  0  0  0  0  0  0  0  0  0
   57.6470   29.9600   45.2850 N   0  0  0  0  0  0  0  0  0  0  0  0
   58.1360   31.2890   45.0190 C   0  0  0  0  0  0  0  0  0  0  0  0
   58.0750   31.8170   43.7190 C   0  0  0  0  0  0  0  0  0  0  0  0
   58.5090   33.1210   43.4700 C   0  0  0  0  0  0  0  0  0  0  0  0
   59.0150   33.9030   44.5120 C   0  0  0  0  0  0  0  0  0  0  0  0
   59.0930   33.3790   45.8050 C   0  0  0  0  0  0  0  0  0  0  0  0
   58.6540   32.0760   46.0610 C   0  0  0  0  0  0  0  0  0  0  0  0
   58.4830   29.0210   45.8290 C   0  0  0  0  0  0  0  0  0  0  0  0
   59.6930   29.3110   46.0490 O   0  0  0  0  0  0  0  0  0  0  0  0
   60.8302   25.7577   50.0386 H   0  0  0  0  0  0  0  0  0  0  0  0
   62.2833   27.2311   51.4336 H   0  0  0  0  0  0  0  0  0  0  0  0
   62.1621   29.7097   51.1907 H   0  0  0  0  0  0  0  0  0  0  0  0
   63.1901   30.6328   49.1990 H   0  0  0  0  0  0  0  0  0  0  0  0
   62.6258   31.7591   47.8928 H   0  0  0  0  0  0  0  0  0  0  0  0
   64.9591   32.1727   49.0147 H   0  0  0  0  0  0  0  0  0  0  0  0
   63.8659   33.5588   48.7263 H   0  0  0  0  0  0  0  0  0  0  0  0
   65.4545   31.6755   54.2334 H   0  0  0  0  0  0  0  0  0  0  0  0
   64.2282   32.1233   52.9617 H   0  0  0  0  0  0  0  0  0  0  0  0
   65.9792   29.6852   53.1783 H   0  0  0  0  0  0  0  0  0  0  0  0
   64.2601   29.8555   52.6531 H   0  0  0  0  0  0  0  0  0  0  0  0
   67.6556   29.8212   51.4796 H   0  0  0  0  0  0  0  0  0  0  0  0
   67.2286   30.9386   50.0987 H   0  0  0  0  0  0  0  0  0  0  0  0
   67.9962   31.5713   52.8704 H   0  0  0  0  0  0  0  0  0  0  0  0
   67.9604   32.6022   51.3696 H   0  0  0  0  0  0  0  0  0  0  0  0
   62.7380   33.8295   52.1564 H   0  0  0  0  0  0  0  0  0  0  0  0
   62.9904   34.7356   50.5986 H   0  0  0  0  0  0  0  0  0  0  0  0
   60.8105   32.9992   51.3507 H   0  0  0  0  0  0  0  0  0  0  0  0
   61.0806   33.9580   49.8191 H   0  0  0  0  0  0  0  0  0  0  0  0
   59.1252   29.2530   48.1407 H   0  0  0  0  0  0  0  0  0  0  0  0
   57.6844   31.2020   42.8948 H   0  0  0  0  0  0  0  0  0  0  0  0
   58.4524   33.5333   42.4518 H   0  0  0  0  0  0  0  0  0  0  0  0
   59.3519   34.9313   44.3142 H   0  0  0  0  0  0  0  0  0  0  0  0
   59.5002   33.9921   46.6225 H   0  0  0  0  0  0  0  0  0  0  0  0
   58.7144   31.6667   47.0802 H   0  0  0  0  0  0  0  0  0  0  0  0
  1  2  2  0
  2  3  1  0
  3  4  1  0
  4  5  2  0
  5  6  1  0
  6  7  2  0
  7  8  1  0
  8  9  1  0
  9 10  2  0
  9 11  1  0
 11 12  1  0
 12 13  1  0
 13 14  1  0
 14 15  1  0
 15 16  2  0
 15 17  2  0
 15 18  1  0
 18 19  1  0
 19 20  1  0
 20 21  1  0
 21 22  1  0
 22 23  1  0
 14 24  1  0
 24 25  1  0
  8 26  2  0
  2 27  1  0
 27 28  2  0
 28 29  1  0
 28 30  1  0
 30 31  1  0
 31 32  2  0
 31 33  1  0
 33 34  1  0
 34 35  2  0
 35 36  1  0
 36 37  2  0
 37 38  1  0
 38 39  2  0
 33 40  1  0
 40 41  2  0
 26  4  1  0
 40 27  1  0
 25 11  1  0
 39 34  1  0
 23 18  1  0
  5 42  1  0
  6 43  1  0
  7 44  1  0
 12 45  1  0
 12 46  1  0
 13 47  1  0
 13 48  1  0
 19 49  1  0
 19 50  1  0
 20 51  1  0
 20 52  1  0
 22 53  1  0
 22 54  1  0
 23 55  1  0
 23 56  1  0
 24 57  1  0
 24 58  1  0
 25 59  1  0
 25 60  1  0
 26 61  1  0
 35 62  1  0
 36 63  1  0
 37 64  1  0
 38 65  1  0
 39 66  1  0
M  CHG  3   3  -1  29  -1  30  -1
M  END
>  <UniqueID>  (90) 
84

>  <SMILES>  (90) 
O=C([N-]c1cccc(C(=O)N2CCN(S(=O)(=O)N3CCOCC3)CC2)c1)c1c([O-])[n-]c(=O)n(-c2ccccc2)c1=O

>  <Energy>  (90) 
104.84052450891717

>  <Genealogy>  (90) 
O=C([N-]c1cccc(C(=O)N2CCN(S(=O)(=O)N3CCOCC3)CC2)c1)c1c([O-])[n-]c(=O)n(-c2ccccc2)c1=O (protonated)
O=C([N-]c1cccc(C(=O)N2CCN(S(=O)(=O)N3CCOCC3)CC2)c1)c1c([O-])[n-]c(=O)n(-c2ccccc2)c1=O (3D coordinates assigned)
O=C([N-]c1cccc(C(=O)N2CCN(S(=O)(=O)N3CCOCC3)CC2)c1)c1c([O-])[n-]c(=O)n(-c2ccccc2)c1=O (nonaromatic ring conformer: 104.84052450891717 kcal/mol)

>  <smiles>  (90) 
O=C(Nc1cccc(C(=O)N2CCN(S(=O)(=O)N3CCOCC3)CC2)c1)c1c(O)[nH]c(=O)n(-c2ccccc2)c1=O

>  <score_type>  (90) 
oracle

>  <origin>  (90) 
adg

>  <m_score__min__energy>  (90) 
-15.82

>  <m_primary>  (90) 
energy

$$$$
90:0
     RDKit          3D

 41 43  0  0  0  0  0  0  0  0999 V2000
   59.8490   25.9520   46.4240 C   0  0  0  0  0  0  0  0  0  0  0  0
   59.0690   25.8510   45.2370 O   0  0  0  0  0  0  0  0  0  0  0  0
   57.8590   25.1420   45.1300 C   0  0  0  0  0  0  0  0  0  0  0  0
   57.8300   23.8080   44.6890 C   0  0  0  0  0  0  0  0  0  0  0  0
   56.6210   23.1230   44.5670 C   0  0  0  0  0  0  0  0  0  0  0  0
   56.6400   21.4560   44.0090 Cl  0  0  0  0  0  0  0  0  0  0  0  0
   55.4100   23.7490   44.8880 C   0  0  0  0  0  0  0  0  0  0  0  0
   54.2290   22.9960   44.7490 O   0  0  0  0  0  0  0  0  0  0  0  0
   53.0980   23.0480   45.6110 C   0  0  0  0  0  0  0  0  0  0  0  0
   55.4280   25.0900   45.3340 C   0  0  0  0  0  0  0  0  0  0  0  0
   54.2740   25.7100   45.6890 F   0  0  0  0  0  0  0  0  0  0  0  0
   56.6480   25.7900   45.4560 C   0  0  0  0  0  0  0  0  0  0  0  0
   56.6520   27.1910   45.9440 C   0  0  0  0  0  0  0  0  0  0  0  0
   57.3190   27.5010   46.9680 O   0  0  0  0  0  0  0  0  0  0  0  0
   55.8900   28.1890   45.2570 N   0  0  0  0  0  0  0  0  0  0  0  0
   56.5780   29.4540   44.2890 S   0  0  0  0  0  0  0  0  0  0  0  0
   55.5410   30.5250   44.1000 O   0  0  0  0  0  0  0  0  0  0  0  0
   56.9910   28.9350   42.9400 O   0  0  0  0  0  0  0  0  0  0  0  0
   57.9980   30.1050   45.1150 C   0  0  0  0  0  0  0  0  0  0  0  0
   59.0860   29.2640   45.3950 C   0  0  0  0  0  0  0  0  0  0  0  0
   60.2220   29.7630   46.0390 C   0  0  0  0  0  0  0  0  0  0  0  0
   60.2870   31.1080   46.4120 C   0  0  0  0  0  0  0  0  0  0  0  0
   59.2090   31.9620   46.1460 C   0  0  0  0  0  0  0  0  0  0  0  0
   59.2500   33.3140   46.5110 C   0  0  0  0  0  0  0  0  0  0  0  0
   58.1610   34.1420   46.2360 C   0  0  0  0  0  0  0  0  0  0  0  0
   57.0370   33.6100   45.6010 C   0  0  0  0  0  0  0  0  0  0  0  0
   57.0090   32.2970   45.2530 N   0  0  0  0  0  0  0  0  0  0  0  0
   58.0540   31.4600   45.4990 C   0  0  0  0  0  0  0  0  0  0  0  0
   59.1925   25.8670   47.3025 H   0  0  0  0  0  0  0  0  0  0  0  0
   60.5939   25.1428   46.4432 H   0  0  0  0  0  0  0  0  0  0  0  0
   60.3632   26.9242   46.4432 H   0  0  0  0  0  0  0  0  0  0  0  0
   58.7716   23.2981   44.4371 H   0  0  0  0  0  0  0  0  0  0  0  0
   53.4341   23.0325   46.6583 H   0  0  0  0  0  0  0  0  0  0  0  0
   52.5340   23.9730   45.4205 H   0  0  0  0  0  0  0  0  0  0  0  0
   52.4515   22.1786   45.4205 H   0  0  0  0  0  0  0  0  0  0  0  0
   59.0446   28.2036   45.1054 H   0  0  0  0  0  0  0  0  0  0  0  0
   61.0684   29.0939   46.2530 H   0  0  0  0  0  0  0  0  0  0  0  0
   61.1850   31.4964   46.9147 H   0  0  0  0  0  0  0  0  0  0  0  0
   60.1393   33.7222   47.0136 H   0  0  0  0  0  0  0  0  0  0  0  0
   58.1878   35.2051   46.5172 H   0  0  0  0  0  0  0  0  0  0  0  0
   56.1731   34.2548   45.3822 H   0  0  0  0  0  0  0  0  0  0  0  0
  1  2  1  0
  2  3  1  0
  3  4  2  0
  4  5  1  0
  5  6  1  0
  5  7  2  0
  7  8  1  0
  8  9  1  0
  7 10  1  0
 10 11  1  0
 10 12  2  0
 12 13  1  0
 13 14  2  0
 13 15  1  0
 15 16  1  0
 16 17  2  0
 16 18  2  0
 16 19  1  0
 19 20  2  0
 20 21  1  0
 21 22  2  0
 22 23  1  0
 23 24  2  0
 24 25  1  0
 25 26  2  0
 26 27  1  0
 27 28  2  0
 12  3  1  0
 28 19  1  0
 28 23  1  0
  1 29  1  0
  1 30  1  0
  1 31  1  0
  4 32  1  0
  9 33  1  0
  9 34  1  0
  9 35  1  0
 20 36  1  0
 21 37  1  0
 22 38  1  0
 24 39  1  0
 25 40  1  0
 26 41  1  0
M  CHG  1  15  -1
M  END
>  <UniqueID>  (91) 
85

>  <SMILES>  (91) 
COc1cc(Cl)c(OC)c(F)c1C(=O)[N-]S(=O)(=O)c1cccc2cccnc12

>  <Energy>  (91) 
56.12432139457352

>  <Genealogy>  (91) 
COc1cc(Cl)c(OC)c(F)c1C(=O)[N-]S(=O)(=O)c1cccc2cccnc12 (protonated)
COc1cc(Cl)c(OC)c(F)c1C(=O)[N-]S(=O)(=O)c1cccc2cccnc12 (3D coordinates assigned)
COc1cc(Cl)c(OC)c(F)c1C(=O)[N-]S(=O)(=O)c1cccc2cccnc12 (optimized conformer: 56.12432139457352 kcal/mol)

>  <smiles>  (91) 
COc1cc(Cl)c(OC)c(F)c1C(=O)NS(=O)(=O)c1cccc2cccnc12

>  <score_type>  (91) 
oracle

>  <origin>  (91) 
adg

>  <m_score__min__energy>  (91) 
-9.9299999999999997

>  <m_primary>  (91) 
energy

$$$$
91:0
     RDKit          3D

 63 66  0  0  0  0  0  0  0  0999 V2000
   56.5380   29.9700   52.7200 C   0  0  0  0  0  0  0  0  0  0  0  0
   57.3650   29.7200   51.5880 O   0  0  0  0  0  0  0  0  0  0  0  0
   58.3050   30.6290   51.0780 C   0  0  0  0  0  0  0  0  0  0  0  0
   59.6880   30.3650   51.0780 C   0  0  0  0  0  0  0  0  0  0  0  0
   60.5850   31.3050   50.5580 C   0  0  0  0  0  0  0  0  0  0  0  0
   60.1160   32.5230   50.0450 C   0  0  0  0  0  0  0  0  0  0  0  0
   61.0720   33.5200   49.4530 C   0  0  0  0  0  0  0  0  0  0  0  0
   60.4690   34.1300   48.2660 N   0  0  0  0  0  0  0  0  0  0  0  0
   60.9210   33.2330   46.8480 S   0  0  0  0  0  0  0  0  0  0  0  0
   60.6680   34.0620   45.6190 O   0  0  0  0  0  0  0  0  0  0  0  0
   62.3860   32.9030   46.9120 O   0  0  0  0  0  0  0  0  0  0  0  0
   59.9990   31.7320   46.7800 C   0  0  0  0  0  0  0  0  0  0  0  0
   60.4340   30.5950   47.4670 C   0  0  0  0  0  0  0  0  0  0  0  0
   59.7180   29.3970   47.3810 C   0  0  0  0  0  0  0  0  0  0  0  0
   58.5430   29.3110   46.5940 C   0  0  0  0  0  0  0  0  0  0  0  0
   58.1130   30.4770   45.9130 C   0  0  0  0  0  0  0  0  0  0  0  0
   58.8410   31.6690   46.0030 C   0  0  0  0  0  0  0  0  0  0  0  0
   56.9840   30.4410   45.1640 N   0  0  0  0  0  0  0  0  0  0  0  0
   56.2460   29.3130   45.0570 C   0  0  0  0  0  0  0  0  0  0  0  0
   55.2010   29.3200   44.3540 O   0  0  0  0  0  0  0  0  0  0  0  0
   56.6490   28.1510   45.7240 C   0  0  0  0  0  0  0  0  0  0  0  0
   55.9330   27.1140   45.6310 O   0  0  0  0  0  0  0  0  0  0  0  0
   57.8060   28.1450   46.4720 N   0  0  0  0  0  0  0  0  0  0  0  0
   58.2150   26.8970   47.1560 C   0  0  0  0  0  0  0  0  0  0  0  0
   59.0030   26.0290   46.2240 C   0  0  0  0  0  0  0  0  0  0  0  0
   60.0260   26.4930   45.6500 O   0  0  0  0  0  0  0  0  0  0  0  0
   58.5580   24.6910   45.9640 N   0  0  0  0  0  0  0  0  0  0  0  0
   57.2100   24.2890   45.6780 C   0  0  0  0  0  0  0  0  0  0  0  0
   56.3530   23.8240   46.6910 C   0  0  0  0  0  0  0  0  0  0  0  0
   55.0420   23.4530   46.3910 C   0  0  0  0  0  0  0  0  0  0  0  0
   54.5550   23.5520   45.0840 C   0  0  0  0  0  0  0  0  0  0  0  0
   53.2310   23.1580   44.8360 O   0  0  0  0  0  0  0  0  0  0  0  0
   52.1280   24.0510   44.7390 C   0  0  0  0  0  0  0  0  0  0  0  0
   55.4000   24.0460   44.0720 C   0  0  0  0  0  0  0  0  0  0  0  0
   56.7250   24.4240   44.3670 C   0  0  0  0  0  0  0  0  0  0  0  0
   57.5910   24.9320   43.3850 O   0  0  0  0  0  0  0  0  0  0  0  0
   57.7780   26.3180   43.1090 C   0  0  0  0  0  0  0  0  0  0  0  0
   58.7350   32.7790   50.0300 C   0  0  0  0  0  0  0  0  0  0  0  0
   57.8390   31.8390   50.5490 C   0  0  0  0  0  0  0  0  0  0  0  0
   57.1142   29.7958   53.6407 H   0  0  0  0  0  0  0  0  0  0  0  0
   56.1904   31.0134   52.6969 H   0  0  0  0  0  0  0  0  0  0  0  0
   55.6706   29.2939   52.6969 H   0  0  0  0  0  0  0  0  0  0  0  0
   60.0648   29.4165   51.4882 H   0  0  0  0  0  0  0  0  0  0  0  0
   61.6632   31.0874   50.5516 H   0  0  0  0  0  0  0  0  0  0  0  0
   61.2925   34.3016   50.1949 H   0  0  0  0  0  0  0  0  0  0  0  0
   62.0043   33.0099   49.1693 H   0  0  0  0  0  0  0  0  0  0  0  0
   59.4290   34.0560   48.3560 H   0  0  0  0  0  0  0  0  0  0  0  0
   61.3463   30.6430   48.0798 H   0  0  0  0  0  0  0  0  0  0  0  0
   60.0708   28.5117   47.9303 H   0  0  0  0  0  0  0  0  0  0  0  0
   58.4987   32.5613   45.4583 H   0  0  0  0  0  0  0  0  0  0  0  0
   58.8346   27.1480   48.0295 H   0  0  0  0  0  0  0  0  0  0  0  0
   57.3146   26.3529   47.4772 H   0  0  0  0  0  0  0  0  0  0  0  0
   56.7183   23.7523   47.7261 H   0  0  0  0  0  0  0  0  0  0  0  0
   54.3852   23.0790   47.1902 H   0  0  0  0  0  0  0  0  0  0  0  0
   51.7887   24.3257   45.7487 H   0  0  0  0  0  0  0  0  0  0  0  0
   52.4363   24.9570   44.1967 H   0  0  0  0  0  0  0  0  0  0  0  0
   51.3060   23.5609   44.1967 H   0  0  0  0  0  0  0  0  0  0  0  0
   55.0228   24.1376   43.0428 H   0  0  0  0  0  0  0  0  0  0  0  0
   57.8529   26.8735   44.0555 H   0  0  0  0  0  0  0  0  0  0  0  0
   58.7028   26.4549   42.5293 H   0  0  0  0  0  0  0  0  0  0  0  0
   56.9226   26.6951   42.5293 H   0  0  0  0  0  0  0  0  0  0  0  0
   58.3569   33.7221   49.6086 H   0  0  0  0  0  0  0  0  0  0  0  0
   56.7598   32.0517   50.5416 H   0  0  0  0  0  0  0  0  0  0  0  0
  1  2  1  0
  2  3  1  0
  3  4  2  0
  4  5  1  0
  5  6  2  0
  6  7  1  0
  7  8  1  0
  8  9  1  0
  9 10  2  0
  9 11  2  0
  9 12  1  0
 12 13  2  0
 13 14  1  0
 14 15  2  0
 15 16  1  0
 16 17  2  0
 16 18  1  0
 18 19  1  0
 19 20  2  0
 19 21  1  0
 21 22  2  0
 21 23  1  0
 23 24  1  0
 24 25  1  0
 25 26  2  0
 25 27  1  0
 27 28  1  0
 28 29  2  0
 29 30  1  0
 30 31  2  0
 31 32  1  0
 32 33  1  0
 31 34  1  0
 34 35  2  0
 35 36  1  0
 36 37  1  0
  6 38  1  0
 38 39  2  0
 39  3  1  0
 17 12  1  0
 35 28  1  0
 23 15  1  0
  1 40  1  0
  1 41  1  0
  1 42  1  0
  4 43  1  0
  5 44  1  0
  7 45  1  0
  7 46  1  0
  8 47  1  0
 13 48  1  0
 14 49  1  0
 17 50  1  0
 24 51  1  0
 24 52  1  0
 29 53  1  0
 30 54  1  0
 33 55  1  0
 33 56  1  0
 33 57  1  0
 34 58  1  0
 37 59  1  0
 37 60  1  0
 37 61  1  0
 38 62  1  0
 39 63  1  0
M  CHG  2  18  -1  27  -1
M  END
>  <UniqueID>  (92) 
86

>  <SMILES>  (92) 
COc1ccc(CNS(=O)(=O)c2ccc3c(c2)[n-]c(=O)c(=O)n3CC(=O)[N-]c2ccc(OC)cc2OC)cc1

>  <Energy>  (92) 
75.74494217275486

>  <Genealogy>  (92) 
COc1ccc(CNS(=O)(=O)c2ccc3c(c2)[n-]c(=O)c(=O)n3CC(=O)[N-]c2ccc(OC)cc2OC)cc1 (protonated)
COc1ccc(CNS(=O)(=O)c2ccc3c(c2)[n-]c(=O)c(=O)n3CC(=O)[N-]c2ccc(OC)cc2OC)cc1 (3D coordinates assigned)
COc1ccc(CNS(=O)(=O)c2ccc3c(c2)[n-]c(=O)c(=O)n3CC(=O)[N-]c2ccc(OC)cc2OC)cc1 (optimized conformer: 75.74494217275486 kcal/mol)

>  <smiles>  (92) 
COc1ccc(CNS(=O)(=O)c2ccc3c(c2)[nH]c(=O)c(=O)n3CC(=O)Nc2ccc(OC)cc2OC)cc1

>  <score_type>  (92) 
oracle

>  <origin>  (92) 
adg

>  <m_score__min__energy>  (92) 
-12.24

>  <m_primary>  (92) 
energy

$$$$
92:0
     RDKit          3D

 41 44  0  0  0  0  0  0  0  0999 V2000
   58.5420   25.8380   47.8890 C   0  0  0  0  0  0  0  0  0  0  0  0
   58.5410   26.7990   46.7390 C   0  0  0  0  0  0  0  0  0  0  0  0
   59.4000   27.8670   46.5760 C   0  0  0  0  0  0  0  0  0  0  0  0
   60.4060   28.2460   47.4570 O   0  0  0  0  0  0  0  0  0  0  0  0
   59.1120   28.5050   45.4210 N   0  0  0  0  0  0  0  0  0  0  0  0
   59.7530   29.7050   44.8750 C   0  0  0  0  0  0  0  0  0  0  0  0
   59.2460   30.9550   45.5620 C   0  0  0  0  0  0  0  0  0  0  0  0
   60.1000   31.6380   46.4470 C   0  0  0  0  0  0  0  0  0  0  0  0
   59.7000   32.8370   47.0400 C   0  0  0  0  0  0  0  0  0  0  0  0
   58.4470   33.3750   46.7520 C   0  0  0  0  0  0  0  0  0  0  0  0
   57.5830   32.7090   45.8800 C   0  0  0  0  0  0  0  0  0  0  0  0
   57.9610   31.4920   45.2890 C   0  0  0  0  0  0  0  0  0  0  0  0
   57.0410   30.8280   44.4100 N   0  0  0  0  0  0  0  0  0  0  0  0
   57.0890   30.7670   43.0690 C   0  0  0  0  0  0  0  0  0  0  0  0
   56.0160   30.0930   42.6280 N   0  0  0  0  0  0  0  0  0  0  0  0
   55.3130   29.7570   43.7000 N   0  0  0  0  0  0  0  0  0  0  0  0
   55.9320   30.2090   44.7820 N   0  0  0  0  0  0  0  0  0  0  0  0
   58.0610   27.8260   44.9130 C   0  0  0  0  0  0  0  0  0  0  0  0
   57.4880   28.1350   43.8340 O   0  0  0  0  0  0  0  0  0  0  0  0
   57.7000   26.7680   45.6770 N   0  0  0  0  0  0  0  0  0  0  0  0
   56.6520   25.8230   45.4030 C   0  0  0  0  0  0  0  0  0  0  0  0
   55.3870   25.9600   45.9960 C   0  0  0  0  0  0  0  0  0  0  0  0
   54.4080   25.0520   45.7390 N   0  0  0  0  0  0  0  0  0  0  0  0
   54.6130   23.9930   44.9120 C   0  0  0  0  0  0  0  0  0  0  0  0
   53.6780   23.1770   44.6980 O   0  0  0  0  0  0  0  0  0  0  0  0
   55.8590   23.8120   44.3040 C   0  0  0  0  0  0  0  0  0  0  0  0
   56.0790   22.7590   43.4770 F   0  0  0  0  0  0  0  0  0  0  0  0
   56.8820   24.7300   44.5560 C   0  0  0  0  0  0  0  0  0  0  0  0
   58.5414   26.3987   48.8354 H   0  0  0  0  0  0  0  0  0  0  0  0
   57.6445   25.2040   47.8379 H   0  0  0  0  0  0  0  0  0  0  0  0
   59.4408   25.2059   47.8379 H   0  0  0  0  0  0  0  0  0  0  0  0
   60.8405   29.6300   45.0226 H   0  0  0  0  0  0  0  0  0  0  0  0
   59.5117   29.7730   43.8040 H   0  0  0  0  0  0  0  0  0  0  0  0
   61.0931   31.2231   46.6741 H   0  0  0  0  0  0  0  0  0  0  0  0
   60.3747   33.3577   47.7354 H   0  0  0  0  0  0  0  0  0  0  0  0
   58.1382   34.3253   47.2120 H   0  0  0  0  0  0  0  0  0  0  0  0
   56.5972   33.1415   45.6538 H   0  0  0  0  0  0  0  0  0  0  0  0
   57.8784   31.1988   42.4363 H   0  0  0  0  0  0  0  0  0  0  0  0
   55.7600   29.8670   41.6420 H   0  0  0  0  0  0  0  0  0  0  0  0
   55.1870   26.8051   46.6711 H   0  0  0  0  0  0  0  0  0  0  0  0
   57.8688   24.5948   44.0892 H   0  0  0  0  0  0  0  0  0  0  0  0
  1  2  1  0
  2  3  2  0
  3  4  1  0
  3  5  1  0
  5  6  1  0
  6  7  1  0
  7  8  2  0
  8  9  1  0
  9 10  2  0
 10 11  1  0
 11 12  2  0
 12 13  1  0
 13 14  1  0
 14 15  2  0
 15 16  1  0
 16 17  2  0
  5 18  1  0
 18 19  2  0
 18 20  1  0
 20 21  1  0
 21 22  2  0
 22 23  1  0
 23 24  1  0
 24 25  2  0
 24 26  1  0
 26 27  1  0
 26 28  2  0
 20  2  1  0
 28 21  1  0
 12  7  1  0
 17 13  1  0
  1 29  1  0
  1 30  1  0
  1 31  1  0
  6 32  1  0
  6 33  1  0
  8 34  1  0
  9 35  1  0
 10 36  1  0
 11 37  1  0
 14 38  1  0
 15 39  1  0
 22 40  1  0
 28 41  1  0
M  CHG  3   4  -1  15   1  23  -1
M  END
>  <UniqueID>  (93) 
87

>  <SMILES>  (93) 
Cc1c([O-])n(Cc2ccccc2-n2c[nH+]nn2)c(=O)n1-c1c[n-]c(=O)c(F)c1

>  <Energy>  (93) 
131.90746970461004

>  <Genealogy>  (93) 
Cc1c([O-])n(Cc2ccccc2-n2c[nH+]nn2)c(=O)n1-c1c[n-]c(=O)c(F)c1 (protonated)
Cc1c([O-])n(Cc2ccccc2-n2c[nH+]nn2)c(=O)n1-c1c[n-]c(=O)c(F)c1 (3D coordinates assigned)
Cc1c([O-])n(Cc2ccccc2-n2c[nH+]nn2)c(=O)n1-c1c[n-]c(=O)c(F)c1 (optimized conformer: 131.90746970461004 kcal/mol)

>  <smiles>  (93) 
Cc1c(O)n(Cc2ccccc2-n2cnnn2)c(=O)n1-c1c[nH]c(=O)c(F)c1

>  <score_type>  (93) 
oracle

>  <origin>  (93) 
adg

>  <m_score__min__energy>  (93) 
-9.7699999999999996

>  <m_primary>  (93) 
energy

$$$$
93:0
     RDKit          3D

 60 64  0  0  0  0  0  0  0  0999 V2000
   55.1920   25.6520   46.0460 O   0  0  0  0  0  0  0  0  0  0  0  0
   56.4290   25.4870   45.8770 C   0  0  0  0  0  0  0  0  0  0  0  0
   57.3330   26.4630   46.4080 N   0  0  0  0  0  0  0  0  0  0  0  0
   57.4360   27.8330   45.9970 C   0  0  0  0  0  0  0  0  0  0  0  0
   56.2020   28.6440   45.1930 S   0  0  0  0  0  0  0  0  0  0  0  0
   57.0360   30.0940   45.0420 C   0  0  0  0  0  0  0  0  0  0  0  0
   58.3090   29.9530   45.5630 C   0  0  0  0  0  0  0  0  0  0  0  0
   58.5390   28.6850   46.1320 C   0  0  0  0  0  0  0  0  0  0  0  0
   59.8290   28.3100   46.7250 C   0  0  0  0  0  0  0  0  0  0  0  0
   60.0840   27.0990   46.9700 O   0  0  0  0  0  0  0  0  0  0  0  0
   60.7590   29.3140   47.0150 O   0  0  0  0  0  0  0  0  0  0  0  0
   60.7910   30.0180   48.2510 C   0  0  0  0  0  0  0  0  0  0  0  0
   61.8610   31.0700   48.1970 C   0  0  0  0  0  0  0  0  0  0  0  0
   61.9400   31.9570   47.1090 C   0  0  0  0  0  0  0  0  0  0  0  0
   62.8970   32.9760   47.1010 C   0  0  0  0  0  0  0  0  0  0  0  0
   63.7740   33.1220   48.1810 C   0  0  0  0  0  0  0  0  0  0  0  0
   63.6930   32.2510   49.2710 C   0  0  0  0  0  0  0  0  0  0  0  0
   62.7400   31.2290   49.2820 C   0  0  0  0  0  0  0  0  0  0  0  0
   59.3270   31.0540   45.4740 C   0  0  0  0  0  0  0  0  0  0  0  0
   58.8920   32.1810   44.5100 C   0  0  0  0  0  0  0  0  0  0  0  0
   57.4400   32.4720   44.5450 N   0  0  0  0  0  0  0  0  0  0  0  0
   56.9870   33.4250   45.5820 C   0  0  0  0  0  0  0  0  0  0  0  0
   57.9200   33.5290   46.7640 C   0  0  0  0  0  0  0  0  0  0  0  0
   57.8180   32.6330   47.8410 C   0  0  0  0  0  0  0  0  0  0  0  0
   58.7010   32.7250   48.9210 C   0  0  0  0  0  0  0  0  0  0  0  0
   59.6870   33.7170   48.9400 C   0  0  0  0  0  0  0  0  0  0  0  0
   60.7920   33.8390   50.2960 Cl  0  0  0  0  0  0  0  0  0  0  0  0
   59.7820   34.6240   47.8810 C   0  0  0  0  0  0  0  0  0  0  0  0
   58.9000   34.5380   46.8010 C   0  0  0  0  0  0  0  0  0  0  0  0
   56.5620   31.3050   44.3070 C   0  0  0  0  0  0  0  0  0  0  0  0
   56.8980   24.2830   45.1630 C   0  0  0  0  0  0  0  0  0  0  0  0
   56.0380   23.6520   44.3150 N   0  0  0  0  0  0  0  0  0  0  0  0
   56.3930   22.5400   43.6180 C   0  0  0  0  0  0  0  0  0  0  0  0
   57.6710   22.0010   43.7690 C   0  0  0  0  0  0  0  0  0  0  0  0
   58.5680   22.6070   44.6480 C   0  0  0  0  0  0  0  0  0  0  0  0
   58.1880   23.7530   45.3580 C   0  0  0  0  0  0  0  0  0  0  0  0
   59.0720   24.3360   46.2660 O   0  0  0  0  0  0  0  0  0  0  0  0
   59.8156   30.4950   48.4272 H   0  0  0  0  0  0  0  0  0  0  0  0
   61.0070   29.3152   49.0692 H   0  0  0  0  0  0  0  0  0  0  0  0
   61.2469   31.8489   46.2617 H   0  0  0  0  0  0  0  0  0  0  0  0
   62.9605   33.6636   46.2447 H   0  0  0  0  0  0  0  0  0  0  0  0
   64.5279   33.9229   48.1724 H   0  0  0  0  0  0  0  0  0  0  0  0
   64.3804   32.3701   50.1215 H   0  0  0  0  0  0  0  0  0  0  0  0
   62.6776   30.5468   50.1426 H   0  0  0  0  0  0  0  0  0  0  0  0
   59.4723   31.4829   46.4765 H   0  0  0  0  0  0  0  0  0  0  0  0
   60.2587   30.6190   45.0833 H   0  0  0  0  0  0  0  0  0  0  0  0
   59.4359   33.0980   44.7809 H   0  0  0  0  0  0  0  0  0  0  0  0
   59.1250   31.8380   43.4911 H   0  0  0  0  0  0  0  0  0  0  0  0
   56.8972   34.4204   45.1226 H   0  0  0  0  0  0  0  0  0  0  0  0
   56.0265   33.0492   45.9644 H   0  0  0  0  0  0  0  0  0  0  0  0
   57.0399   31.8555   47.8346 H   0  0  0  0  0  0  0  0  0  0  0  0
   58.6202   32.0156   49.7578 H   0  0  0  0  0  0  0  0  0  0  0  0
   60.5535   35.4079   47.8979 H   0  0  0  0  0  0  0  0  0  0  0  0
   58.9720   35.2621   45.9761 H   0  0  0  0  0  0  0  0  0  0  0  0
   55.5443   31.5506   44.6446 H   0  0  0  0  0  0  0  0  0  0  0  0
   56.5783   31.0793   43.2305 H   0  0  0  0  0  0  0  0  0  0  0  0
   55.6729   22.0654   42.9352 H   0  0  0  0  0  0  0  0  0  0  0  0
   57.9679   21.1073   43.2006 H   0  0  0  0  0  0  0  0  0  0  0  0
   59.5746   22.1848   44.7839 H   0  0  0  0  0  0  0  0  0  0  0  0
   58.9700   25.2990   46.5630 H   0  0  0  0  0  0  0  0  0  0  0  0
  1  2  2  0
  2  3  1  0
  3  4  1  0
  4  5  1  0
  5  6  1  0
  6  7  2  0
  7  8  1  0
  8  9  1  0
  9 10  2  0
  9 11  1  0
 11 12  1  0
 12 13  1  0
 13 14  2  0
 14 15  1  0
 15 16  2  0
 16 17  1  0
 17 18  2  0
  7 19  1  0
 19 20  1  0
 20 21  1  0
 21 22  1  0
 22 23  1  0
 23 24  2  0
 24 25  1  0
 25 26  2  0
 26 27  1  0
 26 28  1  0
 28 29  2  0
 21 30  1  0
  2 31  1  0
 31 32  2  0
 32 33  1  0
 33 34  2  0
 34 35  1  0
 35 36  2  0
 36 37  1  0
  8  4  2  0
 18 13  1  0
 29 23  1  0
 36 31  1  0
 30  6  1  0
 12 38  1  0
 12 39  1  0
 14 40  1  0
 15 41  1  0
 16 42  1  0
 17 43  1  0
 18 44  1  0
 19 45  1  0
 19 46  1  0
 20 47  1  0
 20 48  1  0
 22 49  1  0
 22 50  1  0
 24 51  1  0
 25 52  1  0
 28 53  1  0
 29 54  1  0
 30 55  1  0
 30 56  1  0
 33 57  1  0
 34 58  1  0
 35 59  1  0
 37 60  1  0
M  CHG  1   3  -1
M  END
>  <UniqueID>  (94) 
88

>  <SMILES>  (94) 
O=C([N-]c1sc2c(c1C(=O)OCc1ccccc1)CCN(Cc1ccc(Cl)cc1)C2)c1ncccc1O

>  <Energy>  (94) 
107.43723954756804

>  <Genealogy>  (94) 
O=C([N-]c1sc2c(c1C(=O)OCc1ccccc1)CCN(Cc1ccc(Cl)cc1)C2)c1ncccc1O (protonated)
O=C([N-]c1sc2c(c1C(=O)OCc1ccccc1)CCN(Cc1ccc(Cl)cc1)C2)c1ncccc1O (3D coordinates assigned)
O=C([N-]c1sc2c(c1C(=O)OCc1ccccc1)CCN(Cc1ccc(Cl)cc1)C2)c1ncccc1O (nonaromatic ring conformer: 107.43723954756804 kcal/mol)

>  <smiles>  (94) 
O=C(Nc1sc2c(c1C(=O)OCc1ccccc1)CCN(Cc1ccc(Cl)cc1)C2)c1ncccc1O

>  <score_type>  (94) 
oracle

>  <origin>  (94) 
adg

>  <m_score__min__energy>  (94) 
-11.619999999999999

>  <m_primary>  (94) 
energy

$$$$
94:0
     RDKit          3D

 51 53  0  0  0  0  0  0  0  0999 V2000
   56.6150   29.7280   43.2420 C   0  0  0  0  0  0  0  0  0  0  0  0
   57.2670   30.6000   44.2810 C   0  0  0  0  0  0  0  0  0  0  0  0
   57.4160   31.9710   44.0210 C   0  0  0  0  0  0  0  0  0  0  0  0
   57.9830   32.8180   44.9750 C   0  0  0  0  0  0  0  0  0  0  0  0
   58.4180   32.3070   46.2030 C   0  0  0  0  0  0  0  0  0  0  0  0
   59.1310   33.3790   47.4100 S   0  0  0  0  0  0  0  0  0  0  0  0
   58.5350   33.0730   48.7560 O   0  0  0  0  0  0  0  0  0  0  0  0
   58.7960   34.8040   47.0650 O   0  0  0  0  0  0  0  0  0  0  0  0
   60.8670   33.2000   47.4920 N   0  0  0  0  0  0  0  0  0  0  0  0
   61.5140   33.9210   46.3860 C   0  0  0  0  0  0  0  0  0  0  0  0
   63.0380   33.6800   46.4070 C   0  0  0  0  0  0  0  0  0  0  0  0
   63.4250   32.8830   47.5120 O   0  0  0  0  0  0  0  0  0  0  0  0
   62.7740   31.6270   47.4440 C   0  0  0  0  0  0  0  0  0  0  0  0
   61.2380   31.7790   47.4530 C   0  0  0  0  0  0  0  0  0  0  0  0
   58.2900   30.9380   46.4650 C   0  0  0  0  0  0  0  0  0  0  0  0
   57.7440   30.0750   45.5050 C   0  0  0  0  0  0  0  0  0  0  0  0
   57.6420   28.6790   45.8150 N   0  0  0  0  0  0  0  0  0  0  0  0
   58.7620   27.9150   46.2820 C   0  0  0  0  0  0  0  0  0  0  0  0
   59.9070   28.4390   46.3520 O   0  0  0  0  0  0  0  0  0  0  0  0
   58.5800   26.4790   46.6810 C   0  0  0  0  0  0  0  0  0  0  0  0
   57.1780   26.1870   46.9660 N   0  0  0  0  0  0  0  0  0  0  0  0
   56.1370   25.9380   46.0080 C   0  0  0  0  0  0  0  0  0  0  0  0
   55.1480   26.7160   45.9890 O   0  0  0  0  0  0  0  0  0  0  0  0
   56.1840   24.8170   45.0430 C   0  0  0  0  0  0  0  0  0  0  0  0
   57.3110   24.6350   43.8050 S   0  0  0  0  0  0  0  0  0  0  0  0
   56.8040   23.1200   43.2860 C   0  0  0  0  0  0  0  0  0  0  0  0
   55.7520   22.7180   44.0960 C   0  0  0  0  0  0  0  0  0  0  0  0
   55.3960   23.6620   45.0730 C   0  0  0  0  0  0  0  0  0  0  0  0
   54.3100   23.4040   46.0730 C   0  0  0  0  0  0  0  0  0  0  0  0
   56.0274   28.9421   43.7392 H   0  0  0  0  0  0  0  0  0  0  0  0
   55.9512   30.3401   42.6137 H   0  0  0  0  0  0  0  0  0  0  0  0
   57.3898   29.2644   42.6137 H   0  0  0  0  0  0  0  0  0  0  0  0
   57.0829   32.3821   43.0566 H   0  0  0  0  0  0  0  0  0  0  0  0
   58.0883   33.8917   44.7605 H   0  0  0  0  0  0  0  0  0  0  0  0
   61.1034   33.5631   45.4303 H   0  0  0  0  0  0  0  0  0  0  0  0
   61.3209   34.9979   46.5000 H   0  0  0  0  0  0  0  0  0  0  0  0
   63.3313   33.1689   45.4782 H   0  0  0  0  0  0  0  0  0  0  0  0
   63.5392   34.6553   46.4941 H   0  0  0  0  0  0  0  0  0  0  0  0
   63.0765   31.1184   46.5167 H   0  0  0  0  0  0  0  0  0  0  0  0
   63.0658   31.0412   48.3281 H   0  0  0  0  0  0  0  0  0  0  0  0
   60.8225   31.3202   46.5437 H   0  0  0  0  0  0  0  0  0  0  0  0
   60.8339   31.2788   48.3455 H   0  0  0  0  0  0  0  0  0  0  0  0
   58.6211   30.5355   47.4337 H   0  0  0  0  0  0  0  0  0  0  0  0
   56.6840   28.2700   45.9060 H   0  0  0  0  0  0  0  0  0  0  0  0
   58.9222   25.8317   45.8601 H   0  0  0  0  0  0  0  0  0  0  0  0
   59.1683   26.2918   47.5914 H   0  0  0  0  0  0  0  0  0  0  0  0
   57.2314   22.5469   42.4500 H   0  0  0  0  0  0  0  0  0  0  0  0
   55.2435   21.7491   43.9834 H   0  0  0  0  0  0  0  0  0  0  0  0
   54.7176   23.5008   47.0901 H   0  0  0  0  0  0  0  0  0  0  0  0
   53.5001   24.1347   45.9314 H   0  0  0  0  0  0  0  0  0  0  0  0
   53.9153   22.3871   45.9314 H   0  0  0  0  0  0  0  0  0  0  0  0
  1  2  1  0
  2  3  2  0
  3  4  1  0
  4  5  2  0
  5  6  1  0
  6  7  2  0
  6  8  2  0
  6  9  1  0
  9 10  1  0
 10 11  1  0
 11 12  1  0
 12 13  1  0
 13 14  1  0
  5 15  1  0
 15 16  2  0
 16 17  1  0
 17 18  1  0
 18 19  2  0
 18 20  1  0
 20 21  1  0
 21 22  1  0
 22 23  2  0
 22 24  1  0
 24 25  1  0
 25 26  1  0
 26 27  2  0
 27 28  1  0
 28 29  1  0
 16  2  1  0
 28 24  2  0
 14  9  1  0
  1 30  1  0
  1 31  1  0
  1 32  1  0
  3 33  1  0
  4 34  1  0
 10 35  1  0
 10 36  1  0
 11 37  1  0
 11 38  1  0
 13 39  1  0
 13 40  1  0
 14 41  1  0
 14 42  1  0
 15 43  1  0
 17 44  1  0
 20 45  1  0
 20 46  1  0
 26 47  1  0
 27 48  1  0
 29 49  1  0
 29 50  1  0
 29 51  1  0
M  CHG  1  21  -1
M  END
>  <UniqueID>  (95) 
89

>  <SMILES>  (95) 
Cc1ccc(S(=O)(=O)N2CCOCC2)cc1NC(=O)C[N-]C(=O)c1sccc1C

>  <Energy>  (95) 
87.11658157269326

>  <Genealogy>  (95) 
Cc1ccc(S(=O)(=O)N2CCOCC2)cc1NC(=O)C[N-]C(=O)c1sccc1C (protonated)
Cc1ccc(S(=O)(=O)N2CCOCC2)cc1NC(=O)C[N-]C(=O)c1sccc1C (3D coordinates assigned)
Cc1ccc(S(=O)(=O)N2CCOCC2)cc1NC(=O)C[N-]C(=O)c1sccc1C (nonaromatic ring conformer: 87.11658157269326 kcal/mol)

>  <smiles>  (95) 
Cc1ccc(S(=O)(=O)N2CCOCC2)cc1NC(=O)CNC(=O)c1sccc1C

>  <score_type>  (95) 
oracle

>  <origin>  (95) 
adg

>  <m_score__min__energy>  (95) 
-11.84

>  <m_primary>  (95) 
energy

$$$$
95:0
     RDKit          3D

 45 46  0  0  0  0  0  0  0  0999 V2000
   58.0580   30.7200   46.8910 O   0  0  0  0  0  0  0  0  0  0  0  0
   58.8810   31.5810   47.3040 C   0  0  0  0  0  0  0  0  0  0  0  0
   60.0710   31.1500   48.1010 C   0  0  0  0  0  0  0  0  0  0  0  0
   59.6290   30.5240   49.4270 C   0  0  0  0  0  0  0  0  0  0  0  0
   59.8180   28.9960   49.4500 C   0  0  0  0  0  0  0  0  0  0  0  0
   59.0180   28.2990   48.4240 N   0  0  0  0  0  0  0  0  0  0  0  0
   59.8640   27.6580   47.4090 C   0  0  0  0  0  0  0  0  0  0  0  0
   59.0000   27.0240   46.3430 C   0  0  0  0  0  0  0  0  0  0  0  0
   58.2740   25.8530   46.6350 C   0  0  0  0  0  0  0  0  0  0  0  0
   58.3240   25.2940   47.8720 F   0  0  0  0  0  0  0  0  0  0  0  0
   57.4930   25.2430   45.6510 C   0  0  0  0  0  0  0  0  0  0  0  0
   57.4370   25.7810   44.3650 C   0  0  0  0  0  0  0  0  0  0  0  0
   58.1690   26.9290   44.0540 C   0  0  0  0  0  0  0  0  0  0  0  0
   58.1160   27.4320   42.7950 F   0  0  0  0  0  0  0  0  0  0  0  0
   58.9570   27.5520   45.0320 C   0  0  0  0  0  0  0  0  0  0  0  0
   59.8880   28.9800   44.5830 Cl  0  0  0  0  0  0  0  0  0  0  0  0
   58.6620   32.9740   47.0550 N   0  0  0  0  0  0  0  0  0  0  0  0
   57.5850   33.4820   46.2130 C   0  0  0  0  0  0  0  0  0  0  0  0
   57.5060   32.6930   44.9400 C   0  0  0  0  0  0  0  0  0  0  0  0
   58.2300   33.0810   43.8020 C   0  0  0  0  0  0  0  0  0  0  0  0
   58.1080   32.3370   42.6280 C   0  0  0  0  0  0  0  0  0  0  0  0
   57.2730   31.2190   42.5940 C   0  0  0  0  0  0  0  0  0  0  0  0
   56.5680   30.8540   43.7490 C   0  0  0  0  0  0  0  0  0  0  0  0
   55.6330   29.6810   43.7350 C   0  0  0  0  0  0  0  0  0  0  0  0
   55.2250   29.3750   45.0400 O   0  0  0  0  0  0  0  0  0  0  0  0
   56.6940   31.6000   44.8800 N   0  0  0  0  0  0  0  0  0  0  0  0
   60.6443   30.4094   47.5241 H   0  0  0  0  0  0  0  0  0  0  0  0
   60.6954   32.0304   48.3133 H   0  0  0  0  0  0  0  0  0  0  0  0
   60.2233   30.9652   50.2407 H   0  0  0  0  0  0  0  0  0  0  0  0
   58.5557   30.7298   49.5523 H   0  0  0  0  0  0  0  0  0  0  0  0
   60.8810   28.7719   49.2772 H   0  0  0  0  0  0  0  0  0  0  0  0
   59.4764   28.6376   50.4323 H   0  0  0  0  0  0  0  0  0  0  0  0
   58.3530   28.9580   47.9550 H   0  0  0  0  0  0  0  0  0  0  0  0
   60.5161   28.4142   46.9476 H   0  0  0  0  0  0  0  0  0  0  0  0
   60.4767   26.8800   47.8878 H   0  0  0  0  0  0  0  0  0  0  0  0
   56.9200   24.3352   45.8907 H   0  0  0  0  0  0  0  0  0  0  0  0
   56.8155   25.3004   43.5951 H   0  0  0  0  0  0  0  0  0  0  0  0
   56.6306   33.3966   46.7531 H   0  0  0  0  0  0  0  0  0  0  0  0
   57.7863   34.5358   45.9700 H   0  0  0  0  0  0  0  0  0  0  0  0
   58.8869   33.9627   43.8353 H   0  0  0  0  0  0  0  0  0  0  0  0
   58.6698   32.6315   41.7293 H   0  0  0  0  0  0  0  0  0  0  0  0
   57.1694   30.6306   41.6704 H   0  0  0  0  0  0  0  0  0  0  0  0
   54.7505   29.9264   43.1260 H   0  0  0  0  0  0  0  0  0  0  0  0
   56.1529   28.8112   43.3070 H   0  0  0  0  0  0  0  0  0  0  0  0
   55.6200   30.0700   45.6300 H   0  0  0  0  0  0  0  0  0  0  0  0
  1  2  2  0
  2  3  1  0
  3  4  1  0
  4  5  1  0
  5  6  1  0
  6  7  1  0
  7  8  1  0
  8  9  2  0
  9 10  1  0
  9 11  1  0
 11 12  2  0
 12 13  1  0
 13 14  1  0
 13 15  2  0
 15 16  1  0
  2 17  1  0
 17 18  1  0
 18 19  1  0
 19 20  2  0
 20 21  1  0
 21 22  2  0
 22 23  1  0
 23 24  1  0
 24 25  1  0
 23 26  2  0
 15  8  1  0
 26 19  1  0
  3 27  1  0
  3 28  1  0
  4 29  1  0
  4 30  1  0
  5 31  1  0
  5 32  1  0
  6 33  1  0
  7 34  1  0
  7 35  1  0
 11 36  1  0
 12 37  1  0
 18 38  1  0
 18 39  1  0
 20 40  1  0
 21 41  1  0
 22 42  1  0
 24 43  1  0
 24 44  1  0
 25 45  1  0
M  CHG  1  17  -1
M  END
>  <UniqueID>  (96) 
90

>  <SMILES>  (96) 
O=C(CCCNCc1c(F)ccc(F)c1Cl)[N-]Cc1cccc(CO)n1

>  <Energy>  (96) 
40.45861557619354

>  <Genealogy>  (96) 
O=C(CCCNCc1c(F)ccc(F)c1Cl)[N-]Cc1cccc(CO)n1 (protonated)
O=C(CCCNCc1c(F)ccc(F)c1Cl)[N-]Cc1cccc(CO)n1 (3D coordinates assigned)
O=C(CCCNCc1c(F)ccc(F)c1Cl)[N-]Cc1cccc(CO)n1 (optimized conformer: 40.45861557619354 kcal/mol)

>  <smiles>  (96) 
O=C(CCCNCc1c(F)ccc(F)c1Cl)NCc1cccc(CO)n1

>  <score_type>  (96) 
oracle

>  <origin>  (96) 
adg

>  <m_score__min__energy>  (96) 
-8.8499999999999996

>  <m_primary>  (96) 
energy

$$$$
96:0
     RDKit          3D

 44 46  0  0  0  0  0  0  0  0999 V2000
   54.6089   24.7642   46.1248 H   0  0  0  0  0  0  0  0  0  0  0  0
   55.5090   25.3670   45.9340 C   0  0  0  0  0  0  0  0  0  0  0  0
   55.5220   26.7160   45.9990 N   0  0  0  0  0  0  0  0  0  0  0  0
   56.7930   27.0360   45.7030 C   0  0  0  0  0  0  0  0  0  0  0  0
   57.3200   28.4400   45.6600 C   0  0  0  0  0  0  0  0  0  0  0  0
   58.3131   28.4350   45.1869 H   0  0  0  0  0  0  0  0  0  0  0  0
   57.3801   28.8184   46.6911 H   0  0  0  0  0  0  0  0  0  0  0  0
   56.4090   29.3460   44.8760 C   0  0  0  0  0  0  0  0  0  0  0  0
   55.1720   29.1060   44.8500 O   0  0  0  0  0  0  0  0  0  0  0  0
   56.8860   30.5780   44.3130 N   0  0  0  0  0  0  0  0  0  0  0  0
   57.4840   31.5550   44.9340 C   0  0  0  0  0  0  0  0  0  0  0  0
   57.4390   32.7970   44.3810 N   0  0  0  0  0  0  0  0  0  0  0  0
   58.0490   33.8690   44.9490 C   0  0  0  0  0  0  0  0  0  0  0  0
   57.9830   34.8554   44.4667 H   0  0  0  0  0  0  0  0  0  0  0  0
   58.7600   33.7250   46.1430 C   0  0  0  0  0  0  0  0  0  0  0  0
   59.5550   35.1360   46.8350 Cl  0  0  0  0  0  0  0  0  0  0  0  0
   58.8370   32.4560   46.7470 C   0  0  0  0  0  0  0  0  0  0  0  0
   59.6290   32.2370   48.0150 C   0  0  0  0  0  0  0  0  0  0  0  0
   59.5409   31.1836   48.3192 H   0  0  0  0  0  0  0  0  0  0  0  0
   59.2294   32.8940   48.8015 H   0  0  0  0  0  0  0  0  0  0  0  0
   61.0540   32.5630   47.7990 N   0  0  0  0  0  0  0  0  0  0  0  0
   61.7000   32.9370   49.0660 C   0  0  0  0  0  0  0  0  0  0  0  0
   61.7810   32.0482   49.7091 H   0  0  0  0  0  0  0  0  0  0  0  0
   61.0934   33.7069   49.5653 H   0  0  0  0  0  0  0  0  0  0  0  0
   63.1100   33.5020   48.7970 C   0  0  0  0  0  0  0  0  0  0  0  0
   63.7522   33.2612   49.6570 H   0  0  0  0  0  0  0  0  0  0  0  0
   63.0028   34.5868   48.6495 H   0  0  0  0  0  0  0  0  0  0  0  0
   63.7410   32.9520   47.5690 N   0  0  0  0  0  0  0  0  0  0  0  0
   64.7770   32.9250   47.7310 H   0  0  0  0  0  0  0  0  0  0  0  0
   63.5270   33.8270   46.3970 C   0  0  0  0  0  0  0  0  0  0  0  0
   63.2786   34.8428   46.7383 H   0  0  0  0  0  0  0  0  0  0  0  0
   64.4440   33.8581   45.7903 H   0  0  0  0  0  0  0  0  0  0  0  0
   62.6992   33.4313   45.7903 H   0  0  0  0  0  0  0  0  0  0  0  0
   63.3090   31.5650   47.2990 C   0  0  0  0  0  0  0  0  0  0  0  0
   63.6423   30.9243   48.1287 H   0  0  0  0  0  0  0  0  0  0  0  0
   63.7572   31.2564   46.3430 H   0  0  0  0  0  0  0  0  0  0  0  0
   61.7750   31.4370   47.1600 C   0  0  0  0  0  0  0  0  0  0  0  0
   61.4545   30.4977   47.6343 H   0  0  0  0  0  0  0  0  0  0  0  0
   61.5332   31.4497   46.0870 H   0  0  0  0  0  0  0  0  0  0  0  0
   58.2090   31.3650   46.1270 C   0  0  0  0  0  0  0  0  0  0  0  0
   58.2827   30.3618   46.5722 H   0  0  0  0  0  0  0  0  0  0  0  0
   57.5150   25.8900   45.4680 C   0  0  0  0  0  0  0  0  0  0  0  0
   58.5821   25.8489   45.2044 H   0  0  0  0  0  0  0  0  0  0  0  0
   56.7040   24.8280   45.6130 N   0  0  0  0  0  0  0  0  0  0  0  0
  1  2  1  0
  2  3  2  0
  3  4  1  0
  4  5  1  0
  5  6  1  0
  5  7  1  0
  5  8  1  0
  8  9  2  0
  8 10  1  0
 10 11  2  0
 11 12  1  0
 12 13  1  0
 13 14  1  0
 13 15  2  0
 15 16  1  0
 15 17  1  0
 17 18  1  0
 18 19  1  0
 18 20  1  0
 18 21  1  0
 21 22  1  0
 22 23  1  0
 22 24  1  0
 22 25  1  0
 25 26  1  0
 25 27  1  0
 25 28  1  0
 28 29  1  0
 28 30  1  0
 30 31  1  0
 30 32  1  0
 30 33  1  0
 28 34  1  0
 34 35  1  0
 34 36  1  0
 34 37  1  0
 37 38  1  0
 37 39  1  0
 17 40  2  0
 40 41  1  0
  4 42  2  0
 42 43  1  0
 42 44  1  0
 44  2  1  0
 40 11  1  0
 37 21  1  0
M  CHG  3  12  -1  28   1  44  -1
M  END
>  <UniqueID>  (97) 
91

>  <SMILES>  (97) 
C[NH+]1CCN(Cc2c/c(=N\C(=O)Cc3c[n-]cn3)[n-]cc2Cl)CC1

>  <Energy>  (97) 
91.38175878841336

>  <Genealogy>  (97) 
C[NH+]1CCN(Cc2cc(=NC(=O)Cc3c[n-]cn3)[n-]cc2Cl)CC1 (protonated)
C[NH+]1CCN(Cc2c/c(=N\C(=O)Cc3c[n-]cn3)[n-]cc2Cl)CC1 (cis-trans isomerization)
C[NH+]1CCN(Cc2c/c(=N\C(=O)Cc3c[n-]cn3)[n-]cc2Cl)CC1 (3D coordinates assigned)
C[NH+]1CCN(Cc2c/c(=N\C(=O)Cc3c[n-]cn3)[n-]cc2Cl)CC1 (nonaromatic ring conformer: 91.38175878841336 kcal/mol)

>  <smiles>  (97) 
CN1CCN(Cc2cc(=NC(=O)Cc3c[nH]cn3)[nH]cc2Cl)CC1

>  <score_type>  (97) 
oracle

>  <origin>  (97) 
adg

>  <m_score__min__energy>  (97) 
-10.359999999999999

>  <m_primary>  (97) 
energy

$$$$
97:0
     RDKit          3D

 39 41  0  0  0  0  0  0  0  0999 V2000
   57.8790   28.9870   44.1330 C   0  0  0  0  0  0  0  0  0  0  0  0
   56.3770   29.9450   44.1040 S   0  0  0  0  0  0  0  0  0  0  0  0
   55.9030   30.1360   42.6910 O   0  0  0  0  0  0  0  0  0  0  0  0
   55.3220   29.2010   44.8740 O   0  0  0  0  0  0  0  0  0  0  0  0
   56.6350   31.4840   44.8600 N   0  0  0  0  0  0  0  0  0  0  0  0
   57.8320   31.8930   45.5390 C   0  0  0  0  0  0  0  0  0  0  0  0
   58.7390   30.9530   46.0630 C   0  0  0  0  0  0  0  0  0  0  0  0
   59.8720   31.3720   46.7790 C   0  0  0  0  0  0  0  0  0  0  0  0
   60.8290   30.3600   47.3630 C   0  0  0  0  0  0  0  0  0  0  0  0
   60.1110   29.3090   48.0890 N   0  0  0  0  0  0  0  0  0  0  0  0
   59.5350   28.1440   47.4700 C   0  0  0  0  0  0  0  0  0  0  0  0
   60.3860   27.1390   46.9770 C   0  0  0  0  0  0  0  0  0  0  0  0
   59.8640   26.0070   46.3450 C   0  0  0  0  0  0  0  0  0  0  0  0
   58.4810   25.8640   46.2030 C   0  0  0  0  0  0  0  0  0  0  0  0
   57.9560   24.7700   45.5880 N   0  0  0  0  0  0  0  0  0  0  0  0
   56.6130   24.6220   45.4450 C   0  0  0  0  0  0  0  0  0  0  0  0
   55.7540   25.6100   45.9410 C   0  0  0  0  0  0  0  0  0  0  0  0
   54.5070   25.4890   45.8180 O   0  0  0  0  0  0  0  0  0  0  0  0
   56.2730   26.7050   46.5560 N   0  0  0  0  0  0  0  0  0  0  0  0
   57.6160   26.8580   46.7000 C   0  0  0  0  0  0  0  0  0  0  0  0
   58.1400   27.9900   47.3330 C   0  0  0  0  0  0  0  0  0  0  0  0
   60.1300   32.7430   46.9160 C   0  0  0  0  0  0  0  0  0  0  0  0
   59.2510   33.6810   46.3720 C   0  0  0  0  0  0  0  0  0  0  0  0
   58.1030   33.2670   45.6890 C   0  0  0  0  0  0  0  0  0  0  0  0
   57.2440   34.2370   45.1730 O   0  0  0  0  0  0  0  0  0  0  0  0
   58.1739   28.7989   45.1759 H   0  0  0  0  0  0  0  0  0  0  0  0
   57.7122   28.0281   43.6205 H   0  0  0  0  0  0  0  0  0  0  0  0
   58.6782   29.5425   43.6205 H   0  0  0  0  0  0  0  0  0  0  0  0
   58.5585   29.8787   45.9101 H   0  0  0  0  0  0  0  0  0  0  0  0
   61.4079   29.9016   46.5477 H   0  0  0  0  0  0  0  0  0  0  0  0
   61.4955   30.8777   48.0686 H   0  0  0  0  0  0  0  0  0  0  0  0
   60.0890   29.3810   49.1320 H   0  0  0  0  0  0  0  0  0  0  0  0
   61.4750   27.2450   47.0901 H   0  0  0  0  0  0  0  0  0  0  0  0
   60.5406   25.2298   45.9600 H   0  0  0  0  0  0  0  0  0  0  0  0
   56.2037   23.7327   44.9433 H   0  0  0  0  0  0  0  0  0  0  0  0
   57.4619   28.7623   47.7251 H   0  0  0  0  0  0  0  0  0  0  0  0
   61.0281   33.0808   47.4540 H   0  0  0  0  0  0  0  0  0  0  0  0
   59.4630   34.7548   46.4814 H   0  0  0  0  0  0  0  0  0  0  0  0
   56.4050   34.0010   44.6560 H   0  0  0  0  0  0  0  0  0  0  0  0
  1  2  1  0
  2  3  2  0
  2  4  2  0
  2  5  1  0
  5  6  1  0
  6  7  2  0
  7  8  1  0
  8  9  1  0
  9 10  1  0
 10 11  1  0
 11 12  2  0
 12 13  1  0
 13 14  2  0
 14 15  1  0
 15 16  2  0
 16 17  1  0
 17 18  2  0
 17 19  1  0
 19 20  1  0
 20 21  2  0
  8 22  2  0
 22 23  1  0
 23 24  2  0
 24 25  1  0
 24  6  1  0
 21 11  1  0
 20 14  1  0
  1 26  1  0
  1 27  1  0
  1 28  1  0
  7 29  1  0
  9 30  1  0
  9 31  1  0
 10 32  1  0
 12 33  1  0
 13 34  1  0
 16 35  1  0
 21 36  1  0
 22 37  1  0
 23 38  1  0
 25 39  1  0
M  CHG  2   5  -1  19  -1
M  END
>  <UniqueID>  (98) 
92

>  <SMILES>  (98) 
CS(=O)(=O)[N-]c1cc(CNc2ccc3ncc(=O)[n-]c3c2)ccc1O

>  <Energy>  (98) 
43.43016665970275

>  <Genealogy>  (98) 
CS(=O)(=O)[N-]c1cc(CNc2ccc3ncc(=O)[n-]c3c2)ccc1O (protonated)
CS(=O)(=O)[N-]c1cc(CNc2ccc3ncc(=O)[n-]c3c2)ccc1O (3D coordinates assigned)
CS(=O)(=O)[N-]c1cc(CNc2ccc3ncc(=O)[n-]c3c2)ccc1O (optimized conformer: 43.43016665970275 kcal/mol)

>  <smiles>  (98) 
CS(=O)(=O)Nc1cc(CNc2ccc3ncc(=O)[nH]c3c2)ccc1O

>  <score_type>  (98) 
oracle

>  <origin>  (98) 
adg

>  <m_score__min__energy>  (98) 
-11.279999999999999

>  <m_primary>  (98) 
energy

$$$$
