0:0
     RDKit          3D

 34 35  0  0  0  0  0  0  0  0999 V2000
   57.2910   32.4190   44.8580 C   0  0  0  0  0  0  0  0  0  0  0  0
   57.2430   31.1340   44.1520 N   0  0  0  0  0  0  0  0  0  0  0  0
   57.0040   31.1030   42.7050 C   0  0  0  0  0  0  0  0  0  0  0  0
   57.4430   29.9090   44.8920 C   0  0  0  0  0  0  0  0  0  0  0  0
   58.6520   29.4550   45.4050 C   0  0  0  0  0  0  0  0  0  0  0  0
   58.3750   28.2380   45.9940 C   0  0  0  0  0  0  0  0  0  0  0  0
   59.3170   27.4250   46.6130 O   0  0  0  0  0  0  0  0  0  0  0  0
   57.0680   27.9280   45.8840 N   0  0  0  0  0  0  0  0  0  0  0  0
   56.4250   26.6830   46.3090 C   0  0  0  0  0  0  0  0  0  0  0  0
   57.4240   25.5190   46.3060 C   0  0  0  0  0  0  0  0  0  0  0  0
   57.0420   24.4620   45.3010 C   0  0  0  0  0  0  0  0  0  0  0  0
   57.9680   23.4740   44.9280 C   0  0  0  0  0  0  0  0  0  0  0  0
   57.5960   22.4610   44.0390 C   0  0  0  0  0  0  0  0  0  0  0  0
   56.2970   22.4210   43.5230 C   0  0  0  0  0  0  0  0  0  0  0  0
   55.9280   21.4110   42.6440 O   0  0  0  0  0  0  0  0  0  0  0  0
   55.3680   23.3980   43.8960 C   0  0  0  0  0  0  0  0  0  0  0  0
   55.7370   24.4140   44.7820 C   0  0  0  0  0  0  0  0  0  0  0  0
   56.4960   28.9430   45.2040 C   0  0  0  0  0  0  0  0  0  0  0  0
   55.1470   28.9760   44.8670 O   0  0  0  0  0  0  0  0  0  0  0  0
   57.2844   32.2414   45.9436 H   0  0  0  0  0  0  0  0  0  0  0  0
   58.2098   32.9560   44.5799 H   0  0  0  0  0  0  0  0  0  0  0  0
   56.4148   33.0231   44.5799 H   0  0  0  0  0  0  0  0  0  0  0  0
   55.9298   30.9637   42.5137 H   0  0  0  0  0  0  0  0  0  0  0  0
   57.3360   32.0517   42.2581 H   0  0  0  0  0  0  0  0  0  0  0  0
   57.5670   30.2704   42.2581 H   0  0  0  0  0  0  0  0  0  0  0  0
   59.6275   29.9607   45.3525 H   0  0  0  0  0  0  0  0  0  0  0  0
   56.0271   26.8128   47.3263 H   0  0  0  0  0  0  0  0  0  0  0  0
   55.6132   26.4497   45.6043 H   0  0  0  0  0  0  0  0  0  0  0  0
   58.4225   25.9062   46.0547 H   0  0  0  0  0  0  0  0  0  0  0  0
   57.4206   25.0602   47.3058 H   0  0  0  0  0  0  0  0  0  0  0  0
   58.9890   23.4973   45.3366 H   0  0  0  0  0  0  0  0  0  0  0  0
   58.3271   21.6936   43.7448 H   0  0  0  0  0  0  0  0  0  0  0  0
   54.3456   23.3666   43.4914 H   0  0  0  0  0  0  0  0  0  0  0  0
   55.0028   25.1792   45.0743 H   0  0  0  0  0  0  0  0  0  0  0  0
  1  2  1  0
  2  3  1  0
  2  4  1  0
  4  5  1  0
  5  6  2  0
  6  7  1  0
  6  8  1  0
  8  9  1  0
  9 10  1  0
 10 11  1  0
 11 12  2  0
 12 13  1  0
 13 14  2  0
 14 15  1  0
 14 16  1  0
 16 17  2  0
  8 18  1  0
 18 19  1  0
 18  4  2  0
 17 11  1  0
  1 20  1  0
  1 21  1  0
  1 22  1  0
  3 23  1  0
  3 24  1  0
  3 25  1  0
  5 26  1  0
  9 27  1  0
  9 28  1  0
 10 29  1  0
 10 30  1  0
 12 31  1  0
 13 32  1  0
 16 33  1  0
 17 34  1  0
M  CHG  3   7  -1  15  -1  19  -1
M  END
>  <UniqueID>  (1) 
1

>  <SMILES>  (1) 
CN(C)c1cc([O-])n(CCc2ccc([O-])cc2)c1[O-]

>  <Energy>  (1) 
57.332469319471194

>  <Genealogy>  (1) 
CN(C)c1cc([O-])n(CCc2ccc([O-])cc2)c1[O-] (protonated)
CN(C)c1cc([O-])n(CCc2ccc([O-])cc2)c1[O-] (3D coordinates assigned)
CN(C)c1cc([O-])n(CCc2ccc([O-])cc2)c1[O-] (optimized conformer: 57.332469319471194 kcal/mol)

>  <smiles>  (1) 
CN(C)c1cc(O)n(CCc2ccc(O)cc2)c1O

>  <score_type>  (1) 
oracle

>  <origin>  (1) 
adg

>  <m_score__min__energy>  (1) 
-11.99

>  <m_primary>  (1) 
energy

$$$$
1:0
     RDKit          3D

 54 58  0  0  0  0  0  0  0  0999 V2000
   57.0970   23.1060   48.8980 O   0  0  0  0  0  0  0  0  0  0  0  0
   57.0600   23.1530   47.6390 C   0  0  0  0  0  0  0  0  0  0  0  0
   57.2350   21.9400   46.8970 N   0  0  0  0  0  0  0  0  0  0  0  0
   57.9800   21.8110   45.6540 C   0  0  0  0  0  0  0  0  0  0  0  0
   57.2580   22.4770   44.5260 C   0  0  0  0  0  0  0  0  0  0  0  0
   57.5190   23.7430   44.0300 C   0  0  0  0  0  0  0  0  0  0  0  0
   56.6270   23.9260   42.9950 C   0  0  0  0  0  0  0  0  0  0  0  0
   55.8780   22.7610   42.9220 C   0  0  0  0  0  0  0  0  0  0  0  0
   56.2800   21.9170   43.8480 O   0  0  0  0  0  0  0  0  0  0  0  0
   56.7850   24.4420   46.9790 C   0  0  0  0  0  0  0  0  0  0  0  0
   55.5520   24.6770   46.3600 C   0  0  0  0  0  0  0  0  0  0  0  0
   55.2800   25.9210   45.7900 C   0  0  0  0  0  0  0  0  0  0  0  0
   56.2350   26.9440   45.8230 C   0  0  0  0  0  0  0  0  0  0  0  0
   55.8960   28.2130   45.2600 N   0  0  0  0  0  0  0  0  0  0  0  0
   56.8140   29.0590   44.0520 S   0  0  0  0  0  0  0  0  0  0  0  0
   57.7810   28.1060   43.4050 O   0  0  0  0  0  0  0  0  0  0  0  0
   55.8940   29.6440   43.0160 O   0  0  0  0  0  0  0  0  0  0  0  0
   57.7110   30.3510   44.8370 C   0  0  0  0  0  0  0  0  0  0  0  0
   58.5660   30.0690   45.9250 C   0  0  0  0  0  0  0  0  0  0  0  0
   59.2340   31.1070   46.5920 C   0  0  0  0  0  0  0  0  0  0  0  0
   59.0430   32.4170   46.1450 C   0  0  0  0  0  0  0  0  0  0  0  0
   58.2220   32.6910   45.0830 C   0  0  0  0  0  0  0  0  0  0  0  0
   57.5450   31.6790   44.4050 C   0  0  0  0  0  0  0  0  0  0  0  0
   58.1080   34.1640   44.8710 C   0  0  0  0  0  0  0  0  0  0  0  0
   58.9630   34.7500   46.0190 C   0  0  0  0  0  0  0  0  0  0  0  0
   59.5430   33.6070   46.7280 N   0  0  0  0  0  0  0  0  0  0  0  0
   60.2200   33.7210   47.9800 C   0  0  0  0  0  0  0  0  0  0  0  0
   59.5610   33.8360   49.0380 O   0  0  0  0  0  0  0  0  0  0  0  0
   61.7070   33.6780   48.0560 C   0  0  0  0  0  0  0  0  0  0  0  0
   62.3870   33.8170   46.7050 C   0  0  0  0  0  0  0  0  0  0  0  0
   62.3860   32.4850   47.4060 C   0  0  0  0  0  0  0  0  0  0  0  0
   57.4880   26.6950   46.4110 C   0  0  0  0  0  0  0  0  0  0  0  0
   57.7600   25.4500   46.9820 C   0  0  0  0  0  0  0  0  0  0  0  0
   58.9676   22.2799   45.7760 H   0  0  0  0  0  0  0  0  0  0  0  0
   58.0880   20.7418   45.4189 H   0  0  0  0  0  0  0  0  0  0  0  0
   58.2788   24.4538   44.3870 H   0  0  0  0  0  0  0  0  0  0  0  0
   56.5291   24.8161   42.3561 H   0  0  0  0  0  0  0  0  0  0  0  0
   55.0704   22.5713   42.1996 H   0  0  0  0  0  0  0  0  0  0  0  0
   54.7957   23.8791   46.3228 H   0  0  0  0  0  0  0  0  0  0  0  0
   54.3063   26.0996   45.3103 H   0  0  0  0  0  0  0  0  0  0  0  0
   58.7092   29.0285   46.2518 H   0  0  0  0  0  0  0  0  0  0  0  0
   59.8927   30.8945   47.4469 H   0  0  0  0  0  0  0  0  0  0  0  0
   56.8944   31.9140   43.5498 H   0  0  0  0  0  0  0  0  0  0  0  0
   58.5118   34.4543   43.8898 H   0  0  0  0  0  0  0  0  0  0  0  0
   57.0683   34.5231   44.8790 H   0  0  0  0  0  0  0  0  0  0  0  0
   59.7601   35.3892   45.6115 H   0  0  0  0  0  0  0  0  0  0  0  0
   58.3539   35.3701   46.6932 H   0  0  0  0  0  0  0  0  0  0  0  0
   61.7817   34.1577   49.0431 H   0  0  0  0  0  0  0  0  0  0  0  0
   61.7818   33.9606   45.7977 H   0  0  0  0  0  0  0  0  0  0  0  0
   63.1649   34.4760   46.2918 H   0  0  0  0  0  0  0  0  0  0  0  0
   61.7801   31.6566   47.0103 H   0  0  0  0  0  0  0  0  0  0  0  0
   63.1628   31.7704   47.7157 H   0  0  0  0  0  0  0  0  0  0  0  0
   58.2556   27.4828   46.4212 H   0  0  0  0  0  0  0  0  0  0  0  0
   58.7435   25.2591   47.4362 H   0  0  0  0  0  0  0  0  0  0  0  0
  1  2  2  0
  2  3  1  0
  3  4  1  0
  4  5  1  0
  5  6  2  0
  6  7  1  0
  7  8  2  0
  8  9  1  0
  2 10  1  0
 10 11  2  0
 11 12  1  0
 12 13  2  0
 13 14  1  0
 14 15  1  0
 15 16  2  0
 15 17  2  0
 15 18  1  0
 18 19  2  0
 19 20  1  0
 20 21  2  0
 21 22  1  0
 22 23  2  0
 22 24  1  0
 24 25  1  0
 25 26  1  0
 26 27  1  0
 27 28  2  0
 27 29  1  0
 29 30  1  0
 30 31  1  0
 13 32  1  0
 32 33  2  0
  9  5  1  0
 33 10  1  0
 23 18  1  0
 31 29  1  0
 26 21  1  0
  4 34  1  0
  4 35  1  0
  6 36  1  0
  7 37  1  0
  8 38  1  0
 11 39  1  0
 12 40  1  0
 19 41  1  0
 20 42  1  0
 23 43  1  0
 24 44  1  0
 24 45  1  0
 25 46  1  0
 25 47  1  0
 29 48  1  0
 30 49  1  0
 30 50  1  0
 31 51  1  0
 31 52  1  0
 32 53  1  0
 33 54  1  0
M  CHG  2   3  -1  14  -1
M  END
>  <UniqueID>  (2) 
2

>  <SMILES>  (2) 
O=C([N-]Cc1ccco1)c1ccc([N-]S(=O)(=O)c2ccc3c(c2)CCN3C(=O)C2CC2)cc1

>  <Energy>  (2) 
373.26525091094834

>  <Genealogy>  (2) 
O=C([N-]Cc1ccco1)c1ccc([N-]S(=O)(=O)c2ccc3c(c2)CCN3C(=O)C2CC2)cc1 (protonated)
O=C([N-]Cc1ccco1)c1ccc([N-]S(=O)(=O)c2ccc3c(c2)CCN3C(=O)C2CC2)cc1 (3D coordinates assigned)
O=C([N-]Cc1ccco1)c1ccc([N-]S(=O)(=O)c2ccc3c(c2)CCN3C(=O)C2CC2)cc1 (nonaromatic ring conformer: 373.26525091094834 kcal/mol)

>  <smiles>  (2) 
O=C(NCc1ccco1)c1ccc(NS(=O)(=O)c2ccc3c(c2)CCN3C(=O)C2CC2)cc1

>  <score_type>  (2) 
oracle

>  <origin>  (2) 
adg

>  <m_score__min__energy>  (2) 
-13.09

>  <m_primary>  (2) 
energy

$$$$
2:0
     RDKit          3D

 31 32  0  0  0  0  0  0  0  0999 V2000
   55.1530   29.3320   44.8530 O   0  0  0  0  0  0  0  0  0  0  0  0
   56.1610   30.0000   44.4990 C   0  0  0  0  0  0  0  0  0  0  0  0
   57.2950   29.3280   43.7920 C   0  0  0  0  0  0  0  0  0  0  0  0
   57.4430   27.9980   44.2850 O   0  0  0  0  0  0  0  0  0  0  0  0
   58.4060   27.6440   45.2370 C   0  0  0  0  0  0  0  0  0  0  0  0
   59.6150   27.5000   44.9080 O   0  0  0  0  0  0  0  0  0  0  0  0
   58.0080   27.5300   46.6710 C   0  0  0  0  0  0  0  0  0  0  0  0
   57.3000   26.2290   46.8890 C   0  0  0  0  0  0  0  0  0  0  0  0
   57.8500   25.1630   47.4960 N   0  0  0  0  0  0  0  0  0  0  0  0
   56.8920   24.2150   47.3880 C   0  0  0  0  0  0  0  0  0  0  0  0
   57.0330   23.0530   47.8500 O   0  0  0  0  0  0  0  0  0  0  0  0
   55.7760   24.6080   46.7370 N   0  0  0  0  0  0  0  0  0  0  0  0
   56.0550   25.8840   46.4210 C   0  0  0  0  0  0  0  0  0  0  0  0
   55.1970   26.7120   45.7050 O   0  0  0  0  0  0  0  0  0  0  0  0
   56.2450   31.4010   44.7810 N   0  0  0  0  0  0  0  0  0  0  0  0
   57.4280   32.1030   45.1850 C   0  0  0  0  0  0  0  0  0  0  0  0
   57.5300   33.4710   44.9070 C   0  0  0  0  0  0  0  0  0  0  0  0
   58.6400   34.2010   45.3420 C   0  0  0  0  0  0  0  0  0  0  0  0
   59.6500   33.5700   46.0730 C   0  0  0  0  0  0  0  0  0  0  0  0
   59.5480   32.2080   46.3740 C   0  0  0  0  0  0  0  0  0  0  0  0
   60.9070   31.3560   47.4100 Br  0  0  0  0  0  0  0  0  0  0  0  0
   58.4410   31.4750   45.9350 C   0  0  0  0  0  0  0  0  0  0  0  0
   57.0871   29.2975   42.7123 H   0  0  0  0  0  0  0  0  0  0  0  0
   58.2231   29.8904   43.9716 H   0  0  0  0  0  0  0  0  0  0  0  0
   58.9058   27.5699   47.3053 H   0  0  0  0  0  0  0  0  0  0  0  0
   57.3374   28.3616   46.9333 H   0  0  0  0  0  0  0  0  0  0  0  0
   55.5220   27.2050   44.8830 H   0  0  0  0  0  0  0  0  0  0  0  0
   56.7316   33.9749   44.3426 H   0  0  0  0  0  0  0  0  0  0  0  0
   58.7184   35.2731   45.1086 H   0  0  0  0  0  0  0  0  0  0  0  0
   60.5250   34.1443   46.4116 H   0  0  0  0  0  0  0  0  0  0  0  0
   58.3613   30.4047   46.1762 H   0  0  0  0  0  0  0  0  0  0  0  0
  1  2  2  0
  2  3  1  0
  3  4  1  0
  4  5  1  0
  5  6  2  0
  5  7  1  0
  7  8  1  0
  8  9  1  0
  9 10  1  0
 10 11  2  0
 10 12  1  0
 12 13  1  0
 13 14  1  0
  2 15  1  0
 15 16  1  0
 16 17  2  0
 17 18  1  0
 18 19  2  0
 19 20  1  0
 20 21  1  0
 20 22  2  0
 13  8  2  0
 22 16  1  0
  3 23  1  0
  3 24  1  0
  7 25  1  0
  7 26  1  0
 14 27  1  0
 17 28  1  0
 18 29  1  0
 19 30  1  0
 22 31  1  0
M  CHG  3   9  -1  12  -1  15  -1
M  END
>  <UniqueID>  (3) 
3

>  <SMILES>  (3) 
O=C(COC(=O)Cc1[n-]c(=O)[n-]c1O)[N-]c1cccc(Br)c1

>  <Energy>  (3) 
54.92587674416816

>  <Genealogy>  (3) 
O=C(COC(=O)Cc1[n-]c(=O)[n-]c1O)[N-]c1cccc(Br)c1 (protonated)
O=C(COC(=O)Cc1[n-]c(=O)[n-]c1O)[N-]c1cccc(Br)c1 (3D coordinates assigned)
O=C(COC(=O)Cc1[n-]c(=O)[n-]c1O)[N-]c1cccc(Br)c1 (optimized conformer: 54.92587674416816 kcal/mol)

>  <smiles>  (3) 
O=C(COC(=O)Cc1[nH]c(=O)[nH]c1O)Nc1cccc(Br)c1

>  <score_type>  (3) 
oracle

>  <origin>  (3) 
adg

>  <m_score__min__energy>  (3) 
-13.32

>  <m_primary>  (3) 
energy

$$$$
3:0
     RDKit          3D

 36 38  0  0  0  0  0  0  0  0999 V2000
   55.9280   29.7090   42.7060 O   0  0  0  0  0  0  0  0  0  0  0  0
   56.3440   29.9740   43.8670 C   0  0  0  0  0  0  0  0  0  0  0  0
   55.9820   29.1270   44.9660 N   0  0  0  0  0  0  0  0  0  0  0  0
   56.7790   28.0500   45.4780 C   0  0  0  0  0  0  0  0  0  0  0  0
   58.1710   28.1380   45.3700 C   0  0  0  0  0  0  0  0  0  0  0  0
   58.9840   27.1080   45.8480 C   0  0  0  0  0  0  0  0  0  0  0  0
   58.4100   25.9820   46.4410 C   0  0  0  0  0  0  0  0  0  0  0  0
   57.0200   25.8730   46.5570 C   0  0  0  0  0  0  0  0  0  0  0  0
   56.4710   24.6920   47.1580 N   0  0  0  0  0  0  0  0  0  0  0  0
   56.7830   23.3390   46.8000 C   0  0  0  0  0  0  0  0  0  0  0  0
   57.1170   22.5330   47.7080 O   0  0  0  0  0  0  0  0  0  0  0  0
   56.6680   22.8530   45.4110 C   0  0  0  0  0  0  0  0  0  0  0  0
   56.7420   23.6500   44.2810 C   0  0  0  0  0  0  0  0  0  0  0  0
   56.5950   22.8060   43.2020 C   0  0  0  0  0  0  0  0  0  0  0  0
   56.4480   21.5430   43.7350 C   0  0  0  0  0  0  0  0  0  0  0  0
   56.2710   20.3800   42.9930 O   0  0  0  0  0  0  0  0  0  0  0  0
   56.4960   21.5560   45.0800 N   0  0  0  0  0  0  0  0  0  0  0  0
   56.1970   26.8860   46.0220 C   0  0  0  0  0  0  0  0  0  0  0  0
   54.8170   26.7130   45.9820 O   0  0  0  0  0  0  0  0  0  0  0  0
   57.1670   31.1840   44.1000 C   0  0  0  0  0  0  0  0  0  0  0  0
   57.6510   31.9420   43.0170 C   0  0  0  0  0  0  0  0  0  0  0  0
   58.4270   33.0830   43.2430 C   0  0  0  0  0  0  0  0  0  0  0  0
   58.7260   33.4820   44.5480 C   0  0  0  0  0  0  0  0  0  0  0  0
   58.2490   32.7400   45.6310 C   0  0  0  0  0  0  0  0  0  0  0  0
   57.4740   31.5970   45.4110 C   0  0  0  0  0  0  0  0  0  0  0  0
   58.6281   29.0242   44.9056 H   0  0  0  0  0  0  0  0  0  0  0  0
   60.0776   27.1840   45.7572 H   0  0  0  0  0  0  0  0  0  0  0  0
   59.0548   25.1752   46.8195 H   0  0  0  0  0  0  0  0  0  0  0  0
   56.8889   24.7397   44.2509 H   0  0  0  0  0  0  0  0  0  0  0  0
   56.5949   23.0822   42.1372 H   0  0  0  0  0  0  0  0  0  0  0  0
   56.9530   19.6320   43.0290 H   0  0  0  0  0  0  0  0  0  0  0  0
   57.4174   31.6349   41.9869 H   0  0  0  0  0  0  0  0  0  0  0  0
   58.8031   33.6681   42.3908 H   0  0  0  0  0  0  0  0  0  0  0  0
   59.3368   34.3800   44.7226 H   0  0  0  0  0  0  0  0  0  0  0  0
   58.4833   33.0552   46.6585 H   0  0  0  0  0  0  0  0  0  0  0  0
   57.1015   31.0164   46.2679 H   0  0  0  0  0  0  0  0  0  0  0  0
  1  2  2  0
  2  3  1  0
  3  4  1  0
  4  5  2  0
  5  6  1  0
  6  7  2  0
  7  8  1  0
  8  9  1  0
  9 10  1  0
 10 11  2  0
 10 12  1  0
 12 13  2  0
 13 14  1  0
 14 15  2  0
 15 16  1  0
 15 17  1  0
  8 18  2  0
 18 19  1  0
  2 20  1  0
 20 21  2  0
 21 22  1  0
 22 23  2  0
 23 24  1  0
 24 25  2  0
 18  4  1  0
 25 20  1  0
 17 12  1  0
  5 26  1  0
  6 27  1  0
  7 28  1  0
 13 29  1  0
 14 30  1  0
 16 31  1  0
 21 32  1  0
 22 33  1  0
 23 34  1  0
 24 35  1  0
 25 36  1  0
M  CHG  4   3  -1   9  -1  17  -1  19  -1
M  END
>  <UniqueID>  (4) 
4

>  <SMILES>  (4) 
O=C([N-]c1cccc([N-]C(=O)c2ccc(O)[n-]2)c1[O-])c1ccccc1

>  <Energy>  (4) 
75.22327037370698

>  <Genealogy>  (4) 
O=C([N-]c1cccc([N-]C(=O)c2ccc(O)[n-]2)c1[O-])c1ccccc1 (protonated)
O=C([N-]c1cccc([N-]C(=O)c2ccc(O)[n-]2)c1[O-])c1ccccc1 (3D coordinates assigned)
O=C([N-]c1cccc([N-]C(=O)c2ccc(O)[n-]2)c1[O-])c1ccccc1 (optimized conformer: 75.22327037370698 kcal/mol)

>  <smiles>  (4) 
O=C(Nc1cccc(NC(=O)c2ccc(O)[nH]2)c1O)c1ccccc1

>  <score_type>  (4) 
oracle

>  <origin>  (4) 
adg

>  <m_score__min__energy>  (4) 
-17.530000000000001

>  <m_primary>  (4) 
energy

$$$$
4:0
     RDKit          3D

 53 56  0  0  0  0  0  0  0  0999 V2000
   55.6910   30.0640   44.4250 C   0  0  0  0  0  0  0  0  0  0  0  0
   56.6720   31.1160   43.9990 C   0  0  0  0  0  0  0  0  0  0  0  0
   57.2090   31.0970   42.7050 C   0  0  0  0  0  0  0  0  0  0  0  0
   58.0930   32.1020   42.3130 C   0  0  0  0  0  0  0  0  0  0  0  0
   58.4160   33.1000   43.1780 N   0  0  0  0  0  0  0  0  0  0  0  0
   57.8920   33.1640   44.4350 C   0  0  0  0  0  0  0  0  0  0  0  0
   58.2180   34.1240   45.2520 N   0  0  0  0  0  0  0  0  0  0  0  0
   59.2830   34.0850   46.2150 C   0  0  0  0  0  0  0  0  0  0  0  0
   60.0940   35.0490   46.2540 O   0  0  0  0  0  0  0  0  0  0  0  0
   59.4900   32.9270   47.1160 C   0  0  0  0  0  0  0  0  0  0  0  0
   60.6090   32.0650   46.9420 C   0  0  0  0  0  0  0  0  0  0  0  0
   60.8100   30.9650   47.7950 C   0  0  0  0  0  0  0  0  0  0  0  0
   59.8860   30.7630   48.8190 C   0  0  0  0  0  0  0  0  0  0  0  0
   58.8180   31.5910   49.0040 C   0  0  0  0  0  0  0  0  0  0  0  0
   58.5870   32.6890   48.1780 C   0  0  0  0  0  0  0  0  0  0  0  0
   58.0660   31.1760   50.0420 N   0  0  0  0  0  0  0  0  0  0  0  0
   58.7330   30.0710   50.4630 C   0  0  0  0  0  0  0  0  0  0  0  0
   58.3390   29.3680   51.4300 O   0  0  0  0  0  0  0  0  0  0  0  0
   59.8520   29.7920   49.7470 N   0  0  0  0  0  0  0  0  0  0  0  0
   60.7570   28.6510   49.8970 C   0  0  0  0  0  0  0  0  0  0  0  0
   60.4830   27.6310   48.8340 C   0  0  0  0  0  0  0  0  0  0  0  0
   60.0340   26.5000   49.1610 O   0  0  0  0  0  0  0  0  0  0  0  0
   60.7620   27.9350   47.4610 N   0  0  0  0  0  0  0  0  0  0  0  0
   60.4230   27.0330   46.3610 C   0  0  0  0  0  0  0  0  0  0  0  0
   58.9220   26.8730   46.2650 C   0  0  0  0  0  0  0  0  0  0  0  0
   58.3770   25.5820   46.3790 C   0  0  0  0  0  0  0  0  0  0  0  0
   57.0000   25.3830   46.2880 C   0  0  0  0  0  0  0  0  0  0  0  0
   56.1630   26.4800   46.0820 C   0  0  0  0  0  0  0  0  0  0  0  0
   54.8830   26.3100   45.9940 N   0  0  0  0  0  0  0  0  0  0  0  0
   56.6960   27.7270   45.9770 N   0  0  0  0  0  0  0  0  0  0  0  0
   58.0370   27.9610   46.0610 C   0  0  0  0  0  0  0  0  0  0  0  0
   58.5170   29.3790   45.9480 C   0  0  0  0  0  0  0  0  0  0  0  0
   57.0100   32.1650   44.8660 C   0  0  0  0  0  0  0  0  0  0  0  0
   55.6521   30.0223   45.5235 H   0  0  0  0  0  0  0  0  0  0  0  0
   54.6939   30.3117   44.0319 H   0  0  0  0  0  0  0  0  0  0  0  0
   56.0077   29.0867   44.0319 H   0  0  0  0  0  0  0  0  0  0  0  0
   56.9354   30.2952   42.0034 H   0  0  0  0  0  0  0  0  0  0  0  0
   58.5292   32.0872   41.3033 H   0  0  0  0  0  0  0  0  0  0  0  0
   61.3253   32.2615   46.1306 H   0  0  0  0  0  0  0  0  0  0  0  0
   61.6662   30.2879   47.6589 H   0  0  0  0  0  0  0  0  0  0  0  0
   57.7260   33.3524   48.3473 H   0  0  0  0  0  0  0  0  0  0  0  0
   61.7971   28.9979   49.8084 H   0  0  0  0  0  0  0  0  0  0  0  0
   60.5971   28.1929   50.8842 H   0  0  0  0  0  0  0  0  0  0  0  0
   61.1550   28.8740   47.2230 H   0  0  0  0  0  0  0  0  0  0  0  0
   60.8057   27.4495   45.4176 H   0  0  0  0  0  0  0  0  0  0  0  0
   60.8791   26.0496   46.5477 H   0  0  0  0  0  0  0  0  0  0  0  0
   59.0427   24.7215   46.5414 H   0  0  0  0  0  0  0  0  0  0  0  0
   56.5778   24.3712   46.3777 H   0  0  0  0  0  0  0  0  0  0  0  0
   54.2240   26.7680   46.6640 H   0  0  0  0  0  0  0  0  0  0  0  0
   58.6593   29.7993   46.9546 H   0  0  0  0  0  0  0  0  0  0  0  0
   59.4724   29.4004   45.4033 H   0  0  0  0  0  0  0  0  0  0  0  0
   57.7710   29.9763   45.4033 H   0  0  0  0  0  0  0  0  0  0  0  0
   56.5845   32.2031   45.8797 H   0  0  0  0  0  0  0  0  0  0  0  0
  1  2  1  0
  2  3  1  0
  3  4  2  0
  4  5  1  0
  5  6  1  0
  6  7  2  3
  7  8  1  0
  8  9  2  0
  8 10  1  0
 10 11  2  0
 11 12  1  0
 12 13  2  0
 13 14  1  0
 14 15  2  0
 14 16  1  0
 16 17  1  0
 17 18  2  0
 17 19  1  0
 19 20  1  0
 20 21  1  0
 21 22  2  0
 21 23  1  0
 23 24  1  0
 24 25  1  0
 25 26  1  0
 26 27  2  0
 27 28  1  0
 28 29  2  3
 28 30  1  0
 30 31  1  0
 31 32  1  0
  6 33  1  0
 33  2  2  0
 15 10  1  0
 31 25  2  0
 19 13  1  0
  1 34  1  0
  1 35  1  0
  1 36  1  0
  3 37  1  0
  4 38  1  0
 11 39  1  0
 12 40  1  0
 15 41  1  0
 20 42  1  0
 20 43  1  0
 23 44  1  0
 24 45  1  0
 24 46  1  0
 26 47  1  0
 27 48  1  0
 29 49  1  0
 32 50  1  0
 32 51  1  0
 32 52  1  0
 33 53  1  0
M  CHG  3   5  -1  16  -1  30  -1
M  END
>  <UniqueID>  (5) 
5

>  <SMILES>  (5) 
Cc1cc[n-]c(=NC(=O)c2ccc3c(c2)[n-]c(=O)n3CC(=O)NCc2ccc(=N)[n-]c2C)c1

>  <Energy>  (5) 
100.79862129968177

>  <Genealogy>  (5) 
Cc1cc[n-]c(=NC(=O)c2ccc3c(c2)[n-]c(=O)n3CC(=O)NCc2ccc(=N)[n-]c2C)c1 (protonated)
Cc1cc[n-]c(=NC(=O)c2ccc3c(c2)[n-]c(=O)n3CC(=O)NCc2ccc(=N)[n-]c2C)c1 (3D coordinates assigned)
Cc1cc[n-]c(=NC(=O)c2ccc3c(c2)[n-]c(=O)n3CC(=O)NCc2ccc(=N)[n-]c2C)c1 (optimized conformer: 100.79862129968177 kcal/mol)

>  <smiles>  (5) 
Cc1cc[nH]c(=NC(=O)c2ccc3c(c2)[nH]c(=O)n3CC(=O)NCc2ccc(=N)[nH]c2C)c1

>  <score_type>  (5) 
oracle

>  <origin>  (5) 
adg

>  <m_score__min__energy>  (5) 
-13.56

>  <m_primary>  (5) 
energy

$$$$
5:0
     RDKit          3D

 55 57  0  0  0  0  0  0  0  0999 V2000
   67.7430   28.0320   50.5340 C   0  0  0  0  0  0  0  0  0  0  0  0
   67.2870   28.6480   52.1840 S   0  0  0  0  0  0  0  0  0  0  0  0
   66.4100   30.0760   51.5430 C   0  0  0  0  0  0  0  0  0  0  0  0
   65.0140   30.1330   51.6210 C   0  0  0  0  0  0  0  0  0  0  0  0
   64.3270   31.2370   51.1050 C   0  0  0  0  0  0  0  0  0  0  0  0
   65.0300   32.2920   50.5050 C   0  0  0  0  0  0  0  0  0  0  0  0
   64.3080   33.3800   49.9910 O   0  0  0  0  0  0  0  0  0  0  0  0
   63.2190   33.2820   49.1100 C   0  0  0  0  0  0  0  0  0  0  0  0
   63.3130   32.4130   48.0180 C   0  0  0  0  0  0  0  0  0  0  0  0
   62.2540   32.2930   47.1120 C   0  0  0  0  0  0  0  0  0  0  0  0
   61.0930   33.0530   47.2890 C   0  0  0  0  0  0  0  0  0  0  0  0
   59.9890   32.9240   46.3740 C   0  0  0  0  0  0  0  0  0  0  0  0
   59.0600   32.8500   45.6110 C   0  0  0  0  0  0  0  0  0  0  0  0
   57.9390   32.7960   44.6590 C   0  0  2  0  0  0  0  0  0  0  0  0
   56.6460   33.2110   45.3550 C   0  0  0  0  0  0  0  0  0  0  0  0
   57.8060   31.4320   44.1590 N   0  0  0  0  0  0  0  0  0  0  0  0
   56.8290   30.5040   44.6460 C   0  0  0  0  0  0  0  0  0  0  0  0
   55.6060   30.8150   44.6300 O   0  0  0  0  0  0  0  0  0  0  0  0
   57.2570   29.1420   45.1580 C   0  0  0  0  0  0  0  0  0  0  0  0
   56.0590   28.3120   45.3590 N   0  0  0  0  0  0  0  0  0  0  0  0
   56.0100   27.0000   45.9360 C   0  0  0  0  0  0  0  0  0  0  0  0
   54.7700   26.2970   45.9690 N   0  0  0  0  0  0  0  0  0  0  0  0
   57.0400   26.4710   46.4330 O   0  0  0  0  0  0  0  0  0  0  0  0
   58.2210   28.4780   44.1520 C   0  0  0  0  0  0  0  0  0  0  0  0
   59.6120   28.6170   44.7490 C   0  0  0  0  0  0  0  0  0  0  0  0
   59.4120   28.6600   46.2530 C   0  0  0  0  0  0  0  0  0  0  0  0
   58.0490   29.3010   46.4790 C   0  0  0  0  0  0  0  0  0  0  0  0
   60.9990   33.9430   48.3660 C   0  0  0  0  0  0  0  0  0  0  0  0
   62.0600   34.0630   49.2670 C   0  0  0  0  0  0  0  0  0  0  0  0
   66.4360   32.2520   50.4710 C   0  0  0  0  0  0  0  0  0  0  0  0
   67.1220   31.1410   50.9760 C   0  0  0  0  0  0  0  0  0  0  0  0
   68.3945   27.1519   50.6384 H   0  0  0  0  0  0  0  0  0  0  0  0
   66.8332   27.7515   49.9830 H   0  0  0  0  0  0  0  0  0  0  0  0
   68.2770   28.8202   49.9830 H   0  0  0  0  0  0  0  0  0  0  0  0
   64.4560   29.3085   52.0887 H   0  0  0  0  0  0  0  0  0  0  0  0
   63.2297   31.2779   51.1702 H   0  0  0  0  0  0  0  0  0  0  0  0
   64.2271   31.8191   47.8705 H   0  0  0  0  0  0  0  0  0  0  0  0
   62.3342   31.6012   46.2606 H   0  0  0  0  0  0  0  0  0  0  0  0
   58.1333   33.4844   43.8234 H   0  0  0  0  0  0  0  0  0  0  0  0
   56.7857   33.1662   46.4452 H   0  0  0  0  0  0  0  0  0  0  0  0
   56.3846   34.2382   45.0608 H   0  0  0  0  0  0  0  0  0  0  0  0
   55.8356   32.5278   45.0608 H   0  0  0  0  0  0  0  0  0  0  0  0
   53.9270   26.7160   46.4250 H   0  0  0  0  0  0  0  0  0  0  0  0
   57.9655   27.4160   44.0219 H   0  0  0  0  0  0  0  0  0  0  0  0
   58.1588   28.9525   43.1616 H   0  0  0  0  0  0  0  0  0  0  0  0
   60.2368   27.7558   44.4698 H   0  0  0  0  0  0  0  0  0  0  0  0
   60.1227   29.5194   44.3817 H   0  0  0  0  0  0  0  0  0  0  0  0
   59.4292   27.6422   46.6698 H   0  0  0  0  0  0  0  0  0  0  0  0
   60.2116   29.2299   46.7489 H   0  0  0  0  0  0  0  0  0  0  0  0
   57.5225   28.7924   47.3001 H   0  0  0  0  0  0  0  0  0  0  0  0
   58.1514   30.3613   46.7534 H   0  0  0  0  0  0  0  0  0  0  0  0
   60.0901   34.5474   48.5026 H   0  0  0  0  0  0  0  0  0  0  0  0
   61.9884   34.7727   50.1044 H   0  0  0  0  0  0  0  0  0  0  0  0
   66.9982   33.0966   50.0461 H   0  0  0  0  0  0  0  0  0  0  0  0
   68.2203   31.1043   50.9276 H   0  0  0  0  0  0  0  0  0  0  0  0
  1  2  1  0
  2  3  1  0
  3  4  2  0
  4  5  1  0
  5  6  2  0
  6  7  1  0
  7  8  1  0
  8  9  2  0
  9 10  1  0
 10 11  2  0
 11 12  1  0
 12 13  3  0
 13 14  1  0
 14 15  1  0
 14 16  1  0
 16 17  1  0
 17 18  2  0
 17 19  1  0
 19 20  1  0
 20 21  1  0
 21 22  1  0
 21 23  2  0
 19 24  1  0
 24 25  1  0
 25 26  1  0
 26 27  1  0
 11 28  1  0
 28 29  2  0
  6 30  1  0
 30 31  2  0
 31  3  1  0
 29  8  1  0
 27 19  1  0
  1 32  1  0
  1 33  1  0
  1 34  1  0
  4 35  1  0
  5 36  1  0
  9 37  1  0
 10 38  1  0
 14 39  1  6
 15 40  1  0
 15 41  1  0
 15 42  1  0
 22 43  1  0
 24 44  1  0
 24 45  1  0
 25 46  1  0
 25 47  1  0
 26 48  1  0
 26 49  1  0
 27 50  1  0
 27 51  1  0
 28 52  1  0
 29 53  1  0
 30 54  1  0
 31 55  1  0
M  CHG  3  16  -1  20  -1  22  -1
M  END
>  <UniqueID>  (6) 
6

>  <SMILES>  (6) 
CSc1ccc(Oc2ccc(C#C[C@H](C)[N-]C(=O)C3([N-]C([NH-])=O)CCCC3)cc2)cc1

>  <Energy>  (6) 
52.43348452584796

>  <Genealogy>  (6) 
CSc1ccc(Oc2ccc(C#CC(C)[N-]C(=O)C3([N-]C([NH-])=O)CCCC3)cc2)cc1 (protonated)
CSc1ccc(Oc2ccc(C#C[C@H](C)[N-]C(=O)C3([N-]C([NH-])=O)CCCC3)cc2)cc1 (chirality)
CSc1ccc(Oc2ccc(C#C[C@H](C)[N-]C(=O)C3([N-]C([NH-])=O)CCCC3)cc2)cc1 (3D coordinates assigned)
CSc1ccc(Oc2ccc(C#C[C@H](C)[N-]C(=O)C3([N-]C([NH-])=O)CCCC3)cc2)cc1 (nonaromatic ring conformer: 52.43348452584796 kcal/mol)

>  <smiles>  (6) 
CSc1ccc(Oc2ccc(C#CC(C)NC(=O)C3(NC(N)=O)CCCC3)cc2)cc1

>  <score_type>  (6) 
oracle

>  <origin>  (6) 
adg

>  <m_score__min__energy>  (6) 
-15.48

>  <m_primary>  (6) 
energy

$$$$
6:0
     RDKit          3D

 28 29  0  0  0  0  0  0  0  0999 V2000
   55.3200   29.3140   44.8920 N   0  0  0  0  0  0  0  0  0  0  0  0
   56.7210   30.1850   44.3720 S   0  0  0  0  0  0  0  0  0  0  0  0
   56.8840   30.0050   42.8900 O   0  0  0  0  0  0  0  0  0  0  0  0
   56.5260   31.6430   44.6820 O   0  0  0  0  0  0  0  0  0  0  0  0
   58.1690   29.5950   45.1940 C   0  0  0  0  0  0  0  0  0  0  0  0
   59.1800   30.4970   45.5650 C   0  0  0  0  0  0  0  0  0  0  0  0
   60.3270   30.0440   46.2190 C   0  0  0  0  0  0  0  0  0  0  0  0
   60.4800   28.6870   46.5040 C   0  0  0  0  0  0  0  0  0  0  0  0
   59.4790   27.7800   46.1480 C   0  0  0  0  0  0  0  0  0  0  0  0
   58.3040   28.2280   45.5160 C   0  0  0  0  0  0  0  0  0  0  0  0
   57.2780   27.2990   45.1260 N   0  0  0  0  0  0  0  0  0  0  0  0
   57.4250   26.0310   44.8600 C   0  0  0  0  0  0  0  0  0  0  0  0
   56.3530   25.0230   45.0350 C   0  0  0  0  0  0  0  0  0  0  0  0
   55.1230   25.3710   45.6290 C   0  0  0  0  0  0  0  0  0  0  0  0
   54.8450   26.6760   46.0370 O   0  0  0  0  0  0  0  0  0  0  0  0
   54.1670   24.4200   45.7990 N   0  0  0  0  0  0  0  0  0  0  0  0
   54.3720   23.1340   45.4150 C   0  0  0  0  0  0  0  0  0  0  0  0
   53.4660   22.2780   45.5800 O   0  0  0  0  0  0  0  0  0  0  0  0
   55.5540   22.7720   44.8600 N   0  0  0  0  0  0  0  0  0  0  0  0
   56.5480   23.6770   44.6690 C   0  0  0  0  0  0  0  0  0  0  0  0
   57.6440   23.2930   44.1800 O   0  0  0  0  0  0  0  0  0  0  0  0
   55.5100   28.3010   44.7260 H   0  0  0  0  0  0  0  0  0  0  0  0
   59.0670   31.5675   45.3386 H   0  0  0  0  0  0  0  0  0  0  0  0
   61.1114   30.7581   46.5101 H   0  0  0  0  0  0  0  0  0  0  0  0
   61.3897   28.3309   47.0095 H   0  0  0  0  0  0  0  0  0  0  0  0
   59.6099   26.7092   46.3629 H   0  0  0  0  0  0  0  0  0  0  0  0
   58.4009   25.6899   44.4841 H   0  0  0  0  0  0  0  0  0  0  0  0
   55.1430   27.4900   45.5170 H   0  0  0  0  0  0  0  0  0  0  0  0
  1  2  1  0
  2  3  2  0
  2  4  2  0
  2  5  1  0
  5  6  2  0
  6  7  1  0
  7  8  2  0
  8  9  1  0
  9 10  2  0
 10 11  1  0
 11 12  2  3
 12 13  1  0
 13 14  2  0
 14 15  1  0
 14 16  1  0
 16 17  1  0
 17 18  2  0
 17 19  1  0
 19 20  1  0
 20 21  2  0
 10  5  1  0
 20 13  1  0
  1 22  1  0
  6 23  1  0
  7 24  1  0
  8 25  1  0
  9 26  1  0
 12 27  1  0
 15 28  1  0
M  CHG  3   1  -1  16  -1  19  -1
M  END
>  <UniqueID>  (7) 
7

>  <SMILES>  (7) 
[NH-]S(=O)(=O)c1ccccc1N=Cc1c(O)[n-]c(=O)[n-]c1=O

>  <Energy>  (7) 
44.46815514779932

>  <Genealogy>  (7) 
[NH-]S(=O)(=O)c1ccccc1N=Cc1c(O)[n-]c(=O)[n-]c1=O (protonated)
[NH-]S(=O)(=O)c1ccccc1N=Cc1c(O)[n-]c(=O)[n-]c1=O (3D coordinates assigned)
[NH-]S(=O)(=O)c1ccccc1N=Cc1c(O)[n-]c(=O)[n-]c1=O (optimized conformer: 44.46815514779932 kcal/mol)

>  <smiles>  (7) 
NS(=O)(=O)c1ccccc1N=Cc1c(O)[nH]c(=O)[nH]c1=O

>  <score_type>  (7) 
oracle

>  <origin>  (7) 
adg

>  <m_score__min__energy>  (7) 
-14.74

>  <m_primary>  (7) 
energy

$$$$
7:0
     RDKit          3D

 42 44  0  0  0  0  0  0  0  0999 V2000
   55.5920   21.7180   45.5650 C   0  0  0  0  0  0  0  0  0  0  0  0
   56.4690   22.9340   45.5530 C   0  0  0  0  0  0  0  0  0  0  0  0
   57.8460   22.8530   45.7530 C   0  0  0  0  0  0  0  0  0  0  0  0
   58.4910   24.4030   45.7140 S   0  0  0  0  0  0  0  0  0  0  0  0
   57.0400   25.1930   45.4160 C   0  0  0  0  0  0  0  0  0  0  0  0
   56.9150   26.6170   45.3300 N   0  0  0  0  0  0  0  0  0  0  0  0
   57.7580   27.5120   46.0680 C   0  0  0  0  0  0  0  0  0  0  0  0
   58.3340   27.1040   47.1140 O   0  0  0  0  0  0  0  0  0  0  0  0
   57.9290   28.9210   45.6380 C   0  0  0  0  0  0  0  0  0  0  0  0
   57.9210   29.2510   44.2700 C   0  0  0  0  0  0  0  0  0  0  0  0
   58.0720   30.5780   43.8580 C   0  0  0  0  0  0  0  0  0  0  0  0
   58.2200   31.5920   44.8070 C   0  0  0  0  0  0  0  0  0  0  0  0
   58.2280   31.2800   46.1700 C   0  0  0  0  0  0  0  0  0  0  0  0
   58.0820   29.9500   46.5880 C   0  0  0  0  0  0  0  0  0  0  0  0
   58.4320   32.3670   47.1400 C   0  0  0  0  0  0  0  0  0  0  0  0
   58.4990   33.6390   46.7370 C   0  0  0  0  0  0  0  0  0  0  0  0
   58.2450   34.0360   45.2930 C   0  0  0  0  0  0  0  0  0  0  0  0
   59.2560   35.1100   44.8750 C   0  0  0  0  0  0  0  0  0  0  0  0
   56.8190   34.5890   45.1750 C   0  0  0  0  0  0  0  0  0  0  0  0
   58.3780   32.9210   44.3990 O   0  0  0  0  0  0  0  0  0  0  0  0
   55.9990   24.2580   45.3890 C   0  0  0  0  0  0  0  0  0  0  0  0
   54.5410   24.6270   45.2560 C   0  0  0  0  0  0  0  0  0  0  0  0
   54.3500   25.9580   45.6470 O   0  0  0  0  0  0  0  0  0  0  0  0
   55.3824   21.4274   46.6050 H   0  0  0  0  0  0  0  0  0  0  0  0
   54.6466   21.9426   45.0494 H   0  0  0  0  0  0  0  0  0  0  0  0
   56.1035   20.8919   45.0494 H   0  0  0  0  0  0  0  0  0  0  0  0
   58.4166   21.9259   45.9105 H   0  0  0  0  0  0  0  0  0  0  0  0
   56.0600   27.0020   44.8710 H   0  0  0  0  0  0  0  0  0  0  0  0
   57.7948   28.4577   43.5185 H   0  0  0  0  0  0  0  0  0  0  0  0
   58.0743   30.8239   42.7858 H   0  0  0  0  0  0  0  0  0  0  0  0
   58.0869   29.7090   47.6613 H   0  0  0  0  0  0  0  0  0  0  0  0
   58.5305   32.1297   48.2096 H   0  0  0  0  0  0  0  0  0  0  0  0
   58.7449   34.4204   47.4712 H   0  0  0  0  0  0  0  0  0  0  0  0
   59.6916   35.5728   45.7728 H   0  0  0  0  0  0  0  0  0  0  0  0
   60.0549   34.6483   44.2761 H   0  0  0  0  0  0  0  0  0  0  0  0
   58.7469   35.8795   44.2761 H   0  0  0  0  0  0  0  0  0  0  0  0
   56.4038   34.7500   46.1808 H   0  0  0  0  0  0  0  0  0  0  0  0
   56.8401   35.5441   44.6298 H   0  0  0  0  0  0  0  0  0  0  0  0
   56.1906   33.8694   44.6298 H   0  0  0  0  0  0  0  0  0  0  0  0
   54.2279   24.5058   44.2085 H   0  0  0  0  0  0  0  0  0  0  0  0
   53.9401   23.9695   45.9014 H   0  0  0  0  0  0  0  0  0  0  0  0
   53.6670   25.9390   46.3670 H   0  0  0  0  0  0  0  0  0  0  0  0
  1  2  1  0
  2  3  2  0
  3  4  1  0
  4  5  1  0
  5  6  1  0
  6  7  1  0
  7  8  2  0
  7  9  1  0
  9 10  2  0
 10 11  1  0
 11 12  2  0
 12 13  1  0
 13 14  2  0
 13 15  1  0
 15 16  2  0
 16 17  1  0
 17 18  1  0
 17 19  1  0
 17 20  1  0
  5 21  2  0
 21 22  1  0
 22 23  1  0
 21  2  1  0
 14  9  1  0
 20 12  1  0
  1 24  1  0
  1 25  1  0
  1 26  1  0
  3 27  1  0
  6 28  1  0
 10 29  1  0
 11 30  1  0
 14 31  1  0
 15 32  1  0
 16 33  1  0
 18 34  1  0
 18 35  1  0
 18 36  1  0
 19 37  1  0
 19 38  1  0
 19 39  1  0
 22 40  1  0
 22 41  1  0
 23 42  1  0
M  END
>  <UniqueID>  (8) 
8

>  <SMILES>  (8) 
Cc1csc(NC(=O)c2ccc3c(c2)C=CC(C)(C)O3)c1CO

>  <Energy>  (8) 
74.17761127224095

>  <Genealogy>  (8) 
Cc1csc(NC(=O)c2ccc3c(c2)C=CC(C)(C)O3)c1CO (3D coordinates assigned)
Cc1csc(NC(=O)c2ccc3c(c2)C=CC(C)(C)O3)c1CO (nonaromatic ring conformer: 74.17761127224095 kcal/mol)

>  <smiles>  (8) 
Cc1csc(NC(=O)c2ccc3c(c2)C=CC(C)(C)O3)c1CO

>  <score_type>  (8) 
oracle

>  <origin>  (8) 
adg

>  <m_score__min__energy>  (8) 
-8.1699999999999999

>  <m_primary>  (8) 
energy

$$$$
8:0
     RDKit          3D

 46 47  0  0  0  0  0  0  0  0999 V2000
   57.7520   20.6800   46.3880 C   0  0  0  0  0  0  0  0  0  0  0  0
   56.5160   20.5520   45.9010 C   0  0  0  0  0  0  0  0  0  0  0  0
   56.2500   19.7840   44.6420 C   0  0  0  0  0  0  0  0  0  0  0  0
   55.9460   20.6870   43.5840 O   0  0  0  0  0  0  0  0  0  0  0  0
   56.3190   22.0330   43.6110 C   0  0  0  0  0  0  0  0  0  0  0  0
   57.3020   22.4380   42.9300 O   0  0  0  0  0  0  0  0  0  0  0  0
   55.5760   22.9500   44.4200 N   0  0  0  0  0  0  0  0  0  0  0  0
   55.9340   24.3650   44.5010 C   0  0  0  0  0  0  0  0  0  0  0  0
   55.2690   25.0190   45.6800 C   0  0  0  0  0  0  0  0  0  0  0  0
   54.5030   24.3320   46.4060 O   0  0  0  0  0  0  0  0  0  0  0  0
   55.4230   26.4170   45.9650 N   0  0  0  0  0  0  0  0  0  0  0  0
   56.5850   27.2210   45.7170 C   0  0  0  0  0  0  0  0  0  0  0  0
   57.8690   26.7690   46.0610 C   0  0  0  0  0  0  0  0  0  0  0  0
   58.9830   27.5760   45.8270 C   0  0  0  0  0  0  0  0  0  0  0  0
   58.8240   28.8490   45.2780 C   0  0  0  0  0  0  0  0  0  0  0  0
   57.5450   29.3380   44.9730 C   0  0  0  0  0  0  0  0  0  0  0  0
   57.3800   30.9750   44.3150 S   0  0  0  0  0  0  0  0  0  0  0  0
   57.5090   30.9130   42.8180 O   0  0  0  0  0  0  0  0  0  0  0  0
   56.0160   31.5190   44.6360 O   0  0  0  0  0  0  0  0  0  0  0  0
   58.5970   32.0630   44.9490 N   0  0  0  0  0  0  0  0  0  0  0  0
   58.5310   33.3970   44.3150 C   0  0  0  0  0  0  0  0  0  0  0  0
   57.8810   34.4420   45.2390 C   0  0  0  0  0  0  0  0  0  0  0  0
   58.5600   34.5990   46.4780 O   0  0  0  0  0  0  0  0  0  0  0  0
   59.1810   33.4080   46.9480 C   0  0  0  0  0  0  0  0  0  0  0  0
   58.5310   32.1190   46.4220 C   0  0  0  0  0  0  0  0  0  0  0  0
   56.4230   28.5120   45.1910 C   0  0  0  0  0  0  0  0  0  0  0  0
   55.1430   28.9590   44.8760 O   0  0  0  0  0  0  0  0  0  0  0  0
   57.9221   21.2487   47.3141 H   0  0  0  0  0  0  0  0  0  0  0  0
   58.6006   20.2168   45.8633 H   0  0  0  0  0  0  0  0  0  0  0  0
   55.6755   21.0197   46.4346 H   0  0  0  0  0  0  0  0  0  0  0  0
   57.1415   19.1968   44.3767 H   0  0  0  0  0  0  0  0  0  0  0  0
   55.3965   19.1085   44.8009 H   0  0  0  0  0  0  0  0  0  0  0  0
   54.7680   22.5780   44.9690 H   0  0  0  0  0  0  0  0  0  0  0  0
   57.0252   24.4551   44.6070 H   0  0  0  0  0  0  0  0  0  0  0  0
   55.5949   24.8668   43.5827 H   0  0  0  0  0  0  0  0  0  0  0  0
   57.9971   25.7759   46.5163 H   0  0  0  0  0  0  0  0  0  0  0  0
   59.9892   27.2077   46.0760 H   0  0  0  0  0  0  0  0  0  0  0  0
   59.7081   29.4737   45.0829 H   0  0  0  0  0  0  0  0  0  0  0  0
   59.5521   33.7251   44.0705 H   0  0  0  0  0  0  0  0  0  0  0  0
   57.9129   33.3128   43.4090 H   0  0  0  0  0  0  0  0  0  0  0  0
   57.8749   35.4115   44.7193 H   0  0  0  0  0  0  0  0  0  0  0  0
   56.8653   34.0869   45.4676 H   0  0  0  0  0  0  0  0  0  0  0  0
   60.2346   33.4187   46.6322 H   0  0  0  0  0  0  0  0  0  0  0  0
   59.0688   33.3992   48.0422 H   0  0  0  0  0  0  0  0  0  0  0  0
   59.0615   31.2508   46.8402 H   0  0  0  0  0  0  0  0  0  0  0  0
   57.4747   32.1059   46.7286 H   0  0  0  0  0  0  0  0  0  0  0  0
  1  2  2  0
  2  3  1  0
  3  4  1  0
  4  5  1  0
  5  6  2  0
  5  7  1  0
  7  8  1  0
  8  9  1  0
  9 10  2  0
  9 11  1  0
 11 12  1  0
 12 13  2  0
 13 14  1  0
 14 15  2  0
 15 16  1  0
 16 17  1  0
 17 18  2  0
 17 19  2  0
 17 20  1  0
 20 21  1  0
 21 22  1  0
 22 23  1  0
 23 24  1  0
 24 25  1  0
 16 26  2  0
 26 27  1  0
 26 12  1  0
 25 20  1  0
  1 28  1  0
  1 29  1  0
  2 30  1  0
  3 31  1  0
  3 32  1  0
  7 33  1  0
  8 34  1  0
  8 35  1  0
 13 36  1  0
 14 37  1  0
 15 38  1  0
 21 39  1  0
 21 40  1  0
 22 41  1  0
 22 42  1  0
 24 43  1  0
 24 44  1  0
 25 45  1  0
 25 46  1  0
M  CHG  2  11  -1  27  -1
M  END
>  <UniqueID>  (9) 
9

>  <SMILES>  (9) 
C=CCOC(=O)NCC(=O)[N-]c1cccc(S(=O)(=O)N2CCOCC2)c1[O-]

>  <Energy>  (9) 
55.13929311433277

>  <Genealogy>  (9) 
C=CCOC(=O)NCC(=O)[N-]c1cccc(S(=O)(=O)N2CCOCC2)c1[O-] (protonated)
C=CCOC(=O)NCC(=O)[N-]c1cccc(S(=O)(=O)N2CCOCC2)c1[O-] (3D coordinates assigned)
C=CCOC(=O)NCC(=O)[N-]c1cccc(S(=O)(=O)N2CCOCC2)c1[O-] (nonaromatic ring conformer: 55.13929311433277 kcal/mol)

>  <smiles>  (9) 
C=CCOC(=O)NCC(=O)Nc1cccc(S(=O)(=O)N2CCOCC2)c1O

>  <score_type>  (9) 
oracle

>  <origin>  (9) 
adg

>  <m_score__min__energy>  (9) 
-14.1

>  <m_primary>  (9) 
energy

$$$$
9:0
     RDKit          3D

 37 38  0  0  0  0  0  0  0  0999 V2000
   55.2450   29.2220   44.4940 O   0  0  0  0  0  0  0  0  0  0  0  0
   56.2610   29.0220   45.2100 C   0  0  0  0  0  0  0  0  0  0  0  0
   57.0600   30.1470   45.6020 N   0  0  0  0  0  0  0  0  0  0  0  0
   57.9960   30.8780   44.7480 C   0  0  0  0  0  0  0  0  0  0  0  0
   57.3460   32.1200   44.1290 C   0  0  0  0  0  0  0  0  0  0  0  0
   57.9840   33.6350   44.8360 S   0  0  0  0  0  0  0  0  0  0  0  0
   56.9970   34.7490   44.6210 O   0  0  0  0  0  0  0  0  0  0  0  0
   59.2900   33.9870   44.1780 O   0  0  0  0  0  0  0  0  0  0  0  0
   58.2280   33.3920   46.5380 N   0  0  0  0  0  0  0  0  0  0  0  0
   58.8940   34.5620   47.1140 C   0  0  0  0  0  0  0  0  0  0  0  0
   60.2590   34.1730   47.6090 C   0  0  0  0  0  0  0  0  0  0  0  0
   60.5520   34.2080   48.9820 C   0  0  0  0  0  0  0  0  0  0  0  0
   61.8340   33.8830   49.4370 C   0  0  0  0  0  0  0  0  0  0  0  0
   62.8340   33.5300   48.5250 C   0  0  0  0  0  0  0  0  0  0  0  0
   64.4410   33.1250   49.0970 Cl  0  0  0  0  0  0  0  0  0  0  0  0
   62.5510   33.5080   47.1550 C   0  0  0  0  0  0  0  0  0  0  0  0
   61.2710   33.8330   46.6970 C   0  0  0  0  0  0  0  0  0  0  0  0
   56.5660   27.6450   45.6380 C   0  0  0  0  0  0  0  0  0  0  0  0
   57.8710   27.1410   45.6030 C   0  0  0  0  0  0  0  0  0  0  0  0
   58.1030   25.8260   46.0030 C   0  0  0  0  0  0  0  0  0  0  0  0
   57.0260   25.0410   46.4100 C   0  0  0  0  0  0  0  0  0  0  0  0
   57.2070   23.8500   46.7780 O   0  0  0  0  0  0  0  0  0  0  0  0
   55.7740   25.5660   46.4020 N   0  0  0  0  0  0  0  0  0  0  0  0
   55.5510   26.8260   46.0220 N   0  0  0  0  0  0  0  0  0  0  0  0
   58.8600   31.1914   45.3524 H   0  0  0  0  0  0  0  0  0  0  0  0
   58.3081   30.2107   43.9311 H   0  0  0  0  0  0  0  0  0  0  0  0
   57.5441   32.1223   43.0470 H   0  0  0  0  0  0  0  0  0  0  0  0
   56.2666   32.0770   44.3364 H   0  0  0  0  0  0  0  0  0  0  0  0
   58.8690   32.5710   46.6360 H   0  0  0  0  0  0  0  0  0  0  0  0
   58.9922   35.3426   46.3452 H   0  0  0  0  0  0  0  0  0  0  0  0
   58.2965   34.9454   47.9542 H   0  0  0  0  0  0  0  0  0  0  0  0
   59.7705   34.4920   49.7021 H   0  0  0  0  0  0  0  0  0  0  0  0
   62.0562   33.9050   50.5141 H   0  0  0  0  0  0  0  0  0  0  0  0
   63.3377   33.2343   46.4366 H   0  0  0  0  0  0  0  0  0  0  0  0
   61.0558   33.8224   45.6183 H   0  0  0  0  0  0  0  0  0  0  0  0
   58.7036   27.7749   45.2639 H   0  0  0  0  0  0  0  0  0  0  0  0
   59.1227   25.4134   45.9974 H   0  0  0  0  0  0  0  0  0  0  0  0
  1  2  2  0
  2  3  1  0
  3  4  1  0
  4  5  1  0
  5  6  1  0
  6  7  2  0
  6  8  2  0
  6  9  1  0
  9 10  1  0
 10 11  1  0
 11 12  2  0
 12 13  1  0
 13 14  2  0
 14 15  1  0
 14 16  1  0
 16 17  2  0
  2 18  1  0
 18 19  1  0
 19 20  2  0
 20 21  1  0
 21 22  2  0
 21 23  1  0
 23 24  1  0
 17 11  1  0
 24 18  2  0
  4 25  1  0
  4 26  1  0
  5 27  1  0
  5 28  1  0
  9 29  1  0
 10 30  1  0
 10 31  1  0
 12 32  1  0
 13 33  1  0
 16 34  1  0
 17 35  1  0
 19 36  1  0
 20 37  1  0
M  CHG  2   3  -1  23  -1
M  END
>  <UniqueID>  (10) 
10

>  <SMILES>  (10) 
O=C([N-]CCS(=O)(=O)NCc1ccc(Cl)cc1)c1ccc(=O)[n-]n1

>  <Energy>  (10) 
33.69072577144505

>  <Genealogy>  (10) 
O=C([N-]CCS(=O)(=O)NCc1ccc(Cl)cc1)c1ccc(=O)[n-]n1 (protonated)
O=C([N-]CCS(=O)(=O)NCc1ccc(Cl)cc1)c1ccc(=O)[n-]n1 (3D coordinates assigned)
O=C([N-]CCS(=O)(=O)NCc1ccc(Cl)cc1)c1ccc(=O)[n-]n1 (optimized conformer: 33.69072577144505 kcal/mol)

>  <smiles>  (10) 
O=C(NCCS(=O)(=O)NCc1ccc(Cl)cc1)c1ccc(=O)[nH]n1

>  <score_type>  (10) 
oracle

>  <origin>  (10) 
adg

>  <m_score__min__energy>  (10) 
-12.76

>  <m_primary>  (10) 
energy

$$$$
10:0
     RDKit          3D

 46 48  0  0  0  0  0  0  0  0999 V2000
   58.0240   32.4290   42.6980 O   0  0  0  0  0  0  0  0  0  0  0  0
   57.7100   32.4550   43.9180 C   0  0  0  0  0  0  0  0  0  0  0  0
   57.7000   33.7220   44.5900 N   0  0  0  0  0  0  0  0  0  0  0  0
   58.4620   34.0690   45.7840 C   0  0  0  0  0  0  0  0  0  0  0  0
   59.6540   34.9370   45.4010 C   0  0  0  0  0  0  0  0  0  0  0  0
   60.6220   34.9140   46.4480 O   0  0  0  0  0  0  0  0  0  0  0  0
   61.2390   33.7520   46.9320 C   0  0  0  0  0  0  0  0  0  0  0  0
   60.5220   32.7370   47.5970 C   0  0  0  0  0  0  0  0  0  0  0  0
   61.1840   31.5960   48.0610 C   0  0  0  0  0  0  0  0  0  0  0  0
   62.5600   31.4560   47.8670 C   0  0  0  0  0  0  0  0  0  0  0  0
   63.2780   32.4580   47.2080 C   0  0  0  0  0  0  0  0  0  0  0  0
   62.6210   33.6010   46.7430 C   0  0  0  0  0  0  0  0  0  0  0  0
   63.3280   34.5670   46.1040 F   0  0  0  0  0  0  0  0  0  0  0  0
   57.4170   31.1770   44.5990 C   0  0  0  0  0  0  0  0  0  0  0  0
   56.3220   30.3710   44.3420 C   0  0  0  0  0  0  0  0  0  0  0  0
   56.4290   29.3070   45.2110 C   0  0  0  0  0  0  0  0  0  0  0  0
   55.5420   28.2380   45.2650 O   0  0  0  0  0  0  0  0  0  0  0  0
   57.5130   29.4330   46.0030 N   0  0  0  0  0  0  0  0  0  0  0  0
   57.9810   28.4570   47.0020 C   0  0  0  0  0  0  0  0  0  0  0  0
   59.3620   28.8600   47.5940 C   0  0  0  0  0  0  0  0  0  0  0  0
   60.4100   27.7440   47.4980 C   0  0  0  0  0  0  0  0  0  0  0  0
   60.5090   27.2060   46.0660 C   0  0  0  0  0  0  0  0  0  0  0  0
   59.1530   26.7340   45.4970 C   0  0  0  0  0  0  0  0  0  0  0  0
   57.9540   27.0300   46.4130 C   0  0  0  0  0  0  0  0  0  0  0  0
   58.1240   30.5790   45.6310 C   0  0  0  0  0  0  0  0  0  0  0  0
   57.8161   34.6226   46.4814 H   0  0  0  0  0  0  0  0  0  0  0  0
   58.8229   33.1480   46.2651 H   0  0  0  0  0  0  0  0  0  0  0  0
   60.1064   34.5494   44.4763 H   0  0  0  0  0  0  0  0  0  0  0  0
   59.3149   35.9712   45.2413 H   0  0  0  0  0  0  0  0  0  0  0  0
   59.4381   32.8427   47.7515 H   0  0  0  0  0  0  0  0  0  0  0  0
   60.6198   30.8070   48.5799 H   0  0  0  0  0  0  0  0  0  0  0  0
   63.0786   30.5575   48.2327 H   0  0  0  0  0  0  0  0  0  0  0  0
   64.3616   32.3470   47.0550 H   0  0  0  0  0  0  0  0  0  0  0  0
   55.5302   30.5438   43.5982 H   0  0  0  0  0  0  0  0  0  0  0  0
   57.2868   28.4602   47.8553 H   0  0  0  0  0  0  0  0  0  0  0  0
   59.7347   29.7376   47.0455 H   0  0  0  0  0  0  0  0  0  0  0  0
   59.2096   29.0741   48.6622 H   0  0  0  0  0  0  0  0  0  0  0  0
   61.3893   28.1430   47.8010 H   0  0  0  0  0  0  0  0  0  0  0  0
   60.1075   26.9207   48.1619 H   0  0  0  0  0  0  0  0  0  0  0  0
   60.9004   28.0048   45.4189 H   0  0  0  0  0  0  0  0  0  0  0  0
   61.1747   26.3307   46.0915 H   0  0  0  0  0  0  0  0  0  0  0  0
   58.9865   27.2402   44.5347 H   0  0  0  0  0  0  0  0  0  0  0  0
   59.2136   25.6404   45.3951 H   0  0  0  0  0  0  0  0  0  0  0  0
   57.0293   26.9093   45.8296 H   0  0  0  0  0  0  0  0  0  0  0  0
   58.0031   26.3255   47.2564 H   0  0  0  0  0  0  0  0  0  0  0  0
   59.0454   30.9783   46.0800 H   0  0  0  0  0  0  0  0  0  0  0  0
  1  2  2  0
  2  3  1  0
  3  4  1  0
  4  5  1  0
  5  6  1  0
  6  7  1  0
  7  8  2  0
  8  9  1  0
  9 10  2  0
 10 11  1  0
 11 12  2  0
 12 13  1  0
  2 14  1  0
 14 15  1  0
 15 16  2  0
 16 17  1  0
 16 18  1  0
 18 19  1  0
 19 20  1  0
 20 21  1  0
 21 22  1  0
 22 23  1  0
 23 24  1  0
 18 25  1  0
 12  7  1  0
 25 14  2  0
 24 19  1  0
  4 26  1  0
  4 27  1  0
  5 28  1  0
  5 29  1  0
  8 30  1  0
  9 31  1  0
 10 32  1  0
 11 33  1  0
 15 34  1  0
 19 35  1  0
 20 36  1  0
 20 37  1  0
 21 38  1  0
 21 39  1  0
 22 40  1  0
 22 41  1  0
 23 42  1  0
 23 43  1  0
 24 44  1  0
 24 45  1  0
 25 46  1  0
M  CHG  2   3  -1  17  -1
M  END
>  <UniqueID>  (11) 
11

>  <SMILES>  (11) 
O=C([N-]CCOc1ccccc1F)c1cc([O-])n(C2CCCCC2)c1

>  <Energy>  (11) 
76.56557092189648

>  <Genealogy>  (11) 
O=C([N-]CCOc1ccccc1F)c1cc([O-])n(C2CCCCC2)c1 (protonated)
O=C([N-]CCOc1ccccc1F)c1cc([O-])n(C2CCCCC2)c1 (3D coordinates assigned)
O=C([N-]CCOc1ccccc1F)c1cc([O-])n(C2CCCCC2)c1 (nonaromatic ring conformer: 76.56557092189648 kcal/mol)

>  <smiles>  (11) 
O=C(NCCOc1ccccc1F)c1cc(O)n(C2CCCCC2)c1

>  <score_type>  (11) 
oracle

>  <origin>  (11) 
adg

>  <m_score__min__energy>  (11) 
-12.15

>  <m_primary>  (11) 
energy

$$$$
11:0
     RDKit          3D

 33 34  0  0  0  0  0  0  0  0999 V2000
   55.1480   27.4660   45.5680 H   0  0  0  0  0  0  0  0  0  0  0  0
   54.8180   26.7150   46.1620 O   0  0  0  0  0  0  0  0  0  0  0  0
   55.2710   25.4320   45.9650 N   0  0  0  0  0  0  0  0  0  0  0  0
   56.4890   25.1510   45.6090 C   0  0  0  0  0  0  0  0  0  0  0  0
   56.7125   24.1206   45.2955 H   0  0  0  0  0  0  0  0  0  0  0  0
   57.5960   26.1400   45.6010 C   0  0  0  0  0  0  0  0  0  0  0  0
   57.3680   27.4400   45.2810 N   0  0  0  0  0  0  0  0  0  0  0  0
   58.3580   28.3740   45.2690 C   0  0  0  0  0  0  0  0  0  0  0  0
   58.0500   29.7320   44.8920 N   0  0  0  0  0  0  0  0  0  0  0  0
   58.8300   30.3710   44.6240 H   0  0  0  0  0  0  0  0  0  0  0  0
   56.7170   30.2710   44.8300 C   0  0  0  0  0  0  0  0  0  0  0  0
   55.7140   29.5110   44.9010 O   0  0  0  0  0  0  0  0  0  0  0  0
   56.5020   31.6730   44.6320 N   0  0  0  0  0  0  0  0  0  0  0  0
   57.4030   32.7230   45.0140 C   0  0  0  0  0  0  0  0  0  0  0  0
   57.3980   33.1700   46.3410 C   0  0  0  0  0  0  0  0  0  0  0  0
   56.6968   32.7291   47.0648 H   0  0  0  0  0  0  0  0  0  0  0  0
   58.2810   34.1750   46.7500 C   0  0  0  0  0  0  0  0  0  0  0  0
   58.2629   34.5320   47.7903 H   0  0  0  0  0  0  0  0  0  0  0  0
   59.1860   34.7260   45.8390 C   0  0  0  0  0  0  0  0  0  0  0  0
   59.8752   35.5208   46.1604 H   0  0  0  0  0  0  0  0  0  0  0  0
   59.2150   34.2670   44.5200 C   0  0  0  0  0  0  0  0  0  0  0  0
   59.9326   34.6958   43.8050 H   0  0  0  0  0  0  0  0  0  0  0  0
   58.3330   33.2630   44.1070 C   0  0  0  0  0  0  0  0  0  0  0  0
   58.3666   32.8949   43.0709 H   0  0  0  0  0  0  0  0  0  0  0  0
   59.6410   28.0050   45.5970 N   0  0  0  0  0  0  0  0  0  0  0  0
   60.7370   28.9830   45.6160 C   0  0  0  0  0  0  0  0  0  0  0  0
   61.0005   29.2182   46.6577 H   0  0  0  0  0  0  0  0  0  0  0  0
   61.6135   28.5614   45.1022 H   0  0  0  0  0  0  0  0  0  0  0  0
   60.4176   29.9017   45.1022 H   0  0  0  0  0  0  0  0  0  0  0  0
   59.9110   26.7030   45.9150 C   0  0  0  0  0  0  0  0  0  0  0  0
   60.9408   26.4068   46.1636 H   0  0  0  0  0  0  0  0  0  0  0  0
   58.8980   25.7470   45.9280 C   0  0  0  0  0  0  0  0  0  0  0  0
   59.1960   24.4300   46.2600 O   0  0  0  0  0  0  0  0  0  0  0  0
  1  2  1  0
  2  3  1  0
  3  4  2  0
  4  5  1  0
  4  6  1  0
  6  7  2  0
  7  8  1  0
  8  9  1  0
  9 10  1  0
  9 11  1  0
 11 12  2  0
 11 13  1  0
 13 14  1  0
 14 15  2  0
 15 16  1  0
 15 17  1  0
 17 18  1  0
 17 19  2  0
 19 20  1  0
 19 21  1  0
 21 22  1  0
 21 23  2  0
 23 24  1  0
  8 25  2  0
 25 26  1  0
 26 27  1  0
 26 28  1  0
 26 29  1  0
 25 30  1  0
 30 31  1  0
 30 32  2  0
 32 33  1  0
 32  6  1  0
 23 14  1  0
M  CHG  3  13  -1  25   1  33  -1
M  END
>  <UniqueID>  (12) 
12

>  <SMILES>  (12) 
C[n+]1cc([O-])c(/C=N\O)nc1NC(=O)[N-]c1ccccc1

>  <Energy>  (12) 
42.69986752859404

>  <Genealogy>  (12) 
C[n+]1cc([O-])c(C=NO)nc1NC(=O)[N-]c1ccccc1 (protonated)
C[n+]1cc([O-])c(/C=N\O)nc1NC(=O)[N-]c1ccccc1 (cis-trans isomerization)
C[n+]1cc([O-])c(/C=N\O)nc1NC(=O)[N-]c1ccccc1 (3D coordinates assigned)
C[n+]1cc([O-])c(/C=N\O)nc1NC(=O)[N-]c1ccccc1 (optimized conformer: 42.69986752859404 kcal/mol)

>  <smiles>  (12) 
C[n+]1cc(O)c(C=NO)nc1NC(=O)Nc1ccccc1

>  <score_type>  (12) 
oracle

>  <origin>  (12) 
adg

>  <m_score__min__energy>  (12) 
-9.5299999999999994

>  <m_primary>  (12) 
energy

$$$$
12:0
     RDKit          3D

 35 36  0  0  0  0  0  0  0  0999 V2000
   57.3760   31.6880   42.1640 C   0  0  0  0  0  0  0  0  0  0  0  0
   56.7780   30.8690   43.3070 C   0  0  0  0  0  0  0  0  0  0  0  0
   57.7820   30.6240   44.4420 C   0  0  0  0  0  0  0  0  0  0  0  0
   57.7000   29.2150   44.9720 C   0  0  0  0  0  0  0  0  0  0  0  0
   56.4550   28.6190   45.2180 C   0  0  0  0  0  0  0  0  0  0  0  0
   56.3810   27.3000   45.6750 C   0  0  0  0  0  0  0  0  0  0  0  0
   55.1380   26.7220   45.9070 O   0  0  0  0  0  0  0  0  0  0  0  0
   57.5500   26.5570   45.8840 C   0  0  0  0  0  0  0  0  0  0  0  0
   57.4390   25.2300   46.3160 O   0  0  0  0  0  0  0  0  0  0  0  0
   57.7810   24.1100   45.5410 C   0  0  0  0  0  0  0  0  0  0  0  0
   59.0780   23.5980   45.6470 C   0  0  0  0  0  0  0  0  0  0  0  0
   59.4610   22.4850   44.8960 C   0  0  0  0  0  0  0  0  0  0  0  0
   58.5490   21.8680   44.0370 C   0  0  0  0  0  0  0  0  0  0  0  0
   57.2360   22.3580   43.9220 C   0  0  0  0  0  0  0  0  0  0  0  0
   56.2960   21.7170   43.0410 N   0  0  0  0  0  0  0  0  0  0  0  0
   55.5490   22.3940   42.3050 O   0  0  0  0  0  0  0  0  0  0  0  0
   56.2060   20.3450   42.9930 O   0  0  0  0  0  0  0  0  0  0  0  0
   56.8580   23.4800   44.6830 C   0  0  0  0  0  0  0  0  0  0  0  0
   58.8080   27.1630   45.6700 C   0  0  0  0  0  0  0  0  0  0  0  0
   60.0000   26.4890   45.9360 O   0  0  0  0  0  0  0  0  0  0  0  0
   58.8730   28.4780   45.1990 C   0  0  0  0  0  0  0  0  0  0  0  0
   57.9770   32.5111   42.5780 H   0  0  0  0  0  0  0  0  0  0  0  0
   58.0161   31.0416   41.5456 H   0  0  0  0  0  0  0  0  0  0  0  0
   56.5654   32.1009   41.5456 H   0  0  0  0  0  0  0  0  0  0  0  0
   55.9113   31.4108   43.7135 H   0  0  0  0  0  0  0  0  0  0  0  0
   56.4877   29.8892   42.9001 H   0  0  0  0  0  0  0  0  0  0  0  0
   58.7987   30.8021   44.0618 H   0  0  0  0  0  0  0  0  0  0  0  0
   57.5397   31.3121   45.2653 H   0  0  0  0  0  0  0  0  0  0  0  0
   55.5314   29.1925   45.0505 H   0  0  0  0  0  0  0  0  0  0  0  0
   59.8005   24.0748   46.3258 H   0  0  0  0  0  0  0  0  0  0  0  0
   60.4851   22.0926   44.9813 H   0  0  0  0  0  0  0  0  0  0  0  0
   58.8597   20.9933   43.4467 H   0  0  0  0  0  0  0  0  0  0  0  0
   55.8318   23.8689   44.6071 H   0  0  0  0  0  0  0  0  0  0  0  0
   60.0290   25.6110   46.4390 H   0  0  0  0  0  0  0  0  0  0  0  0
   59.8525   28.9393   45.0045 H   0  0  0  0  0  0  0  0  0  0  0  0
  1  2  1  0
  2  3  1  0
  3  4  1  0
  4  5  2  0
  5  6  1  0
  6  7  1  0
  6  8  2  0
  8  9  1  0
  9 10  1  0
 10 11  2  0
 11 12  1  0
 12 13  2  0
 13 14  1  0
 14 15  1  0
 15 16  2  0
 15 17  1  0
 14 18  2  0
  8 19  1  0
 19 20  1  0
 19 21  2  0
 21  4  1  0
 18 10  1  0
  1 22  1  0
  1 23  1  0
  1 24  1  0
  2 25  1  0
  2 26  1  0
  3 27  1  0
  3 28  1  0
  5 29  1  0
 11 30  1  0
 12 31  1  0
 13 32  1  0
 18 33  1  0
 20 34  1  0
 21 35  1  0
M  CHG  3   7  -1  15   1  17  -1
M  END
>  <UniqueID>  (13) 
13

>  <SMILES>  (13) 
CCCc1cc([O-])c(Oc2cccc([N+](=O)[O-])c2)c(O)c1

>  <Energy>  (13) 
40.302870331247576

>  <Genealogy>  (13) 
CCCc1cc([O-])c(Oc2cccc([N+](=O)[O-])c2)c(O)c1 (protonated)
CCCc1cc([O-])c(Oc2cccc([N+](=O)[O-])c2)c(O)c1 (3D coordinates assigned)
CCCc1cc([O-])c(Oc2cccc([N+](=O)[O-])c2)c(O)c1 (optimized conformer: 40.302870331247576 kcal/mol)

>  <smiles>  (13) 
CCCc1cc(O)c(Oc2cccc([N+](=O)[O-])c2)c(O)c1

>  <score_type>  (13) 
oracle

>  <origin>  (13) 
adg

>  <m_score__min__energy>  (13) 
-10.470000000000001

>  <m_primary>  (13) 
energy

$$$$
13:0
     RDKit          3D

 38 40  0  0  0  0  0  0  0  0999 V2000
   58.9640   28.9470   48.5570 C   0  0  0  0  0  0  0  0  0  0  0  0
   60.6890   29.4810   48.7810 S   0  0  0  0  0  0  0  0  0  0  0  0
   60.3440   31.1820   48.3300 C   0  0  0  0  0  0  0  0  0  0  0  0
   61.3170   31.9430   47.6740 C   0  0  0  0  0  0  0  0  0  0  0  0
   61.0380   33.2580   47.2910 C   0  0  0  0  0  0  0  0  0  0  0  0
   59.7810   33.8250   47.5660 C   0  0  0  0  0  0  0  0  0  0  0  0
   59.4390   35.2000   47.0530 C   0  0  0  0  0  0  0  0  0  0  0  0
   59.2910   35.2230   45.2270 S   0  0  0  0  0  0  0  0  0  0  0  0
   58.4610   33.6400   45.1130 C   0  0  0  0  0  0  0  0  0  0  0  0
   57.1260   33.5020   44.9740 N   0  0  0  0  0  0  0  0  0  0  0  0
   56.9650   32.1680   44.8730 C   0  0  0  0  0  0  0  0  0  0  0  0
   58.2020   31.5590   44.9470 C   0  0  0  0  0  0  0  0  0  0  0  0
   58.5120   30.1160   44.8840 C   0  0  0  0  0  0  0  0  0  0  0  0
   59.8170   29.7090   45.2120 C   0  0  0  0  0  0  0  0  0  0  0  0
   60.1540   28.3550   45.2390 C   0  0  0  0  0  0  0  0  0  0  0  0
   59.1950   27.3900   44.9350 C   0  0  0  0  0  0  0  0  0  0  0  0
   57.9020   27.7770   44.5810 C   0  0  0  0  0  0  0  0  0  0  0  0
   57.5490   29.1370   44.5280 C   0  0  0  0  0  0  0  0  0  0  0  0
   56.2460   29.4950   44.0400 N   0  0  0  0  0  0  0  0  0  0  0  0
   56.0710   29.7130   42.8230 O   0  0  0  0  0  0  0  0  0  0  0  0
   55.1470   29.3590   44.8560 O   0  0  0  0  0  0  0  0  0  0  0  0
   59.1010   32.4950   45.1140 O   0  0  0  0  0  0  0  0  0  0  0  0
   58.8180   33.0640   48.2470 C   0  0  0  0  0  0  0  0  0  0  0  0
   59.0980   31.7480   48.6250 C   0  0  0  0  0  0  0  0  0  0  0  0
   58.4944   28.8016   49.5411 H   0  0  0  0  0  0  0  0  0  0  0  0
   58.4118   29.7162   47.9973 H   0  0  0  0  0  0  0  0  0  0  0  0
   58.9430   28.0003   47.9973 H   0  0  0  0  0  0  0  0  0  0  0  0
   62.3033   31.5060   47.4591 H   0  0  0  0  0  0  0  0  0  0  0  0
   61.8050   33.8518   46.7723 H   0  0  0  0  0  0  0  0  0  0  0  0
   58.4817   35.5168   47.4925 H   0  0  0  0  0  0  0  0  0  0  0  0
   60.2500   35.8853   47.3405 H   0  0  0  0  0  0  0  0  0  0  0  0
   56.0033   31.6481   44.7513 H   0  0  0  0  0  0  0  0  0  0  0  0
   60.5798   30.4650   45.4497 H   0  0  0  0  0  0  0  0  0  0  0  0
   61.1777   28.0488   45.5005 H   0  0  0  0  0  0  0  0  0  0  0  0
   59.4578   26.3226   44.9742 H   0  0  0  0  0  0  0  0  0  0  0  0
   57.1509   27.0101   44.3409 H   0  0  0  0  0  0  0  0  0  0  0  0
   57.8387   33.5053   48.4842 H   0  0  0  0  0  0  0  0  0  0  0  0
   58.3378   31.1557   49.1554 H   0  0  0  0  0  0  0  0  0  0  0  0
  1  2  1  0
  2  3  1  0
  3  4  2  0
  4  5  1  0
  5  6  2  0
  6  7  1  0
  7  8  1  0
  8  9  1  0
  9 10  2  0
 10 11  1  0
 11 12  2  0
 12 13  1  0
 13 14  2  0
 14 15  1  0
 15 16  2  0
 16 17  1  0
 17 18  2  0
 18 19  1  0
 19 20  2  0
 19 21  1  0
 12 22  1  0
  6 23  1  0
 23 24  2  0
 24  3  1  0
 22  9  1  0
 18 13  1  0
  1 25  1  0
  1 26  1  0
  1 27  1  0
  4 28  1  0
  5 29  1  0
  7 30  1  0
  7 31  1  0
 11 32  1  0
 14 33  1  0
 15 34  1  0
 16 35  1  0
 17 36  1  0
 23 37  1  0
 24 38  1  0
M  CHG  2  19   1  21  -1
M  END
>  <UniqueID>  (14) 
14

>  <SMILES>  (14) 
CSc1ccc(CSc2ncc(-c3ccccc3[N+](=O)[O-])o2)cc1

>  <Energy>  (14) 
67.58569599776362

>  <Genealogy>  (14) 
CSc1ccc(CSc2ncc(-c3ccccc3[N+](=O)[O-])o2)cc1 (3D coordinates assigned)
CSc1ccc(CSc2ncc(-c3ccccc3[N+](=O)[O-])o2)cc1 (optimized conformer: 67.58569599776362 kcal/mol)

>  <smiles>  (14) 
CSc1ccc(CSc2ncc(-c3ccccc3[N+](=O)[O-])o2)cc1

>  <score_type>  (14) 
oracle

>  <origin>  (14) 
adg

>  <m_score__min__energy>  (14) 
-9.1099999999999994

>  <m_primary>  (14) 
energy

$$$$
14:0
     RDKit          3D

 32 33  0  0  0  0  0  0  0  0999 V2000
   55.1480   29.3680   44.8640 N   0  0  0  0  0  0  0  0  0  0  0  0
   56.4660   30.2600   44.1890 S   0  0  0  0  0  0  0  0  0  0  0  0
   56.5530   31.6020   44.8600 O   0  0  0  0  0  0  0  0  0  0  0  0
   56.2300   30.4560   42.7180 O   0  0  0  0  0  0  0  0  0  0  0  0
   57.9810   29.3520   44.4340 C   0  0  0  0  0  0  0  0  0  0  0  0
   57.6860   27.9050   44.6610 C   0  0  0  0  0  0  0  0  0  0  0  0
   58.1390   26.8530   43.8900 C   0  0  0  0  0  0  0  0  0  0  0  0
   57.6590   25.7140   44.5020 C   0  0  0  0  0  0  0  0  0  0  0  0
   56.9440   26.1450   45.6050 C   0  0  0  0  0  0  0  0  0  0  0  0
   56.2570   25.2690   46.5760 C   0  0  0  0  0  0  0  0  0  0  0  0
   56.8520   24.9640   47.6440 O   0  0  0  0  0  0  0  0  0  0  0  0
   54.9390   24.7450   46.3590 N   0  0  0  0  0  0  0  0  0  0  0  0
   54.4210   24.1460   45.1310 C   0  0  0  0  0  0  0  0  0  0  0  0
   55.3930   23.1550   44.5410 C   0  0  0  0  0  0  0  0  0  0  0  0
   55.6960   23.2010   43.1690 C   0  0  0  0  0  0  0  0  0  0  0  0
   56.6220   22.3100   42.6200 C   0  0  0  0  0  0  0  0  0  0  0  0
   57.2640   21.3760   43.4370 C   0  0  0  0  0  0  0  0  0  0  0  0
   56.9890   21.3390   44.8060 C   0  0  0  0  0  0  0  0  0  0  0  0
   56.0660   22.2310   45.3600 C   0  0  0  0  0  0  0  0  0  0  0  0
   56.9790   27.4540   45.6690 O   0  0  0  0  0  0  0  0  0  0  0  0
   55.2780   28.3720   44.5800 H   0  0  0  0  0  0  0  0  0  0  0  0
   58.6159   29.4575   43.5419 H   0  0  0  0  0  0  0  0  0  0  0  0
   58.5012   29.7543   45.3158 H   0  0  0  0  0  0  0  0  0  0  0  0
   58.7534   26.9111   42.9794 H   0  0  0  0  0  0  0  0  0  0  0  0
   57.8134   24.6740   44.1787 H   0  0  0  0  0  0  0  0  0  0  0  0
   53.4773   23.6282   45.3574 H   0  0  0  0  0  0  0  0  0  0  0  0
   54.2631   24.9501   44.3972 H   0  0  0  0  0  0  0  0  0  0  0  0
   55.2015   23.9424   42.5241 H   0  0  0  0  0  0  0  0  0  0  0  0
   56.8457   22.3440   41.5435 H   0  0  0  0  0  0  0  0  0  0  0  0
   57.9863   20.6695   43.0020 H   0  0  0  0  0  0  0  0  0  0  0  0
   57.4994   20.6070   45.4491 H   0  0  0  0  0  0  0  0  0  0  0  0
   55.8653   22.2100   46.4413 H   0  0  0  0  0  0  0  0  0  0  0  0
  1  2  1  0
  2  3  2  0
  2  4  2  0
  2  5  1  0
  5  6  1  0
  6  7  2  0
  7  8  1  0
  8  9  2  0
  9 10  1  0
 10 11  2  0
 10 12  1  0
 12 13  1  0
 13 14  1  0
 14 15  2  0
 15 16  1  0
 16 17  2  0
 17 18  1  0
 18 19  2  0
  9 20  1  0
 20  6  1  0
 19 14  1  0
  1 21  1  0
  5 22  1  0
  5 23  1  0
  7 24  1  0
  8 25  1  0
 13 26  1  0
 13 27  1  0
 15 28  1  0
 16 29  1  0
 17 30  1  0
 18 31  1  0
 19 32  1  0
M  CHG  2   1  -1  12  -1
M  END
>  <UniqueID>  (15) 
15

>  <SMILES>  (15) 
[NH-]S(=O)(=O)Cc1ccc(C(=O)[N-]Cc2ccccc2)o1

>  <Energy>  (15) 
49.09051154925666

>  <Genealogy>  (15) 
[NH-]S(=O)(=O)Cc1ccc(C(=O)[N-]Cc2ccccc2)o1 (protonated)
[NH-]S(=O)(=O)Cc1ccc(C(=O)[N-]Cc2ccccc2)o1 (3D coordinates assigned)
[NH-]S(=O)(=O)Cc1ccc(C(=O)[N-]Cc2ccccc2)o1 (optimized conformer: 49.09051154925666 kcal/mol)

>  <smiles>  (15) 
NS(=O)(=O)Cc1ccc(C(=O)NCc2ccccc2)o1

>  <score_type>  (15) 
oracle

>  <origin>  (15) 
adg

>  <m_score__min__energy>  (15) 
-12.57

>  <m_primary>  (15) 
energy

$$$$
15:0
     RDKit          3D

 34 35  0  0  0  0  0  0  0  0999 V2000
   58.1990   34.3080   44.9320 C   0  0  0  0  0  0  0  0  0  0  0  0
   57.9510   32.8070   45.8570 S   0  0  0  0  0  0  0  0  0  0  0  0
   59.2800   32.1310   46.0420 O   0  0  0  0  0  0  0  0  0  0  0  0
   57.3740   33.1140   47.2110 O   0  0  0  0  0  0  0  0  0  0  0  0
   56.8980   31.7360   44.9910 N   0  0  0  0  0  0  0  0  0  0  0  0
   57.1830   30.3750   44.6360 C   0  0  0  0  0  0  0  0  0  0  0  0
   57.0260   29.9020   43.3210 C   0  0  0  0  0  0  0  0  0  0  0  0
   57.3210   28.5760   43.0090 C   0  0  0  0  0  0  0  0  0  0  0  0
   57.7690   27.7040   44.0010 C   0  0  0  0  0  0  0  0  0  0  0  0
   57.9210   28.1470   45.3250 C   0  0  0  0  0  0  0  0  0  0  0  0
   58.4120   27.1790   46.3690 C   0  0  0  0  0  0  0  0  0  0  0  0
   57.3010   26.3480   46.8200 N   0  0  0  0  0  0  0  0  0  0  0  0
   56.1770   25.9800   46.0110 C   0  0  0  0  0  0  0  0  0  0  0  0
   55.1520   26.7130   46.0270 O   0  0  0  0  0  0  0  0  0  0  0  0
   56.1770   24.7600   45.1760 C   0  0  0  0  0  0  0  0  0  0  0  0
   57.3370   24.3520   44.5070 C   0  0  0  0  0  0  0  0  0  0  0  0
   57.3170   23.2420   43.7250 N   0  0  0  0  0  0  0  0  0  0  0  0
   56.1810   22.5160   43.5700 C   0  0  0  0  0  0  0  0  0  0  0  0
   56.1860   21.4880   42.8440 O   0  0  0  0  0  0  0  0  0  0  0  0
   55.0390   22.9000   44.1950 N   0  0  0  0  0  0  0  0  0  0  0  0
   55.0080   24.0030   44.9870 C   0  0  0  0  0  0  0  0  0  0  0  0
   53.9300   24.3300   45.5520 O   0  0  0  0  0  0  0  0  0  0  0  0
   57.6360   29.4990   45.6390 C   0  0  0  0  0  0  0  0  0  0  0  0
   57.7980   30.0030   46.9330 O   0  0  0  0  0  0  0  0  0  0  0  0
   58.3379   35.1487   45.6277 H   0  0  0  0  0  0  0  0  0  0  0  0
   59.0923   34.2049   44.2984 H   0  0  0  0  0  0  0  0  0  0  0  0
   57.3200   34.4977   44.2984 H   0  0  0  0  0  0  0  0  0  0  0  0
   56.6683   30.5824   42.5341 H   0  0  0  0  0  0  0  0  0  0  0  0
   57.2000   28.2160   41.9767 H   0  0  0  0  0  0  0  0  0  0  0  0
   58.0052   26.6608   43.7443 H   0  0  0  0  0  0  0  0  0  0  0  0
   59.1964   26.5401   45.9371 H   0  0  0  0  0  0  0  0  0  0  0  0
   58.8237   27.7371   47.2229 H   0  0  0  0  0  0  0  0  0  0  0  0
   58.2659   24.9313   44.6149 H   0  0  0  0  0  0  0  0  0  0  0  0
   57.8090   30.9900   47.1510 H   0  0  0  0  0  0  0  0  0  0  0  0
  1  2  1  0
  2  3  2  0
  2  4  2  0
  2  5  1  0
  5  6  1  0
  6  7  2  0
  7  8  1  0
  8  9  2  0
  9 10  1  0
 10 11  1  0
 11 12  1  0
 12 13  1  0
 13 14  2  0
 13 15  1  0
 15 16  2  0
 16 17  1  0
 17 18  1  0
 18 19  2  0
 18 20  1  0
 20 21  1  0
 21 22  2  0
 10 23  2  0
 23 24  1  0
 23  6  1  0
 21 15  1  0
  1 25  1  0
  1 26  1  0
  1 27  1  0
  7 28  1  0
  8 29  1  0
  9 30  1  0
 11 31  1  0
 11 32  1  0
 16 33  1  0
 24 34  1  0
M  CHG  4   5  -1  12  -1  17  -1  20  -1
M  END
>  <UniqueID>  (16) 
16

>  <SMILES>  (16) 
CS(=O)(=O)[N-]c1cccc(C[N-]C(=O)c2c[n-]c(=O)[n-]c2=O)c1O

>  <Energy>  (16) 
41.16537447613255

>  <Genealogy>  (16) 
CS(=O)(=O)[N-]c1cccc(C[N-]C(=O)c2c[n-]c(=O)[n-]c2=O)c1O (protonated)
CS(=O)(=O)[N-]c1cccc(C[N-]C(=O)c2c[n-]c(=O)[n-]c2=O)c1O (3D coordinates assigned)
CS(=O)(=O)[N-]c1cccc(C[N-]C(=O)c2c[n-]c(=O)[n-]c2=O)c1O (optimized conformer: 41.16537447613255 kcal/mol)

>  <smiles>  (16) 
CS(=O)(=O)Nc1cccc(CNC(=O)c2c[nH]c(=O)[nH]c2=O)c1O

>  <score_type>  (16) 
oracle

>  <origin>  (16) 
adg

>  <m_score__min__energy>  (16) 
-13.960000000000001

>  <m_primary>  (16) 
energy

$$$$
16:0
     RDKit          3D

 55 57  0  0  0  0  0  0  0  0999 V2000
   63.7860   32.6520   48.3330 C   0  0  0  0  0  0  0  0  0  0  0  0
   63.0080   32.1730   49.5590 C   0  0  0  0  0  0  0  0  0  0  0  0
   61.7450   33.0180   49.8260 C   0  0  0  0  0  0  0  0  0  0  0  0
   60.7890   33.0120   48.6880 N   0  0  0  0  0  0  0  0  0  0  0  0
   61.0080   34.2090   47.8340 C   0  0  0  0  0  0  0  0  0  0  0  0
   59.8180   34.5150   46.8960 C   0  0  0  0  0  0  0  0  0  0  0  0
   58.9360   33.3490   46.7660 N   0  0  0  0  0  0  0  0  0  0  0  0
   58.5120   32.8790   45.4730 C   0  0  0  0  0  0  0  0  0  0  0  0
   58.8770   33.5740   44.3090 C   0  0  0  0  0  0  0  0  0  0  0  0
   58.4980   33.0950   43.0520 C   0  0  0  0  0  0  0  0  0  0  0  0
   57.7570   31.9170   42.9440 C   0  0  0  0  0  0  0  0  0  0  0  0
   57.3870   31.2120   44.0960 C   0  0  0  0  0  0  0  0  0  0  0  0
   56.4930   29.7000   43.9570 S   0  0  0  0  0  0  0  0  0  0  0  0
   55.9100   29.5920   42.5760 O   0  0  0  0  0  0  0  0  0  0  0  0
   55.3640   29.7080   44.9500 O   0  0  0  0  0  0  0  0  0  0  0  0
   57.4960   28.3160   44.2600 N   0  0  0  0  0  0  0  0  0  0  0  0
   58.1940   28.0870   45.4870 C   0  0  0  0  0  0  0  0  0  0  0  0
   59.0410   29.0720   45.9810 C   0  0  0  0  0  0  0  0  0  0  0  0
   59.7290   28.8750   47.1910 C   0  0  0  0  0  0  0  0  0  0  0  0
   60.5410   30.0030   47.7140 C   0  0  0  0  0  0  0  0  0  0  0  0
   60.6060   30.2140   48.9540 O   0  0  0  0  0  0  0  0  0  0  0  0
   61.2870   30.8050   46.8580 O   0  0  0  0  0  0  0  0  0  0  0  0
   59.6130   27.6680   47.8560 N   0  0  0  0  0  0  0  0  0  0  0  0
   60.3800   27.4110   49.0880 C   0  0  0  0  0  0  0  0  0  0  0  0
   58.7760   26.6900   47.3670 C   0  0  0  0  0  0  0  0  0  0  0  0
   58.6280   25.5970   47.9810 O   0  0  0  0  0  0  0  0  0  0  0  0
   58.0760   26.8820   46.1750 C   0  0  0  0  0  0  0  0  0  0  0  0
   57.7660   31.6920   45.3570 C   0  0  0  0  0  0  0  0  0  0  0  0
   58.4380   32.7040   47.9870 C   0  0  0  0  0  0  0  0  0  0  0  0
   59.3880   32.9670   49.1650 C   0  0  0  0  0  0  0  0  0  0  0  0
   64.6807   33.2028   48.6587 H   0  0  0  0  0  0  0  0  0  0  0  0
   64.0894   31.7841   47.7291 H   0  0  0  0  0  0  0  0  0  0  0  0
   63.1476   33.3137   47.7291 H   0  0  0  0  0  0  0  0  0  0  0  0
   62.7054   31.1277   49.3982 H   0  0  0  0  0  0  0  0  0  0  0  0
   63.6679   32.2737   50.4333 H   0  0  0  0  0  0  0  0  0  0  0  0
   61.2353   32.6152   50.7137 H   0  0  0  0  0  0  0  0  0  0  0  0
   62.0712   34.0579   49.9753 H   0  0  0  0  0  0  0  0  0  0  0  0
   60.9700   32.1680   48.0960 H   0  0  0  0  0  0  0  0  0  0  0  0
   61.1709   35.0791   48.4870 H   0  0  0  0  0  0  0  0  0  0  0  0
   61.8804   34.0005   47.1972 H   0  0  0  0  0  0  0  0  0  0  0  0
   59.2425   35.3569   47.3083 H   0  0  0  0  0  0  0  0  0  0  0  0
   60.2128   34.7679   45.9009 H   0  0  0  0  0  0  0  0  0  0  0  0
   59.4645   34.5007   44.3868 H   0  0  0  0  0  0  0  0  0  0  0  0
   58.7844   33.6478   42.1452 H   0  0  0  0  0  0  0  0  0  0  0  0
   57.4633   31.5419   41.9525 H   0  0  0  0  0  0  0  0  0  0  0  0
   59.1737   30.0103   45.4225 H   0  0  0  0  0  0  0  0  0  0  0  0
   59.7488   27.6225   49.9637 H   0  0  0  0  0  0  0  0  0  0  0  0
   60.6965   26.3577   49.1099 H   0  0  0  0  0  0  0  0  0  0  0  0
   61.2672   28.0610   49.1099 H   0  0  0  0  0  0  0  0  0  0  0  0
   57.4320   26.0827   45.7795 H   0  0  0  0  0  0  0  0  0  0  0  0
   57.4782   31.1369   46.2620 H   0  0  0  0  0  0  0  0  0  0  0  0
   57.4432   33.1067   48.2283 H   0  0  0  0  0  0  0  0  0  0  0  0
   58.3787   31.6191   47.8154 H   0  0  0  0  0  0  0  0  0  0  0  0
   59.1313   33.9295   49.6316 H   0  0  0  0  0  0  0  0  0  0  0  0
   59.2836   32.1553   49.9001 H   0  0  0  0  0  0  0  0  0  0  0  0
  1  2  1  0
  2  3  1  0
  3  4  1  0
  4  5  1  0
  5  6  1  0
  6  7  1  0
  7  8  1  0
  8  9  2  0
  9 10  1  0
 10 11  2  0
 11 12  1  0
 12 13  1  0
 13 14  2  0
 13 15  2  0
 13 16  1  0
 16 17  1  0
 17 18  1  0
 18 19  2  0
 19 20  1  0
 20 21  2  0
 20 22  1  0
 19 23  1  0
 23 24  1  0
 23 25  1  0
 25 26  2  0
 25 27  1  0
 12 28  2  0
  7 29  1  0
 29 30  1  0
 30  4  1  0
 28  8  1  0
 27 17  2  0
  1 31  1  0
  1 32  1  0
  1 33  1  0
  2 34  1  0
  2 35  1  0
  3 36  1  0
  3 37  1  0
  4 38  1  0
  5 39  1  0
  5 40  1  0
  6 41  1  0
  6 42  1  0
  9 43  1  0
 10 44  1  0
 11 45  1  0
 18 46  1  0
 24 47  1  0
 24 48  1  0
 24 49  1  0
 27 50  1  0
 28 51  1  0
 29 52  1  0
 29 53  1  0
 30 54  1  0
 30 55  1  0
M  CHG  3   4   1  16  -1  22  -1
M  END
>  <UniqueID>  (17) 
17

>  <SMILES>  (17) 
CCC[NH+]1CCN(c2cccc(S(=O)(=O)[N-]c3cc(C(=O)[O-])n(C)c(=O)c3)c2)CC1

>  <Energy>  (17) 
82.86101365604164

>  <Genealogy>  (17) 
CCC[NH+]1CCN(c2cccc(S(=O)(=O)[N-]c3cc(C(=O)[O-])n(C)c(=O)c3)c2)CC1 (protonated)
CCC[NH+]1CCN(c2cccc(S(=O)(=O)[N-]c3cc(C(=O)[O-])n(C)c(=O)c3)c2)CC1 (3D coordinates assigned)
CCC[NH+]1CCN(c2cccc(S(=O)(=O)[N-]c3cc(C(=O)[O-])n(C)c(=O)c3)c2)CC1 (nonaromatic ring conformer: 82.86101365604164 kcal/mol)

>  <smiles>  (17) 
CCCN1CCN(c2cccc(S(=O)(=O)Nc3cc(C(=O)O)n(C)c(=O)c3)c2)CC1

>  <score_type>  (17) 
oracle

>  <origin>  (17) 
adg

>  <m_score__min__energy>  (17) 
-11.779999999999999

>  <m_primary>  (17) 
energy

$$$$
17:0
     RDKit          3D

 40 41  0  0  0  0  0  0  0  0999 V2000
   58.8510   26.8590   46.2120 O   0  0  0  0  0  0  0  0  0  0  0  0
   57.6610   26.8780   45.7940 C   0  0  0  0  0  0  0  0  0  0  0  0
   57.0390   28.1300   45.4650 N   0  0  0  0  0  0  0  0  0  0  0  0
   57.6920   29.4150   45.7020 C   0  0  0  0  0  0  0  0  0  0  0  0
   57.5620   30.2960   44.4900 C   0  0  0  0  0  0  0  0  0  0  0  0
   56.7910   29.8730   43.3950 C   0  0  0  0  0  0  0  0  0  0  0  0
   56.6820   30.6800   42.2570 C   0  0  0  0  0  0  0  0  0  0  0  0
   57.3440   31.9100   42.2040 C   0  0  0  0  0  0  0  0  0  0  0  0
   57.2370   32.6890   41.1000 F   0  0  0  0  0  0  0  0  0  0  0  0
   58.1160   32.3350   43.2890 C   0  0  0  0  0  0  0  0  0  0  0  0
   58.2280   31.5320   44.4280 C   0  0  0  0  0  0  0  0  0  0  0  0
   56.9410   25.5990   45.6080 C   0  0  0  0  0  0  0  0  0  0  0  0
   57.6690   24.4330   45.3500 C   0  0  0  0  0  0  0  0  0  0  0  0
   57.0090   23.2280   45.1440 C   0  0  0  0  0  0  0  0  0  0  0  0
   55.6160   23.1810   45.2140 C   0  0  0  0  0  0  0  0  0  0  0  0
   55.0340   22.0840   44.9930 O   0  0  0  0  0  0  0  0  0  0  0  0
   54.8960   24.3110   45.5180 N   0  0  0  0  0  0  0  0  0  0  0  0
   53.4250   24.2510   45.5790 C   0  0  0  0  0  0  0  0  0  0  0  0
   52.9430   23.5930   44.4250 O   0  0  0  0  0  0  0  0  0  0  0  0
   51.5290   23.5330   44.4370 C   0  0  0  0  0  0  0  0  0  0  0  0
   51.0560   22.4270   45.3800 C   0  0  0  0  0  0  0  0  0  0  0  0
   52.0430   21.4400   45.5080 O   0  0  0  0  0  0  0  0  0  0  0  0
   55.5360   25.5130   45.7010 C   0  0  0  0  0  0  0  0  0  0  0  0
   54.7970   26.6560   46.0040 O   0  0  0  0  0  0  0  0  0  0  0  0
   56.1160   28.1330   44.9750 H   0  0  0  0  0  0  0  0  0  0  0  0
   57.2187   29.9096   46.5630 H   0  0  0  0  0  0  0  0  0  0  0  0
   58.7589   29.2426   45.9072 H   0  0  0  0  0  0  0  0  0  0  0  0
   56.2712   28.9043   43.4320 H   0  0  0  0  0  0  0  0  0  0  0  0
   56.0745   30.3460   41.4030 H   0  0  0  0  0  0  0  0  0  0  0  0
   58.6364   33.3032   43.2466 H   0  0  0  0  0  0  0  0  0  0  0  0
   58.8393   31.8687   45.2783 H   0  0  0  0  0  0  0  0  0  0  0  0
   58.7676   24.4702   45.3101 H   0  0  0  0  0  0  0  0  0  0  0  0
   57.5821   22.3146   44.9266 H   0  0  0  0  0  0  0  0  0  0  0  0
   53.1155   23.6955   46.4766 H   0  0  0  0  0  0  0  0  0  0  0  0
   53.0131   25.2699   45.6250 H   0  0  0  0  0  0  0  0  0  0  0  0
   51.1272   24.4983   44.7786 H   0  0  0  0  0  0  0  0  0  0  0  0
   51.1702   23.3157   43.4201 H   0  0  0  0  0  0  0  0  0  0  0  0
   50.8452   22.8594   46.3692 H   0  0  0  0  0  0  0  0  0  0  0  0
   50.1452   21.9698   44.9660 H   0  0  0  0  0  0  0  0  0  0  0  0
   52.9020   21.8600   45.2440 H   0  0  0  0  0  0  0  0  0  0  0  0
  1  2  2  0
  2  3  1  0
  3  4  1  0
  4  5  1  0
  5  6  2  0
  6  7  1  0
  7  8  2  0
  8  9  1  0
  8 10  1  0
 10 11  2  0
  2 12  1  0
 12 13  1  0
 13 14  2  0
 14 15  1  0
 15 16  2  0
 15 17  1  0
 17 18  1  0
 18 19  1  0
 19 20  1  0
 20 21  1  0
 21 22  1  0
 17 23  1  0
 23 24  1  0
 11  5  1  0
 23 12  2  0
  3 25  1  0
  4 26  1  0
  4 27  1  0
  6 28  1  0
  7 29  1  0
 10 30  1  0
 11 31  1  0
 13 32  1  0
 14 33  1  0
 18 34  1  0
 18 35  1  0
 20 36  1  0
 20 37  1  0
 21 38  1  0
 21 39  1  0
 22 40  1  0
M  CHG  1  24  -1
M  END
>  <UniqueID>  (18) 
18

>  <SMILES>  (18) 
O=C(NCc1ccc(F)cc1)c1ccc(=O)n(COCCO)c1[O-]

>  <Energy>  (18) 
46.368564079472876

>  <Genealogy>  (18) 
O=C(NCc1ccc(F)cc1)c1ccc(=O)n(COCCO)c1[O-] (protonated)
O=C(NCc1ccc(F)cc1)c1ccc(=O)n(COCCO)c1[O-] (3D coordinates assigned)
O=C(NCc1ccc(F)cc1)c1ccc(=O)n(COCCO)c1[O-] (optimized conformer: 46.368564079472876 kcal/mol)

>  <smiles>  (18) 
O=C(NCc1ccc(F)cc1)c1ccc(=O)n(COCCO)c1O

>  <score_type>  (18) 
oracle

>  <origin>  (18) 
adg

>  <m_score__min__energy>  (18) 
-10.970000000000001

>  <m_primary>  (18) 
energy

$$$$
18:0
     RDKit          3D

 48 50  0  0  0  0  0  0  0  0999 V2000
   59.2580   34.3790   44.5240 C   0  0  0  0  0  0  0  0  0  0  0  0
   58.5180   33.0790   44.4180 C   0  0  0  0  0  0  0  0  0  0  0  0
   57.9890   32.7390   43.2120 N   0  0  0  0  0  0  0  0  0  0  0  0
   57.3090   31.5810   43.0370 C   0  0  0  0  0  0  0  0  0  0  0  0
   56.8310   31.2980   41.9080 O   0  0  0  0  0  0  0  0  0  0  0  0
   57.1470   30.7260   44.0750 N   0  0  0  0  0  0  0  0  0  0  0  0
   57.6520   31.0070   45.3030 C   0  0  0  0  0  0  0  0  0  0  0  0
   57.4850   30.1750   46.2330 O   0  0  0  0  0  0  0  0  0  0  0  0
   58.3540   32.2090   45.5210 C   0  0  0  0  0  0  0  0  0  0  0  0
   59.0320   32.6020   47.1200 S   0  0  0  0  0  0  0  0  0  0  0  0
   58.1320   32.1250   48.2260 O   0  0  0  0  0  0  0  0  0  0  0  0
   59.1640   34.0950   47.2340 O   0  0  0  0  0  0  0  0  0  0  0  0
   60.5890   31.8480   47.3060 N   0  0  0  0  0  0  0  0  0  0  0  0
   60.8010   30.4990   46.7700 C   0  0  0  0  0  0  0  0  0  0  0  0
   60.7060   29.4870   47.8670 C   0  0  0  0  0  0  0  0  0  0  0  0
   61.0040   29.8180   49.0460 O   0  0  0  0  0  0  0  0  0  0  0  0
   60.3950   28.1280   47.5390 N   0  0  0  0  0  0  0  0  0  0  0  0
   59.5000   27.6760   46.5130 C   0  0  0  0  0  0  0  0  0  0  0  0
   59.6950   28.1370   45.2050 C   0  0  0  0  0  0  0  0  0  0  0  0
   58.8350   27.7390   44.1790 C   0  0  0  0  0  0  0  0  0  0  0  0
   57.7640   26.8850   44.4550 C   0  0  0  0  0  0  0  0  0  0  0  0
   57.5470   26.4280   45.7610 C   0  0  0  0  0  0  0  0  0  0  0  0
   56.1760   25.3840   46.1230 S   0  0  0  0  0  0  0  0  0  0  0  0
   54.7100   26.2890   45.9870 N   0  0  0  0  0  0  0  0  0  0  0  0
   56.1420   24.2280   45.1630 O   0  0  0  0  0  0  0  0  0  0  0  0
   56.3050   24.8470   47.5210 O   0  0  0  0  0  0  0  0  0  0  0  0
   58.4080   26.8340   46.7910 C   0  0  0  0  0  0  0  0  0  0  0  0
   61.6510   32.5410   47.9880 C   0  0  0  0  0  0  0  0  0  0  0  0
   62.9650   32.4850   47.4930 C   0  0  0  0  0  0  0  0  0  0  0  0
   64.0030   33.1350   48.1670 C   0  0  0  0  0  0  0  0  0  0  0  0
   63.7410   33.8380   49.3450 C   0  0  0  0  0  0  0  0  0  0  0  0
   62.4390   33.8930   49.8500 C   0  0  0  0  0  0  0  0  0  0  0  0
   61.3960   33.2470   49.1790 C   0  0  0  0  0  0  0  0  0  0  0  0
   60.1490   33.2790   49.7100 F   0  0  0  0  0  0  0  0  0  0  0  0
   59.4027   34.6332   45.5844 H   0  0  0  0  0  0  0  0  0  0  0  0
   60.2376   34.2844   44.0327 H   0  0  0  0  0  0  0  0  0  0  0  0
   58.6765   35.1730   44.0327 H   0  0  0  0  0  0  0  0  0  0  0  0
   60.0344   30.2850   46.0107 H   0  0  0  0  0  0  0  0  0  0  0  0
   61.8023   30.4455   46.3178 H   0  0  0  0  0  0  0  0  0  0  0  0
   60.5310   28.8170   44.9843 H   0  0  0  0  0  0  0  0  0  0  0  0
   59.0009   28.0982   43.1526 H   0  0  0  0  0  0  0  0  0  0  0  0
   57.0897   26.5709   43.6446 H   0  0  0  0  0  0  0  0  0  0  0  0
   54.7760   27.0810   46.6660 H   0  0  0  0  0  0  0  0  0  0  0  0
   58.2285   26.4924   47.8211 H   0  0  0  0  0  0  0  0  0  0  0  0
   63.1781   31.9264   46.5697 H   0  0  0  0  0  0  0  0  0  0  0  0
   65.0276   33.0927   47.7690 H   0  0  0  0  0  0  0  0  0  0  0  0
   64.5589   34.3481   49.8750 H   0  0  0  0  0  0  0  0  0  0  0  0
   62.2340   34.4463   50.7784 H   0  0  0  0  0  0  0  0  0  0  0  0
  1  2  1  0
  2  3  1  0
  3  4  1  0
  4  5  2  0
  4  6  1  0
  6  7  1  0
  7  8  2  0
  7  9  1  0
  9 10  1  0
 10 11  2  0
 10 12  2  0
 10 13  1  0
 13 14  1  0
 14 15  1  0
 15 16  2  0
 15 17  1  0
 17 18  1  0
 18 19  2  0
 19 20  1  0
 20 21  2  0
 21 22  1  0
 22 23  1  0
 23 24  1  0
 23 25  2  0
 23 26  2  0
 22 27  2  0
 13 28  1  0
 28 29  2  0
 29 30  1  0
 30 31  2  0
 31 32  1  0
 32 33  2  0
 33 34  1  0
  9  2  2  0
 27 18  1  0
 33 28  1  0
  1 35  1  0
  1 36  1  0
  1 37  1  0
 14 38  1  0
 14 39  1  0
 19 40  1  0
 20 41  1  0
 21 42  1  0
 24 43  1  0
 27 44  1  0
 29 45  1  0
 30 46  1  0
 31 47  1  0
 32 48  1  0
M  CHG  4   3  -1   6  -1  17  -1  24  -1
M  END
>  <UniqueID>  (19) 
19

>  <SMILES>  (19) 
Cc1[n-]c(=O)[n-]c(=O)c1S(=O)(=O)N(CC(=O)[N-]c1cccc(S([NH-])(=O)=O)c1)c1ccccc1F

>  <Energy>  (19) 
60.57646820745638

>  <Genealogy>  (19) 
Cc1[n-]c(=O)[n-]c(=O)c1S(=O)(=O)N(CC(=O)[N-]c1cccc(S([NH-])(=O)=O)c1)c1ccccc1F (protonated)
Cc1[n-]c(=O)[n-]c(=O)c1S(=O)(=O)N(CC(=O)[N-]c1cccc(S([NH-])(=O)=O)c1)c1ccccc1F (3D coordinates assigned)
Cc1[n-]c(=O)[n-]c(=O)c1S(=O)(=O)N(CC(=O)[N-]c1cccc(S([NH-])(=O)=O)c1)c1ccccc1F (optimized conformer: 60.57646820745638 kcal/mol)

>  <smiles>  (19) 
Cc1[nH]c(=O)[nH]c(=O)c1S(=O)(=O)N(CC(=O)Nc1cccc(S(N)(=O)=O)c1)c1ccccc1F

>  <score_type>  (19) 
oracle

>  <origin>  (19) 
adg

>  <m_score__min__energy>  (19) 
-15.789999999999999

>  <m_primary>  (19) 
energy

$$$$
19:0
     RDKit          3D

 48 50  0  0  0  0  0  0  0  0999 V2000
   57.7590   21.6420   44.9140 C   0  0  0  0  0  0  0  0  0  0  0  0
   57.3050   22.1780   46.5920 S   0  0  0  0  0  0  0  0  0  0  0  0
   57.2230   23.9160   46.1460 C   0  0  0  0  0  0  0  0  0  0  0  0
   58.3700   24.5570   45.6760 C   0  0  0  0  0  0  0  0  0  0  0  0
   58.3270   25.9050   45.3180 C   0  0  0  0  0  0  0  0  0  0  0  0
   57.1290   26.6340   45.4110 C   0  0  0  0  0  0  0  0  0  0  0  0
   57.1250   28.0540   44.9740 C   0  0  0  0  0  0  0  0  0  0  0  0
   56.3280   28.8590   45.5290 O   0  0  0  0  0  0  0  0  0  0  0  0
   58.0620   28.5910   43.9230 C   0  0  0  0  0  0  0  0  0  0  0  0
   59.8010   28.6250   44.4970 S   0  0  0  0  0  0  0  0  0  0  0  0
   59.4910   29.7480   45.8590 C   0  0  0  0  0  0  0  0  0  0  0  0
   59.8580   29.4040   47.1580 C   0  0  0  0  0  0  0  0  0  0  0  0
   59.6320   30.3100   48.1930 C   0  0  0  0  0  0  0  0  0  0  0  0
   59.0420   31.5620   47.9370 C   0  0  0  0  0  0  0  0  0  0  0  0
   58.8590   32.5100   49.0670 C   0  0  0  0  0  0  0  0  0  0  0  0
   57.9360   32.3380   49.9050 O   0  0  0  0  0  0  0  0  0  0  0  0
   59.7610   33.6170   49.2140 N   0  0  0  0  0  0  0  0  0  0  0  0
   61.1030   33.6980   48.7110 C   0  0  0  0  0  0  0  0  0  0  0  0
   61.3800   33.7820   47.3330 C   0  0  0  0  0  0  0  0  0  0  0  0
   62.7040   33.8280   46.8840 C   0  0  0  0  0  0  0  0  0  0  0  0
   63.7570   33.7770   47.8020 C   0  0  0  0  0  0  0  0  0  0  0  0
   63.4890   33.6720   49.1680 C   0  0  0  0  0  0  0  0  0  0  0  0
   62.1660   33.6250   49.6200 C   0  0  0  0  0  0  0  0  0  0  0  0
   58.6600   31.8570   46.6000 C   0  0  0  0  0  0  0  0  0  0  0  0
   57.9900   33.1420   46.2080 C   0  0  0  0  0  0  0  0  0  0  0  0
   58.9000   30.9460   45.6190 N   0  0  0  0  0  0  0  0  0  0  0  0
   55.9730   25.9890   45.9040 C   0  0  0  0  0  0  0  0  0  0  0  0
   54.7810   26.6890   46.0600 O   0  0  0  0  0  0  0  0  0  0  0  0
   56.0210   24.6280   46.2630 C   0  0  0  0  0  0  0  0  0  0  0  0
   54.8820   23.9760   46.7390 O   0  0  0  0  0  0  0  0  0  0  0  0
   58.4688   20.8040   44.9762 H   0  0  0  0  0  0  0  0  0  0  0  0
   56.8560   21.3185   44.3755 H   0  0  0  0  0  0  0  0  0  0  0  0
   58.2267   22.4794   44.3755 H   0  0  0  0  0  0  0  0  0  0  0  0
   59.3126   23.9969   45.5873 H   0  0  0  0  0  0  0  0  0  0  0  0
   59.2403   26.4023   44.9593 H   0  0  0  0  0  0  0  0  0  0  0  0
   57.9963   27.9518   43.0302 H   0  0  0  0  0  0  0  0  0  0  0  0
   57.7605   29.6249   43.6989 H   0  0  0  0  0  0  0  0  0  0  0  0
   60.3212   28.4279   47.3648 H   0  0  0  0  0  0  0  0  0  0  0  0
   59.9179   30.0435   49.2212 H   0  0  0  0  0  0  0  0  0  0  0  0
   60.5533   33.8115   46.6079 H   0  0  0  0  0  0  0  0  0  0  0  0
   62.9168   33.9044   45.8075 H   0  0  0  0  0  0  0  0  0  0  0  0
   64.7975   33.8196   47.4477 H   0  0  0  0  0  0  0  0  0  0  0  0
   64.3184   33.6262   49.8891 H   0  0  0  0  0  0  0  0  0  0  0  0
   61.9592   33.5301   50.6962 H   0  0  0  0  0  0  0  0  0  0  0  0
   57.7012   33.6960   47.1134 H   0  0  0  0  0  0  0  0  0  0  0  0
   58.6854   33.7510   45.6117 H   0  0  0  0  0  0  0  0  0  0  0  0
   57.0926   32.9205   45.6117 H   0  0  0  0  0  0  0  0  0  0  0  0
   54.0910   24.4800   47.1230 H   0  0  0  0  0  0  0  0  0  0  0  0
  1  2  1  0
  2  3  1  0
  3  4  2  0
  4  5  1  0
  5  6  2  0
  6  7  1  0
  7  8  2  0
  7  9  1  0
  9 10  1  0
 10 11  1  0
 11 12  2  0
 12 13  1  0
 13 14  2  0
 14 15  1  0
 15 16  2  0
 15 17  1  0
 17 18  1  0
 18 19  2  0
 19 20  1  0
 20 21  2  0
 21 22  1  0
 22 23  2  0
 14 24  1  0
 24 25  1  0
 24 26  2  0
  6 27  1  0
 27 28  1  0
 27 29  2  0
 29 30  1  0
 29  3  1  0
 26 11  1  0
 23 18  1  0
  1 31  1  0
  1 32  1  0
  1 33  1  0
  4 34  1  0
  5 35  1  0
  9 36  1  0
  9 37  1  0
 12 38  1  0
 13 39  1  0
 19 40  1  0
 20 41  1  0
 21 42  1  0
 22 43  1  0
 23 44  1  0
 25 45  1  0
 25 46  1  0
 25 47  1  0
 30 48  1  0
M  CHG  2  17  -1  28  -1
M  END
>  <UniqueID>  (20) 
20

>  <SMILES>  (20) 
CSc1ccc(C(=O)CSc2ccc(C(=O)[N-]c3ccccc3)c(C)n2)c([O-])c1O

>  <Energy>  (20) 
54.271087647558325

>  <Genealogy>  (20) 
CSc1ccc(C(=O)CSc2ccc(C(=O)[N-]c3ccccc3)c(C)n2)c([O-])c1O (protonated)
CSc1ccc(C(=O)CSc2ccc(C(=O)[N-]c3ccccc3)c(C)n2)c([O-])c1O (3D coordinates assigned)
CSc1ccc(C(=O)CSc2ccc(C(=O)[N-]c3ccccc3)c(C)n2)c([O-])c1O (optimized conformer: 54.271087647558325 kcal/mol)

>  <smiles>  (20) 
CSc1ccc(C(=O)CSc2ccc(C(=O)Nc3ccccc3)c(C)n2)c(O)c1O

>  <score_type>  (20) 
oracle

>  <origin>  (20) 
adg

>  <m_score__min__energy>  (20) 
-14.369999999999999

>  <m_primary>  (20) 
energy

$$$$
20:0
     RDKit          3D

 61 64  0  0  0  0  0  0  0  0999 V2000
   61.5970   33.3490   50.7050 N   0  0  0  0  0  0  0  0  0  0  0  0
   61.7850   34.0570   49.4820 C   0  0  0  0  0  0  0  0  0  0  0  0
   62.6390   34.9840   49.4410 O   0  0  0  0  0  0  0  0  0  0  0  0
   60.9850   33.7240   48.2740 C   0  0  0  0  0  0  0  0  0  0  0  0
   59.9360   34.5760   47.8750 C   0  0  0  0  0  0  0  0  0  0  0  0
   59.1600   34.2730   46.7540 C   0  0  0  0  0  0  0  0  0  0  0  0
   59.4080   33.1060   46.0140 C   0  0  0  0  0  0  0  0  0  0  0  0
   58.6560   32.7720   44.8820 O   0  0  0  0  0  0  0  0  0  0  0  0
   58.0380   31.5340   44.6440 C   0  0  0  0  0  0  0  0  0  0  0  0
   56.6510   31.4090   44.4460 C   0  0  0  0  0  0  0  0  0  0  0  0
   56.0810   30.1500   44.2350 C   0  0  0  0  0  0  0  0  0  0  0  0
   56.8810   29.0060   44.2540 C   0  0  0  0  0  0  0  0  0  0  0  0
   58.2600   29.1120   44.4920 C   0  0  0  0  0  0  0  0  0  0  0  0
   59.1130   27.8740   44.6250 C   0  0  0  0  0  0  0  0  0  0  0  0
   59.0350   27.3270   45.9920 N   0  0  0  0  0  0  0  0  0  0  0  0
   60.1150   27.6070   46.9510 C   0  0  0  0  0  0  0  0  0  0  0  0
   59.6630   28.5940   47.9950 C   0  0  0  0  0  0  0  0  0  0  0  0
   58.8830   29.7030   47.6290 C   0  0  0  0  0  0  0  0  0  0  0  0
   58.5440   30.6730   48.5780 C   0  0  0  0  0  0  0  0  0  0  0  0
   58.9760   30.5410   49.9050 C   0  0  0  0  0  0  0  0  0  0  0  0
   58.5910   31.7770   51.0990 S   0  0  0  0  0  0  0  0  0  0  0  0
   56.9630   31.5730   51.6390 N   0  0  0  0  0  0  0  0  0  0  0  0
   58.7470   33.1440   50.4940 O   0  0  0  0  0  0  0  0  0  0  0  0
   59.5310   31.6570   52.2660 O   0  0  0  0  0  0  0  0  0  0  0  0
   59.7250   29.4190   50.2810 C   0  0  0  0  0  0  0  0  0  0  0  0
   60.0690   28.4510   49.3310 C   0  0  0  0  0  0  0  0  0  0  0  0
   57.8910   26.5520   46.4150 C   0  0  0  0  0  0  0  0  0  0  0  0
   57.3920   26.7490   47.5570 O   0  0  0  0  0  0  0  0  0  0  0  0
   57.2920   25.5190   45.5440 C   0  0  0  0  0  0  0  0  0  0  0  0
   58.1160   24.5790   44.9050 C   0  0  0  0  0  0  0  0  0  0  0  0
   57.5610   23.5970   44.0780 C   0  0  0  0  0  0  0  0  0  0  0  0
   56.1770   23.5390   43.8870 C   0  0  0  0  0  0  0  0  0  0  0  0
   55.6370   22.5550   43.0610 O   0  0  0  0  0  0  0  0  0  0  0  0
   55.3470   24.4670   44.5290 C   0  0  0  0  0  0  0  0  0  0  0  0
   55.8980   25.4520   45.3570 C   0  0  0  0  0  0  0  0  0  0  0  0
   55.0530   26.3740   45.9710 O   0  0  0  0  0  0  0  0  0  0  0  0
   58.8290   30.3830   44.6660 C   0  0  0  0  0  0  0  0  0  0  0  0
   60.4660   32.2730   46.3860 C   0  0  0  0  0  0  0  0  0  0  0  0
   61.2470   32.5670   47.5080 C   0  0  0  0  0  0  0  0  0  0  0  0
   62.2530   31.7170   47.8300 F   0  0  0  0  0  0  0  0  0  0  0  0
   60.8270   32.6490   50.8110 H   0  0  0  0  0  0  0  0  0  0  0  0
   59.7262   35.4887   48.4521 H   0  0  0  0  0  0  0  0  0  0  0  0
   58.3502   34.9523   46.4493 H   0  0  0  0  0  0  0  0  0  0  0  0
   56.0127   32.3048   44.4572 H   0  0  0  0  0  0  0  0  0  0  0  0
   54.9998   30.0606   44.0536 H   0  0  0  0  0  0  0  0  0  0  0  0
   56.4289   28.0181   44.0818 H   0  0  0  0  0  0  0  0  0  0  0  0
   58.7594   27.1145   43.9122 H   0  0  0  0  0  0  0  0  0  0  0  0
   60.1584   28.1424   44.4125 H   0  0  0  0  0  0  0  0  0  0  0  0
   60.4101   26.6696   47.4452 H   0  0  0  0  0  0  0  0  0  0  0  0
   60.9673   28.0378   46.4051 H   0  0  0  0  0  0  0  0  0  0  0  0
   58.5368   29.8094   46.5903 H   0  0  0  0  0  0  0  0  0  0  0  0
   57.9370   31.5414   48.2823 H   0  0  0  0  0  0  0  0  0  0  0  0
   56.3430   31.9790   50.9020 H   0  0  0  0  0  0  0  0  0  0  0  0
   60.0440   29.2983   51.3268 H   0  0  0  0  0  0  0  0  0  0  0  0
   60.6604   27.5739   49.6326 H   0  0  0  0  0  0  0  0  0  0  0  0
   59.2050   24.6150   45.0557 H   0  0  0  0  0  0  0  0  0  0  0  0
   58.2150   22.8684   43.5765 H   0  0  0  0  0  0  0  0  0  0  0  0
   55.7970   22.5590   42.0580 H   0  0  0  0  0  0  0  0  0  0  0  0
   54.2578   24.4215   44.3819 H   0  0  0  0  0  0  0  0  0  0  0  0
   59.9141   30.4741   44.8220 H   0  0  0  0  0  0  0  0  0  0  0  0
   60.6872   31.3756   45.7895 H   0  0  0  0  0  0  0  0  0  0  0  0
  1  2  1  0
  2  3  2  0
  2  4  1  0
  4  5  2  0
  5  6  1  0
  6  7  2  0
  7  8  1  0
  8  9  1  0
  9 10  2  0
 10 11  1  0
 11 12  2  0
 12 13  1  0
 13 14  1  0
 14 15  1  0
 15 16  1  0
 16 17  1  0
 17 18  2  0
 18 19  1  0
 19 20  2  0
 20 21  1  0
 21 22  1  0
 21 23  2  0
 21 24  2  0
 20 25  1  0
 25 26  2  0
 15 27  1  0
 27 28  2  0
 27 29  1  0
 29 30  2  0
 30 31  1  0
 31 32  2  0
 32 33  1  0
 32 34  1  0
 34 35  2  0
 35 36  1  0
 13 37  2  0
  7 38  1  0
 38 39  2  0
 39 40  1  0
 39  4  1  0
 37  9  1  0
 26 17  1  0
 35 29  1  0
  1 41  1  0
  5 42  1  0
  6 43  1  0
 10 44  1  0
 11 45  1  0
 12 46  1  0
 14 47  1  0
 14 48  1  0
 16 49  1  0
 16 50  1  0
 18 51  1  0
 19 52  1  0
 22 53  1  0
 25 54  1  0
 26 55  1  0
 30 56  1  0
 31 57  1  0
 33 58  1  0
 34 59  1  0
 37 60  1  0
 38 61  1  0
M  CHG  3   1  -1  22  -1  36  -1
M  END
>  <UniqueID>  (21) 
21

>  <SMILES>  (21) 
[NH-]C(=O)c1ccc(Oc2cccc(CN(Cc3ccc(S([NH-])(=O)=O)cc3)C(=O)c3ccc(O)cc3[O-])c2)cc1F

>  <Energy>  (21) 
74.35878653961994

>  <Genealogy>  (21) 
[NH-]C(=O)c1ccc(Oc2cccc(CN(Cc3ccc(S([NH-])(=O)=O)cc3)C(=O)c3ccc(O)cc3[O-])c2)cc1F (protonated)
[NH-]C(=O)c1ccc(Oc2cccc(CN(Cc3ccc(S([NH-])(=O)=O)cc3)C(=O)c3ccc(O)cc3[O-])c2)cc1F (3D coordinates assigned)
[NH-]C(=O)c1ccc(Oc2cccc(CN(Cc3ccc(S([NH-])(=O)=O)cc3)C(=O)c3ccc(O)cc3[O-])c2)cc1F (optimized conformer: 74.35878653961994 kcal/mol)

>  <smiles>  (21) 
NC(=O)c1ccc(Oc2cccc(CN(Cc3ccc(S(N)(=O)=O)cc3)C(=O)c3ccc(O)cc3O)c2)cc1F

>  <score_type>  (21) 
oracle

>  <origin>  (21) 
adg

>  <m_score__min__energy>  (21) 
-15.640000000000001

>  <m_primary>  (21) 
energy

$$$$
21:0
     RDKit          3D

 39 41  0  0  0  0  0  0  0  0999 V2000
   62.3260   33.9870   50.8690 C   0  0  0  0  0  0  0  0  0  0  0  0
   62.4760   33.7830   49.4000 C   0  0  0  0  0  0  0  0  0  0  0  0
   61.4720   33.9400   48.5100 N   0  0  0  0  0  0  0  0  0  0  0  0
   61.8690   33.7090   47.2290 C   0  0  0  0  0  0  0  0  0  0  0  0
   60.9190   33.8120   46.0630 C   0  0  0  0  0  0  0  0  0  0  0  0
   59.5300   34.1280   46.4610 N   0  0  0  0  0  0  0  0  0  0  0  0
   58.6340   34.5550   45.3560 C   0  0  0  0  0  0  0  0  0  0  0  0
   57.3350   33.7470   45.2870 C   0  0  0  0  0  0  0  0  0  0  0  0
   57.6280   32.3410   45.5660 N   0  0  0  0  0  0  0  0  0  0  0  0
   57.6300   31.3670   44.4980 C   0  0  0  0  0  0  0  0  0  0  0  0
   57.7210   31.7550   43.3020 O   0  0  0  0  0  0  0  0  0  0  0  0
   57.5610   29.9160   44.7620 C   0  0  0  0  0  0  0  0  0  0  0  0
   58.4140   28.9710   44.2200 C   0  0  0  0  0  0  0  0  0  0  0  0
   57.9960   27.7480   44.7060 C   0  0  0  0  0  0  0  0  0  0  0  0
   56.9010   27.9960   45.5080 C   0  0  0  0  0  0  0  0  0  0  0  0
   56.6360   29.3150   45.5350 N   0  0  0  0  0  0  0  0  0  0  0  0
   58.2000   32.0240   46.8810 C   0  0  0  0  0  0  0  0  0  0  0  0
   58.9390   33.2360   47.4850 C   0  0  0  0  0  0  0  0  0  0  0  0
   63.2240   33.4080   47.0880 C   0  0  0  0  0  0  0  0  0  0  0  0
   63.9180   33.4120   48.6220 S   0  0  0  0  0  0  0  0  0  0  0  0
   62.8945   33.2138   51.4065 H   0  0  0  0  0  0  0  0  0  0  0  0
   62.7100   34.9809   51.1423 H   0  0  0  0  0  0  0  0  0  0  0  0
   61.2628   33.9168   51.1423 H   0  0  0  0  0  0  0  0  0  0  0  0
   60.4980   34.2040   48.7800 H   0  0  0  0  0  0  0  0  0  0  0  0
   61.2777   34.6051   45.3905 H   0  0  0  0  0  0  0  0  0  0  0  0
   60.8996   32.8274   45.5730 H   0  0  0  0  0  0  0  0  0  0  0  0
   58.3791   35.6150   45.5022 H   0  0  0  0  0  0  0  0  0  0  0  0
   59.1745   34.3866   44.4129 H   0  0  0  0  0  0  0  0  0  0  0  0
   56.6235   34.1298   46.0335 H   0  0  0  0  0  0  0  0  0  0  0  0
   56.8942   33.8407   44.2836 H   0  0  0  0  0  0  0  0  0  0  0  0
   59.2569   29.1569   43.5381 H   0  0  0  0  0  0  0  0  0  0  0  0
   58.4478   26.7675   44.4950 H   0  0  0  0  0  0  0  0  0  0  0  0
   56.3279   27.2272   46.0470 H   0  0  0  0  0  0  0  0  0  0  0  0
   55.8350   29.7640   46.0300 H   0  0  0  0  0  0  0  0  0  0  0  0
   57.3885   31.7254   47.5609 H   0  0  0  0  0  0  0  0  0  0  0  0
   58.9254   31.2070   46.7532 H   0  0  0  0  0  0  0  0  0  0  0  0
   58.2240   33.8180   48.0851 H   0  0  0  0  0  0  0  0  0  0  0  0
   59.7667   32.8440   48.0943 H   0  0  0  0  0  0  0  0  0  0  0  0
   63.7466   33.2041   46.1418 H   0  0  0  0  0  0  0  0  0  0  0  0
  1  2  1  0
  2  3  2  0
  3  4  1  0
  4  5  1  0
  5  6  1  0
  6  7  1  0
  7  8  1  0
  8  9  1  0
  9 10  1  0
 10 11  2  0
 10 12  1  0
 12 13  2  0
 13 14  1  0
 14 15  2  0
 15 16  1  0
  9 17  1  0
 17 18  1  0
  4 19  2  0
 19 20  1  0
 20  2  1  0
 18  6  1  0
 16 12  1  0
  1 21  1  0
  1 22  1  0
  1 23  1  0
  3 24  1  0
  5 25  1  0
  5 26  1  0
  7 27  1  0
  7 28  1  0
  8 29  1  0
  8 30  1  0
 13 31  1  0
 14 32  1  0
 15 33  1  0
 16 34  1  0
 17 35  1  0
 17 36  1  0
 18 37  1  0
 18 38  1  0
 19 39  1  0
M  CHG  1   3   1
M  END
>  <UniqueID>  (22) 
22

>  <SMILES>  (22) 
Cc1[nH+]c(CN2CCN(C(=O)c3ccc[nH]3)CC2)cs1

>  <Energy>  (22) 
104.09818779465648

>  <Genealogy>  (22) 
Cc1[nH+]c(CN2CCN(C(=O)c3ccc[nH]3)CC2)cs1 (protonated)
Cc1[nH+]c(CN2CCN(C(=O)c3ccc[nH]3)CC2)cs1 (3D coordinates assigned)
Cc1[nH+]c(CN2CCN(C(=O)c3ccc[nH]3)CC2)cs1 (nonaromatic ring conformer: 104.09818779465648 kcal/mol)

>  <smiles>  (22) 
Cc1nc(CN2CCN(C(=O)c3ccc[nH]3)CC2)cs1

>  <score_type>  (22) 
oracle

>  <origin>  (22) 
adg

>  <m_score__min__energy>  (22) 
-5.7699999999999996

>  <m_primary>  (22) 
energy

$$$$
22:0
     RDKit          3D

 37 38  0  0  0  0  0  0  0  0999 V2000
   61.6784   31.3607   47.6315 H   0  0  0  0  0  0  0  0  0  0  0  0
   60.9980   32.0870   47.1630 C   0  0  0  0  0  0  0  0  0  0  0  0
   59.7300   31.6810   46.7360 C   0  0  0  0  0  0  0  0  0  0  0  0
   59.4238   30.6308   46.8515 H   0  0  0  0  0  0  0  0  0  0  0  0
   58.8480   32.6050   46.1620 C   0  0  0  0  0  0  0  0  0  0  0  0
   57.5750   32.1490   45.6800 N   0  0  0  0  0  0  0  0  0  0  0  0
   57.3470   31.1580   44.8640 C   0  0  0  0  0  0  0  0  0  0  0  0
   57.5510   29.8510   45.3260 C   0  0  0  0  0  0  0  0  0  0  0  0
   57.9019   29.6794   46.3543 H   0  0  0  0  0  0  0  0  0  0  0  0
   57.3080   28.7630   44.4780 C   0  0  0  0  0  0  0  0  0  0  0  0
   57.5730   27.3570   44.9470 C   0  0  0  0  0  0  0  0  0  0  0  0
   58.6549   27.2230   45.0935 H   0  0  0  0  0  0  0  0  0  0  0  0
   57.2012   26.6543   44.1867 H   0  0  0  0  0  0  0  0  0  0  0  0
   56.8510   27.0830   46.2640 C   0  0  0  0  0  0  0  0  0  0  0  0
   56.8684   27.9890   46.8875 H   0  0  0  0  0  0  0  0  0  0  0  0
   57.3556   26.2631   46.7961 H   0  0  0  0  0  0  0  0  0  0  0  0
   55.4660   26.7070   45.9890 N   0  0  0  0  0  0  0  0  0  0  0  0
   55.3120   24.9770   45.9560 S   0  0  0  0  0  0  0  0  0  0  0  0
   55.9020   24.4130   47.2160 O   0  0  0  0  0  0  0  0  0  0  0  0
   53.8600   24.5910   45.8800 O   0  0  0  0  0  0  0  0  0  0  0  0
   56.1820   24.2970   44.5590 C   0  0  0  0  0  0  0  0  0  0  0  0
   57.0022   23.6559   44.9144 H   0  0  0  0  0  0  0  0  0  0  0  0
   55.4875   23.6999   43.9498 H   0  0  0  0  0  0  0  0  0  0  0  0
   56.5937   25.1151   43.9498 H   0  0  0  0  0  0  0  0  0  0  0  0
   56.8720   29.0020   43.1700 C   0  0  0  0  0  0  0  0  0  0  0  0
   56.7030   28.1617   42.4806 H   0  0  0  0  0  0  0  0  0  0  0  0
   56.6530   30.3130   42.7460 C   0  0  0  0  0  0  0  0  0  0  0  0
   56.2934   30.5047   41.7243 H   0  0  0  0  0  0  0  0  0  0  0  0
   56.8820   31.3560   43.5900 N   0  0  0  0  0  0  0  0  0  0  0  0
   56.6580   32.3110   43.2360 H   0  0  0  0  0  0  0  0  0  0  0  0
   59.2690   33.9300   45.9620 C   0  0  0  0  0  0  0  0  0  0  0  0
   58.5991   34.6497   45.4687 H   0  0  0  0  0  0  0  0  0  0  0  0
   60.5370   34.3370   46.3880 C   0  0  0  0  0  0  0  0  0  0  0  0
   60.8553   35.3804   46.2466 H   0  0  0  0  0  0  0  0  0  0  0  0
   61.4030   33.4170   46.9950 C   0  0  0  0  0  0  0  0  0  0  0  0
   62.7090   33.8350   47.4310 C   0  0  0  0  0  0  0  0  0  0  0  0
   63.7590   34.1710   47.7820 N   0  0  0  0  0  0  0  0  0  0  0  0
  1  2  1  0
  2  3  2  0
  3  4  1  0
  3  5  1  0
  5  6  1  0
  6  7  2  0
  7  8  1  0
  8  9  1  0
  8 10  2  0
 10 11  1  0
 11 12  1  0
 11 13  1  0
 11 14  1  0
 14 15  1  0
 14 16  1  0
 14 17  1  0
 17 18  1  0
 18 19  2  0
 18 20  2  0
 18 21  1  0
 21 22  1  0
 21 23  1  0
 21 24  1  0
 10 25  1  0
 25 26  1  0
 25 27  2  0
 27 28  1  0
 27 29  1  0
 29 30  1  0
  5 31  2  0
 31 32  1  0
 31 33  1  0
 33 34  1  0
 33 35  2  0
 35 36  1  0
 36 37  3  0
 35  2  1  0
 29  7  1  0
M  CHG  1  17  -1
M  END
>  <UniqueID>  (23) 
23

>  <SMILES>  (23) 
CS(=O)(=O)[N-]CCc1cc[nH]/c(=N\c2ccc(C#N)cc2)c1

>  <Energy>  (23) 
36.422230089684994

>  <Genealogy>  (23) 
CS(=O)(=O)[N-]CCc1cc[nH]c(=Nc2ccc(C#N)cc2)c1 (protonated)
CS(=O)(=O)[N-]CCc1cc[nH]/c(=N\c2ccc(C#N)cc2)c1 (cis-trans isomerization)
CS(=O)(=O)[N-]CCc1cc[nH]/c(=N\c2ccc(C#N)cc2)c1 (3D coordinates assigned)
CS(=O)(=O)[N-]CCc1cc[nH]/c(=N\c2ccc(C#N)cc2)c1 (optimized conformer: 36.422230089684994 kcal/mol)

>  <smiles>  (23) 
CS(=O)(=O)NCCc1cc[nH]c(=Nc2ccc(C#N)cc2)c1

>  <score_type>  (23) 
oracle

>  <origin>  (23) 
adg

>  <m_score__min__energy>  (23) 
-9.4000000000000004

>  <m_primary>  (23) 
energy

$$$$
23:0
     RDKit          3D

 45 46  0  0  0  0  0  0  0  0999 V2000
   53.8060   26.1770   45.2880 H   0  0  0  0  0  0  0  0  0  0  0  0
   54.6230   25.6510   45.6740 N   0  0  0  0  0  0  0  0  0  0  0  0
   55.7170   26.2370   46.0420 C   0  0  0  0  0  0  0  0  0  0  0  0
   55.9600   27.5120   45.6390 N   0  0  0  0  0  0  0  0  0  0  0  0
   57.0920   28.1770   45.9950 C   0  0  0  0  0  0  0  0  0  0  0  0
   57.2496   29.2101   45.6518 H   0  0  0  0  0  0  0  0  0  0  0  0
   58.0610   27.5530   46.7980 C   0  0  0  0  0  0  0  0  0  0  0  0
   59.2900   28.2830   47.1910 C   0  0  0  0  0  0  0  0  0  0  0  0
   60.4170   27.8120   46.8740 O   0  0  0  0  0  0  0  0  0  0  0  0
   59.2180   29.5060   47.9430 N   0  0  0  0  0  0  0  0  0  0  0  0
   58.3190   29.7470   48.4180 H   0  0  0  0  0  0  0  0  0  0  0  0
   60.3970   30.3550   48.1610 C   0  0  0  0  0  0  0  0  0  0  0  0
   61.0688   29.8365   48.8609 H   0  0  0  0  0  0  0  0  0  0  0  0
   59.9950   31.7100   48.7960 C   0  0  0  0  0  0  0  0  0  0  0  0
   59.0132   32.0037   48.3963 H   0  0  0  0  0  0  0  0  0  0  0  0
   59.9760   31.5623   49.8859 H   0  0  0  0  0  0  0  0  0  0  0  0
   60.9980   32.8480   48.5110 C   0  0  0  0  0  0  0  0  0  0  0  0
   60.6179   33.4581   47.6784 H   0  0  0  0  0  0  0  0  0  0  0  0
   61.1022   33.4504   49.4254 H   0  0  0  0  0  0  0  0  0  0  0  0
   62.3220   32.3270   48.1530 N   0  0  0  0  0  0  0  0  0  0  0  0
   63.4960   33.0210   48.5960 C   0  0  0  0  0  0  0  0  0  0  0  0
   64.0420   33.8500   47.8190 O   0  0  0  0  0  0  0  0  0  0  0  0
   64.0870   32.7810   49.9760 C   0  0  0  0  0  0  0  0  0  0  0  0
   63.6320   31.4250   50.5580 C   0  0  0  0  0  0  0  0  0  0  0  0
   63.6483   31.4736   51.6568 H   0  0  0  0  0  0  0  0  0  0  0  0
   62.6103   31.2034   50.2159 H   0  0  0  0  0  0  0  0  0  0  0  0
   64.3133   30.6320   50.2159 H   0  0  0  0  0  0  0  0  0  0  0  0
   63.6390   33.9110   50.9210 C   0  0  0  0  0  0  0  0  0  0  0  0
   63.7669   33.5884   51.9648 H   0  0  0  0  0  0  0  0  0  0  0  0
   64.2499   34.8070   50.7367 H   0  0  0  0  0  0  0  0  0  0  0  0
   62.5801   34.1450   50.7367 H   0  0  0  0  0  0  0  0  0  0  0  0
   65.6250   32.7790   49.8730 C   0  0  0  0  0  0  0  0  0  0  0  0
   66.0601   32.7784   50.8833 H   0  0  0  0  0  0  0  0  0  0  0  0
   65.9550   31.8804   49.3311 H   0  0  0  0  0  0  0  0  0  0  0  0
   65.9574   33.6767   49.3311 H   0  0  0  0  0  0  0  0  0  0  0  0
   62.4680   31.3110   47.1040 C   0  0  0  0  0  0  0  0  0  0  0  0
   62.7991   31.8004   46.1762 H   0  0  0  0  0  0  0  0  0  0  0  0
   63.2077   30.5703   47.4419 H   0  0  0  0  0  0  0  0  0  0  0  0
   61.1440   30.5820   46.8380 C   0  0  0  0  0  0  0  0  0  0  0  0
   60.5206   31.1913   46.1671 H   0  0  0  0  0  0  0  0  0  0  0  0
   61.3540   29.6093   46.3693 H   0  0  0  0  0  0  0  0  0  0  0  0
   57.8190   26.2390   47.2330 C   0  0  0  0  0  0  0  0  0  0  0  0
   58.5539   25.7295   47.8735 H   0  0  0  0  0  0  0  0  0  0  0  0
   56.6490   25.5780   46.8550 C   0  0  0  0  0  0  0  0  0  0  0  0
   56.4602   24.5482   47.1925 H   0  0  0  0  0  0  0  0  0  0  0  0
  1  2  1  0
  2  3  2  0
  3  4  1  0
  4  5  1  0
  5  6  1  0
  5  7  2  0
  7  8  1  0
  8  9  2  0
  8 10  1  0
 10 11  1  0
 10 12  1  0
 12 13  1  0
 12 14  1  0
 14 15  1  0
 14 16  1  0
 14 17  1  0
 17 18  1  0
 17 19  1  0
 17 20  1  0
 20 21  1  0
 21 22  2  0
 21 23  1  0
 23 24  1  0
 24 25  1  0
 24 26  1  0
 24 27  1  0
 23 28  1  0
 28 29  1  0
 28 30  1  0
 28 31  1  0
 23 32  1  0
 32 33  1  0
 32 34  1  0
 32 35  1  0
 20 36  1  0
 36 37  1  0
 36 38  1  0
 36 39  1  0
 39 40  1  0
 39 41  1  0
  7 42  1  0
 42 43  1  0
 42 44  2  0
 44 45  1  0
 44  3  1  0
 39 12  1  0
M  CHG  1   4  -1
M  END
>  <UniqueID>  (24) 
24

>  <SMILES>  (24) 
[H]/N=c1\ccc(C(=O)NC2CCN(C(=O)C(C)(C)C)CC2)c[n-]1

>  <Energy>  (24) 
48.7227800335689

>  <Genealogy>  (24) 
CC(C)(C)C(=O)N1CCC(NC(=O)c2ccc(=N)[n-]c2)CC1 (protonated)
[H]/N=c1\ccc(C(=O)NC2CCN(C(=O)C(C)(C)C)CC2)c[n-]1 (cis-trans isomerization)
[H]/N=c1\ccc(C(=O)NC2CCN(C(=O)C(C)(C)C)CC2)c[n-]1 (3D coordinates assigned)
[H]/N=c1\ccc(C(=O)NC2CCN(C(=O)C(C)(C)C)CC2)c[n-]1 (nonaromatic ring conformer: 48.7227800335689 kcal/mol)

>  <smiles>  (24) 
CC(C)(C)C(=O)N1CCC(NC(=O)c2ccc(=N)[nH]c2)CC1

>  <score_type>  (24) 
oracle

>  <origin>  (24) 
adg

>  <m_score__min__energy>  (24) 
-8.5999999999999996

>  <m_primary>  (24) 
energy

$$$$
24:0
     RDKit          3D

 50 53  0  0  0  0  0  0  0  0999 V2000
   56.5040   26.2260   45.6470 C   0  0  0  0  0  0  0  0  0  0  0  0
   55.9810   27.5510   45.6280 O   0  0  0  0  0  0  0  0  0  0  0  0
   56.6490   28.6620   45.0870 C   0  0  0  0  0  0  0  0  0  0  0  0
   56.0010   29.5810   44.2370 C   0  0  0  0  0  0  0  0  0  0  0  0
   56.7000   30.6700   43.7120 C   0  0  0  0  0  0  0  0  0  0  0  0
   58.0500   30.8470   44.0170 C   0  0  0  0  0  0  0  0  0  0  0  0
   58.7030   29.9430   44.8570 C   0  0  0  0  0  0  0  0  0  0  0  0
   58.0030   28.8560   45.4130 C   0  0  0  0  0  0  0  0  0  0  0  0
   58.6530   27.8970   46.2610 N   0  0  0  0  0  0  0  0  0  0  0  0
   58.9360   28.0440   47.6590 C   0  0  0  0  0  0  0  0  0  0  0  0
   59.4430   27.0910   48.3100 O   0  0  0  0  0  0  0  0  0  0  0  0
   58.6420   29.2910   48.3020 N   0  0  0  0  0  0  0  0  0  0  0  0
   59.0360   29.6210   49.6450 C   0  0  0  0  0  0  0  0  0  0  0  0
   60.3100   29.2850   50.1350 C   0  0  0  0  0  0  0  0  0  0  0  0
   60.6870   29.6450   51.4310 C   0  0  0  0  0  0  0  0  0  0  0  0
   59.8000   30.3470   52.2520 C   0  0  0  0  0  0  0  0  0  0  0  0
   60.1850   30.7140   53.5040 N   0  0  0  0  0  0  0  0  0  0  0  0
   59.3640   31.4150   54.3280 C   0  0  0  0  0  0  0  0  0  0  0  0
   58.0840   31.7720   53.9050 C   0  0  0  0  0  0  0  0  0  0  0  0
   57.6400   31.3940   52.6350 C   0  0  0  0  0  0  0  0  0  0  0  0
   56.3380   31.7410   52.2510 O   0  0  0  0  0  0  0  0  0  0  0  0
   55.2430   30.8630   52.2770 C   0  0  0  0  0  0  0  0  0  0  0  0
   55.2820   29.6380   52.9660 C   0  0  0  0  0  0  0  0  0  0  0  0
   54.1690   28.8000   52.9340 C   0  0  0  0  0  0  0  0  0  0  0  0
   53.0510   29.1750   52.2600 N   0  0  0  0  0  0  0  0  0  0  0  0
   52.9580   30.3650   51.6060 C   0  0  0  0  0  0  0  0  0  0  0  0
   51.8470   30.6370   50.9800 N   0  0  0  0  0  0  0  0  0  0  0  0
   51.2550   31.9170   50.7130 C   0  0  0  0  0  0  0  0  0  0  0  0
   50.9870   32.3450   49.3790 N   0  0  0  0  0  0  0  0  0  0  0  0
   51.0590   32.7130   51.6680 O   0  0  0  0  0  0  0  0  0  0  0  0
   54.0760   31.2280   51.5980 C   0  0  0  0  0  0  0  0  0  0  0  0
   58.5140   30.6920   51.7750 C   0  0  0  0  0  0  0  0  0  0  0  0
   58.1550   30.3470   50.4600 C   0  0  0  0  0  0  0  0  0  0  0  0
   56.6335   25.8978   46.6889 H   0  0  0  0  0  0  0  0  0  0  0  0
   55.8057   25.5488   45.1334 H   0  0  0  0  0  0  0  0  0  0  0  0
   57.4766   26.2083   45.1334 H   0  0  0  0  0  0  0  0  0  0  0  0
   54.9394   29.4396   43.9860 H   0  0  0  0  0  0  0  0  0  0  0  0
   56.1858   31.3890   43.0573 H   0  0  0  0  0  0  0  0  0  0  0  0
   58.6009   31.7004   43.5948 H   0  0  0  0  0  0  0  0  0  0  0  0
   59.7701   30.0811   45.0854 H   0  0  0  0  0  0  0  0  0  0  0  0
   58.0160   29.9560   47.7940 H   0  0  0  0  0  0  0  0  0  0  0  0
   61.0146   28.7351   49.4938 H   0  0  0  0  0  0  0  0  0  0  0  0
   61.6851   29.3752   51.8066 H   0  0  0  0  0  0  0  0  0  0  0  0
   59.7097   31.7020   55.3320 H   0  0  0  0  0  0  0  0  0  0  0  0
   57.4251   32.3500   54.5697 H   0  0  0  0  0  0  0  0  0  0  0  0
   56.1825   29.3439   53.5250 H   0  0  0  0  0  0  0  0  0  0  0  0
   54.1960   27.8321   53.4560 H   0  0  0  0  0  0  0  0  0  0  0  0
   51.7420   32.7600   48.7860 H   0  0  0  0  0  0  0  0  0  0  0  0
   54.0290   32.1856   51.0587 H   0  0  0  0  0  0  0  0  0  0  0  0
   57.1734   30.6495   50.0664 H   0  0  0  0  0  0  0  0  0  0  0  0
  1  2  1  0
  2  3  1  0
  3  4  2  0
  4  5  1  0
  5  6  2  0
  6  7  1  0
  7  8  2  0
  8  9  1  0
  9 10  1  0
 10 11  2  0
 10 12  1  0
 12 13  1  0
 13 14  2  0
 14 15  1  0
 15 16  2  0
 16 17  1  0
 17 18  2  0
 18 19  1  0
 19 20  2  0
 20 21  1  0
 21 22  1  0
 22 23  1  0
 23 24  2  0
 24 25  1  0
 25 26  1  0
 26 27  2  3
 27 28  1  0
 28 29  1  0
 28 30  2  0
 26 31  1  0
 20 32  1  0
 32 33  2  0
  8  3  1  0
 33 13  1  0
 32 16  1  0
 31 22  2  0
  1 34  1  0
  1 35  1  0
  1 36  1  0
  4 37  1  0
  5 38  1  0
  6 39  1  0
  7 40  1  0
 12 41  1  0
 14 42  1  0
 15 43  1  0
 18 44  1  0
 19 45  1  0
 23 46  1  0
 24 47  1  0
 29 48  1  0
 31 49  1  0
 33 50  1  0
M  CHG  3   9  -1  25  -1  29  -1
M  END
>  <UniqueID>  (25) 
25

>  <SMILES>  (25) 
COc1ccccc1[N-]C(=O)Nc1ccc2nccc(Oc3cc[n-]c(=NC([NH-])=O)c3)c2c1

>  <Energy>  (25) 
81.3713085564975

>  <Genealogy>  (25) 
COc1ccccc1[N-]C(=O)Nc1ccc2nccc(Oc3cc[n-]c(=NC([NH-])=O)c3)c2c1 (protonated)
COc1ccccc1[N-]C(=O)Nc1ccc2nccc(Oc3cc[n-]c(=NC([NH-])=O)c3)c2c1 (3D coordinates assigned)
COc1ccccc1[N-]C(=O)Nc1ccc2nccc(Oc3cc[n-]c(=NC([NH-])=O)c3)c2c1 (optimized conformer: 81.3713085564975 kcal/mol)

>  <smiles>  (25) 
COc1ccccc1NC(=O)Nc1ccc2nccc(Oc3cc[nH]c(=NC(N)=O)c3)c2c1

>  <score_type>  (25) 
oracle

>  <origin>  (25) 
adg

>  <m_score__min__energy>  (25) 
-13.380000000000001

>  <m_primary>  (25) 
energy

$$$$
25:0
     RDKit          3D

 45 47  0  0  0  0  0  0  0  0999 V2000
   58.9578   29.9272   49.1693 H   0  0  0  0  0  0  0  0  0  0  0  0
   58.9030   30.7670   48.4610 C   0  0  0  0  0  0  0  0  0  0  0  0
   58.8430   31.6870   47.6850 C   0  0  0  0  0  0  0  0  0  0  0  0
   58.7650   32.7840   46.7530 C   0  0  0  0  0  0  0  0  0  0  0  0
   59.6320   33.8740   46.9050 C   0  0  0  0  0  0  0  0  0  0  0  0
   60.3412   33.8980   47.7455 H   0  0  0  0  0  0  0  0  0  0  0  0
   59.5980   34.9300   45.9920 C   0  0  0  0  0  0  0  0  0  0  0  0
   60.2810   35.7838   46.1128 H   0  0  0  0  0  0  0  0  0  0  0  0
   58.6980   34.9020   44.9270 C   0  0  0  0  0  0  0  0  0  0  0  0
   58.6714   35.7363   44.2105 H   0  0  0  0  0  0  0  0  0  0  0  0
   57.8300   33.8190   44.7660 C   0  0  0  0  0  0  0  0  0  0  0  0
   57.1199   33.8067   43.9260 H   0  0  0  0  0  0  0  0  0  0  0  0
   57.8600   32.7420   45.6750 C   0  0  0  0  0  0  0  0  0  0  0  0
   57.0340   31.6100   45.5390 O   0  0  0  0  0  0  0  0  0  0  0  0
   57.3170   30.4410   44.7660 C   0  0  0  0  0  0  0  0  0  0  0  0
   57.1684   29.5529   45.3978 H   0  0  0  0  0  0  0  0  0  0  0  0
   56.6370   30.4324   43.9014 H   0  0  0  0  0  0  0  0  0  0  0  0
   58.7560   30.4370   44.2370 C   0  0  0  0  0  0  0  0  0  0  0  0
   58.7702   30.9085   43.2433 H   0  0  0  0  0  0  0  0  0  0  0  0
   59.3816   30.9932   44.9507 H   0  0  0  0  0  0  0  0  0  0  0  0
   59.2830   29.1130   44.1270 O   0  0  0  0  0  0  0  0  0  0  0  0
   59.3370   28.1550   45.1540 C   0  0  0  0  0  0  0  0  0  0  0  0
   60.0820   28.4600   46.2980 C   0  0  0  0  0  0  0  0  0  0  0  0
   60.6299   29.4122   46.3532 H   0  0  0  0  0  0  0  0  0  0  0  0
   60.1370   27.5680   47.3700 C   0  0  0  0  0  0  0  0  0  0  0  0
   60.7188   27.8235   48.2679 H   0  0  0  0  0  0  0  0  0  0  0  0
   59.4540   26.3510   47.3040 C   0  0  0  0  0  0  0  0  0  0  0  0
   59.4864   25.6588   48.1583 H   0  0  0  0  0  0  0  0  0  0  0  0
   58.7280   26.0070   46.1560 C   0  0  0  0  0  0  0  0  0  0  0  0
   57.9760   24.7300   46.1410 C   0  0  0  0  0  0  0  0  0  0  0  0
   57.9939   24.1249   47.0595 H   0  0  0  0  0  0  0  0  0  0  0  0
   57.2740   24.2480   45.1010 C   0  0  0  0  0  0  0  0  0  0  0  0
   57.8386   23.9127   44.2185 H   0  0  0  0  0  0  0  0  0  0  0  0
   55.7980   24.1340   45.0530 C   0  0  0  0  0  0  0  0  0  0  0  0
   54.9600   25.0780   45.6730 C   0  0  0  0  0  0  0  0  0  0  0  0
   55.4980   26.1770   46.3380 O   0  0  0  0  0  0  0  0  0  0  0  0
   55.1660   26.4440   47.2570 H   0  0  0  0  0  0  0  0  0  0  0  0
   53.6110   24.9280   45.6120 N   0  0  0  0  0  0  0  0  0  0  0  0
   53.0490   23.8870   44.9450 C   0  0  0  0  0  0  0  0  0  0  0  0
   51.7980   23.7670   44.9070 O   0  0  0  0  0  0  0  0  0  0  0  0
   53.8370   22.9810   44.3120 N   0  0  0  0  0  0  0  0  0  0  0  0
   55.1910   23.0850   44.3440 C   0  0  0  0  0  0  0  0  0  0  0  0
   55.8900   22.2230   43.7460 O   0  0  0  0  0  0  0  0  0  0  0  0
   58.6590   26.9210   45.0890 C   0  0  0  0  0  0  0  0  0  0  0  0
   58.0698   26.6701   44.1946 H   0  0  0  0  0  0  0  0  0  0  0  0
  1  2  1  0
  2  3  3  0
  3  4  1  0
  4  5  2  0
  5  6  1  0
  5  7  1  0
  7  8  1  0
  7  9  2  0
  9 10  1  0
  9 11  1  0
 11 12  1  0
 11 13  2  0
 13 14  1  0
 14 15  1  0
 15 16  1  0
 15 17  1  0
 15 18  1  0
 18 19  1  0
 18 20  1  0
 18 21  1  0
 21 22  1  0
 22 23  2  0
 23 24  1  0
 23 25  1  0
 25 26  1  0
 25 27  2  0
 27 28  1  0
 27 29  1  0
 29 30  1  0
 30 31  1  0
 30 32  2  0
 32 33  1  0
 32 34  1  0
 34 35  2  0
 35 36  1  0
 36 37  1  0
 35 38  1  0
 38 39  1  0
 39 40  2  0
 39 41  1  0
 41 42  1  0
 42 43  2  0
 29 44  2  0
 44 45  1  0
 13  4  1  0
 44 22  1  0
 42 34  1  0
M  CHG  2  38  -1  41  -1
M  END
>  <UniqueID>  (26) 
26

>  <SMILES>  (26) 
C#Cc1ccccc1OCCOc1cccc(/C=C\c2c(O)[n-]c(=O)[n-]c2=O)c1

>  <Energy>  (26) 
54.902727861102235

>  <Genealogy>  (26) 
C#Cc1ccccc1OCCOc1cccc(C=Cc2c(O)[n-]c(=O)[n-]c2=O)c1 (protonated)
C#Cc1ccccc1OCCOc1cccc(/C=C\c2c(O)[n-]c(=O)[n-]c2=O)c1 (cis-trans isomerization)
C#Cc1ccccc1OCCOc1cccc(/C=C\c2c(O)[n-]c(=O)[n-]c2=O)c1 (3D coordinates assigned)
C#Cc1ccccc1OCCOc1cccc(/C=C\c2c(O)[n-]c(=O)[n-]c2=O)c1 (optimized conformer: 54.902727861102235 kcal/mol)

>  <smiles>  (26) 
C#Cc1ccccc1OCCOc1cccc(C=Cc2c(O)[nH]c(=O)[nH]c2=O)c1

>  <score_type>  (26) 
oracle

>  <origin>  (26) 
adg

>  <m_score__min__energy>  (26) 
-12.68

>  <m_primary>  (26) 
energy

$$$$
26:0
     RDKit          3D

 52 55  0  0  0  0  0  0  0  0999 V2000
   56.7250   34.0210   44.7890 O   0  0  0  0  0  0  0  0  0  0  0  0
   57.2530   32.9740   45.2510 C   0  0  0  0  0  0  0  0  0  0  0  0
   56.6420   31.7100   44.9590 N   0  0  0  0  0  0  0  0  0  0  0  0
   57.2170   30.5420   44.8700 C   0  0  0  0  0  0  0  0  0  0  0  0
   58.5670   30.5120   44.6910 N   0  0  0  0  0  0  0  0  0  0  0  0
   59.2660   29.3530   44.5750 C   0  0  0  0  0  0  0  0  0  0  0  0
   58.6030   28.1300   44.6370 C   0  0  0  0  0  0  0  0  0  0  0  0
   57.2230   28.1120   44.8380 C   0  0  0  0  0  0  0  0  0  0  0  0
   56.5160   29.3110   44.9680 C   0  0  0  0  0  0  0  0  0  0  0  0
   55.1510   29.2500   45.2220 O   0  0  0  0  0  0  0  0  0  0  0  0
   58.4330   33.0730   46.1470 C   0  0  0  0  0  0  0  0  0  0  0  0
   59.3340   34.1480   46.0360 C   0  0  0  0  0  0  0  0  0  0  0  0
   60.4400   34.2330   46.8840 C   0  0  0  0  0  0  0  0  0  0  0  0
   60.6640   33.2490   47.8480 C   0  0  0  0  0  0  0  0  0  0  0  0
   59.7830   32.1670   47.9670 C   0  0  0  0  0  0  0  0  0  0  0  0
   60.0700   30.9130   49.1770 S   0  0  0  0  0  0  0  0  0  0  0  0
   61.2370   31.3170   50.0360 O   0  0  0  0  0  0  0  0  0  0  0  0
   60.4250   29.6260   48.4840 O   0  0  0  0  0  0  0  0  0  0  0  0
   58.6660   30.6630   50.1850 N   0  0  0  0  0  0  0  0  0  0  0  0
   59.0260   29.8840   51.3850 C   0  0  0  0  0  0  0  0  0  0  0  0
   57.7550   29.4550   52.1330 C   0  0  0  0  0  0  0  0  0  0  0  0
   56.7300   30.5030   52.0560 N   0  0  0  0  0  0  0  0  0  0  0  0
   55.3480   30.1840   52.3150 C   0  0  0  0  0  0  0  0  0  0  0  0
   55.0120   29.1320   53.1840 C   0  0  0  0  0  0  0  0  0  0  0  0
   53.6720   28.8300   53.4460 C   0  0  0  0  0  0  0  0  0  0  0  0
   52.6560   29.5800   52.8490 C   0  0  0  0  0  0  0  0  0  0  0  0
   52.9770   30.6350   51.9900 C   0  0  0  0  0  0  0  0  0  0  0  0
   51.7000   31.5770   51.2430 Cl  0  0  0  0  0  0  0  0  0  0  0  0
   54.3170   30.9400   51.7270 C   0  0  0  0  0  0  0  0  0  0  0  0
   57.1470   31.8850   51.7920 C   0  0  0  0  0  0  0  0  0  0  0  0
   58.0420   31.9620   50.5360 C   0  0  0  0  0  0  0  0  0  0  0  0
   58.6700   32.0840   47.1180 C   0  0  0  0  0  0  0  0  0  0  0  0
   60.3563   29.3806   44.4320 H   0  0  0  0  0  0  0  0  0  0  0  0
   59.1615   27.1886   44.5286 H   0  0  0  0  0  0  0  0  0  0  0  0
   56.6894   27.1517   44.8944 H   0  0  0  0  0  0  0  0  0  0  0  0
   59.1661   34.9260   45.2767 H   0  0  0  0  0  0  0  0  0  0  0  0
   61.1374   35.0787   46.7919 H   0  0  0  0  0  0  0  0  0  0  0  0
   61.5348   33.3235   48.5160 H   0  0  0  0  0  0  0  0  0  0  0  0
   57.9840   30.1060   49.6170 H   0  0  0  0  0  0  0  0  0  0  0  0
   59.5905   28.9895   51.0829 H   0  0  0  0  0  0  0  0  0  0  0  0
   59.6428   30.5075   52.0489 H   0  0  0  0  0  0  0  0  0  0  0  0
   57.3632   28.5324   51.6798 H   0  0  0  0  0  0  0  0  0  0  0  0
   58.0071   29.2833   53.1899 H   0  0  0  0  0  0  0  0  0  0  0  0
   55.8084   28.5421   53.6613 H   0  0  0  0  0  0  0  0  0  0  0  0
   53.4178   28.0010   54.1229 H   0  0  0  0  0  0  0  0  0  0  0  0
   51.6024   29.3402   53.0550 H   0  0  0  0  0  0  0  0  0  0  0  0
   54.5660   31.7758   51.0566 H   0  0  0  0  0  0  0  0  0  0  0  0
   56.2532   32.5069   51.6356 H   0  0  0  0  0  0  0  0  0  0  0  0
   57.7229   32.2486   52.6558 H   0  0  0  0  0  0  0  0  0  0  0  0
   57.4264   32.2952   49.6875 H   0  0  0  0  0  0  0  0  0  0  0  0
   58.8563   32.6678   50.7566 H   0  0  0  0  0  0  0  0  0  0  0  0
   57.9752   31.2365   47.2126 H   0  0  0  0  0  0  0  0  0  0  0  0
  1  2  2  0
  2  3  1  0
  3  4  2  3
  4  5  1  0
  5  6  1  0
  6  7  2  0
  7  8  1  0
  8  9  2  0
  9 10  1  0
  2 11  1  0
 11 12  2  0
 12 13  1  0
 13 14  2  0
 14 15  1  0
 15 16  1  0
 16 17  2  0
 16 18  2  0
 16 19  1  0
 19 20  1  0
 20 21  1  0
 21 22  1  0
 22 23  1  0
 23 24  2  0
 24 25  1  0
 25 26  2  0
 26 27  1  0
 27 28  1  0
 27 29  2  0
 22 30  1  0
 30 31  1  0
 15 32  2  0
  9  4  1  0
 32 11  1  0
 31 19  1  0
 29 23  1  0
  6 33  1  0
  7 34  1  0
  8 35  1  0
 12 36  1  0
 13 37  1  0
 14 38  1  0
 19 39  1  0
 20 40  1  0
 20 41  1  0
 21 42  1  0
 21 43  1  0
 24 44  1  0
 25 45  1  0
 26 46  1  0
 29 47  1  0
 30 48  1  0
 30 49  1  0
 31 50  1  0
 31 51  1  0
 32 52  1  0
M  CHG  3   5  -1  10  -1  19   1
M  END
>  <UniqueID>  (27) 
27

>  <SMILES>  (27) 
O=C(N=c1[n-]cccc1[O-])c1cccc(S(=O)(=O)[NH+]2CCN(c3cccc(Cl)c3)CC2)c1

>  <Energy>  (27) 
78.22199420060679

>  <Genealogy>  (27) 
O=C(N=c1[n-]cccc1[O-])c1cccc(S(=O)(=O)[NH+]2CCN(c3cccc(Cl)c3)CC2)c1 (protonated)
O=C(N=c1[n-]cccc1[O-])c1cccc(S(=O)(=O)[NH+]2CCN(c3cccc(Cl)c3)CC2)c1 (3D coordinates assigned)
O=C(N=c1[n-]cccc1[O-])c1cccc(S(=O)(=O)[NH+]2CCN(c3cccc(Cl)c3)CC2)c1 (nonaromatic ring conformer: 78.22199420060679 kcal/mol)

>  <smiles>  (27) 
O=C(N=c1[nH]cccc1O)c1cccc(S(=O)(=O)N2CCN(c3cccc(Cl)c3)CC2)c1

>  <score_type>  (27) 
oracle

>  <origin>  (27) 
adg

>  <m_score__min__energy>  (27) 
-14.83

>  <m_primary>  (27) 
energy

$$$$
27:0
     RDKit          3D

 33 34  0  0  0  0  0  0  0  0999 V2000
   62.9200   31.6270   47.5250 C   0  0  0  0  0  0  0  0  0  0  0  0
   62.4980   33.3570   47.4390 S   0  0  0  0  0  0  0  0  0  0  0  0
   62.8160   33.8580   46.0590 O   0  0  0  0  0  0  0  0  0  0  0  0
   63.3140   34.1170   48.4460 O   0  0  0  0  0  0  0  0  0  0  0  0
   60.8090   33.6010   47.7520 N   0  0  0  0  0  0  0  0  0  0  0  0
   59.8170   33.4860   46.7310 C   0  0  0  0  0  0  0  0  0  0  0  0
   59.2530   34.6530   46.2050 C   0  0  0  0  0  0  0  0  0  0  0  0
   58.3450   34.5840   45.1480 C   0  0  0  0  0  0  0  0  0  0  0  0
   57.9960   33.3470   44.6040 C   0  0  0  0  0  0  0  0  0  0  0  0
   58.5310   32.1620   45.1350 C   0  0  0  0  0  0  0  0  0  0  0  0
   58.1760   30.8320   44.5180 C   0  0  0  0  0  0  0  0  0  0  0  0
   57.6740   29.9210   45.5410 N   0  0  0  0  0  0  0  0  0  0  0  0
   58.1910   28.6030   45.7480 C   0  0  0  0  0  0  0  0  0  0  0  0
   59.4360   28.4090   45.8050 O   0  0  0  0  0  0  0  0  0  0  0  0
   57.2640   27.4770   45.9100 C   0  0  0  0  0  0  0  0  0  0  0  0
   57.6040   26.2180   46.3720 C   0  0  0  0  0  0  0  0  0  0  0  0
   56.4380   25.4850   46.3830 C   0  0  0  0  0  0  0  0  0  0  0  0
   55.4580   26.3400   45.9300 C   0  0  0  0  0  0  0  0  0  0  0  0
   54.1190   26.0000   45.7870 O   0  0  0  0  0  0  0  0  0  0  0  0
   55.9450   27.5600   45.6370 N   0  0  0  0  0  0  0  0  0  0  0  0
   59.4200   32.2290   46.2280 C   0  0  0  0  0  0  0  0  0  0  0  0
   59.8840   31.0420   46.8010 O   0  0  0  0  0  0  0  0  0  0  0  0
   62.9949   31.3198   48.5786 H   0  0  0  0  0  0  0  0  0  0  0  0
   62.1402   31.0340   47.0247 H   0  0  0  0  0  0  0  0  0  0  0  0
   63.8853   31.4597   47.0247 H   0  0  0  0  0  0  0  0  0  0  0  0
   59.5270   35.6310   46.6273 H   0  0  0  0  0  0  0  0  0  0  0  0
   57.9033   35.5063   44.7426 H   0  0  0  0  0  0  0  0  0  0  0  0
   57.2983   33.3000   43.7549 H   0  0  0  0  0  0  0  0  0  0  0  0
   57.4005   30.9818   43.7524 H   0  0  0  0  0  0  0  0  0  0  0  0
   59.0763   30.3967   44.0597 H   0  0  0  0  0  0  0  0  0  0  0  0
   58.6046   25.8719   46.6706 H   0  0  0  0  0  0  0  0  0  0  0  0
   56.3152   24.4358   46.6896 H   0  0  0  0  0  0  0  0  0  0  0  0
   59.5930   30.1300   46.4750 H   0  0  0  0  0  0  0  0  0  0  0  0
  1  2  1  0
  2  3  2  0
  2  4  2  0
  2  5  1  0
  5  6  1  0
  6  7  2  0
  7  8  1  0
  8  9  2  0
  9 10  1  0
 10 11  1  0
 11 12  1  0
 12 13  1  0
 13 14  2  0
 13 15  1  0
 15 16  2  0
 16 17  1  0
 17 18  2  0
 18 19  1  0
 18 20  1  0
 10 21  2  0
 21 22  1  0
 21  6  1  0
 20 15  1  0
  1 23  1  0
  1 24  1  0
  1 25  1  0
  7 26  1  0
  8 27  1  0
  9 28  1  0
 11 29  1  0
 11 30  1  0
 16 31  1  0
 17 32  1  0
 22 33  1  0
M  CHG  4   5  -1  12  -1  19  -1  20  -1
M  END
>  <UniqueID>  (28) 
28

>  <SMILES>  (28) 
CS(=O)(=O)[N-]c1cccc(C[N-]C(=O)c2ccc([O-])[n-]2)c1O

>  <Energy>  (28) 
60.38563804738512

>  <Genealogy>  (28) 
CS(=O)(=O)[N-]c1cccc(C[N-]C(=O)c2ccc([O-])[n-]2)c1O (protonated)
CS(=O)(=O)[N-]c1cccc(C[N-]C(=O)c2ccc([O-])[n-]2)c1O (3D coordinates assigned)
CS(=O)(=O)[N-]c1cccc(C[N-]C(=O)c2ccc([O-])[n-]2)c1O (optimized conformer: 60.38563804738512 kcal/mol)

>  <smiles>  (28) 
CS(=O)(=O)Nc1cccc(CNC(=O)c2ccc(O)[nH]2)c1O

>  <score_type>  (28) 
oracle

>  <origin>  (28) 
adg

>  <m_score__min__energy>  (28) 
-14.220000000000001

>  <m_primary>  (28) 
energy

$$$$
28:0
     RDKit          3D

 37 38  0  0  0  0  0  0  0  0999 V2000
   55.1500   29.3370   44.8660 O   0  0  0  0  0  0  0  0  0  0  0  0
   56.3990   29.4970   44.8030 C   0  0  0  0  0  0  0  0  0  0  0  0
   57.2990   28.3060   44.8580 C   0  0  0  0  0  0  0  0  0  0  0  0
   56.9070   27.4380   45.9590 N   0  0  0  0  0  0  0  0  0  0  0  0
   57.6120   27.3750   46.9870 O   0  0  0  0  0  0  0  0  0  0  0  0
   55.6590   26.8580   45.9600 O   0  0  0  0  0  0  0  0  0  0  0  0
   56.9710   30.8110   44.7850 N   0  0  0  0  0  0  0  0  0  0  0  0
   57.8930   31.3550   45.7400 C   0  0  0  0  0  0  0  0  0  0  0  0
   58.1470   32.7330   45.7190 C   0  0  0  0  0  0  0  0  0  0  0  0
   59.0230   33.3060   46.6440 C   0  0  0  0  0  0  0  0  0  0  0  0
   59.6470   32.5090   47.6110 C   0  0  0  0  0  0  0  0  0  0  0  0
   60.7280   33.2480   48.7910 S   0  0  0  0  0  0  0  0  0  0  0  0
   59.9450   33.5140   50.0470 O   0  0  0  0  0  0  0  0  0  0  0  0
   61.2310   34.5640   48.2640 O   0  0  0  0  0  0  0  0  0  0  0  0
   62.0660   32.1750   49.1570 N   0  0  0  0  0  0  0  0  0  0  0  0
   63.0900   32.8460   49.9950 C   0  0  0  0  0  0  0  0  0  0  0  0
   64.2790   33.3760   49.1720 C   0  0  0  0  0  0  0  0  0  0  0  0
   63.8540   33.7620   47.8850 O   0  0  0  0  0  0  0  0  0  0  0  0
   63.4770   32.6220   47.1290 C   0  0  0  0  0  0  0  0  0  0  0  0
   62.6520   31.5900   47.9340 C   0  0  0  0  0  0  0  0  0  0  0  0
   59.3730   31.1350   47.6570 C   0  0  0  0  0  0  0  0  0  0  0  0
   58.4980   30.5610   46.7310 C   0  0  0  0  0  0  0  0  0  0  0  0
   57.2261   27.7500   43.9117 H   0  0  0  0  0  0  0  0  0  0  0  0
   58.3348   28.6422   45.0135 H   0  0  0  0  0  0  0  0  0  0  0  0
   57.6530   33.3680   44.9688 H   0  0  0  0  0  0  0  0  0  0  0  0
   59.2232   34.3872   46.6124 H   0  0  0  0  0  0  0  0  0  0  0  0
   61.6570   31.3890   49.7160 H   0  0  0  0  0  0  0  0  0  0  0  0
   62.6184   33.6919   50.5166 H   0  0  0  0  0  0  0  0  0  0  0  0
   63.4820   32.0993   50.7013 H   0  0  0  0  0  0  0  0  0  0  0  0
   64.7158   34.2454   49.6851 H   0  0  0  0  0  0  0  0  0  0  0  0
   65.0292   32.5774   49.0748 H   0  0  0  0  0  0  0  0  0  0  0  0
   62.8741   32.9569   46.2721 H   0  0  0  0  0  0  0  0  0  0  0  0
   64.4050   32.1204   46.8172 H   0  0  0  0  0  0  0  0  0  0  0  0
   61.8384   31.2127   47.2970 H   0  0  0  0  0  0  0  0  0  0  0  0
   63.3306   30.7798   48.2392 H   0  0  0  0  0  0  0  0  0  0  0  0
   59.8484   30.5066   48.4246 H   0  0  0  0  0  0  0  0  0  0  0  0
   58.2814   29.4835   46.7772 H   0  0  0  0  0  0  0  0  0  0  0  0
  1  2  2  0
  2  3  1  0
  3  4  1  0
  4  5  2  0
  4  6  1  0
  2  7  1  0
  7  8  1  0
  8  9  2  0
  9 10  1  0
 10 11  2  0
 11 12  1  0
 12 13  2  0
 12 14  2  0
 12 15  1  0
 15 16  1  0
 16 17  1  0
 17 18  1  0
 18 19  1  0
 19 20  1  0
 11 21  1  0
 21 22  2  0
 22  8  1  0
 20 15  1  0
  3 23  1  0
  3 24  1  0
  9 25  1  0
 10 26  1  0
 15 27  1  0
 16 28  1  0
 16 29  1  0
 17 30  1  0
 17 31  1  0
 19 32  1  0
 19 33  1  0
 20 34  1  0
 20 35  1  0
 21 36  1  0
 22 37  1  0
M  CHG  4   4   1   6  -1   7  -1  15   1
M  END
>  <UniqueID>  (29) 
29

>  <SMILES>  (29) 
O=C(C[N+](=O)[O-])[N-]c1ccc(S(=O)(=O)[NH+]2CCOCC2)cc1

>  <Energy>  (29) 
47.41716147248383

>  <Genealogy>  (29) 
O=C(C[N+](=O)[O-])[N-]c1ccc(S(=O)(=O)[NH+]2CCOCC2)cc1 (protonated)
O=C(C[N+](=O)[O-])[N-]c1ccc(S(=O)(=O)[NH+]2CCOCC2)cc1 (3D coordinates assigned)
O=C(C[N+](=O)[O-])[N-]c1ccc(S(=O)(=O)[NH+]2CCOCC2)cc1 (nonaromatic ring conformer: 47.41716147248383 kcal/mol)

>  <smiles>  (29) 
O=C(C[N+](=O)[O-])Nc1ccc(S(=O)(=O)N2CCOCC2)cc1

>  <score_type>  (29) 
oracle

>  <origin>  (29) 
adg

>  <m_score__min__energy>  (29) 
-7.5300000000000002

>  <m_primary>  (29) 
energy

$$$$
29:0
     RDKit          3D

 58 61  0  0  0  0  0  0  0  0999 V2000
   60.0180   22.2570   44.9220 C   0  0  0  0  0  0  0  0  0  0  0  0
   58.8730   22.8910   45.4810 O   0  0  0  0  0  0  0  0  0  0  0  0
   57.6410   23.0380   44.8220 C   0  0  0  0  0  0  0  0  0  0  0  0
   57.3940   22.4470   43.5670 C   0  0  0  0  0  0  0  0  0  0  0  0
   56.1570   22.6190   42.9380 C   0  0  0  0  0  0  0  0  0  0  0  0
   55.1590   23.3820   43.5480 C   0  0  0  0  0  0  0  0  0  0  0  0
   55.3910   23.9750   44.7910 C   0  0  0  0  0  0  0  0  0  0  0  0
   56.6260   23.8020   45.4400 C   0  0  0  0  0  0  0  0  0  0  0  0
   56.8680   24.4390   46.7810 C   0  0  0  0  0  0  0  0  0  0  0  0
   57.3480   25.8040   46.5880 N   0  0  0  0  0  0  0  0  0  0  0  0
   56.5320   26.8870   46.1190 C   0  0  0  0  0  0  0  0  0  0  0  0
   55.2990   26.6930   45.9530 O   0  0  0  0  0  0  0  0  0  0  0  0
   57.1070   28.2000   45.7710 C   0  0  0  0  0  0  0  0  0  0  0  0
   56.4210   29.0780   44.9180 C   0  0  0  0  0  0  0  0  0  0  0  0
   56.9660   30.3280   44.6070 C   0  0  0  0  0  0  0  0  0  0  0  0
   58.2010   30.7160   45.1470 C   0  0  0  0  0  0  0  0  0  0  0  0
   58.8070   32.0430   44.7770 C   0  0  0  0  0  0  0  0  0  0  0  0
   58.0500   33.3640   45.7070 S   0  0  0  0  0  0  0  0  0  0  0  0
   56.6020   33.0310   45.9430 O   0  0  0  0  0  0  0  0  0  0  0  0
   58.1340   34.6510   44.9380 O   0  0  0  0  0  0  0  0  0  0  0  0
   58.8590   33.5580   47.2480 C   0  0  0  0  0  0  0  0  0  0  0  0
   59.6550   34.6050   47.5490 N   0  0  0  0  0  0  0  0  0  0  0  0
   60.0240   34.3550   48.8220 C   0  0  0  0  0  0  0  0  0  0  0  0
   59.4410   33.1790   49.2310 C   0  0  0  0  0  0  0  0  0  0  0  0
   59.5320   32.5540   50.5860 C   0  0  0  0  0  0  0  0  0  0  0  0
   58.3920   31.6660   50.8090 N   0  0  0  0  0  0  0  0  0  0  0  0
   57.3010   32.0280   51.6730 C   0  0  0  0  0  0  0  0  0  0  0  0
   57.2110   33.2100   52.1040 O   0  0  0  0  0  0  0  0  0  0  0  0
   56.2730   31.0430   52.0650 C   0  0  0  0  0  0  0  0  0  0  0  0
   54.8920   31.1920   51.9810 C   0  0  0  0  0  0  0  0  0  0  0  0
   54.1830   30.0700   52.4340 C   0  0  0  0  0  0  0  0  0  0  0  0
   54.9960   29.0320   52.8730 C   0  0  0  0  0  0  0  0  0  0  0  0
   56.5980   29.5130   52.6920 S   0  0  0  0  0  0  0  0  0  0  0  0
   58.7290   32.7110   48.2390 O   0  0  0  0  0  0  0  0  0  0  0  0
   58.8950   29.8290   45.9850 C   0  0  0  0  0  0  0  0  0  0  0  0
   58.3570   28.5750   46.2840 C   0  0  0  0  0  0  0  0  0  0  0  0
   60.6694   21.8963   45.7317 H   0  0  0  0  0  0  0  0  0  0  0  0
   59.6997   21.4066   44.3011 H   0  0  0  0  0  0  0  0  0  0  0  0
   60.5699   22.9781   44.3011 H   0  0  0  0  0  0  0  0  0  0  0  0
   58.1775   21.8478   43.0800 H   0  0  0  0  0  0  0  0  0  0  0  0
   55.9695   22.1520   41.9599 H   0  0  0  0  0  0  0  0  0  0  0  0
   54.1882   23.5162   43.0485 H   0  0  0  0  0  0  0  0  0  0  0  0
   54.6038   24.5802   45.2644 H   0  0  0  0  0  0  0  0  0  0  0  0
   55.9290   24.4574   47.3537 H   0  0  0  0  0  0  0  0  0  0  0  0
   57.6214   23.8585   47.3337 H   0  0  0  0  0  0  0  0  0  0  0  0
   55.4509   28.7820   44.4923 H   0  0  0  0  0  0  0  0  0  0  0  0
   56.4235   31.0100   43.9357 H   0  0  0  0  0  0  0  0  0  0  0  0
   59.8852   32.0205   44.9940 H   0  0  0  0  0  0  0  0  0  0  0  0
   58.6368   32.2227   43.7052 H   0  0  0  0  0  0  0  0  0  0  0  0
   60.6836   34.9885   49.4331 H   0  0  0  0  0  0  0  0  0  0  0  0
   60.4640   31.9740   50.6570 H   0  0  0  0  0  0  0  0  0  0  0  0
   59.5246   33.3467   51.3486 H   0  0  0  0  0  0  0  0  0  0  0  0
   58.3960   30.7400   50.3300 H   0  0  0  0  0  0  0  0  0  0  0  0
   54.4045   32.1003   51.5971 H   0  0  0  0  0  0  0  0  0  0  0  0
   53.0843   30.0165   52.4412 H   0  0  0  0  0  0  0  0  0  0  0  0
   54.6523   28.0652   53.2694 H   0  0  0  0  0  0  0  0  0  0  0  0
   59.8669   30.1228   46.4081 H   0  0  0  0  0  0  0  0  0  0  0  0
   58.9168   27.8782   46.9251 H   0  0  0  0  0  0  0  0  0  0  0  0
  1  2  1  0
  2  3  1  0
  3  4  2  0
  4  5  1  0
  5  6  2  0
  6  7  1  0
  7  8  2  0
  8  9  1  0
  9 10  1  0
 10 11  1  0
 11 12  2  0
 11 13  1  0
 13 14  2  0
 14 15  1  0
 15 16  2  0
 16 17  1  0
 17 18  1  0
 18 19  2  0
 18 20  2  0
 18 21  1  0
 21 22  2  0
 22 23  1  0
 23 24  2  0
 24 25  1  0
 25 26  1  0
 26 27  1  0
 27 28  2  0
 27 29  1  0
 29 30  2  0
 30 31  1  0
 31 32  2  0
 32 33  1  0
 24 34  1  0
 16 35  1  0
 35 36  2  0
  8  3  1  0
 36 13  1  0
 34 21  1  0
 33 29  1  0
  1 37  1  0
  1 38  1  0
  1 39  1  0
  4 40  1  0
  5 41  1  0
  6 42  1  0
  7 43  1  0
  9 44  1  0
  9 45  1  0
 14 46  1  0
 15 47  1  0
 17 48  1  0
 17 49  1  0
 23 50  1  0
 25 51  1  0
 25 52  1  0
 26 53  1  0
 30 54  1  0
 31 55  1  0
 32 56  1  0
 35 57  1  0
 36 58  1  0
M  CHG  1  10  -1
M  END
>  <UniqueID>  (30) 
30

>  <SMILES>  (30) 
COc1ccccc1C[N-]C(=O)c1ccc(CS(=O)(=O)c2ncc(CNC(=O)c3cccs3)o2)cc1

>  <Energy>  (30) 
111.46917745042155

>  <Genealogy>  (30) 
COc1ccccc1C[N-]C(=O)c1ccc(CS(=O)(=O)c2ncc(CNC(=O)c3cccs3)o2)cc1 (protonated)
COc1ccccc1C[N-]C(=O)c1ccc(CS(=O)(=O)c2ncc(CNC(=O)c3cccs3)o2)cc1 (3D coordinates assigned)
COc1ccccc1C[N-]C(=O)c1ccc(CS(=O)(=O)c2ncc(CNC(=O)c3cccs3)o2)cc1 (optimized conformer: 111.46917745042155 kcal/mol)

>  <smiles>  (30) 
COc1ccccc1CNC(=O)c1ccc(CS(=O)(=O)c2ncc(CNC(=O)c3cccs3)o2)cc1

>  <score_type>  (30) 
oracle

>  <origin>  (30) 
adg

>  <m_score__min__energy>  (30) 
-11.01

>  <m_primary>  (30) 
energy

$$$$
30:0
     RDKit          3D

 39 40  0  0  0  0  0  0  0  0999 V2000
   56.6330   22.5720   43.0820 C   0  0  0  0  0  0  0  0  0  0  0  0
   55.4480   23.0910   43.8870 C   0  0  0  0  0  0  0  0  0  0  0  0
   55.7080   24.4450   44.3700 N   0  0  0  0  0  0  0  0  0  0  0  0
   55.1570   24.9480   45.5930 C   0  0  0  0  0  0  0  0  0  0  0  0
   54.4170   24.2160   46.3070 O   0  0  0  0  0  0  0  0  0  0  0  0
   55.4560   26.2850   46.0030 N   0  0  0  0  0  0  0  0  0  0  0  0
   56.6950   26.6620   46.6730 C   0  0  0  0  0  0  0  0  0  0  0  0
   57.4530   27.6550   45.8420 C   0  0  0  0  0  0  0  0  0  0  0  0
   56.8010   28.7380   45.3360 N   0  0  0  0  0  0  0  0  0  0  0  0
   57.4360   29.6850   44.5930 C   0  0  0  0  0  0  0  0  0  0  0  0
   56.6480   30.8240   44.0190 C   0  0  0  0  0  0  0  0  0  0  0  0
   57.7430   31.9920   43.1390 S   0  0  0  0  0  0  0  0  0  0  0  0
   58.1270   32.9790   44.5910 C   0  0  0  0  0  0  0  0  0  0  0  0
   59.0690   34.0120   44.5100 C   0  0  0  0  0  0  0  0  0  0  0  0
   59.3810   34.7650   45.6460 C   0  0  0  0  0  0  0  0  0  0  0  0
   58.7450   34.4950   46.8620 C   0  0  0  0  0  0  0  0  0  0  0  0
   57.7950   33.4720   46.9420 C   0  0  0  0  0  0  0  0  0  0  0  0
   57.4830   32.7160   45.8080 C   0  0  0  0  0  0  0  0  0  0  0  0
   58.8040   29.5550   44.3290 C   0  0  0  0  0  0  0  0  0  0  0  0
   59.5020   28.4660   44.8520 C   0  0  0  0  0  0  0  0  0  0  0  0
   58.8300   27.5100   45.6160 C   0  0  0  0  0  0  0  0  0  0  0  0
   59.5140   26.4560   46.1300 F   0  0  0  0  0  0  0  0  0  0  0  0
   57.4201   22.2273   43.7688 H   0  0  0  0  0  0  0  0  0  0  0  0
   56.3069   21.7343   42.4480 H   0  0  0  0  0  0  0  0  0  0  0  0
   57.0275   23.3797   42.4480 H   0  0  0  0  0  0  0  0  0  0  0  0
   54.5531   23.1009   43.2475 H   0  0  0  0  0  0  0  0  0  0  0  0
   55.2902   22.4301   44.7520 H   0  0  0  0  0  0  0  0  0  0  0  0
   56.3730   25.0500   43.8360 H   0  0  0  0  0  0  0  0  0  0  0  0
   56.4581   27.1108   47.6490 H   0  0  0  0  0  0  0  0  0  0  0  0
   57.3147   25.7640   46.8126 H   0  0  0  0  0  0  0  0  0  0  0  0
   55.9025   30.4276   43.3139 H   0  0  0  0  0  0  0  0  0  0  0  0
   56.1506   31.3586   44.8417 H   0  0  0  0  0  0  0  0  0  0  0  0
   59.5637   34.2311   43.5522 H   0  0  0  0  0  0  0  0  0  0  0  0
   60.1274   35.5706   45.5833 H   0  0  0  0  0  0  0  0  0  0  0  0
   58.9921   35.0873   47.7554 H   0  0  0  0  0  0  0  0  0  0  0  0
   57.2928   33.2619   47.8978 H   0  0  0  0  0  0  0  0  0  0  0  0
   56.7320   31.9147   45.8708 H   0  0  0  0  0  0  0  0  0  0  0  0
   59.3244   30.3046   43.7147 H   0  0  0  0  0  0  0  0  0  0  0  0
   60.5805   28.3608   44.6626 H   0  0  0  0  0  0  0  0  0  0  0  0
  1  2  1  0
  2  3  1  0
  3  4  1  0
  4  5  2  0
  4  6  1  0
  6  7  1  0
  7  8  1  0
  8  9  2  0
  9 10  1  0
 10 11  1  0
 11 12  1  0
 12 13  1  0
 13 14  2  0
 14 15  1  0
 15 16  2  0
 16 17  1  0
 17 18  2  0
 10 19  2  0
 19 20  1  0
 20 21  2  0
 21 22  1  0
 21  8  1  0
 18 13  1  0
  1 23  1  0
  1 24  1  0
  1 25  1  0
  2 26  1  0
  2 27  1  0
  3 28  1  0
  7 29  1  0
  7 30  1  0
 11 31  1  0
 11 32  1  0
 14 33  1  0
 15 34  1  0
 16 35  1  0
 17 36  1  0
 18 37  1  0
 19 38  1  0
 20 39  1  0
M  CHG  1   6  -1
M  END
>  <UniqueID>  (31) 
31

>  <SMILES>  (31) 
CCNC(=O)[N-]Cc1nc(CSc2ccccc2)ccc1F

>  <Energy>  (31) 
25.835155459667277

>  <Genealogy>  (31) 
CCNC(=O)[N-]Cc1nc(CSc2ccccc2)ccc1F (protonated)
CCNC(=O)[N-]Cc1nc(CSc2ccccc2)ccc1F (3D coordinates assigned)
CCNC(=O)[N-]Cc1nc(CSc2ccccc2)ccc1F (optimized conformer: 25.835155459667277 kcal/mol)

>  <smiles>  (31) 
CCNC(=O)NCc1nc(CSc2ccccc2)ccc1F

>  <score_type>  (31) 
oracle

>  <origin>  (31) 
adg

>  <m_score__min__energy>  (31) 
-9.3300000000000001

>  <m_primary>  (31) 
energy

$$$$
31:0
     RDKit          3D

 55 57  0  0  0  0  0  0  0  0999 V2000
   63.2050   33.5900   46.9690 C   0  0  0  0  0  0  0  0  0  0  0  0
   63.0050   33.6280   48.4540 C   0  0  0  0  0  0  0  0  0  0  0  0
   62.1090   34.3850   48.9160 O   0  0  0  0  0  0  0  0  0  0  0  0
   63.8090   32.7730   49.3730 C   0  0  0  0  0  0  0  0  0  0  0  0
   65.1750   33.0530   49.5810 C   0  0  0  0  0  0  0  0  0  0  0  0
   65.9440   32.2640   50.4380 C   0  0  0  0  0  0  0  0  0  0  0  0
   65.3660   31.1840   51.1010 C   0  0  0  0  0  0  0  0  0  0  0  0
   64.0160   30.8890   50.9130 C   0  0  0  0  0  0  0  0  0  0  0  0
   63.2220   31.6760   50.0540 C   0  0  0  0  0  0  0  0  0  0  0  0
   61.8570   31.4050   49.8750 O   0  0  0  0  0  0  0  0  0  0  0  0
   61.3340   30.2540   49.2200 C   0  0  0  0  0  0  0  0  0  0  0  0
   61.2990   30.4860   47.7410 C   0  0  0  0  0  0  0  0  0  0  0  0
   62.3870   30.6730   47.1310 O   0  0  0  0  0  0  0  0  0  0  0  0
   60.0570   30.4820   47.0050 N   0  0  0  0  0  0  0  0  0  0  0  0
   58.8450   31.0210   47.6470 C   0  0  0  0  0  0  0  0  0  0  0  0
   59.0470   32.4620   48.1390 C   0  0  0  0  0  0  0  0  0  0  0  0
   59.0420   33.4550   47.0070 C   0  0  0  0  0  0  0  0  0  0  0  0
   59.8470   34.6060   47.0710 C   0  0  0  0  0  0  0  0  0  0  0  0
   59.8490   35.5230   46.0150 C   0  0  0  0  0  0  0  0  0  0  0  0
   59.0380   35.3070   44.8980 C   0  0  0  0  0  0  0  0  0  0  0  0
   58.2260   34.1710   44.8320 C   0  0  0  0  0  0  0  0  0  0  0  0
   58.2300   33.2460   45.8790 C   0  0  0  0  0  0  0  0  0  0  0  0
   59.9230   29.6990   45.7650 C   0  0  0  0  0  0  0  0  0  0  0  0
   58.6910   28.8320   45.7860 C   0  0  0  0  0  0  0  0  0  0  0  0
   58.7250   27.5560   46.3720 C   0  0  0  0  0  0  0  0  0  0  0  0
   57.5790   26.7570   46.3930 C   0  0  0  0  0  0  0  0  0  0  0  0
   56.3790   27.2300   45.8450 C   0  0  0  0  0  0  0  0  0  0  0  0
   55.2340   26.4370   45.8610 O   0  0  0  0  0  0  0  0  0  0  0  0
   56.3330   28.5090   45.2780 C   0  0  0  0  0  0  0  0  0  0  0  0
   55.1450   28.9920   44.7440 O   0  0  0  0  0  0  0  0  0  0  0  0
   57.4830   29.3040   45.2440 C   0  0  0  0  0  0  0  0  0  0  0  0
   64.2634   33.3889   46.7466 H   0  0  0  0  0  0  0  0  0  0  0  0
   62.5816   32.7942   46.5353 H   0  0  0  0  0  0  0  0  0  0  0  0
   62.9169   34.5590   46.5353 H   0  0  0  0  0  0  0  0  0  0  0  0
   65.6405   33.9036   49.0616 H   0  0  0  0  0  0  0  0  0  0  0  0
   67.0085   32.4956   50.5901 H   0  0  0  0  0  0  0  0  0  0  0  0
   65.9753   30.5628   51.7739 H   0  0  0  0  0  0  0  0  0  0  0  0
   63.5665   30.0344   51.4398 H   0  0  0  0  0  0  0  0  0  0  0  0
   61.9740   29.3865   49.4388 H   0  0  0  0  0  0  0  0  0  0  0  0
   60.3134   30.0614   49.5824 H   0  0  0  0  0  0  0  0  0  0  0  0
   58.0209   31.0067   46.9185 H   0  0  0  0  0  0  0  0  0  0  0  0
   58.6150   30.3929   48.5202 H   0  0  0  0  0  0  0  0  0  0  0  0
   58.2349   32.7155   48.8363 H   0  0  0  0  0  0  0  0  0  0  0  0
   60.0290   32.5163   48.6318 H   0  0  0  0  0  0  0  0  0  0  0  0
   60.4772   34.7858   47.9544 H   0  0  0  0  0  0  0  0  0  0  0  0
   60.4900   36.4156   46.0639 H   0  0  0  0  0  0  0  0  0  0  0  0
   59.0384   36.0312   44.0701 H   0  0  0  0  0  0  0  0  0  0  0  0
   57.5833   34.0052   43.9548 H   0  0  0  0  0  0  0  0  0  0  0  0
   57.5947   32.3499   45.8203 H   0  0  0  0  0  0  0  0  0  0  0  0
   59.8584   30.3902   44.9117 H   0  0  0  0  0  0  0  0  0  0  0  0
   60.8025   29.0444   45.6751 H   0  0  0  0  0  0  0  0  0  0  0  0
   59.6594   27.1835   46.8171 H   0  0  0  0  0  0  0  0  0  0  0  0
   57.6188   25.7532   46.8412 H   0  0  0  0  0  0  0  0  0  0  0  0
   54.3870   26.7190   45.3840 H   0  0  0  0  0  0  0  0  0  0  0  0
   57.4420   30.3052   44.7902 H   0  0  0  0  0  0  0  0  0  0  0  0
  1  2  1  0
  2  3  2  0
  2  4  1  0
  4  5  2  0
  5  6  1  0
  6  7  2  0
  7  8  1  0
  8  9  2  0
  9 10  1  0
 10 11  1  0
 11 12  1  0
 12 13  2  0
 12 14  1  0
 14 15  1  0
 15 16  1  0
 16 17  1  0
 17 18  2  0
 18 19  1  0
 19 20  2  0
 20 21  1  0
 21 22  2  0
 14 23  1  0
 23 24  1  0
 24 25  2  0
 25 26  1  0
 26 27  2  0
 27 28  1  0
 27 29  1  0
 29 30  1  0
 29 31  2  0
  9  4  1  0
 22 17  1  0
 31 24  1  0
  1 32  1  0
  1 33  1  0
  1 34  1  0
  5 35  1  0
  6 36  1  0
  7 37  1  0
  8 38  1  0
 11 39  1  0
 11 40  1  0
 15 41  1  0
 15 42  1  0
 16 43  1  0
 16 44  1  0
 18 45  1  0
 19 46  1  0
 20 47  1  0
 21 48  1  0
 22 49  1  0
 23 50  1  0
 23 51  1  0
 25 52  1  0
 26 53  1  0
 28 54  1  0
 31 55  1  0
M  CHG  1  30  -1
M  END
>  <UniqueID>  (32) 
32

>  <SMILES>  (32) 
CC(=O)c1ccccc1OCC(=O)N(CCc1ccccc1)Cc1ccc(O)c([O-])c1

>  <Energy>  (32) 
50.35060867171896

>  <Genealogy>  (32) 
CC(=O)c1ccccc1OCC(=O)N(CCc1ccccc1)Cc1ccc(O)c([O-])c1 (protonated)
CC(=O)c1ccccc1OCC(=O)N(CCc1ccccc1)Cc1ccc(O)c([O-])c1 (3D coordinates assigned)
CC(=O)c1ccccc1OCC(=O)N(CCc1ccccc1)Cc1ccc(O)c([O-])c1 (optimized conformer: 50.35060867171896 kcal/mol)

>  <smiles>  (32) 
CC(=O)c1ccccc1OCC(=O)N(CCc1ccccc1)Cc1ccc(O)c(O)c1

>  <score_type>  (32) 
oracle

>  <origin>  (32) 
adg

>  <m_score__min__energy>  (32) 
-12.57

>  <m_primary>  (32) 
energy

$$$$
32:0
     RDKit          3D

 68 72  0  0  0  0  0  0  0  0999 V2000
   51.3580   23.7360   44.5890 C   0  0  0  0  0  0  0  0  0  0  0  0
   52.6410   23.1780   44.8300 O   0  0  0  0  0  0  0  0  0  0  0  0
   53.7770   23.9550   45.0760 C   0  0  0  0  0  0  0  0  0  0  0  0
   55.0390   23.4430   44.7800 C   0  0  0  0  0  0  0  0  0  0  0  0
   56.1670   24.2100   45.0600 C   0  0  0  0  0  0  0  0  0  0  0  0
   56.0090   25.4750   45.6260 C   0  0  0  0  0  0  0  0  0  0  0  0
   57.0630   26.1790   45.9130 N   0  0  0  0  0  0  0  0  0  0  0  0
   58.1820   26.8680   44.7760 S   0  0  0  0  0  0  0  0  0  0  0  0
   59.6070   26.6080   45.1840 O   0  0  0  0  0  0  0  0  0  0  0  0
   57.9590   26.2530   43.4220 O   0  0  0  0  0  0  0  0  0  0  0  0
   57.8790   28.5960   44.6910 C   0  0  0  0  0  0  0  0  0  0  0  0
   56.6090   29.0590   44.3240 C   0  0  0  0  0  0  0  0  0  0  0  0
   56.3280   30.4260   44.3290 C   0  0  0  0  0  0  0  0  0  0  0  0
   57.3020   31.3430   44.7550 C   0  0  0  0  0  0  0  0  0  0  0  0
   57.0360   32.7500   44.8260 N   0  0  0  0  0  0  0  0  0  0  0  0
   57.8850   33.7570   45.3970 C   0  0  0  0  0  0  0  0  0  0  0  0
   58.4900   34.5460   44.6230 O   0  0  0  0  0  0  0  0  0  0  0  0
   58.1660   33.8300   46.8740 C   0  0  0  0  0  0  0  0  0  0  0  0
   59.2480   35.2410   47.2800 S   0  0  0  0  0  0  0  0  0  0  0  0
   60.7600   34.2640   47.4630 C   0  0  0  0  0  0  0  0  0  0  0  0
   61.6200   34.2380   46.3590 C   0  0  0  0  0  0  0  0  0  0  0  0
   62.8250   33.5430   46.4120 C   0  0  0  0  0  0  0  0  0  0  0  0
   63.1850   32.8620   47.5680 C   0  0  0  0  0  0  0  0  0  0  0  0
   62.3310   32.8460   48.6850 C   0  0  0  0  0  0  0  0  0  0  0  0
   62.7230   32.1850   49.8600 O   0  0  0  0  0  0  0  0  0  0  0  0
   64.0460   32.0050   50.2930 C   0  0  0  0  0  0  0  0  0  0  0  0
   64.9770   33.0200   50.0520 C   0  0  0  0  0  0  0  0  0  0  0  0
   66.3020   32.8780   50.4760 C   0  0  0  0  0  0  0  0  0  0  0  0
   66.6980   31.7330   51.1740 C   0  0  0  0  0  0  0  0  0  0  0  0
   65.7700   30.7240   51.4380 C   0  0  0  0  0  0  0  0  0  0  0  0
   64.4510   30.8530   50.9920 C   0  0  0  0  0  0  0  0  0  0  0  0
   61.1050   33.5560   48.6500 C   0  0  0  0  0  0  0  0  0  0  0  0
   60.1980   33.5030   49.8310 C   0  0  0  0  0  0  0  0  0  0  0  0
   59.6460   34.5560   50.2420 O   0  0  0  0  0  0  0  0  0  0  0  0
   59.8530   32.2460   50.4350 N   0  0  0  0  0  0  0  0  0  0  0  0
   59.8430   31.0690   49.8720 C   0  0  0  0  0  0  0  0  0  0  0  0
   58.9990   30.7460   48.7890 C   0  0  0  0  0  0  0  0  0  0  0  0
   59.0210   29.4520   48.2630 C   0  0  0  0  0  0  0  0  0  0  0  0
   59.8640   28.4890   48.8170 C   0  0  0  0  0  0  0  0  0  0  0  0
   59.9020   26.7160   48.1080 Br  0  0  0  0  0  0  0  0  0  0  0  0
   60.6850   28.8380   49.8890 C   0  0  0  0  0  0  0  0  0  0  0  0
   60.6490   30.1010   50.3890 N   0  0  0  0  0  0  0  0  0  0  0  0
   58.5880   30.8850   45.0580 C   0  0  0  0  0  0  0  0  0  0  0  0
   58.8760   29.5160   45.0320 C   0  0  0  0  0  0  0  0  0  0  0  0
   54.7530   25.9370   45.8750 N   0  0  0  0  0  0  0  0  0  0  0  0
   53.6720   25.2000   45.6120 N   0  0  0  0  0  0  0  0  0  0  0  0
   50.8652   23.9503   45.5488 H   0  0  0  0  0  0  0  0  0  0  0  0
   51.4656   24.6686   44.0157 H   0  0  0  0  0  0  0  0  0  0  0  0
   50.7492   23.0214   44.0157 H   0  0  0  0  0  0  0  0  0  0  0  0
   55.1428   22.4445   44.3304 H   0  0  0  0  0  0  0  0  0  0  0  0
   57.1720   23.8224   44.8372 H   0  0  0  0  0  0  0  0  0  0  0  0
   55.8289   28.3413   44.0303 H   0  0  0  0  0  0  0  0  0  0  0  0
   55.3422   30.7854   43.9988 H   0  0  0  0  0  0  0  0  0  0  0  0
   57.2142   33.9427   47.4137 H   0  0  0  0  0  0  0  0  0  0  0  0
   58.6791   32.9043   47.1737 H   0  0  0  0  0  0  0  0  0  0  0  0
   61.3406   34.7727   45.4392 H   0  0  0  0  0  0  0  0  0  0  0  0
   63.4926   33.5331   45.5378 H   0  0  0  0  0  0  0  0  0  0  0  0
   64.1471   32.3303   47.6100 H   0  0  0  0  0  0  0  0  0  0  0  0
   64.6656   33.9347   49.5263 H   0  0  0  0  0  0  0  0  0  0  0  0
   67.0348   33.6693   50.2598 H   0  0  0  0  0  0  0  0  0  0  0  0
   67.7387   31.6275   51.5144 H   0  0  0  0  0  0  0  0  0  0  0  0
   66.0764   29.8275   51.9969 H   0  0  0  0  0  0  0  0  0  0  0  0
   63.7260   30.0494   51.1887 H   0  0  0  0  0  0  0  0  0  0  0  0
   58.3290   31.5068   48.3621 H   0  0  0  0  0  0  0  0  0  0  0  0
   58.3737   29.1928   47.4122 H   0  0  0  0  0  0  0  0  0  0  0  0
   61.3616   28.0910   50.3297 H   0  0  0  0  0  0  0  0  0  0  0  0
   59.3777   31.6051   45.3183 H   0  0  0  0  0  0  0  0  0  0  0  0
   59.8878   29.1627   45.2800 H   0  0  0  0  0  0  0  0  0  0  0  0
  1  2  1  0
  2  3  1  0
  3  4  1  0
  4  5  2  0
  5  6  1  0
  6  7  2  3
  7  8  1  0
  8  9  2  0
  8 10  2  0
  8 11  1  0
 11 12  2  0
 12 13  1  0
 13 14  2  0
 14 15  1  0
 15 16  1  0
 16 17  2  0
 16 18  1  0
 18 19  1  0
 19 20  1  0
 20 21  2  0
 21 22  1  0
 22 23  2  0
 23 24  1  0
 24 25  1  0
 25 26  1  0
 26 27  2  0
 27 28  1  0
 28 29  2  0
 29 30  1  0
 30 31  2  0
 24 32  2  0
 32 33  1  0
 33 34  2  0
 33 35  1  0
 35 36  2  3
 36 37  1  0
 37 38  2  0
 38 39  1  0
 39 40  1  0
 39 41  2  0
 41 42  1  0
 14 43  1  0
 43 44  2  0
  6 45  1  0
 45 46  1  0
 46  3  2  0
 44 11  1  0
 32 20  1  0
 42 36  1  0
 31 26  1  0
  1 47  1  0
  1 48  1  0
  1 49  1  0
  4 50  1  0
  5 51  1  0
 12 52  1  0
 13 53  1  0
 18 54  1  0
 18 55  1  0
 21 56  1  0
 22 57  1  0
 23 58  1  0
 27 59  1  0
 28 60  1  0
 29 61  1  0
 30 62  1  0
 31 63  1  0
 37 64  1  0
 38 65  1  0
 41 66  1  0
 43 67  1  0
 44 68  1  0
M  CHG  3  15  -1  42  -1  45  -1
M  END
>  <UniqueID>  (33) 
33

>  <SMILES>  (33) 
COc1ccc(=NS(=O)(=O)c2ccc([N-]C(=O)CSc3cccc(Oc4ccccc4)c3C(=O)N=c3ccc(Br)c[n-]3)cc2)[n-]n1

>  <Energy>  (33) 
92.46051705741701

>  <Genealogy>  (33) 
COc1ccc(=NS(=O)(=O)c2ccc([N-]C(=O)CSc3cccc(Oc4ccccc4)c3C(=O)N=c3ccc(Br)c[n-]3)cc2)[n-]n1 (protonated)
COc1ccc(=NS(=O)(=O)c2ccc([N-]C(=O)CSc3cccc(Oc4ccccc4)c3C(=O)N=c3ccc(Br)c[n-]3)cc2)[n-]n1 (3D coordinates assigned)
COc1ccc(=NS(=O)(=O)c2ccc([N-]C(=O)CSc3cccc(Oc4ccccc4)c3C(=O)N=c3ccc(Br)c[n-]3)cc2)[n-]n1 (optimized conformer: 92.46051705741701 kcal/mol)

>  <smiles>  (33) 
COc1ccc(=NS(=O)(=O)c2ccc(NC(=O)CSc3cccc(Oc4ccccc4)c3C(=O)N=c3ccc(Br)c[nH]3)cc2)[nH]n1

>  <score_type>  (33) 
oracle

>  <origin>  (33) 
adg

>  <m_score__min__energy>  (33) 
-14.74

>  <m_primary>  (33) 
energy

$$$$
33:0
     RDKit          3D

 48 51  0  0  0  0  0  0  0  0999 V2000
   58.0860   33.9050   44.3850 O   0  0  0  0  0  0  0  0  0  0  0  0
   58.4280   32.6940   44.4390 C   0  0  0  0  0  0  0  0  0  0  0  0
   57.9580   31.7450   43.3750 C   0  0  0  0  0  0  0  0  0  0  0  0
   57.5950   30.4530   43.9810 N   0  0  0  0  0  0  0  0  0  0  0  0
   56.2680   30.1660   44.1580 C   0  0  0  0  0  0  0  0  0  0  0  0
   55.8710   29.0170   44.8420 C   0  0  0  0  0  0  0  0  0  0  0  0
   56.8350   28.1660   45.3790 C   0  0  0  0  0  0  0  0  0  0  0  0
   56.4200   27.0450   46.1690 N   0  0  0  0  0  0  0  0  0  0  0  0
   55.6840   25.9140   45.6800 C   0  0  0  0  0  0  0  0  0  0  0  0
   54.4250   25.9650   45.6750 O   0  0  0  0  0  0  0  0  0  0  0  0
   56.3590   24.6910   45.1830 C   0  0  0  0  0  0  0  0  0  0  0  0
   55.5910   23.7660   44.4540 C   0  0  0  0  0  0  0  0  0  0  0  0
   56.1900   22.6550   43.8600 C   0  0  0  0  0  0  0  0  0  0  0  0
   57.5620   22.4480   43.9870 C   0  0  0  0  0  0  0  0  0  0  0  0
   58.3380   23.3380   44.7310 C   0  0  0  0  0  0  0  0  0  0  0  0
   57.7510   24.4540   45.3560 C   0  0  0  0  0  0  0  0  0  0  0  0
   58.6040   25.3120   46.2130 C   0  0  0  0  0  0  0  0  0  0  0  0
   59.7590   25.8700   45.7920 N   0  0  0  0  0  0  0  0  0  0  0  0
   60.1940   26.5460   46.8720 C   0  0  0  0  0  0  0  0  0  0  0  0
   59.3010   26.3740   47.9020 C   0  0  0  0  0  0  0  0  0  0  0  0
   58.3340   25.6060   47.4660 O   0  0  0  0  0  0  0  0  0  0  0  0
   58.1890   28.4350   45.1440 C   0  0  0  0  0  0  0  0  0  0  0  0
   58.5560   29.5900   44.4480 C   0  0  0  0  0  0  0  0  0  0  0  0
   59.7810   29.8290   44.2710 O   0  0  0  0  0  0  0  0  0  0  0  0
   59.3040   32.2310   45.4780 N   0  0  0  0  0  0  0  0  0  0  0  0
   59.3330   32.7620   46.8150 C   0  0  0  0  0  0  0  0  0  0  0  0
   58.8390   32.0330   47.9150 C   0  0  0  0  0  0  0  0  0  0  0  0
   58.9260   32.5590   49.2070 C   0  0  0  0  0  0  0  0  0  0  0  0
   59.5180   33.8080   49.4180 C   0  0  0  0  0  0  0  0  0  0  0  0
   60.0260   34.5310   48.3360 C   0  0  0  0  0  0  0  0  0  0  0  0
   59.9390   34.0100   47.0420 C   0  0  0  0  0  0  0  0  0  0  0  0
   57.0788   32.1705   42.8692 H   0  0  0  0  0  0  0  0  0  0  0  0
   58.7668   31.5887   42.6460 H   0  0  0  0  0  0  0  0  0  0  0  0
   55.5058   30.8497   43.7560 H   0  0  0  0  0  0  0  0  0  0  0  0
   54.8022   28.7838   44.9569 H   0  0  0  0  0  0  0  0  0  0  0  0
   54.5067   23.9200   44.3510 H   0  0  0  0  0  0  0  0  0  0  0  0
   55.5777   21.9407   43.2900 H   0  0  0  0  0  0  0  0  0  0  0  0
   58.0342   21.5819   43.5002 H   0  0  0  0  0  0  0  0  0  0  0  0
   59.4199   23.1654   44.8299 H   0  0  0  0  0  0  0  0  0  0  0  0
   61.1176   27.1414   46.9219 H   0  0  0  0  0  0  0  0  0  0  0  0
   59.3835   26.8040   48.9111 H   0  0  0  0  0  0  0  0  0  0  0  0
   58.9609   27.7398   45.5059 H   0  0  0  0  0  0  0  0  0  0  0  0
   59.9390   31.4330   45.2540 H   0  0  0  0  0  0  0  0  0  0  0  0
   58.3826   31.0449   47.7561 H   0  0  0  0  0  0  0  0  0  0  0  0
   58.5279   31.9892   50.0596 H   0  0  0  0  0  0  0  0  0  0  0  0
   59.5837   34.2211   50.4354 H   0  0  0  0  0  0  0  0  0  0  0  0
   60.4952   35.5118   48.5027 H   0  0  0  0  0  0  0  0  0  0  0  0
   60.3477   34.5806   46.1950 H   0  0  0  0  0  0  0  0  0  0  0  0
  1  2  2  0
  2  3  1  0
  3  4  1  0
  4  5  1  0
  5  6  2  0
  6  7  1  0
  7  8  1  0
  8  9  1  0
  9 10  2  0
  9 11  1  0
 11 12  2  0
 12 13  1  0
 13 14  2  0
 14 15  1  0
 15 16  2  0
 16 17  1  0
 17 18  2  0
 18 19  1  0
 19 20  2  0
 20 21  1  0
  7 22  2  0
 22 23  1  0
 23 24  2  0
  2 25  1  0
 25 26  1  0
 26 27  2  0
 27 28  1  0
 28 29  2  0
 29 30  1  0
 30 31  2  0
 23  4  1  0
 31 26  1  0
 16 11  1  0
 21 17  1  0
  3 32  1  0
  3 33  1  0
  5 34  1  0
  6 35  1  0
 12 36  1  0
 13 37  1  0
 14 38  1  0
 15 39  1  0
 19 40  1  0
 20 41  1  0
 22 42  1  0
 25 43  1  0
 27 44  1  0
 28 45  1  0
 29 46  1  0
 30 47  1  0
 31 48  1  0
M  CHG  1   8  -1
M  END
>  <UniqueID>  (34) 
34

>  <SMILES>  (34) 
O=C(Cn1ccc([N-]C(=O)c2ccccc2-c2ncco2)cc1=O)Nc1ccccc1

>  <Energy>  (34) 
94.37472959807953

>  <Genealogy>  (34) 
O=C(Cn1ccc([N-]C(=O)c2ccccc2-c2ncco2)cc1=O)Nc1ccccc1 (protonated)
O=C(Cn1ccc([N-]C(=O)c2ccccc2-c2ncco2)cc1=O)Nc1ccccc1 (3D coordinates assigned)
O=C(Cn1ccc([N-]C(=O)c2ccccc2-c2ncco2)cc1=O)Nc1ccccc1 (optimized conformer: 94.37472959807953 kcal/mol)

>  <smiles>  (34) 
O=C(Cn1ccc(NC(=O)c2ccccc2-c2ncco2)cc1=O)Nc1ccccc1

>  <score_type>  (34) 
oracle

>  <origin>  (34) 
adg

>  <m_score__min__energy>  (34) 
-10.15

>  <m_primary>  (34) 
energy

$$$$
34:0
     RDKit          3D

 40 43  0  0  0  0  0  0  0  0999 V2000
   56.7250   34.6350   44.8580 O   0  0  0  0  0  0  0  0  0  0  0  0
   57.4240   33.7420   45.4040 C   0  0  0  0  0  0  0  0  0  0  0  0
   57.8170   33.8960   46.8520 C   0  0  0  0  0  0  0  0  0  0  0  0
   59.2830   33.6200   47.0830 C   0  0  0  0  0  0  0  0  0  0  0  0
   60.2430   34.1010   46.1740 C   0  0  0  0  0  0  0  0  0  0  0  0
   61.6010   33.8390   46.3720 C   0  0  0  0  0  0  0  0  0  0  0  0
   62.0150   33.0830   47.4700 C   0  0  0  0  0  0  0  0  0  0  0  0
   61.0710   32.5820   48.3690 C   0  0  0  0  0  0  0  0  0  0  0  0
   59.7090   32.8370   48.1770 C   0  0  0  0  0  0  0  0  0  0  0  0
   58.8150   32.3290   49.0620 F   0  0  0  0  0  0  0  0  0  0  0  0
   57.9060   32.6550   44.6050 N   0  0  0  0  0  0  0  0  0  0  0  0
   57.6440   31.2710   44.8590 C   0  0  0  0  0  0  0  0  0  0  0  0
   56.5560   30.6510   44.2350 C   0  0  0  0  0  0  0  0  0  0  0  0
   56.2760   29.3040   44.4830 C   0  0  0  0  0  0  0  0  0  0  0  0
   57.0690   28.5640   45.3780 C   0  0  0  0  0  0  0  0  0  0  0  0
   56.7780   27.1360   45.6360 C   0  0  0  0  0  0  0  0  0  0  0  0
   55.5160   26.6270   45.6320 N   0  0  0  0  0  0  0  0  0  0  0  0
   55.7200   25.3300   45.9020 C   0  0  0  0  0  0  0  0  0  0  0  0
   54.7660   24.3220   46.0190 C   0  0  0  0  0  0  0  0  0  0  0  0
   55.2240   23.0210   46.3080 C   0  0  0  0  0  0  0  0  0  0  0  0
   56.6050   22.7690   46.4700 C   0  0  0  0  0  0  0  0  0  0  0  0
   57.5400   23.8150   46.3440 C   0  0  0  0  0  0  0  0  0  0  0  0
   57.0500   25.0880   46.0570 C   0  0  0  0  0  0  0  0  0  0  0  0
   57.7490   26.2190   45.8940 N   0  0  0  0  0  0  0  0  0  0  0  0
   58.1360   29.2040   46.0320 C   0  0  0  0  0  0  0  0  0  0  0  0
   58.4130   30.5510   45.7810 C   0  0  0  0  0  0  0  0  0  0  0  0
   57.5970   34.9258   47.1701 H   0  0  0  0  0  0  0  0  0  0  0  0
   57.2416   33.1622   47.4355 H   0  0  0  0  0  0  0  0  0  0  0  0
   59.9220   34.6878   45.3007 H   0  0  0  0  0  0  0  0  0  0  0  0
   62.3449   34.2290   45.6617 H   0  0  0  0  0  0  0  0  0  0  0  0
   63.0850   32.8818   47.6272 H   0  0  0  0  0  0  0  0  0  0  0  0
   61.3999   31.9842   49.2319 H   0  0  0  0  0  0  0  0  0  0  0  0
   55.9186   31.2255   43.5468 H   0  0  0  0  0  0  0  0  0  0  0  0
   55.4294   28.8196   43.9745 H   0  0  0  0  0  0  0  0  0  0  0  0
   53.6942   24.5337   45.8905 H   0  0  0  0  0  0  0  0  0  0  0  0
   54.5023   22.1969   46.4081 H   0  0  0  0  0  0  0  0  0  0  0  0
   56.9519   21.7499   46.6959 H   0  0  0  0  0  0  0  0  0  0  0  0
   58.6179   23.6338   46.4676 H   0  0  0  0  0  0  0  0  0  0  0  0
   58.7565   28.6417   46.7453 H   0  0  0  0  0  0  0  0  0  0  0  0
   59.2393   31.0477   46.3106 H   0  0  0  0  0  0  0  0  0  0  0  0
  1  2  2  0
  2  3  1  0
  3  4  1  0
  4  5  2  0
  5  6  1  0
  6  7  2  0
  7  8  1  0
  8  9  2  0
  9 10  1  0
  2 11  1  0
 11 12  1  0
 12 13  2  0
 13 14  1  0
 14 15  2  0
 15 16  1  0
 16 17  2  0
 17 18  1  0
 18 19  2  0
 19 20  1  0
 20 21  2  0
 21 22  1  0
 22 23  2  0
 23 24  1  0
 15 25  1  0
 25 26  2  0
  9  4  1  0
 26 12  1  0
 24 16  1  0
 23 18  1  0
  3 27  1  0
  3 28  1  0
  5 29  1  0
  6 30  1  0
  7 31  1  0
  8 32  1  0
 13 33  1  0
 14 34  1  0
 19 35  1  0
 20 36  1  0
 21 37  1  0
 22 38  1  0
 25 39  1  0
 26 40  1  0
M  CHG  2  11  -1  24  -1
M  END
>  <UniqueID>  (35) 
35

>  <SMILES>  (35) 
O=C(Cc1ccccc1F)[N-]c1ccc(-c2nc3ccccc3[n-]2)cc1

>  <Energy>  (35) 
85.54412390253205

>  <Genealogy>  (35) 
O=C(Cc1ccccc1F)[N-]c1ccc(-c2nc3ccccc3[n-]2)cc1 (protonated)
O=C(Cc1ccccc1F)[N-]c1ccc(-c2nc3ccccc3[n-]2)cc1 (3D coordinates assigned)
O=C(Cc1ccccc1F)[N-]c1ccc(-c2nc3ccccc3[n-]2)cc1 (optimized conformer: 85.54412390253205 kcal/mol)

>  <smiles>  (35) 
O=C(Cc1ccccc1F)Nc1ccc(-c2nc3ccccc3[nH]2)cc1

>  <score_type>  (35) 
oracle

>  <origin>  (35) 
adg

>  <m_score__min__energy>  (35) 
-10.73

>  <m_primary>  (35) 
energy

$$$$
35:0
     RDKit          3D

 36 37  0  0  0  0  0  0  0  0999 V2000
   58.9430   31.7670   49.1830 C   0  0  0  0  0  0  0  0  0  0  0  0
   58.6730   33.1130   48.8060 O   0  0  0  0  0  0  0  0  0  0  0  0
   58.7830   33.6060   47.4970 C   0  0  0  0  0  0  0  0  0  0  0  0
   59.4860   34.8000   47.2940 C   0  0  0  0  0  0  0  0  0  0  0  0
   59.6330   35.3250   46.0080 C   0  0  0  0  0  0  0  0  0  0  0  0
   59.0750   34.6630   44.9110 C   0  0  0  0  0  0  0  0  0  0  0  0
   58.3540   33.4760   45.0970 C   0  0  0  0  0  0  0  0  0  0  0  0
   57.7870   32.7390   43.9130 C   0  0  0  0  0  0  0  0  0  0  0  0
   57.4050   31.3510   44.3140 C   0  0  0  0  0  0  0  0  0  0  0  0
   58.1890   30.2750   44.1060 N   0  0  0  0  0  0  0  0  0  0  0  0
   57.3990   29.2760   44.5490 C   0  0  0  0  0  0  0  0  0  0  0  0
   57.7780   27.8310   44.4770 C   0  0  0  0  0  0  0  0  0  0  0  0
   58.4100   27.3780   45.7940 C   0  0  0  0  0  0  0  0  0  0  0  0
   57.3670   27.1800   46.8020 N   0  0  0  0  0  0  0  0  0  0  0  0
   56.3730   25.8220   46.3650 S   0  0  0  0  0  0  0  0  0  0  0  0
   54.7550   26.3420   46.0440 N   0  0  0  0  0  0  0  0  0  0  0  0
   56.3550   24.8420   47.5030 O   0  0  0  0  0  0  0  0  0  0  0  0
   56.9380   25.1480   45.1450 O   0  0  0  0  0  0  0  0  0  0  0  0
   56.1980   29.7140   44.9700 N   0  0  0  0  0  0  0  0  0  0  0  0
   56.2020   31.0260   44.8210 N   0  0  0  0  0  0  0  0  0  0  0  0
   58.2170   32.9440   46.3900 C   0  0  0  0  0  0  0  0  0  0  0  0
   58.9585   31.6896   50.2802 H   0  0  0  0  0  0  0  0  0  0  0  0
   58.1589   31.1090   48.7801 H   0  0  0  0  0  0  0  0  0  0  0  0
   59.9202   31.4623   48.7801 H   0  0  0  0  0  0  0  0  0  0  0  0
   59.9254   35.3280   48.1531 H   0  0  0  0  0  0  0  0  0  0  0  0
   60.1894   36.2620   45.8583 H   0  0  0  0  0  0  0  0  0  0  0  0
   59.2021   35.0748   43.8989 H   0  0  0  0  0  0  0  0  0  0  0  0
   56.8971   33.2703   43.5445 H   0  0  0  0  0  0  0  0  0  0  0  0
   58.5463   32.6907   43.1186 H   0  0  0  0  0  0  0  0  0  0  0  0
   56.8778   27.2297   44.2815 H   0  0  0  0  0  0  0  0  0  0  0  0
   58.5082   27.6942   43.6658 H   0  0  0  0  0  0  0  0  0  0  0  0
   58.9481   26.4319   45.6345 H   0  0  0  0  0  0  0  0  0  0  0  0
   59.1120   28.1490   46.1442 H   0  0  0  0  0  0  0  0  0  0  0  0
   56.7450   28.0220   46.7980 H   0  0  0  0  0  0  0  0  0  0  0  0
   54.5340   27.1060   46.7200 H   0  0  0  0  0  0  0  0  0  0  0  0
   57.6643   32.0047   46.5388 H   0  0  0  0  0  0  0  0  0  0  0  0
  1  2  1  0
  2  3  1  0
  3  4  2  0
  4  5  1  0
  5  6  2  0
  6  7  1  0
  7  8  1  0
  8  9  1  0
  9 10  2  0
 10 11  1  0
 11 12  1  0
 12 13  1  0
 13 14  1  0
 14 15  1  0
 15 16  1  0
 15 17  2  0
 15 18  2  0
 11 19  2  0
 19 20  1  0
  7 21  2  0
 21  3  1  0
 20  9  1  0
  1 22  1  0
  1 23  1  0
  1 24  1  0
  4 25  1  0
  5 26  1  0
  6 27  1  0
  8 28  1  0
  8 29  1  0
 12 30  1  0
 12 31  1  0
 13 32  1  0
 13 33  1  0
 14 34  1  0
 16 35  1  0
 21 36  1  0
M  CHG  2  16  -1  20  -1
M  END
>  <UniqueID>  (36) 
36

>  <SMILES>  (36) 
COc1cccc(Cc2nc(CCNS([NH-])(=O)=O)n[n-]2)c1

>  <Energy>  (36) 
56.54239658223494

>  <Genealogy>  (36) 
COc1cccc(Cc2nc(CCNS([NH-])(=O)=O)n[n-]2)c1 (protonated)
COc1cccc(Cc2nc(CCNS([NH-])(=O)=O)n[n-]2)c1 (3D coordinates assigned)
COc1cccc(Cc2nc(CCNS([NH-])(=O)=O)n[n-]2)c1 (optimized conformer: 56.54239658223494 kcal/mol)

>  <smiles>  (36) 
COc1cccc(Cc2nc(CCNS(N)(=O)=O)n[nH]2)c1

>  <score_type>  (36) 
oracle

>  <origin>  (36) 
adg

>  <m_score__min__energy>  (36) 
-12.24

>  <m_primary>  (36) 
energy

$$$$
36:0
     RDKit          3D

 54 57  0  0  0  0  0  0  0  0999 V2000
   55.2590   31.6900   52.6700 O   0  0  0  0  0  0  0  0  0  0  0  0
   54.7590   30.7490   51.9970 C   0  0  0  0  0  0  0  0  0  0  0  0
   53.4450   30.9500   51.3120 C   0  0  0  0  0  0  0  0  0  0  0  0
   52.4110   31.2470   52.3030 N   0  0  0  0  0  0  0  0  0  0  0  0
   51.3480   32.0600   52.1460 C   0  0  0  0  0  0  0  0  0  0  0  0
   51.0340   32.7120   50.9590 O   0  0  0  0  0  0  0  0  0  0  0  0
   50.6280   32.1650   53.3190 C   0  0  0  0  0  0  0  0  0  0  0  0
   51.2940   31.3830   54.2490 C   0  0  0  0  0  0  0  0  0  0  0  0
   52.3840   30.8470   53.5900 C   0  0  0  0  0  0  0  0  0  0  0  0
   53.3410   30.0170   54.1670 O   0  0  0  0  0  0  0  0  0  0  0  0
   55.3690   29.4530   51.9760 N   0  0  0  0  0  0  0  0  0  0  0  0
   56.2960   28.9220   52.9370 C   0  0  0  0  0  0  0  0  0  0  0  0
   55.8410   28.1820   54.0450 C   0  0  0  0  0  0  0  0  0  0  0  0
   56.7490   27.6520   54.9630 C   0  0  0  0  0  0  0  0  0  0  0  0
   58.1170   27.8540   54.7920 C   0  0  0  0  0  0  0  0  0  0  0  0
   58.5830   28.6020   53.7100 C   0  0  0  0  0  0  0  0  0  0  0  0
   57.6840   29.1610   52.7840 C   0  0  0  0  0  0  0  0  0  0  0  0
   58.2170   29.9920   51.6770 C   0  0  0  0  0  0  0  0  0  0  0  0
   57.6610   31.0830   51.3740 O   0  0  0  0  0  0  0  0  0  0  0  0
   59.3530   29.5430   50.9280 N   0  0  0  0  0  0  0  0  0  0  0  0
   59.3700   29.3340   49.5100 C   0  0  0  0  0  0  0  0  0  0  0  0
   60.2720   28.4120   48.9660 C   0  0  0  0  0  0  0  0  0  0  0  0
   60.3150   28.2020   47.5860 C   0  0  0  0  0  0  0  0  0  0  0  0
   59.4750   28.9280   46.7380 C   0  0  0  0  0  0  0  0  0  0  0  0
   58.5940   29.8820   47.2620 C   0  0  0  0  0  0  0  0  0  0  0  0
   57.7720   30.6320   46.3550 N   0  0  0  0  0  0  0  0  0  0  0  0
   57.2920   30.1060   44.7740 S   0  0  0  0  0  0  0  0  0  0  0  0
   55.8960   30.5890   44.4950 O   0  0  0  0  0  0  0  0  0  0  0  0
   58.2170   30.7060   43.7540 O   0  0  0  0  0  0  0  0  0  0  0  0
   57.3870   28.3510   44.6640 C   0  0  0  0  0  0  0  0  0  0  0  0
   57.9750   27.7580   43.5360 C   0  0  0  0  0  0  0  0  0  0  0  0
   58.0490   26.3660   43.4310 C   0  0  0  0  0  0  0  0  0  0  0  0
   57.5390   25.5590   44.4530 C   0  0  0  0  0  0  0  0  0  0  0  0
   56.9620   26.1450   45.5840 C   0  0  0  0  0  0  0  0  0  0  0  0
   56.8820   27.5370   45.6890 C   0  0  0  0  0  0  0  0  0  0  0  0
   58.5450   30.0840   48.6530 C   0  0  0  0  0  0  0  0  0  0  0  0
   53.5259   31.7893   50.6056 H   0  0  0  0  0  0  0  0  0  0  0  0
   53.1745   30.0330   50.7680 H   0  0  0  0  0  0  0  0  0  0  0  0
   49.7114   32.7507   53.4824 H   0  0  0  0  0  0  0  0  0  0  0  0
   51.0120   31.2214   55.2999 H   0  0  0  0  0  0  0  0  0  0  0  0
   54.2970   30.0170   53.8340 H   0  0  0  0  0  0  0  0  0  0  0  0
   54.7624   28.0204   54.1882 H   0  0  0  0  0  0  0  0  0  0  0  0
   56.3836   27.0731   55.8240 H   0  0  0  0  0  0  0  0  0  0  0  0
   58.8302   27.4235   55.5104 H   0  0  0  0  0  0  0  0  0  0  0  0
   59.6644   28.7560   53.5800 H   0  0  0  0  0  0  0  0  0  0  0  0
   60.9489   27.8513   49.6274 H   0  0  0  0  0  0  0  0  0  0  0  0
   61.0124   27.4626   47.1654 H   0  0  0  0  0  0  0  0  0  0  0  0
   59.5058   28.7493   45.6531 H   0  0  0  0  0  0  0  0  0  0  0  0
   58.3789   28.3907   42.7319 H   0  0  0  0  0  0  0  0  0  0  0  0
   58.5086   25.9052   42.5442 H   0  0  0  0  0  0  0  0  0  0  0  0
   57.5917   24.4636   44.3672 H   0  0  0  0  0  0  0  0  0  0  0  0
   56.5705   25.5099   46.3923 H   0  0  0  0  0  0  0  0  0  0  0  0
   56.4221   27.9948   46.5772 H   0  0  0  0  0  0  0  0  0  0  0  0
   57.8574   30.8329   49.0730 H   0  0  0  0  0  0  0  0  0  0  0  0
  1  2  2  0
  2  3  1  0
  3  4  1  0
  4  5  1  0
  5  6  1  0
  5  7  2  0
  7  8  1  0
  8  9  2  0
  9 10  1  0
  2 11  1  0
 11 12  1  0
 12 13  2  0
 13 14  1  0
 14 15  2  0
 15 16  1  0
 16 17  2  0
 17 18  1  0
 18 19  2  0
 18 20  1  0
 20 21  1  0
 21 22  2  0
 22 23  1  0
 23 24  2  0
 24 25  1  0
 25 26  1  0
 26 27  1  0
 27 28  2  0
 27 29  2  0
 27 30  1  0
 30 31  2  0
 31 32  1  0
 32 33  2  0
 33 34  1  0
 34 35  2  0
 25 36  2  0
  9  4  1  0
 17 12  1  0
 36 21  1  0
 35 30  1  0
  3 37  1  0
  3 38  1  0
  7 39  1  0
  8 40  1  0
 10 41  1  0
 13 42  1  0
 14 43  1  0
 15 44  1  0
 16 45  1  0
 22 46  1  0
 23 47  1  0
 24 48  1  0
 31 49  1  0
 32 50  1  0
 33 51  1  0
 34 52  1  0
 35 53  1  0
 36 54  1  0
M  CHG  4   6  -1  11  -1  20  -1  26  -1
M  END
>  <UniqueID>  (37) 
37

>  <SMILES>  (37) 
O=C(Cn1c([O-])ccc1O)[N-]c1ccccc1C(=O)[N-]c1cccc([N-]S(=O)(=O)c2ccccc2)c1

>  <Energy>  (37) 
94.68953031468418

>  <Genealogy>  (37) 
O=C(Cn1c([O-])ccc1O)[N-]c1ccccc1C(=O)[N-]c1cccc([N-]S(=O)(=O)c2ccccc2)c1 (protonated)
O=C(Cn1c([O-])ccc1O)[N-]c1ccccc1C(=O)[N-]c1cccc([N-]S(=O)(=O)c2ccccc2)c1 (3D coordinates assigned)
O=C(Cn1c([O-])ccc1O)[N-]c1ccccc1C(=O)[N-]c1cccc([N-]S(=O)(=O)c2ccccc2)c1 (optimized conformer: 94.68953031468418 kcal/mol)

>  <smiles>  (37) 
O=C(Cn1c(O)ccc1O)Nc1ccccc1C(=O)Nc1cccc(NS(=O)(=O)c2ccccc2)c1

>  <score_type>  (37) 
oracle

>  <origin>  (37) 
adg

>  <m_score__min__energy>  (37) 
-16.82

>  <m_primary>  (37) 
energy

$$$$
37:0
     RDKit          3D

 45 47  0  0  1  0  0  0  0  0999 V2000
   59.0190   30.6360   48.6980 O   0  0  0  0  0  0  0  0  0  0  0  0
   60.1950   29.8800   48.1970 S   0  0  0  0  0  0  0  0  0  0  0  0
   61.2090   29.6970   49.3100 O   0  0  0  0  0  0  0  0  0  0  0  0
   61.0650   30.8210   46.9310 C   0  0  0  0  0  0  0  0  0  0  0  0
   61.7110   32.0090   47.5410 C   0  0  0  0  0  0  0  0  0  0  0  0
   61.0960   32.8200   48.4690 C   0  0  0  0  0  0  0  0  0  0  0  0
   61.7580   33.9140   49.0020 C   0  0  0  0  0  0  0  0  0  0  0  0
   63.0650   34.1930   48.5870 C   0  0  0  0  0  0  0  0  0  0  0  0
   63.7050   33.3870   47.6510 C   0  0  0  0  0  0  0  0  0  0  0  0
   63.0130   32.2870   47.1300 C   0  0  0  0  0  0  0  0  0  0  0  0
   59.8370   28.3690   47.4950 N   0  0  0  0  0  0  0  0  0  0  0  0
   59.0270   28.2930   46.4950 C   0  0  0  0  0  0  0  0  0  0  0  0
   59.3110   27.2710   45.5810 C   0  0  0  0  0  0  0  0  0  0  0  0
   58.5100   27.0960   44.4720 C   0  0  0  0  0  0  0  0  0  0  0  0
   57.4790   27.9350   44.3270 N   0  0  0  0  0  0  0  0  0  0  0  0
   57.2140   28.9310   45.2270 C   0  0  0  0  0  0  0  0  0  0  0  0
   56.1070   29.7110   44.9260 O   0  0  0  0  0  0  0  0  0  0  0  0
   56.0980   30.8270   44.0940 C   0  0  0  0  0  0  0  0  0  0  0  0
   57.4740   31.2930   43.7040 C   0  0  0  0  0  0  0  0  0  0  0  0
   57.9520   32.3490   44.6000 C   0  0  0  0  0  0  0  0  0  0  0  0
   58.5730   33.4770   44.0920 C   0  0  0  0  0  0  0  0  0  0  0  0
   59.0270   34.4810   44.9290 C   0  0  0  0  0  0  0  0  0  0  0  0
   58.8510   34.3460   46.3120 C   0  0  0  0  0  0  0  0  0  0  0  0
   59.3050   35.3450   47.1060 F   0  0  0  0  0  0  0  0  0  0  0  0
   58.2300   33.2130   46.7890 C   0  0  0  0  0  0  0  0  0  0  0  0
   58.0530   33.0760   48.1430 F   0  0  0  0  0  0  0  0  0  0  0  0
   57.7710   32.2020   45.9710 C   0  0  0  0  0  0  0  0  0  0  0  0
   57.9810   29.1210   46.3180 N   0  0  0  0  0  0  0  0  0  0  0  0
   61.8338   30.1853   46.4675 H   0  0  0  0  0  0  0  0  0  0  0  0
   60.3462   31.1515   46.1667 H   0  0  0  0  0  0  0  0  0  0  0  0
   60.0680   32.5966   48.7904 H   0  0  0  0  0  0  0  0  0  0  0  0
   61.2614   34.5567   49.7438 H   0  0  0  0  0  0  0  0  0  0  0  0
   63.5936   35.0616   49.0067 H   0  0  0  0  0  0  0  0  0  0  0  0
   64.7325   33.6091   47.3272 H   0  0  0  0  0  0  0  0  0  0  0  0
   63.5016   31.6365   46.3896 H   0  0  0  0  0  0  0  0  0  0  0  0
   60.1727   26.6079   45.7474 H   0  0  0  0  0  0  0  0  0  0  0  0
   58.7105   26.3009   43.7388 H   0  0  0  0  0  0  0  0  0  0  0  0
   56.8760   27.7980   43.4850 H   0  0  0  0  0  0  0  0  0  0  0  0
   55.5428   30.5748   43.1785 H   0  0  0  0  0  0  0  0  0  0  0  0
   55.6248   31.6463   44.6551 H   0  0  0  0  0  0  0  0  0  0  0  0
   58.1680   30.4409   43.7521 H   0  0  0  0  0  0  0  0  0  0  0  0
   57.4267   31.6991   42.6828 H   0  0  0  0  0  0  0  0  0  0  0  0
   58.7078   33.5769   43.0049 H   0  0  0  0  0  0  0  0  0  0  0  0
   59.5193   35.3728   44.5140 H   0  0  0  0  0  0  0  0  0  0  0  0
   57.2792   31.3109   46.3882 H   0  0  0  0  0  0  0  0  0  0  0  0
  1  2  2  0
  2  3  2  0
  2  4  1  0
  4  5  1  0
  5  6  2  0
  6  7  1  0
  7  8  2  0
  8  9  1  0
  9 10  2  0
  2 11  1  0
 11 12  2  0
 12 13  1  0
 13 14  2  0
 14 15  1  0
 15 16  1  0
 16 17  1  0
 17 18  1  0
 18 19  1  0
 19 20  1  0
 20 21  2  0
 21 22  1  0
 22 23  2  0
 23 24  1  0
 23 25  1  0
 25 26  1  0
 25 27  2  0
 16 28  2  0
 10  5  1  0
 28 12  1  0
 27 20  1  0
  4 29  1  0
  4 30  1  0
  6 31  1  0
  7 32  1  0
  8 33  1  0
  9 34  1  0
 10 35  1  0
 13 36  1  0
 14 37  1  0
 15 38  1  0
 18 39  1  0
 18 40  1  0
 19 41  1  0
 19 42  1  0
 21 43  1  0
 22 44  1  0
 27 45  1  0
M  END
>  <smiles>  (38) 
O=S(=O)(Cc1ccccc1)N=c1cc[nH]c(OCCc2ccc(F)c(F)c2)n1

>  <score_type>  (38) 
oracle

>  <origin>  (38) 
adg

>  <m_score__min__energy>  (38) 
-8.9299999999999997

>  <m_primary>  (38) 
energy

$$$$
38:0
     RDKit          3D

 42 44  0  0  0  0  0  0  0  0999 V2000
   54.6130   20.7430   46.0570 C   0  0  0  0  0  0  0  0  0  0  0  0
   54.3860   21.9070   45.2690 O   0  0  0  0  0  0  0  0  0  0  0  0
   55.1540   23.0790   45.3450 C   0  0  0  0  0  0  0  0  0  0  0  0
   56.5290   22.9870   45.1170 C   0  0  0  0  0  0  0  0  0  0  0  0
   57.3390   24.1230   45.1820 C   0  0  0  0  0  0  0  0  0  0  0  0
   56.7870   25.3850   45.4710 C   0  0  0  0  0  0  0  0  0  0  0  0
   57.6740   26.5770   45.5210 C   0  0  0  0  0  0  0  0  0  0  0  0
   58.7540   26.5810   44.8700 O   0  0  0  0  0  0  0  0  0  0  0  0
   57.2840   27.7480   46.2480 N   0  0  0  0  0  0  0  0  0  0  0  0
   57.4080   29.1000   45.7850 C   0  0  0  0  0  0  0  0  0  0  0  0
   58.5640   29.8160   46.1200 C   0  0  0  0  0  0  0  0  0  0  0  0
   58.7380   31.1390   45.6880 C   0  0  0  0  0  0  0  0  0  0  0  0
   59.9940   31.8870   46.0390 C   0  0  0  0  0  0  0  0  0  0  0  0
   59.6740   33.2720   46.3750 N   0  0  0  0  0  0  0  0  0  0  0  0
   59.5490   33.8150   47.7200 C   0  0  0  0  0  0  0  0  0  0  0  0
   59.2770   35.3280   47.5180 C   0  0  0  0  0  0  0  0  0  0  0  0
   59.2690   35.5330   46.1090 O   0  0  0  0  0  0  0  0  0  0  0  0
   59.5050   34.3400   45.4690 C   0  0  0  0  0  0  0  0  0  0  0  0
   59.5590   34.2180   44.2180 O   0  0  0  0  0  0  0  0  0  0  0  0
   57.7570   31.7350   44.8830 C   0  0  0  0  0  0  0  0  0  0  0  0
   56.6160   31.0170   44.5160 C   0  0  0  0  0  0  0  0  0  0  0  0
   56.4410   29.6960   44.9490 C   0  0  0  0  0  0  0  0  0  0  0  0
   55.3300   28.9690   44.5230 O   0  0  0  0  0  0  0  0  0  0  0  0
   55.3950   25.4770   45.7060 C   0  0  0  0  0  0  0  0  0  0  0  0
   54.7940   26.6910   46.0180 O   0  0  0  0  0  0  0  0  0  0  0  0
   54.5910   24.3330   45.6400 C   0  0  0  0  0  0  0  0  0  0  0  0
   54.5616   21.0066   47.1237 H   0  0  0  0  0  0  0  0  0  0  0  0
   53.8448   19.9897   45.8280 H   0  0  0  0  0  0  0  0  0  0  0  0
   55.6079   20.3335   45.8280 H   0  0  0  0  0  0  0  0  0  0  0  0
   56.9783   22.0103   44.8840 H   0  0  0  0  0  0  0  0  0  0  0  0
   58.4207   24.0303   45.0053 H   0  0  0  0  0  0  0  0  0  0  0  0
   59.3442   29.3355   46.7287 H   0  0  0  0  0  0  0  0  0  0  0  0
   60.4758   31.4048   46.9024 H   0  0  0  0  0  0  0  0  0  0  0  0
   60.6753   31.8734   45.1755 H   0  0  0  0  0  0  0  0  0  0  0  0
   58.7123   33.3395   48.2527 H   0  0  0  0  0  0  0  0  0  0  0  0
   60.4503   33.6342   48.3241 H   0  0  0  0  0  0  0  0  0  0  0  0
   58.3044   35.6041   47.9513 H   0  0  0  0  0  0  0  0  0  0  0  0
   60.0387   35.9473   48.0142 H   0  0  0  0  0  0  0  0  0  0  0  0
   57.8861   32.7718   44.5390 H   0  0  0  0  0  0  0  0  0  0  0  0
   55.8510   31.4913   43.8837 H   0  0  0  0  0  0  0  0  0  0  0  0
   55.1290   28.0440   44.8860 H   0  0  0  0  0  0  0  0  0  0  0  0
   53.5091   24.4159   45.8206 H   0  0  0  0  0  0  0  0  0  0  0  0
  1  2  1  0
  2  3  1  0
  3  4  2  0
  4  5  1  0
  5  6  2  0
  6  7  1  0
  7  8  2  0
  7  9  1  0
  9 10  1  0
 10 11  2  0
 11 12  1  0
 12 13  1  0
 13 14  1  0
 14 15  1  0
 15 16  1  0
 16 17  1  0
 17 18  1  0
 18 19  2  0
 12 20  2  0
 20 21  1  0
 21 22  2  0
 22 23  1  0
  6 24  1  0
 24 25  1  0
 24 26  2  0
 26  3  1  0
 22 10  1  0
 18 14  1  0
  1 27  1  0
  1 28  1  0
  1 29  1  0
  4 30  1  0
  5 31  1  0
 11 32  1  0
 13 33  1  0
 13 34  1  0
 15 35  1  0
 15 36  1  0
 16 37  1  0
 16 38  1  0
 20 39  1  0
 21 40  1  0
 23 41  1  0
 26 42  1  0
M  CHG  2   9  -1  25  -1
M  END
>  <UniqueID>  (39) 
38

>  <SMILES>  (39) 
COc1ccc(C(=O)[N-]c2cc(CN3CCOC3=O)ccc2O)c([O-])c1

>  <Energy>  (39) 
63.24547689950584

>  <Genealogy>  (39) 
COc1ccc(C(=O)[N-]c2cc(CN3CCOC3=O)ccc2O)c([O-])c1 (protonated)
COc1ccc(C(=O)[N-]c2cc(CN3CCOC3=O)ccc2O)c([O-])c1 (3D coordinates assigned)
COc1ccc(C(=O)[N-]c2cc(CN3CCOC3=O)ccc2O)c([O-])c1 (nonaromatic ring conformer: 63.24547689950584 kcal/mol)

>  <smiles>  (39) 
COc1ccc(C(=O)Nc2cc(CN3CCOC3=O)ccc2O)c(O)c1

>  <score_type>  (39) 
oracle

>  <origin>  (39) 
adg

>  <m_score__min__energy>  (39) 
-13.16

>  <m_primary>  (39) 
energy

$$$$
39:0
     RDKit          3D

 33 34  0  0  0  0  0  0  0  0999 V2000
   57.8537   35.2507   44.3432 H   0  0  0  0  0  0  0  0  0  0  0  0
   58.3590   34.5910   45.0640 C   0  0  0  0  0  0  0  0  0  0  0  0
   57.9010   33.3550   45.2680 C   0  0  0  0  0  0  0  0  0  0  0  0
   57.0255   33.0001   44.7045 H   0  0  0  0  0  0  0  0  0  0  0  0
   58.5610   32.4490   46.2500 C   0  0  0  0  0  0  0  0  0  0  0  0
   58.1130   31.2450   46.4700 N   0  0  0  0  0  0  0  0  0  0  0  0
   58.4770   30.0520   45.7610 C   0  0  0  0  0  0  0  0  0  0  0  0
   59.7680   29.5350   45.9250 C   0  0  0  0  0  0  0  0  0  0  0  0
   60.4880   30.0575   46.5720 H   0  0  0  0  0  0  0  0  0  0  0  0
   60.1470   28.3600   45.2720 C   0  0  0  0  0  0  0  0  0  0  0  0
   61.1679   27.9687   45.3929 H   0  0  0  0  0  0  0  0  0  0  0  0
   59.2310   27.6820   44.4660 C   0  0  0  0  0  0  0  0  0  0  0  0
   59.5342   26.7628   43.9434 H   0  0  0  0  0  0  0  0  0  0  0  0
   57.9280   28.1700   44.3220 C   0  0  0  0  0  0  0  0  0  0  0  0
   57.2073   27.6282   43.6919 H   0  0  0  0  0  0  0  0  0  0  0  0
   57.5340   29.3520   44.9800 C   0  0  0  0  0  0  0  0  0  0  0  0
   56.2230   29.8490   44.8940 O   0  0  0  0  0  0  0  0  0  0  0  0
   55.5280   30.0810   43.6740 C   0  0  0  0  0  0  0  0  0  0  0  0
   54.5056   30.4223   43.8936 H   0  0  0  0  0  0  0  0  0  0  0  0
   56.0550   30.8520   43.0927 H   0  0  0  0  0  0  0  0  0  0  0  0
   55.4862   29.1481   43.0927 H   0  0  0  0  0  0  0  0  0  0  0  0
   59.7880   32.9260   46.9650 C   0  0  0  0  0  0  0  0  0  0  0  0
   60.5220   32.0510   47.9220 C   0  0  0  0  0  0  0  0  0  0  0  0
   60.0270   31.7990   49.0570 O   0  0  0  0  0  0  0  0  0  0  0  0
   61.7620   31.5040   47.5760 O   0  0  0  0  0  0  0  0  0  0  0  0
   62.9520   32.2780   47.5020 C   0  0  0  0  0  0  0  0  0  0  0  0
   63.3042   32.5071   48.5186 H   0  0  0  0  0  0  0  0  0  0  0  0
   63.7260   31.7100   46.9651 H   0  0  0  0  0  0  0  0  0  0  0  0
   62.7466   33.2158   46.9651 H   0  0  0  0  0  0  0  0  0  0  0  0
   60.2280   34.1800   46.7410 C   0  0  0  0  0  0  0  0  0  0  0  0
   61.1207   34.5422   47.2720 H   0  0  0  0  0  0  0  0  0  0  0  0
   59.5350   35.0740   45.7980 C   0  0  0  0  0  0  0  0  0  0  0  0
   59.9560   36.2460   45.6140 O   0  0  0  0  0  0  0  0  0  0  0  0
  1  2  1  0
  2  3  2  0
  3  4  1  0
  3  5  1  0
  5  6  2  0
  6  7  1  0
  7  8  2  0
  8  9  1  0
  8 10  1  0
 10 11  1  0
 10 12  2  0
 12 13  1  0
 12 14  1  0
 14 15  1  0
 14 16  2  0
 16 17  1  0
 17 18  1  0
 18 19  1  0
 18 20  1  0
 18 21  1  0
  5 22  1  0
 22 23  1  0
 23 24  2  0
 23 25  1  0
 25 26  1  0
 26 27  1  0
 26 28  1  0
 26 29  1  0
 22 30  2  0
 30 31  1  0
 30 32  1  0
 32 33  2  0
 32  2  1  0
 16  7  1  0
M  END
>  <UniqueID>  (40) 
39

>  <SMILES>  (40) 
COC(=O)C1=CC(=O)C=C/C1=N\c1ccccc1OC

>  <Energy>  (40) 
39.70352559683077

>  <Genealogy>  (40) 
COC(=O)C1=CC(=O)C=C/C1=N\c1ccccc1OC (cis-trans isomerization)
COC(=O)C1=CC(=O)C=C/C1=N\c1ccccc1OC (3D coordinates assigned)
COC(=O)C1=CC(=O)C=C/C1=N\c1ccccc1OC (nonaromatic ring conformer: 39.70352559683077 kcal/mol)

>  <smiles>  (40) 
COC(=O)C1=CC(=O)C=CC1=Nc1ccccc1OC

>  <score_type>  (40) 
oracle

>  <origin>  (40) 
adg

>  <m_score__min__energy>  (40) 
-6.8099999999999996

>  <m_primary>  (40) 
energy

$$$$
40:0
     RDKit          3D

 54 59  0  0  0  0  0  0  0  0999 V2000
   53.0717   32.0766   53.1519 H   0  0  0  0  0  0  0  0  0  0  0  0
   53.0710   31.2080   52.4770 C   0  0  0  0  0  0  0  0  0  0  0  0
   52.2900   31.2990   51.2310 C   0  0  0  0  0  0  0  0  0  0  0  0
   52.2850   30.3380   50.2920 N   0  0  0  0  0  0  0  0  0  0  0  0
   51.3890   30.7850   49.3870 C   0  0  0  0  0  0  0  0  0  0  0  0
   51.1140   30.1520   48.3340 O   0  0  0  0  0  0  0  0  0  0  0  0
   50.8040   31.9600   49.7030 N   0  0  0  0  0  0  0  0  0  0  0  0
   51.3740   32.2670   50.8790 C   0  0  0  0  0  0  0  0  0  0  0  0
   51.0220   33.3790   51.6360 O   0  0  0  0  0  0  0  0  0  0  0  0
   53.7810   30.1290   52.8370 C   0  0  0  0  0  0  0  0  0  0  0  0
   53.3690   28.9940   53.5420 C   0  0  0  0  0  0  0  0  0  0  0  0
   52.3449   28.7968   53.8918 H   0  0  0  0  0  0  0  0  0  0  0  0
   54.4320   28.1770   53.7250 N   0  0  0  0  0  0  0  0  0  0  0  0
   54.4320   27.2610   54.2260 H   0  0  0  0  0  0  0  0  0  0  0  0
   55.4880   28.7520   53.1740 N   0  0  0  0  0  0  0  0  0  0  0  0
   56.7650   28.3040   53.1190 C   0  0  0  0  0  0  0  0  0  0  0  0
   57.0770   27.1500   53.6450 N   0  0  0  0  0  0  0  0  0  0  0  0
   58.2890   26.6590   54.3290 C   0  0  0  0  0  0  0  0  0  0  0  0
   57.7817   25.7716   54.7354 H   0  0  0  0  0  0  0  0  0  0  0  0
   59.2390   27.7050   54.8950 C   0  0  0  0  0  0  0  0  0  0  0  0
   58.9907   28.7738   54.8174 H   0  0  0  0  0  0  0  0  0  0  0  0
   59.7050   27.8853   55.8750 H   0  0  0  0  0  0  0  0  0  0  0  0
   59.6220   26.9140   53.6410 C   0  0  0  0  0  0  0  0  0  0  0  0
   59.6493   27.4141   52.6616 H   0  0  0  0  0  0  0  0  0  0  0  0
   60.4779   26.2895   53.3451 H   0  0  0  0  0  0  0  0  0  0  0  0
   57.6840   29.0970   52.5010 N   0  0  0  0  0  0  0  0  0  0  0  0
   57.3310   30.3020   51.9510 C   0  0  0  0  0  0  0  0  0  0  0  0
   58.3230   31.1290   51.3080 N   0  0  0  0  0  0  0  0  0  0  0  0
   59.7280   31.0980   51.7410 C   0  0  0  0  0  0  0  0  0  0  0  0
   59.9188   31.9457   52.4155 H   0  0  0  0  0  0  0  0  0  0  0  0
   59.9207   30.1498   52.2643 H   0  0  0  0  0  0  0  0  0  0  0  0
   60.6600   31.1970   50.5280 C   0  0  0  0  0  0  0  0  0  0  0  0
   61.6880   31.3674   50.8803 H   0  0  0  0  0  0  0  0  0  0  0  0
   60.5905   30.2563   49.9621 H   0  0  0  0  0  0  0  0  0  0  0  0
   60.2710   32.3010   49.6370 N   0  0  0  0  0  0  0  0  0  0  0  0
   61.2180   32.7930   48.6690 C   0  0  0  0  0  0  0  0  0  0  0  0
   62.6000   32.6580   48.9010 C   0  0  0  0  0  0  0  0  0  0  0  0
   62.9539   32.1873   49.8300 H   0  0  0  0  0  0  0  0  0  0  0  0
   63.5250   33.1170   47.9610 C   0  0  0  0  0  0  0  0  0  0  0  0
   64.6026   33.0053   48.1513 H   0  0  0  0  0  0  0  0  0  0  0  0
   63.0840   33.7180   46.7790 C   0  0  0  0  0  0  0  0  0  0  0  0
   63.8138   34.0766   46.0382 H   0  0  0  0  0  0  0  0  0  0  0  0
   61.7150   33.8630   46.5390 C   0  0  0  0  0  0  0  0  0  0  0  0
   61.3694   34.3386   45.6093 H   0  0  0  0  0  0  0  0  0  0  0  0
   60.7820   33.4060   47.4760 C   0  0  0  0  0  0  0  0  0  0  0  0
   59.4610   33.5920   47.2340 F   0  0  0  0  0  0  0  0  0  0  0  0
   59.0290   33.0450   49.8820 C   0  0  0  0  0  0  0  0  0  0  0  0
   59.1932   33.7653   50.6970 H   0  0  0  0  0  0  0  0  0  0  0  0
   58.7433   33.5736   48.9606 H   0  0  0  0  0  0  0  0  0  0  0  0
   57.8990   32.0880   50.2750 C   0  0  0  0  0  0  0  0  0  0  0  0
   57.0539   32.6762   50.6619 H   0  0  0  0  0  0  0  0  0  0  0  0
   57.6100   31.5176   49.3799 H   0  0  0  0  0  0  0  0  0  0  0  0
   56.0310   30.7210   52.0190 N   0  0  0  0  0  0  0  0  0  0  0  0
   55.1310   29.9220   52.6400 C   0  0  0  0  0  0  0  0  0  0  0  0
  1  2  1  0
  2  3  1  0
  3  4  1  0
  4  5  1  0
  5  6  2  0
  5  7  1  0
  7  8  1  0
  8  9  1  0
  2 10  2  0
 10 11  1  0
 11 12  1  0
 11 13  2  0
 13 14  1  0
 13 15  1  0
 15 16  1  0
 16 17  2  0
 17 18  1  0
 18 19  1  0
 18 20  1  0
 20 21  1  0
 20 22  1  0
 20 23  1  0
 23 24  1  0
 23 25  1  0
 16 26  1  0
 26 27  2  0
 27 28  1  0
 28 29  1  0
 29 30  1  0
 29 31  1  0
 29 32  1  0
 32 33  1  0
 32 34  1  0
 32 35  1  0
 35 36  1  0
 36 37  2  0
 37 38  1  0
 37 39  1  0
 39 40  1  0
 39 41  2  0
 41 42  1  0
 41 43  1  0
 43 44  1  0
 43 45  2  0
 45 46  1  0
 35 47  1  0
 47 48  1  0
 47 49  1  0
 47 50  1  0
 50 51  1  0
 50 52  1  0
 27 53  1  0
 53 54  2  0
  8  3  2  0
 54 10  1  0
 54 15  1  0
 23 18  1  0
 50 28  1  0
 45 36  1  0
M  CHG  4   4  -1   7  -1   9  -1  13   1
M  END
>  <UniqueID>  (41) 
40

>  <SMILES>  (41) 
O=c1[n-]c([O-])c(/C=c2\c[nH+]n3/c(=N/C4CC4)nc(N4CCN(c5ccccc5F)CC4)nc23)[n-]1

>  <Energy>  (41) 
413.9400900213804

>  <Genealogy>  (41) 
O=c1[n-]c([O-])c(C=c2c[nH+]n3c(=NC4CC4)nc(N4CCN(c5ccccc5F)CC4)nc23)[n-]1 (protonated)
O=c1[n-]c([O-])c(/C=c2\c[nH+]n3/c(=N/C4CC4)nc(N4CCN(c5ccccc5F)CC4)nc23)[n-]1 (cis-trans isomerization)
O=c1[n-]c([O-])c(/C=c2\c[nH+]n3/c(=N/C4CC4)nc(N4CCN(c5ccccc5F)CC4)nc23)[n-]1 (3D coordinates assigned)
O=c1[n-]c([O-])c(/C=c2\c[nH+]n3/c(=N/C4CC4)nc(N4CCN(c5ccccc5F)CC4)nc23)[n-]1 (nonaromatic ring conformer: 413.9400900213804 kcal/mol)

>  <smiles>  (41) 
O=c1[nH]c(O)c(C=c2cnn3c(=NC4CC4)nc(N4CCN(c5ccccc5F)CC4)nc23)[nH]1

>  <score_type>  (41) 
oracle

>  <origin>  (41) 
adg

>  <m_score__min__energy>  (41) 
-16.579999999999998

>  <m_primary>  (41) 
energy

$$$$
41:0
     RDKit          3D

 56 60  0  0  0  0  0  0  0  0999 V2000
   55.7520   29.9580   53.7320 C   0  0  0  0  0  0  0  0  0  0  0  0
   56.6840   30.8710   52.9930 C   0  0  0  0  0  0  0  0  0  0  0  0
   57.6250   31.6390   53.6940 C   0  0  0  0  0  0  0  0  0  0  0  0
   58.5190   32.4610   53.0030 C   0  0  0  0  0  0  0  0  0  0  0  0
   58.4930   32.5300   51.6000 C   0  0  0  0  0  0  0  0  0  0  0  0
   59.4690   33.4130   50.9170 C   0  0  0  0  0  0  0  0  0  0  0  0
   60.7890   33.3940   51.1520 C   0  0  0  0  0  0  0  0  0  0  0  0
   61.6580   32.2690   50.7470 C   0  0  0  0  0  0  0  0  0  0  0  0
   62.6630   32.0080   51.4610 O   0  0  0  0  0  0  0  0  0  0  0  0
   61.3900   31.4310   49.5530 C   0  0  0  0  0  0  0  0  0  0  0  0
   61.9030   31.7840   48.2920 C   0  0  0  0  0  0  0  0  0  0  0  0
   61.6310   30.9930   47.1720 C   0  0  0  0  0  0  0  0  0  0  0  0
   60.8600   29.8330   47.2960 C   0  0  0  0  0  0  0  0  0  0  0  0
   60.5550   29.0620   46.1260 N   0  0  0  0  0  0  0  0  0  0  0  0
   59.4330   28.4920   45.7530 C   0  0  0  0  0  0  0  0  0  0  0  0
   59.1690   27.0920   45.8680 C   0  0  0  0  0  0  0  0  0  0  0  0
   60.1820   26.1170   46.0070 C   0  0  0  0  0  0  0  0  0  0  0  0
   59.8660   24.7670   46.1680 C   0  0  0  0  0  0  0  0  0  0  0  0
   58.5330   24.3370   46.1460 C   0  0  0  0  0  0  0  0  0  0  0  0
   58.2050   22.9470   46.3240 N   0  0  0  0  0  0  0  0  0  0  0  0
   58.7070   22.0740   45.5850 O   0  0  0  0  0  0  0  0  0  0  0  0
   57.3440   22.5530   47.3210 O   0  0  0  0  0  0  0  0  0  0  0  0
   57.5250   25.2790   45.9010 C   0  0  0  0  0  0  0  0  0  0  0  0
   57.8330   26.6390   45.7210 C   0  0  0  0  0  0  0  0  0  0  0  0
   56.8470   27.5060   45.3620 N   0  0  0  0  0  0  0  0  0  0  0  0
   57.1020   28.8130   45.0770 C   0  0  0  0  0  0  0  0  0  0  0  0
   56.0680   29.6610   44.6260 C   0  0  0  0  0  0  0  0  0  0  0  0
   54.7770   29.1760   44.4460 O   0  0  0  0  0  0  0  0  0  0  0  0
   56.3290   31.0050   44.3520 C   0  0  0  0  0  0  0  0  0  0  0  0
   57.6100   31.5220   44.5270 C   0  0  0  0  0  0  0  0  0  0  0  0
   58.6430   30.6990   44.9790 C   0  0  0  0  0  0  0  0  0  0  0  0
   58.4090   29.3320   45.2540 C   0  0  0  0  0  0  0  0  0  0  0  0
   60.2960   29.5090   48.5410 C   0  0  0  0  0  0  0  0  0  0  0  0
   60.5660   30.2990   49.6620 C   0  0  0  0  0  0  0  0  0  0  0  0
   57.5680   31.7310   50.8990 C   0  0  0  0  0  0  0  0  0  0  0  0
   56.6750   30.9080   51.5920 C   0  0  0  0  0  0  0  0  0  0  0  0
   55.8892   30.0924   54.8151 H   0  0  0  0  0  0  0  0  0  0  0  0
   54.7130   30.1975   53.4615 H   0  0  0  0  0  0  0  0  0  0  0  0
   55.9700   28.9143   53.4615 H   0  0  0  0  0  0  0  0  0  0  0  0
   57.6594   31.5941   54.7925 H   0  0  0  0  0  0  0  0  0  0  0  0
   59.2512   33.0607   53.5636 H   0  0  0  0  0  0  0  0  0  0  0  0
   59.0870   34.1269   50.1724 H   0  0  0  0  0  0  0  0  0  0  0  0
   61.2445   34.2520   51.6681 H   0  0  0  0  0  0  0  0  0  0  0  0
   62.5216   32.6874   48.1865 H   0  0  0  0  0  0  0  0  0  0  0  0
   62.0257   31.2847   46.1876 H   0  0  0  0  0  0  0  0  0  0  0  0
   61.2373   26.4269   45.9880 H   0  0  0  0  0  0  0  0  0  0  0  0
   60.6722   24.0330   46.3137 H   0  0  0  0  0  0  0  0  0  0  0  0
   56.4768   24.9495   45.8487 H   0  0  0  0  0  0  0  0  0  0  0  0
   55.8730   27.1400   45.2560 H   0  0  0  0  0  0  0  0  0  0  0  0
   55.5188   31.6585   43.9962 H   0  0  0  0  0  0  0  0  0  0  0  0
   57.8085   32.5817   44.3085 H   0  0  0  0  0  0  0  0  0  0  0  0
   59.6497   31.1184   45.1227 H   0  0  0  0  0  0  0  0  0  0  0  0
   59.6399   28.6310   48.6340 H   0  0  0  0  0  0  0  0  0  0  0  0
   60.1302   30.0323   50.6361 H   0  0  0  0  0  0  0  0  0  0  0  0
   57.5483   31.7549   49.7994 H   0  0  0  0  0  0  0  0  0  0  0  0
   55.9605   30.2853   51.0337 H   0  0  0  0  0  0  0  0  0  0  0  0
  1  2  1  0
  2  3  2  0
  3  4  1  0
  4  5  2  0
  5  6  1  0
  6  7  2  3
  7  8  1  0
  8  9  2  0
  8 10  1  0
 10 11  2  0
 11 12  1  0
 12 13  2  0
 13 14  1  0
 14 15  2  3
 15 16  1  0
 16 17  2  0
 17 18  1  0
 18 19  2  0
 19 20  1  0
 20 21  2  0
 20 22  1  0
 19 23  1  0
 23 24  2  0
 24 25  1  0
 25 26  1  0
 26 27  2  0
 27 28  1  0
 27 29  1  0
 29 30  2  0
 30 31  1  0
 31 32  2  0
 13 33  1  0
 33 34  2  0
  5 35  1  0
 35 36  2  0
 36  2  1  0
 34 10  1  0
 32 15  1  0
 24 16  1  0
 32 26  1  0
  1 37  1  0
  1 38  1  0
  1 39  1  0
  3 40  1  0
  4 41  1  0
  6 42  1  0
  7 43  1  0
 11 44  1  0
 12 45  1  0
 17 46  1  0
 18 47  1  0
 23 48  1  0
 25 49  1  0
 29 50  1  0
 30 51  1  0
 31 52  1  0
 33 53  1  0
 34 54  1  0
 35 55  1  0
 36 56  1  0
M  CHG  3  20   1  22  -1  28  -1
M  END
>  <UniqueID>  (42) 
41

>  <SMILES>  (42) 
Cc1ccc(C=CC(=O)c2ccc(N=c3c4ccc([N+](=O)[O-])cc4[nH]c4c([O-])cccc34)cc2)cc1

>  <Energy>  (42) 
100.60879030447319

>  <Genealogy>  (42) 
Cc1ccc(C=CC(=O)c2ccc(N=c3c4ccc([N+](=O)[O-])cc4[nH]c4c([O-])cccc34)cc2)cc1 (protonated)
Cc1ccc(C=CC(=O)c2ccc(N=c3c4ccc([N+](=O)[O-])cc4[nH]c4c([O-])cccc34)cc2)cc1 (3D coordinates assigned)
Cc1ccc(C=CC(=O)c2ccc(N=c3c4ccc([N+](=O)[O-])cc4[nH]c4c([O-])cccc34)cc2)cc1 (optimized conformer: 100.60879030447319 kcal/mol)

>  <smiles>  (42) 
Cc1ccc(C=CC(=O)c2ccc(N=c3c4ccc([N+](=O)[O-])cc4[nH]c4c(O)cccc34)cc2)cc1

>  <score_type>  (42) 
oracle

>  <origin>  (42) 
adg

>  <m_score__min__energy>  (42) 
-12.949999999999999

>  <m_primary>  (42) 
energy

$$$$
42:0
     RDKit          3D

 61 64  0  0  0  0  0  0  0  0999 V2000
   56.5824   34.0237   44.3096 H   0  0  0  0  0  0  0  0  0  0  0  0
   57.4930   33.8810   44.9100 C   0  0  0  0  0  0  0  0  0  0  0  0
   58.5070   34.8400   44.8770 C   0  0  0  0  0  0  0  0  0  0  0  0
   58.3947   35.7380   44.2517 H   0  0  0  0  0  0  0  0  0  0  0  0
   59.6640   34.6590   45.6380 C   0  0  0  0  0  0  0  0  0  0  0  0
   60.4618   35.4157   45.6073 H   0  0  0  0  0  0  0  0  0  0  0  0
   59.8160   33.5180   46.4420 C   0  0  0  0  0  0  0  0  0  0  0  0
   61.0210   33.3380   47.2030 N   0  0  0  0  0  0  0  0  0  0  0  0
   60.9510   33.1610   48.6580 C   0  0  0  0  0  0  0  0  0  0  0  0
   61.1636   34.1227   49.1478 H   0  0  0  0  0  0  0  0  0  0  0  0
   59.9421   32.8093   48.9196 H   0  0  0  0  0  0  0  0  0  0  0  0
   61.9770   32.1120   49.1390 C   0  0  0  0  0  0  0  0  0  0  0  0
   62.4663   32.4920   50.0479 H   0  0  0  0  0  0  0  0  0  0  0  0
   61.4275   31.1778   49.3271 H   0  0  0  0  0  0  0  0  0  0  0  0
   63.0150   31.8170   48.1360 N   0  0  0  0  0  0  0  0  0  0  0  0
   63.8410   31.4080   48.6330 H   0  0  0  0  0  0  0  0  0  0  0  0
   63.4550   33.0360   47.4530 C   0  0  0  0  0  0  0  0  0  0  0  0
   63.7147   33.8017   48.1988 H   0  0  0  0  0  0  0  0  0  0  0  0
   64.3379   32.8141   46.8355 H   0  0  0  0  0  0  0  0  0  0  0  0
   62.3220   33.5540   46.5610 C   0  0  0  0  0  0  0  0  0  0  0  0
   62.4640   34.6304   46.3845 H   0  0  0  0  0  0  0  0  0  0  0  0
   62.3425   33.0065   45.6071 H   0  0  0  0  0  0  0  0  0  0  0  0
   58.7940   32.5460   46.4640 C   0  0  0  0  0  0  0  0  0  0  0  0
   58.9500   31.0400   47.4380 S   0  0  0  0  0  0  0  0  0  0  0  0
   58.6140   29.9020   46.0490 C   0  0  0  0  0  0  0  0  0  0  0  0
   59.4532   29.9425   45.3390 H   0  0  0  0  0  0  0  0  0  0  0  0
   57.6802   30.2127   45.5577 H   0  0  0  0  0  0  0  0  0  0  0  0
   58.4520   28.4880   46.5410 C   0  0  0  0  0  0  0  0  0  0  0  0
   57.2900   27.8400   46.2540 N   0  0  0  0  0  0  0  0  0  0  0  0
   57.0470   26.5630   46.6460 C   0  0  0  0  0  0  0  0  0  0  0  0
   55.9110   26.0180   46.3130 N   0  0  0  0  0  0  0  0  0  0  0  0
   55.6690   24.6880   45.8270 C   0  0  0  0  0  0  0  0  0  0  0  0
   54.6950   24.0120   46.2580 O   0  0  0  0  0  0  0  0  0  0  0  0
   56.4940   24.1670   44.6900 C   0  0  0  0  0  0  0  0  0  0  0  0
   55.9547   24.3367   43.7464 H   0  0  0  0  0  0  0  0  0  0  0  0
   57.4574   24.6978   44.6829 H   0  0  0  0  0  0  0  0  0  0  0  0
   56.7570   22.6990   44.8480 C   0  0  0  0  0  0  0  0  0  0  0  0
   55.8160   21.6850   44.8650 C   0  0  0  0  0  0  0  0  0  0  0  0
   54.7246   21.8168   44.8278 H   0  0  0  0  0  0  0  0  0  0  0  0
   56.4680   20.5080   44.9350 N   0  0  0  0  0  0  0  0  0  0  0  0
   55.8540   19.1870   44.8860 C   0  0  0  0  0  0  0  0  0  0  0  0
   55.6848   18.8231   45.9102 H   0  0  0  0  0  0  0  0  0  0  0  0
   54.8924   19.2491   44.3554 H   0  0  0  0  0  0  0  0  0  0  0  0
   56.5214   18.4919   44.3554 H   0  0  0  0  0  0  0  0  0  0  0  0
   57.7740   20.7230   44.9300 N   0  0  0  0  0  0  0  0  0  0  0  0
   58.5040   19.9750   44.9380 H   0  0  0  0  0  0  0  0  0  0  0  0
   57.9860   22.0520   44.8830 C   0  0  0  0  0  0  0  0  0  0  0  0
   59.3360   22.6900   44.8240 C   0  0  0  0  0  0  0  0  0  0  0  0
   59.7043   22.8640   45.8458 H   0  0  0  0  0  0  0  0  0  0  0  0
   60.0325   22.0258   44.2914 H   0  0  0  0  0  0  0  0  0  0  0  0
   59.2650   23.6498   44.2914 H   0  0  0  0  0  0  0  0  0  0  0  0
   58.0500   25.8800   47.3570 C   0  0  0  0  0  0  0  0  0  0  0  0
   57.8920   24.8402   47.6792 H   0  0  0  0  0  0  0  0  0  0  0  0
   59.2150   26.5160   47.6420 N   0  0  0  0  0  0  0  0  0  0  0  0
   59.4500   27.8010   47.2650 C   0  0  0  0  0  0  0  0  0  0  0  0
   60.7650   28.4270   47.6270 C   0  0  0  0  0  0  0  0  0  0  0  0
   60.8604   28.4724   48.7219 H   0  0  0  0  0  0  0  0  0  0  0  0
   61.5853   27.8228   47.2122 H   0  0  0  0  0  0  0  0  0  0  0  0
   60.8132   29.4447   47.2122 H   0  0  0  0  0  0  0  0  0  0  0  0
   57.6330   32.7410   45.7040 C   0  0  0  0  0  0  0  0  0  0  0  0
   56.8278   31.9922   45.7331 H   0  0  0  0  0  0  0  0  0  0  0  0
  1  2  1  0
  2  3  2  0
  3  4  1  0
  3  5  1  0
  5  6  1  0
  5  7  2  0
  7  8  1  0
  8  9  1  0
  9 10  1  0
  9 11  1  0
  9 12  1  0
 12 13  1  0
 12 14  1  0
 12 15  1  0
 15 16  1  0
 15 17  1  0
 17 18  1  0
 17 19  1  0
 17 20  1  0
 20 21  1  0
 20 22  1  0
  7 23  1  0
 23 24  1  0
 24 25  1  0
 25 26  1  0
 25 27  1  0
 25 28  1  0
 28 29  1  0
 29 30  1  0
 30 31  2  0
 31 32  1  0
 32 33  2  0
 32 34  1  0
 34 35  1  0
 34 36  1  0
 34 37  1  0
 37 38  2  0
 38 39  1  0
 38 40  1  0
 40 41  1  0
 41 42  1  0
 41 43  1  0
 41 44  1  0
 40 45  1  0
 45 46  1  0
 45 47  2  0
 47 48  1  0
 48 49  1  0
 48 50  1  0
 48 51  1  0
 30 52  1  0
 52 53  1  0
 52 54  2  0
 54 55  1  0
 55 56  1  0
 56 57  1  0
 56 58  1  0
 56 59  1  0
 23 60  2  0
 60 61  1  0
 60  2  1  0
 20  8  1  0
 55 28  2  0
 47 37  1  0
M  CHG  2  29  -1  45   1
M  END
>  <UniqueID>  (43) 
42

>  <SMILES>  (43) 
Cc1nc/c(=N\C(=O)Cc2cn(C)[nH+]c2C)[n-]c1CSc1ccccc1N1CCNCC1

>  <Energy>  (43) 
101.1624712653078

>  <Genealogy>  (43) 
Cc1ncc(=NC(=O)Cc2cn(C)[nH+]c2C)[n-]c1CSc1ccccc1N1CCNCC1 (protonated)
Cc1nc/c(=N\C(=O)Cc2cn(C)[nH+]c2C)[n-]c1CSc1ccccc1N1CCNCC1 (cis-trans isomerization)
Cc1nc/c(=N\C(=O)Cc2cn(C)[nH+]c2C)[n-]c1CSc1ccccc1N1CCNCC1 (3D coordinates assigned)
Cc1nc/c(=N\C(=O)Cc2cn(C)[nH+]c2C)[n-]c1CSc1ccccc1N1CCNCC1 (nonaromatic ring conformer: 101.1624712653078 kcal/mol)

>  <smiles>  (43) 
Cc1nn(C)cc1CC(=O)N=c1cnc(C)c(CSc2ccccc2N2CCNCC2)[nH]1

>  <score_type>  (43) 
oracle

>  <origin>  (43) 
adg

>  <m_score__min__energy>  (43) 
-10.789999999999999

>  <m_primary>  (43) 
energy

$$$$
43:0
     RDKit          3D

 58 61  0  0  0  0  0  0  0  0999 V2000
   53.9330   30.4720   55.3920 C   0  0  0  0  0  0  0  0  0  0  0  0
   54.2550   30.2460   53.9740 N   0  0  0  0  0  0  0  0  0  0  0  0
   53.1850   29.4620   53.3160 C   0  0  0  0  0  0  0  0  0  0  0  0
   52.4990   30.3080   52.2790 C   0  0  0  0  0  0  0  0  0  0  0  0
   52.5140   29.9100   50.9320 C   0  0  0  0  0  0  0  0  0  0  0  0
   51.8950   30.6980   49.9570 C   0  0  0  0  0  0  0  0  0  0  0  0
   51.2650   31.8930   50.3180 C   0  0  0  0  0  0  0  0  0  0  0  0
   50.6490   32.6690   49.3450 O   0  0  0  0  0  0  0  0  0  0  0  0
   51.2590   32.3040   51.6570 C   0  0  0  0  0  0  0  0  0  0  0  0
   50.6440   33.4980   52.0190 O   0  0  0  0  0  0  0  0  0  0  0  0
   51.8740   31.5150   52.6350 C   0  0  0  0  0  0  0  0  0  0  0  0
   55.5670   29.5780   53.8450 C   0  0  0  0  0  0  0  0  0  0  0  0
   56.5560   30.5100   53.1970 C   0  0  0  0  0  0  0  0  0  0  0  0
   57.1470   31.5510   53.9280 C   0  0  0  0  0  0  0  0  0  0  0  0
   58.1060   32.3740   53.3320 C   0  0  0  0  0  0  0  0  0  0  0  0
   58.4720   32.1740   51.9960 C   0  0  0  0  0  0  0  0  0  0  0  0
   59.4300   33.0000   51.4180 O   0  0  0  0  0  0  0  0  0  0  0  0
   57.8690   31.1550   51.2440 C   0  0  0  0  0  0  0  0  0  0  0  0
   58.2490   30.9860   49.8710 N   0  0  0  0  0  0  0  0  0  0  0  0
   59.2550   30.0930   49.3810 C   0  0  0  0  0  0  0  0  0  0  0  0
   58.9430   28.9760   48.8880 O   0  0  0  0  0  0  0  0  0  0  0  0
   60.6210   30.5110   49.4020 N   0  0  0  0  0  0  0  0  0  0  0  0
   61.1510   31.6120   48.6490 C   0  0  0  0  0  0  0  0  0  0  0  0
   60.6250   31.8580   47.3730 C   0  0  0  0  0  0  0  0  0  0  0  0
   61.0630   32.9530   46.6240 C   0  0  0  0  0  0  0  0  0  0  0  0
   62.0360   33.8090   47.1420 C   0  0  0  0  0  0  0  0  0  0  0  0
   62.5940   33.5560   48.3970 C   0  0  0  0  0  0  0  0  0  0  0  0
   62.1900   32.4420   49.1450 C   0  0  0  0  0  0  0  0  0  0  0  0
   62.8390   32.1960   50.3630 O   0  0  0  0  0  0  0  0  0  0  0  0
   64.2090   31.9320   50.5050 C   0  0  0  0  0  0  0  0  0  0  0  0
   64.6830   30.7850   51.1710 C   0  0  0  0  0  0  0  0  0  0  0  0
   66.0580   30.5750   51.3160 C   0  0  0  0  0  0  0  0  0  0  0  0
   66.9680   31.4980   50.7890 C   0  0  0  0  0  0  0  0  0  0  0  0
   66.5030   32.6240   50.1050 C   0  0  0  0  0  0  0  0  0  0  0  0
   65.1290   32.8390   49.9610 C   0  0  0  0  0  0  0  0  0  0  0  0
   56.9290   30.3100   51.8590 C   0  0  0  0  0  0  0  0  0  0  0  0
   54.6707   29.9542   56.0226 H   0  0  0  0  0  0  0  0  0  0  0  0
   53.9597   31.5505   55.6067 H   0  0  0  0  0  0  0  0  0  0  0  0
   52.9278   30.0802   55.6067 H   0  0  0  0  0  0  0  0  0  0  0  0
   53.6249   28.5771   52.8329 H   0  0  0  0  0  0  0  0  0  0  0  0
   52.4502   29.1449   54.0706 H   0  0  0  0  0  0  0  0  0  0  0  0
   53.0149   28.9743   50.6430 H   0  0  0  0  0  0  0  0  0  0  0  0
   51.9036   30.3776   48.9047 H   0  0  0  0  0  0  0  0  0  0  0  0
   51.8682   31.8405   53.6857 H   0  0  0  0  0  0  0  0  0  0  0  0
   55.9322   29.2958   54.8435 H   0  0  0  0  0  0  0  0  0  0  0  0
   55.4553   28.6786   53.2216 H   0  0  0  0  0  0  0  0  0  0  0  0
   56.8543   31.7202   54.9748 H   0  0  0  0  0  0  0  0  0  0  0  0
   58.5745   33.1811   53.9143 H   0  0  0  0  0  0  0  0  0  0  0  0
   59.8614   31.1836   46.9583 H   0  0  0  0  0  0  0  0  0  0  0  0
   60.6408   33.1405   45.6257 H   0  0  0  0  0  0  0  0  0  0  0  0
   62.3637   34.6838   46.5612 H   0  0  0  0  0  0  0  0  0  0  0  0
   63.3572   34.2370   48.8018 H   0  0  0  0  0  0  0  0  0  0  0  0
   63.9701   30.0528   51.5780 H   0  0  0  0  0  0  0  0  0  0  0  0
   66.4246   29.6830   51.8451 H   0  0  0  0  0  0  0  0  0  0  0  0
   68.0491   31.3372   50.9132 H   0  0  0  0  0  0  0  0  0  0  0  0
   67.2189   33.3424   49.6791 H   0  0  0  0  0  0  0  0  0  0  0  0
   64.7679   33.7248   49.4178 H   0  0  0  0  0  0  0  0  0  0  0  0
   56.4816   29.4843   51.2862 H   0  0  0  0  0  0  0  0  0  0  0  0
  1  2  1  0
  2  3  1  0
  3  4  1  0
  4  5  2  0
  5  6  1  0
  6  7  2  0
  7  8  1  0
  7  9  1  0
  9 10  1  0
  9 11  2  0
  2 12  1  0
 12 13  1  0
 13 14  2  0
 14 15  1  0
 15 16  2  0
 16 17  1  0
 16 18  1  0
 18 19  1  0
 19 20  1  0
 20 21  2  0
 20 22  1  0
 22 23  1  0
 23 24  2  0
 24 25  1  0
 25 26  2  0
 26 27  1  0
 27 28  2  0
 28 29  1  0
 29 30  1  0
 30 31  2  0
 31 32  1  0
 32 33  2  0
 33 34  1  0
 34 35  2  0
 18 36  2  0
 11  4  1  0
 36 13  1  0
 28 23  1  0
 35 30  1  0
  1 37  1  0
  1 38  1  0
  1 39  1  0
  3 40  1  0
  3 41  1  0
  5 42  1  0
  6 43  1  0
 11 44  1  0
 12 45  1  0
 12 46  1  0
 14 47  1  0
 15 48  1  0
 24 49  1  0
 25 50  1  0
 26 51  1  0
 27 52  1  0
 31 53  1  0
 32 54  1  0
 33 55  1  0
 34 56  1  0
 35 57  1  0
 36 58  1  0
M  CHG  5   8  -1  10  -1  17  -1  19  -1  22  -1
M  END
>  <UniqueID>  (44) 
43

>  <SMILES>  (44) 
CN(Cc1ccc([O-])c([O-])c1)Cc1ccc([O-])c([N-]C(=O)[N-]c2ccccc2Oc2ccccc2)c1

>  <Energy>  (44) 
78.5351493920601

>  <Genealogy>  (44) 
CN(Cc1ccc([O-])c([O-])c1)Cc1ccc([O-])c([N-]C(=O)[N-]c2ccccc2Oc2ccccc2)c1 (protonated)
CN(Cc1ccc([O-])c([O-])c1)Cc1ccc([O-])c([N-]C(=O)[N-]c2ccccc2Oc2ccccc2)c1 (3D coordinates assigned)
CN(Cc1ccc([O-])c([O-])c1)Cc1ccc([O-])c([N-]C(=O)[N-]c2ccccc2Oc2ccccc2)c1 (optimized conformer: 78.5351493920601 kcal/mol)

>  <smiles>  (44) 
CN(Cc1ccc(O)c(O)c1)Cc1ccc(O)c(NC(=O)Nc2ccccc2Oc2ccccc2)c1

>  <score_type>  (44) 
oracle

>  <origin>  (44) 
adg

>  <m_score__min__energy>  (44) 
-21.420000000000002

>  <m_primary>  (44) 
energy

$$$$
44:0
     RDKit          3D

 44 47  0  0  0  0  0  0  0  0999 V2000
   55.8100   26.9810   45.6200 O   0  0  0  0  0  0  0  0  0  0  0  0
   56.2920   28.0920   45.2700 C   0  0  0  0  0  0  0  0  0  0  0  0
   55.4530   29.0910   44.8980 N   0  0  0  0  0  0  0  0  0  0  0  0
   55.9090   30.2840   44.5190 N   0  0  0  0  0  0  0  0  0  0  0  0
   57.2360   30.5780   44.4850 C   0  0  0  0  0  0  0  0  0  0  0  0
   57.6380   31.9530   44.0070 C   0  0  0  0  0  0  0  0  0  0  0  0
   58.4390   32.6860   45.0550 C   0  0  0  0  0  0  0  0  0  0  0  0
   59.2200   33.7960   44.7000 C   0  0  0  0  0  0  0  0  0  0  0  0
   59.9580   34.4820   45.6680 C   0  0  0  0  0  0  0  0  0  0  0  0
   59.9170   34.0780   47.0150 C   0  0  0  0  0  0  0  0  0  0  0  0
   60.6590   34.7640   48.0400 N   0  0  0  0  0  0  0  0  0  0  0  0
   62.0320   34.0910   48.8610 S   0  0  0  0  0  0  0  0  0  0  0  0
   62.3260   34.9140   50.0840 O   0  0  0  0  0  0  0  0  0  0  0  0
   63.2230   34.1300   47.9470 O   0  0  0  0  0  0  0  0  0  0  0  0
   61.7100   32.4150   49.3000 C   0  0  0  0  0  0  0  0  0  0  0  0
   61.6300   31.4330   48.3020 C   0  0  0  0  0  0  0  0  0  0  0  0
   61.3620   30.1040   48.6440 C   0  0  0  0  0  0  0  0  0  0  0  0
   61.1770   29.7490   49.9840 C   0  0  0  0  0  0  0  0  0  0  0  0
   60.8410   28.0810   50.4120 Cl  0  0  0  0  0  0  0  0  0  0  0  0
   61.2630   30.7250   50.9830 C   0  0  0  0  0  0  0  0  0  0  0  0
   61.5300   32.0550   50.6430 C   0  0  0  0  0  0  0  0  0  0  0  0
   59.1280   32.9720   47.3680 C   0  0  0  0  0  0  0  0  0  0  0  0
   58.3910   32.2860   46.4000 C   0  0  0  0  0  0  0  0  0  0  0  0
   58.1680   29.5810   44.8580 C   0  0  0  0  0  0  0  0  0  0  0  0
   59.5620   29.8020   44.8480 C   0  0  0  0  0  0  0  0  0  0  0  0
   60.4440   28.7860   45.2200 C   0  0  0  0  0  0  0  0  0  0  0  0
   59.9570   27.5400   45.6110 C   0  0  0  0  0  0  0  0  0  0  0  0
   58.5830   27.3000   45.6320 C   0  0  0  0  0  0  0  0  0  0  0  0
   57.6790   28.3120   45.2580 C   0  0  0  0  0  0  0  0  0  0  0  0
   58.2469   31.8519   43.0965 H   0  0  0  0  0  0  0  0  0  0  0  0
   56.7242   32.5301   43.8023 H   0  0  0  0  0  0  0  0  0  0  0  0
   59.2516   34.1287   43.6520 H   0  0  0  0  0  0  0  0  0  0  0  0
   60.5754   35.3439   45.3749 H   0  0  0  0  0  0  0  0  0  0  0  0
   60.4110   35.7520   48.2690 H   0  0  0  0  0  0  0  0  0  0  0  0
   61.7785   31.7090   47.2476 H   0  0  0  0  0  0  0  0  0  0  0  0
   61.2966   29.3369   47.8583 H   0  0  0  0  0  0  0  0  0  0  0  0
   61.1204   30.4457   52.0374 H   0  0  0  0  0  0  0  0  0  0  0  0
   61.5989   32.8199   51.4305 H   0  0  0  0  0  0  0  0  0  0  0  0
   59.0898   32.6425   48.4168 H   0  0  0  0  0  0  0  0  0  0  0  0
   57.7692   31.4272   46.6931 H   0  0  0  0  0  0  0  0  0  0  0  0
   59.9566   30.7829   44.5446 H   0  0  0  0  0  0  0  0  0  0  0  0
   61.5285   28.9696   45.2045 H   0  0  0  0  0  0  0  0  0  0  0  0
   60.6577   26.7441   45.9037 H   0  0  0  0  0  0  0  0  0  0  0  0
   58.2041   26.3150   45.9424 H   0  0  0  0  0  0  0  0  0  0  0  0
  1  2  2  0
  2  3  1  0
  3  4  1  0
  4  5  2  0
  5  6  1  0
  6  7  1  0
  7  8  2  0
  8  9  1  0
  9 10  2  0
 10 11  1  0
 11 12  1  0
 12 13  2  0
 12 14  2  0
 12 15  1  0
 15 16  2  0
 16 17  1  0
 17 18  2  0
 18 19  1  0
 18 20  1  0
 20 21  2  0
 10 22  1  0
 22 23  2  0
  5 24  1  0
 24 25  2  0
 25 26  1  0
 26 27  2  0
 27 28  1  0
 28 29  2  0
 29  2  1  0
 23  7  1  0
 29 24  1  0
 21 15  1  0
  6 30  1  0
  6 31  1  0
  8 32  1  0
  9 33  1  0
 11 34  1  0
 16 35  1  0
 17 36  1  0
 20 37  1  0
 21 38  1  0
 22 39  1  0
 23 40  1  0
 25 41  1  0
 26 42  1  0
 27 43  1  0
 28 44  1  0
M  CHG  1   3  -1
M  END
>  <UniqueID>  (45) 
44

>  <SMILES>  (45) 
O=c1[n-]nc(Cc2ccc(NS(=O)(=O)c3ccc(Cl)cc3)cc2)c2ccccc12

>  <Energy>  (45) 
58.23604017893266

>  <Genealogy>  (45) 
O=c1[n-]nc(Cc2ccc(NS(=O)(=O)c3ccc(Cl)cc3)cc2)c2ccccc12 (protonated)
O=c1[n-]nc(Cc2ccc(NS(=O)(=O)c3ccc(Cl)cc3)cc2)c2ccccc12 (3D coordinates assigned)
O=c1[n-]nc(Cc2ccc(NS(=O)(=O)c3ccc(Cl)cc3)cc2)c2ccccc12 (optimized conformer: 58.23604017893266 kcal/mol)

>  <smiles>  (45) 
O=c1[nH]nc(Cc2ccc(NS(=O)(=O)c3ccc(Cl)cc3)cc2)c2ccccc12

>  <score_type>  (45) 
oracle

>  <origin>  (45) 
adg

>  <m_score__min__energy>  (45) 
-12.84

>  <m_primary>  (45) 
energy

$$$$
45:0
     RDKit          3D

 48 50  0  0  0  0  0  0  0  0999 V2000
   54.7710   26.7180   45.0340 H   0  0  0  0  0  0  0  0  0  0  0  0
   54.8900   26.3440   46.0010 N   0  0  0  0  0  0  0  0  0  0  0  0
   56.1870   26.1700   46.5690 C   0  0  0  0  0  0  0  0  0  0  0  0
   56.4250   25.1190   47.2240 O   0  0  0  0  0  0  0  0  0  0  0  0
   57.2520   27.1980   46.3980 C   0  0  0  0  0  0  0  0  0  0  0  0
   58.5060   26.9940   46.9790 C   0  0  0  0  0  0  0  0  0  0  0  0
   58.6996   26.0767   47.5544 H   0  0  0  0  0  0  0  0  0  0  0  0
   59.4820   27.9170   46.8380 N   0  0  0  0  0  0  0  0  0  0  0  0
   59.2900   29.0680   46.1420 C   0  0  0  0  0  0  0  0  0  0  0  0
   60.2660   29.9250   46.0140 N   0  0  0  0  0  0  0  0  0  0  0  0
   60.9590   30.6210   47.0630 C   0  0  0  0  0  0  0  0  0  0  0  0
   61.0280   30.1170   48.3730 C   0  0  0  0  0  0  0  0  0  0  0  0
   60.5672   29.1474   48.6128 H   0  0  0  0  0  0  0  0  0  0  0  0
   61.6800   30.8440   49.3710 C   0  0  0  0  0  0  0  0  0  0  0  0
   61.7376   30.4343   50.3902 H   0  0  0  0  0  0  0  0  0  0  0  0
   62.2620   32.0880   49.0930 C   0  0  0  0  0  0  0  0  0  0  0  0
   62.9080   32.7450   50.1570 O   0  0  0  0  0  0  0  0  0  0  0  0
   64.1030   33.5250   50.0940 C   0  0  0  0  0  0  0  0  0  0  0  0
   64.0149   34.2742   49.2934 H   0  0  0  0  0  0  0  0  0  0  0  0
   65.3080   32.6290   49.7840 C   0  0  0  0  0  0  0  0  0  0  0  0
   65.7644   32.2896   50.7255 H   0  0  0  0  0  0  0  0  0  0  0  0
   64.9761   31.7566   49.2020 H   0  0  0  0  0  0  0  0  0  0  0  0
   66.0479   33.1980   49.2020 H   0  0  0  0  0  0  0  0  0  0  0  0
   64.3020   34.2170   51.4410 C   0  0  0  0  0  0  0  0  0  0  0  0
   64.0970   33.5041   52.2533 H   0  0  0  0  0  0  0  0  0  0  0  0
   65.3393   34.5744   51.5199 H   0  0  0  0  0  0  0  0  0  0  0  0
   63.6130   35.0708   51.5199 H   0  0  0  0  0  0  0  0  0  0  0  0
   62.1550   32.6120   47.7840 C   0  0  0  0  0  0  0  0  0  0  0  0
   62.6490   33.8300   47.4530 F   0  0  0  0  0  0  0  0  0  0  0  0
   61.4990   31.8800   46.7880 C   0  0  0  0  0  0  0  0  0  0  0  0
   61.4073   32.3010   45.7759 H   0  0  0  0  0  0  0  0  0  0  0  0
   58.0790   29.3040   45.5330 N   0  0  0  0  0  0  0  0  0  0  0  0
   57.8840   30.5380   44.7350 C   0  0  0  0  0  0  0  0  0  0  0  0
   58.5709   30.5235   43.8760 H   0  0  0  0  0  0  0  0  0  0  0  0
   56.8395   30.5727   44.3917 H   0  0  0  0  0  0  0  0  0  0  0  0
   58.1590   31.7680   45.5670 C   0  0  0  0  0  0  0  0  0  0  0  0
   58.1020   31.6990   46.9710 C   0  0  0  0  0  0  0  0  0  0  0  0
   57.8360   30.7507   47.4608 H   0  0  0  0  0  0  0  0  0  0  0  0
   58.3810   32.8270   47.7480 C   0  0  0  0  0  0  0  0  0  0  0  0
   58.3374   32.7631   48.8453 H   0  0  0  0  0  0  0  0  0  0  0  0
   58.7150   34.0350   47.1320 C   0  0  0  0  0  0  0  0  0  0  0  0
   58.9850   35.1290   47.8860 F   0  0  0  0  0  0  0  0  0  0  0  0
   58.7680   34.1170   45.7380 C   0  0  0  0  0  0  0  0  0  0  0  0
   59.0279   35.0704   45.2548 H   0  0  0  0  0  0  0  0  0  0  0  0
   58.4920   32.9920   44.9550 C   0  0  0  0  0  0  0  0  0  0  0  0
   58.5430   33.1000   43.6050 F   0  0  0  0  0  0  0  0  0  0  0  0
   57.0590   28.3900   45.6650 C   0  0  0  0  0  0  0  0  0  0  0  0
   55.9370   28.6170   45.1320 O   0  0  0  0  0  0  0  0  0  0  0  0
  1  2  1  0
  2  3  1  0
  3  4  2  0
  3  5  1  0
  5  6  2  0
  6  7  1  0
  6  8  1  0
  8  9  1  0
  9 10  2  0
 10 11  1  0
 11 12  2  0
 12 13  1  0
 12 14  1  0
 14 15  1  0
 14 16  2  0
 16 17  1  0
 17 18  1  0
 18 19  1  0
 18 20  1  0
 20 21  1  0
 20 22  1  0
 20 23  1  0
 18 24  1  0
 24 25  1  0
 24 26  1  0
 24 27  1  0
 16 28  1  0
 28 29  1  0
 28 30  2  0
 30 31  1  0
  9 32  1  0
 32 33  1  0
 33 34  1  0
 33 35  1  0
 33 36  1  0
 36 37  2  0
 37 38  1  0
 37 39  1  0
 39 40  1  0
 39 41  2  0
 41 42  1  0
 41 43  1  0
 43 44  1  0
 43 45  2  0
 45 46  1  0
 32 47  1  0
 47 48  2  0
 47  5  1  0
 30 11  1  0
 45 36  1  0
M  CHG  2   2  -1   8  -1
M  END
>  <UniqueID>  (46) 
45

>  <SMILES>  (46) 
CC(C)Oc1ccc(/N=c2\[n-]cc(C([NH-])=O)c(=O)n2Cc2ccc(F)cc2F)cc1F

>  <Energy>  (46) 
62.67910555675029

>  <Genealogy>  (46) 
CC(C)Oc1ccc(N=c2[n-]cc(C([NH-])=O)c(=O)n2Cc2ccc(F)cc2F)cc1F (protonated)
CC(C)Oc1ccc(/N=c2\[n-]cc(C([NH-])=O)c(=O)n2Cc2ccc(F)cc2F)cc1F (cis-trans isomerization)
CC(C)Oc1ccc(/N=c2\[n-]cc(C([NH-])=O)c(=O)n2Cc2ccc(F)cc2F)cc1F (3D coordinates assigned)
CC(C)Oc1ccc(/N=c2\[n-]cc(C([NH-])=O)c(=O)n2Cc2ccc(F)cc2F)cc1F (optimized conformer: 62.67910555675029 kcal/mol)

>  <smiles>  (46) 
CC(C)Oc1ccc(N=c2[nH]cc(C(N)=O)c(=O)n2Cc2ccc(F)cc2F)cc1F

>  <score_type>  (46) 
oracle

>  <origin>  (46) 
adg

>  <m_score__min__energy>  (46) 
-11.92

>  <m_primary>  (46) 
energy

$$$$
46:0
     RDKit          3D

 60 63  0  0  0  0  0  0  0  0999 V2000
   55.9217   29.6341   43.7830 H   0  0  0  0  0  0  0  0  0  0  0  0
   56.7200   29.9800   44.4560 C   0  0  0  0  0  0  0  0  0  0  0  0
   56.7690   31.2770   44.8380 N   0  0  0  0  0  0  0  0  0  0  0  0
   57.7370   31.7340   45.6760 C   0  0  0  0  0  0  0  0  0  0  0  0
   57.7600   32.9820   46.0440 N   0  0  0  0  0  0  0  0  0  0  0  0
   57.8030   34.1070   45.1150 C   0  0  0  0  0  0  0  0  0  0  0  0
   57.5612   33.7543   44.1015 H   0  0  0  0  0  0  0  0  0  0  0  0
   57.0695   34.8655   45.4258 H   0  0  0  0  0  0  0  0  0  0  0  0
   59.2010   34.7220   45.1190 C   0  0  0  0  0  0  0  0  0  0  0  0
   59.7742   34.3213   44.2699 H   0  0  0  0  0  0  0  0  0  0  0  0
   59.1070   35.8147   45.0342 H   0  0  0  0  0  0  0  0  0  0  0  0
   59.9220   34.3960   46.4000 C   0  0  0  0  0  0  0  0  0  0  0  0
   61.1680   33.7480   46.3690 C   0  0  0  0  0  0  0  0  0  0  0  0
   61.6091   33.4542   45.4051 H   0  0  0  0  0  0  0  0  0  0  0  0
   61.8500   33.4750   47.5600 C   0  0  0  0  0  0  0  0  0  0  0  0
   62.8218   32.9604   47.5313 H   0  0  0  0  0  0  0  0  0  0  0  0
   61.2970   33.8560   48.7870 C   0  0  0  0  0  0  0  0  0  0  0  0
   61.8332   33.6390   49.7226 H   0  0  0  0  0  0  0  0  0  0  0  0
   60.0640   34.5120   48.8250 C   0  0  0  0  0  0  0  0  0  0  0  0
   59.6320   34.8142   49.7904 H   0  0  0  0  0  0  0  0  0  0  0  0
   59.3780   34.7850   47.6360 C   0  0  0  0  0  0  0  0  0  0  0  0
   58.4097   35.3058   47.6691 H   0  0  0  0  0  0  0  0  0  0  0  0
   58.7100   30.8400   46.1510 C   0  0  0  0  0  0  0  0  0  0  0  0
   59.6000   31.2610   46.9440 O   0  0  0  0  0  0  0  0  0  0  0  0
   58.6880   29.5210   45.7570 N   0  0  0  0  0  0  0  0  0  0  0  0
   59.7050   28.5870   46.2850 C   0  0  0  0  0  0  0  0  0  0  0  0
   60.7070   28.9603   46.0270 H   0  0  0  0  0  0  0  0  0  0  0  0
   59.5412   27.5953   45.8381 H   0  0  0  0  0  0  0  0  0  0  0  0
   59.5920   28.4700   47.7720 C   0  0  0  0  0  0  0  0  0  0  0  0
   58.4540   28.4570   48.3120 O   0  0  0  0  0  0  0  0  0  0  0  0
   60.7770   28.3620   48.5680 N   0  0  0  0  0  0  0  0  0  0  0  0
   60.7680   28.1280   50.0080 C   0  0  0  0  0  0  0  0  0  0  0  0
   59.7396   27.9114   50.3326 H   0  0  0  0  0  0  0  0  0  0  0  0
   61.4256   27.2753   50.2328 H   0  0  0  0  0  0  0  0  0  0  0  0
   61.2830   29.3590   50.7570 C   0  0  0  0  0  0  0  0  0  0  0  0
   61.5601   29.0694   51.7814 H   0  0  0  0  0  0  0  0  0  0  0  0
   62.1591   29.7577   50.2246 H   0  0  0  0  0  0  0  0  0  0  0  0
   60.2230   30.4250   50.8140 C   0  0  0  0  0  0  0  0  0  0  0  0
   59.9650   31.0980   52.0170 C   0  0  0  0  0  0  0  0  0  0  0  0
   60.5438   30.8569   52.9208 H   0  0  0  0  0  0  0  0  0  0  0  0
   58.9700   32.0750   52.0610 C   0  0  0  0  0  0  0  0  0  0  0  0
   58.7635   32.6112   52.9990 H   0  0  0  0  0  0  0  0  0  0  0  0
   58.2380   32.3690   50.9100 C   0  0  0  0  0  0  0  0  0  0  0  0
   57.4548   33.1411   50.9322 H   0  0  0  0  0  0  0  0  0  0  0  0
   58.5090   31.6740   49.7300 C   0  0  0  0  0  0  0  0  0  0  0  0
   57.9351   31.8966   48.8184 H   0  0  0  0  0  0  0  0  0  0  0  0
   59.4820   30.7210   49.7040 N   0  0  0  0  0  0  0  0  0  0  0  0
   59.6590   30.2140   48.8080 H   0  0  0  0  0  0  0  0  0  0  0  0
   57.6860   29.0790   44.9180 C   0  0  0  0  0  0  0  0  0  0  0  0
   57.5610   27.6650   44.5040 C   0  0  0  0  0  0  0  0  0  0  0  0
   57.8790   27.2990   43.1860 C   0  0  0  0  0  0  0  0  0  0  0  0
   58.2173   28.0635   42.4711 H   0  0  0  0  0  0  0  0  0  0  0  0
   57.7670   25.9670   42.7800 C   0  0  0  0  0  0  0  0  0  0  0  0
   58.0031   25.6871   41.7427 H   0  0  0  0  0  0  0  0  0  0  0  0
   57.3550   24.9890   43.6910 C   0  0  0  0  0  0  0  0  0  0  0  0
   57.2610   23.9415   43.3687 H   0  0  0  0  0  0  0  0  0  0  0  0
   57.0630   25.3430   45.0100 C   0  0  0  0  0  0  0  0  0  0  0  0
   56.7447   24.5719   45.7271 H   0  0  0  0  0  0  0  0  0  0  0  0
   57.1740   26.6750   45.4220 C   0  0  0  0  0  0  0  0  0  0  0  0
   56.9070   27.0000   46.7140 F   0  0  0  0  0  0  0  0  0  0  0  0
  1  2  1  0
  2  3  1  0
  3  4  1  0
  4  5  2  0
  5  6  1  0
  6  7  1  0
  6  8  1  0
  6  9  1  0
  9 10  1  0
  9 11  1  0
  9 12  1  0
 12 13  2  0
 13 14  1  0
 13 15  1  0
 15 16  1  0
 15 17  2  0
 17 18  1  0
 17 19  1  0
 19 20  1  0
 19 21  2  0
 21 22  1  0
  4 23  1  0
 23 24  2  0
 23 25  1  0
 25 26  1  0
 26 27  1  0
 26 28  1  0
 26 29  1  0
 29 30  2  0
 29 31  1  0
 31 32  1  0
 32 33  1  0
 32 34  1  0
 32 35  1  0
 35 36  1  0
 35 37  1  0
 35 38  1  0
 38 39  2  0
 39 40  1  0
 39 41  1  0
 41 42  1  0
 41 43  2  0
 43 44  1  0
 43 45  1  0
 45 46  1  0
 45 47  2  0
 47 48  1  0
 25 49  1  0
 49 50  1  0
 50 51  2  0
 51 52  1  0
 51 53  1  0
 53 54  1  0
 53 55  2  0
 55 56  1  0
 55 57  1  0
 57 58  1  0
 57 59  2  0
 59 60  1  0
 49  2  2  0
 59 50  1  0
 21 12  1  0
 47 38  1  0
M  CHG  3   3  -1  31  -1  47   1
M  END
>  <UniqueID>  (47) 
46

>  <SMILES>  (47) 
O=C(Cn1c(-c2ccccc2F)c[n-]/c(=N\CCc2ccccc2)c1=O)[N-]CCc1cccc[nH+]1

>  <Energy>  (47) 
67.6963114279567

>  <Genealogy>  (47) 
O=C(Cn1c(-c2ccccc2F)c[n-]c(=NCCc2ccccc2)c1=O)[N-]CCc1cccc[nH+]1 (protonated)
O=C(Cn1c(-c2ccccc2F)c[n-]/c(=N\CCc2ccccc2)c1=O)[N-]CCc1cccc[nH+]1 (cis-trans isomerization)
O=C(Cn1c(-c2ccccc2F)c[n-]/c(=N\CCc2ccccc2)c1=O)[N-]CCc1cccc[nH+]1 (3D coordinates assigned)
O=C(Cn1c(-c2ccccc2F)c[n-]/c(=N\CCc2ccccc2)c1=O)[N-]CCc1cccc[nH+]1 (optimized conformer: 67.6963114279567 kcal/mol)

>  <smiles>  (47) 
O=C(Cn1c(-c2ccccc2F)c[nH]c(=NCCc2ccccc2)c1=O)NCCc1ccccn1

>  <score_type>  (47) 
oracle

>  <origin>  (47) 
adg

>  <m_score__min__energy>  (47) 
-10.74

>  <m_primary>  (47) 
energy

$$$$
47:0
     RDKit          3D

 41 44  0  0  0  0  0  0  0  0999 V2000
   59.7790   31.0700   50.9280 C   0  0  0  0  0  0  0  0  0  0  0  0
   60.1150   31.6820   49.6460 N   0  0  0  0  0  0  0  0  0  0  0  0
   59.2430   32.0280   48.6700 C   0  0  0  0  0  0  0  0  0  0  0  0
   59.9270   32.5700   47.5860 C   0  0  0  0  0  0  0  0  0  0  0  0
   59.3120   33.0750   46.3440 C   0  0  0  0  0  0  0  0  0  0  0  0
   58.5130   32.4050   45.4990 C   0  0  0  0  0  0  0  0  0  0  0  0
   58.1500   30.9710   45.5520 C   0  0  0  0  0  0  0  0  0  0  0  0
   56.9920   30.5160   44.9000 C   0  0  0  0  0  0  0  0  0  0  0  0
   56.6290   29.1680   44.9630 C   0  0  0  0  0  0  0  0  0  0  0  0
   57.4200   28.2570   45.6750 C   0  0  0  0  0  0  0  0  0  0  0  0
   56.9640   26.5570   45.7480 S   0  0  0  0  0  0  0  0  0  0  0  0
   55.2660   26.4280   46.0430 N   0  0  0  0  0  0  0  0  0  0  0  0
   57.2980   25.8830   44.4470 O   0  0  0  0  0  0  0  0  0  0  0  0
   57.7190   25.8750   46.8530 O   0  0  0  0  0  0  0  0  0  0  0  0
   58.5890   28.7010   46.3050 C   0  0  0  0  0  0  0  0  0  0  0  0
   58.9540   30.0480   46.2420 C   0  0  0  0  0  0  0  0  0  0  0  0
   58.1320   33.3350   44.4300 C   0  0  0  0  0  0  0  0  0  0  0  0
   57.4050   33.0560   43.4400 O   0  0  0  0  0  0  0  0  0  0  0  0
   58.7290   34.6070   44.6270 N   0  0  0  0  0  0  0  0  0  0  0  0
   59.4740   34.4320   45.8210 C   0  0  0  0  0  0  0  0  0  0  0  0
   60.1630   35.3430   46.3520 O   0  0  0  0  0  0  0  0  0  0  0  0
   61.2710   32.5180   47.9220 C   0  0  0  0  0  0  0  0  0  0  0  0
   62.4180   32.8540   47.2000 C   0  0  0  0  0  0  0  0  0  0  0  0
   63.6660   32.6650   47.8200 C   0  0  0  0  0  0  0  0  0  0  0  0
   63.7430   32.1310   49.1240 C   0  0  0  0  0  0  0  0  0  0  0  0
   62.5740   31.7750   49.8190 C   0  0  0  0  0  0  0  0  0  0  0  0
   61.3460   31.9790   49.1840 C   0  0  0  0  0  0  0  0  0  0  0  0
   60.1329   31.7147   51.7460 H   0  0  0  0  0  0  0  0  0  0  0  0
   58.6881   30.9493   51.0020 H   0  0  0  0  0  0  0  0  0  0  0  0
   60.2627   30.0848   51.0020 H   0  0  0  0  0  0  0  0  0  0  0  0
   58.1520   31.8994   48.7257 H   0  0  0  0  0  0  0  0  0  0  0  0
   56.3673   31.2248   44.3366 H   0  0  0  0  0  0  0  0  0  0  0  0
   55.7190   28.8210   44.4517 H   0  0  0  0  0  0  0  0  0  0  0  0
   54.7820   26.7010   45.1590 H   0  0  0  0  0  0  0  0  0  0  0  0
   59.2222   27.9866   46.8515 H   0  0  0  0  0  0  0  0  0  0  0  0
   59.8764   30.3881   46.7355 H   0  0  0  0  0  0  0  0  0  0  0  0
   58.6580   35.4580   44.0250 H   0  0  0  0  0  0  0  0  0  0  0  0
   62.3476   33.2542   46.1778 H   0  0  0  0  0  0  0  0  0  0  0  0
   64.5883   32.9352   47.2850 H   0  0  0  0  0  0  0  0  0  0  0  0
   64.7249   31.9923   49.6001 H   0  0  0  0  0  0  0  0  0  0  0  0
   62.6244   31.3488   50.8318 H   0  0  0  0  0  0  0  0  0  0  0  0
  1  2  1  0
  2  3  1  0
  3  4  2  0
  4  5  1  0
  5  6  2  0
  6  7  1  0
  7  8  2  0
  8  9  1  0
  9 10  2  0
 10 11  1  0
 11 12  1  0
 11 13  2  0
 11 14  2  0
 10 15  1  0
 15 16  2  0
  6 17  1  0
 17 18  2  0
 17 19  1  0
 19 20  1  0
 20 21  2  0
  4 22  1  0
 22 23  2  0
 23 24  1  0
 24 25  2  0
 25 26  1  0
 26 27  2  0
 27  2  1  0
 20  5  1  0
 27 22  1  0
 16  7  1  0
  1 28  1  0
  1 29  1  0
  1 30  1  0
  3 31  1  0
  8 32  1  0
  9 33  1  0
 12 34  1  0
 15 35  1  0
 16 36  1  0
 19 37  1  0
 23 38  1  0
 24 39  1  0
 25 40  1  0
 26 41  1  0
M  CHG  1  12  -1
M  END
>  <UniqueID>  (48) 
47

>  <SMILES>  (48) 
Cn1cc(C2=C(c3ccc(S([NH-])(=O)=O)cc3)C(=O)NC2=O)c2ccccc21

>  <Energy>  (48) 
112.41288166837481

>  <Genealogy>  (48) 
Cn1cc(C2=C(c3ccc(S([NH-])(=O)=O)cc3)C(=O)NC2=O)c2ccccc21 (protonated)
Cn1cc(C2=C(c3ccc(S([NH-])(=O)=O)cc3)C(=O)NC2=O)c2ccccc21 (3D coordinates assigned)
Cn1cc(C2=C(c3ccc(S([NH-])(=O)=O)cc3)C(=O)NC2=O)c2ccccc21 (nonaromatic ring conformer: 112.41288166837481 kcal/mol)

>  <smiles>  (48) 
Cn1cc(C2=C(c3ccc(S(N)(=O)=O)cc3)C(=O)NC2=O)c2ccccc21

>  <score_type>  (48) 
oracle

>  <origin>  (48) 
adg

>  <m_score__min__energy>  (48) 
-11.66

>  <m_primary>  (48) 
energy

$$$$
48:0
     RDKit          3D

 68 72  0  0  0  0  0  0  0  0999 V2000
   63.8480   33.7980   48.0240 O   0  0  0  0  0  0  0  0  0  0  0  0
   63.0070   33.7560   48.9670 C   0  0  0  0  0  0  0  0  0  0  0  0
   61.7520   34.4250   48.7910 N   0  0  0  0  0  0  0  0  0  0  0  0
   60.6310   33.9640   48.0200 C   0  0  0  0  0  0  0  0  0  0  0  0
   60.5090   34.3880   46.6890 C   0  0  0  0  0  0  0  0  0  0  0  0
   59.4360   33.9600   45.9050 C   0  0  0  0  0  0  0  0  0  0  0  0
   58.4770   33.0950   46.4380 C   0  0  0  0  0  0  0  0  0  0  0  0
   57.4350   32.6480   45.6160 O   0  0  0  0  0  0  0  0  0  0  0  0
   57.4030   31.3970   44.9820 C   0  0  0  0  0  0  0  0  0  0  0  0
   58.0980   30.3290   45.5540 C   0  0  0  0  0  0  0  0  0  0  0  0
   58.0410   29.0590   44.9600 C   0  0  0  0  0  0  0  0  0  0  0  0
   58.7150   27.9070   45.5930 C   0  0  0  0  0  0  0  0  0  0  0  0
   59.9480   27.9840   45.8430 O   0  0  0  0  0  0  0  0  0  0  0  0
   57.9870   26.7250   45.9660 N   0  0  0  0  0  0  0  0  0  0  0  0
   58.3070   26.0590   47.2330 C   0  0  0  0  0  0  0  0  0  0  0  0
   57.4030   24.8440   47.4340 C   0  0  0  0  0  0  0  0  0  0  0  0
   56.0750   25.2000   47.1090 O   0  0  0  0  0  0  0  0  0  0  0  0
   55.9200   25.3600   45.7050 C   0  0  0  0  0  0  0  0  0  0  0  0
   57.1110   26.0520   44.9970 C   0  0  0  0  0  0  0  0  0  0  0  0
   57.2810   28.8890   43.7890 C   0  0  0  0  0  0  0  0  0  0  0  0
   56.5960   29.9800   43.2500 C   0  0  0  0  0  0  0  0  0  0  0  0
   56.6640   31.1960   43.8540 N   0  0  0  0  0  0  0  0  0  0  0  0
   58.5630   32.7160   47.7880 C   0  0  0  0  0  0  0  0  0  0  0  0
   59.6230   33.1610   48.5790 C   0  0  0  0  0  0  0  0  0  0  0  0
   63.2910   33.0050   50.1610 N   0  0  0  0  0  0  0  0  0  0  0  0
   64.6130   32.5730   50.5020 C   0  0  0  0  0  0  0  0  0  0  0  0
   64.8600   31.2120   50.7080 C   0  0  0  0  0  0  0  0  0  0  0  0
   66.1420   30.7560   51.0450 C   0  0  0  0  0  0  0  0  0  0  0  0
   66.3780   29.3530   51.2710 N   0  0  0  0  0  0  0  0  0  0  0  0
   65.3420   28.5670   51.9660 C   0  0  0  0  0  0  0  0  0  0  0  0
   65.7070   27.0740   52.0910 C   0  0  0  0  0  0  0  0  0  0  0  0
   66.4380   26.6350   50.9680 O   0  0  0  0  0  0  0  0  0  0  0  0
   67.7050   27.2570   50.9840 C   0  0  0  0  0  0  0  0  0  0  0  0
   67.5720   28.7490   50.6600 C   0  0  0  0  0  0  0  0  0  0  0  0
   67.1950   31.6780   51.1400 C   0  0  0  0  0  0  0  0  0  0  0  0
   66.9680   33.0470   50.9150 C   0  0  0  0  0  0  0  0  0  0  0  0
   68.1160   34.0290   50.9130 C   0  0  0  0  0  0  0  0  0  0  0  0
   68.7090   34.1020   49.6600 F   0  0  0  0  0  0  0  0  0  0  0  0
   67.6490   35.2800   51.2720 F   0  0  0  0  0  0  0  0  0  0  0  0
   69.0820   33.6340   51.8240 F   0  0  0  0  0  0  0  0  0  0  0  0
   65.6730   33.4840   50.5830 C   0  0  0  0  0  0  0  0  0  0  0  0
   61.2642   35.0627   46.2595 H   0  0  0  0  0  0  0  0  0  0  0  0
   59.3454   34.3049   44.8644 H   0  0  0  0  0  0  0  0  0  0  0  0
   58.6891   30.4832   46.4687 H   0  0  0  0  0  0  0  0  0  0  0  0
   59.3570   25.7317   47.2163 H   0  0  0  0  0  0  0  0  0  0  0  0
   58.1469   26.7660   48.0603 H   0  0  0  0  0  0  0  0  0  0  0  0
   57.7357   24.0245   46.7800 H   0  0  0  0  0  0  0  0  0  0  0  0
   57.4532   24.5127   48.4817 H   0  0  0  0  0  0  0  0  0  0  0  0
   55.7886   24.3631   45.2590 H   0  0  0  0  0  0  0  0  0  0  0  0
   55.0492   26.0166   45.5615 H   0  0  0  0  0  0  0  0  0  0  0  0
   57.6937   25.2947   44.4521 H   0  0  0  0  0  0  0  0  0  0  0  0
   56.7128   26.8077   44.3039 H   0  0  0  0  0  0  0  0  0  0  0  0
   57.2266   27.9044   43.3015 H   0  0  0  0  0  0  0  0  0  0  0  0
   55.9997   29.8551   42.3341 H   0  0  0  0  0  0  0  0  0  0  0  0
   57.7908   32.0651   48.2238 H   0  0  0  0  0  0  0  0  0  0  0  0
   59.6693   32.8825   49.6421 H   0  0  0  0  0  0  0  0  0  0  0  0
   62.5460   32.8770   50.8720 H   0  0  0  0  0  0  0  0  0  0  0  0
   64.0371   30.4895   50.6042 H   0  0  0  0  0  0  0  0  0  0  0  0
   65.2054   28.9810   52.9759 H   0  0  0  0  0  0  0  0  0  0  0  0
   64.4204   28.6334   51.3692 H   0  0  0  0  0  0  0  0  0  0  0  0
   66.3154   26.9273   52.9956 H   0  0  0  0  0  0  0  0  0  0  0  0
   64.7765   26.4905   52.1524 H   0  0  0  0  0  0  0  0  0  0  0  0
   68.1529   27.1414   51.9820 H   0  0  0  0  0  0  0  0  0  0  0  0
   68.3448   26.7828   50.2252 H   0  0  0  0  0  0  0  0  0  0  0  0
   68.4637   29.2725   51.0353 H   0  0  0  0  0  0  0  0  0  0  0  0
   67.4754   28.8471   49.5687 H   0  0  0  0  0  0  0  0  0  0  0  0
   68.2064   31.3270   51.3926 H   0  0  0  0  0  0  0  0  0  0  0  0
   65.4915   34.5508   50.3853 H   0  0  0  0  0  0  0  0  0  0  0  0
  1  2  2  0
  2  3  1  0
  3  4  1  0
  4  5  2  0
  5  6  1  0
  6  7  2  0
  7  8  1  0
  8  9  1  0
  9 10  2  0
 10 11  1  0
 11 12  1  0
 12 13  2  0
 12 14  1  0
 14 15  1  0
 15 16  1  0
 16 17  1  0
 17 18  1  0
 18 19  1  0
 11 20  2  0
 20 21  1  0
 21 22  2  0
  7 23  1  0
 23 24  2  0
  2 25  1  0
 25 26  1  0
 26 27  2  0
 27 28  1  0
 28 29  1  0
 29 30  1  0
 30 31  1  0
 31 32  1  0
 32 33  1  0
 33 34  1  0
 28 35  2  0
 35 36  1  0
 36 37  1  0
 37 38  1  0
 37 39  1  0
 37 40  1  0
 36 41  2  0
 24  4  1  0
 41 26  1  0
 22  9  1  0
 34 29  1  0
 19 14  1  0
  5 42  1  0
  6 43  1  0
 10 44  1  0
 15 45  1  0
 15 46  1  0
 16 47  1  0
 16 48  1  0
 18 49  1  0
 18 50  1  0
 19 51  1  0
 19 52  1  0
 20 53  1  0
 21 54  1  0
 23 55  1  0
 24 56  1  0
 25 57  1  0
 27 58  1  0
 30 59  1  0
 30 60  1  0
 31 61  1  0
 31 62  1  0
 33 63  1  0
 33 64  1  0
 34 65  1  0
 34 66  1  0
 35 67  1  0
 41 68  1  0
M  CHG  1   3  -1
M  END
>  <UniqueID>  (49) 
48

>  <SMILES>  (49) 
O=C([N-]c1ccc(Oc2cc(C(=O)N3CCOCC3)ccn2)cc1)Nc1cc(N2CCOCC2)cc(C(F)(F)F)c1

>  <Energy>  (49) 
107.16887707058136

>  <Genealogy>  (49) 
O=C([N-]c1ccc(Oc2cc(C(=O)N3CCOCC3)ccn2)cc1)Nc1cc(N2CCOCC2)cc(C(F)(F)F)c1 (protonated)
O=C([N-]c1ccc(Oc2cc(C(=O)N3CCOCC3)ccn2)cc1)Nc1cc(N2CCOCC2)cc(C(F)(F)F)c1 (3D coordinates assigned)
O=C([N-]c1ccc(Oc2cc(C(=O)N3CCOCC3)ccn2)cc1)Nc1cc(N2CCOCC2)cc(C(F)(F)F)c1 (nonaromatic ring conformer: 107.16887707058136 kcal/mol)

>  <smiles>  (49) 
O=C(Nc1ccc(Oc2cc(C(=O)N3CCOCC3)ccn2)cc1)Nc1cc(N2CCOCC2)cc(C(F)(F)F)c1

>  <score_type>  (49) 
oracle

>  <origin>  (49) 
adg

>  <m_score__min__energy>  (49) 
-10.619999999999999

>  <m_primary>  (49) 
energy

$$$$
49:0
     RDKit          3D

 46 48  0  0  0  0  0  0  0  0999 V2000
   62.7790   33.8060   46.7030 C   0  0  0  0  0  0  0  0  0  0  0  0
   61.5210   33.3620   47.3900 C   0  0  0  0  0  0  0  0  0  0  0  0
   60.9380   34.1640   48.3820 C   0  0  0  0  0  0  0  0  0  0  0  0
   59.7500   33.7650   48.9990 C   0  0  0  0  0  0  0  0  0  0  0  0
   59.1250   32.5740   48.6190 C   0  0  0  0  0  0  0  0  0  0  0  0
   59.6780   31.7740   47.6100 C   0  0  0  0  0  0  0  0  0  0  0  0
   59.0090   30.5570   47.2310 N   0  0  0  0  0  0  0  0  0  0  0  0
   59.4520   29.2580   47.6440 C   0  0  0  0  0  0  0  0  0  0  0  0
   60.2200   29.1460   48.8130 C   0  0  0  0  0  0  0  0  0  0  0  0
   60.6720   27.8970   49.2430 C   0  0  0  0  0  0  0  0  0  0  0  0
   60.3590   26.7500   48.5100 C   0  0  0  0  0  0  0  0  0  0  0  0
   59.5790   26.8460   47.3530 C   0  0  0  0  0  0  0  0  0  0  0  0
   59.1060   28.0950   46.9170 C   0  0  0  0  0  0  0  0  0  0  0  0
   58.0920   28.1660   45.4710 S   0  0  0  0  0  0  0  0  0  0  0  0
   57.3750   26.8600   45.2620 O   0  0  0  0  0  0  0  0  0  0  0  0
   58.9720   28.4220   44.2810 O   0  0  0  0  0  0  0  0  0  0  0  0
   56.9190   29.4390   45.5830 N   0  0  0  0  0  0  0  0  0  0  0  0
   56.3670   30.1910   44.4950 C   0  0  0  0  0  0  0  0  0  0  0  0
   55.1280   30.1010   44.2750 O   0  0  0  0  0  0  0  0  0  0  0  0
   57.1970   31.0820   43.6060 C   0  0  0  0  0  0  0  0  0  0  0  0
   57.6230   32.3310   44.3360 C   0  0  0  0  0  0  0  0  0  0  0  0
   58.6570   33.1380   43.8230 C   0  0  0  0  0  0  0  0  0  0  0  0
   59.0870   34.2670   44.5250 C   0  0  0  0  0  0  0  0  0  0  0  0
   58.4830   34.6070   45.7380 C   0  0  0  0  0  0  0  0  0  0  0  0
   57.4390   33.8260   46.2450 C   0  0  0  0  0  0  0  0  0  0  0  0
   57.0070   32.6970   45.5440 C   0  0  0  0  0  0  0  0  0  0  0  0
   60.8830   32.1740   46.9990 C   0  0  0  0  0  0  0  0  0  0  0  0
   63.5341   34.0725   47.4571 H   0  0  0  0  0  0  0  0  0  0  0  0
   63.1614   32.9885   46.0741 H   0  0  0  0  0  0  0  0  0  0  0  0
   62.5636   34.6824   46.0741 H   0  0  0  0  0  0  0  0  0  0  0  0
   61.4175   35.1097   48.6749 H   0  0  0  0  0  0  0  0  0  0  0  0
   59.3048   34.3904   49.7868 H   0  0  0  0  0  0  0  0  0  0  0  0
   58.1937   32.2628   49.1148 H   0  0  0  0  0  0  0  0  0  0  0  0
   58.1230   30.6110   46.6810 H   0  0  0  0  0  0  0  0  0  0  0  0
   60.4672   30.0470   49.3936 H   0  0  0  0  0  0  0  0  0  0  0  0
   61.2749   27.8162   50.1595 H   0  0  0  0  0  0  0  0  0  0  0  0
   60.7269   25.7685   48.8436 H   0  0  0  0  0  0  0  0  0  0  0  0
   59.3345   25.9386   46.7813 H   0  0  0  0  0  0  0  0  0  0  0  0
   58.0928   30.5321   43.2817 H   0  0  0  0  0  0  0  0  0  0  0  0
   56.5881   31.3748   42.7379 H   0  0  0  0  0  0  0  0  0  0  0  0
   59.1289   32.8779   42.8640 H   0  0  0  0  0  0  0  0  0  0  0  0
   59.9009   34.8880   44.1227 H   0  0  0  0  0  0  0  0  0  0  0  0
   58.8289   35.4901   46.2952 H   0  0  0  0  0  0  0  0  0  0  0  0
   56.9582   34.1006   47.1955 H   0  0  0  0  0  0  0  0  0  0  0  0
   56.1792   32.0910   45.9408 H   0  0  0  0  0  0  0  0  0  0  0  0
   61.3275   31.5505   46.2093 H   0  0  0  0  0  0  0  0  0  0  0  0
  1  2  1  0
  2  3  2  0
  3  4  1  0
  4  5  2  0
  5  6  1  0
  6  7  1  0
  7  8  1  0
  8  9  2  0
  9 10  1  0
 10 11  2  0
 11 12  1  0
 12 13  2  0
 13 14  1  0
 14 15  2  0
 14 16  2  0
 14 17  1  0
 17 18  1  0
 18 19  2  0
 18 20  1  0
 20 21  1  0
 21 22  2  0
 22 23  1  0
 23 24  2  0
 24 25  1  0
 25 26  2  0
  6 27  2  0
 27  2  1  0
 13  8  1  0
 26 21  1  0
  1 28  1  0
  1 29  1  0
  1 30  1  0
  3 31  1  0
  4 32  1  0
  5 33  1  0
  7 34  1  0
  9 35  1  0
 10 36  1  0
 11 37  1  0
 12 38  1  0
 20 39  1  0
 20 40  1  0
 22 41  1  0
 23 42  1  0
 24 43  1  0
 25 44  1  0
 26 45  1  0
 27 46  1  0
M  CHG  1  17  -1
M  END
>  <UniqueID>  (50) 
49

>  <SMILES>  (50) 
Cc1cccc(Nc2ccccc2S(=O)(=O)[N-]C(=O)Cc2ccccc2)c1

>  <Energy>  (50) 
54.91402500303318

>  <Genealogy>  (50) 
Cc1cccc(Nc2ccccc2S(=O)(=O)[N-]C(=O)Cc2ccccc2)c1 (protonated)
Cc1cccc(Nc2ccccc2S(=O)(=O)[N-]C(=O)Cc2ccccc2)c1 (3D coordinates assigned)
Cc1cccc(Nc2ccccc2S(=O)(=O)[N-]C(=O)Cc2ccccc2)c1 (optimized conformer: 54.91402500303318 kcal/mol)

>  <smiles>  (50) 
Cc1cccc(Nc2ccccc2S(=O)(=O)NC(=O)Cc2ccccc2)c1

>  <score_type>  (50) 
oracle

>  <origin>  (50) 
adg

>  <m_score__min__energy>  (50) 
-11.35

>  <m_primary>  (50) 
energy

$$$$
50:0
     RDKit          3D

 40 42  0  0  0  0  0  0  0  0999 V2000
   57.6390   25.6470   43.0170 O   0  0  0  0  0  0  0  0  0  0  0  0
   57.6400   25.1030   44.1540 C   0  0  0  0  0  0  0  0  0  0  0  0
   58.0270   25.8640   45.3150 N   0  0  0  0  0  0  0  0  0  0  0  0
   58.5270   27.2110   45.2570 C   0  0  0  0  0  0  0  0  0  0  0  0
   59.8580   27.5150   45.5940 C   0  0  0  0  0  0  0  0  0  0  0  0
   60.3100   28.8360   45.5570 C   0  0  0  0  0  0  0  0  0  0  0  0
   59.4370   29.8670   45.2020 C   0  0  0  0  0  0  0  0  0  0  0  0
   58.1010   29.5810   44.8930 C   0  0  0  0  0  0  0  0  0  0  0  0
   56.9910   30.8820   44.4700 S   0  0  0  0  0  0  0  0  0  0  0  0
   55.5990   30.3230   44.3830 O   0  0  0  0  0  0  0  0  0  0  0  0
   57.3640   31.4820   43.1440 O   0  0  0  0  0  0  0  0  0  0  0  0
   57.0270   32.1210   45.6830 N   0  0  0  0  0  0  0  0  0  0  0  0
   57.8530   33.1240   45.6810 C   0  0  0  0  0  0  0  0  0  0  0  0
   58.3690   33.7380   46.9200 C   0  0  0  0  0  0  0  0  0  0  0  0
   59.3020   34.8460   46.4110 C   0  0  0  0  0  0  0  0  0  0  0  0
   59.2880   34.7910   44.8710 C   0  0  0  0  0  0  0  0  0  0  0  0
   58.3720   33.7280   44.5130 N   0  0  0  0  0  0  0  0  0  0  0  0
   57.6500   28.2540   44.9250 C   0  0  0  0  0  0  0  0  0  0  0  0
   57.2310   23.6810   44.2670 C   0  0  0  0  0  0  0  0  0  0  0  0
   57.5970   22.8880   45.3690 C   0  0  0  0  0  0  0  0  0  0  0  0
   57.1880   21.5560   45.4420 C   0  0  0  0  0  0  0  0  0  0  0  0
   56.4080   21.0210   44.4160 C   0  0  0  0  0  0  0  0  0  0  0  0
   55.8790   19.3520   44.4840 Cl  0  0  0  0  0  0  0  0  0  0  0  0
   56.0470   21.7980   43.3620 N   0  0  0  0  0  0  0  0  0  0  0  0
   56.4330   23.1000   43.2670 C   0  0  0  0  0  0  0  0  0  0  0  0
   57.8970   25.4510   46.2650 H   0  0  0  0  0  0  0  0  0  0  0  0
   60.5462   26.7088   45.8881 H   0  0  0  0  0  0  0  0  0  0  0  0
   61.3562   29.0651   45.8081 H   0  0  0  0  0  0  0  0  0  0  0  0
   59.7992   30.9050   45.1650 H   0  0  0  0  0  0  0  0  0  0  0  0
   57.5494   34.1595   47.5205 H   0  0  0  0  0  0  0  0  0  0  0  0
   58.8792   33.0163   47.5749 H   0  0  0  0  0  0  0  0  0  0  0  0
   58.9429   35.8271   46.7552 H   0  0  0  0  0  0  0  0  0  0  0  0
   60.3225   34.7004   46.7950 H   0  0  0  0  0  0  0  0  0  0  0  0
   58.9399   35.7494   44.4584 H   0  0  0  0  0  0  0  0  0  0  0  0
   60.2944   34.6058   44.4674 H   0  0  0  0  0  0  0  0  0  0  0  0
   58.1490   33.4630   43.5280 H   0  0  0  0  0  0  0  0  0  0  0  0
   56.5997   28.0289   44.6878 H   0  0  0  0  0  0  0  0  0  0  0  0
   58.2076   23.3191   46.1760 H   0  0  0  0  0  0  0  0  0  0  0  0
   57.4779   20.9330   46.3009 H   0  0  0  0  0  0  0  0  0  0  0  0
   56.1180   23.7013   42.4014 H   0  0  0  0  0  0  0  0  0  0  0  0
  1  2  2  0
  2  3  1  0
  3  4  1  0
  4  5  2  0
  5  6  1  0
  6  7  2  0
  7  8  1  0
  8  9  1  0
  9 10  2  0
  9 11  2  0
  9 12  1  0
 12 13  2  3
 13 14  1  0
 14 15  1  0
 15 16  1  0
 16 17  1  0
  8 18  2  0
  2 19  1  0
 19 20  2  0
 20 21  1  0
 21 22  2  0
 22 23  1  0
 22 24  1  0
 24 25  2  0
 18  4  1  0
 25 19  1  0
 17 13  1  0
  3 26  1  0
  5 27  1  0
  6 28  1  0
  7 29  1  0
 14 30  1  0
 14 31  1  0
 15 32  1  0
 15 33  1  0
 16 34  1  0
 16 35  1  0
 17 36  1  0
 18 37  1  0
 20 38  1  0
 21 39  1  0
 25 40  1  0
M  END
>  <UniqueID>  (51) 
50

>  <SMILES>  (51) 
O=C(Nc1cccc(S(=O)(=O)N=C2CCCN2)c1)c1ccc(Cl)nc1

>  <Energy>  (51) 
57.049658634219476

>  <Genealogy>  (51) 
O=C(Nc1cccc(S(=O)(=O)N=C2CCCN2)c1)c1ccc(Cl)nc1 (3D coordinates assigned)
O=C(Nc1cccc(S(=O)(=O)N=C2CCCN2)c1)c1ccc(Cl)nc1 (nonaromatic ring conformer: 57.049658634219476 kcal/mol)

>  <smiles>  (51) 
O=C(Nc1cccc(S(=O)(=O)N=C2CCCN2)c1)c1ccc(Cl)nc1

>  <score_type>  (51) 
oracle

>  <origin>  (51) 
adg

>  <m_score__min__energy>  (51) 
-8.8499999999999996

>  <m_primary>  (51) 
energy

$$$$
51:0
     RDKit          3D

 48 51  0  0  0  0  0  0  0  0999 V2000
   61.0476   27.8204   47.4404 H   0  0  0  0  0  0  0  0  0  0  0  0
   60.1600   27.5870   46.8340 C   0  0  0  0  0  0  0  0  0  0  0  0
   59.9710   26.5526   46.5110 H   0  0  0  0  0  0  0  0  0  0  0  0
   59.3070   28.5650   46.4880 C   0  0  0  0  0  0  0  0  0  0  0  0
   58.1400   28.4270   45.7240 C   0  0  0  0  0  0  0  0  0  0  0  0
   57.6540   27.2860   45.1890 C   0  0  0  0  0  0  0  0  0  0  0  0
   57.6266   27.2180   44.0914 H   0  0  0  0  0  0  0  0  0  0  0  0
   57.1550   26.1190   45.9510 C   0  0  0  0  0  0  0  0  0  0  0  0
   57.9070   25.1270   46.4620 N   0  0  0  0  0  0  0  0  0  0  0  0
   57.0090   24.3430   47.0950 C   0  0  0  0  0  0  0  0  0  0  0  0
   57.3380   23.2920   47.7050 O   0  0  0  0  0  0  0  0  0  0  0  0
   55.7320   24.7750   47.0270 N   0  0  0  0  0  0  0  0  0  0  0  0
   55.8440   25.9010   46.3040 C   0  0  0  0  0  0  0  0  0  0  0  0
   54.7670   26.7160   45.9770 O   0  0  0  0  0  0  0  0  0  0  0  0
   57.5780   29.6990   45.6500 C   0  0  0  0  0  0  0  0  0  0  0  0
   56.6463   29.9757   45.1349 H   0  0  0  0  0  0  0  0  0  0  0  0
   58.4160   30.5460   46.3480 C   0  0  0  0  0  0  0  0  0  0  0  0
   58.1910   32.0170   46.5280 C   0  0  0  0  0  0  0  0  0  0  0  0
   58.1548   32.2537   47.6016 H   0  0  0  0  0  0  0  0  0  0  0  0
   59.0144   32.5742   46.0572 H   0  0  0  0  0  0  0  0  0  0  0  0
   57.2387   32.3026   46.0572 H   0  0  0  0  0  0  0  0  0  0  0  0
   59.4610   29.8610   46.8560 N   0  0  0  0  0  0  0  0  0  0  0  0
   60.5340   30.4260   47.6300 C   0  0  0  0  0  0  0  0  0  0  0  0
   61.6350   30.9900   46.9730 C   0  0  0  0  0  0  0  0  0  0  0  0
   61.6741   30.9909   45.8737 H   0  0  0  0  0  0  0  0  0  0  0  0
   62.6830   31.5510   47.7050 C   0  0  0  0  0  0  0  0  0  0  0  0
   63.5388   31.9976   47.1776 H   0  0  0  0  0  0  0  0  0  0  0  0
   62.6540   31.5500   49.1020 C   0  0  0  0  0  0  0  0  0  0  0  0
   63.7420   32.1190   49.7850 O   0  0  0  0  0  0  0  0  0  0  0  0
   64.2070   33.4580   49.6250 C   0  0  0  0  0  0  0  0  0  0  0  0
   65.5270   33.5260   50.0280 F   0  0  0  0  0  0  0  0  0  0  0  0
   64.1270   33.8370   48.2970 F   0  0  0  0  0  0  0  0  0  0  0  0
   63.4590   34.3190   50.4080 F   0  0  0  0  0  0  0  0  0  0  0  0
   61.5510   30.9810   49.7670 C   0  0  0  0  0  0  0  0  0  0  0  0
   61.5250   30.9680   50.8666 H   0  0  0  0  0  0  0  0  0  0  0  0
   60.4820   30.4290   49.0380 C   0  0  0  0  0  0  0  0  0  0  0  0
   59.3770   29.8090   49.7180 N   0  0  0  0  0  0  0  0  0  0  0  0
   59.2200   28.7840   49.5840 H   0  0  0  0  0  0  0  0  0  0  0  0
   58.3940   30.5360   50.4650 C   0  0  0  0  0  0  0  0  0  0  0  0
   58.3830   31.7980   50.4420 O   0  0  0  0  0  0  0  0  0  0  0  0
   57.4050   29.8060   51.2060 N   0  0  0  0  0  0  0  0  0  0  0  0
   57.0310   30.0430   52.4290 C   0  0  0  0  0  0  0  0  0  0  0  0
   55.8080   29.7540   52.9240 N   0  0  0  0  0  0  0  0  0  0  0  0
   55.7050   30.1120   54.2310 C   0  0  0  0  0  0  0  0  0  0  0  0
   54.7852   29.9572   54.8140 H   0  0  0  0  0  0  0  0  0  0  0  0
   56.8460   30.6880   54.7780 C   0  0  0  0  0  0  0  0  0  0  0  0
   56.9574   31.0418   55.8136 H   0  0  0  0  0  0  0  0  0  0  0  0
   58.0270   30.7500   53.5810 S   0  0  0  0  0  0  0  0  0  0  0  0
  1  2  1  0
  2  3  1  0
  2  4  2  0
  4  5  1  0
  5  6  2  0
  6  7  1  0
  6  8  1  0
  8  9  1  0
  9 10  1  0
 10 11  2  0
 10 12  1  0
 12 13  1  0
 13 14  1  0
  5 15  1  0
 15 16  1  0
 15 17  2  0
 17 18  1  0
 18 19  1  0
 18 20  1  0
 18 21  1  0
 17 22  1  0
 22 23  1  0
 23 24  2  0
 24 25  1  0
 24 26  1  0
 26 27  1  0
 26 28  2  0
 28 29  1  0
 29 30  1  0
 30 31  1  0
 30 32  1  0
 30 33  1  0
 28 34  1  0
 34 35  1  0
 34 36  2  0
 36 37  1  0
 37 38  1  0
 37 39  1  0
 39 40  2  0
 39 41  1  0
 41 42  2  3
 42 43  1  0
 43 44  1  0
 44 45  1  0
 44 46  2  0
 46 47  1  0
 46 48  1  0
 22  4  1  0
 36 23  1  0
 48 42  1  0
 13  8  2  0
M  CHG  4   9  -1  12  -1  14  -1  43  -1
M  END
>  <UniqueID>  (52) 
51

>  <SMILES>  (52) 
C=c1/c(=C/c2[n-]c(=O)[n-]c2[O-])cc(C)n1-c1ccc(OC(F)(F)F)cc1NC(=O)N=c1[n-]ccs1

>  <Energy>  (52) 
155.5071010173587

>  <Genealogy>  (52) 
C=c1c(=Cc2[n-]c(=O)[n-]c2[O-])cc(C)n1-c1ccc(OC(F)(F)F)cc1NC(=O)N=c1[n-]ccs1 (protonated)
C=c1/c(=C/c2[n-]c(=O)[n-]c2[O-])cc(C)n1-c1ccc(OC(F)(F)F)cc1NC(=O)N=c1[n-]ccs1 (cis-trans isomerization)
C=c1/c(=C/c2[n-]c(=O)[n-]c2[O-])cc(C)n1-c1ccc(OC(F)(F)F)cc1NC(=O)N=c1[n-]ccs1 (3D coordinates assigned)
C=c1/c(=C/c2[n-]c(=O)[n-]c2[O-])cc(C)n1-c1ccc(OC(F)(F)F)cc1NC(=O)N=c1[n-]ccs1 (optimized conformer: 155.5071010173587 kcal/mol)

>  <smiles>  (52) 
C=c1c(=Cc2[nH]c(=O)[nH]c2O)cc(C)n1-c1ccc(OC(F)(F)F)cc1NC(=O)N=c1[nH]ccs1

>  <score_type>  (52) 
oracle

>  <origin>  (52) 
adg

>  <m_score__min__energy>  (52) 
-16.609999999999999

>  <m_primary>  (52) 
energy

$$$$
52:0
     RDKit          3D

 42 45  0  0  0  0  0  0  0  0999 V2000
   56.3750   30.2160   43.2040 O   0  0  0  0  0  0  0  0  0  0  0  0
   56.6200   30.2210   44.4390 C   0  0  0  0  0  0  0  0  0  0  0  0
   56.1620   29.1190   45.2360 N   0  0  0  0  0  0  0  0  0  0  0  0
   56.8110   28.0340   45.5560 C   0  0  0  0  0  0  0  0  0  0  0  0
   58.1710   28.0610   45.4680 N   0  0  0  0  0  0  0  0  0  0  0  0
   58.9470   26.9930   45.7880 C   0  0  0  0  0  0  0  0  0  0  0  0
   58.3590   25.8090   46.2260 C   0  0  0  0  0  0  0  0  0  0  0  0
   56.9710   25.7310   46.3120 C   0  0  0  0  0  0  0  0  0  0  0  0
   56.1800   26.8310   45.9670 C   0  0  0  0  0  0  0  0  0  0  0  0
   54.7970   26.6930   46.0100 O   0  0  0  0  0  0  0  0  0  0  0  0
   57.4430   31.3090   45.0260 C   0  0  0  0  0  0  0  0  0  0  0  0
   56.9580   32.6440   45.0410 C   0  0  0  0  0  0  0  0  0  0  0  0
   57.7230   33.6810   45.6010 C   0  0  0  0  0  0  0  0  0  0  0  0
   58.9660   33.3600   46.1400 C   0  0  0  0  0  0  0  0  0  0  0  0
   59.4440   32.0840   46.1270 C   0  0  0  0  0  0  0  0  0  0  0  0
   58.7180   31.0310   45.5740 C   0  0  0  0  0  0  0  0  0  0  0  0
   60.7610   32.1120   46.7450 C   0  0  0  0  0  0  0  0  0  0  0  0
   61.5290   31.1160   46.8130 O   0  0  0  0  0  0  0  0  0  0  0  0
   61.1270   33.4330   47.2050 N   0  0  2  0  0  0  0  0  0  0  0  0
   61.2460   33.4880   48.6760 C   0  0  0  0  0  0  0  0  0  0  0  0
   60.3400   32.4800   49.3460 C   0  0  0  0  0  0  0  0  0  0  0  0
   58.9870   32.7850   49.5690 C   0  0  0  0  0  0  0  0  0  0  0  0
   58.1430   31.8480   50.1730 C   0  0  0  0  0  0  0  0  0  0  0  0
   58.6410   30.6020   50.5570 C   0  0  0  0  0  0  0  0  0  0  0  0
   59.9850   30.2890   50.3380 C   0  0  0  0  0  0  0  0  0  0  0  0
   60.8350   31.2200   49.7350 C   0  0  0  0  0  0  0  0  0  0  0  0
   62.1380   30.8970   49.5320 F   0  0  0  0  0  0  0  0  0  0  0  0
   59.9790   34.1930   46.7690 C   0  0  0  0  0  0  0  0  0  0  0  0
   59.8880   35.4440   46.8920 O   0  0  0  0  0  0  0  0  0  0  0  0
   60.0413   27.0634   45.7010 H   0  0  0  0  0  0  0  0  0  0  0  0
   58.9832   24.9459   46.5007 H   0  0  0  0  0  0  0  0  0  0  0  0
   56.4950   24.7997   46.6529 H   0  0  0  0  0  0  0  0  0  0  0  0
   55.9716   32.8687   44.6090 H   0  0  0  0  0  0  0  0  0  0  0  0
   57.3508   34.7161   45.6132 H   0  0  0  0  0  0  0  0  0  0  0  0
   59.1256   30.0093   45.5636 H   0  0  0  0  0  0  0  0  0  0  0  0
   61.9870   33.7730   46.7150 H   0  0  0  0  0  0  0  0  0  0  0  0
   62.2876   33.2746   48.9581 H   0  0  0  0  0  0  0  0  0  0  0  0
   60.9470   34.4932   49.0079 H   0  0  0  0  0  0  0  0  0  0  0  0
   58.5897   33.7653   49.2671 H   0  0  0  0  0  0  0  0  0  0  0  0
   57.0847   32.0933   50.3458 H   0  0  0  0  0  0  0  0  0  0  0  0
   57.9753   29.8663   51.0321 H   0  0  0  0  0  0  0  0  0  0  0  0
   60.3754   29.3063   50.6413 H   0  0  0  0  0  0  0  0  0  0  0  0
  1  2  2  0
  2  3  1  0
  3  4  2  3
  4  5  1  0
  5  6  1  0
  6  7  2  0
  7  8  1  0
  8  9  2  0
  9 10  1  0
  2 11  1  0
 11 12  2  0
 12 13  1  0
 13 14  2  0
 14 15  1  0
 15 16  2  0
 15 17  1  0
 17 18  2  0
 17 19  1  0
 19 20  1  0
 20 21  1  0
 21 22  2  0
 22 23  1  0
 23 24  2  0
 24 25  1  0
 25 26  2  0
 26 27  1  0
 19 28  1  0
 28 29  2  0
  9  4  1  0
 16 11  1  0
 26 21  1  0
 28 14  1  0
  6 30  1  0
  7 31  1  0
  8 32  1  0
 12 33  1  0
 13 34  1  0
 16 35  1  0
 19 36  1  6
 20 37  1  0
 20 38  1  0
 22 39  1  0
 23 40  1  0
 24 41  1  0
 25 42  1  0
M  CHG  3   5  -1  10  -1  19   1
M  END
>  <UniqueID>  (53) 
52

>  <SMILES>  (53) 
O=C(N=c1[n-]cccc1[O-])c1ccc2c(c1)C(=O)[N@H+](Cc1ccccc1F)C2=O

>  <Energy>  (53) 
87.30259851629437

>  <Genealogy>  (53) 
O=C(N=c1[n-]cccc1[O-])c1ccc2c(c1)C(=O)[NH+](Cc1ccccc1F)C2=O (protonated)
O=C(N=c1[n-]cccc1[O-])c1ccc2c(c1)C(=O)[N@H+](Cc1ccccc1F)C2=O (chirality)
O=C(N=c1[n-]cccc1[O-])c1ccc2c(c1)C(=O)[N@H+](Cc1ccccc1F)C2=O (3D coordinates assigned)
O=C(N=c1[n-]cccc1[O-])c1ccc2c(c1)C(=O)[N@H+](Cc1ccccc1F)C2=O (nonaromatic ring conformer: 87.30259851629437 kcal/mol)

>  <smiles>  (53) 
O=C(N=c1[nH]cccc1O)c1ccc2c(c1)C(=O)N(Cc1ccccc1F)C2=O

>  <score_type>  (53) 
oracle

>  <origin>  (53) 
adg

>  <m_score__min__energy>  (53) 
-13.199999999999999

>  <m_primary>  (53) 
energy

$$$$
53:0
     RDKit          3D

 41 43  0  0  0  0  0  0  0  0999 V2000
   61.2946   29.5417   45.9939 H   0  0  0  0  0  0  0  0  0  0  0  0
   60.4460   29.8010   46.6440 C   0  0  0  0  0  0  0  0  0  0  0  0
   60.7100   30.2780   47.8270 N   0  0  0  0  0  0  0  0  0  0  0  0
   59.8160   30.4090   48.9440 C   0  0  0  0  0  0  0  0  0  0  0  0
   58.6870   29.8450   48.9450 O   0  0  0  0  0  0  0  0  0  0  0  0
   60.1790   31.3290   50.0660 C   0  0  0  0  0  0  0  0  0  0  0  0
   59.8063   32.3395   49.8424 H   0  0  0  0  0  0  0  0  0  0  0  0
   59.7236   30.9580   50.9960 H   0  0  0  0  0  0  0  0  0  0  0  0
   61.6820   31.3770   50.2370 C   0  0  0  0  0  0  0  0  0  0  0  0
   62.4010   30.2490   50.6950 C   0  0  0  0  0  0  0  0  0  0  0  0
   61.5480   28.5800   51.1210 Br  0  0  0  0  0  0  0  0  0  0  0  0
   63.7850   30.3220   50.8620 C   0  0  0  0  0  0  0  0  0  0  0  0
   64.3412   29.4346   51.1983 H   0  0  0  0  0  0  0  0  0  0  0  0
   64.4690   31.5110   50.6060 C   0  0  0  0  0  0  0  0  0  0  0  0
   66.3630   31.5740   50.8700 Br  0  0  0  0  0  0  0  0  0  0  0  0
   63.7690   32.6450   50.1810 C   0  0  0  0  0  0  0  0  0  0  0  0
   64.4600   33.8380   49.9890 O   0  0  0  0  0  0  0  0  0  0  0  0
   62.3740   32.5820   49.9770 C   0  0  0  0  0  0  0  0  0  0  0  0
   61.6390   33.7030   49.5530 O   0  0  0  0  0  0  0  0  0  0  0  0
   60.8120   33.7570   48.4240 C   0  0  0  0  0  0  0  0  0  0  0  0
   59.4280   33.8190   48.6180 C   0  0  0  0  0  0  0  0  0  0  0  0
   59.0190   33.8174   49.6391 H   0  0  0  0  0  0  0  0  0  0  0  0
   58.5610   33.8830   47.5230 C   0  0  0  0  0  0  0  0  0  0  0  0
   57.4747   33.9436   47.6850 H   0  0  0  0  0  0  0  0  0  0  0  0
   59.0730   33.8700   46.2240 C   0  0  0  0  0  0  0  0  0  0  0  0
   57.8860   33.9530   44.7290 Br  0  0  0  0  0  0  0  0  0  0  0  0
   60.4520   33.7770   46.0190 C   0  0  0  0  0  0  0  0  0  0  0  0
   60.8522   33.7555   44.9946 H   0  0  0  0  0  0  0  0  0  0  0  0
   61.3270   33.7110   47.1090 C   0  0  0  0  0  0  0  0  0  0  0  0
   63.1950   33.4630   46.7520 Br  0  0  0  0  0  0  0  0  0  0  0  0
   59.0820   29.5850   46.1170 C   0  0  0  0  0  0  0  0  0  0  0  0
   58.4260   28.3730   46.3800 C   0  0  0  0  0  0  0  0  0  0  0  0
   58.9416   27.5825   46.9450 H   0  0  0  0  0  0  0  0  0  0  0  0
   57.1200   28.1660   45.9270 C   0  0  0  0  0  0  0  0  0  0  0  0
   56.6178   27.2064   46.1194 H   0  0  0  0  0  0  0  0  0  0  0  0
   56.4510   29.1760   45.2300 C   0  0  0  0  0  0  0  0  0  0  0  0
   55.1530   28.9680   44.7760 O   0  0  0  0  0  0  0  0  0  0  0  0
   57.0870   30.3990   44.9910 C   0  0  0  0  0  0  0  0  0  0  0  0
   56.5593   31.1958   44.4464 H   0  0  0  0  0  0  0  0  0  0  0  0
   58.3930   30.6090   45.4440 C   0  0  0  0  0  0  0  0  0  0  0  0
   58.8831   31.5789   45.2732 H   0  0  0  0  0  0  0  0  0  0  0  0
  1  2  1  0
  2  3  2  0
  3  4  1  0
  4  5  2  0
  4  6  1  0
  6  7  1  0
  6  8  1  0
  6  9  1  0
  9 10  2  0
 10 11  1  0
 10 12  1  0
 12 13  1  0
 12 14  2  0
 14 15  1  0
 14 16  1  0
 16 17  1  0
 16 18  2  0
 18 19  1  0
 19 20  1  0
 20 21  2  0
 21 22  1  0
 21 23  1  0
 23 24  1  0
 23 25  2  0
 25 26  1  0
 25 27  1  0
 27 28  1  0
 27 29  2  0
 29 30  1  0
  2 31  1  0
 31 32  2  0
 32 33  1  0
 32 34  1  0
 34 35  1  0
 34 36  2  0
 36 37  1  0
 36 38  1  0
 38 39  1  0
 38 40  2  0
 40 41  1  0
 18  9  1  0
 29 20  1  0
 40 31  1  0
M  CHG  2  17  -1  37  -1
M  END
>  <UniqueID>  (54) 
53

>  <SMILES>  (54) 
O=C(Cc1c(Br)cc(Br)c([O-])c1Oc1ccc(Br)cc1Br)/N=C\c1ccc([O-])cc1

>  <Energy>  (54) 
64.1013437630184

>  <Genealogy>  (54) 
O=C(Cc1c(Br)cc(Br)c([O-])c1Oc1ccc(Br)cc1Br)N=Cc1ccc([O-])cc1 (protonated)
O=C(Cc1c(Br)cc(Br)c([O-])c1Oc1ccc(Br)cc1Br)/N=C\c1ccc([O-])cc1 (cis-trans isomerization)
O=C(Cc1c(Br)cc(Br)c([O-])c1Oc1ccc(Br)cc1Br)/N=C\c1ccc([O-])cc1 (3D coordinates assigned)
O=C(Cc1c(Br)cc(Br)c([O-])c1Oc1ccc(Br)cc1Br)/N=C\c1ccc([O-])cc1 (optimized conformer: 64.1013437630184 kcal/mol)

>  <smiles>  (54) 
O=C(Cc1c(Br)cc(Br)c(O)c1Oc1ccc(Br)cc1Br)N=Cc1ccc(O)cc1

>  <score_type>  (54) 
oracle

>  <origin>  (54) 
adg

>  <m_score__min__energy>  (54) 
-14.02

>  <m_primary>  (54) 
energy

$$$$
54:0
     RDKit          3D

 47 49  0  0  0  0  0  0  0  0999 V2000
   57.8000   32.5810   48.0980 O   0  0  0  0  0  0  0  0  0  0  0  0
   58.5390   31.7430   47.5130 C   0  0  0  0  0  0  0  0  0  0  0  0
   58.8280   31.9070   46.1150 N   0  0  0  0  0  0  0  0  0  0  0  0
   58.0020   32.7570   45.2520 C   0  0  1  0  0  0  0  0  0  0  0  0
   58.8550   33.8980   44.6520 C   0  0  0  0  0  0  0  0  0  0  0  0
   59.2660   34.9690   45.6760 C   0  0  0  0  0  0  0  0  0  0  0  0
   60.2280   34.4330   46.7050 C   0  0  0  0  0  0  0  0  0  0  0  0
   61.4220   33.8080   46.3090 C   0  0  0  0  0  0  0  0  0  0  0  0
   62.3230   33.3360   47.2680 C   0  0  0  0  0  0  0  0  0  0  0  0
   62.0390   33.4840   48.6290 C   0  0  0  0  0  0  0  0  0  0  0  0
   60.8540   34.1060   49.0320 C   0  0  0  0  0  0  0  0  0  0  0  0
   59.9520   34.5810   48.0760 C   0  0  0  0  0  0  0  0  0  0  0  0
   57.3910   31.9090   44.1720 C   0  0  0  0  0  0  0  0  0  0  0  0
   57.8580   31.9580   43.0020 O   0  0  0  0  0  0  0  0  0  0  0  0
   56.3240   31.0060   44.4990 N   0  0  0  0  0  0  0  0  0  0  0  0
   56.3060   29.7140   44.3350 C   0  0  0  0  0  0  0  0  0  0  0  0
   57.3510   28.7970   44.8260 C   0  0  0  0  0  0  0  0  0  0  0  0
   58.6890   28.7690   44.4390 C   0  0  0  0  0  0  0  0  0  0  0  0
   59.4010   27.6970   44.9900 C   0  0  0  0  0  0  0  0  0  0  0  0
   58.6260   26.8640   45.7880 C   0  0  0  0  0  0  0  0  0  0  0  0
   57.0540   27.4600   45.7980 S   0  0  0  0  0  0  0  0  0  0  0  0
   59.1000   30.6050   48.2800 C   0  0  0  0  0  0  0  0  0  0  0  0
   58.9200   30.5140   49.6730 C   0  0  0  0  0  0  0  0  0  0  0  0
   59.4670   29.4430   50.3880 C   0  0  0  0  0  0  0  0  0  0  0  0
   60.2020   28.4570   49.7230 C   0  0  0  0  0  0  0  0  0  0  0  0
   60.3960   28.5450   48.3420 C   0  0  0  0  0  0  0  0  0  0  0  0
   59.8530   29.6140   47.6230 C   0  0  0  0  0  0  0  0  0  0  0  0
   59.6410   31.3960   45.7020 H   0  0  0  0  0  0  0  0  0  0  0  0
   57.1960   33.2186   45.8413 H   0  0  0  0  0  0  0  0  0  0  0  0
   59.7681   33.4597   44.2229 H   0  0  0  0  0  0  0  0  0  0  0  0
   58.2334   34.3994   43.8955 H   0  0  0  0  0  0  0  0  0  0  0  0
   59.7458   35.8031   45.1430 H   0  0  0  0  0  0  0  0  0  0  0  0
   58.3582   35.2995   46.2020 H   0  0  0  0  0  0  0  0  0  0  0  0
   61.6491   33.6894   45.2393 H   0  0  0  0  0  0  0  0  0  0  0  0
   63.2564   32.8476   46.9515 H   0  0  0  0  0  0  0  0  0  0  0  0
   62.7482   33.1109   49.3826 H   0  0  0  0  0  0  0  0  0  0  0  0
   60.6311   34.2218   50.1029 H   0  0  0  0  0  0  0  0  0  0  0  0
   59.0220   35.0728   48.3973 H   0  0  0  0  0  0  0  0  0  0  0  0
   55.4537   29.2775   43.7937 H   0  0  0  0  0  0  0  0  0  0  0  0
   59.1406   29.5144   43.7679 H   0  0  0  0  0  0  0  0  0  0  0  0
   60.4729   27.5298   44.8084 H   0  0  0  0  0  0  0  0  0  0  0  0
   58.9800   25.9692   46.3210 H   0  0  0  0  0  0  0  0  0  0  0  0
   58.3462   31.2890   50.2023 H   0  0  0  0  0  0  0  0  0  0  0  0
   59.3184   29.3766   51.4759 H   0  0  0  0  0  0  0  0  0  0  0  0
   60.6270   27.6131   50.2862 H   0  0  0  0  0  0  0  0  0  0  0  0
   60.9774   27.7712   47.8193 H   0  0  0  0  0  0  0  0  0  0  0  0
   60.0153   29.6810   46.5371 H   0  0  0  0  0  0  0  0  0  0  0  0
  1  2  2  0
  2  3  1  0
  3  4  1  0
  4  5  1  0
  5  6  1  0
  6  7  1  0
  7  8  2  0
  8  9  1  0
  9 10  2  0
 10 11  1  0
 11 12  2  0
  4 13  1  0
 13 14  2  0
 13 15  1  0
 15 16  2  3
 16 17  1  0
 17 18  2  0
 18 19  1  0
 19 20  2  0
 20 21  1  0
  2 22  1  0
 22 23  2  0
 23 24  1  0
 24 25  2  0
 25 26  1  0
 26 27  2  0
 12  7  1  0
 21 17  1  0
 27 22  1  0
  3 28  1  0
  4 29  1  1
  5 30  1  0
  5 31  1  0
  6 32  1  0
  6 33  1  0
  8 34  1  0
  9 35  1  0
 10 36  1  0
 11 37  1  0
 12 38  1  0
 16 39  1  0
 18 40  1  0
 19 41  1  0
 20 42  1  0
 23 43  1  0
 24 44  1  0
 25 45  1  0
 26 46  1  0
 27 47  1  0
M  END
>  <UniqueID>  (55) 
54

>  <SMILES>  (55) 
O=C(N[C@@H](CCc1ccccc1)C(=O)N=Cc1cccs1)c1ccccc1

>  <Energy>  (55) 
79.40357370103158

>  <Genealogy>  (55) 
O=C(N[C@@H](CCc1ccccc1)C(=O)N=Cc1cccs1)c1ccccc1 (chirality)
O=C(N[C@@H](CCc1ccccc1)C(=O)N=Cc1cccs1)c1ccccc1 (3D coordinates assigned)
O=C(N[C@@H](CCc1ccccc1)C(=O)N=Cc1cccs1)c1ccccc1 (optimized conformer: 79.40357370103158 kcal/mol)

>  <smiles>  (55) 
O=C(NC(CCc1ccccc1)C(=O)N=Cc1cccs1)c1ccccc1

>  <score_type>  (55) 
oracle

>  <origin>  (55) 
adg

>  <m_score__min__energy>  (55) 
-8.4299999999999997

>  <m_primary>  (55) 
energy

$$$$
55:0
     RDKit          3D

 59 62  0  0  0  0  0  0  0  0999 V2000
   58.0890   32.6280   42.6800 N   0  0  0  0  0  0  0  0  0  0  0  0
   58.1520   32.9890   44.0640 C   0  0  0  0  0  0  0  0  0  0  0  0
   59.0980   33.9370   44.4880 C   0  0  0  0  0  0  0  0  0  0  0  0
   59.1840   34.3000   45.8340 C   0  0  0  0  0  0  0  0  0  0  0  0
   58.3210   33.7230   46.7680 C   0  0  0  0  0  0  0  0  0  0  0  0
   57.3760   32.7790   46.3600 C   0  0  0  0  0  0  0  0  0  0  0  0
   57.2950   32.3900   45.0100 C   0  0  0  0  0  0  0  0  0  0  0  0
   56.3250   31.4210   44.5790 N   0  0  0  0  0  0  0  0  0  0  0  0
   56.5780   30.3150   43.7010 C   0  0  0  0  0  0  0  0  0  0  0  0
   56.4540   30.4890   42.4580 O   0  0  0  0  0  0  0  0  0  0  0  0
   57.0180   28.9960   44.2120 C   0  0  0  0  0  0  0  0  0  0  0  0
   56.7580   28.6320   45.5430 C   0  0  0  0  0  0  0  0  0  0  0  0
   57.2060   27.4060   46.0420 C   0  0  0  0  0  0  0  0  0  0  0  0
   57.9140   26.5210   45.2160 C   0  0  0  0  0  0  0  0  0  0  0  0
   58.4650   25.2420   45.7820 C   0  0  0  0  0  0  0  0  0  0  0  0
   59.4810   25.5610   46.7740 N   0  0  0  0  0  0  0  0  0  0  0  0
   60.5810   26.4410   46.5270 C   0  0  0  0  0  0  0  0  0  0  0  0
   61.7270   25.9660   46.2950 O   0  0  0  0  0  0  0  0  0  0  0  0
   60.3660   27.9050   46.5270 C   0  0  0  0  0  0  0  0  0  0  0  0
   60.2630   28.6150   45.3180 C   0  0  0  0  0  0  0  0  0  0  0  0
   60.0400   29.9950   45.3260 C   0  0  0  0  0  0  0  0  0  0  0  0
   59.9160   30.6790   46.5380 C   0  0  0  0  0  0  0  0  0  0  0  0
   60.0220   29.9870   47.7530 C   0  0  0  0  0  0  0  0  0  0  0  0
   59.8630   30.8500   49.2870 S   0  0  0  0  0  0  0  0  0  0  0  0
   59.8050   29.8550   50.4120 O   0  0  0  0  0  0  0  0  0  0  0  0
   58.5750   31.6250   49.2860 O   0  0  0  0  0  0  0  0  0  0  0  0
   61.2040   31.9410   49.5570 N   0  0  0  0  0  0  0  0  0  0  0  0
   60.9280   33.2970   49.0300 C   0  0  0  0  0  0  0  0  0  0  0  0
   61.7320   33.5990   47.7530 C   0  0  0  0  0  0  0  0  0  0  0  0
   63.1330   33.4980   47.9480 O   0  0  0  0  0  0  0  0  0  0  0  0
   63.5180   32.4490   48.8290 C   0  0  0  0  0  0  0  0  0  0  0  0
   62.4530   31.3590   49.0320 C   0  0  0  0  0  0  0  0  0  0  0  0
   60.2490   28.6050   47.7430 C   0  0  0  0  0  0  0  0  0  0  0  0
   58.1480   26.8680   43.8790 C   0  0  0  0  0  0  0  0  0  0  0  0
   57.6950   28.0910   43.3770 C   0  0  0  0  0  0  0  0  0  0  0  0
   58.7870   32.9820   41.9880 H   0  0  0  0  0  0  0  0  0  0  0  0
   57.3300   32.0000   42.3290 H   0  0  0  0  0  0  0  0  0  0  0  0
   59.7763   34.3970   43.7543 H   0  0  0  0  0  0  0  0  0  0  0  0
   59.9309   35.0397   46.1580 H   0  0  0  0  0  0  0  0  0  0  0  0
   58.3856   34.0126   47.8272 H   0  0  0  0  0  0  0  0  0  0  0  0
   56.6909   32.3369   47.0984 H   0  0  0  0  0  0  0  0  0  0  0  0
   56.1980   29.3164   46.1972 H   0  0  0  0  0  0  0  0  0  0  0  0
   57.0023   27.1337   47.0881 H   0  0  0  0  0  0  0  0  0  0  0  0
   57.6543   24.6691   46.2557 H   0  0  0  0  0  0  0  0  0  0  0  0
   58.9094   24.6401   44.9756 H   0  0  0  0  0  0  0  0  0  0  0  0
   60.3584   28.0818   44.3606 H   0  0  0  0  0  0  0  0  0  0  0  0
   59.9620   30.5437   44.3758 H   0  0  0  0  0  0  0  0  0  0  0  0
   59.7346   31.7639   46.5391 H   0  0  0  0  0  0  0  0  0  0  0  0
   59.8552   33.3762   48.8002 H   0  0  0  0  0  0  0  0  0  0  0  0
   61.2277   34.0253   49.7980 H   0  0  0  0  0  0  0  0  0  0  0  0
   61.4335   32.8836   46.9725 H   0  0  0  0  0  0  0  0  0  0  0  0
   61.5125   34.6367   47.4615 H   0  0  0  0  0  0  0  0  0  0  0  0
   64.4221   31.9733   48.4213 H   0  0  0  0  0  0  0  0  0  0  0  0
   63.6802   32.9128   49.8131 H   0  0  0  0  0  0  0  0  0  0  0  0
   62.2467   30.8718   48.0676 H   0  0  0  0  0  0  0  0  0  0  0  0
   62.8329   30.6246   49.7575 H   0  0  0  0  0  0  0  0  0  0  0  0
   60.3368   28.0609   48.6950 H   0  0  0  0  0  0  0  0  0  0  0  0
   58.6913   26.1740   43.2208 H   0  0  0  0  0  0  0  0  0  0  0  0
   57.8695   28.3468   42.3215 H   0  0  0  0  0  0  0  0  0  0  0  0
  1  2  1  0
  2  3  2  0
  3  4  1  0
  4  5  2  0
  5  6  1  0
  6  7  2  0
  7  8  1  0
  8  9  1  0
  9 10  2  0
  9 11  1  0
 11 12  2  0
 12 13  1  0
 13 14  2  0
 14 15  1  0
 15 16  1  0
 16 17  1  0
 17 18  2  0
 17 19  1  0
 19 20  2  0
 20 21  1  0
 21 22  2  0
 22 23  1  0
 23 24  1  0
 24 25  2  0
 24 26  2  0
 24 27  1  0
 27 28  1  0
 28 29  1  0
 29 30  1  0
 30 31  1  0
 31 32  1  0
 23 33  2  0
 14 34  1  0
 34 35  2  0
  7  2  1  0
 35 11  1  0
 33 19  1  0
 32 27  1  0
  1 36  1  0
  1 37  1  0
  3 38  1  0
  4 39  1  0
  5 40  1  0
  6 41  1  0
 12 42  1  0
 13 43  1  0
 15 44  1  0
 15 45  1  0
 20 46  1  0
 21 47  1  0
 22 48  1  0
 28 49  1  0
 28 50  1  0
 29 51  1  0
 29 52  1  0
 31 53  1  0
 31 54  1  0
 32 55  1  0
 32 56  1  0
 33 57  1  0
 34 58  1  0
 35 59  1  0
M  CHG  2   8  -1  16  -1
M  END
>  <UniqueID>  (56) 
55

>  <SMILES>  (56) 
Nc1ccccc1[N-]C(=O)c1ccc(C[N-]C(=O)c2cccc(S(=O)(=O)N3CCOCC3)c2)cc1

>  <Energy>  (56) 
78.56120728791231

>  <Genealogy>  (56) 
Nc1ccccc1[N-]C(=O)c1ccc(C[N-]C(=O)c2cccc(S(=O)(=O)N3CCOCC3)c2)cc1 (protonated)
Nc1ccccc1[N-]C(=O)c1ccc(C[N-]C(=O)c2cccc(S(=O)(=O)N3CCOCC3)c2)cc1 (3D coordinates assigned)
Nc1ccccc1[N-]C(=O)c1ccc(C[N-]C(=O)c2cccc(S(=O)(=O)N3CCOCC3)c2)cc1 (nonaromatic ring conformer: 78.56120728791231 kcal/mol)

>  <smiles>  (56) 
Nc1ccccc1NC(=O)c1ccc(CNC(=O)c2cccc(S(=O)(=O)N3CCOCC3)c2)cc1

>  <score_type>  (56) 
oracle

>  <origin>  (56) 
adg

>  <m_score__min__energy>  (56) 
-13.359999999999999

>  <m_primary>  (56) 
energy

$$$$
56:0
     RDKit          3D

 32 34  0  0  0  0  0  0  0  0999 V2000
   59.2529   29.0985   47.4882 H   0  0  0  0  0  0  0  0  0  0  0  0
   58.6420   28.9740   46.5820 C   0  0  0  0  0  0  0  0  0  0  0  0
   58.7420   27.7080   45.8320 C   0  0  0  0  0  0  0  0  0  0  0  0
   59.8420   27.4180   45.2860 O   0  0  0  0  0  0  0  0  0  0  0  0
   57.6070   26.8430   45.6630 N   0  0  0  0  0  0  0  0  0  0  0  0
   56.6530   27.2720   45.6830 H   0  0  0  0  0  0  0  0  0  0  0  0
   57.7080   25.4530   45.3110 C   0  0  0  0  0  0  0  0  0  0  0  0
   58.6860   24.6080   45.9100 C   0  0  0  0  0  0  0  0  0  0  0  0
   59.3912   25.0268   46.6430 H   0  0  0  0  0  0  0  0  0  0  0  0
   58.7600   23.2420   45.5740 C   0  0  0  0  0  0  0  0  0  0  0  0
   59.5178   22.5853   46.0261 H   0  0  0  0  0  0  0  0  0  0  0  0
   57.8420   22.7520   44.6510 C   0  0  0  0  0  0  0  0  0  0  0  0
   57.7250   21.4940   44.1910 N   0  0  0  0  0  0  0  0  0  0  0  0
   56.6710   21.6150   43.3440 C   0  0  0  0  0  0  0  0  0  0  0  0
   56.2160   20.6460   42.6810 O   0  0  0  0  0  0  0  0  0  0  0  0
   56.1670   22.8350   43.2740 O   0  0  0  0  0  0  0  0  0  0  0  0
   56.8930   23.5510   44.0880 C   0  0  0  0  0  0  0  0  0  0  0  0
   56.7850   24.9050   44.3930 C   0  0  0  0  0  0  0  0  0  0  0  0
   56.0046   25.5291   43.9331 H   0  0  0  0  0  0  0  0  0  0  0  0
   57.8390   29.9790   46.2070 C   0  0  0  0  0  0  0  0  0  0  0  0
   57.5765   30.7482   46.9483 H   0  0  0  0  0  0  0  0  0  0  0  0
   57.2900   30.0980   44.8370 C   0  0  0  0  0  0  0  0  0  0  0  0
   57.8710   31.0350   43.9660 C   0  0  0  0  0  0  0  0  0  0  0  0
   58.7110   31.6548   44.3127 H   0  0  0  0  0  0  0  0  0  0  0  0
   57.3890   31.1860   42.6600 C   0  0  0  0  0  0  0  0  0  0  0  0
   58.1370   32.3470   41.5790 Cl  0  0  0  0  0  0  0  0  0  0  0  0
   56.3140   30.4120   42.2200 C   0  0  0  0  0  0  0  0  0  0  0  0
   55.9422   30.5233   41.1907 H   0  0  0  0  0  0  0  0  0  0  0  0
   55.7100   29.4970   43.0840 C   0  0  0  0  0  0  0  0  0  0  0  0
   54.8593   28.8937   42.7342 H   0  0  0  0  0  0  0  0  0  0  0  0
   56.1810   29.3430   44.3930 C   0  0  0  0  0  0  0  0  0  0  0  0
   55.5200   28.4650   45.2440 O   0  0  0  0  0  0  0  0  0  0  0  0
  1  2  1  0
  2  3  1  0
  3  4  2  0
  3  5  1  0
  5  6  1  0
  5  7  1  0
  7  8  2  0
  8  9  1  0
  8 10  1  0
 10 11  1  0
 10 12  2  0
 12 13  1  0
 13 14  1  0
 14 15  2  0
 14 16  1  0
 16 17  1  0
 17 18  2  0
 18 19  1  0
  2 20  2  0
 20 21  1  0
 20 22  1  0
 22 23  2  0
 23 24  1  0
 23 25  1  0
 25 26  1  0
 25 27  2  0
 27 28  1  0
 27 29  1  0
 29 30  1  0
 29 31  2  0
 31 32  1  0
 18  7  1  0
 31 22  1  0
 17 12  1  0
M  CHG  2  13  -1  32  -1
M  END
>  <UniqueID>  (57) 
56

>  <SMILES>  (57) 
O=C(/C=C/c1cc(Cl)ccc1[O-])Nc1ccc2[n-]c(=O)oc2c1

>  <Energy>  (57) 
81.07055065948607

>  <Genealogy>  (57) 
O=C(C=Cc1cc(Cl)ccc1[O-])Nc1ccc2[n-]c(=O)oc2c1 (protonated)
O=C(/C=C/c1cc(Cl)ccc1[O-])Nc1ccc2[n-]c(=O)oc2c1 (cis-trans isomerization)
O=C(/C=C/c1cc(Cl)ccc1[O-])Nc1ccc2[n-]c(=O)oc2c1 (3D coordinates assigned)
O=C(/C=C/c1cc(Cl)ccc1[O-])Nc1ccc2[n-]c(=O)oc2c1 (optimized conformer: 81.07055065948607 kcal/mol)

>  <smiles>  (57) 
O=C(C=Cc1cc(Cl)ccc1O)Nc1ccc2[nH]c(=O)oc2c1

>  <score_type>  (57) 
oracle

>  <origin>  (57) 
adg

>  <m_score__min__energy>  (57) 
-12.69

>  <m_primary>  (57) 
energy

$$$$
57:0
     RDKit          3D

 31 33  0  0  0  0  0  0  0  0999 V2000
   58.9300   33.6207   54.4986 H   0  0  0  0  0  0  0  0  0  0  0  0
   58.4380   32.9210   53.8070 C   0  0  0  0  0  0  0  0  0  0  0  0
   57.9780   31.6860   54.2740 C   0  0  0  0  0  0  0  0  0  0  0  0
   58.1097   31.4198   55.3331 H   0  0  0  0  0  0  0  0  0  0  0  0
   57.3480   30.7810   53.4000 C   0  0  0  0  0  0  0  0  0  0  0  0
   56.8620   29.4690   53.8890 C   0  0  0  0  0  0  0  0  0  0  0  0
   57.6400   28.4770   53.8900 O   0  0  0  0  0  0  0  0  0  0  0  0
   55.4900   29.3250   54.2960 N   0  0  0  0  0  0  0  0  0  0  0  0
   54.4190   29.7690   53.7030 C   0  0  0  0  0  0  0  0  0  0  0  0
   54.2820   29.8770   52.0360 S   0  0  0  0  0  0  0  0  0  0  0  0
   52.7280   30.5320   52.0860 C   0  0  0  0  0  0  0  0  0  0  0  0
   51.9290   30.9060   50.8970 C   0  0  0  0  0  0  0  0  0  0  0  0
   51.8160   30.1500   49.7900 N   0  0  0  0  0  0  0  0  0  0  0  0
   51.0070   30.8750   48.9890 C   0  0  0  0  0  0  0  0  0  0  0  0
   50.6640   30.4860   47.8420 O   0  0  0  0  0  0  0  0  0  0  0  0
   50.5960   32.0470   49.5130 N   0  0  0  0  0  0  0  0  0  0  0  0
   51.1860   32.0550   50.7190 C   0  0  0  0  0  0  0  0  0  0  0  0
   51.0450   33.0920   51.6320 O   0  0  0  0  0  0  0  0  0  0  0  0
   52.3610   30.6590   53.4350 C   0  0  0  0  0  0  0  0  0  0  0  0
   51.0510   31.2220   53.9010 C   0  0  0  0  0  0  0  0  0  0  0  0
   51.0268   31.2324   55.0007 H   0  0  0  0  0  0  0  0  0  0  0  0
   50.9374   32.2484   53.5220 H   0  0  0  0  0  0  0  0  0  0  0  0
   50.2282   30.5981   53.5220 H   0  0  0  0  0  0  0  0  0  0  0  0
   53.3080   30.2370   54.3220 N   0  0  0  0  0  0  0  0  0  0  0  0
   53.1760   30.3150   55.3530 H   0  0  0  0  0  0  0  0  0  0  0  0
   57.1910   31.1420   52.0470 C   0  0  0  0  0  0  0  0  0  0  0  0
   56.7022   30.4458   51.3495 H   0  0  0  0  0  0  0  0  0  0  0  0
   57.6520   32.3790   51.5840 C   0  0  0  0  0  0  0  0  0  0  0  0
   57.5246   32.6519   50.5260 H   0  0  0  0  0  0  0  0  0  0  0  0
   58.2740   33.2680   52.4640 C   0  0  0  0  0  0  0  0  0  0  0  0
   58.7200   34.4670   52.0130 F   0  0  0  0  0  0  0  0  0  0  0  0
  1  2  1  0
  2  3  2  0
  3  4  1  0
  3  5  1  0
  5  6  1  0
  6  7  2  0
  6  8  1  0
  8  9  2  0
  9 10  1  0
 10 11  1  0
 11 12  1  0
 12 13  1  0
 13 14  1  0
 14 15  2  0
 14 16  1  0
 16 17  1  0
 17 18  1  0
 11 19  2  0
 19 20  1  0
 20 21  1  0
 20 22  1  0
 20 23  1  0
 19 24  1  0
 24 25  1  0
  5 26  2  0
 26 27  1  0
 26 28  1  0
 28 29  1  0
 28 30  2  0
 30 31  1  0
 30  2  1  0
 24  9  1  0
 17 12  2  0
M  CHG  3  13  -1  16  -1  18  -1
M  END
>  <UniqueID>  (58) 
57

>  <SMILES>  (58) 
Cc1[nH]/c(=N\C(=O)c2ccc(F)cc2)sc1-c1[n-]c(=O)[n-]c1[O-]

>  <Energy>  (58) 
99.56248796530332

>  <Genealogy>  (58) 
Cc1[nH]c(=NC(=O)c2ccc(F)cc2)sc1-c1[n-]c(=O)[n-]c1[O-] (protonated)
Cc1[nH]/c(=N\C(=O)c2ccc(F)cc2)sc1-c1[n-]c(=O)[n-]c1[O-] (cis-trans isomerization)
Cc1[nH]/c(=N\C(=O)c2ccc(F)cc2)sc1-c1[n-]c(=O)[n-]c1[O-] (3D coordinates assigned)
Cc1[nH]/c(=N\C(=O)c2ccc(F)cc2)sc1-c1[n-]c(=O)[n-]c1[O-] (optimized conformer: 99.56248796530332 kcal/mol)

>  <smiles>  (58) 
Cc1[nH]c(=NC(=O)c2ccc(F)cc2)sc1-c1[nH]c(=O)[nH]c1O

>  <score_type>  (58) 
oracle

>  <origin>  (58) 
adg

>  <m_score__min__energy>  (58) 
-15.449999999999999

>  <m_primary>  (58) 
energy

$$$$
58:0
     RDKit          3D

 71 75  0  0  1  0  0  0  0  0999 V2000
   59.0200   33.2960   45.2420 C   0  0  0  0  0  0  0  0  0  0  0  0
   58.2220   32.3980   44.3760 C   0  0  0  0  0  0  0  0  0  0  0  0
   58.1430   32.7320   43.0210 C   0  0  0  0  0  0  0  0  0  0  0  0
   57.4250   31.9680   42.1260 C   0  0  0  0  0  0  0  0  0  0  0  0
   57.3740   32.3510   40.7440 C   0  0  0  0  0  0  0  0  0  0  0  0
   57.3150   32.6680   39.6380 N   0  0  0  0  0  0  0  0  0  0  0  0
   56.7810   30.8540   42.6060 C   0  0  0  0  0  0  0  0  0  0  0  0
   56.8640   30.5310   43.9460 C   0  0  0  0  0  0  0  0  0  0  0  0
   56.1370   29.3210   44.3930 C   0  0  0  0  0  0  0  0  0  0  0  0
   57.5690   31.2690   44.8650 C   0  0  0  0  0  0  0  0  0  0  0  0
   57.6840   30.9980   46.1940 O   0  0  0  0  0  0  0  0  0  0  0  0
   58.4150   29.9880   46.7880 C   0  0  0  0  0  0  0  0  0  0  0  0
   59.3010   30.3380   47.8130 C   0  0  0  0  0  0  0  0  0  0  0  0
   59.1070   27.7730   47.1010 C   0  0  0  0  0  0  0  0  0  0  0  0
   58.9910   26.5640   46.7400 N   0  0  0  0  0  0  0  0  0  0  0  0
   60.4990   30.7830   50.2330 C   0  0  0  0  0  0  0  0  0  0  0  0
   61.1900   31.9750   50.1540 C   0  0  0  0  0  0  0  0  0  0  0  0
   60.7830   33.0090   50.9830 C   0  0  0  0  0  0  0  0  0  0  0  0
   59.7230   32.8190   51.8440 C   0  0  0  0  0  0  0  0  0  0  0  0
   59.2620   33.8750   52.7300 C   0  0  0  0  0  0  0  0  0  0  0  0
   58.8840   34.7180   53.4210 N   0  0  0  0  0  0  0  0  0  0  0  0
   59.0500   31.6100   51.8990 C   0  0  0  0  0  0  0  0  0  0  0  0
   59.4370   30.5770   51.0890 C   0  0  0  0  0  0  0  0  0  0  0  0
   59.9700   28.0640   48.0910 N   0  0  0  0  0  0  0  0  0  0  0  0
   60.0700   29.3570   48.4510 C   0  0  0  0  0  0  0  0  0  0  0  0
   60.8850   29.6980   49.4000 N   0  0  0  0  0  0  0  0  0  0  0  0
   57.7990   25.8040   46.5880 C   0  0  0  0  0  0  0  0  0  0  0  0
   57.0440   25.8750   45.3150 C   0  0  0  0  0  0  0  0  0  0  0  0
   55.5680   25.6080   45.6610 C   0  0  0  0  0  0  0  0  0  0  0  0
   55.3790   24.4540   46.4380 N   0  0  0  0  0  0  0  0  0  0  0  0
   54.8740   23.2810   45.8590 C   0  0  0  0  0  0  0  0  0  0  0  0
   55.8150   22.6360   44.9150 C   0  0  0  0  0  0  0  0  0  0  0  0
   56.7650   21.7130   45.2800 C   0  0  0  0  0  0  0  0  0  0  0  0
   57.6400   21.1240   44.3820 C   0  0  0  0  0  0  0  0  0  0  0  0
   57.5560   21.4790   43.0610 C   0  0  0  0  0  0  0  0  0  0  0  0
   56.6280   22.3960   42.6390 C   0  0  0  0  0  0  0  0  0  0  0  0
   55.7640   22.9690   43.5580 C   0  0  0  0  0  0  0  0  0  0  0  0
   56.1870   24.3010   47.5980 C   0  0  0  0  0  0  0  0  0  0  0  0
   57.6830   24.5020   47.2860 C   0  0  0  0  0  0  0  0  0  0  0  0
   58.3580   28.6970   46.4720 N   0  0  0  0  0  0  0  0  0  0  0  0
   58.8147   33.0650   46.2977 H   0  0  0  0  0  0  0  0  0  0  0  0
   60.0904   33.1484   45.0358 H   0  0  0  0  0  0  0  0  0  0  0  0
   58.7476   34.3416   45.0358 H   0  0  0  0  0  0  0  0  0  0  0  0
   58.6678   33.6285   42.6592 H   0  0  0  0  0  0  0  0  0  0  0  0
   56.1987   30.2186   41.9225 H   0  0  0  0  0  0  0  0  0  0  0  0
   56.1182   29.2897   45.4924 H   0  0  0  0  0  0  0  0  0  0  0  0
   55.1065   29.3497   44.0093 H   0  0  0  0  0  0  0  0  0  0  0  0
   56.6462   28.4246   44.0093 H   0  0  0  0  0  0  0  0  0  0  0  0
   59.3940   31.3903   48.1195 H   0  0  0  0  0  0  0  0  0  0  0  0
   62.0330   32.1001   49.4586 H   0  0  0  0  0  0  0  0  0  0  0  0
   61.3038   33.9774   50.9540 H   0  0  0  0  0  0  0  0  0  0  0  0
   58.2060   31.4802   52.5924 H   0  0  0  0  0  0  0  0  0  0  0  0
   58.9155   29.6090   51.1197 H   0  0  0  0  0  0  0  0  0  0  0  0
   60.5230   27.2940   48.5370 H   0  0  0  0  0  0  0  0  0  0  0  0
   57.2238   26.4840   47.2335 H   0  0  0  0  0  0  0  0  0  0  0  0
   57.1534   26.8725   44.8644 H   0  0  0  0  0  0  0  0  0  0  0  0
   57.4202   25.1381   44.5901 H   0  0  0  0  0  0  0  0  0  0  0  0
   55.1785   26.4722   46.2191 H   0  0  0  0  0  0  0  0  0  0  0  0
   55.0342   25.4523   44.7119 H   0  0  0  0  0  0  0  0  0  0  0  0
   54.6435   22.5669   46.6634 H   0  0  0  0  0  0  0  0  0  0  0  0
   53.9803   23.5632   45.2830 H   0  0  0  0  0  0  0  0  0  0  0  0
   56.8344   21.4270   46.3399 H   0  0  0  0  0  0  0  0  0  0  0  0
   58.3846   20.3888   44.7212 H   0  0  0  0  0  0  0  0  0  0  0  0
   58.2409   21.0231   42.3309 H   0  0  0  0  0  0  0  0  0  0  0  0
   56.5699   22.6752   41.5766 H   0  0  0  0  0  0  0  0  0  0  0  0
   55.0209   23.7027   43.2122 H   0  0  0  0  0  0  0  0  0  0  0  0
   55.8771   25.0436   48.3479 H   0  0  0  0  0  0  0  0  0  0  0  0
   56.0517   23.2767   47.9754 H   0  0  0  0  0  0  0  0  0  0  0  0
   58.2663   24.5180   48.2185 H   0  0  0  0  0  0  0  0  0  0  0  0
   58.0719   23.6825   46.6638 H   0  0  0  0  0  0  0  0  0  0  0  0
   57.7290   28.3880   45.7320 H   0  0  0  0  0  0  0  0  0  0  0  0
  1  2  1  0
  2  3  2  0
  3  4  1  0
  4  5  1  0
  5  6  3  0
  4  7  2  0
  7  8  1  0
  8  9  1  0
  8 10  2  0
 10 11  1  0
 11 12  1  0
 12 13  2  0
 13 14  1  0
 14 15  2  0
 15 16  1  0
 16 17  2  0
 17 18  1  0
 18 19  2  0
 19 20  1  0
 20 21  3  0
 19 22  1  0
 22 23  2  0
 14 24  1  0
 24 25  1  0
 25 26  2  0
 26 27  1  0
 27 28  1  0
 28 29  1  0
 29 30  1  0
 30 31  1  0
 31 32  1  0
 32 33  2  0
 33 34  1  0
 34 35  2  0
 35 36  1  0
 36 37  2  0
 30 38  1  0
 38 39  1  0
 25 40  1  0
 10  2  1  0
 40 12  1  0
 23 16  1  0
 39 27  1  0
 37 32  1  0
  1 41  1  0
  1 42  1  0
  1 43  1  0
  3 44  1  0
  7 45  1  0
  9 46  1  0
  9 47  1  0
  9 48  1  0
 13 49  1  0
 17 50  1  0
 18 51  1  0
 22 52  1  0
 23 53  1  0
 24 54  1  0
 27 55  1  0
 28 56  1  0
 28 57  1  0
 29 58  1  0
 29 59  1  0
 31 60  1  0
 31 61  1  0
 33 62  1  0
 34 63  1  0
 35 64  1  0
 36 65  1  0
 37 66  1  0
 38 67  1  0
 38 68  1  0
 39 69  1  0
 39 70  1  0
 40 71  1  0
M  END
>  <smiles>  (59) 
Cc1cc(C#N)cc(C)c1Oc1cc(=Nc2ccc(C#N)cc2)[nH]c(=NC2CCN(Cc3ccccc3)CC2)[nH]1

>  <score_type>  (59) 
oracle

>  <origin>  (59) 
adg

>  <m_score__min__energy>  (59) 
-10.109999999999999

>  <m_primary>  (59) 
energy

$$$$
59:0
     RDKit          3D

 44 46  0  0  0  0  0  0  0  0999 V2000
   59.7000   26.2080   46.1620 C   0  0  0  0  0  0  0  0  0  0  0  0
   58.2180   26.4200   46.0780 C   0  0  0  0  0  0  0  0  0  0  0  0
   57.3870   25.4020   46.4290 N   0  0  0  0  0  0  0  0  0  0  0  0
   56.0390   25.5390   46.3740 C   0  0  0  0  0  0  0  0  0  0  0  0
   55.2960   24.5780   46.7010 O   0  0  0  0  0  0  0  0  0  0  0  0
   55.4910   26.7120   45.9710 N   0  0  0  0  0  0  0  0  0  0  0  0
   56.2700   27.7640   45.6090 C   0  0  0  0  0  0  0  0  0  0  0  0
   55.7230   28.8450   45.2640 O   0  0  0  0  0  0  0  0  0  0  0  0
   57.6710   27.6410   45.6350 C   0  0  0  0  0  0  0  0  0  0  0  0
   58.5460   28.7810   45.2760 C   0  0  0  0  0  0  0  0  0  0  0  0
   58.4180   29.5240   44.1660 C   0  0  0  0  0  0  0  0  0  0  0  0
   57.1880   30.2410   43.7480 C   0  0  0  0  0  0  0  0  0  0  0  0
   56.5710   29.9020   42.7040 O   0  0  0  0  0  0  0  0  0  0  0  0
   56.7200   31.3840   44.4770 N   0  0  0  0  0  0  0  0  0  0  0  0
   57.5620   32.3890   45.0580 C   0  0  0  0  0  0  0  0  0  0  0  0
   57.7080   33.6030   44.3790 C   0  0  0  0  0  0  0  0  0  0  0  0
   58.5640   34.5880   44.8670 C   0  0  0  0  0  0  0  0  0  0  0  0
   59.2710   34.3760   46.0480 C   0  0  0  0  0  0  0  0  0  0  0  0
   59.1170   33.1810   46.7690 C   0  0  0  0  0  0  0  0  0  0  0  0
   59.8300   33.0340   48.0590 C   0  0  0  0  0  0  0  0  0  0  0  0
   59.1580   32.7840   49.0960 O   0  0  0  0  0  0  0  0  0  0  0  0
   61.3020   33.2030   48.1630 C   0  0  0  0  0  0  0  0  0  0  0  0
   62.1540   32.8150   47.1110 C   0  0  0  0  0  0  0  0  0  0  0  0
   63.5380   32.9710   47.2260 C   0  0  0  0  0  0  0  0  0  0  0  0
   64.0890   33.5110   48.3900 C   0  0  0  0  0  0  0  0  0  0  0  0
   63.2550   33.8910   49.4440 C   0  0  0  0  0  0  0  0  0  0  0  0
   61.8700   33.7360   49.3350 C   0  0  0  0  0  0  0  0  0  0  0  0
   58.2430   32.1780   46.2810 C   0  0  0  0  0  0  0  0  0  0  0  0
   58.0390   30.9630   47.0200 N   0  0  0  0  0  0  0  0  0  0  0  0
   60.0049   26.1644   47.2180 H   0  0  0  0  0  0  0  0  0  0  0  0
   59.9640   25.2630   45.6648 H   0  0  0  0  0  0  0  0  0  0  0  0
   60.2183   27.0411   45.6648 H   0  0  0  0  0  0  0  0  0  0  0  0
   59.3601   29.0372   45.9700 H   0  0  0  0  0  0  0  0  0  0  0  0
   59.2981   29.6086   43.5115 H   0  0  0  0  0  0  0  0  0  0  0  0
   57.1426   33.7815   43.4525 H   0  0  0  0  0  0  0  0  0  0  0  0
   58.6816   35.5344   44.3188 H   0  0  0  0  0  0  0  0  0  0  0  0
   59.9565   35.1520   46.4194 H   0  0  0  0  0  0  0  0  0  0  0  0
   61.7272   32.3861   46.1924 H   0  0  0  0  0  0  0  0  0  0  0  0
   64.1950   32.6677   46.3975 H   0  0  0  0  0  0  0  0  0  0  0  0
   65.1783   33.6369   48.4767 H   0  0  0  0  0  0  0  0  0  0  0  0
   63.6892   34.3133   50.3622 H   0  0  0  0  0  0  0  0  0  0  0  0
   61.2197   34.0327   50.1711 H   0  0  0  0  0  0  0  0  0  0  0  0
   58.4680   30.8270   47.9620 H   0  0  0  0  0  0  0  0  0  0  0  0
   57.4680   30.1790   46.6400 H   0  0  0  0  0  0  0  0  0  0  0  0
  1  2  1  0
  2  3  1  0
  3  4  1  0
  4  5  2  0
  4  6  1  0
  6  7  1  0
  7  8  2  0
  7  9  1  0
  9 10  1  0
 10 11  2  3
 11 12  1  0
 12 13  2  0
 12 14  1  0
 14 15  1  0
 15 16  2  0
 16 17  1  0
 17 18  2  0
 18 19  1  0
 19 20  1  0
 20 21  2  0
 20 22  1  0
 22 23  2  0
 23 24  1  0
 24 25  2  0
 25 26  1  0
 26 27  2  0
 19 28  2  0
 28 29  1  0
  9  2  2  0
 28 15  1  0
 27 22  1  0
  1 30  1  0
  1 31  1  0
  1 32  1  0
 10 33  1  0
 11 34  1  0
 16 35  1  0
 17 36  1  0
 18 37  1  0
 23 38  1  0
 24 39  1  0
 25 40  1  0
 26 41  1  0
 27 42  1  0
 29 43  1  0
 29 44  1  0
M  CHG  3   3  -1   6  -1  14  -1
M  END
>  <UniqueID>  (60) 
58

>  <SMILES>  (60) 
Cc1[n-]c(=O)[n-]c(=O)c1C=CC(=O)[N-]c1cccc(C(=O)c2ccccc2)c1N

>  <Energy>  (60) 
72.67250063651043

>  <Genealogy>  (60) 
Cc1[n-]c(=O)[n-]c(=O)c1C=CC(=O)[N-]c1cccc(C(=O)c2ccccc2)c1N (protonated)
Cc1[n-]c(=O)[n-]c(=O)c1C=CC(=O)[N-]c1cccc(C(=O)c2ccccc2)c1N (3D coordinates assigned)
Cc1[n-]c(=O)[n-]c(=O)c1C=CC(=O)[N-]c1cccc(C(=O)c2ccccc2)c1N (optimized conformer: 72.67250063651043 kcal/mol)

>  <smiles>  (60) 
Cc1[nH]c(=O)[nH]c(=O)c1C=CC(=O)Nc1cccc(C(=O)c2ccccc2)c1N

>  <score_type>  (60) 
oracle

>  <origin>  (60) 
adg

>  <m_score__min__energy>  (60) 
-14.44

>  <m_primary>  (60) 
energy

$$$$
60:0
     RDKit          3D

 46 47  0  0  0  0  0  0  0  0999 V2000
   55.1780   28.5960   45.6190 H   0  0  0  0  0  0  0  0  0  0  0  0
   55.1610   29.3220   44.8690 N   0  0  0  0  0  0  0  0  0  0  0  0
   56.3680   29.9220   44.4010 C   0  0  0  0  0  0  0  0  0  0  0  0
   56.5290   31.1650   44.5210 O   0  0  0  0  0  0  0  0  0  0  0  0
   57.4290   29.1140   43.7760 C   0  0  0  0  0  0  0  0  0  0  0  0
   57.9378   29.5060   42.8830 H   0  0  0  0  0  0  0  0  0  0  0  0
   57.7970   27.9170   44.2570 C   0  0  0  0  0  0  0  0  0  0  0  0
   57.4669   27.0168   43.7179 H   0  0  0  0  0  0  0  0  0  0  0  0
   58.6240   27.7400   45.4750 C   0  0  0  0  0  0  0  0  0  0  0  0
   59.2980   26.5230   45.6590 C   0  0  0  0  0  0  0  0  0  0  0  0
   59.1919   25.7233   44.9112 H   0  0  0  0  0  0  0  0  0  0  0  0
   60.1020   26.3170   46.7820 C   0  0  0  0  0  0  0  0  0  0  0  0
   60.6215   25.3567   46.9162 H   0  0  0  0  0  0  0  0  0  0  0  0
   60.2480   27.3260   47.7340 C   0  0  0  0  0  0  0  0  0  0  0  0
   60.8840   27.1582   48.6157 H   0  0  0  0  0  0  0  0  0  0  0  0
   59.5870   28.5560   47.5730 C   0  0  0  0  0  0  0  0  0  0  0  0
   59.7760   29.6140   48.5330 N   0  0  0  0  0  0  0  0  0  0  0  0
   59.0260   30.3360   48.4150 H   0  0  0  0  0  0  0  0  0  0  0  0
   59.6980   29.2270   49.5040 H   0  0  0  0  0  0  0  0  0  0  0  0
   61.0940   30.2340   48.3470 C   0  0  0  0  0  0  0  0  0  0  0  0
   61.7555   29.5286   47.8228 H   0  0  0  0  0  0  0  0  0  0  0  0
   61.5127   30.4840   49.3330 H   0  0  0  0  0  0  0  0  0  0  0  0
   60.9720   31.4910   47.5380 C   0  0  0  0  0  0  0  0  0  0  0  0
   59.8020   31.9890   47.1070 N   0  0  0  0  0  0  0  0  0  0  0  0
   60.1420   33.1470   46.4940 C   0  0  0  0  0  0  0  0  0  0  0  0
   59.1230   34.1100   45.9160 C   0  0  0  0  0  0  0  0  0  0  0  0
   57.8080   33.9690   46.7010 C   0  0  0  0  0  0  0  0  0  0  0  0
   58.0208   33.9918   47.7800 H   0  0  0  0  0  0  0  0  0  0  0  0
   57.1356   34.8002   46.4422 H   0  0  0  0  0  0  0  0  0  0  0  0
   57.3271   33.0141   46.4422 H   0  0  0  0  0  0  0  0  0  0  0  0
   58.8700   33.7890   44.4290 C   0  0  0  0  0  0  0  0  0  0  0  0
   58.1908   32.9273   44.3503 H   0  0  0  0  0  0  0  0  0  0  0  0
   58.4140   34.6613   43.9380 H   0  0  0  0  0  0  0  0  0  0  0  0
   59.8247   33.5494   43.9380 H   0  0  0  0  0  0  0  0  0  0  0  0
   59.6380   35.5600   46.0300 C   0  0  0  0  0  0  0  0  0  0  0  0
   59.7347   35.8324   47.0913 H   0  0  0  0  0  0  0  0  0  0  0  0
   60.6196   35.6401   45.5400 H   0  0  0  0  0  0  0  0  0  0  0  0
   58.9269   36.2413   45.5400 H   0  0  0  0  0  0  0  0  0  0  0  0
   61.4650   33.4220   46.5610 N   0  0  0  0  0  0  0  0  0  0  0  0
   61.9830   32.3700   47.2150 C   0  0  0  0  0  0  0  0  0  0  0  0
   63.4340   32.2250   47.5450 C   0  0  0  0  0  0  0  0  0  0  0  0
   63.5621   32.2122   48.6374 H   0  0  0  0  0  0  0  0  0  0  0  0
   63.8144   31.2844   47.1202 H   0  0  0  0  0  0  0  0  0  0  0  0
   63.9930   33.0718   47.1202 H   0  0  0  0  0  0  0  0  0  0  0  0
   58.7890   28.7620   46.4330 C   0  0  0  0  0  0  0  0  0  0  0  0
   58.2883   29.7305   46.2871 H   0  0  0  0  0  0  0  0  0  0  0  0
  1  2  1  0
  2  3  1  0
  3  4  2  0
  3  5  1  0
  5  6  1  0
  5  7  2  0
  7  8  1  0
  7  9  1  0
  9 10  2  0
 10 11  1  0
 10 12  1  0
 12 13  1  0
 12 14  2  0
 14 15  1  0
 14 16  1  0
 16 17  1  0
 17 18  1  0
 17 19  1  0
 17 20  1  0
 20 21  1  0
 20 22  1  0
 20 23  1  0
 23 24  1  0
 24 25  2  0
 25 26  1  0
 26 27  1  0
 27 28  1  0
 27 29  1  0
 27 30  1  0
 26 31  1  0
 31 32  1  0
 31 33  1  0
 31 34  1  0
 26 35  1  0
 35 36  1  0
 35 37  1  0
 35 38  1  0
 25 39  1  0
 39 40  1  0
 40 41  1  0
 41 42  1  0
 41 43  1  0
 41 44  1  0
 16 45  2  0
 45 46  1  0
 45  9  1  0
 40 23  2  0
M  CHG  3   2  -1  17   1  39  -1
M  END
>  <UniqueID>  (61) 
59

>  <SMILES>  (61) 
Cc1[n-]c(C(C)(C)C)nc1C[NH2+]c1cccc(/C=C/C([NH-])=O)c1

>  <Energy>  (61) 
67.22059161948513

>  <Genealogy>  (61) 
Cc1[n-]c(C(C)(C)C)nc1C[NH2+]c1cccc(C=CC([NH-])=O)c1 (protonated)
Cc1[n-]c(C(C)(C)C)nc1C[NH2+]c1cccc(/C=C/C([NH-])=O)c1 (cis-trans isomerization)
Cc1[n-]c(C(C)(C)C)nc1C[NH2+]c1cccc(/C=C/C([NH-])=O)c1 (3D coordinates assigned)
Cc1[n-]c(C(C)(C)C)nc1C[NH2+]c1cccc(/C=C/C([NH-])=O)c1 (optimized conformer: 67.22059161948513 kcal/mol)

>  <smiles>  (61) 
Cc1[nH]c(C(C)(C)C)nc1CNc1cccc(C=CC(N)=O)c1

>  <score_type>  (61) 
oracle

>  <origin>  (61) 
adg

>  <m_score__min__energy>  (61) 
-11.640000000000001

>  <m_primary>  (61) 
energy

$$$$
61:0
     RDKit          3D

 38 40  0  0  0  0  0  0  0  0999 V2000
   59.0800   23.7770   45.9970 O   0  0  0  0  0  0  0  0  0  0  0  0
   57.9380   23.2650   46.1310 C   0  0  0  0  0  0  0  0  0  0  0  0
   57.7240   22.3080   47.1150 O   0  0  0  0  0  0  0  0  0  0  0  0
   56.8040   23.7220   45.2730 C   0  0  0  0  0  0  0  0  0  0  0  0
   56.6120   25.1970   45.4200 C   0  0  0  0  0  0  0  0  0  0  0  0
   57.4410   26.1750   44.9140 C   0  0  0  0  0  0  0  0  0  0  0  0
   56.8050   27.3490   45.2570 C   0  0  0  0  0  0  0  0  0  0  0  0
   57.2750   28.7040   44.9490 C   0  0  0  0  0  0  0  0  0  0  0  0
   57.7870   28.9420   43.8220 O   0  0  0  0  0  0  0  0  0  0  0  0
   57.2000   29.6980   45.9330 O   0  0  0  0  0  0  0  0  0  0  0  0
   57.7680   30.9790   45.8460 C   0  0  0  0  0  0  0  0  0  0  0  0
   57.2660   31.9480   44.9570 C   0  0  0  0  0  0  0  0  0  0  0  0
   57.8490   33.2140   44.8840 C   0  0  0  0  0  0  0  0  0  0  0  0
   58.9300   33.5350   45.7060 C   0  0  0  0  0  0  0  0  0  0  0  0
   59.6550   35.1300   45.6190 Cl  0  0  0  0  0  0  0  0  0  0  0  0
   59.4250   32.5920   46.6110 C   0  0  0  0  0  0  0  0  0  0  0  0
   58.8520   31.3090   46.6900 C   0  0  0  0  0  0  0  0  0  0  0  0
   59.3740   30.3280   47.6730 C   0  0  0  0  0  0  0  0  0  0  0  0
   59.7110   30.7350   48.8190 O   0  0  0  0  0  0  0  0  0  0  0  0
   59.5210   28.8880   47.3490 C   0  0  0  0  0  0  0  0  0  0  0  0
   60.3450   28.4610   46.2930 C   0  0  0  0  0  0  0  0  0  0  0  0
   60.4510   27.0990   46.0040 C   0  0  0  0  0  0  0  0  0  0  0  0
   59.7530   26.1870   46.7350 N   0  0  0  0  0  0  0  0  0  0  0  0
   58.9380   26.5710   47.7540 C   0  0  0  0  0  0  0  0  0  0  0  0
   58.8040   27.9240   48.0750 C   0  0  0  0  0  0  0  0  0  0  0  0
   55.6610   27.0780   45.9160 N   0  0  0  0  0  0  0  0  0  0  0  0
   55.5400   25.7620   46.0100 N   0  0  0  0  0  0  0  0  0  0  0  0
   57.0253   23.4867   44.2215 H   0  0  0  0  0  0  0  0  0  0  0  0
   55.8844   23.2058   45.5860 H   0  0  0  0  0  0  0  0  0  0  0  0
   58.3864   26.0486   44.3661 H   0  0  0  0  0  0  0  0  0  0  0  0
   56.4069   31.7054   44.3143 H   0  0  0  0  0  0  0  0  0  0  0  0
   57.4558   33.9598   44.1775 H   0  0  0  0  0  0  0  0  0  0  0  0
   60.2686   32.8545   47.2663 H   0  0  0  0  0  0  0  0  0  0  0  0
   60.9041   29.1971   45.6967 H   0  0  0  0  0  0  0  0  0  0  0  0
   61.1007   26.7618   45.1829 H   0  0  0  0  0  0  0  0  0  0  0  0
   59.8430   25.1720   46.5060 H   0  0  0  0  0  0  0  0  0  0  0  0
   58.3827   25.8139   48.3271 H   0  0  0  0  0  0  0  0  0  0  0  0
   58.1384   28.2331   48.8944 H   0  0  0  0  0  0  0  0  0  0  0  0
  1  2  2  0
  2  3  1  0
  2  4  1  0
  4  5  1  0
  5  6  1  0
  6  7  2  0
  7  8  1  0
  8  9  2  0
  8 10  1  0
 10 11  1  0
 11 12  2  0
 12 13  1  0
 13 14  2  0
 14 15  1  0
 14 16  1  0
 16 17  2  0
 17 18  1  0
 18 19  2  0
 18 20  1  0
 20 21  2  0
 21 22  1  0
 22 23  2  0
 23 24  1  0
 24 25  2  0
  7 26  1  0
 26 27  1  0
 27  5  2  0
 17 11  1  0
 25 20  1  0
  4 28  1  0
  4 29  1  0
  6 30  1  0
 12 31  1  0
 13 32  1  0
 16 33  1  0
 21 34  1  0
 22 35  1  0
 23 36  1  0
 24 37  1  0
 25 38  1  0
M  CHG  3   3  -1  23   1  26  -1
M  END
>  <UniqueID>  (62) 
60

>  <SMILES>  (62) 
O=C([O-])Cc1cc(C(=O)Oc2ccc(Cl)cc2C(=O)c2cc[nH+]cc2)[n-]n1

>  <Energy>  (62) 
77.9988618694231

>  <Genealogy>  (62) 
O=C([O-])Cc1cc(C(=O)Oc2ccc(Cl)cc2C(=O)c2cc[nH+]cc2)[n-]n1 (protonated)
O=C([O-])Cc1cc(C(=O)Oc2ccc(Cl)cc2C(=O)c2cc[nH+]cc2)[n-]n1 (3D coordinates assigned)
O=C([O-])Cc1cc(C(=O)Oc2ccc(Cl)cc2C(=O)c2cc[nH+]cc2)[n-]n1 (optimized conformer: 77.9988618694231 kcal/mol)

>  <smiles>  (62) 
O=C(O)Cc1cc(C(=O)Oc2ccc(Cl)cc2C(=O)c2ccncc2)[nH]n1

>  <score_type>  (62) 
oracle

>  <origin>  (62) 
adg

>  <m_score__min__energy>  (62) 
-11.859999999999999

>  <m_primary>  (62) 
energy

$$$$
62:0
     RDKit          3D

 71 75  0  0  0  0  0  0  0  0999 V2000
   57.8120   33.3670   45.6030 C   0  0  0  0  0  0  0  0  0  0  0  0
   57.6890   31.9760   45.8860 O   0  0  0  0  0  0  0  0  0  0  0  0
   57.4430   30.9830   44.9250 C   0  0  0  0  0  0  0  0  0  0  0  0
   56.6230   31.2150   43.8010 C   0  0  0  0  0  0  0  0  0  0  0  0
   56.4190   30.2070   42.8540 C   0  0  0  0  0  0  0  0  0  0  0  0
   57.0200   28.9570   43.0200 C   0  0  0  0  0  0  0  0  0  0  0  0
   57.8300   28.7130   44.1310 C   0  0  0  0  0  0  0  0  0  0  0  0
   58.0430   29.7190   45.0880 C   0  0  0  0  0  0  0  0  0  0  0  0
   58.8470   29.4440   46.2480 N   0  0  0  0  0  0  0  0  0  0  0  0
   58.7060   28.1620   46.9430 C   0  0  0  0  0  0  0  0  0  0  0  0
   58.8990   28.3780   48.4500 C   0  0  0  0  0  0  0  0  0  0  0  0
   60.1380   29.1400   48.7960 N   0  0  0  0  0  0  0  0  0  0  0  0
   61.0290   28.3800   49.7110 C   0  0  0  0  0  0  0  0  0  0  0  0
   60.7220   28.5870   51.2160 C   0  0  0  0  0  0  0  0  0  0  0  0
   61.2500   29.9280   51.7330 C   0  0  0  0  0  0  0  0  0  0  0  0
   61.1720   30.9650   50.7070 N   0  0  0  0  0  0  0  0  0  0  0  0
   60.0020   31.7670   50.4790 C   0  0  0  0  0  0  0  0  0  0  0  0
   58.9770   31.2540   49.9450 O   0  0  0  0  0  0  0  0  0  0  0  0
   59.9980   33.2320   50.8730 C   0  0  2  0  0  0  0  0  0  0  0  0
   59.2360   33.4340   52.2030 C   0  0  0  0  0  0  0  0  0  0  0  0
   58.2730   32.3170   52.5430 C   0  0  0  0  0  0  0  0  0  0  0  0
   58.6470   31.3100   53.4530 C   0  0  0  0  0  0  0  0  0  0  0  0
   57.7680   30.2640   53.7500 C   0  0  0  0  0  0  0  0  0  0  0  0
   56.5070   30.2200   53.1520 C   0  0  0  0  0  0  0  0  0  0  0  0
   56.1190   31.2280   52.2650 C   0  0  0  0  0  0  0  0  0  0  0  0
   56.9960   32.2730   51.9570 C   0  0  0  0  0  0  0  0  0  0  0  0
   59.3000   34.0170   49.8400 N   0  0  0  0  0  0  0  0  0  0  0  0
   59.7980   34.3370   48.6790 C   0  0  0  0  0  0  0  0  0  0  0  0
   61.1680   33.9570   48.2950 C   0  0  0  0  0  0  0  0  0  0  0  0
   61.5310   33.8840   46.9400 C   0  0  0  0  0  0  0  0  0  0  0  0
   62.8140   33.4550   46.5770 C   0  0  0  0  0  0  0  0  0  0  0  0
   63.7320   33.0800   47.5620 C   0  0  0  0  0  0  0  0  0  0  0  0
   63.3830   33.1650   48.9120 C   0  0  0  0  0  0  0  0  0  0  0  0
   62.1110   33.6230   49.2820 C   0  0  0  0  0  0  0  0  0  0  0  0
   61.7210   33.8680   51.0190 S   0  0  0  0  0  0  0  0  0  0  0  0
   60.8700   29.6970   47.6290 C   0  0  0  0  0  0  0  0  0  0  0  0
   59.9090   30.3770   46.6460 C   0  0  0  0  0  0  0  0  0  0  0  0
   57.8618   33.9302   46.5466 H   0  0  0  0  0  0  0  0  0  0  0  0
   58.7292   33.5433   45.0220 H   0  0  0  0  0  0  0  0  0  0  0  0
   56.9399   33.7015   45.0220 H   0  0  0  0  0  0  0  0  0  0  0  0
   56.1411   32.1950   43.6688 H   0  0  0  0  0  0  0  0  0  0  0  0
   55.7840   30.3986   41.9765 H   0  0  0  0  0  0  0  0  0  0  0  0
   56.8551   28.1645   42.2752 H   0  0  0  0  0  0  0  0  0  0  0  0
   58.3036   27.7282   44.2574 H   0  0  0  0  0  0  0  0  0  0  0  0
   57.7028   27.7512   46.7562 H   0  0  0  0  0  0  0  0  0  0  0  0
   59.4639   27.4564   46.5719 H   0  0  0  0  0  0  0  0  0  0  0  0
   58.0311   28.9337   48.8348 H   0  0  0  0  0  0  0  0  0  0  0  0
   58.9970   27.3821   48.9067 H   0  0  0  0  0  0  0  0  0  0  0  0
   59.8220   29.9750   49.3490 H   0  0  0  0  0  0  0  0  0  0  0  0
   60.9254   27.3091   49.4822 H   0  0  0  0  0  0  0  0  0  0  0  0
   62.0489   28.7559   49.5425 H   0  0  0  0  0  0  0  0  0  0  0  0
   59.6324   28.5543   51.3634 H   0  0  0  0  0  0  0  0  0  0  0  0
   61.2252   27.7860   51.7774 H   0  0  0  0  0  0  0  0  0  0  0  0
   60.6496   30.2380   52.6010 H   0  0  0  0  0  0  0  0  0  0  0  0
   62.3057   29.7985   52.0136 H   0  0  0  0  0  0  0  0  0  0  0  0
   59.9741   33.5120   53.0149 H   0  0  0  0  0  0  0  0  0  0  0  0
   58.6327   34.3463   52.0858 H   0  0  0  0  0  0  0  0  0  0  0  0
   59.6361   31.3463   53.9330 H   0  0  0  0  0  0  0  0  0  0  0  0
   58.0700   29.4755   54.4550 H   0  0  0  0  0  0  0  0  0  0  0  0
   55.8191   29.3922   53.3790 H   0  0  0  0  0  0  0  0  0  0  0  0
   55.1193   31.1993   51.8070 H   0  0  0  0  0  0  0  0  0  0  0  0
   56.6861   33.0614   51.2553 H   0  0  0  0  0  0  0  0  0  0  0  0
   59.1797   34.9050   47.9683 H   0  0  0  0  0  0  0  0  0  0  0  0
   60.8058   34.1645   46.1619 H   0  0  0  0  0  0  0  0  0  0  0  0
   63.0994   33.4132   45.5155 H   0  0  0  0  0  0  0  0  0  0  0  0
   64.7299   32.7177   47.2740 H   0  0  0  0  0  0  0  0  0  0  0  0
   64.1077   32.8720   49.6860 H   0  0  0  0  0  0  0  0  0  0  0  0
   61.6027   30.4365   47.9844 H   0  0  0  0  0  0  0  0  0  0  0  0
   61.3754   28.8708   47.1075 H   0  0  0  0  0  0  0  0  0  0  0  0
   59.4579   31.2566   47.1285 H   0  0  0  0  0  0  0  0  0  0  0  0
   60.4696   30.6857   45.7513 H   0  0  0  0  0  0  0  0  0  0  0  0
  1  2  1  0
  2  3  1  0
  3  4  2  0
  4  5  1  0
  5  6  2  0
  6  7  1  0
  7  8  2  0
  8  9  1  0
  9 10  1  0
 10 11  1  0
 11 12  1  0
 12 13  1  0
 13 14  1  0
 14 15  1  0
 15 16  1  0
 16 17  1  0
 17 18  2  0
 17 19  1  0
 19 20  1  1
 20 21  1  0
 21 22  2  0
 22 23  1  0
 23 24  2  0
 24 25  1  0
 25 26  2  0
 19 27  1  0
 27 28  2  0
 28 29  1  0
 29 30  2  0
 30 31  1  0
 31 32  2  0
 32 33  1  0
 33 34  2  0
 34 35  1  0
 12 36  1  0
 36 37  1  0
  8  3  1  0
 37  9  1  0
 35 19  1  0
 26 21  1  0
 34 29  1  0
  1 38  1  0
  1 39  1  0
  1 40  1  0
  4 41  1  0
  5 42  1  0
  6 43  1  0
  7 44  1  0
 10 45  1  0
 10 46  1  0
 11 47  1  0
 11 48  1  0
 12 49  1  0
 13 50  1  0
 13 51  1  0
 14 52  1  0
 14 53  1  0
 15 54  1  0
 15 55  1  0
 20 56  1  0
 20 57  1  0
 22 58  1  0
 23 59  1  0
 24 60  1  0
 25 61  1  0
 26 62  1  0
 28 63  1  0
 30 64  1  0
 31 65  1  0
 32 66  1  0
 33 67  1  0
 36 68  1  0
 36 69  1  0
 37 70  1  0
 37 71  1  0
M  CHG  2  12   1  16  -1
M  END
>  <UniqueID>  (63) 
61

>  <SMILES>  (63) 
COc1ccccc1N1CC[NH+](CCC[N-]C(=O)[C@]2(Cc3ccccc3)N=Cc3ccccc3S2)CC1

>  <Energy>  (63) 
93.53137660885463

>  <Genealogy>  (63) 
COc1ccccc1N1CC[NH+](CCC[N-]C(=O)C2(Cc3ccccc3)N=Cc3ccccc3S2)CC1 (protonated)
COc1ccccc1N1CC[NH+](CCC[N-]C(=O)[C@]2(Cc3ccccc3)N=Cc3ccccc3S2)CC1 (chirality)
COc1ccccc1N1CC[NH+](CCC[N-]C(=O)[C@]2(Cc3ccccc3)N=Cc3ccccc3S2)CC1 (3D coordinates assigned)
COc1ccccc1N1CC[NH+](CCC[N-]C(=O)[C@]2(Cc3ccccc3)N=Cc3ccccc3S2)CC1 (nonaromatic ring conformer: 93.53137660885463 kcal/mol)

>  <smiles>  (63) 
COc1ccccc1N1CCN(CCCNC(=O)C2(Cc3ccccc3)N=Cc3ccccc3S2)CC1

>  <score_type>  (63) 
oracle

>  <origin>  (63) 
adg

>  <m_score__min__energy>  (63) 
-8.5099999999999998

>  <m_primary>  (63) 
energy

$$$$
63:0
     RDKit          3D

 46 48  0  0  0  0  0  0  0  0999 V2000
   57.0170   31.5760   44.7520 O   0  0  0  0  0  0  0  0  0  0  0  0
   57.7700   30.9130   45.5200 C   0  0  0  0  0  0  0  0  0  0  0  0
   58.3680   31.5950   46.7220 C   0  0  0  0  0  0  0  0  0  0  0  0
   58.7210   32.9860   46.4180 N   0  0  0  0  0  0  0  0  0  0  0  0
   59.3250   33.7680   47.8480 S   0  0  0  0  0  0  0  0  0  0  0  0
   58.9090   35.2130   47.8510 O   0  0  0  0  0  0  0  0  0  0  0  0
   58.7270   33.1050   49.0570 O   0  0  0  0  0  0  0  0  0  0  0  0
   61.0840   33.6360   47.9300 C   0  0  0  0  0  0  0  0  0  0  0  0
   61.8210   33.4940   46.7440 C   0  0  0  0  0  0  0  0  0  0  0  0
   63.2150   33.4070   46.7850 C   0  0  0  0  0  0  0  0  0  0  0  0
   63.8840   33.4680   48.0110 C   0  0  0  0  0  0  0  0  0  0  0  0
   63.1590   33.6190   49.1950 C   0  0  0  0  0  0  0  0  0  0  0  0
   61.7630   33.7060   49.1600 C   0  0  0  0  0  0  0  0  0  0  0  0
   61.0830   33.8710   50.3220 F   0  0  0  0  0  0  0  0  0  0  0  0
   58.0470   29.5270   45.2170 N   0  0  0  0  0  0  0  0  0  0  0  0
   59.1860   28.8060   45.8130 C   0  0  0  0  0  0  0  0  0  0  0  0
   58.7340   27.4250   46.3010 C   0  0  0  0  0  0  0  0  0  0  0  0
   57.8980   26.7500   45.2980 N   0  0  0  0  0  0  0  0  0  0  0  0
   57.2250   25.5300   45.6450 C   0  0  0  0  0  0  0  0  0  0  0  0
   57.9370   24.3190   45.6590 C   0  0  0  0  0  0  0  0  0  0  0  0
   57.2900   23.1230   45.9790 C   0  0  0  0  0  0  0  0  0  0  0  0
   55.9270   23.1260   46.2890 C   0  0  0  0  0  0  0  0  0  0  0  0
   55.2120   24.3260   46.2850 C   0  0  0  0  0  0  0  0  0  0  0  0
   55.8550   25.5280   45.9670 C   0  0  0  0  0  0  0  0  0  0  0  0
   55.1320   26.7160   45.9930 O   0  0  0  0  0  0  0  0  0  0  0  0
   57.6410   27.3900   44.0020 C   0  0  0  0  0  0  0  0  0  0  0  0
   57.2070   28.8430   44.2170 C   0  0  0  0  0  0  0  0  0  0  0  0
   57.6369   31.5811   47.5438 H   0  0  0  0  0  0  0  0  0  0  0  0
   59.2832   31.0570   47.0100 H   0  0  0  0  0  0  0  0  0  0  0  0
   57.8450   33.4900   46.1460 H   0  0  0  0  0  0  0  0  0  0  0  0
   61.2984   33.4510   45.7770 H   0  0  0  0  0  0  0  0  0  0  0  0
   63.7862   33.2905   45.8522 H   0  0  0  0  0  0  0  0  0  0  0  0
   64.9812   33.3971   48.0431 H   0  0  0  0  0  0  0  0  0  0  0  0
   63.6873   33.6697   50.1585 H   0  0  0  0  0  0  0  0  0  0  0  0
   59.9762   28.6848   45.0574 H   0  0  0  0  0  0  0  0  0  0  0  0
   59.5718   29.3825   46.6667 H   0  0  0  0  0  0  0  0  0  0  0  0
   59.6221   26.8076   46.5010 H   0  0  0  0  0  0  0  0  0  0  0  0
   58.1380   27.5586   47.2158 H   0  0  0  0  0  0  0  0  0  0  0  0
   59.0099   24.3125   45.4166 H   0  0  0  0  0  0  0  0  0  0  0  0
   57.8535   22.1783   45.9870 H   0  0  0  0  0  0  0  0  0  0  0  0
   55.4173   22.1831   46.5362 H   0  0  0  0  0  0  0  0  0  0  0  0
   54.1402   24.3264   46.5325 H   0  0  0  0  0  0  0  0  0  0  0  0
   58.5589   27.3690   43.3961 H   0  0  0  0  0  0  0  0  0  0  0  0
   56.8399   26.8453   43.4809 H   0  0  0  0  0  0  0  0  0  0  0  0
   57.2829   29.3817   43.2609 H   0  0  0  0  0  0  0  0  0  0  0  0
   56.1718   28.8374   44.5888 H   0  0  0  0  0  0  0  0  0  0  0  0
  1  2  2  0
  2  3  1  0
  3  4  1  0
  4  5  1  0
  5  6  2  0
  5  7  2  0
  5  8  1  0
  8  9  2  0
  9 10  1  0
 10 11  2  0
 11 12  1  0
 12 13  2  0
 13 14  1  0
  2 15  1  0
 15 16  1  0
 16 17  1  0
 17 18  1  0
 18 19  1  0
 19 20  2  0
 20 21  1  0
 21 22  2  0
 22 23  1  0
 23 24  2  0
 24 25  1  0
 18 26  1  0
 26 27  1  0
 13  8  1  0
 27 15  1  0
 24 19  1  0
  3 28  1  0
  3 29  1  0
  4 30  1  0
  9 31  1  0
 10 32  1  0
 11 33  1  0
 12 34  1  0
 16 35  1  0
 16 36  1  0
 17 37  1  0
 17 38  1  0
 20 39  1  0
 21 40  1  0
 22 41  1  0
 23 42  1  0
 26 43  1  0
 26 44  1  0
 27 45  1  0
 27 46  1  0
M  CHG  1  25  -1
M  END
>  <UniqueID>  (64) 
62

>  <SMILES>  (64) 
O=C(CNS(=O)(=O)c1ccccc1F)N1CCN(c2ccccc2[O-])CC1

>  <Energy>  (64) 
52.75149134702662

>  <Genealogy>  (64) 
O=C(CNS(=O)(=O)c1ccccc1F)N1CCN(c2ccccc2[O-])CC1 (protonated)
O=C(CNS(=O)(=O)c1ccccc1F)N1CCN(c2ccccc2[O-])CC1 (3D coordinates assigned)
O=C(CNS(=O)(=O)c1ccccc1F)N1CCN(c2ccccc2[O-])CC1 (nonaromatic ring conformer: 52.75149134702662 kcal/mol)

>  <smiles>  (64) 
O=C(CNS(=O)(=O)c1ccccc1F)N1CCN(c2ccccc2O)CC1

>  <score_type>  (64) 
oracle

>  <origin>  (64) 
adg

>  <m_score__min__energy>  (64) 
-11.85

>  <m_primary>  (64) 
energy

$$$$
64:0
     RDKit          3D

 31 33  0  0  0  0  0  0  0  0999 V2000
   55.8120   27.7730   44.8700 H   0  0  0  0  0  0  0  0  0  0  0  0
   55.5340   28.7790   44.9100 N   0  0  0  0  0  0  0  0  0  0  0  0
   56.4010   29.7100   45.1430 C   0  0  0  0  0  0  0  0  0  0  0  0
   56.2690   30.9270   44.5240 N   0  0  0  0  0  0  0  0  0  0  0  0
   57.1620   31.9370   44.7430 C   0  0  0  0  0  0  0  0  0  0  0  0
   57.0210   33.0480   44.1690 O   0  0  0  0  0  0  0  0  0  0  0  0
   58.2200   31.6950   45.6120 C   0  0  0  0  0  0  0  0  0  0  0  0
   59.2670   32.4700   46.0710 C   0  0  0  0  0  0  0  0  0  0  0  0
   59.4900   33.8670   45.7980 C   0  0  0  0  0  0  0  0  0  0  0  0
   59.6680   34.9880   45.5780 N   0  0  0  0  0  0  0  0  0  0  0  0
   59.9710   31.6490   46.9570 C   0  0  0  0  0  0  0  0  0  0  0  0
   61.1150   32.0370   47.7380 N   0  0  0  0  0  0  0  0  0  0  0  0
   62.4370   31.4510   47.4860 C   0  0  0  0  0  0  0  0  0  0  0  0
   62.7034   30.7862   48.3209 H   0  0  0  0  0  0  0  0  0  0  0  0
   62.4006   30.8822   46.5452 H   0  0  0  0  0  0  0  0  0  0  0  0
   63.5000   32.5550   47.3590 C   0  0  0  0  0  0  0  0  0  0  0  0
   64.4814   32.1237   47.6055 H   0  0  0  0  0  0  0  0  0  0  0  0
   63.4570   32.9289   46.3254 H   0  0  0  0  0  0  0  0  0  0  0  0
   63.2480   33.7610   48.2900 C   0  0  0  0  0  0  0  0  0  0  0  0
   64.2081   34.0782   48.7230 H   0  0  0  0  0  0  0  0  0  0  0  0
   62.7919   34.5586   47.6853 H   0  0  0  0  0  0  0  0  0  0  0  0
   62.2790   33.4330   49.4320 C   0  0  0  0  0  0  0  0  0  0  0  0
   62.7116   32.6386   50.0579 H   0  0  0  0  0  0  0  0  0  0  0  0
   62.1149   34.3395   50.0330 H   0  0  0  0  0  0  0  0  0  0  0  0
   60.9320   32.9570   48.8690 C   0  0  0  0  0  0  0  0  0  0  0  0
   60.3753   32.4394   49.6641 H   0  0  0  0  0  0  0  0  0  0  0  0
   60.3775   33.8371   48.5113 H   0  0  0  0  0  0  0  0  0  0  0  0
   59.3850   30.4300   47.0520 N   0  0  0  0  0  0  0  0  0  0  0  0
   59.6820   29.6220   47.6430 H   0  0  0  0  0  0  0  0  0  0  0  0
   58.3310   30.4780   46.2210 C   0  0  0  0  0  0  0  0  0  0  0  0
   57.4390   29.4820   46.0040 N   0  0  0  0  0  0  0  0  0  0  0  0
  1  2  1  0
  2  3  2  0
  3  4  1  0
  4  5  1  0
  5  6  2  0
  5  7  1  0
  7  8  1  0
  8  9  1  0
  9 10  3  0
  8 11  2  0
 11 12  1  0
 12 13  1  0
 13 14  1  0
 13 15  1  0
 13 16  1  0
 16 17  1  0
 16 18  1  0
 16 19  1  0
 19 20  1  0
 19 21  1  0
 19 22  1  0
 22 23  1  0
 22 24  1  0
 22 25  1  0
 25 26  1  0
 25 27  1  0
 11 28  1  0
 28 29  1  0
 28 30  1  0
 30 31  1  0
 31  3  1  0
 30  7  2  0
 25 12  1  0
M  CHG  2   4  -1  31  -1
M  END
>  <UniqueID>  (65) 
63

>  <SMILES>  (65) 
[H]/N=c1/[n-]c(=O)c2c(C#N)c(N3CCCCC3)[nH]c2[n-]1

>  <Energy>  (65) 
73.30996883002837

>  <Genealogy>  (65) 
N#Cc1c(N2CCCCC2)[nH]c2[n-]c(=N)[n-]c(=O)c12 (protonated)
[H]/N=c1/[n-]c(=O)c2c(C#N)c(N3CCCCC3)[nH]c2[n-]1 (cis-trans isomerization)
[H]/N=c1/[n-]c(=O)c2c(C#N)c(N3CCCCC3)[nH]c2[n-]1 (3D coordinates assigned)
[H]/N=c1/[n-]c(=O)c2c(C#N)c(N3CCCCC3)[nH]c2[n-]1 (nonaromatic ring conformer: 73.30996883002837 kcal/mol)

>  <smiles>  (65) 
N#Cc1c(N2CCCCC2)[nH]c2[nH]c(=N)[nH]c(=O)c12

>  <score_type>  (65) 
oracle

>  <origin>  (65) 
adg

>  <m_score__min__energy>  (65) 
-9.8499999999999996

>  <m_primary>  (65) 
energy

$$$$
65:0
     RDKit          3D

 57 60  0  0  0  0  0  0  0  0999 V2000
   58.9070   34.7710   44.8370 C   0  0  0  0  0  0  0  0  0  0  0  0
   58.9510   33.6740   45.8200 N   0  0  0  0  0  0  0  0  0  0  0  0
   58.6940   32.3820   45.4180 C   0  0  0  0  0  0  0  0  0  0  0  0
   58.4070   32.1200   44.2190 O   0  0  0  0  0  0  0  0  0  0  0  0
   58.7650   31.3690   46.3700 C   0  0  0  0  0  0  0  0  0  0  0  0
   59.0920   31.6610   47.6510 C   0  0  0  0  0  0  0  0  0  0  0  0
   59.0500   30.5590   48.4230 N   0  0  0  0  0  0  0  0  0  0  0  0
   58.6980   29.5930   47.5380 C   0  0  0  0  0  0  0  0  0  0  0  0
   58.5200   28.2630   47.9330 O   0  0  0  0  0  0  0  0  0  0  0  0
   58.3480   27.1920   47.0430 C   0  0  0  0  0  0  0  0  0  0  0  0
   59.4390   26.4650   46.5290 C   0  0  0  0  0  0  0  0  0  0  0  0
   59.2230   25.4040   45.6460 C   0  0  0  0  0  0  0  0  0  0  0  0
   57.9200   25.0560   45.2600 C   0  0  0  0  0  0  0  0  0  0  0  0
   57.6880   23.8940   44.3330 C   0  0  0  0  0  0  0  0  0  0  0  0
   57.4210   22.6140   45.1290 C   0  0  0  0  0  0  0  0  0  0  0  0
   57.7730   22.8080   46.5320 N   0  0  0  0  0  0  0  0  0  0  0  0
   56.8100   22.8820   47.5890 C   0  0  0  0  0  0  0  0  0  0  0  0
   57.0190   22.2900   48.6800 O   0  0  0  0  0  0  0  0  0  0  0  0
   55.6300   23.6800   47.4450 N   0  0  0  0  0  0  0  0  0  0  0  0
   54.3370   23.2060   47.0430 C   0  0  0  0  0  0  0  0  0  0  0  0
   53.7970   22.0870   47.6930 C   0  0  0  0  0  0  0  0  0  0  0  0
   52.5500   21.5840   47.3120 C   0  0  0  0  0  0  0  0  0  0  0  0
   51.8400   22.1860   46.2690 C   0  0  0  0  0  0  0  0  0  0  0  0
   52.3830   23.2850   45.5970 C   0  0  0  0  0  0  0  0  0  0  0  0
   51.4260   24.0860   44.1510 Br  0  0  0  0  0  0  0  0  0  0  0  0
   53.6310   23.7910   45.9750 C   0  0  0  0  0  0  0  0  0  0  0  0
   56.8330   25.7650   45.7930 C   0  0  0  0  0  0  0  0  0  0  0  0
   57.0480   26.8260   46.6780 C   0  0  0  0  0  0  0  0  0  0  0  0
   58.5150   30.0470   46.2680 N   0  0  0  0  0  0  0  0  0  0  0  0
   57.9390   29.3200   45.1330 C   0  0  0  0  0  0  0  0  0  0  0  0
   56.4940   29.6720   44.9770 C   0  0  0  0  0  0  0  0  0  0  0  0
   56.1510   30.8550   44.7170 O   0  0  0  0  0  0  0  0  0  0  0  0
   55.5210   28.6940   45.1430 O   0  0  0  0  0  0  0  0  0  0  0  0
   59.3920   32.9250   48.0580 N   0  0  0  0  0  0  0  0  0  0  0  0
   59.7180   33.2020   49.4630 C   0  0  0  0  0  0  0  0  0  0  0  0
   59.3140   33.9390   47.1290 C   0  0  0  0  0  0  0  0  0  0  0  0
   59.5720   35.1250   47.4810 O   0  0  0  0  0  0  0  0  0  0  0  0
   58.8683   35.7352   45.3651 H   0  0  0  0  0  0  0  0  0  0  0  0
   59.8073   34.7343   44.2061 H   0  0  0  0  0  0  0  0  0  0  0  0
   58.0125   34.6623   44.2061 H   0  0  0  0  0  0  0  0  0  0  0  0
   60.4643   26.7332   46.8236 H   0  0  0  0  0  0  0  0  0  0  0  0
   60.0797   24.8382   45.2512 H   0  0  0  0  0  0  0  0  0  0  0  0
   56.8194   24.1097   43.6935 H   0  0  0  0  0  0  0  0  0  0  0  0
   58.5874   23.7471   43.7169 H   0  0  0  0  0  0  0  0  0  0  0  0
   56.3542   22.3562   45.0547 H   0  0  0  0  0  0  0  0  0  0  0  0
   58.0347   21.8004   44.7151 H   0  0  0  0  0  0  0  0  0  0  0  0
   54.3574   21.6029   48.5064 H   0  0  0  0  0  0  0  0  0  0  0  0
   52.1265   20.7130   47.8336 H   0  0  0  0  0  0  0  0  0  0  0  0
   50.8542   21.7949   45.9771 H   0  0  0  0  0  0  0  0  0  0  0  0
   54.0617   24.6480   45.4364 H   0  0  0  0  0  0  0  0  0  0  0  0
   55.8067   25.4849   45.5133 H   0  0  0  0  0  0  0  0  0  0  0  0
   56.1894   27.3765   47.0899 H   0  0  0  0  0  0  0  0  0  0  0  0
   58.4806   29.5910   44.2147 H   0  0  0  0  0  0  0  0  0  0  0  0
   58.0285   28.2389   45.3152 H   0  0  0  0  0  0  0  0  0  0  0  0
   59.0433   32.6287   50.1158 H   0  0  0  0  0  0  0  0  0  0  0  0
   60.7590   32.9079   49.6627 H   0  0  0  0  0  0  0  0  0  0  0  0
   59.5959   34.2768   49.6627 H   0  0  0  0  0  0  0  0  0  0  0  0
  1  2  1  0
  2  3  1  0
  3  4  2  0
  3  5  1  0
  5  6  2  0
  6  7  1  0
  7  8  2  0
  8  9  1  0
  9 10  1  0
 10 11  2  0
 11 12  1  0
 12 13  2  0
 13 14  1  0
 14 15  1  0
 15 16  1  0
 16 17  1  0
 17 18  2  0
 17 19  1  0
 19 20  1  0
 20 21  2  0
 21 22  1  0
 22 23  2  0
 23 24  1  0
 24 25  1  0
 24 26  2  0
 13 27  1  0
 27 28  2  0
  8 29  1  0
 29 30  1  0
 30 31  1  0
 31 32  2  0
 31 33  1  0
  6 34  1  0
 34 35  1  0
 34 36  1  0
 36 37  2  0
 36  2  1  0
 29  5  1  0
 28 10  1  0
 26 20  1  0
  1 38  1  0
  1 39  1  0
  1 40  1  0
 11 41  1  0
 12 42  1  0
 14 43  1  0
 14 44  1  0
 15 45  1  0
 15 46  1  0
 21 47  1  0
 22 48  1  0
 23 49  1  0
 26 50  1  0
 27 51  1  0
 28 52  1  0
 30 53  1  0
 30 54  1  0
 35 55  1  0
 35 56  1  0
 35 57  1  0
M  CHG  3  16  -1  19  -1  33  -1
M  END
>  <UniqueID>  (66) 
64

>  <SMILES>  (66) 
Cn1c(=O)c2c(nc(Oc3ccc(CC[N-]C(=O)[N-]c4cccc(Br)c4)cc3)n2CC(=O)[O-])n(C)c1=O

>  <Energy>  (66) 
112.29201043806236

>  <Genealogy>  (66) 
Cn1c(=O)c2c(nc(Oc3ccc(CC[N-]C(=O)[N-]c4cccc(Br)c4)cc3)n2CC(=O)[O-])n(C)c1=O (protonated)
Cn1c(=O)c2c(nc(Oc3ccc(CC[N-]C(=O)[N-]c4cccc(Br)c4)cc3)n2CC(=O)[O-])n(C)c1=O (3D coordinates assigned)
Cn1c(=O)c2c(nc(Oc3ccc(CC[N-]C(=O)[N-]c4cccc(Br)c4)cc3)n2CC(=O)[O-])n(C)c1=O (optimized conformer: 112.29201043806236 kcal/mol)

>  <smiles>  (66) 
Cn1c(=O)c2c(nc(Oc3ccc(CCNC(=O)Nc4cccc(Br)c4)cc3)n2CC(=O)O)n(C)c1=O

>  <score_type>  (66) 
oracle

>  <origin>  (66) 
adg

>  <m_score__min__energy>  (66) 
-13.890000000000001

>  <m_primary>  (66) 
energy

$$$$
66:0
     RDKit          3D

 42 44  0  0  1  0  0  0  0  0999 V2000
   59.2600   30.9070   49.0170 C   0  0  0  0  0  0  0  0  0  0  0  0
   59.5170   31.7550   47.9200 O   0  0  0  0  0  0  0  0  0  0  0  0
   60.8250   32.1060   47.6510 C   0  0  0  0  0  0  0  0  0  0  0  0
   61.8260   31.1640   47.4420 C   0  0  0  0  0  0  0  0  0  0  0  0
   63.1040   31.5880   47.1800 C   0  0  0  0  0  0  0  0  0  0  0  0
   63.4520   32.9380   47.1120 C   0  0  0  0  0  0  0  0  0  0  0  0
   62.4240   33.8500   47.3260 C   0  0  0  0  0  0  0  0  0  0  0  0
   61.1330   33.4560   47.5910 C   0  0  0  0  0  0  0  0  0  0  0  0
   60.0310   34.4590   47.8200 C   0  0  0  0  0  0  0  0  0  0  0  0
   59.7360   35.0470   46.4550 C   0  0  0  0  0  0  0  0  0  0  0  0
   59.0800   34.0470   45.6150 C   0  0  0  0  0  0  0  0  0  0  0  0
   59.1710   33.4580   44.5820 N   0  0  0  0  0  0  0  0  0  0  0  0
   58.4120   32.5730   44.0450 N   0  0  0  0  0  0  0  0  0  0  0  0
   57.3160   32.2320   44.7420 C   0  0  0  0  0  0  0  0  0  0  0  0
   56.3570   31.4280   44.5550 N   0  0  0  0  0  0  0  0  0  0  0  0
   56.6470   29.7900   44.2600 S   0  0  0  0  0  0  0  0  0  0  0  0
   55.4720   29.0090   44.8370 O   0  0  0  0  0  0  0  0  0  0  0  0
   56.6800   29.4140   42.8160 O   0  0  0  0  0  0  0  0  0  0  0  0
   58.0740   29.1760   45.0700 C   0  0  0  0  0  0  0  0  0  0  0  0
   58.0040   28.4830   46.2640 C   0  0  0  0  0  0  0  0  0  0  0  0
   59.1490   27.9980   46.9010 C   0  0  0  0  0  0  0  0  0  0  0  0
   60.3980   28.2190   46.3160 C   0  0  0  0  0  0  0  0  0  0  0  0
   60.4890   28.9160   45.1120 C   0  0  0  0  0  0  0  0  0  0  0  0
   59.3370   29.3830   44.5090 C   0  0  0  0  0  0  0  0  0  0  0  0
   57.4380   33.2970   46.2830 S   0  0  0  0  0  0  0  0  0  0  0  0
   59.4272   31.4586   49.9539 H   0  0  0  0  0  0  0  0  0  0  0  0
   58.2166   30.5610   48.9764 H   0  0  0  0  0  0  0  0  0  0  0  0
   59.9357   30.0400   48.9764 H   0  0  0  0  0  0  0  0  0  0  0  0
   61.5954   30.0893   47.4863 H   0  0  0  0  0  0  0  0  0  0  0  0
   63.8870   30.8328   47.0167 H   0  0  0  0  0  0  0  0  0  0  0  0
   64.4817   33.2624   46.9010 H   0  0  0  0  0  0  0  0  0  0  0  0
   62.6516   34.9253   47.2817 H   0  0  0  0  0  0  0  0  0  0  0  0
   59.1374   33.9634   48.2274 H   0  0  0  0  0  0  0  0  0  0  0  0
   60.3244   35.2324   48.5451 H   0  0  0  0  0  0  0  0  0  0  0  0
   59.0749   35.9188   46.5683 H   0  0  0  0  0  0  0  0  0  0  0  0
   60.6797   35.3557   45.9815 H   0  0  0  0  0  0  0  0  0  0  0  0
   58.6100   32.1200   43.1040 H   0  0  0  0  0  0  0  0  0  0  0  0
   57.0206   28.3087   46.7249 H   0  0  0  0  0  0  0  0  0  0  0  0
   59.0679   27.4492   47.8509 H   0  0  0  0  0  0  0  0  0  0  0  0
   61.3090   27.8434   46.8049 H   0  0  0  0  0  0  0  0  0  0  0  0
   61.4697   29.0926   44.6461 H   0  0  0  0  0  0  0  0  0  0  0  0
   59.4163   29.9336   43.5600 H   0  0  0  0  0  0  0  0  0  0  0  0
  1  2  1  0
  2  3  1  0
  3  4  2  0
  4  5  1  0
  5  6  2  0
  6  7  1  0
  7  8  2  0
  8  9  1  0
  9 10  1  0
 10 11  1  0
 11 12  2  0
 12 13  1  0
 13 14  1  0
 14 15  2  0
 15 16  1  0
 16 17  2  0
 16 18  2  0
 16 19  1  0
 19 20  2  0
 20 21  1  0
 21 22  2  0
 22 23  1  0
 23 24  2  0
 14 25  1  0
  8  3  1  0
 25 11  1  0
 24 19  1  0
  1 26  1  0
  1 27  1  0
  1 28  1  0
  4 29  1  0
  5 30  1  0
  6 31  1  0
  7 32  1  0
  9 33  1  0
  9 34  1  0
 10 35  1  0
 10 36  1  0
 13 37  1  0
 20 38  1  0
 21 39  1  0
 22 40  1  0
 23 41  1  0
 24 42  1  0
M  END
>  <smiles>  (67) 
COc1ccccc1CCc1n[nH]c(=NS(=O)(=O)c2ccccc2)s1

>  <score_type>  (67) 
oracle

>  <origin>  (67) 
adg

>  <m_score__min__energy>  (67) 
-9.9199999999999999

>  <m_primary>  (67) 
energy

$$$$
67:0
     RDKit          3D

 29 30  0  0  0  0  0  0  0  0999 V2000
   51.4371   30.7649   53.7052 H   0  0  0  0  0  0  0  0  0  0  0  0
   52.3380   30.8260   53.0770 C   0  0  0  0  0  0  0  0  0  0  0  0
   53.8060   30.0580   53.3770 S   0  0  0  0  0  0  0  0  0  0  0  0
   54.5430   30.6940   51.9990 C   0  0  0  0  0  0  0  0  0  0  0  0
   55.7580   30.4560   51.5960 N   0  0  0  0  0  0  0  0  0  0  0  0
   56.8610   31.3710   51.6670 C   0  0  0  0  0  0  0  0  0  0  0  0
   56.7820   32.3630   52.4370 O   0  0  0  0  0  0  0  0  0  0  0  0
   58.0600   31.1800   50.9030 N   0  0  0  0  0  0  0  0  0  0  0  0
   58.6890   32.1510   50.0550 C   0  0  0  0  0  0  0  0  0  0  0  0
   59.7610   32.8970   50.5620 C   0  0  0  0  0  0  0  0  0  0  0  0
   60.1058   32.7277   51.5928 H   0  0  0  0  0  0  0  0  0  0  0  0
   60.3950   33.8550   49.7660 C   0  0  0  0  0  0  0  0  0  0  0  0
   61.2291   34.4439   50.1751 H   0  0  0  0  0  0  0  0  0  0  0  0
   59.9710   34.0660   48.4510 C   0  0  0  0  0  0  0  0  0  0  0  0
   60.4635   34.8284   47.8295 H   0  0  0  0  0  0  0  0  0  0  0  0
   58.9200   33.3070   47.9260 C   0  0  0  0  0  0  0  0  0  0  0  0
   58.3820   33.5700   46.2350 S   0  0  0  0  0  0  0  0  0  0  0  0
   59.5750   34.9090   45.9340 C   0  0  0  0  0  0  0  0  0  0  0  0
   59.9297   35.3072   46.8961 H   0  0  0  0  0  0  0  0  0  0  0  0
   60.4290   34.5174   45.3619 H   0  0  0  0  0  0  0  0  0  0  0  0
   59.0879   35.7124   45.3619 H   0  0  0  0  0  0  0  0  0  0  0  0
   58.2840   32.3470   48.7220 C   0  0  0  0  0  0  0  0  0  0  0  0
   57.4647   31.7438   48.3038 H   0  0  0  0  0  0  0  0  0  0  0  0
   53.6880   31.4690   51.3000 N   0  0  0  0  0  0  0  0  0  0  0  0
   53.9420   31.9480   50.4080 H   0  0  0  0  0  0  0  0  0  0  0  0
   52.4630   31.5540   51.8920 C   0  0  0  0  0  0  0  0  0  0  0  0
   51.3680   32.3520   51.3170 C   0  0  0  0  0  0  0  0  0  0  0  0
   50.3990   32.7180   52.0340 O   0  0  0  0  0  0  0  0  0  0  0  0
   51.3940   32.7090   49.9750 O   0  0  0  0  0  0  0  0  0  0  0  0
  1  2  1  0
  2  3  1  0
  3  4  1  0
  4  5  2  0
  5  6  1  0
  6  7  2  0
  6  8  1  0
  8  9  1  0
  9 10  2  0
 10 11  1  0
 10 12  1  0
 12 13  1  0
 12 14  2  0
 14 15  1  0
 14 16  1  0
 16 17  1  0
 17 18  1  0
 18 19  1  0
 18 20  1  0
 18 21  1  0
 16 22  2  0
 22 23  1  0
  4 24  1  0
 24 25  1  0
 24 26  1  0
 26 27  1  0
 27 28  2  0
 27 29  1  0
 26  2  2  0
 22  9  1  0
M  CHG  2   8  -1  29  -1
M  END
>  <UniqueID>  (68) 
65

>  <SMILES>  (68) 
CSc1cccc([N-]C(=O)/N=c2/[nH]c(C(=O)[O-])cs2)c1

>  <Energy>  (68) 
63.32744455053736

>  <Genealogy>  (68) 
CSc1cccc([N-]C(=O)N=c2[nH]c(C(=O)[O-])cs2)c1 (protonated)
CSc1cccc([N-]C(=O)/N=c2/[nH]c(C(=O)[O-])cs2)c1 (cis-trans isomerization)
CSc1cccc([N-]C(=O)/N=c2/[nH]c(C(=O)[O-])cs2)c1 (3D coordinates assigned)
CSc1cccc([N-]C(=O)/N=c2/[nH]c(C(=O)[O-])cs2)c1 (optimized conformer: 63.32744455053736 kcal/mol)

>  <smiles>  (68) 
CSc1cccc(NC(=O)N=c2[nH]c(C(=O)O)cs2)c1

>  <score_type>  (68) 
oracle

>  <origin>  (68) 
adg

>  <m_score__min__energy>  (68) 
-11.92

>  <m_primary>  (68) 
energy

$$$$
68:0
     RDKit          3D

 35 37  0  0  0  0  0  0  0  0999 V2000
   55.4510   29.3390   45.2240 N   0  0  0  0  0  0  0  0  0  0  0  0
   56.7190   29.6600   44.0960 S   0  0  0  0  0  0  0  0  0  0  0  0
   57.6010   28.4480   43.9770 O   0  0  0  0  0  0  0  0  0  0  0  0
   56.1290   29.9590   42.7460 O   0  0  0  0  0  0  0  0  0  0  0  0
   57.6660   31.0370   44.6510 C   0  0  0  0  0  0  0  0  0  0  0  0
   57.3880   32.3220   44.1700 C   0  0  0  0  0  0  0  0  0  0  0  0
   58.1300   33.4190   44.6160 C   0  0  0  0  0  0  0  0  0  0  0  0
   59.1570   33.2440   45.5580 C   0  0  0  0  0  0  0  0  0  0  0  0
   59.9810   34.4200   46.0130 C   0  0  0  0  0  0  0  0  0  0  0  0
   60.7470   34.0750   47.2290 N   0  0  0  0  0  0  0  0  0  0  0  0
   60.1400   34.0960   48.4610 C   0  0  0  0  0  0  0  0  0  0  0  0
   58.9160   34.3780   48.5730 O   0  0  0  0  0  0  0  0  0  0  0  0
   60.8470   33.8120   49.5820 N   0  0  0  0  0  0  0  0  0  0  0  0
   62.1650   33.5020   49.5340 C   0  0  0  0  0  0  0  0  0  0  0  0
   62.8660   33.2140   50.7150 C   0  0  0  0  0  0  0  0  0  0  0  0
   62.2040   33.2460   51.9420 O   0  0  0  0  0  0  0  0  0  0  0  0
   64.2290   32.8960   50.6550 C   0  0  0  0  0  0  0  0  0  0  0  0
   64.8900   32.8660   49.4240 C   0  0  0  0  0  0  0  0  0  0  0  0
   64.1960   33.1520   48.2450 C   0  0  0  0  0  0  0  0  0  0  0  0
   62.8270   33.4720   48.2920 C   0  0  0  0  0  0  0  0  0  0  0  0
   62.0850   33.7680   47.1350 C   0  0  0  0  0  0  0  0  0  0  0  0
   62.6550   33.7500   46.0090 O   0  0  0  0  0  0  0  0  0  0  0  0
   59.4310   31.9530   46.0420 C   0  0  0  0  0  0  0  0  0  0  0  0
   58.6860   30.8580   45.5940 C   0  0  0  0  0  0  0  0  0  0  0  0
   54.5570   29.3400   44.6850 H   0  0  0  0  0  0  0  0  0  0  0  0
   56.5811   32.4690   43.4370 H   0  0  0  0  0  0  0  0  0  0  0  0
   57.9087   34.4241   44.2276 H   0  0  0  0  0  0  0  0  0  0  0  0
   60.6804   34.7034   45.2127 H   0  0  0  0  0  0  0  0  0  0  0  0
   59.3077   35.2590   46.2425 H   0  0  0  0  0  0  0  0  0  0  0  0
   61.2170   33.4640   52.0080 H   0  0  0  0  0  0  0  0  0  0  0  0
   64.7805   32.6693   51.5794 H   0  0  0  0  0  0  0  0  0  0  0  0
   65.9605   32.6164   49.3828 H   0  0  0  0  0  0  0  0  0  0  0  0
   64.7212   33.1268   47.2788 H   0  0  0  0  0  0  0  0  0  0  0  0
   60.2357   31.8035   46.7770 H   0  0  0  0  0  0  0  0  0  0  0  0
   58.9017   29.8522   45.9836 H   0  0  0  0  0  0  0  0  0  0  0  0
  1  2  1  0
  2  3  2  0
  2  4  2  0
  2  5  1  0
  5  6  2  0
  6  7  1  0
  7  8  2  0
  8  9  1  0
  9 10  1  0
 10 11  1  0
 11 12  2  0
 11 13  1  0
 13 14  1  0
 14 15  2  0
 15 16  1  0
 15 17  1  0
 17 18  2  0
 18 19  1  0
 19 20  2  0
 20 21  1  0
 21 22  2  0
  8 23  1  0
 23 24  2  0
 24  5  1  0
 21 10  1  0
 20 14  1  0
  1 25  1  0
  6 26  1  0
  7 27  1  0
  9 28  1  0
  9 29  1  0
 16 30  1  0
 17 31  1  0
 18 32  1  0
 19 33  1  0
 23 34  1  0
 24 35  1  0
M  CHG  2   1  -1  13  -1
M  END
>  <UniqueID>  (69) 
66

>  <SMILES>  (69) 
[NH-]S(=O)(=O)c1ccc(Cn2c(=O)[n-]c3c(O)cccc3c2=O)cc1

>  <Energy>  (69) 
45.153030870306615

>  <Genealogy>  (69) 
[NH-]S(=O)(=O)c1ccc(Cn2c(=O)[n-]c3c(O)cccc3c2=O)cc1 (protonated)
[NH-]S(=O)(=O)c1ccc(Cn2c(=O)[n-]c3c(O)cccc3c2=O)cc1 (3D coordinates assigned)
[NH-]S(=O)(=O)c1ccc(Cn2c(=O)[n-]c3c(O)cccc3c2=O)cc1 (optimized conformer: 45.153030870306615 kcal/mol)

>  <smiles>  (69) 
NS(=O)(=O)c1ccc(Cn2c(=O)[nH]c3c(O)cccc3c2=O)cc1

>  <score_type>  (69) 
oracle

>  <origin>  (69) 
adg

>  <m_score__min__energy>  (69) 
-11.369999999999999

>  <m_primary>  (69) 
energy

$$$$
69:0
     RDKit          3D

 59 62  0  0  0  0  0  0  0  0999 V2000
   58.1430   28.0010   47.9840 O   0  0  0  0  0  0  0  0  0  0  0  0
   59.3700   28.0060   47.6980 C   0  0  0  0  0  0  0  0  0  0  0  0
   59.8270   28.4560   46.3300 C   0  0  0  0  0  0  0  0  0  0  0  0
   58.6640   28.8880   45.4090 C   0  0  0  0  0  0  0  0  0  0  0  0
   59.0880   29.9240   44.4640 N   0  0  0  0  0  0  0  0  0  0  0  0
   57.8790   31.1660   44.3070 S   0  0  0  0  0  0  0  0  0  0  0  0
   57.7010   31.5080   42.8530 O   0  0  0  0  0  0  0  0  0  0  0  0
   56.5610   30.6960   44.8590 O   0  0  0  0  0  0  0  0  0  0  0  0
   58.4040   32.6050   45.2030 C   0  0  0  0  0  0  0  0  0  0  0  0
   58.5590   33.8040   44.4930 C   0  0  0  0  0  0  0  0  0  0  0  0
   58.9580   34.9690   45.1390 C   0  0  0  0  0  0  0  0  0  0  0  0
   59.2110   34.9650   46.5080 C   0  0  0  0  0  0  0  0  0  0  0  0
   59.0720   33.7830   47.2640 C   0  0  0  0  0  0  0  0  0  0  0  0
   59.3250   33.7550   48.6640 C   0  0  0  0  0  0  0  0  0  0  0  0
   59.7240   34.8780   49.3960 O   0  0  0  0  0  0  0  0  0  0  0  0
   59.1750   32.5590   49.3720 C   0  0  0  0  0  0  0  0  0  0  0  0
   58.7800   31.3930   48.7260 C   0  0  0  0  0  0  0  0  0  0  0  0
   58.5230   31.3990   47.3590 C   0  0  0  0  0  0  0  0  0  0  0  0
   58.6620   32.5830   46.6010 C   0  0  0  0  0  0  0  0  0  0  0  0
   60.3110   27.5880   48.6970 N   0  0  0  0  0  0  0  0  0  0  0  0
   60.7140   28.3400   49.8490 C   0  0  0  0  0  0  0  0  0  0  0  0
   60.3880   27.9220   51.1490 C   0  0  0  0  0  0  0  0  0  0  0  0
   60.7570   28.6980   52.2500 C   0  0  0  0  0  0  0  0  0  0  0  0
   61.4280   29.9080   52.0630 C   0  0  0  0  0  0  0  0  0  0  0  0
   61.7220   30.3620   50.7670 C   0  0  0  0  0  0  0  0  0  0  0  0
   62.4230   31.6490   50.5610 C   0  0  0  0  0  0  0  0  0  0  0  0
   62.9390   32.2300   51.5550 O   0  0  0  0  0  0  0  0  0  0  0  0
   62.5180   32.2550   49.2560 N   0  0  0  0  0  0  0  0  0  0  0  0
   62.6500   31.4270   48.0460 C   0  0  0  0  0  0  0  0  0  0  0  0
   63.6880   32.0440   47.1020 C   0  0  0  0  0  0  0  0  0  0  0  0
   63.3730   33.5120   46.7460 C   0  0  0  0  0  0  0  0  0  0  0  0
   62.3760   34.1830   47.7080 C   0  0  0  0  0  0  0  0  0  0  0  0
   62.5800   33.7200   49.1550 C   0  0  0  0  0  0  0  0  0  0  0  0
   61.3680   29.5650   49.6640 C   0  0  0  0  0  0  0  0  0  0  0  0
   60.5103   29.3092   46.4532 H   0  0  0  0  0  0  0  0  0  0  0  0
   60.3195   27.5965   45.8518 H   0  0  0  0  0  0  0  0  0  0  0  0
   58.3096   28.0125   44.8452 H   0  0  0  0  0  0  0  0  0  0  0  0
   57.8596   29.2995   46.0364 H   0  0  0  0  0  0  0  0  0  0  0  0
   58.3624   33.8234   43.4109 H   0  0  0  0  0  0  0  0  0  0  0  0
   59.0745   35.8998   44.5646 H   0  0  0  0  0  0  0  0  0  0  0  0
   59.5230   35.8950   47.0058 H   0  0  0  0  0  0  0  0  0  0  0  0
   59.1860   35.7250   49.4960 H   0  0  0  0  0  0  0  0  0  0  0  0
   59.3720   32.5402   50.4541 H   0  0  0  0  0  0  0  0  0  0  0  0
   58.6701   30.4605   49.2991 H   0  0  0  0  0  0  0  0  0  0  0  0
   58.2075   30.4699   46.8618 H   0  0  0  0  0  0  0  0  0  0  0  0
   59.8402   26.9803   51.3009 H   0  0  0  0  0  0  0  0  0  0  0  0
   60.5183   28.3549   53.2675 H   0  0  0  0  0  0  0  0  0  0  0  0
   61.7277   30.5083   52.9346 H   0  0  0  0  0  0  0  0  0  0  0  0
   62.9721   30.4144   48.3304 H   0  0  0  0  0  0  0  0  0  0  0  0
   61.6781   31.3779   47.5331 H   0  0  0  0  0  0  0  0  0  0  0  0
   64.6737   32.0039   47.5887 H   0  0  0  0  0  0  0  0  0  0  0  0
   63.6714   31.4650   46.1668 H   0  0  0  0  0  0  0  0  0  0  0  0
   64.3128   34.0833   46.7661 H   0  0  0  0  0  0  0  0  0  0  0  0
   62.9050   33.5075   45.7505 H   0  0  0  0  0  0  0  0  0  0  0  0
   62.5143   35.2732   47.6604 H   0  0  0  0  0  0  0  0  0  0  0  0
   61.3593   33.8990   47.3988 H   0  0  0  0  0  0  0  0  0  0  0  0
   63.5643   34.0629   49.5064 H   0  0  0  0  0  0  0  0  0  0  0  0
   61.7777   34.1470   49.7746 H   0  0  0  0  0  0  0  0  0  0  0  0
   61.6069   29.9067   48.6461 H   0  0  0  0  0  0  0  0  0  0  0  0
  1  2  2  0
  2  3  1  0
  3  4  1  0
  4  5  1  0
  5  6  1  0
  6  7  2  0
  6  8  2  0
  6  9  1  0
  9 10  2  0
 10 11  1  0
 11 12  2  0
 12 13  1  0
 13 14  2  0
 14 15  1  0
 14 16  1  0
 16 17  2  0
 17 18  1  0
 18 19  2  0
  2 20  1  0
 20 21  1  0
 21 22  2  0
 22 23  1  0
 23 24  2  0
 24 25  1  0
 25 26  1  0
 26 27  2  0
 26 28  1  0
 28 29  1  0
 29 30  1  0
 30 31  1  0
 31 32  1  0
 32 33  1  0
 25 34  2  0
 19  9  1  0
 34 21  1  0
 19 13  1  0
 33 28  1  0
  3 35  1  0
  3 36  1  0
  4 37  1  0
  4 38  1  0
 10 39  1  0
 11 40  1  0
 12 41  1  0
 15 42  1  0
 16 43  1  0
 17 44  1  0
 18 45  1  0
 22 46  1  0
 23 47  1  0
 24 48  1  0
 29 49  1  0
 29 50  1  0
 30 51  1  0
 30 52  1  0
 31 53  1  0
 31 54  1  0
 32 55  1  0
 32 56  1  0
 33 57  1  0
 33 58  1  0
 34 59  1  0
M  CHG  2   5  -1  20  -1
M  END
>  <UniqueID>  (70) 
67

>  <SMILES>  (70) 
O=C(CC[N-]S(=O)(=O)c1cccc2c(O)cccc12)[N-]c1cccc(C(=O)N2CCCCC2)c1

>  <Energy>  (70) 
84.1217398124402

>  <Genealogy>  (70) 
O=C(CC[N-]S(=O)(=O)c1cccc2c(O)cccc12)[N-]c1cccc(C(=O)N2CCCCC2)c1 (protonated)
O=C(CC[N-]S(=O)(=O)c1cccc2c(O)cccc12)[N-]c1cccc(C(=O)N2CCCCC2)c1 (3D coordinates assigned)
O=C(CC[N-]S(=O)(=O)c1cccc2c(O)cccc12)[N-]c1cccc(C(=O)N2CCCCC2)c1 (nonaromatic ring conformer: 84.1217398124402 kcal/mol)

>  <smiles>  (70) 
O=C(CCNS(=O)(=O)c1cccc2c(O)cccc12)Nc1cccc(C(=O)N2CCCCC2)c1

>  <score_type>  (70) 
oracle

>  <origin>  (70) 
adg

>  <m_score__min__energy>  (70) 
-13.66

>  <m_primary>  (70) 
energy

$$$$
70:0
     RDKit          3D

 58 61  0  0  0  0  0  0  0  0999 V2000
   58.2090   30.9870   50.5500 C   0  0  0  0  0  0  0  0  0  0  0  0
   59.0650   29.9140   49.9650 C   0  0  0  0  0  0  0  0  0  0  0  0
   60.3970   29.6940   50.2530 C   0  0  0  0  0  0  0  0  0  0  0  0
   60.7670   28.5980   49.5040 C   0  0  0  0  0  0  0  0  0  0  0  0
   59.6330   28.2210   48.8070 C   0  0  0  0  0  0  0  0  0  0  0  0
   59.5350   27.1010   47.8640 C   0  0  0  0  0  0  0  0  0  0  0  0
   60.5080   26.3110   47.7350 O   0  0  0  0  0  0  0  0  0  0  0  0
   58.3080   26.8840   47.1550 N   0  0  0  0  0  0  0  0  0  0  0  0
   58.1370   26.5420   45.7700 C   0  0  0  0  0  0  0  0  0  0  0  0
   57.4740   25.3600   45.3870 C   0  0  0  0  0  0  0  0  0  0  0  0
   57.2880   25.0590   44.0360 C   0  0  0  0  0  0  0  0  0  0  0  0
   57.7650   25.9250   43.0530 C   0  0  0  0  0  0  0  0  0  0  0  0
   58.4470   27.0880   43.4170 C   0  0  0  0  0  0  0  0  0  0  0  0
   58.6590   27.3970   44.7710 C   0  0  0  0  0  0  0  0  0  0  0  0
   59.3860   28.6410   45.1240 C   0  0  0  0  0  0  0  0  0  0  0  0
   60.4650   28.9230   44.5320 O   0  0  0  0  0  0  0  0  0  0  0  0
   58.8960   29.5050   46.1600 N   0  0  0  0  0  0  0  0  0  0  0  0
   59.0330   30.9380   46.1490 C   0  0  0  0  0  0  0  0  0  0  0  0
   58.5250   31.7160   45.0990 C   0  0  0  0  0  0  0  0  0  0  0  0
   58.6290   33.1060   45.1370 C   0  0  0  0  0  0  0  0  0  0  0  0
   59.2220   33.7530   46.2330 C   0  0  0  0  0  0  0  0  0  0  0  0
   59.3350   35.2550   46.2160 C   0  0  0  0  0  0  0  0  0  0  0  0
   59.7330   32.9760   47.3010 C   0  0  0  0  0  0  0  0  0  0  0  0
   60.5090   33.7210   48.7100 S   0  0  0  0  0  0  0  0  0  0  0  0
   59.7060   34.9230   49.1220 O   0  0  0  0  0  0  0  0  0  0  0  0
   60.5320   32.7450   49.8550 O   0  0  0  0  0  0  0  0  0  0  0  0
   62.1450   34.1910   48.2950 N   0  0  0  0  0  0  0  0  0  0  0  0
   62.5600   33.6440   46.9830 C   0  0  0  0  0  0  0  0  0  0  0  0
   63.4440   32.3910   47.1150 C   0  0  0  0  0  0  0  0  0  0  0  0
   63.0650   31.6430   48.2480 O   0  0  0  0  0  0  0  0  0  0  0  0
   63.4030   32.3430   49.4350 C   0  0  0  0  0  0  0  0  0  0  0  0
   63.0980   33.8590   49.3700 C   0  0  0  0  0  0  0  0  0  0  0  0
   59.6230   31.5770   47.2480 C   0  0  0  0  0  0  0  0  0  0  0  0
   58.6340   29.0190   49.1060 O   0  0  0  0  0  0  0  0  0  0  0  0
   58.2522   30.9328   51.6478 H   0  0  0  0  0  0  0  0  0  0  0  0
   58.5740   31.9697   50.2167 H   0  0  0  0  0  0  0  0  0  0  0  0
   57.1698   30.8495   50.2167 H   0  0  0  0  0  0  0  0  0  0  0  0
   61.0321   30.2739   50.9389 H   0  0  0  0  0  0  0  0  0  0  0  0
   61.7580   28.1219   49.4679 H   0  0  0  0  0  0  0  0  0  0  0  0
   57.1001   24.6692   46.1571 H   0  0  0  0  0  0  0  0  0  0  0  0
   56.7638   24.1362   43.7467 H   0  0  0  0  0  0  0  0  0  0  0  0
   57.6040   25.6920   41.9901 H   0  0  0  0  0  0  0  0  0  0  0  0
   58.8212   27.7677   42.6372 H   0  0  0  0  0  0  0  0  0  0  0  0
   58.3940   29.0610   46.9630 H   0  0  0  0  0  0  0  0  0  0  0  0
   58.0416   31.2271   44.2403 H   0  0  0  0  0  0  0  0  0  0  0  0
   58.2418   33.7029   44.2981 H   0  0  0  0  0  0  0  0  0  0  0  0
   59.3634   35.6323   47.2489 H   0  0  0  0  0  0  0  0  0  0  0  0
   60.2577   35.5474   45.6933 H   0  0  0  0  0  0  0  0  0  0  0  0
   58.4665   35.6822   45.6933 H   0  0  0  0  0  0  0  0  0  0  0  0
   61.6585   33.3800   46.4106 H   0  0  0  0  0  0  0  0  0  0  0  0
   63.1534   34.4172   46.4732 H   0  0  0  0  0  0  0  0  0  0  0  0
   63.3295   31.7694   46.2147 H   0  0  0  0  0  0  0  0  0  0  0  0
   64.4930   32.7028   47.2262 H   0  0  0  0  0  0  0  0  0  0  0  0
   62.8318   31.9091   50.2690 H   0  0  0  0  0  0  0  0  0  0  0  0
   64.4894   32.2387   49.5721 H   0  0  0  0  0  0  0  0  0  0  0  0
   62.6702   34.1756   50.3326 H   0  0  0  0  0  0  0  0  0  0  0  0
   64.0412   34.3839   49.1584 H   0  0  0  0  0  0  0  0  0  0  0  0
   60.0064   30.9725   48.0832 H   0  0  0  0  0  0  0  0  0  0  0  0
  1  2  1  0
  2  3  2  0
  3  4  1  0
  4  5  2  0
  5  6  1  0
  6  7  2  0
  6  8  1  0
  8  9  1  0
  9 10  2  0
 10 11  1  0
 11 12  2  0
 12 13  1  0
 13 14  2  0
 14 15  1  0
 15 16  2  0
 15 17  1  0
 17 18  1  0
 18 19  2  0
 19 20  1  0
 20 21  2  0
 21 22  1  0
 21 23  1  0
 23 24  1  0
 24 25  2  0
 24 26  2  0
 24 27  1  0
 27 28  1  0
 28 29  1  0
 29 30  1  0
 30 31  1  0
 31 32  1  0
 23 33  2  0
  5 34  1  0
 34  2  1  0
 14  9  1  0
 33 18  1  0
 32 27  1  0
  1 35  1  0
  1 36  1  0
  1 37  1  0
  3 38  1  0
  4 39  1  0
 10 40  1  0
 11 41  1  0
 12 42  1  0
 13 43  1  0
 17 44  1  0
 19 45  1  0
 20 46  1  0
 22 47  1  0
 22 48  1  0
 22 49  1  0
 28 50  1  0
 28 51  1  0
 29 52  1  0
 29 53  1  0
 31 54  1  0
 31 55  1  0
 32 56  1  0
 32 57  1  0
 33 58  1  0
M  CHG  1   8  -1
M  END
>  <UniqueID>  (71) 
68

>  <SMILES>  (71) 
Cc1ccc(C(=O)[N-]c2ccccc2C(=O)Nc2ccc(C)c(S(=O)(=O)N3CCOCC3)c2)o1

>  <Energy>  (71) 
106.46296337469141

>  <Genealogy>  (71) 
Cc1ccc(C(=O)[N-]c2ccccc2C(=O)Nc2ccc(C)c(S(=O)(=O)N3CCOCC3)c2)o1 (protonated)
Cc1ccc(C(=O)[N-]c2ccccc2C(=O)Nc2ccc(C)c(S(=O)(=O)N3CCOCC3)c2)o1 (3D coordinates assigned)
Cc1ccc(C(=O)[N-]c2ccccc2C(=O)Nc2ccc(C)c(S(=O)(=O)N3CCOCC3)c2)o1 (nonaromatic ring conformer: 106.46296337469141 kcal/mol)

>  <smiles>  (71) 
Cc1ccc(C(=O)Nc2ccccc2C(=O)Nc2ccc(C)c(S(=O)(=O)N3CCOCC3)c2)o1

>  <score_type>  (71) 
oracle

>  <origin>  (71) 
adg

>  <m_score__min__energy>  (71) 
-11.380000000000001

>  <m_primary>  (71) 
energy

$$$$
71:0
     RDKit          3D

 31 32  0  0  0  0  0  0  0  0999 V2000
   58.6400   31.7570   48.2120 C   0  0  0  0  0  0  0  0  0  0  0  0
   58.6340   32.5080   46.9080 C   0  0  0  0  0  0  0  0  0  0  0  0
   59.1110   33.8280   46.8660 C   0  0  0  0  0  0  0  0  0  0  0  0
   59.1060   34.5440   45.6700 C   0  0  0  0  0  0  0  0  0  0  0  0
   59.5580   35.8220   45.6460 F   0  0  0  0  0  0  0  0  0  0  0  0
   58.6450   33.9460   44.4980 C   0  0  0  0  0  0  0  0  0  0  0  0
   58.1910   32.6190   44.5050 C   0  0  0  0  0  0  0  0  0  0  0  0
   57.7320   31.9960   43.2130 C   0  0  0  0  0  0  0  0  0  0  0  0
   58.1580   31.9000   45.7250 C   0  0  0  0  0  0  0  0  0  0  0  0
   57.6730   30.5480   45.7640 N   0  0  0  0  0  0  0  0  0  0  0  0
   58.5040   29.4340   45.4060 C   0  0  0  0  0  0  0  0  0  0  0  0
   59.6020   29.6360   44.8180 O   0  0  0  0  0  0  0  0  0  0  0  0
   58.0900   28.0440   45.6790 C   0  0  0  0  0  0  0  0  0  0  0  0
   59.0300   27.0150   45.8690 C   0  0  0  0  0  0  0  0  0  0  0  0
   58.5740   25.7220   46.1190 C   0  0  0  0  0  0  0  0  0  0  0  0
   57.2030   25.4750   46.1720 C   0  0  0  0  0  0  0  0  0  0  0  0
   56.3210   26.5380   45.9660 C   0  0  0  0  0  0  0  0  0  0  0  0
   55.0790   26.3410   46.0020 O   0  0  0  0  0  0  0  0  0  0  0  0
   56.7880   27.7620   45.7290 O   0  0  0  0  0  0  0  0  0  0  0  0
   58.6343   32.4727   49.0473 H   0  0  0  0  0  0  0  0  0  0  0  0
   57.7469   31.1175   48.2709 H   0  0  0  0  0  0  0  0  0  0  0  0
   59.5432   31.1319   48.2709 H   0  0  0  0  0  0  0  0  0  0  0  0
   59.4914   34.3005   47.7836 H   0  0  0  0  0  0  0  0  0  0  0  0
   58.6373   34.5199   43.5596 H   0  0  0  0  0  0  0  0  0  0  0  0
   57.0925   31.1280   43.4313 H   0  0  0  0  0  0  0  0  0  0  0  0
   57.1610   32.7352   42.6320 H   0  0  0  0  0  0  0  0  0  0  0  0
   58.6072   31.6697   42.6320 H   0  0  0  0  0  0  0  0  0  0  0  0
   56.6450   30.4010   45.8670 H   0  0  0  0  0  0  0  0  0  0  0  0
   60.1082   27.2275   45.8210 H   0  0  0  0  0  0  0  0  0  0  0  0
   59.2909   24.9021   46.2734 H   0  0  0  0  0  0  0  0  0  0  0  0
   56.8232   24.4622   46.3722 H   0  0  0  0  0  0  0  0  0  0  0  0
  1  2  1  0
  2  3  2  0
  3  4  1  0
  4  5  1  0
  4  6  2  0
  6  7  1  0
  7  8  1  0
  7  9  2  0
  9 10  1  0
 10 11  1  0
 11 12  2  0
 11 13  1  0
 13 14  2  0
 14 15  1  0
 15 16  2  0
 16 17  1  0
 17 18  2  0
 17 19  1  0
  9  2  1  0
 19 13  1  0
  1 20  1  0
  1 21  1  0
  1 22  1  0
  3 23  1  0
  6 24  1  0
  8 25  1  0
  8 26  1  0
  8 27  1  0
 10 28  1  0
 14 29  1  0
 15 30  1  0
 16 31  1  0
M  END
>  <UniqueID>  (72) 
69

>  <SMILES>  (72) 
Cc1cc(F)cc(C)c1NC(=O)c1cccc(=O)o1

>  <Energy>  (72) 
40.00584125609757

>  <Genealogy>  (72) 
Cc1cc(F)cc(C)c1NC(=O)c1cccc(=O)o1 (3D coordinates assigned)
Cc1cc(F)cc(C)c1NC(=O)c1cccc(=O)o1 (optimized conformer: 40.00584125609757 kcal/mol)

>  <smiles>  (72) 
Cc1cc(F)cc(C)c1NC(=O)c1cccc(=O)o1

>  <score_type>  (72) 
oracle

>  <origin>  (72) 
adg

>  <m_score__min__energy>  (72) 
-7.1900000000000004

>  <m_primary>  (72) 
energy

$$$$
72:0
     RDKit          3D

 36 38  0  0  0  0  0  0  0  0999 V2000
   59.3940   33.8500   51.6380 C   0  0  0  0  0  0  0  0  0  0  0  0
   59.3880   32.9640   50.4330 C   0  0  0  0  0  0  0  0  0  0  0  0
   58.3190   31.6690   50.2230 S   0  0  0  0  0  0  0  0  0  0  0  0
   58.9380   31.2250   48.7330 C   0  0  0  0  0  0  0  0  0  0  0  0
   58.5240   30.1930   47.9610 N   0  0  0  0  0  0  0  0  0  0  0  0
   59.1530   29.9670   46.7750 C   0  0  0  0  0  0  0  0  0  0  0  0
   58.6620   28.5800   45.7520 S   0  0  0  0  0  0  0  0  0  0  0  0
   57.9790   29.6140   44.4090 C   0  0  0  0  0  0  0  0  0  0  0  0
   56.5960   30.0710   44.7430 C   0  0  0  0  0  0  0  0  0  0  0  0
   55.6820   29.2230   44.9210 O   0  0  0  0  0  0  0  0  0  0  0  0
   56.3220   31.4750   44.8390 N   0  0  0  0  0  0  0  0  0  0  0  0
   57.2730   32.5090   45.1290 C   0  0  0  0  0  0  0  0  0  0  0  0
   57.2200   33.1290   46.3850 C   0  0  0  0  0  0  0  0  0  0  0  0
   58.1050   34.1620   46.7030 C   0  0  0  0  0  0  0  0  0  0  0  0
   59.0390   34.5980   45.7610 C   0  0  0  0  0  0  0  0  0  0  0  0
   59.8950   35.6040   46.0700 F   0  0  0  0  0  0  0  0  0  0  0  0
   59.0810   34.0090   44.4950 C   0  0  0  0  0  0  0  0  0  0  0  0
   58.1980   32.9740   44.1700 C   0  0  0  0  0  0  0  0  0  0  0  0
   58.2110   32.4800   42.9070 F   0  0  0  0  0  0  0  0  0  0  0  0
   60.1750   30.7770   46.3710 N   0  0  0  0  0  0  0  0  0  0  0  0
   60.6070   31.8180   47.1370 C   0  0  0  0  0  0  0  0  0  0  0  0
   61.5590   32.5370   46.7330 O   0  0  0  0  0  0  0  0  0  0  0  0
   59.9770   32.0580   48.3660 C   0  0  0  0  0  0  0  0  0  0  0  0
   60.2490   33.0550   49.3260 C   0  0  0  0  0  0  0  0  0  0  0  0
   61.3340   34.0860   49.1860 C   0  0  0  0  0  0  0  0  0  0  0  0
   59.3898   33.2317   52.5478 H   0  0  0  0  0  0  0  0  0  0  0  0
   60.2964   34.4789   51.6262 H   0  0  0  0  0  0  0  0  0  0  0  0
   58.5002   34.4910   51.6262 H   0  0  0  0  0  0  0  0  0  0  0  0
   58.6248   30.4930   44.2664 H   0  0  0  0  0  0  0  0  0  0  0  0
   57.9397   29.0147   43.4875 H   0  0  0  0  0  0  0  0  0  0  0  0
   56.4762   32.7998   47.1255 H   0  0  0  0  0  0  0  0  0  0  0  0
   58.0661   34.6325   47.6966 H   0  0  0  0  0  0  0  0  0  0  0  0
   59.8111   34.3604   43.7510 H   0  0  0  0  0  0  0  0  0  0  0  0
   61.6687   34.4040   50.1844 H   0  0  0  0  0  0  0  0  0  0  0  0
   62.1823   33.6531   48.6356 H   0  0  0  0  0  0  0  0  0  0  0  0
   60.9450   34.9553   48.6356 H   0  0  0  0  0  0  0  0  0  0  0  0
  1  2  1  0
  2  3  1  0
  3  4  1  0
  4  5  1  0
  5  6  1  0
  6  7  1  0
  7  8  1  0
  8  9  1  0
  9 10  2  0
  9 11  1  0
 11 12  1  0
 12 13  2  0
 13 14  1  0
 14 15  2  0
 15 16  1  0
 15 17  1  0
 17 18  2  0
 18 19  1  0
  6 20  2  0
 20 21  1  0
 21 22  2  0
 21 23  1  0
 23 24  1  0
 24 25  1  0
 24  2  2  0
 23  4  2  0
 18 12  1  0
  1 26  1  0
  1 27  1  0
  1 28  1  0
  8 29  1  0
  8 30  1  0
 13 31  1  0
 14 32  1  0
 17 33  1  0
 25 34  1  0
 25 35  1  0
 25 36  1  0
M  CHG  2   5  -1  11  -1
M  END
>  <UniqueID>  (73) 
70

>  <SMILES>  (73) 
Cc1sc2[n-]c(SCC(=O)[N-]c3ccc(F)cc3F)nc(=O)c2c1C

>  <Energy>  (73) 
70.26089561786824

>  <Genealogy>  (73) 
Cc1sc2[n-]c(SCC(=O)[N-]c3ccc(F)cc3F)nc(=O)c2c1C (protonated)
Cc1sc2[n-]c(SCC(=O)[N-]c3ccc(F)cc3F)nc(=O)c2c1C (3D coordinates assigned)
Cc1sc2[n-]c(SCC(=O)[N-]c3ccc(F)cc3F)nc(=O)c2c1C (optimized conformer: 70.26089561786824 kcal/mol)

>  <smiles>  (73) 
Cc1sc2[nH]c(SCC(=O)Nc3ccc(F)cc3F)nc(=O)c2c1C

>  <score_type>  (73) 
oracle

>  <origin>  (73) 
adg

>  <m_score__min__energy>  (73) 
-11.16

>  <m_primary>  (73) 
energy

$$$$
73:0
     RDKit          3D

 49 51  0  0  0  0  0  0  0  0999 V2000
   63.0520   33.8580   46.3510 C   0  0  0  0  0  0  0  0  0  0  0  0
   63.9710   33.0220   47.1170 N   0  0  0  0  0  0  0  0  0  0  0  0
   63.5830   32.2750   48.2850 C   0  0  0  0  0  0  0  0  0  0  0  0
   64.4310   32.2610   49.4000 C   0  0  0  0  0  0  0  0  0  0  0  0
   64.0770   31.5560   50.5510 C   0  0  0  0  0  0  0  0  0  0  0  0
   62.8660   30.8550   50.6110 C   0  0  0  0  0  0  0  0  0  0  0  0
   62.5290   30.1530   51.7670 O   0  0  0  0  0  0  0  0  0  0  0  0
   61.9960   30.8650   49.5020 C   0  0  0  0  0  0  0  0  0  0  0  0
   60.6740   30.1310   49.5320 C   0  0  0  0  0  0  0  0  0  0  0  0
   59.5560   31.0700   49.6590 N   0  0  0  0  0  0  0  0  0  0  0  0
   59.4150   32.2620   48.8630 C   0  0  0  0  0  0  0  0  0  0  0  0
   59.8700   33.4880   49.3730 C   0  0  0  0  0  0  0  0  0  0  0  0
   59.6780   34.6690   48.6540 C   0  0  0  0  0  0  0  0  0  0  0  0
   59.0280   34.6410   47.4180 C   0  0  0  0  0  0  0  0  0  0  0  0
   58.5880   33.4220   46.8800 C   0  0  0  0  0  0  0  0  0  0  0  0
   57.8140   33.3920   45.5860 C   0  0  0  0  0  0  0  0  0  0  0  0
   58.5270   32.5560   44.5120 C   0  0  0  0  0  0  0  0  0  0  0  0
   58.1630   31.0960   44.6040 C   0  0  0  0  0  0  0  0  0  0  0  0
   59.1600   30.1100   44.5230 C   0  0  0  0  0  0  0  0  0  0  0  0
   58.8150   28.7550   44.5670 C   0  0  0  0  0  0  0  0  0  0  0  0
   57.4740   28.3760   44.6830 C   0  0  0  0  0  0  0  0  0  0  0  0
   56.4750   29.3510   44.7500 C   0  0  0  0  0  0  0  0  0  0  0  0
   55.1420   28.9740   44.8530 O   0  0  0  0  0  0  0  0  0  0  0  0
   56.8160   30.7060   44.7090 C   0  0  0  0  0  0  0  0  0  0  0  0
   58.8000   32.2350   47.5980 C   0  0  0  0  0  0  0  0  0  0  0  0
   62.3700   31.5650   48.3400 C   0  0  0  0  0  0  0  0  0  0  0  0
   62.4185   34.4343   47.0413 H   0  0  0  0  0  0  0  0  0  0  0  0
   63.6268   34.5493   45.7172 H   0  0  0  0  0  0  0  0  0  0  0  0
   62.4181   33.2205   45.7172 H   0  0  0  0  0  0  0  0  0  0  0  0
   64.9690   32.9940   46.8080 H   0  0  0  0  0  0  0  0  0  0  0  0
   65.3836   32.8102   49.3679 H   0  0  0  0  0  0  0  0  0  0  0  0
   64.7542   31.5508   51.4178 H   0  0  0  0  0  0  0  0  0  0  0  0
   62.9950   30.3280   52.6500 H   0  0  0  0  0  0  0  0  0  0  0  0
   60.5590   29.5584   48.5999 H   0  0  0  0  0  0  0  0  0  0  0  0
   60.6665   29.4568   50.4011 H   0  0  0  0  0  0  0  0  0  0  0  0
   58.7660   30.7930   50.2860 H   0  0  0  0  0  0  0  0  0  0  0  0
   60.3816   33.5184   50.3463 H   0  0  0  0  0  0  0  0  0  0  0  0
   60.0396   35.6244   49.0620 H   0  0  0  0  0  0  0  0  0  0  0  0
   58.8606   35.5770   46.8649 H   0  0  0  0  0  0  0  0  0  0  0  0
   56.8217   32.9566   45.7750 H   0  0  0  0  0  0  0  0  0  0  0  0
   57.7297   34.4240   45.2148 H   0  0  0  0  0  0  0  0  0  0  0  0
   58.2396   32.9325   43.5192 H   0  0  0  0  0  0  0  0  0  0  0  0
   59.6114   32.6481   44.6719 H   0  0  0  0  0  0  0  0  0  0  0  0
   60.2154   30.4042   44.4247 H   0  0  0  0  0  0  0  0  0  0  0  0
   59.5999   27.9864   44.5103 H   0  0  0  0  0  0  0  0  0  0  0  0
   57.2053   27.3100   44.7215 H   0  0  0  0  0  0  0  0  0  0  0  0
   56.0270   31.4708   44.7591 H   0  0  0  0  0  0  0  0  0  0  0  0
   58.4822   31.2740   47.1674 H   0  0  0  0  0  0  0  0  0  0  0  0
   61.7053   31.5569   47.4636 H   0  0  0  0  0  0  0  0  0  0  0  0
  1  2  1  0
  2  3  1  0
  3  4  2  0
  4  5  1  0
  5  6  2  0
  6  7  1  0
  6  8  1  0
  8  9  1  0
  9 10  1  0
 10 11  1  0
 11 12  2  0
 12 13  1  0
 13 14  2  0
 14 15  1  0
 15 16  1  0
 16 17  1  0
 17 18  1  0
 18 19  2  0
 19 20  1  0
 20 21  2  0
 21 22  1  0
 22 23  1  0
 22 24  2  0
 15 25  2  0
  8 26  2  0
 26  3  1  0
 25 11  1  0
 24 18  1  0
  1 27  1  0
  1 28  1  0
  1 29  1  0
  2 30  1  0
  4 31  1  0
  5 32  1  0
  7 33  1  0
  9 34  1  0
  9 35  1  0
 10 36  1  0
 12 37  1  0
 13 38  1  0
 14 39  1  0
 16 40  1  0
 16 41  1  0
 17 42  1  0
 17 43  1  0
 19 44  1  0
 20 45  1  0
 21 46  1  0
 24 47  1  0
 25 48  1  0
 26 49  1  0
M  CHG  1  23  -1
M  END
>  <UniqueID>  (74) 
71

>  <SMILES>  (74) 
CNc1ccc(O)c(CNc2cccc(CCc3cccc([O-])c3)c2)c1

>  <Energy>  (74) 
42.17047280175661

>  <Genealogy>  (74) 
CNc1ccc(O)c(CNc2cccc(CCc3cccc([O-])c3)c2)c1 (protonated)
CNc1ccc(O)c(CNc2cccc(CCc3cccc([O-])c3)c2)c1 (3D coordinates assigned)
CNc1ccc(O)c(CNc2cccc(CCc3cccc([O-])c3)c2)c1 (optimized conformer: 42.17047280175661 kcal/mol)

>  <smiles>  (74) 
CNc1ccc(O)c(CNc2cccc(CCc3cccc(O)c3)c2)c1

>  <score_type>  (74) 
oracle

>  <origin>  (74) 
adg

>  <m_score__min__energy>  (74) 
-11.52

>  <m_primary>  (74) 
energy

$$$$
74:0
     RDKit          3D

 42 44  0  0  0  0  0  0  0  0999 V2000
   60.8450   30.4470   46.7370 C   0  0  0  0  0  0  0  0  0  0  0  0
   59.8060   30.0640   45.9920 C   0  0  0  0  0  0  0  0  0  0  0  0
   58.4800   29.7250   46.6130 C   0  0  0  0  0  0  0  0  0  0  0  0
   57.4340   30.5020   46.0310 O   0  0  0  0  0  0  0  0  0  0  0  0
   57.4000   30.9660   44.7030 C   0  0  0  0  0  0  0  0  0  0  0  0
   56.9090   30.1730   43.6450 C   0  0  0  0  0  0  0  0  0  0  0  0
   56.9020   30.6640   42.3390 C   0  0  0  0  0  0  0  0  0  0  0  0
   57.3840   31.9450   42.0680 C   0  0  0  0  0  0  0  0  0  0  0  0
   57.8740   32.7410   43.1040 C   0  0  0  0  0  0  0  0  0  0  0  0
   57.8790   32.2640   44.4260 C   0  0  0  0  0  0  0  0  0  0  0  0
   58.4170   33.1240   45.5370 C   0  0  0  0  0  0  0  0  0  0  0  0
   59.6000   33.7540   45.0950 O   0  0  0  0  0  0  0  0  0  0  0  0
   59.9960   34.7350   46.0280 C   0  0  0  0  0  0  0  0  0  0  0  0
   60.7990   34.1040   47.0660 N   0  0  0  0  0  0  0  0  0  0  0  0
   62.2030   33.8390   46.9920 C   0  0  0  0  0  0  0  0  0  0  0  0
   62.9050   34.1430   45.9920 O   0  0  0  0  0  0  0  0  0  0  0  0
   62.7300   33.1830   48.1960 C   0  0  0  0  0  0  0  0  0  0  0  0
   64.0500   32.7950   48.4410 C   0  0  0  0  0  0  0  0  0  0  0  0
   64.3540   32.1770   49.6650 C   0  0  0  0  0  0  0  0  0  0  0  0
   63.3450   31.9570   50.6220 C   0  0  0  0  0  0  0  0  0  0  0  0
   62.0230   32.3520   50.3630 C   0  0  0  0  0  0  0  0  0  0  0  0
   61.7410   32.9630   49.1430 C   0  0  0  0  0  0  0  0  0  0  0  0
   60.1970   33.5420   48.5810 S   0  0  0  0  0  0  0  0  0  0  0  0
   59.6650   34.6700   49.4200 O   0  0  0  0  0  0  0  0  0  0  0  0
   59.1960   32.4350   48.4050 O   0  0  0  0  0  0  0  0  0  0  0  0
   61.8052   30.6897   46.2584 H   0  0  0  0  0  0  0  0  0  0  0  0
   60.7411   30.5199   47.8297 H   0  0  0  0  0  0  0  0  0  0  0  0
   59.9226   29.9950   44.9004 H   0  0  0  0  0  0  0  0  0  0  0  0
   58.2687   28.6576   46.4518 H   0  0  0  0  0  0  0  0  0  0  0  0
   58.5276   29.9478   47.6891 H   0  0  0  0  0  0  0  0  0  0  0  0
   56.5293   29.1613   43.8507 H   0  0  0  0  0  0  0  0  0  0  0  0
   56.5153   30.0392   41.5204 H   0  0  0  0  0  0  0  0  0  0  0  0
   57.3777   32.3277   41.0368 H   0  0  0  0  0  0  0  0  0  0  0  0
   58.2587   33.7479   42.8847 H   0  0  0  0  0  0  0  0  0  0  0  0
   57.6717   33.8863   45.8079 H   0  0  0  0  0  0  0  0  0  0  0  0
   58.6326   32.5025   46.4186 H   0  0  0  0  0  0  0  0  0  0  0  0
   60.5910   35.5083   45.5202 H   0  0  0  0  0  0  0  0  0  0  0  0
   59.1069   35.2014   46.4774 H   0  0  0  0  0  0  0  0  0  0  0  0
   64.8349   32.9701   47.6905 H   0  0  0  0  0  0  0  0  0  0  0  0
   65.3866   31.8630   49.8773 H   0  0  0  0  0  0  0  0  0  0  0  0
   63.5939   31.4730   51.5779 H   0  0  0  0  0  0  0  0  0  0  0  0
   61.2290   32.1832   51.1053 H   0  0  0  0  0  0  0  0  0  0  0  0
  1  2  2  0
  2  3  1  0
  3  4  1  0
  4  5  1  0
  5  6  2  0
  6  7  1  0
  7  8  2  0
  8  9  1  0
  9 10  2  0
 10 11  1  0
 11 12  1  0
 12 13  1  0
 13 14  1  0
 14 15  1  0
 15 16  2  0
 15 17  1  0
 17 18  2  0
 18 19  1  0
 19 20  2  0
 20 21  1  0
 21 22  2  0
 22 23  1  0
 23 24  2  0
 23 25  2  0
 10  5  1  0
 23 14  1  0
 22 17  1  0
  1 26  1  0
  1 27  1  0
  2 28  1  0
  3 29  1  0
  3 30  1  0
  6 31  1  0
  7 32  1  0
  8 33  1  0
  9 34  1  0
 11 35  1  0
 11 36  1  0
 13 37  1  0
 13 38  1  0
 18 39  1  0
 19 40  1  0
 20 41  1  0
 21 42  1  0
M  END
>  <UniqueID>  (75) 
72

>  <SMILES>  (75) 
C=CCOc1ccccc1COCN1C(=O)c2ccccc2S1(=O)=O

>  <Energy>  (75) 
63.19898652344152

>  <Genealogy>  (75) 
C=CCOc1ccccc1COCN1C(=O)c2ccccc2S1(=O)=O (3D coordinates assigned)
C=CCOc1ccccc1COCN1C(=O)c2ccccc2S1(=O)=O (nonaromatic ring conformer: 63.19898652344152 kcal/mol)

>  <smiles>  (75) 
C=CCOc1ccccc1COCN1C(=O)c2ccccc2S1(=O)=O

>  <score_type>  (75) 
oracle

>  <origin>  (75) 
adg

>  <m_score__min__energy>  (75) 
-8.0199999999999996

>  <m_primary>  (75) 
energy

$$$$
75:0
     RDKit          3D

 35 36  0  0  0  0  0  0  0  0999 V2000
   54.6010   21.4230   44.8030 H   0  0  0  0  0  0  0  0  0  0  0  0
   55.5320   21.0270   44.5410 N   0  0  0  0  0  0  0  0  0  0  0  0
   56.3520   22.2370   43.6200 S   0  0  0  0  0  0  0  0  0  0  0  0
   55.5090   22.6260   42.4370 O   0  0  0  0  0  0  0  0  0  0  0  0
   57.6570   21.6840   43.1200 O   0  0  0  0  0  0  0  0  0  0  0  0
   56.6470   23.6470   44.6310 C   0  0  0  0  0  0  0  0  0  0  0  0
   57.9040   23.8480   45.2140 C   0  0  0  0  0  0  0  0  0  0  0  0
   58.7146   23.1272   45.0313 H   0  0  0  0  0  0  0  0  0  0  0  0
   58.1320   24.9610   46.0270 C   0  0  0  0  0  0  0  0  0  0  0  0
   59.1190   25.1045   46.4910 H   0  0  0  0  0  0  0  0  0  0  0  0
   57.1150   25.8950   46.2560 C   0  0  0  0  0  0  0  0  0  0  0  0
   57.3900   27.0110   47.1130 N   0  0  0  0  0  0  0  0  0  0  0  0
   57.9190   28.2730   46.6890 C   0  0  0  0  0  0  0  0  0  0  0  0
   58.2800   29.1330   47.5370 O   0  0  0  0  0  0  0  0  0  0  0  0
   58.0510   28.5670   45.2290 C   0  0  0  0  0  0  0  0  0  0  0  0
   59.0226   28.1981   44.8686 H   0  0  0  0  0  0  0  0  0  0  0  0
   57.2384   28.0658   44.6827 H   0  0  0  0  0  0  0  0  0  0  0  0
   57.9660   30.0060   45.0050 N   0  0  0  0  0  0  0  0  0  0  0  0
   56.7320   30.7010   44.8080 C   0  0  0  0  0  0  0  0  0  0  0  0
   55.6450   30.0630   44.7630 O   0  0  0  0  0  0  0  0  0  0  0  0
   56.7340   32.1330   44.7810 N   0  0  0  0  0  0  0  0  0  0  0  0
   57.6680   32.9600   45.1660 C   0  0  0  0  0  0  0  0  0  0  0  0
   58.5140   33.4410   44.2120 N   0  0  0  0  0  0  0  0  0  0  0  0
   59.5280   34.2990   44.4960 C   0  0  0  0  0  0  0  0  0  0  0  0
   60.1882   34.6547   43.6912 H   0  0  0  0  0  0  0  0  0  0  0  0
   59.7330   34.7290   45.8050 C   0  0  0  0  0  0  0  0  0  0  0  0
   60.5634   35.4096   46.0442 H   0  0  0  0  0  0  0  0  0  0  0  0
   58.8730   34.2860   46.8070 C   0  0  0  0  0  0  0  0  0  0  0  0
   59.0208   34.6232   47.8436 H   0  0  0  0  0  0  0  0  0  0  0  0
   57.8230   33.4150   46.5020 C   0  0  0  0  0  0  0  0  0  0  0  0
   56.9390   33.0710   47.5170 O   0  0  0  0  0  0  0  0  0  0  0  0
   55.8360   25.6690   45.7070 C   0  0  0  0  0  0  0  0  0  0  0  0
   54.7720   26.5180   45.9940 O   0  0  0  0  0  0  0  0  0  0  0  0
   55.6130   24.5560   44.8880 C   0  0  0  0  0  0  0  0  0  0  0  0
   54.6198   24.3943   44.4436 H   0  0  0  0  0  0  0  0  0  0  0  0
  1  2  1  0
  2  3  1  0
  3  4  2  0
  3  5  2  0
  3  6  1  0
  6  7  2  0
  7  8  1  0
  7  9  1  0
  9 10  1  0
  9 11  2  0
 11 12  1  0
 12 13  1  0
 13 14  2  0
 13 15  1  0
 15 16  1  0
 15 17  1  0
 15 18  1  0
 18 19  1  0
 19 20  2  0
 19 21  1  0
 21 22  2  0
 22 23  1  0
 23 24  1  0
 24 25  1  0
 24 26  2  0
 26 27  1  0
 26 28  1  0
 28 29  1  0
 28 30  2  0
 30 31  1  0
 11 32  1  0
 32 33  1  0
 32 34  2  0
 34 35  1  0
 34  6  1  0
 30 22  1  0
M  CHG  6   2  -1  12  -1  18  -1  23  -1  31  -1  33  -1
M  END
>  <UniqueID>  (76) 
73

>  <SMILES>  (76) 
[NH-]S(=O)(=O)c1ccc([N-]C(=O)C[N-]C(=O)/N=c2/[n-]cccc2[O-])c([O-])c1

>  <Energy>  (76) 
49.66305045039811

>  <Genealogy>  (76) 
[NH-]S(=O)(=O)c1ccc([N-]C(=O)C[N-]C(=O)N=c2[n-]cccc2[O-])c([O-])c1 (protonated)
[NH-]S(=O)(=O)c1ccc([N-]C(=O)C[N-]C(=O)/N=c2/[n-]cccc2[O-])c([O-])c1 (cis-trans isomerization)
[NH-]S(=O)(=O)c1ccc([N-]C(=O)C[N-]C(=O)/N=c2/[n-]cccc2[O-])c([O-])c1 (3D coordinates assigned)
[NH-]S(=O)(=O)c1ccc([N-]C(=O)C[N-]C(=O)/N=c2/[n-]cccc2[O-])c([O-])c1 (optimized conformer: 49.66305045039811 kcal/mol)

>  <smiles>  (76) 
NS(=O)(=O)c1ccc(NC(=O)CNC(=O)N=c2[nH]cccc2O)c(O)c1

>  <score_type>  (76) 
oracle

>  <origin>  (76) 
adg

>  <m_score__min__energy>  (76) 
-17.969999999999999

>  <m_primary>  (76) 
energy

$$$$
76:0
     RDKit          3D

 35 37  0  0  0  0  0  0  0  0999 V2000
   54.3280   25.9600   45.6650 O   0  0  0  0  0  0  0  0  0  0  0  0
   55.4730   25.4380   45.7530 C   0  0  0  0  0  0  0  0  0  0  0  0
   56.4400   25.9640   46.6720 N   0  0  0  0  0  0  0  0  0  0  0  0
   57.8720   25.9420   46.5470 C   0  0  0  0  0  0  0  0  0  0  0  0
   58.5610   24.7790   46.1570 C   0  0  0  0  0  0  0  0  0  0  0  0
   59.9470   24.8010   45.9930 C   0  0  0  0  0  0  0  0  0  0  0  0
   60.6610   25.9790   46.2190 C   0  0  0  0  0  0  0  0  0  0  0  0
   59.9920   27.1320   46.6340 C   0  0  0  0  0  0  0  0  0  0  0  0
   58.6050   27.1170   46.8290 C   0  0  0  0  0  0  0  0  0  0  0  0
   57.9800   28.2940   47.2610 O   0  0  0  0  0  0  0  0  0  0  0  0
   57.9130   29.4670   46.5010 C   0  0  0  0  0  0  0  0  0  0  0  0
   58.3800   30.5500   46.9460 O   0  0  0  0  0  0  0  0  0  0  0  0
   57.3180   29.4230   45.1610 C   0  0  0  0  0  0  0  0  0  0  0  0
   57.8860   28.8550   44.0370 C   0  0  0  0  0  0  0  0  0  0  0  0
   56.9780   29.0600   43.0210 C   0  0  0  0  0  0  0  0  0  0  0  0
   55.9160   29.7360   43.5870 C   0  0  0  0  0  0  0  0  0  0  0  0
   56.1490   29.9390   44.8630 O   0  0  0  0  0  0  0  0  0  0  0  0
   55.8020   24.2380   44.9470 C   0  0  0  0  0  0  0  0  0  0  0  0
   55.6610   22.9490   45.4860 C   0  0  0  0  0  0  0  0  0  0  0  0
   55.9750   21.8280   44.7170 C   0  0  0  0  0  0  0  0  0  0  0  0
   56.4300   22.0000   43.4080 C   0  0  0  0  0  0  0  0  0  0  0  0
   56.7160   20.9940   42.7050 O   0  0  0  0  0  0  0  0  0  0  0  0
   56.5630   23.2530   42.8920 N   0  0  0  0  0  0  0  0  0  0  0  0
   56.2620   24.3610   43.6240 C   0  0  0  0  0  0  0  0  0  0  0  0
   58.0042   23.8469   45.9803 H   0  0  0  0  0  0  0  0  0  0  0  0
   60.4777   23.8881   45.6850 H   0  0  0  0  0  0  0  0  0  0  0  0
   61.7507   25.9988   46.0701 H   0  0  0  0  0  0  0  0  0  0  0  0
   60.5581   28.0587   46.8091 H   0  0  0  0  0  0  0  0  0  0  0  0
   58.8587   28.3460   43.9677 H   0  0  0  0  0  0  0  0  0  0  0  0
   57.0791   28.7480   41.9710 H   0  0  0  0  0  0  0  0  0  0  0  0
   55.0110   30.0563   43.0500 H   0  0  0  0  0  0  0  0  0  0  0  0
   55.3018   22.8227   46.5180 H   0  0  0  0  0  0  0  0  0  0  0  0
   55.8651   20.8177   45.1381 H   0  0  0  0  0  0  0  0  0  0  0  0
   56.9050   23.3740   41.9110 H   0  0  0  0  0  0  0  0  0  0  0  0
   56.3795   25.3593   43.1772 H   0  0  0  0  0  0  0  0  0  0  0  0
  1  2  2  0
  2  3  1  0
  3  4  1  0
  4  5  2  0
  5  6  1  0
  6  7  2  0
  7  8  1  0
  8  9  2  0
  9 10  1  0
 10 11  1  0
 11 12  2  0
 11 13  1  0
 13 14  2  0
 14 15  1  0
 15 16  2  0
 16 17  1  0
  2 18  1  0
 18 19  1  0
 19 20  2  0
 20 21  1  0
 21 22  2  0
 21 23  1  0
 23 24  1  0
  9  4  1  0
 17 13  1  0
 24 18  2  0
  5 25  1  0
  6 26  1  0
  7 27  1  0
  8 28  1  0
 14 29  1  0
 15 30  1  0
 16 31  1  0
 19 32  1  0
 20 33  1  0
 23 34  1  0
 24 35  1  0
M  CHG  1   3  -1
M  END
>  <UniqueID>  (77) 
74

>  <SMILES>  (77) 
O=C([N-]c1ccccc1OC(=O)c1ccco1)c1ccc(=O)[nH]c1

>  <Energy>  (77) 
73.21717853976838

>  <Genealogy>  (77) 
O=C([N-]c1ccccc1OC(=O)c1ccco1)c1ccc(=O)[nH]c1 (protonated)
O=C([N-]c1ccccc1OC(=O)c1ccco1)c1ccc(=O)[nH]c1 (3D coordinates assigned)
O=C([N-]c1ccccc1OC(=O)c1ccco1)c1ccc(=O)[nH]c1 (optimized conformer: 73.21717853976838 kcal/mol)

>  <smiles>  (77) 
O=C(Nc1ccccc1OC(=O)c1ccco1)c1ccc(=O)[nH]c1

>  <score_type>  (77) 
oracle

>  <origin>  (77) 
adg

>  <m_score__min__energy>  (77) 
-10.41

>  <m_primary>  (77) 
energy

$$$$
77:0
     RDKit          3D

 37 39  0  0  0  0  0  0  0  0999 V2000
   58.8210   30.7200   43.5840 N   0  0  0  0  0  0  0  0  0  0  0  0
   57.8690   31.9380   44.3610 S   0  0  0  0  0  0  0  0  0  0  0  0
   57.4230   32.9570   43.3510 O   0  0  0  0  0  0  0  0  0  0  0  0
   56.6520   31.2910   44.9610 O   0  0  0  0  0  0  0  0  0  0  0  0
   58.8330   32.7310   45.6200 C   0  0  0  0  0  0  0  0  0  0  0  0
   58.7370   34.1260   45.7540 C   0  0  0  0  0  0  0  0  0  0  0  0
   59.4680   34.8030   46.7290 C   0  0  0  0  0  0  0  0  0  0  0  0
   60.3080   34.1020   47.5900 C   0  0  0  0  0  0  0  0  0  0  0  0
   60.4260   32.7100   47.4830 C   0  0  0  0  0  0  0  0  0  0  0  0
   61.2750   32.0130   48.3540 C   0  0  0  0  0  0  0  0  0  0  0  0
   61.4010   30.6270   48.2600 C   0  0  0  0  0  0  0  0  0  0  0  0
   60.6770   29.9130   47.2910 C   0  0  0  0  0  0  0  0  0  0  0  0
   60.7650   28.5170   47.1590 O   0  0  0  0  0  0  0  0  0  0  0  0
   60.3870   27.7710   46.0020 C   0  0  0  0  0  0  0  0  0  0  0  0
   58.9080   27.4880   46.0080 C   0  0  0  0  0  0  0  0  0  0  0  0
   58.3950   26.3850   46.7100 C   0  0  0  0  0  0  0  0  0  0  0  0
   57.0220   26.1230   46.7050 C   0  0  0  0  0  0  0  0  0  0  0  0
   56.1510   26.9540   45.9910 C   0  0  0  0  0  0  0  0  0  0  0  0
   54.7870   26.6920   45.9880 O   0  0  0  0  0  0  0  0  0  0  0  0
   56.6570   28.0470   45.2800 C   0  0  0  0  0  0  0  0  0  0  0  0
   58.0300   28.3120   45.2830 C   0  0  0  0  0  0  0  0  0  0  0  0
   59.8330   30.6050   46.4150 C   0  0  0  0  0  0  0  0  0  0  0  0
   59.6880   32.0070   46.4940 C   0  0  0  0  0  0  0  0  0  0  0  0
   59.1400   31.1160   42.6720 H   0  0  0  0  0  0  0  0  0  0  0  0
   58.1780   29.9270   43.3620 H   0  0  0  0  0  0  0  0  0  0  0  0
   58.0762   34.6917   45.0807 H   0  0  0  0  0  0  0  0  0  0  0  0
   59.3808   35.8959   46.8185 H   0  0  0  0  0  0  0  0  0  0  0  0
   60.8812   34.6431   48.3572 H   0  0  0  0  0  0  0  0  0  0  0  0
   61.8457   32.5629   49.1168 H   0  0  0  0  0  0  0  0  0  0  0  0
   62.0707   30.0905   48.9482 H   0  0  0  0  0  0  0  0  0  0  0  0
   60.6398   28.3496   45.1013 H   0  0  0  0  0  0  0  0  0  0  0  0
   60.9292   26.8139   46.0069 H   0  0  0  0  0  0  0  0  0  0  0  0
   59.0766   25.7245   47.2661 H   0  0  0  0  0  0  0  0  0  0  0  0
   56.6253   25.2622   47.2632 H   0  0  0  0  0  0  0  0  0  0  0  0
   55.9734   28.6996   44.7172 H   0  0  0  0  0  0  0  0  0  0  0  0
   58.4242   29.1682   44.7160 H   0  0  0  0  0  0  0  0  0  0  0  0
   59.2724   30.0463   45.6510 H   0  0  0  0  0  0  0  0  0  0  0  0
  1  2  1  0
  2  3  2  0
  2  4  2  0
  2  5  1  0
  5  6  2  0
  6  7  1  0
  7  8  2  0
  8  9  1  0
  9 10  2  0
 10 11  1  0
 11 12  2  0
 12 13  1  0
 13 14  1  0
 14 15  1  0
 15 16  2  0
 16 17  1  0
 17 18  2  0
 18 19  1  0
 18 20  1  0
 20 21  2  0
 12 22  1  0
 22 23  2  0
 23  5  1  0
 23  9  1  0
 21 15  1  0
  1 24  1  0
  1 25  1  0
  6 26  1  0
  7 27  1  0
  8 28  1  0
 10 29  1  0
 11 30  1  0
 14 31  1  0
 14 32  1  0
 16 33  1  0
 17 34  1  0
 20 35  1  0
 21 36  1  0
 22 37  1  0
M  CHG  1  19  -1
M  END
>  <UniqueID>  (78) 
75

>  <SMILES>  (78) 
NS(=O)(=O)c1cccc2ccc(OCc3ccc([O-])cc3)cc12

>  <Energy>  (78) 
44.189319211981555

>  <Genealogy>  (78) 
NS(=O)(=O)c1cccc2ccc(OCc3ccc([O-])cc3)cc12 (protonated)
NS(=O)(=O)c1cccc2ccc(OCc3ccc([O-])cc3)cc12 (3D coordinates assigned)
NS(=O)(=O)c1cccc2ccc(OCc3ccc([O-])cc3)cc12 (optimized conformer: 44.189319211981555 kcal/mol)

>  <smiles>  (78) 
NS(=O)(=O)c1cccc2ccc(OCc3ccc(O)cc3)cc12

>  <score_type>  (78) 
oracle

>  <origin>  (78) 
adg

>  <m_score__min__energy>  (78) 
-12.050000000000001

>  <m_primary>  (78) 
energy

$$$$
78:0
     RDKit          3D

 34 36  0  0  0  0  0  0  0  0999 V2000
   55.1540   29.3300   44.8310 O   0  0  0  0  0  0  0  0  0  0  0  0
   56.2640   29.8720   44.5830 C   0  0  0  0  0  0  0  0  0  0  0  0
   56.4780   31.2570   44.8610 N   0  0  0  0  0  0  0  0  0  0  0  0
   57.5190   32.0420   44.2100 C   0  0  0  0  0  0  0  0  0  0  0  0
   58.0870   33.0290   45.1930 C   0  0  0  0  0  0  0  0  0  0  0  0
   57.8690   32.8570   46.5690 C   0  0  0  0  0  0  0  0  0  0  0  0
   58.4550   33.7300   47.4910 C   0  0  0  0  0  0  0  0  0  0  0  0
   59.2780   34.7680   47.0460 C   0  0  0  0  0  0  0  0  0  0  0  0
   59.5130   34.9360   45.6790 C   0  0  0  0  0  0  0  0  0  0  0  0
   58.9210   34.0700   44.7530 C   0  0  0  0  0  0  0  0  0  0  0  0
   57.5640   28.9170   43.8190 S   0  0  0  0  0  0  0  0  0  0  0  0
   57.9980   28.1520   45.3910 C   0  0  0  0  0  0  0  0  0  0  0  0
   57.4210   26.9210   45.7130 C   0  0  0  0  0  0  0  0  0  0  0  0
   57.7750   26.2910   46.9090 C   0  0  0  0  0  0  0  0  0  0  0  0
   57.2680   25.1790   47.2060 O   0  0  0  0  0  0  0  0  0  0  0  0
   58.6460   26.8590   47.7370 O   0  0  0  0  0  0  0  0  0  0  0  0
   59.2200   28.0300   47.4810 C   0  0  0  0  0  0  0  0  0  0  0  0
   60.1310   28.5660   48.3980 C   0  0  0  0  0  0  0  0  0  0  0  0
   60.7510   29.7900   48.1370 C   0  0  0  0  0  0  0  0  0  0  0  0
   60.4610   30.4870   46.9630 C   0  0  0  0  0  0  0  0  0  0  0  0
   59.5470   29.9670   46.0410 C   0  0  0  0  0  0  0  0  0  0  0  0
   58.9170   28.7330   46.2880 C   0  0  0  0  0  0  0  0  0  0  0  0
   58.3180   31.3727   43.8584 H   0  0  0  0  0  0  0  0  0  0  0  0
   57.0909   32.5816   43.3523 H   0  0  0  0  0  0  0  0  0  0  0  0
   57.2342   32.0316   46.9237 H   0  0  0  0  0  0  0  0  0  0  0  0
   58.2680   33.5996   48.5671 H   0  0  0  0  0  0  0  0  0  0  0  0
   59.7408   35.4528   47.7719 H   0  0  0  0  0  0  0  0  0  0  0  0
   60.1647   35.7506   45.3301 H   0  0  0  0  0  0  0  0  0  0  0  0
   59.1093   34.2048   43.6776 H   0  0  0  0  0  0  0  0  0  0  0  0
   56.6954   26.4525   45.0319 H   0  0  0  0  0  0  0  0  0  0  0  0
   60.3593   28.0221   49.3265 H   0  0  0  0  0  0  0  0  0  0  0  0
   61.4697   30.2058   48.8585 H   0  0  0  0  0  0  0  0  0  0  0  0
   60.9536   31.4498   46.7620 H   0  0  0  0  0  0  0  0  0  0  0  0
   59.3199   30.5241   45.1201 H   0  0  0  0  0  0  0  0  0  0  0  0
  1  2  2  0
  2  3  1  0
  3  4  1  0
  4  5  1  0
  5  6  2  0
  6  7  1  0
  7  8  2  0
  8  9  1  0
  9 10  2  0
  2 11  1  0
 11 12  1  0
 12 13  2  0
 13 14  1  0
 14 15  2  0
 14 16  1  0
 16 17  1  0
 17 18  2  0
 18 19  1  0
 19 20  2  0
 20 21  1  0
 21 22  2  0
 10  5  1  0
 22 12  1  0
 22 17  1  0
  4 23  1  0
  4 24  1  0
  6 25  1  0
  7 26  1  0
  8 27  1  0
  9 28  1  0
 10 29  1  0
 13 30  1  0
 18 31  1  0
 19 32  1  0
 20 33  1  0
 21 34  1  0
M  CHG  1   3  -1
M  END
>  <UniqueID>  (79) 
76

>  <SMILES>  (79) 
O=C([N-]Cc1ccccc1)Sc1cc(=O)oc2ccccc12

>  <Energy>  (79) 
31.608875768487216

>  <Genealogy>  (79) 
O=C([N-]Cc1ccccc1)Sc1cc(=O)oc2ccccc12 (protonated)
O=C([N-]Cc1ccccc1)Sc1cc(=O)oc2ccccc12 (3D coordinates assigned)
O=C([N-]Cc1ccccc1)Sc1cc(=O)oc2ccccc12 (optimized conformer: 31.608875768487216 kcal/mol)

>  <smiles>  (79) 
O=C(NCc1ccccc1)Sc1cc(=O)oc2ccccc12

>  <score_type>  (79) 
oracle

>  <origin>  (79) 
adg

>  <m_score__min__energy>  (79) 
-9.6799999999999997

>  <m_primary>  (79) 
energy

$$$$
79:0
     RDKit          3D

 51 53  0  0  0  0  0  0  0  0999 V2000
   59.2680   33.8570   50.8590 C   0  0  0  0  0  0  0  0  0  0  0  0
   60.4640   33.7600   49.9570 C   0  0  0  0  0  0  0  0  0  0  0  0
   61.7420   33.6480   50.5100 C   0  0  0  0  0  0  0  0  0  0  0  0
   62.8600   33.5330   49.6810 C   0  0  0  0  0  0  0  0  0  0  0  0
   62.7190   33.5300   48.2840 C   0  0  0  0  0  0  0  0  0  0  0  0
   63.9480   33.3660   47.4360 C   0  0  0  0  0  0  0  0  0  0  0  0
   61.4240   33.6290   47.7160 C   0  0  0  0  0  0  0  0  0  0  0  0
   61.1900   33.6330   46.2220 C   0  0  0  0  0  0  0  0  0  0  0  0
   59.7560   33.5440   45.9270 N   0  0  0  0  0  0  0  0  0  0  0  0
   59.1640   32.3530   46.0480 N   0  0  0  0  0  0  0  0  0  0  0  0
   57.8500   32.1500   45.7730 C   0  0  0  0  0  0  0  0  0  0  0  0
   57.3780   30.9420   45.8950 N   0  0  0  0  0  0  0  0  0  0  0  0
   56.9510   29.9990   44.8970 C   0  0  0  0  0  0  0  0  0  0  0  0
   55.7350   29.6740   44.8710 O   0  0  0  0  0  0  0  0  0  0  0  0
   57.8950   29.2900   43.9490 C   0  0  0  0  0  0  0  0  0  0  0  0
   59.3080   29.6550   44.1360 N   0  0  0  0  0  0  0  0  0  0  0  0
   60.1080   28.5800   45.2300 S   0  0  0  0  0  0  0  0  0  0  0  0
   61.5460   28.4640   44.8270 O   0  0  0  0  0  0  0  0  0  0  0  0
   59.4830   27.2210   45.1460 O   0  0  0  0  0  0  0  0  0  0  0  0
   60.0320   29.1790   46.8810 C   0  0  0  0  0  0  0  0  0  0  0  0
   61.0190   30.0410   47.3770 C   0  0  0  0  0  0  0  0  0  0  0  0
   60.9450   30.5300   48.6850 C   0  0  0  0  0  0  0  0  0  0  0  0
   59.8870   30.1580   49.5070 C   0  0  0  0  0  0  0  0  0  0  0  0
   58.9030   29.2930   49.0240 C   0  0  0  0  0  0  0  0  0  0  0  0
   58.9730   28.8010   47.7160 C   0  0  0  0  0  0  0  0  0  0  0  0
   58.0110   27.9580   47.2690 F   0  0  0  0  0  0  0  0  0  0  0  0
   57.0730   33.2450   45.3940 C   0  0  0  0  0  0  0  0  0  0  0  0
   57.6780   34.4890   45.2430 C   0  0  0  0  0  0  0  0  0  0  0  0
   59.0390   34.6290   45.5050 C   0  0  0  0  0  0  0  0  0  0  0  0
   59.5860   35.7540   45.3610 O   0  0  0  0  0  0  0  0  0  0  0  0
   60.3110   33.7490   48.5650 C   0  0  0  0  0  0  0  0  0  0  0  0
   59.5970   33.8303   51.9083 H   0  0  0  0  0  0  0  0  0  0  0  0
   58.7379   34.8011   50.6648 H   0  0  0  0  0  0  0  0  0  0  0  0
   58.5927   33.0107   50.6648 H   0  0  0  0  0  0  0  0  0  0  0  0
   61.8682   33.6504   51.6027 H   0  0  0  0  0  0  0  0  0  0  0  0
   63.8615   33.4438   50.1271 H   0  0  0  0  0  0  0  0  0  0  0  0
   64.8283   33.2485   48.0850 H   0  0  0  0  0  0  0  0  0  0  0  0
   63.8390   32.4744   46.8010 H   0  0  0  0  0  0  0  0  0  0  0  0
   64.0766   34.2549   46.8010 H   0  0  0  0  0  0  0  0  0  0  0  0
   61.5903   34.5645   45.7953 H   0  0  0  0  0  0  0  0  0  0  0  0
   61.6991   32.7640   45.7796 H   0  0  0  0  0  0  0  0  0  0  0  0
   57.7932   28.2058   44.1043 H   0  0  0  0  0  0  0  0  0  0  0  0
   57.6166   29.5968   42.9300 H   0  0  0  0  0  0  0  0  0  0  0  0
   59.4170   30.6260   44.4930 H   0  0  0  0  0  0  0  0  0  0  0  0
   61.8596   30.3357   46.7317 H   0  0  0  0  0  0  0  0  0  0  0  0
   61.7235   31.2087   49.0635 H   0  0  0  0  0  0  0  0  0  0  0  0
   59.8253   30.5442   50.5351 H   0  0  0  0  0  0  0  0  0  0  0  0
   58.0678   28.9966   49.6757 H   0  0  0  0  0  0  0  0  0  0  0  0
   55.9939   33.1263   45.2165 H   0  0  0  0  0  0  0  0  0  0  0  0
   57.0850   35.3568   44.9186 H   0  0  0  0  0  0  0  0  0  0  0  0
   59.3044   33.8356   48.1299 H   0  0  0  0  0  0  0  0  0  0  0  0
  1  2  1  0
  2  3  2  0
  3  4  1  0
  4  5  2  0
  5  6  1  0
  5  7  1  0
  7  8  1  0
  8  9  1  0
  9 10  1  0
 10 11  1  0
 11 12  2  3
 12 13  1  0
 13 14  2  0
 13 15  1  0
 15 16  1  0
 16 17  1  0
 17 18  2  0
 17 19  2  0
 17 20  1  0
 20 21  2  0
 21 22  1  0
 22 23  2  0
 23 24  1  0
 24 25  2  0
 25 26  1  0
 11 27  1  0
 27 28  2  0
 28 29  1  0
 29 30  2  0
  7 31  2  0
 31  2  1  0
 29  9  1  0
 25 20  1  0
  1 32  1  0
  1 33  1  0
  1 34  1  0
  3 35  1  0
  4 36  1  0
  6 37  1  0
  6 38  1  0
  6 39  1  0
  8 40  1  0
  8 41  1  0
 15 42  1  0
 15 43  1  0
 16 44  1  0
 21 45  1  0
 22 46  1  0
 23 47  1  0
 24 48  1  0
 27 49  1  0
 28 50  1  0
 31 51  1  0
M  CHG  1  10  -1
M  END
>  <UniqueID>  (80) 
77

>  <SMILES>  (80) 
Cc1ccc(C)c(Cn2[n-]c(=NC(=O)CNS(=O)(=O)c3ccccc3F)ccc2=O)c1

>  <Energy>  (80) 
63.876606053077325

>  <Genealogy>  (80) 
Cc1ccc(C)c(Cn2[n-]c(=NC(=O)CNS(=O)(=O)c3ccccc3F)ccc2=O)c1 (protonated)
Cc1ccc(C)c(Cn2[n-]c(=NC(=O)CNS(=O)(=O)c3ccccc3F)ccc2=O)c1 (3D coordinates assigned)
Cc1ccc(C)c(Cn2[n-]c(=NC(=O)CNS(=O)(=O)c3ccccc3F)ccc2=O)c1 (optimized conformer: 63.876606053077325 kcal/mol)

>  <smiles>  (80) 
Cc1ccc(C)c(Cn2[nH]c(=NC(=O)CNS(=O)(=O)c3ccccc3F)ccc2=O)c1

>  <score_type>  (80) 
oracle

>  <origin>  (80) 
adg

>  <m_score__min__energy>  (80) 
-11.58

>  <m_primary>  (80) 
energy

$$$$
80:0
     RDKit          3D

 57 60  0  0  0  0  0  0  0  0999 V2000
   60.6910   27.8540   49.2680 C   0  0  0  0  0  0  0  0  0  0  0  0
   60.9260   26.6480   47.9280 S   0  0  0  0  0  0  0  0  0  0  0  0
   59.4340   27.1480   47.0620 C   0  0  0  0  0  0  0  0  0  0  0  0
   59.2200   28.4730   46.8740 N   0  0  0  0  0  0  0  0  0  0  0  0
   58.1210   28.9660   46.2450 C   0  0  0  0  0  0  0  0  0  0  0  0
   58.0600   30.4300   46.0240 C   0  0  0  0  0  0  0  0  0  0  0  0
   57.1270   30.9270   45.3370 O   0  0  0  0  0  0  0  0  0  0  0  0
   59.1220   31.2680   46.5090 N   0  0  0  0  0  0  0  0  0  0  0  0
   59.2810   32.6390   46.1180 C   0  0  0  0  0  0  0  0  0  0  0  0
   58.3700   33.2310   45.2270 C   0  0  0  0  0  0  0  0  0  0  0  0
   58.4750   34.5880   44.9080 C   0  0  0  0  0  0  0  0  0  0  0  0
   59.4780   35.3680   45.4850 C   0  0  0  0  0  0  0  0  0  0  0  0
   60.3840   34.7930   46.3790 C   0  0  0  0  0  0  0  0  0  0  0  0
   60.2970   33.4280   46.6990 C   0  0  0  0  0  0  0  0  0  0  0  0
   61.2620   32.8450   47.5890 N   0  0  0  0  0  0  0  0  0  0  0  0
   62.6110   32.4890   47.1830 C   0  0  0  0  0  0  0  0  0  0  0  0
   63.3570   32.1820   48.4750 C   0  0  0  0  0  0  0  0  0  0  0  0
   62.2820   31.9870   49.5420 C   0  0  0  0  0  0  0  0  0  0  0  0
   61.0410   32.6940   49.0150 C   0  0  0  0  0  0  0  0  0  0  0  0
   57.1250   28.0750   45.7800 C   0  0  0  0  0  0  0  0  0  0  0  0
   55.9000   28.5770   45.2250 N   0  0  0  0  0  0  0  0  0  0  0  0
   57.3390   26.6830   45.9370 C   0  0  0  0  0  0  0  0  0  0  0  0
   58.4950   26.2220   46.5750 C   0  0  0  0  0  0  0  0  0  0  0  0
   58.6260   24.7310   46.7410 C   0  0  0  0  0  0  0  0  0  0  0  0
   58.3060   24.0900   45.5230 O   0  0  0  0  0  0  0  0  0  0  0  0
   56.9610   24.3100   45.0880 C   0  0  0  0  0  0  0  0  0  0  0  0
   57.0040   24.3680   43.5500 C   0  0  0  0  0  0  0  0  0  0  0  0
   56.1090   23.1000   45.5060 C   0  0  0  0  0  0  0  0  0  0  0  0
   56.2990   25.6330   45.6190 C   0  0  0  0  0  0  0  0  0  0  0  0
   60.7898   27.3469   50.2391 H   0  0  0  0  0  0  0  0  0  0  0  0
   61.4521   28.6442   49.1878 H   0  0  0  0  0  0  0  0  0  0  0  0
   59.6889   28.3006   49.1878 H   0  0  0  0  0  0  0  0  0  0  0  0
   59.8990   30.8280   47.0530 H   0  0  0  0  0  0  0  0  0  0  0  0
   57.5702   32.6236   44.7782 H   0  0  0  0  0  0  0  0  0  0  0  0
   57.7654   35.0419   44.2006 H   0  0  0  0  0  0  0  0  0  0  0  0
   59.5551   36.4366   45.2355 H   0  0  0  0  0  0  0  0  0  0  0  0
   61.1702   35.4126   46.8351 H   0  0  0  0  0  0  0  0  0  0  0  0
   62.5949   31.6047   46.5289 H   0  0  0  0  0  0  0  0  0  0  0  0
   63.0935   33.2985   46.6156 H   0  0  0  0  0  0  0  0  0  0  0  0
   63.9556   31.2660   48.3629 H   0  0  0  0  0  0  0  0  0  0  0  0
   64.0506   32.9924   48.7435 H   0  0  0  0  0  0  0  0  0  0  0  0
   62.0789   30.9161   49.6898 H   0  0  0  0  0  0  0  0  0  0  0  0
   62.5978   32.3942   50.5138 H   0  0  0  0  0  0  0  0  0  0  0  0
   60.1429   32.0874   49.2035 H   0  0  0  0  0  0  0  0  0  0  0  0
   60.8804   33.6633   49.5097 H   0  0  0  0  0  0  0  0  0  0  0  0
   55.7430   29.6040   45.1150 H   0  0  0  0  0  0  0  0  0  0  0  0
   55.1420   27.9450   44.8910 H   0  0  0  0  0  0  0  0  0  0  0  0
   59.6595   24.4834   47.0249 H   0  0  0  0  0  0  0  0  0  0  0  0
   57.9369   24.3883   47.5270 H   0  0  0  0  0  0  0  0  0  0  0  0
   57.6312   25.2140   43.2324 H   0  0  0  0  0  0  0  0  0  0  0  0
   57.4272   23.4308   43.1594 H   0  0  0  0  0  0  0  0  0  0  0  0
   55.9843   24.5006   43.1594 H   0  0  0  0  0  0  0  0  0  0  0  0
   56.0682   23.0420   46.6037 H   0  0  0  0  0  0  0  0  0  0  0  0
   55.0903   23.2133   45.1066 H   0  0  0  0  0  0  0  0  0  0  0  0
   56.5591   22.1792   45.1066 H   0  0  0  0  0  0  0  0  0  0  0  0
   55.6179   26.0258   44.8497 H   0  0  0  0  0  0  0  0  0  0  0  0
   55.7511   25.3982   46.5435 H   0  0  0  0  0  0  0  0  0  0  0  0
  1  2  1  0
  2  3  1  0
  3  4  2  0
  4  5  1  0
  5  6  1  0
  6  7  2  0
  6  8  1  0
  8  9  1  0
  9 10  2  0
 10 11  1  0
 11 12  2  0
 12 13  1  0
 13 14  2  0
 14 15  1  0
 15 16  1  0
 16 17  1  0
 17 18  1  0
 18 19  1  0
  5 20  2  0
 20 21  1  0
 20 22  1  0
 22 23  2  0
 23 24  1  0
 24 25  1  0
 25 26  1  0
 26 27  1  0
 26 28  1  0
 26 29  1  0
 23  3  1  0
 14  9  1  0
 19 15  1  0
 29 22  1  0
  1 30  1  0
  1 31  1  0
  1 32  1  0
  8 33  1  0
 10 34  1  0
 11 35  1  0
 12 36  1  0
 13 37  1  0
 16 38  1  0
 16 39  1  0
 17 40  1  0
 17 41  1  0
 18 42  1  0
 18 43  1  0
 19 44  1  0
 19 45  1  0
 21 46  1  0
 21 47  1  0
 24 48  1  0
 24 49  1  0
 27 50  1  0
 27 51  1  0
 27 52  1  0
 28 53  1  0
 28 54  1  0
 28 55  1  0
 29 56  1  0
 29 57  1  0
M  END
>  <UniqueID>  (81) 
78

>  <SMILES>  (81) 
CSc1nc(C(=O)Nc2ccccc2N2CCCC2)c(N)c2c1COC(C)(C)C2

>  <Energy>  (81) 
82.21393627127912

>  <Genealogy>  (81) 
CSc1nc(C(=O)Nc2ccccc2N2CCCC2)c(N)c2c1COC(C)(C)C2 (3D coordinates assigned)
CSc1nc(C(=O)Nc2ccccc2N2CCCC2)c(N)c2c1COC(C)(C)C2 (nonaromatic ring conformer: 82.21393627127912 kcal/mol)

>  <smiles>  (81) 
CSc1nc(C(=O)Nc2ccccc2N2CCCC2)c(N)c2c1COC(C)(C)C2

>  <score_type>  (81) 
oracle

>  <origin>  (81) 
adg

>  <m_score__min__energy>  (81) 
-8.6199999999999992

>  <m_primary>  (81) 
energy

$$$$
81:0
     RDKit          3D

 45 47  0  0  0  0  0  0  0  0999 V2000
   61.0850   21.8900   44.8580 H   0  0  0  0  0  0  0  0  0  0  0  0
   60.2970   21.6560   45.4500 O   0  0  0  0  0  0  0  0  0  0  0  0
   59.1070   22.3780   45.3940 C   0  0  0  0  0  0  0  0  0  0  0  0
   57.8700   21.7230   45.4580 C   0  0  0  0  0  0  0  0  0  0  0  0
   57.8338   20.6286   45.5629 H   0  0  0  0  0  0  0  0  0  0  0  0
   56.6820   22.4560   45.3890 C   0  0  0  0  0  0  0  0  0  0  0  0
   55.7141   21.9359   45.4414 H   0  0  0  0  0  0  0  0  0  0  0  0
   56.7180   23.8540   45.2530 C   0  0  0  0  0  0  0  0  0  0  0  0
   55.4340   24.6440   45.2230 C   0  0  0  0  0  0  0  0  0  0  0  0
   54.5894   23.9599   45.3926 H   0  0  0  0  0  0  0  0  0  0  0  0
   55.3518   25.1317   44.2404 H   0  0  0  0  0  0  0  0  0  0  0  0
   55.4190   25.6830   46.2540 N   0  0  0  0  0  0  0  0  0  0  0  0
   56.2100   26.7140   46.2860 C   0  0  0  0  0  0  0  0  0  0  0  0
   55.8920   27.8170   45.5630 N   0  0  0  0  0  0  0  0  0  0  0  0
   56.7040   28.9040   45.5740 C   0  0  0  0  0  0  0  0  0  0  0  0
   56.3770   29.9530   44.8780 N   0  0  0  0  0  0  0  0  0  0  0  0
   57.3110   30.7590   44.0950 C   0  0  0  0  0  0  0  0  0  0  0  0
   58.1987   30.1547   43.8567 H   0  0  0  0  0  0  0  0  0  0  0  0
   56.8119   31.0822   43.1696 H   0  0  0  0  0  0  0  0  0  0  0  0
   57.7340   31.9740   44.8670 C   0  0  0  0  0  0  0  0  0  0  0  0
   58.1350   31.9330   46.1990 C   0  0  0  0  0  0  0  0  0  0  0  0
   58.2146   31.0308   46.8233 H   0  0  0  0  0  0  0  0  0  0  0  0
   58.4760   33.5040   46.6850 S   0  0  0  0  0  0  0  0  0  0  0  0
   58.1200   34.2500   45.2210 C   0  0  0  0  0  0  0  0  0  0  0  0
   58.1895   35.3275   45.0108 H   0  0  0  0  0  0  0  0  0  0  0  0
   57.7230   33.2680   44.3240 C   0  0  0  0  0  0  0  0  0  0  0  0
   57.4279   33.4835   43.2865 H   0  0  0  0  0  0  0  0  0  0  0  0
   57.8440   28.8830   46.3140 N   0  0  0  0  0  0  0  0  0  0  0  0
   58.1690   27.7880   47.0470 C   0  0  0  0  0  0  0  0  0  0  0  0
   59.2610   27.7950   47.7510 N   0  0  0  0  0  0  0  0  0  0  0  0
   60.5830   27.4180   47.2510 C   0  0  0  0  0  0  0  0  0  0  0  0
   60.8113   26.3899   47.5686 H   0  0  0  0  0  0  0  0  0  0  0  0
   61.3312   28.1137   47.6588 H   0  0  0  0  0  0  0  0  0  0  0  0
   60.6150   27.4930   45.7220 C   0  0  0  0  0  0  0  0  0  0  0  0
   59.6947   27.0431   45.3213 H   0  0  0  0  0  0  0  0  0  0  0  0
   61.5007   26.9472   45.3647 H   0  0  0  0  0  0  0  0  0  0  0  0
   60.7120   28.9380   45.2430 C   0  0  0  0  0  0  0  0  0  0  0  0
   60.7571   29.6103   46.1125 H   0  0  0  0  0  0  0  0  0  0  0  0
   61.6205   29.0627   44.6355 H   0  0  0  0  0  0  0  0  0  0  0  0
   59.8283   29.1830   44.6355 H   0  0  0  0  0  0  0  0  0  0  0  0
   57.3490   26.7030   47.0290 N   0  0  0  0  0  0  0  0  0  0  0  0
   57.9620   24.5080   45.2180 C   0  0  0  0  0  0  0  0  0  0  0  0
   58.0021   25.6048   45.1438 H   0  0  0  0  0  0  0  0  0  0  0  0
   59.1480   23.7710   45.2770 C   0  0  0  0  0  0  0  0  0  0  0  0
   60.1175   24.2886   45.2312 H   0  0  0  0  0  0  0  0  0  0  0  0
  1  2  1  0
  2  3  1  0
  3  4  2  0
  4  5  1  0
  4  6  1  0
  6  7  1  0
  6  8  2  0
  8  9  1  0
  9 10  1  0
  9 11  1  0
  9 12  1  0
 12 13  2  0
 13 14  1  0
 14 15  1  0
 15 16  2  3
 16 17  1  0
 17 18  1  0
 17 19  1  0
 17 20  1  0
 20 21  2  0
 21 22  1  0
 21 23  1  0
 23 24  1  0
 24 25  1  0
 24 26  2  0
 26 27  1  0
 15 28  1  0
 28 29  1  0
 29 30  2  0
 30 31  1  0
 31 32  1  0
 31 33  1  0
 31 34  1  0
 34 35  1  0
 34 36  1  0
 34 37  1  0
 37 38  1  0
 37 39  1  0
 37 40  1  0
 29 41  1  0
  8 42  1  0
 42 43  1  0
 42 44  2  0
 44 45  1  0
 44  3  1  0
 41 13  1  0
 26 20  1  0
M  CHG  3  14  -1  28  -1  41  -1
M  END
>  <UniqueID>  (82) 
79

>  <SMILES>  (82) 
CCC/N=c1/[n-]c(=NCc2ccsc2)[n-]/c(=N/Cc2ccc(O)cc2)[n-]1

>  <Energy>  (82) 
62.90181931747993

>  <Genealogy>  (82) 
CCCN=c1[n-]c(=NCc2ccc(O)cc2)[n-]c(=NCc2ccsc2)[n-]1 (protonated)
CCC/N=c1/[n-]c(=NCc2ccsc2)[n-]/c(=N/Cc2ccc(O)cc2)[n-]1 (cis-trans isomerization)
CCC/N=c1/[n-]c(=NCc2ccsc2)[n-]/c(=N/Cc2ccc(O)cc2)[n-]1 (3D coordinates assigned)
CCC/N=c1/[n-]c(=NCc2ccsc2)[n-]/c(=N/Cc2ccc(O)cc2)[n-]1 (optimized conformer: 62.90181931747993 kcal/mol)

>  <smiles>  (82) 
CCCN=c1[nH]c(=NCc2ccc(O)cc2)[nH]c(=NCc2ccsc2)[nH]1

>  <score_type>  (82) 
oracle

>  <origin>  (82) 
adg

>  <m_score__min__energy>  (82) 
-12.640000000000001

>  <m_primary>  (82) 
energy

$$$$
82:0
     RDKit          3D

 30 32  0  0  0  0  0  0  0  0999 V2000
   58.0990   26.2280   47.2110 O   0  0  0  0  0  0  0  0  0  0  0  0
   57.5990   26.0750   46.0670 C   0  0  0  0  0  0  0  0  0  0  0  0
   58.0090   26.9610   45.0140 N   0  0  0  0  0  0  0  0  0  0  0  0
   57.7920   28.3780   44.9660 C   0  0  0  0  0  0  0  0  0  0  0  0
   56.9990   28.9040   43.9370 C   0  0  0  0  0  0  0  0  0  0  0  0
   56.7580   30.2790   43.8590 C   0  0  0  0  0  0  0  0  0  0  0  0
   57.2980   31.1410   44.8190 C   0  0  0  0  0  0  0  0  0  0  0  0
   57.0670   32.4800   44.7420 N   0  0  0  0  0  0  0  0  0  0  0  0
   57.5710   33.3460   45.6620 C   0  0  0  0  0  0  0  0  0  0  0  0
   57.3350   34.5780   45.5560 O   0  0  0  0  0  0  0  0  0  0  0  0
   58.3480   32.8700   46.7230 C   0  0  0  0  0  0  0  0  0  0  0  0
   58.6000   31.5000   46.8290 C   0  0  0  0  0  0  0  0  0  0  0  0
   58.0790   30.6190   45.8730 C   0  0  0  0  0  0  0  0  0  0  0  0
   58.3130   29.2390   45.9500 C   0  0  0  0  0  0  0  0  0  0  0  0
   56.5580   25.0380   45.8580 C   0  0  0  0  0  0  0  0  0  0  0  0
   56.9320   23.6920   45.6850 C   0  0  0  0  0  0  0  0  0  0  0  0
   55.9610   22.7070   45.4870 C   0  0  0  0  0  0  0  0  0  0  0  0
   54.6090   23.0530   45.4490 C   0  0  0  0  0  0  0  0  0  0  0  0
   53.6460   22.0710   45.2510 O   0  0  0  0  0  0  0  0  0  0  0  0
   54.2250   24.3870   45.6080 C   0  0  0  0  0  0  0  0  0  0  0  0
   55.1910   25.3790   45.8110 C   0  0  0  0  0  0  0  0  0  0  0  0
   54.7790   26.6970   45.9830 O   0  0  0  0  0  0  0  0  0  0  0  0
   56.5629   28.2299   43.1851 H   0  0  0  0  0  0  0  0  0  0  0  0
   56.1429   30.6834   43.0416 H   0  0  0  0  0  0  0  0  0  0  0  0
   58.7572   33.5685   47.4678 H   0  0  0  0  0  0  0  0  0  0  0  0
   59.2064   31.1140   47.6616 H   0  0  0  0  0  0  0  0  0  0  0  0
   58.9050   28.8282   46.7811 H   0  0  0  0  0  0  0  0  0  0  0  0
   57.9960   23.4137   45.7058 H   0  0  0  0  0  0  0  0  0  0  0  0
   56.2625   21.6567   45.3608 H   0  0  0  0  0  0  0  0  0  0  0  0
   53.1596   24.6584   45.5735 H   0  0  0  0  0  0  0  0  0  0  0  0
  1  2  2  0
  2  3  1  0
  3  4  1  0
  4  5  2  0
  5  6  1  0
  6  7  2  0
  7  8  1  0
  8  9  1  0
  9 10  2  0
  9 11  1  0
 11 12  2  0
 12 13  1  0
 13 14  2  0
  2 15  1  0
 15 16  2  0
 16 17  1  0
 17 18  2  0
 18 19  1  0
 18 20  1  0
 20 21  2  0
 21 22  1  0
 14  4  1  0
 21 15  1  0
 13  7  1  0
  5 23  1  0
  6 24  1  0
 11 25  1  0
 12 26  1  0
 14 27  1  0
 16 28  1  0
 17 29  1  0
 20 30  1  0
M  CHG  4   3  -1   8  -1  19  -1  22  -1
M  END
>  <UniqueID>  (83) 
80

>  <SMILES>  (83) 
O=C([N-]c1ccc2[n-]c(=O)ccc2c1)c1ccc([O-])cc1[O-]

>  <Energy>  (83) 
44.43267212461136

>  <Genealogy>  (83) 
O=C([N-]c1ccc2[n-]c(=O)ccc2c1)c1ccc([O-])cc1[O-] (protonated)
O=C([N-]c1ccc2[n-]c(=O)ccc2c1)c1ccc([O-])cc1[O-] (3D coordinates assigned)
O=C([N-]c1ccc2[n-]c(=O)ccc2c1)c1ccc([O-])cc1[O-] (optimized conformer: 44.43267212461136 kcal/mol)

>  <smiles>  (83) 
O=C(Nc1ccc2[nH]c(=O)ccc2c1)c1ccc(O)cc1O

>  <score_type>  (83) 
oracle

>  <origin>  (83) 
adg

>  <m_score__min__energy>  (83) 
-15.57

>  <m_primary>  (83) 
energy

$$$$
83:0
     RDKit          3D

 44 48  0  0  0  0  0  0  0  0999 V2000
   51.9813   31.4979   53.8657 H   0  0  0  0  0  0  0  0  0  0  0  0
   52.4270   30.9460   53.0250 C   0  0  0  0  0  0  0  0  0  0  0  0
   51.8160   31.1060   51.6960 C   0  0  0  0  0  0  0  0  0  0  0  0
   52.0530   30.2760   50.6660 N   0  0  0  0  0  0  0  0  0  0  0  0
   51.3790   30.8470   49.6430 C   0  0  0  0  0  0  0  0  0  0  0  0
   51.3480   30.3460   48.4900 O   0  0  0  0  0  0  0  0  0  0  0  0
   50.7510   32.0010   49.9520 N   0  0  0  0  0  0  0  0  0  0  0  0
   51.0480   32.1580   51.2520 C   0  0  0  0  0  0  0  0  0  0  0  0
   50.6600   33.2620   52.0030 O   0  0  0  0  0  0  0  0  0  0  0  0
   53.4920   30.1710   53.2780 C   0  0  0  0  0  0  0  0  0  0  0  0
   53.5480   29.1390   54.2090 C   0  0  0  0  0  0  0  0  0  0  0  0
   52.7084   28.8118   54.8399 H   0  0  0  0  0  0  0  0  0  0  0  0
   54.7880   28.5970   54.2240 N   0  0  0  0  0  0  0  0  0  0  0  0
   55.5160   29.2600   53.3380 N   0  0  0  0  0  0  0  0  0  0  0  0
   56.8340   29.1030   53.0230 C   0  0  0  0  0  0  0  0  0  0  0  0
   57.5880   28.1820   53.5580 N   0  0  0  0  0  0  0  0  0  0  0  0
   58.3460   28.2900   54.8010 C   0  0  0  0  0  0  0  0  0  0  0  0
   59.3554   28.2834   54.3639 H   0  0  0  0  0  0  0  0  0  0  0  0
   57.6190   29.1100   55.8510 C   0  0  0  0  0  0  0  0  0  0  0  0
   58.1887   29.7504   56.5405 H   0  0  0  0  0  0  0  0  0  0  0  0
   56.8064   29.8512   55.8341 H   0  0  0  0  0  0  0  0  0  0  0  0
   57.6920   27.5960   55.9830 C   0  0  0  0  0  0  0  0  0  0  0  0
   58.3146   27.1414   56.7677 H   0  0  0  0  0  0  0  0  0  0  0  0
   56.9545   26.7884   56.1010 H   0  0  0  0  0  0  0  0  0  0  0  0
   57.3770   29.9580   52.1080 N   0  0  0  0  0  0  0  0  0  0  0  0
   58.3800   29.8430   51.8370 H   0  0  0  0  0  0  0  0  0  0  0  0
   56.6210   30.9560   51.5450 C   0  0  0  0  0  0  0  0  0  0  0  0
   57.1680   31.8510   50.6170 O   0  0  0  0  0  0  0  0  0  0  0  0
   58.4710   32.3580   50.6870 C   0  0  0  0  0  0  0  0  0  0  0  0
   59.2900   32.2510   49.5560 C   0  0  0  0  0  0  0  0  0  0  0  0
   58.8948   31.7941   48.6368 H   0  0  0  0  0  0  0  0  0  0  0  0
   60.6040   32.7200   49.5870 C   0  0  0  0  0  0  0  0  0  0  0  0
   61.2424   32.6256   48.6962 H   0  0  0  0  0  0  0  0  0  0  0  0
   61.1090   33.3090   50.7480 C   0  0  0  0  0  0  0  0  0  0  0  0
   62.1490   33.6663   50.7751 H   0  0  0  0  0  0  0  0  0  0  0  0
   60.2950   33.4450   51.8750 C   0  0  0  0  0  0  0  0  0  0  0  0
   60.6990   33.9079   52.7874 H   0  0  0  0  0  0  0  0  0  0  0  0
   58.9640   32.9950   51.8520 C   0  0  0  0  0  0  0  0  0  0  0  0
   58.1020   33.1910   53.0680 C   0  0  0  0  0  0  0  0  0  0  0  0
   58.7097   33.0528   53.9744 H   0  0  0  0  0  0  0  0  0  0  0  0
   57.6819   34.2076   53.0597 H   0  0  0  0  0  0  0  0  0  0  0  0
   57.2836   32.4560   53.0597 H   0  0  0  0  0  0  0  0  0  0  0  0
   55.3050   31.0800   51.8730 N   0  0  0  0  0  0  0  0  0  0  0  0
   54.7730   30.2090   52.7600 C   0  0  0  0  0  0  0  0  0  0  0  0
  1  2  1  0
  2  3  1  0
  3  4  1  0
  4  5  1  0
  5  6  2  0
  5  7  1  0
  7  8  1  0
  8  9  1  0
  2 10  2  0
 10 11  1  0
 11 12  1  0
 11 13  2  0
 13 14  1  0
 14 15  1  0
 15 16  2  0
 16 17  1  0
 17 18  1  0
 17 19  1  0
 19 20  1  0
 19 21  1  0
 19 22  1  0
 22 23  1  0
 22 24  1  0
 15 25  1  0
 25 26  1  0
 25 27  2  0
 27 28  1  0
 28 29  1  0
 29 30  2  0
 30 31  1  0
 30 32  1  0
 32 33  1  0
 32 34  2  0
 34 35  1  0
 34 36  1  0
 36 37  1  0
 36 38  2  0
 38 39  1  0
 39 40  1  0
 39 41  1  0
 39 42  1  0
 27 43  1  0
 43 44  2  0
  8  3  2  0
 44 10  1  0
 44 14  1  0
 22 17  1  0
 38 29  1  0
M  CHG  4   4  -1   7  -1   9  -1  25   1
M  END
>  <UniqueID>  (84) 
81

>  <SMILES>  (84) 
Cc1ccccc1Oc1nc2/c(=C\c3[n-]c(=O)[n-]c3[O-])cnn2/c(=N\C2CC2)[nH+]1

>  <Energy>  (84) 
398.63550089224134

>  <Genealogy>  (84) 
Cc1ccccc1Oc1nc2c(=Cc3[n-]c(=O)[n-]c3[O-])cnn2c(=NC2CC2)[nH+]1 (protonated)
Cc1ccccc1Oc1nc2/c(=C\c3[n-]c(=O)[n-]c3[O-])cnn2/c(=N\C2CC2)[nH+]1 (cis-trans isomerization)
Cc1ccccc1Oc1nc2/c(=C\c3[n-]c(=O)[n-]c3[O-])cnn2/c(=N\C2CC2)[nH+]1 (3D coordinates assigned)
Cc1ccccc1Oc1nc2/c(=C\c3[n-]c(=O)[n-]c3[O-])cnn2/c(=N\C2CC2)[nH+]1 (nonaromatic ring conformer: 398.63550089224134 kcal/mol)

>  <smiles>  (84) 
Cc1ccccc1Oc1nc(=NC2CC2)n2ncc(=Cc3[nH]c(=O)[nH]c3O)c2n1

>  <score_type>  (84) 
oracle

>  <origin>  (84) 
adg

>  <m_score__min__energy>  (84) 
-15.24

>  <m_primary>  (84) 
energy

$$$$
84:0
     RDKit          3D

 45 48  0  0  0  0  0  0  0  0999 V2000
   56.4413   24.6912   47.2745 H   0  0  0  0  0  0  0  0  0  0  0  0
   56.2060   23.9050   46.5420 C   0  0  0  0  0  0  0  0  0  0  0  0
   57.2050   23.0440   46.2320 C   0  0  0  0  0  0  0  0  0  0  0  0
   57.1710   21.6650   46.7880 C   0  0  0  0  0  0  0  0  0  0  0  0
   57.0000   20.6670   46.0370 O   0  0  0  0  0  0  0  0  0  0  0  0
   57.3280   21.4500   48.1530 O   0  0  0  0  0  0  0  0  0  0  0  0
   58.3350   23.4070   45.2890 C   0  0  0  0  0  0  0  0  0  0  0  0
   59.2713   23.4770   45.8621 H   0  0  0  0  0  0  0  0  0  0  0  0
   58.4078   22.6260   44.5179 H   0  0  0  0  0  0  0  0  0  0  0  0
   58.0850   24.6870   44.6270 N   0  0  0  0  0  0  0  0  0  0  0  0
   57.5740   24.8070   43.4130 N   0  0  0  0  0  0  0  0  0  0  0  0
   57.3970   26.0860   43.1270 N   0  0  0  0  0  0  0  0  0  0  0  0
   56.9950   26.4300   42.2270 H   0  0  0  0  0  0  0  0  0  0  0  0
   57.7880   26.8140   44.1940 C   0  0  0  0  0  0  0  0  0  0  0  0
   57.7470   28.2950   44.2930 C   0  0  0  0  0  0  0  0  0  0  0  0
   58.7340   28.9930   45.0130 C   0  0  0  0  0  0  0  0  0  0  0  0
   59.5407   28.4364   45.5124 H   0  0  0  0  0  0  0  0  0  0  0  0
   58.6980   30.3880   45.0990 C   0  0  0  0  0  0  0  0  0  0  0  0
   59.4804   30.9218   45.6583 H   0  0  0  0  0  0  0  0  0  0  0  0
   57.6680   31.1120   44.4750 C   0  0  0  0  0  0  0  0  0  0  0  0
   57.6100   32.5130   44.5230 O   0  0  0  0  0  0  0  0  0  0  0  0
   58.2950   33.3260   45.4380 C   0  0  0  0  0  0  0  0  0  0  0  0
   58.1900   33.0370   46.8040 C   0  0  0  0  0  0  0  0  0  0  0  0
   57.5701   32.1921   47.1386 H   0  0  0  0  0  0  0  0  0  0  0  0
   58.8700   33.8180   47.7460 C   0  0  0  0  0  0  0  0  0  0  0  0
   58.7743   33.5929   48.8185 H   0  0  0  0  0  0  0  0  0  0  0  0
   59.6700   34.8830   47.3250 C   0  0  0  0  0  0  0  0  0  0  0  0
   60.1987   35.5000   48.0665 H   0  0  0  0  0  0  0  0  0  0  0  0
   59.7990   35.1650   45.9620 C   0  0  0  0  0  0  0  0  0  0  0  0
   60.4349   35.9993   45.6310 H   0  0  0  0  0  0  0  0  0  0  0  0
   59.1200   34.3870   45.0190 C   0  0  0  0  0  0  0  0  0  0  0  0
   59.2309   34.6047   43.9465 H   0  0  0  0  0  0  0  0  0  0  0  0
   56.6970   30.4240   43.7440 C   0  0  0  0  0  0  0  0  0  0  0  0
   55.8999   30.9846   43.2337 H   0  0  0  0  0  0  0  0  0  0  0  0
   56.7290   29.0290   43.6550 C   0  0  0  0  0  0  0  0  0  0  0  0
   55.9527   28.5008   43.0820 H   0  0  0  0  0  0  0  0  0  0  0  0
   58.2150   25.9180   45.1600 C   0  0  0  0  0  0  0  0  0  0  0  0
   58.5874   26.1632   46.1656 H   0  0  0  0  0  0  0  0  0  0  0  0
   54.8280   23.8960   45.9950 C   0  0  0  0  0  0  0  0  0  0  0  0
   54.0900   22.8070   45.7160 N   0  0  0  0  0  0  0  0  0  0  0  0
   52.9360   23.3190   45.2370 C   0  0  0  0  0  0  0  0  0  0  0  0
   51.9770   22.5940   44.8630 O   0  0  0  0  0  0  0  0  0  0  0  0
   52.8920   24.6660   45.1870 N   0  0  0  0  0  0  0  0  0  0  0  0
   54.0960   25.0150   45.6680 C   0  0  0  0  0  0  0  0  0  0  0  0
   54.5170   26.3310   45.8100 O   0  0  0  0  0  0  0  0  0  0  0  0
  1  2  1  0
  2  3  2  0
  3  4  1  0
  4  5  2  0
  4  6  1  0
  3  7  1  0
  7  8  1  0
  7  9  1  0
  7 10  1  0
 10 11  1  0
 11 12  2  0
 12 13  1  0
 12 14  1  0
 14 15  1  0
 15 16  2  0
 16 17  1  0
 16 18  1  0
 18 19  1  0
 18 20  2  0
 20 21  1  0
 21 22  1  0
 22 23  2  0
 23 24  1  0
 23 25  1  0
 25 26  1  0
 25 27  2  0
 27 28  1  0
 27 29  1  0
 29 30  1  0
 29 31  2  0
 31 32  1  0
 20 33  1  0
 33 34  1  0
 33 35  2  0
 35 36  1  0
 14 37  2  0
 37 38  1  0
  2 39  1  0
 39 40  1  0
 40 41  1  0
 41 42  2  0
 41 43  1  0
 43 44  1  0
 44 45  1  0
 37 10  1  0
 44 39  2  0
 35 15  1  0
 31 22  1  0
M  CHG  5   6  -1  12   1  40  -1  43  -1  45  -1
M  END
>  <UniqueID>  (85) 
82

>  <SMILES>  (85) 
O=C([O-])/C(=C/c1[n-]c(=O)[n-]c1[O-])Cn1cc(-c2ccc(Oc3ccccc3)cc2)[nH+]n1

>  <Energy>  (85) 
126.48222690201415

>  <Genealogy>  (85) 
O=C([O-])C(=Cc1[n-]c(=O)[n-]c1[O-])Cn1cc(-c2ccc(Oc3ccccc3)cc2)[nH+]n1 (protonated)
O=C([O-])/C(=C/c1[n-]c(=O)[n-]c1[O-])Cn1cc(-c2ccc(Oc3ccccc3)cc2)[nH+]n1 (cis-trans isomerization)
O=C([O-])/C(=C/c1[n-]c(=O)[n-]c1[O-])Cn1cc(-c2ccc(Oc3ccccc3)cc2)[nH+]n1 (3D coordinates assigned)
O=C([O-])/C(=C/c1[n-]c(=O)[n-]c1[O-])Cn1cc(-c2ccc(Oc3ccccc3)cc2)[nH+]n1 (optimized conformer: 126.48222690201415 kcal/mol)

>  <smiles>  (85) 
O=C(O)C(=Cc1[nH]c(=O)[nH]c1O)Cn1cc(-c2ccc(Oc3ccccc3)cc2)nn1

>  <score_type>  (85) 
oracle

>  <origin>  (85) 
adg

>  <m_score__min__energy>  (85) 
-17.010000000000002

>  <m_primary>  (85) 
energy

$$$$
85:0
     RDKit          3D

 48 50  0  0  0  0  0  0  0  0999 V2000
   55.7220   29.1380   45.8550 H   0  0  0  0  0  0  0  0  0  0  0  0
   55.6900   29.5950   44.9160 N   0  0  0  0  0  0  0  0  0  0  0  0
   56.7600   29.7730   44.2040 C   0  0  0  0  0  0  0  0  0  0  0  0
   57.4820   31.0680   44.2750 C   0  0  0  0  0  0  0  0  0  0  0  0
   57.6480   31.8660   43.1290 C   0  0  0  0  0  0  0  0  0  0  0  0
   57.2527   31.5213   42.1621 H   0  0  0  0  0  0  0  0  0  0  0  0
   58.3110   33.0930   43.2090 C   0  0  0  0  0  0  0  0  0  0  0  0
   58.4308   33.7113   42.3071 H   0  0  0  0  0  0  0  0  0  0  0  0
   58.8220   33.5370   44.4300 C   0  0  0  0  0  0  0  0  0  0  0  0
   59.3377   34.5069   44.4867 H   0  0  0  0  0  0  0  0  0  0  0  0
   58.6820   32.7560   45.5810 C   0  0  0  0  0  0  0  0  0  0  0  0
   59.2010   33.2450   46.7890 O   0  0  0  0  0  0  0  0  0  0  0  0
   59.4230   32.4770   47.9390 C   0  0  0  0  0  0  0  0  0  0  0  0
   59.6210   31.1330   47.8560 N   0  0  0  0  0  0  0  0  0  0  0  0
   59.8350   30.3610   48.9530 C   0  0  0  0  0  0  0  0  0  0  0  0
   60.0010   28.9800   48.7840 O   0  0  0  0  0  0  0  0  0  0  0  0
   59.5330   28.2480   47.6820 C   0  0  0  0  0  0  0  0  0  0  0  0
   60.4610   27.7200   46.7800 C   0  0  0  0  0  0  0  0  0  0  0  0
   61.5366   27.8820   46.9440 H   0  0  0  0  0  0  0  0  0  0  0  0
   60.0300   26.9880   45.6720 C   0  0  0  0  0  0  0  0  0  0  0  0
   60.7663   26.5704   44.9695 H   0  0  0  0  0  0  0  0  0  0  0  0
   58.6650   26.7850   45.4540 C   0  0  0  0  0  0  0  0  0  0  0  0
   58.3316   26.2024   44.5826 H   0  0  0  0  0  0  0  0  0  0  0  0
   57.7190   27.3180   46.3370 C   0  0  0  0  0  0  0  0  0  0  0  0
   56.3270   27.0830   46.0780 N   0  0  0  0  0  0  0  0  0  0  0  0
   55.5810   25.5290   45.8850 S   0  0  0  0  0  0  0  0  0  0  0  0
   54.1140   25.7280   45.6330 O   0  0  0  0  0  0  0  0  0  0  0  0
   55.7500   24.7180   47.1380 O   0  0  0  0  0  0  0  0  0  0  0  0
   56.2860   24.6740   44.4900 C   0  0  0  0  0  0  0  0  0  0  0  0
   56.9477   23.8715   44.8480 H   0  0  0  0  0  0  0  0  0  0  0  0
   55.4798   24.2399   43.8804 H   0  0  0  0  0  0  0  0  0  0  0  0
   56.8657   25.3827   43.8804 H   0  0  0  0  0  0  0  0  0  0  0  0
   58.1580   28.0660   47.4440 C   0  0  0  0  0  0  0  0  0  0  0  0
   57.4215   28.5119   48.1286 H   0  0  0  0  0  0  0  0  0  0  0  0
   59.9070   30.9630   50.2210 C   0  0  0  0  0  0  0  0  0  0  0  0
   60.1810   30.2140   51.3200 F   0  0  0  0  0  0  0  0  0  0  0  0
   59.7320   32.3510   50.3390 C   0  0  0  0  0  0  0  0  0  0  0  0
   59.7510   33.0050   51.6930 C   0  0  0  0  0  0  0  0  0  0  0  0
   59.7285   32.2311   52.4744 H   0  0  0  0  0  0  0  0  0  0  0  0
   60.6670   33.6051   51.7975 H   0  0  0  0  0  0  0  0  0  0  0  0
   58.8714   33.6572   51.7975 H   0  0  0  0  0  0  0  0  0  0  0  0
   59.4710   33.1090   49.1850 C   0  0  0  0  0  0  0  0  0  0  0  0
   59.2650   34.4480   49.2670 F   0  0  0  0  0  0  0  0  0  0  0  0
   57.9900   31.5320   45.5050 C   0  0  0  0  0  0  0  0  0  0  0  0
   57.8444   30.9317   46.4152 H   0  0  0  0  0  0  0  0  0  0  0  0
   57.2390   28.7070   43.3750 N   0  0  0  0  0  0  0  0  0  0  0  0
   58.1750   28.7520   42.9160 H   0  0  0  0  0  0  0  0  0  0  0  0
   56.6920   27.8230   43.2780 H   0  0  0  0  0  0  0  0  0  0  0  0
  1  2  1  0
  2  3  2  0
  3  4  1  0
  4  5  2  0
  5  6  1  0
  5  7  1  0
  7  8  1  0
  7  9  2  0
  9 10  1  0
  9 11  1  0
 11 12  1  0
 12 13  1  0
 13 14  2  0
 14 15  1  0
 15 16  1  0
 16 17  1  0
 17 18  2  0
 18 19  1  0
 18 20  1  0
 20 21  1  0
 20 22  2  0
 22 23  1  0
 22 24  1  0
 24 25  1  0
 25 26  1  0
 26 27  2  0
 26 28  2  0
 26 29  1  0
 29 30  1  0
 29 31  1  0
 29 32  1  0
 24 33  2  0
 33 34  1  0
 15 35  2  0
 35 36  1  0
 35 37  1  0
 37 38  1  0
 38 39  1  0
 38 40  1  0
 38 41  1  0
 37 42  2  0
 42 43  1  0
 11 44  2  0
 44 45  1  0
  3 46  1  0
 46 47  1  0
 46 48  1  0
 44  4  1  0
 42 13  1  0
 33 17  1  0
M  CHG  1  25  -1
M  END
>  <UniqueID>  (86) 
83

>  <SMILES>  (86) 
[H]/N=C(\N)c1cccc(Oc2nc(Oc3cccc([N-]S(C)(=O)=O)c3)c(F)c(C)c2F)c1

>  <Energy>  (86) 
62.61022640989619

>  <Genealogy>  (86) 
Cc1c(F)c(Oc2cccc([N-]S(C)(=O)=O)c2)nc(Oc2cccc(C(=N)N)c2)c1F (protonated)
[H]/N=C(\N)c1cccc(Oc2nc(Oc3cccc([N-]S(C)(=O)=O)c3)c(F)c(C)c2F)c1 (cis-trans isomerization)
[H]/N=C(\N)c1cccc(Oc2nc(Oc3cccc([N-]S(C)(=O)=O)c3)c(F)c(C)c2F)c1 (3D coordinates assigned)
[H]/N=C(\N)c1cccc(Oc2nc(Oc3cccc([N-]S(C)(=O)=O)c3)c(F)c(C)c2F)c1 (optimized conformer: 62.61022640989619 kcal/mol)

>  <smiles>  (86) 
Cc1c(F)c(Oc2cccc(NS(C)(=O)=O)c2)nc(Oc2cccc(C(=N)N)c2)c1F

>  <score_type>  (86) 
oracle

>  <origin>  (86) 
adg

>  <m_score__min__energy>  (86) 
-10.970000000000001

>  <m_primary>  (86) 
energy

$$$$
86:0
     RDKit          3D

 37 39  0  0  0  0  0  0  0  0999 V2000
   57.1080   22.7390   49.0360 O   0  0  0  0  0  0  0  0  0  0  0  0
   56.7850   22.1010   47.9960 C   0  0  0  0  0  0  0  0  0  0  0  0
   55.4920   21.3540   47.9600 C   0  0  0  0  0  0  0  0  0  0  0  0
   54.4970   22.1020   47.1270 C   0  0  0  0  0  0  0  0  0  0  0  0
   53.1820   21.3960   46.3440 S   0  0  0  0  0  0  0  0  0  0  0  0
   52.7290   22.8410   45.6170 C   0  0  0  0  0  0  0  0  0  0  0  0
   51.7380   22.9700   44.8530 O   0  0  0  0  0  0  0  0  0  0  0  0
   53.5520   23.8610   45.9320 N   0  0  0  0  0  0  0  0  0  0  0  0
   54.5420   23.4540   46.7700 C   0  0  0  0  0  0  0  0  0  0  0  0
   55.5170   24.3430   47.2180 O   0  0  0  0  0  0  0  0  0  0  0  0
   57.6430   22.0930   46.8480 N   0  0  0  0  0  0  0  0  0  0  0  0
   57.3490   22.7090   45.5860 C   0  0  0  0  0  0  0  0  0  0  0  0
   56.6800   21.9620   44.6100 C   0  0  0  0  0  0  0  0  0  0  0  0
   56.3690   22.5350   43.3750 C   0  0  0  0  0  0  0  0  0  0  0  0
   56.7050   23.8630   43.1120 C   0  0  0  0  0  0  0  0  0  0  0  0
   57.3430   24.6440   44.0920 C   0  0  0  0  0  0  0  0  0  0  0  0
   57.6770   26.0640   43.8260 C   0  0  0  0  0  0  0  0  0  0  0  0
   58.1470   26.4000   42.7050 O   0  0  0  0  0  0  0  0  0  0  0  0
   57.3440   27.0720   44.7940 N   0  0  0  0  0  0  0  0  0  0  0  0
   57.5370   28.3620   44.7510 C   0  0  0  0  0  0  0  0  0  0  0  0
   58.8170   28.8000   44.5900 N   0  0  0  0  0  0  0  0  0  0  0  0
   59.1450   30.1180   44.5570 C   0  0  0  0  0  0  0  0  0  0  0  0
   58.1510   31.0850   44.6880 C   0  0  0  0  0  0  0  0  0  0  0  0
   56.8230   30.6830   44.8200 C   0  0  0  0  0  0  0  0  0  0  0  0
   56.4950   29.3240   44.8310 C   0  0  0  0  0  0  0  0  0  0  0  0
   55.1530   28.9700   44.8620 O   0  0  0  0  0  0  0  0  0  0  0  0
   57.6570   24.0570   45.3320 C   0  0  0  0  0  0  0  0  0  0  0  0
   55.6578   20.3578   47.5240 H   0  0  0  0  0  0  0  0  0  0  0  0
   55.1037   21.2505   48.9840 H   0  0  0  0  0  0  0  0  0  0  0  0
   56.4690   24.0490   47.3950 H   0  0  0  0  0  0  0  0  0  0  0  0
   56.3979   20.9190   44.8164 H   0  0  0  0  0  0  0  0  0  0  0  0
   55.8571   21.9368   42.6068 H   0  0  0  0  0  0  0  0  0  0  0  0
   56.4693   24.3023   42.1314 H   0  0  0  0  0  0  0  0  0  0  0  0
   60.1944   30.4212   44.4270 H   0  0  0  0  0  0  0  0  0  0  0  0
   58.4112   32.1538   44.6873 H   0  0  0  0  0  0  0  0  0  0  0  0
   56.0293   31.4385   44.9160 H   0  0  0  0  0  0  0  0  0  0  0  0
   58.1485   24.6591   46.1104 H   0  0  0  0  0  0  0  0  0  0  0  0
  1  2  2  0
  2  3  1  0
  3  4  1  0
  4  5  1  0
  5  6  1  0
  6  7  2  0
  6  8  1  0
  8  9  1  0
  9 10  1  0
  2 11  1  0
 11 12  1  0
 12 13  2  0
 13 14  1  0
 14 15  2  0
 15 16  1  0
 16 17  1  0
 17 18  2  0
 17 19  1  0
 19 20  2  3
 20 21  1  0
 21 22  1  0
 22 23  2  0
 23 24  1  0
 24 25  2  0
 25 26  1  0
 16 27  2  0
  9  4  2  0
 27 12  1  0
 25 20  1  0
  3 28  1  0
  3 29  1  0
 10 30  1  0
 13 31  1  0
 14 32  1  0
 15 33  1  0
 22 34  1  0
 23 35  1  0
 24 36  1  0
 27 37  1  0
M  CHG  4   8  -1  11  -1  21  -1  26  -1
M  END
>  <UniqueID>  (87) 
84

>  <SMILES>  (87) 
O=C(Cc1sc(=O)[n-]c1O)[N-]c1cccc(C(=O)N=c2[n-]cccc2[O-])c1

>  <Energy>  (87) 
85.03307264864596

>  <Genealogy>  (87) 
O=C(Cc1sc(=O)[n-]c1O)[N-]c1cccc(C(=O)N=c2[n-]cccc2[O-])c1 (protonated)
O=C(Cc1sc(=O)[n-]c1O)[N-]c1cccc(C(=O)N=c2[n-]cccc2[O-])c1 (3D coordinates assigned)
O=C(Cc1sc(=O)[n-]c1O)[N-]c1cccc(C(=O)N=c2[n-]cccc2[O-])c1 (optimized conformer: 85.03307264864596 kcal/mol)

>  <smiles>  (87) 
O=C(Cc1sc(=O)[nH]c1O)Nc1cccc(C(=O)N=c2[nH]cccc2O)c1

>  <score_type>  (87) 
oracle

>  <origin>  (87) 
adg

>  <m_score__min__energy>  (87) 
-15.15

>  <m_primary>  (87) 
energy

$$$$
87:0
     RDKit          3D

 34 35  0  0  0  0  0  0  0  0999 V2000
   59.2180   35.1300   47.4110 N   0  0  0  0  0  0  0  0  0  0  0  0
   58.7870   34.3620   46.4680 C   0  0  0  0  0  0  0  0  0  0  0  0
   58.2750   33.1130   46.5480 N   0  0  0  0  0  0  0  0  0  0  0  0
   57.9520   32.6870   45.2930 C   0  0  0  0  0  0  0  0  0  0  0  0
   57.2410   31.1190   44.8150 S   0  0  0  0  0  0  0  0  0  0  0  0
   57.8040   29.8450   45.9560 C   0  0  0  0  0  0  0  0  0  0  0  0
   57.4200   28.4880   45.5270 C   0  0  0  0  0  0  0  0  0  0  0  0
   56.7230   28.3830   44.4800 O   0  0  0  0  0  0  0  0  0  0  0  0
   57.8470   27.3870   46.3030 N   0  0  0  0  0  0  0  0  0  0  0  0
   57.4610   26.0840   45.8640 C   0  0  0  0  0  0  0  0  0  0  0  0
   58.4560   25.1660   45.6050 C   0  0  0  0  0  0  0  0  0  0  0  0
   58.1270   23.8980   45.1810 C   0  0  0  0  0  0  0  0  0  0  0  0
   56.8030   23.5240   45.0060 C   0  0  0  0  0  0  0  0  0  0  0  0
   56.3900   21.9000   44.4630 S   0  0  0  0  0  0  0  0  0  0  0  0
   57.6500   20.8230   44.9220 N   0  0  0  0  0  0  0  0  0  0  0  0
   55.1050   21.5300   45.1350 O   0  0  0  0  0  0  0  0  0  0  0  0
   56.2040   21.8370   42.9800 O   0  0  0  0  0  0  0  0  0  0  0  0
   55.8240   24.4510   45.2690 C   0  0  0  0  0  0  0  0  0  0  0  0
   56.1410   25.7340   45.6980 C   0  0  0  0  0  0  0  0  0  0  0  0
   55.1540   26.6800   45.9660 O   0  0  0  0  0  0  0  0  0  0  0  0
   58.2830   33.7050   44.4830 N   0  0  0  0  0  0  0  0  0  0  0  0
   58.7820   34.7130   45.1700 N   0  0  0  0  0  0  0  0  0  0  0  0
   58.8950   36.1140   47.5290 H   0  0  0  0  0  0  0  0  0  0  0  0
   58.9006   29.8949   46.0261 H   0  0  0  0  0  0  0  0  0  0  0  0
   57.3255   30.0343   46.9282 H   0  0  0  0  0  0  0  0  0  0  0  0
   58.4280   27.5120   47.1740 H   0  0  0  0  0  0  0  0  0  0  0  0
   59.5116   25.4460   45.7369 H   0  0  0  0  0  0  0  0  0  0  0  0
   58.9266   23.1704   44.9779 H   0  0  0  0  0  0  0  0  0  0  0  0
   57.4090   19.8780   44.5460 H   0  0  0  0  0  0  0  0  0  0  0  0
   58.5720   21.1880   44.5760 H   0  0  0  0  0  0  0  0  0  0  0  0
   54.7681   24.1721   45.1374 H   0  0  0  0  0  0  0  0  0  0  0  0
   55.1460   27.5140   45.3880 H   0  0  0  0  0  0  0  0  0  0  0  0
   58.1500   33.6750   43.4510 H   0  0  0  0  0  0  0  0  0  0  0  0
   59.1070   35.6030   44.7590 H   0  0  0  0  0  0  0  0  0  0  0  0
  1  2  2  3
  2  3  1  0
  3  4  2  0
  4  5  1  0
  5  6  1  0
  6  7  1  0
  7  8  2  0
  7  9  1  0
  9 10  1  0
 10 11  2  0
 11 12  1  0
 12 13  2  0
 13 14  1  0
 14 15  1  0
 14 16  2  0
 14 17  2  0
 13 18  1  0
 18 19  2  0
 19 20  1  0
  4 21  1  0
 21 22  1  0
 22  2  1  0
 19 10  1  0
  1 23  1  0
  6 24  1  0
  6 25  1  0
  9 26  1  0
 11 27  1  0
 12 28  1  0
 15 29  1  0
 15 30  1  0
 18 31  1  0
 20 32  1  0
 21 33  1  0
 22 34  1  0
M  END
>  <smiles>  (88) 
N=c1nc(SCC(=O)Nc2ccc(S(N)(=O)=O)cc2O)[nH][nH]1

>  <score_type>  (88) 
oracle

>  <origin>  (88) 
adg

>  <m_score__min__energy>  (88) 
-9.1199999999999992

>  <m_primary>  (88) 
energy

$$$$
88:0
     RDKit          3D

 25 26  0  0  0  0  0  0  0  0999 V2000
   59.3236   35.4970   44.3486 H   0  0  0  0  0  0  0  0  0  0  0  0
   58.9270   34.7160   45.0140 C   0  0  0  0  0  0  0  0  0  0  0  0
   58.0220   33.8170   44.5430 N   0  0  0  0  0  0  0  0  0  0  0  0
   57.5010   32.8340   45.3330 C   0  0  0  0  0  0  0  0  0  0  0  0
   56.6380   31.9760   44.8690 N   0  0  0  0  0  0  0  0  0  0  0  0
   56.9230   30.7860   44.1200 C   0  0  0  0  0  0  0  0  0  0  0  0
   56.4320   30.6070   42.9720 O   0  0  0  0  0  0  0  0  0  0  0  0
   57.6770   29.7430   44.7450 N   0  0  0  0  0  0  0  0  0  0  0  0
   57.2610   28.5900   45.1890 C   0  0  0  0  0  0  0  0  0  0  0  0
   55.9420   28.3040   45.2410 N   0  0  0  0  0  0  0  0  0  0  0  0
   55.9080   27.0610   45.7520 C   0  0  0  0  0  0  0  0  0  0  0  0
   54.7370   26.3530   45.9850 O   0  0  0  0  0  0  0  0  0  0  0  0
   57.1750   26.6080   46.0180 C   0  0  0  0  0  0  0  0  0  0  0  0
   57.4369   25.6250   46.4365 H   0  0  0  0  0  0  0  0  0  0  0  0
   58.0410   27.5800   45.6760 N   0  0  0  0  0  0  0  0  0  0  0  0
   59.4790   27.5230   45.9310 C   0  0  0  0  0  0  0  0  0  0  0  0
   59.6590   27.5159   47.0162 H   0  0  0  0  0  0  0  0  0  0  0  0
   59.8946   26.6077   45.4844 H   0  0  0  0  0  0  0  0  0  0  0  0
   59.9657   28.4026   45.4844 H   0  0  0  0  0  0  0  0  0  0  0  0
   57.9090   32.7380   46.6700 C   0  0  0  0  0  0  0  0  0  0  0  0
   57.5000   31.9495   47.3188 H   0  0  0  0  0  0  0  0  0  0  0  0
   58.8390   33.6510   47.1730 C   0  0  0  0  0  0  0  0  0  0  0  0
   59.1655   33.5845   48.2213 H   0  0  0  0  0  0  0  0  0  0  0  0
   59.3530   34.6480   46.3420 C   0  0  0  0  0  0  0  0  0  0  0  0
   60.0853   35.3718   46.7290 H   0  0  0  0  0  0  0  0  0  0  0  0
  1  2  1  0
  2  3  1  0
  3  4  1  0
  4  5  2  3
  5  6  1  0
  6  7  2  0
  6  8  1  0
  8  9  2  0
  9 10  1  0
 10 11  1  0
 11 12  1  0
 11 13  2  0
 13 14  1  0
 13 15  1  0
 15 16  1  0
 16 17  1  0
 16 18  1  0
 16 19  1  0
  4 20  1  0
 20 21  1  0
 20 22  2  0
 22 23  1  0
 22 24  1  0
 24 25  1  0
 24  2  2  0
 15  9  1  0
M  CHG  3   3  -1  10  -1  12  -1
M  END
>  <UniqueID>  (89) 
85

>  <SMILES>  (89) 
Cn1cc([O-])[n-]/c1=N/C(=O)N=c1cccc[n-]1

>  <Energy>  (89) 
70.91250519602875

>  <Genealogy>  (89) 
Cn1cc([O-])[n-]c1=NC(=O)N=c1cccc[n-]1 (protonated)
Cn1cc([O-])[n-]/c1=N/C(=O)N=c1cccc[n-]1 (cis-trans isomerization)
Cn1cc([O-])[n-]/c1=N/C(=O)N=c1cccc[n-]1 (3D coordinates assigned)
Cn1cc([O-])[n-]/c1=N/C(=O)N=c1cccc[n-]1 (optimized conformer: 70.91250519602875 kcal/mol)

>  <smiles>  (89) 
Cn1cc(O)[nH]c1=NC(=O)N=c1cccc[nH]1

>  <score_type>  (89) 
oracle

>  <origin>  (89) 
adg

>  <m_score__min__energy>  (89) 
-12.43

>  <m_primary>  (89) 
energy

$$$$
89:0
     RDKit          3D

 67 71  0  0  0  0  0  0  0  0999 V2000
   62.7470   32.8530   46.8380 C   0  0  0  0  0  0  0  0  0  0  0  0
   61.3670   32.7690   47.4360 C   0  0  0  0  0  0  0  0  0  0  0  0
   60.8780   33.8760   48.1530 C   0  0  0  0  0  0  0  0  0  0  0  0
   59.6120   33.8420   48.7370 C   0  0  0  0  0  0  0  0  0  0  0  0
   58.8180   32.7020   48.6200 C   0  0  0  0  0  0  0  0  0  0  0  0
   59.2930   31.5870   47.9280 C   0  0  0  0  0  0  0  0  0  0  0  0
   60.5740   31.5940   47.3430 C   0  0  0  0  0  0  0  0  0  0  0  0
   61.0460   30.3520   46.6150 C   0  0  0  0  0  0  0  0  0  0  0  0
   60.0510   29.8910   45.6480 N   0  0  0  0  0  0  0  0  0  0  0  0
   59.9610   28.6330   45.2270 N   0  0  0  0  0  0  0  0  0  0  0  0
   58.9420   28.5500   44.3410 C   0  0  0  0  0  0  0  0  0  0  0  0
   58.5470   27.2990   43.6760 C   0  0  0  0  0  0  0  0  0  0  0  0
   58.8830   27.0760   42.4830 O   0  0  0  0  0  0  0  0  0  0  0  0
   57.7720   26.3370   44.3950 N   0  0  0  0  0  0  0  0  0  0  0  0
   56.9580   26.7150   45.8740 S   0  0  0  0  0  0  0  0  0  0  0  0
   55.9820   27.8360   45.6460 O   0  0  0  0  0  0  0  0  0  0  0  0
   56.1920   25.5070   46.3380 O   0  0  0  0  0  0  0  0  0  0  0  0
   58.1410   27.1660   47.0970 C   0  0  0  0  0  0  0  0  0  0  0  0
   58.1220   28.4480   47.6540 C   0  0  0  0  0  0  0  0  0  0  0  0
   59.0440   28.8040   48.6420 C   0  0  0  0  0  0  0  0  0  0  0  0
   59.9950   27.8710   49.1000 C   0  0  0  0  0  0  0  0  0  0  0  0
   60.9810   28.2270   50.1490 C   0  0  0  0  0  0  0  0  0  0  0  0
   61.6180   27.3080   50.7350 O   0  0  0  0  0  0  0  0  0  0  0  0
   61.2120   29.5950   50.5250 N   0  0  0  0  0  0  0  0  0  0  0  0
   62.2860   29.9530   51.4530 C   0  0  0  0  0  0  0  0  0  0  0  0
   61.7420   30.3560   52.8330 C   0  0  0  0  0  0  0  0  0  0  0  0
   60.7420   31.5210   52.7820 C   0  0  0  0  0  0  0  0  0  0  0  0
   59.4380   31.0830   52.2880 N   0  0  0  0  0  0  0  0  0  0  0  0
   58.5070   31.8390   51.6830 C   0  0  0  0  0  0  0  0  0  0  0  0
   57.4490   31.0200   51.3540 C   0  0  0  0  0  0  0  0  0  0  0  0
   57.7160   29.7570   51.7460 N   0  0  0  0  0  0  0  0  0  0  0  0
   58.9400   29.8320   52.3110 C   0  0  0  0  0  0  0  0  0  0  0  0
   60.0120   26.5860   48.5290 C   0  0  0  0  0  0  0  0  0  0  0  0
   59.0910   26.2350   47.5380 C   0  0  0  0  0  0  0  0  0  0  0  0
   58.3770   29.8080   44.1970 C   0  0  0  0  0  0  0  0  0  0  0  0
   57.3200   30.2960   43.4270 C   0  0  0  0  0  0  0  0  0  0  0  0
   57.0200   31.6660   43.5220 C   0  0  0  0  0  0  0  0  0  0  0  0
   57.7740   32.5100   44.3680 C   0  0  0  0  0  0  0  0  0  0  0  0
   58.8350   31.9890   45.1310 C   0  0  0  0  0  0  0  0  0  0  0  0
   59.1040   30.6220   45.0250 C   0  0  0  0  0  0  0  0  0  0  0  0
   63.4939   32.8985   47.6443 H   0  0  0  0  0  0  0  0  0  0  0  0
   62.9320   31.9645   46.2165 H   0  0  0  0  0  0  0  0  0  0  0  0
   62.8229   33.7574   46.2165 H   0  0  0  0  0  0  0  0  0  0  0  0
   61.5003   34.7774   48.2541 H   0  0  0  0  0  0  0  0  0  0  0  0
   59.2392   34.7162   49.2909 H   0  0  0  0  0  0  0  0  0  0  0  0
   57.8161   32.6814   49.0736 H   0  0  0  0  0  0  0  0  0  0  0  0
   58.6594   30.6923   47.8385 H   0  0  0  0  0  0  0  0  0  0  0  0
   61.9816   30.5820   46.0841 H   0  0  0  0  0  0  0  0  0  0  0  0
   61.2042   29.5548   47.3563 H   0  0  0  0  0  0  0  0  0  0  0  0
   57.3766   29.1813   47.3124 H   0  0  0  0  0  0  0  0  0  0  0  0
   59.0271   29.8193   49.0648 H   0  0  0  0  0  0  0  0  0  0  0  0
   60.5870   30.3420   50.1500 H   0  0  0  0  0  0  0  0  0  0  0  0
   62.9548   29.0880   51.5734 H   0  0  0  0  0  0  0  0  0  0  0  0
   62.8244   30.8159   51.0340 H   0  0  0  0  0  0  0  0  0  0  0  0
   61.2386   29.4844   53.2767 H   0  0  0  0  0  0  0  0  0  0  0  0
   62.6003   30.6928   53.4330 H   0  0  0  0  0  0  0  0  0  0  0  0
   60.6211   31.9335   53.7945 H   0  0  0  0  0  0  0  0  0  0  0  0
   61.1344   32.2843   52.0940 H   0  0  0  0  0  0  0  0  0  0  0  0
   58.5768   32.9189   51.4855 H   0  0  0  0  0  0  0  0  0  0  0  0
   56.5277   31.3460   50.8491 H   0  0  0  0  0  0  0  0  0  0  0  0
   59.4701   28.9694   52.7411 H   0  0  0  0  0  0  0  0  0  0  0  0
   60.7572   25.8501   48.8655 H   0  0  0  0  0  0  0  0  0  0  0  0
   59.1119   25.2249   47.1029 H   0  0  0  0  0  0  0  0  0  0  0  0
   56.7416   29.6313   42.7685 H   0  0  0  0  0  0  0  0  0  0  0  0
   56.1910   32.0847   42.9326 H   0  0  0  0  0  0  0  0  0  0  0  0
   57.5300   33.5808   44.4304 H   0  0  0  0  0  0  0  0  0  0  0  0
   59.4330   32.6364   45.7892 H   0  0  0  0  0  0  0  0  0  0  0  0
  1  2  1  0
  2  3  2  0
  3  4  1  0
  4  5  2  0
  5  6  1  0
  6  7  2  0
  7  8  1  0
  8  9  1  0
  9 10  1  0
 10 11  2  0
 11 12  1  0
 12 13  2  0
 12 14  1  0
 14 15  1  0
 15 16  2  0
 15 17  2  0
 15 18  1  0
 18 19  2  0
 19 20  1  0
 20 21  2  0
 21 22  1  0
 22 23  2  0
 22 24  1  0
 24 25  1  0
 25 26  1  0
 26 27  1  0
 27 28  1  0
 28 29  1  0
 29 30  2  0
 30 31  1  0
 31 32  2  0
 21 33  1  0
 33 34  2  0
 11 35  1  0
 35 36  2  0
 36 37  1  0
 37 38  2  0
 38 39  1  0
 39 40  2  0
  7  2  1  0
 40  9  1  0
 34 18  1  0
 40 35  1  0
 32 28  1  0
  1 41  1  0
  1 42  1  0
  1 43  1  0
  3 44  1  0
  4 45  1  0
  5 46  1  0
  6 47  1  0
  8 48  1  0
  8 49  1  0
 19 50  1  0
 20 51  1  0
 24 52  1  0
 25 53  1  0
 25 54  1  0
 26 55  1  0
 26 56  1  0
 27 57  1  0
 27 58  1  0
 29 59  1  0
 30 60  1  0
 32 61  1  0
 33 62  1  0
 34 63  1  0
 36 64  1  0
 37 65  1  0
 38 66  1  0
 39 67  1  0
M  CHG  1  14  -1
M  END
>  <UniqueID>  (90) 
86

>  <SMILES>  (90) 
Cc1ccccc1Cn1nc(C(=O)[N-]S(=O)(=O)c2ccc(C(=O)NCCCn3ccnc3)cc2)c2ccccc21

>  <Energy>  (90) 
139.10713089927864

>  <Genealogy>  (90) 
Cc1ccccc1Cn1nc(C(=O)[N-]S(=O)(=O)c2ccc(C(=O)NCCCn3ccnc3)cc2)c2ccccc21 (protonated)
Cc1ccccc1Cn1nc(C(=O)[N-]S(=O)(=O)c2ccc(C(=O)NCCCn3ccnc3)cc2)c2ccccc21 (3D coordinates assigned)
Cc1ccccc1Cn1nc(C(=O)[N-]S(=O)(=O)c2ccc(C(=O)NCCCn3ccnc3)cc2)c2ccccc21 (optimized conformer: 139.10713089927864 kcal/mol)

>  <smiles>  (90) 
Cc1ccccc1Cn1nc(C(=O)NS(=O)(=O)c2ccc(C(=O)NCCCn3ccnc3)cc2)c2ccccc21

>  <score_type>  (90) 
oracle

>  <origin>  (90) 
adg

>  <m_score__min__energy>  (90) 
-11.31

>  <m_primary>  (90) 
energy

$$$$
90:0
     RDKit          3D

 43 44  0  0  0  0  0  0  0  0999 V2000
   62.3750   31.8400   47.9310 C   0  0  0  0  0  0  0  0  0  0  0  0
   63.5160   33.0870   48.4950 S   0  0  0  0  0  0  0  0  0  0  0  0
   63.8940   33.9790   47.3460 O   0  0  0  0  0  0  0  0  0  0  0  0
   64.7520   32.4100   49.0160 O   0  0  0  0  0  0  0  0  0  0  0  0
   62.8100   34.0270   49.7740 N   0  0  0  0  0  0  0  0  0  0  0  0
   62.0360   33.1660   50.6630 C   0  0  0  0  0  0  0  0  0  0  0  0
   60.6150   33.7140   50.7890 C   0  0  0  0  0  0  0  0  0  0  0  0
   59.9160   33.6860   49.4550 C   0  0  0  0  0  0  0  0  0  0  0  0
   58.9370   32.7160   49.1880 C   0  0  0  0  0  0  0  0  0  0  0  0
   58.3210   32.6640   47.9350 C   0  0  0  0  0  0  0  0  0  0  0  0
   58.6850   33.5730   46.9320 C   0  0  0  0  0  0  0  0  0  0  0  0
   57.9210   33.4780   45.3480 S   0  0  0  0  0  0  0  0  0  0  0  0
   58.2510   34.6900   44.5200 O   0  0  0  0  0  0  0  0  0  0  0  0
   56.4320   33.3990   45.5300 O   0  0  0  0  0  0  0  0  0  0  0  0
   58.4700   32.0570   44.5170 N   0  0  0  0  0  0  0  0  0  0  0  0
   58.1140   30.7120   44.8620 C   0  0  0  0  0  0  0  0  0  0  0  0
   59.0090   29.8440   45.5140 C   0  0  0  0  0  0  0  0  0  0  0  0
   58.6160   28.5420   45.8410 C   0  0  0  0  0  0  0  0  0  0  0  0
   57.3270   28.0920   45.5210 C   0  0  0  0  0  0  0  0  0  0  0  0
   56.8160   26.4590   45.9410 S   0  0  0  0  0  0  0  0  0  0  0  0
   55.0890   26.3830   45.9890 N   0  0  0  0  0  0  0  0  0  0  0  0
   57.3800   26.0880   47.2840 O   0  0  0  0  0  0  0  0  0  0  0  0
   57.3130   25.4790   44.9140 O   0  0  0  0  0  0  0  0  0  0  0  0
   56.4360   28.9550   44.8730 C   0  0  0  0  0  0  0  0  0  0  0  0
   56.8300   30.2550   44.5420 C   0  0  0  0  0  0  0  0  0  0  0  0
   59.6670   34.5380   47.1930 C   0  0  0  0  0  0  0  0  0  0  0  0
   60.2840   34.5900   48.4460 C   0  0  0  0  0  0  0  0  0  0  0  0
   61.9186   31.3412   48.7987 H   0  0  0  0  0  0  0  0  0  0  0  0
   61.5884   32.3108   47.3231 H   0  0  0  0  0  0  0  0  0  0  0  0
   62.9136   31.0982   47.3231 H   0  0  0  0  0  0  0  0  0  0  0  0
   62.0013   32.1474   50.2491 H   0  0  0  0  0  0  0  0  0  0  0  0
   62.5099   33.1413   51.6554 H   0  0  0  0  0  0  0  0  0  0  0  0
   60.0520   33.0976   51.5052 H   0  0  0  0  0  0  0  0  0  0  0  0
   60.6661   34.7549   51.1409 H   0  0  0  0  0  0  0  0  0  0  0  0
   58.6538   31.9941   49.9682 H   0  0  0  0  0  0  0  0  0  0  0  0
   57.5480   31.9074   47.7350 H   0  0  0  0  0  0  0  0  0  0  0  0
   60.0217   30.1906   45.7676 H   0  0  0  0  0  0  0  0  0  0  0  0
   59.3206   27.8687   46.3510 H   0  0  0  0  0  0  0  0  0  0  0  0
   54.7680   27.0950   46.6830 H   0  0  0  0  0  0  0  0  0  0  0  0
   55.4221   28.6093   44.6232 H   0  0  0  0  0  0  0  0  0  0  0  0
   56.1255   30.9240   44.0261 H   0  0  0  0  0  0  0  0  0  0  0  0
   59.9528   35.2560   46.4102 H   0  0  0  0  0  0  0  0  0  0  0  0
   61.0616   35.3428   48.6425 H   0  0  0  0  0  0  0  0  0  0  0  0
  1  2  1  0
  2  3  2  0
  2  4  2  0
  2  5  1  0
  5  6  1  0
  6  7  1  0
  7  8  1  0
  8  9  2  0
  9 10  1  0
 10 11  2  0
 11 12  1  0
 12 13  2  0
 12 14  2  0
 12 15  1  0
 15 16  1  0
 16 17  2  0
 17 18  1  0
 18 19  2  0
 19 20  1  0
 20 21  1  0
 20 22  2  0
 20 23  2  0
 19 24  1  0
 24 25  2  0
 11 26  1  0
 26 27  2  0
 27  8  1  0
 25 16  1  0
  1 28  1  0
  1 29  1  0
  1 30  1  0
  6 31  1  0
  6 32  1  0
  7 33  1  0
  7 34  1  0
  9 35  1  0
 10 36  1  0
 17 37  1  0
 18 38  1  0
 21 39  1  0
 24 40  1  0
 25 41  1  0
 26 42  1  0
 27 43  1  0
M  CHG  3   5  -1  15  -1  21  -1
M  END
>  <UniqueID>  (91) 
87

>  <SMILES>  (91) 
CS(=O)(=O)[N-]CCc1ccc(S(=O)(=O)[N-]c2ccc(S([NH-])(=O)=O)cc2)cc1

>  <Energy>  (91) 
36.58002683501716

>  <Genealogy>  (91) 
CS(=O)(=O)[N-]CCc1ccc(S(=O)(=O)[N-]c2ccc(S([NH-])(=O)=O)cc2)cc1 (protonated)
CS(=O)(=O)[N-]CCc1ccc(S(=O)(=O)[N-]c2ccc(S([NH-])(=O)=O)cc2)cc1 (3D coordinates assigned)
CS(=O)(=O)[N-]CCc1ccc(S(=O)(=O)[N-]c2ccc(S([NH-])(=O)=O)cc2)cc1 (optimized conformer: 36.58002683501716 kcal/mol)

>  <smiles>  (91) 
CS(=O)(=O)NCCc1ccc(S(=O)(=O)Nc2ccc(S(N)(=O)=O)cc2)cc1

>  <score_type>  (91) 
oracle

>  <origin>  (91) 
adg

>  <m_score__min__energy>  (91) 
-13.050000000000001

>  <m_primary>  (91) 
energy

$$$$
91:0
     RDKit          3D

 62 66  0  0  0  0  0  0  0  0999 V2000
   64.4200   32.8500   49.8520 C   0  0  0  0  0  0  0  0  0  0  0  0
   63.3950   32.9240   48.3980 S   0  0  0  0  0  0  0  0  0  0  0  0
   63.2780   31.5660   47.7650 O   0  0  0  0  0  0  0  0  0  0  0  0
   64.0330   33.8610   47.4110 O   0  0  0  0  0  0  0  0  0  0  0  0
   61.8190   33.5300   48.8050 N   0  0  0  0  0  0  0  0  0  0  0  0
   60.7410   33.6990   47.8660 C   0  0  0  0  0  0  0  0  0  0  0  0
   61.0410   34.0660   46.5440 C   0  0  0  0  0  0  0  0  0  0  0  0
   60.0230   34.2350   45.6010 C   0  0  0  0  0  0  0  0  0  0  0  0
   58.6830   34.0460   45.9660 C   0  0  0  0  0  0  0  0  0  0  0  0
   57.5900   34.1930   44.9440 C   0  0  0  0  0  0  0  0  0  0  0  0
   57.3920   32.9020   44.2140 C   0  0  0  0  0  0  0  0  0  0  0  0
   57.7470   32.7120   42.9230 N   0  0  0  0  0  0  0  0  0  0  0  0
   57.4090   31.4240   42.7220 C   0  0  0  0  0  0  0  0  0  0  0  0
   56.8940   30.8780   43.8370 N   0  0  0  0  0  0  0  0  0  0  0  0
   56.3600   29.5270   43.9820 C   0  0  0  0  0  0  0  0  0  0  0  0
   56.6450   28.9830   45.3910 C   0  0  2  0  0  0  0  0  0  0  0  0
   58.0640   29.3970   45.8790 C   0  0  0  0  0  0  0  0  0  0  0  0
   58.6290   28.3840   46.7820 N   0  0  0  0  0  0  0  0  0  0  0  0
   59.5010   28.7590   47.8670 C   0  0  0  0  0  0  0  0  0  0  0  0
   59.8920   30.0540   48.0160 N   0  0  0  0  0  0  0  0  0  0  0  0
   60.7090   30.4340   49.0300 C   0  0  0  0  0  0  0  0  0  0  0  0
   61.1760   29.4870   49.9540 C   0  0  0  0  0  0  0  0  0  0  0  0
   62.0750   29.8770   51.0710 C   0  0  0  0  0  0  0  0  0  0  0  0
   62.9770   28.9530   51.6280 C   0  0  0  0  0  0  0  0  0  0  0  0
   63.8160   29.3330   52.6760 C   0  0  0  0  0  0  0  0  0  0  0  0
   63.7510   30.6400   53.1650 C   0  0  0  0  0  0  0  0  0  0  0  0
   64.5010   31.0000   54.1090 O   0  0  0  0  0  0  0  0  0  0  0  0
   62.8760   31.5250   52.6200 N   0  0  0  0  0  0  0  0  0  0  0  0
   62.0490   31.1800   51.5970 C   0  0  0  0  0  0  0  0  0  0  0  0
   60.7620   28.1580   49.7830 C   0  0  0  0  0  0  0  0  0  0  0  0
   59.9400   27.8250   48.7550 N   0  0  0  0  0  0  0  0  0  0  0  0
   58.4580   26.9650   46.4510 C   0  0  0  0  0  0  0  0  0  0  0  0
   57.5320   26.8070   45.2480 C   0  0  0  0  0  0  0  0  0  0  0  0
   56.3710   27.5850   45.4460 O   0  0  0  0  0  0  0  0  0  0  0  0
   56.8710   31.7970   44.7830 N   0  0  0  0  0  0  0  0  0  0  0  0
   58.3760   33.6630   47.2800 C   0  0  0  0  0  0  0  0  0  0  0  0
   59.3950   33.4930   48.2230 C   0  0  0  0  0  0  0  0  0  0  0  0
   63.7864   32.8957   50.7500 H   0  0  0  0  0  0  0  0  0  0  0  0
   64.9888   31.9085   49.8521 H   0  0  0  0  0  0  0  0  0  0  0  0
   65.1181   33.7001   49.8521 H   0  0  0  0  0  0  0  0  0  0  0  0
   61.6440   33.7360   49.8140 H   0  0  0  0  0  0  0  0  0  0  0  0
   62.0886   34.2222   46.2473 H   0  0  0  0  0  0  0  0  0  0  0  0
   60.2747   34.5175   44.5681 H   0  0  0  0  0  0  0  0  0  0  0  0
   56.6540   34.4722   45.4499 H   0  0  0  0  0  0  0  0  0  0  0  0
   57.8734   34.9744   44.2235 H   0  0  0  0  0  0  0  0  0  0  0  0
   57.5376   30.8887   41.7697 H   0  0  0  0  0  0  0  0  0  0  0  0
   55.2729   29.5478   43.8152 H   0  0  0  0  0  0  0  0  0  0  0  0
   56.8450   28.8719   43.2433 H   0  0  0  0  0  0  0  0  0  0  0  0
   55.9594   29.4461   46.1159 H   0  0  0  0  0  0  0  0  0  0  0  0
   58.7251   29.5100   45.0071 H   0  0  0  0  0  0  0  0  0  0  0  0
   57.9818   30.3471   46.4272 H   0  0  0  0  0  0  0  0  0  0  0  0
   61.0065   31.4884   49.1282 H   0  0  0  0  0  0  0  0  0  0  0  0
   63.0213   27.9263   51.2358 H   0  0  0  0  0  0  0  0  0  0  0  0
   64.5215   28.6108   53.1128 H   0  0  0  0  0  0  0  0  0  0  0  0
   61.3559   31.9249   51.1789 H   0  0  0  0  0  0  0  0  0  0  0  0
   61.1045   27.3827   50.4842 H   0  0  0  0  0  0  0  0  0  0  0  0
   59.4389   26.5275   46.2133 H   0  0  0  0  0  0  0  0  0  0  0  0
   58.0129   26.4484   47.3141 H   0  0  0  0  0  0  0  0  0  0  0  0
   58.0503   27.1456   44.3387 H   0  0  0  0  0  0  0  0  0  0  0  0
   57.2514   25.7493   45.1361 H   0  0  0  0  0  0  0  0  0  0  0  0
   57.3283   33.4954   47.5704 H   0  0  0  0  0  0  0  0  0  0  0  0
   59.1426   33.1960   49.2516 H   0  0  0  0  0  0  0  0  0  0  0  0
  1  2  1  0
  2  3  2  0
  2  4  2  0
  2  5  1  0
  5  6  1  0
  6  7  2  0
  7  8  1  0
  8  9  2  0
  9 10  1  0
 10 11  1  0
 11 12  1  0
 12 13  2  0
 13 14  1  0
 14 15  1  0
 15 16  1  0
 16 17  1  0
 17 18  1  0
 18 19  1  0
 19 20  2  0
 20 21  1  0
 21 22  2  0
 22 23  1  0
 23 24  1  0
 24 25  2  0
 25 26  1  0
 26 27  2  0
 26 28  1  0
 28 29  1  0
 22 30  1  0
 30 31  2  0
 18 32  1  0
 32 33  1  0
 33 34  1  0
 14 35  1  0
  9 36  1  0
 36 37  2  0
 37  6  1  0
 35 11  2  0
 34 16  1  0
 31 19  1  0
 29 23  2  0
  1 38  1  0
  1 39  1  0
  1 40  1  0
  5 41  1  0
  7 42  1  0
  8 43  1  0
 10 44  1  0
 10 45  1  0
 13 46  1  0
 15 47  1  0
 15 48  1  0
 16 49  1  1
 17 50  1  0
 17 51  1  0
 21 52  1  0
 24 53  1  0
 25 54  1  0
 29 55  1  0
 30 56  1  0
 32 57  1  0
 32 58  1  0
 33 59  1  0
 33 60  1  0
 36 61  1  0
 37 62  1  0
M  CHG  1  28  -1
M  END
>  <UniqueID>  (92) 
88

>  <SMILES>  (92) 
CS(=O)(=O)Nc1ccc(Cc2ncn(C[C@@H]3CN(c4ncc(-c5ccc(=O)[n-]c5)cn4)CCO3)n2)cc1

>  <Energy>  (92) 
109.152517414994

>  <Genealogy>  (92) 
CS(=O)(=O)Nc1ccc(Cc2ncn(CC3CN(c4ncc(-c5ccc(=O)[n-]c5)cn4)CCO3)n2)cc1 (protonated)
CS(=O)(=O)Nc1ccc(Cc2ncn(C[C@@H]3CN(c4ncc(-c5ccc(=O)[n-]c5)cn4)CCO3)n2)cc1 (chirality)
CS(=O)(=O)Nc1ccc(Cc2ncn(C[C@@H]3CN(c4ncc(-c5ccc(=O)[n-]c5)cn4)CCO3)n2)cc1 (3D coordinates assigned)
CS(=O)(=O)Nc1ccc(Cc2ncn(C[C@@H]3CN(c4ncc(-c5ccc(=O)[n-]c5)cn4)CCO3)n2)cc1 (nonaromatic ring conformer: 109.152517414994 kcal/mol)

>  <smiles>  (92) 
CS(=O)(=O)Nc1ccc(Cc2ncn(CC3CN(c4ncc(-c5ccc(=O)[nH]c5)cn4)CCO3)n2)cc1

>  <score_type>  (92) 
oracle

>  <origin>  (92) 
adg

>  <m_score__min__energy>  (92) 
-11.56

>  <m_primary>  (92) 
energy

$$$$
92:0
     RDKit          3D

 39 41  0  0  0  0  0  0  0  0999 V2000
   55.5160   25.8250   47.1460 H   0  0  0  0  0  0  0  0  0  0  0  0
   55.1770   25.3200   46.3360 O   0  0  0  0  0  0  0  0  0  0  0  0
   55.9900   24.4570   45.5990 C   0  0  0  0  0  0  0  0  0  0  0  0
   55.4120   23.6690   44.6000 C   0  0  0  0  0  0  0  0  0  0  0  0
   54.3314   23.7350   44.4050 H   0  0  0  0  0  0  0  0  0  0  0  0
   56.2040   22.7980   43.8490 C   0  0  0  0  0  0  0  0  0  0  0  0
   55.7541   22.1767   43.0606 H   0  0  0  0  0  0  0  0  0  0  0  0
   57.5710   22.7250   44.1100 C   0  0  0  0  0  0  0  0  0  0  0  0
   58.2062   22.0422   43.5267 H   0  0  0  0  0  0  0  0  0  0  0  0
   58.1200   23.4970   45.0850 N   0  0  0  0  0  0  0  0  0  0  0  0
   57.3750   24.3580   45.8360 C   0  0  0  0  0  0  0  0  0  0  0  0
   57.9240   25.0880   46.7650 N   0  0  0  0  0  0  0  0  0  0  0  0
   58.8260   26.1950   46.5860 C   0  0  0  0  0  0  0  0  0  0  0  0
   60.0580   26.0640   46.8260 O   0  0  0  0  0  0  0  0  0  0  0  0
   58.3050   27.5000   46.1150 C   0  0  0  0  0  0  0  0  0  0  0  0
   59.1410   28.6290   46.0650 C   0  0  0  0  0  0  0  0  0  0  0  0
   60.1918   28.5433   46.3788 H   0  0  0  0  0  0  0  0  0  0  0  0
   58.6490   29.8600   45.6200 C   0  0  0  0  0  0  0  0  0  0  0  0
   59.3142   30.7354   45.5854 H   0  0  0  0  0  0  0  0  0  0  0  0
   57.3060   29.9840   45.2160 C   0  0  0  0  0  0  0  0  0  0  0  0
   56.7690   31.2000   44.7630 O   0  0  0  0  0  0  0  0  0  0  0  0
   57.5150   32.2120   44.0930 C   0  0  0  0  0  0  0  0  0  0  0  0
   58.3260   31.7480   43.5125 H   0  0  0  0  0  0  0  0  0  0  0  0
   56.8544   32.7692   43.4125 H   0  0  0  0  0  0  0  0  0  0  0  0
   58.0980   33.1490   45.1100 C   0  0  0  0  0  0  0  0  0  0  0  0
   58.9760   34.1700   44.7100 C   0  0  0  0  0  0  0  0  0  0  0  0
   59.2135   34.3028   43.6442 H   0  0  0  0  0  0  0  0  0  0  0  0
   59.5490   35.0180   45.6630 C   0  0  0  0  0  0  0  0  0  0  0  0
   60.2279   35.8229   45.3447 H   0  0  0  0  0  0  0  0  0  0  0  0
   59.2600   34.8440   47.0200 C   0  0  0  0  0  0  0  0  0  0  0  0
   59.7079   35.5148   47.7679 H   0  0  0  0  0  0  0  0  0  0  0  0
   58.4030   33.8190   47.4260 C   0  0  0  0  0  0  0  0  0  0  0  0
   58.1798   33.6807   48.4942 H   0  0  0  0  0  0  0  0  0  0  0  0
   57.8280   32.9680   46.4770 C   0  0  0  0  0  0  0  0  0  0  0  0
   57.1624   32.1546   46.8016 H   0  0  0  0  0  0  0  0  0  0  0  0
   56.4710   28.8620   45.2650 C   0  0  0  0  0  0  0  0  0  0  0  0
   55.1430   28.9650   44.8700 O   0  0  0  0  0  0  0  0  0  0  0  0
   56.9650   27.6300   45.7100 C   0  0  0  0  0  0  0  0  0  0  0  0
   56.2985   26.7555   45.7431 H   0  0  0  0  0  0  0  0  0  0  0  0
  1  2  1  0
  2  3  1  0
  3  4  2  0
  4  5  1  0
  4  6  1  0
  6  7  1  0
  6  8  2  0
  8  9  1  0
  8 10  1  0
 10 11  1  0
 11 12  2  0
 12 13  1  0
 13 14  2  0
 13 15  1  0
 15 16  2  0
 16 17  1  0
 16 18  1  0
 18 19  1  0
 18 20  2  0
 20 21  1  0
 21 22  1  0
 22 23  1  0
 22 24  1  0
 22 25  1  0
 25 26  2  0
 26 27  1  0
 26 28  1  0
 28 29  1  0
 28 30  2  0
 30 31  1  0
 30 32  1  0
 32 33  1  0
 32 34  2  0
 34 35  1  0
 20 36  1  0
 36 37  1  0
 36 38  2  0
 38 39  1  0
 11  3  1  0
 38 15  1  0
 34 25  1  0
M  CHG  2  10  -1  37  -1
M  END
>  <UniqueID>  (93) 
89

>  <SMILES>  (93) 
O=C(/N=c1\[n-]cccc1O)c1ccc(OCc2ccccc2)c([O-])c1

>  <Energy>  (93) 
46.003207588042905

>  <Genealogy>  (93) 
O=C(N=c1[n-]cccc1O)c1ccc(OCc2ccccc2)c([O-])c1 (protonated)
O=C(/N=c1\[n-]cccc1O)c1ccc(OCc2ccccc2)c([O-])c1 (cis-trans isomerization)
O=C(/N=c1\[n-]cccc1O)c1ccc(OCc2ccccc2)c([O-])c1 (3D coordinates assigned)
O=C(/N=c1\[n-]cccc1O)c1ccc(OCc2ccccc2)c([O-])c1 (optimized conformer: 46.003207588042905 kcal/mol)

>  <smiles>  (93) 
O=C(N=c1[nH]cccc1O)c1ccc(OCc2ccccc2)c(O)c1

>  <score_type>  (93) 
oracle

>  <origin>  (93) 
adg

>  <m_score__min__energy>  (93) 
-14.08

>  <m_primary>  (93) 
energy

$$$$
