0:0
     RDKit          3D

 42 44  0  0  0  0  0  0  0  0999 V2000
   58.0727   29.0732   43.5528 H   0  0  0  0  0  0  0  0  0  0  0  0
   57.3980   29.8760   43.8850 C   0  0  0  0  0  0  0  0  0  0  0  0
   56.1310   29.5120   44.5560 C   0  0  0  0  0  0  0  0  0  0  0  0
   55.1400   30.2890   44.4930 O   0  0  0  0  0  0  0  0  0  0  0  0
   55.9860   28.2630   45.2470 N   0  0  0  0  0  0  0  0  0  0  0  0
   56.9940   27.5950   46.0250 C   0  0  0  0  0  0  0  0  0  0  0  0
   57.8920   28.3110   46.8360 C   0  0  0  0  0  0  0  0  0  0  0  0
   57.7977   29.4038   46.9187 H   0  0  0  0  0  0  0  0  0  0  0  0
   58.9100   27.6450   47.5430 C   0  0  0  0  0  0  0  0  0  0  0  0
   59.9310   28.4140   48.2970 C   0  0  0  0  0  0  0  0  0  0  0  0
   61.1400   28.0590   48.2520 O   0  0  0  0  0  0  0  0  0  0  0  0
   59.5600   29.5590   49.0790 N   0  0  0  0  0  0  0  0  0  0  0  0
   58.6680   29.5200   49.6210 H   0  0  0  0  0  0  0  0  0  0  0  0
   60.3840   30.7320   49.2060 C   0  0  0  0  0  0  0  0  0  0  0  0
   60.1980   31.5890   50.3020 C   0  0  0  0  0  0  0  0  0  0  0  0
   59.4385   31.3493   51.0607 H   0  0  0  0  0  0  0  0  0  0  0  0
   60.9720   32.7450   50.4350 C   0  0  0  0  0  0  0  0  0  0  0  0
   60.8268   33.4045   51.3033 H   0  0  0  0  0  0  0  0  0  0  0  0
   61.9310   33.0670   49.4680 C   0  0  0  0  0  0  0  0  0  0  0  0
   62.8870   34.5300   49.6720 Cl  0  0  0  0  0  0  0  0  0  0  0  0
   62.1100   32.2270   48.3570 C   0  0  0  0  0  0  0  0  0  0  0  0
   63.2910   32.6080   47.1110 Cl  0  0  0  0  0  0  0  0  0  0  0  0
   61.3350   31.0690   48.2260 C   0  0  0  0  0  0  0  0  0  0  0  0
   61.4706   30.4175   47.3501 H   0  0  0  0  0  0  0  0  0  0  0  0
   58.9800   26.2440   47.4760 C   0  0  0  0  0  0  0  0  0  0  0  0
   59.7738   25.7091   48.0180 H   0  0  0  0  0  0  0  0  0  0  0  0
   58.0460   25.5260   46.7240 C   0  0  0  0  0  0  0  0  0  0  0  0
   58.0906   24.4272   46.7005 H   0  0  0  0  0  0  0  0  0  0  0  0
   57.0560   26.1970   46.0020 C   0  0  0  0  0  0  0  0  0  0  0  0
   56.1730   25.4870   45.2570 F   0  0  0  0  0  0  0  0  0  0  0  0
   57.7520   31.1490   43.6680 C   0  0  0  0  0  0  0  0  0  0  0  0
   57.8369   31.4957   42.6275 H   0  0  0  0  0  0  0  0  0  0  0  0
   58.0350   32.1140   44.7530 C   0  0  0  0  0  0  0  0  0  0  0  0
   57.8700   31.7040   46.0390 N   0  0  0  0  0  0  0  0  0  0  0  0
   58.1440   32.5110   47.0980 C   0  0  0  0  0  0  0  0  0  0  0  0
   57.9877   32.1438   48.1231 H   0  0  0  0  0  0  0  0  0  0  0  0
   58.6230   33.8040   46.8870 C   0  0  0  0  0  0  0  0  0  0  0  0
   58.8448   34.4618   47.7403 H   0  0  0  0  0  0  0  0  0  0  0  0
   58.8170   34.2520   45.5820 C   0  0  0  0  0  0  0  0  0  0  0  0
   59.1940   35.2692   45.3999 H   0  0  0  0  0  0  0  0  0  0  0  0
   58.5330   33.4100   44.5060 C   0  0  0  0  0  0  0  0  0  0  0  0
   58.6962   33.7542   43.4741 H   0  0  0  0  0  0  0  0  0  0  0  0
  1  2  1  0
  2  3  1  0
  3  4  2  0
  3  5  1  0
  5  6  1  0
  6  7  2  0
  7  8  1  0
  7  9  1  0
  9 10  1  0
 10 11  2  0
 10 12  1  0
 12 13  1  0
 12 14  1  0
 14 15  2  0
 15 16  1  0
 15 17  1  0
 17 18  1  0
 17 19  2  0
 19 20  1  0
 19 21  1  0
 21 22  1  0
 21 23  2  0
 23 24  1  0
  9 25  2  0
 25 26  1  0
 25 27  1  0
 27 28  1  0
 27 29  2  0
 29 30  1  0
  2 31  2  0
 31 32  1  0
 31 33  1  0
 33 34  2  0
 34 35  1  0
 35 36  1  0
 35 37  2  0
 37 38  1  0
 37 39  1  0
 39 40  1  0
 39 41  2  0
 41 42  1  0
 29  6  1  0
 41 33  1  0
 23 14  1  0
M  CHG  1   5  -1
M  END
>  <UniqueID>  (1) 
1

>  <SMILES>  (1) 
O=C(/C=C/c1ccccn1)[N-]c1cc(C(=O)Nc2ccc(Cl)c(Cl)c2)ccc1F

>  <Energy>  (1) 
55.9843265393171

>  <Genealogy>  (1) 
O=C(C=Cc1ccccn1)[N-]c1cc(C(=O)Nc2ccc(Cl)c(Cl)c2)ccc1F (protonated)
O=C(/C=C/c1ccccn1)[N-]c1cc(C(=O)Nc2ccc(Cl)c(Cl)c2)ccc1F (cis-trans isomerization)
O=C(/C=C/c1ccccn1)[N-]c1cc(C(=O)Nc2ccc(Cl)c(Cl)c2)ccc1F (3D coordinates assigned)
O=C(/C=C/c1ccccn1)[N-]c1cc(C(=O)Nc2ccc(Cl)c(Cl)c2)ccc1F (optimized conformer: 55.9843265393171 kcal/mol)

>  <smiles>  (1) 
O=C(C=Cc1ccccn1)Nc1cc(C(=O)Nc2ccc(Cl)c(Cl)c2)ccc1F

>  <score_type>  (1) 
oracle

>  <origin>  (1) 
adg

>  <m_score__min__energy>  (1) 
-10.640000000000001

>  <m_primary>  (1) 
energy

$$$$
1:0
     RDKit          3D

 53 56  0  0  0  0  0  0  0  0999 V2000
   62.8112   34.4949   45.4714 H   0  0  0  0  0  0  0  0  0  0  0  0
   63.3980   33.8770   46.1670 C   0  0  0  0  0  0  0  0  0  0  0  0
   64.4827   33.7652   46.0224 H   0  0  0  0  0  0  0  0  0  0  0  0
   62.7870   33.2560   47.1980 C   0  0  0  0  0  0  0  0  0  0  0  0
   61.3930   33.3840   47.4900 C   0  0  0  0  0  0  0  0  0  0  0  0
   60.5620   34.1450   46.7170 C   0  0  0  0  0  0  0  0  0  0  0  0
   60.7928   35.2176   46.6381 H   0  0  0  0  0  0  0  0  0  0  0  0
   59.3810   33.6540   45.9780 C   0  0  0  0  0  0  0  0  0  0  0  0
   58.6770   32.1280   46.1430 S   0  0  0  0  0  0  0  0  0  0  0  0
   57.3490   32.4600   45.1620 C   0  0  0  0  0  0  0  0  0  0  0  0
   56.3000   31.5480   44.8320 N   0  0  0  0  0  0  0  0  0  0  0  0
   56.5960   29.8900   44.4230 S   0  0  0  0  0  0  0  0  0  0  0  0
   56.7370   29.7750   42.9310 O   0  0  0  0  0  0  0  0  0  0  0  0
   55.4330   29.0520   44.8720 O   0  0  0  0  0  0  0  0  0  0  0  0
   58.0570   29.3290   45.2310 C   0  0  0  0  0  0  0  0  0  0  0  0
   58.0150   28.9030   46.5670 C   0  0  0  0  0  0  0  0  0  0  0  0
   57.0660   28.9307   47.1225 H   0  0  0  0  0  0  0  0  0  0  0  0
   59.1780   28.4430   47.1940 C   0  0  0  0  0  0  0  0  0  0  0  0
   59.1417   28.1077   48.2410 H   0  0  0  0  0  0  0  0  0  0  0  0
   60.3870   28.4090   46.4910 C   0  0  0  0  0  0  0  0  0  0  0  0
   61.3007   28.0460   46.9844 H   0  0  0  0  0  0  0  0  0  0  0  0
   60.4330   28.8370   45.1600 C   0  0  0  0  0  0  0  0  0  0  0  0
   61.3841   28.8127   44.6078 H   0  0  0  0  0  0  0  0  0  0  0  0
   59.2710   29.2960   44.5300 C   0  0  0  0  0  0  0  0  0  0  0  0
   59.3099   29.6315   43.4831 H   0  0  0  0  0  0  0  0  0  0  0  0
   57.4120   33.7740   44.7270 C   0  0  0  0  0  0  0  0  0  0  0  0
   56.6542   34.2372   44.0780 H   0  0  0  0  0  0  0  0  0  0  0  0
   58.5440   34.4500   45.2020 C   0  0  0  0  0  0  0  0  0  0  0  0
   58.7509   35.5078   44.9826 H   0  0  0  0  0  0  0  0  0  0  0  0
   60.8980   32.6420   48.6000 C   0  0  0  0  0  0  0  0  0  0  0  0
   59.6520   32.5380   48.7740 O   0  0  0  0  0  0  0  0  0  0  0  0
   61.7490   31.9720   49.4480 N   0  0  0  0  0  0  0  0  0  0  0  0
   61.2190   31.3320   50.6870 C   0  0  0  0  0  0  0  0  0  0  0  0
   62.0782   30.9983   51.2874 H   0  0  0  0  0  0  0  0  0  0  0  0
   60.3980   30.0660   50.3560 C   0  0  0  0  0  0  0  0  0  0  0  0
   59.5237   30.3525   49.7531 H   0  0  0  0  0  0  0  0  0  0  0  0
   61.0410   29.3689   49.7986 H   0  0  0  0  0  0  0  0  0  0  0  0
   59.9160   29.3660   51.6390 C   0  0  0  0  0  0  0  0  0  0  0  0
   59.0968   28.6814   51.3742 H   0  0  0  0  0  0  0  0  0  0  0  0
   60.7835   28.8387   52.0626 H   0  0  0  0  0  0  0  0  0  0  0  0
   59.4060   30.3400   52.7240 C   0  0  0  0  0  0  0  0  0  0  0  0
   58.4587   29.9517   53.1264 H   0  0  0  0  0  0  0  0  0  0  0  0
   60.1843   30.4068   53.4985 H   0  0  0  0  0  0  0  0  0  0  0  0
   59.1660   31.7580   52.1910 C   0  0  0  0  0  0  0  0  0  0  0  0
   58.3856   31.7235   51.4166 H   0  0  0  0  0  0  0  0  0  0  0  0
   58.8511   32.3977   53.0286 H   0  0  0  0  0  0  0  0  0  0  0  0
   60.4500   32.3450   51.5840 C   0  0  0  0  0  0  0  0  0  0  0  0
   60.1807   33.2194   50.9733 H   0  0  0  0  0  0  0  0  0  0  0  0
   61.1141   32.6146   52.4184 H   0  0  0  0  0  0  0  0  0  0  0  0
   63.0830   31.9020   49.1370 C   0  0  0  0  0  0  0  0  0  0  0  0
   63.8850   31.2640   49.8740 O   0  0  0  0  0  0  0  0  0  0  0  0
   63.5670   32.5050   48.0250 N   0  0  0  0  0  0  0  0  0  0  0  0
   64.5920   32.4050   47.8310 H   0  0  0  0  0  0  0  0  0  0  0  0
  1  2  1  0
  2  3  1  0
  2  4  2  0
  4  5  1  0
  5  6  2  0
  6  7  1  0
  6  8  1  0
  8  9  1  0
  9 10  1  0
 10 11  1  0
 11 12  1  0
 12 13  2  0
 12 14  2  0
 12 15  1  0
 15 16  2  0
 16 17  1  0
 16 18  1  0
 18 19  1  0
 18 20  2  0
 20 21  1  0
 20 22  1  0
 22 23  1  0
 22 24  2  0
 24 25  1  0
 10 26  2  0
 26 27  1  0
 26 28  1  0
 28 29  1  0
  5 30  1  0
 30 31  2  0
 30 32  1  0
 32 33  1  0
 33 34  1  0
 33 35  1  0
 35 36  1  0
 35 37  1  0
 35 38  1  0
 38 39  1  0
 38 40  1  0
 38 41  1  0
 41 42  1  0
 41 43  1  0
 41 44  1  0
 44 45  1  0
 44 46  1  0
 44 47  1  0
 47 48  1  0
 47 49  1  0
 32 50  1  0
 50 51  2  0
 50 52  1  0
 52 53  1  0
 52  4  1  0
 28  8  2  0
 47 33  1  0
 24 15  1  0
M  CHG  1  11  -1
M  END
>  <UniqueID>  (2) 
2

>  <SMILES>  (2) 
C=c1[nH]c(=O)n(C2CCCCC2)c(=O)/c1=C\c1ccc([N-]S(=O)(=O)c2ccccc2)s1

>  <Energy>  (2) 
117.36531075920969

>  <Genealogy>  (2) 
C=c1[nH]c(=O)n(C2CCCCC2)c(=O)c1=Cc1ccc([N-]S(=O)(=O)c2ccccc2)s1 (protonated)
C=c1[nH]c(=O)n(C2CCCCC2)c(=O)/c1=C\c1ccc([N-]S(=O)(=O)c2ccccc2)s1 (cis-trans isomerization)
C=c1[nH]c(=O)n(C2CCCCC2)c(=O)/c1=C\c1ccc([N-]S(=O)(=O)c2ccccc2)s1 (3D coordinates assigned)
C=c1[nH]c(=O)n(C2CCCCC2)c(=O)/c1=C\c1ccc([N-]S(=O)(=O)c2ccccc2)s1 (nonaromatic ring conformer: 117.36531075920969 kcal/mol)

>  <smiles>  (2) 
C=c1[nH]c(=O)n(C2CCCCC2)c(=O)c1=Cc1ccc(NS(=O)(=O)c2ccccc2)s1

>  <score_type>  (2) 
oracle

>  <origin>  (2) 
adg

>  <m_score__min__energy>  (2) 
-11.289999999999999

>  <m_primary>  (2) 
energy

$$$$
2:0
     RDKit          3D

 45 47  0  0  0  0  0  0  0  0999 V2000
   62.1600   31.9050   47.4260 C   0  0  0  0  0  0  0  0  0  0  0  0
   60.8040   32.5430   47.3150 C   0  0  0  0  0  0  0  0  0  0  0  0
   60.5940   33.5890   46.3980 C   0  0  0  0  0  0  0  0  0  0  0  0
   59.3390   34.1940   46.2920 C   0  0  0  0  0  0  0  0  0  0  0  0
   58.2810   33.7590   47.0930 C   0  0  0  0  0  0  0  0  0  0  0  0
   58.4770   32.7210   48.0070 C   0  0  0  0  0  0  0  0  0  0  0  0
   59.7410   32.1170   48.1390 C   0  0  0  0  0  0  0  0  0  0  0  0
   59.9540   31.0440   49.0720 N   0  0  0  0  0  0  0  0  0  0  0  0
   59.0720   29.9370   49.3040 C   0  0  0  0  0  0  0  0  0  0  0  0
   58.1780   30.0550   50.1830 O   0  0  0  0  0  0  0  0  0  0  0  0
   59.1430   28.6950   48.4950 C   0  0  0  0  0  0  0  0  0  0  0  0
   58.1060   28.3720   47.6010 C   0  0  0  0  0  0  0  0  0  0  0  0
   58.1670   27.2040   46.8300 C   0  0  0  0  0  0  0  0  0  0  0  0
   56.8750   26.8040   45.7030 S   0  0  0  0  0  0  0  0  0  0  0  0
   55.9220   25.8550   46.3740 O   0  0  0  0  0  0  0  0  0  0  0  0
   57.4220   26.1500   44.4650 O   0  0  0  0  0  0  0  0  0  0  0  0
   56.0220   28.2460   45.2550 N   0  0  0  0  0  0  0  0  0  0  0  0
   56.6260   29.4230   44.7020 C   0  0  0  0  0  0  0  0  0  0  0  0
   57.4740   30.2520   45.4480 C   0  0  0  0  0  0  0  0  0  0  0  0
   58.0310   31.3860   44.8540 C   0  0  0  0  0  0  0  0  0  0  0  0
   57.7580   31.6970   43.5490 N   0  0  0  0  0  0  0  0  0  0  0  0
   58.3470   32.9030   42.9530 C   0  0  0  0  0  0  0  0  0  0  0  0
   56.9220   30.9010   42.8080 C   0  0  0  0  0  0  0  0  0  0  0  0
   56.6560   31.1900   41.6090 O   0  0  0  0  0  0  0  0  0  0  0  0
   56.3520   29.7560   43.3740 C   0  0  0  0  0  0  0  0  0  0  0  0
   59.2610   26.3420   46.9640 C   0  0  0  0  0  0  0  0  0  0  0  0
   60.2880   26.6440   47.8600 C   0  0  0  0  0  0  0  0  0  0  0  0
   60.2320   27.8120   48.6260 C   0  0  0  0  0  0  0  0  0  0  0  0
   61.2550   28.0900   49.4750 F   0  0  0  0  0  0  0  0  0  0  0  0
   62.4216   31.7819   48.4873 H   0  0  0  0  0  0  0  0  0  0  0  0
   62.1432   30.9203   46.9360 H   0  0  0  0  0  0  0  0  0  0  0  0
   62.9079   32.5457   46.9360 H   0  0  0  0  0  0  0  0  0  0  0  0
   61.4224   33.9325   45.7609 H   0  0  0  0  0  0  0  0  0  0  0  0
   59.1840   35.0147   45.5761 H   0  0  0  0  0  0  0  0  0  0  0  0
   57.2928   34.2340   47.0041 H   0  0  0  0  0  0  0  0  0  0  0  0
   57.6378   32.3736   48.6275 H   0  0  0  0  0  0  0  0  0  0  0  0
   57.2393   29.0427   47.5065 H   0  0  0  0  0  0  0  0  0  0  0  0
   57.6999   30.0105   46.4971 H   0  0  0  0  0  0  0  0  0  0  0  0
   58.6963   32.0365   45.4407 H   0  0  0  0  0  0  0  0  0  0  0  0
   58.6788   33.5823   43.7520 H   0  0  0  0  0  0  0  0  0  0  0  0
   59.2087   32.6209   42.3303 H   0  0  0  0  0  0  0  0  0  0  0  0
   57.5947   33.4092   42.3303 H   0  0  0  0  0  0  0  0  0  0  0  0
   55.6878   29.1177   42.7728 H   0  0  0  0  0  0  0  0  0  0  0  0
   59.3120   25.4232   46.3613 H   0  0  0  0  0  0  0  0  0  0  0  0
   61.1439   25.9608   47.9636 H   0  0  0  0  0  0  0  0  0  0  0  0
  1  2  1  0
  2  3  2  0
  3  4  1  0
  4  5  2  0
  5  6  1  0
  6  7  2  0
  7  8  1  0
  8  9  1  0
  9 10  2  0
  9 11  1  0
 11 12  2  0
 12 13  1  0
 13 14  1  0
 14 15  2  0
 14 16  2  0
 14 17  1  0
 17 18  1  0
 18 19  1  0
 19 20  2  0
 20 21  1  0
 21 22  1  0
 21 23  1  0
 23 24  2  0
 23 25  1  0
 13 26  2  0
 26 27  1  0
 27 28  2  0
 28 29  1  0
  7  2  1  0
 28 11  1  0
 25 18  2  0
  1 30  1  0
  1 31  1  0
  1 32  1  0
  3 33  1  0
  4 34  1  0
  5 35  1  0
  6 36  1  0
 12 37  1  0
 19 38  1  0
 20 39  1  0
 22 40  1  0
 22 41  1  0
 22 42  1  0
 25 43  1  0
 26 44  1  0
 27 45  1  0
M  CHG  2   8  -1  17  -1
M  END
>  <UniqueID>  (3) 
3

>  <SMILES>  (3) 
Cc1ccccc1[N-]C(=O)c1cc(S(=O)(=O)[N-]c2ccn(C)c(=O)c2)ccc1F

>  <Energy>  (3) 
59.640401511955055

>  <Genealogy>  (3) 
Cc1ccccc1[N-]C(=O)c1cc(S(=O)(=O)[N-]c2ccn(C)c(=O)c2)ccc1F (protonated)
Cc1ccccc1[N-]C(=O)c1cc(S(=O)(=O)[N-]c2ccn(C)c(=O)c2)ccc1F (3D coordinates assigned)
Cc1ccccc1[N-]C(=O)c1cc(S(=O)(=O)[N-]c2ccn(C)c(=O)c2)ccc1F (optimized conformer: 59.640401511955055 kcal/mol)

>  <smiles>  (3) 
Cc1ccccc1NC(=O)c1cc(S(=O)(=O)Nc2ccn(C)c(=O)c2)ccc1F

>  <score_type>  (3) 
oracle

>  <origin>  (3) 
adg

>  <m_score__min__energy>  (3) 
-11.800000000000001

>  <m_primary>  (3) 
energy

$$$$
3:0
     RDKit          3D

 77 81  0  0  1  0  0  0  0  0999 V2000
   63.3460   33.8750   46.3170 C   0  0  0  0  0  0  0  0  0  0  0  0
   63.0420   33.1480   47.6200 C   0  0  0  0  0  0  0  0  0  0  0  0
   63.0930   31.6720   47.4440 C   0  0  0  0  0  0  0  0  0  0  0  0
   61.7160   33.6690   48.1290 C   0  0  0  0  0  0  0  0  0  0  0  0
   60.9200   32.6800   48.7810 N   0  0  0  0  0  0  0  0  0  0  0  0
   60.6350   32.8140   50.1950 C   0  0  0  0  0  0  0  0  0  0  0  0
   61.1240   33.8190   50.7450 O   0  0  0  0  0  0  0  0  0  0  0  0
   59.8400   31.7830   50.7920 C   0  0  0  0  0  0  0  0  0  0  0  0
   60.0450   31.5700   52.1650 C   0  0  0  0  0  0  0  0  0  0  0  0
   59.3430   30.6400   52.8410 N   0  0  0  0  0  0  0  0  0  0  0  0
   58.4260   29.8810   52.2500 C   0  0  0  0  0  0  0  0  0  0  0  0
   57.7320   28.9850   52.8690 N   0  0  0  0  0  0  0  0  0  0  0  0
   56.3260   29.1420   52.9490 C   0  0  0  0  0  0  0  0  0  0  0  0
   55.5600   28.1350   53.4980 C   0  0  0  0  0  0  0  0  0  0  0  0
   54.1860   28.2100   53.6210 C   0  0  0  0  0  0  0  0  0  0  0  0
   53.5020   29.3480   53.1770 C   0  0  0  0  0  0  0  0  0  0  0  0
   52.0280   29.4220   53.3100 C   0  0  0  0  0  0  0  0  0  0  0  0
   51.4060   30.5500   52.7460 N   0  0  0  0  0  0  0  0  0  0  0  0
   51.4230   30.7200   51.3390 C   0  0  0  0  0  0  0  0  0  0  0  0
   51.8770   32.1670   51.0820 C   0  0  0  0  0  0  0  0  0  0  0  0
   51.0320   33.0960   51.6360 O   0  0  0  0  0  0  0  0  0  0  0  0
   50.3640   32.7020   52.7700 C   0  0  0  0  0  0  0  0  0  0  0  0
   51.1820   31.6910   53.5530 C   0  0  0  0  0  0  0  0  0  0  0  0
   54.2820   30.3400   52.6320 C   0  0  0  0  0  0  0  0  0  0  0  0
   55.6530   30.2630   52.5100 C   0  0  0  0  0  0  0  0  0  0  0  0
   58.2100   30.0640   50.9330 N   0  0  0  0  0  0  0  0  0  0  0  0
   58.9020   30.9950   50.2090 C   0  0  0  0  0  0  0  0  0  0  0  0
   58.6580   31.0700   48.9850 N   0  0  0  0  0  0  0  0  0  0  0  0
   58.9980   30.2150   47.9510 C   0  0  0  0  0  0  0  0  0  0  0  0
   59.7460   29.0750   48.1600 C   0  0  0  0  0  0  0  0  0  0  0  0
   60.0520   28.1630   47.1790 C   0  0  0  0  0  0  0  0  0  0  0  0
   59.5970   28.3780   45.9000 C   0  0  0  0  0  0  0  0  0  0  0  0
   58.8510   29.5060   45.6630 C   0  0  0  0  0  0  0  0  0  0  0  0
   58.5420   30.4310   46.6670 C   0  0  0  0  0  0  0  0  0  0  0  0
   57.7820   31.5120   46.2710 O   0  0  0  0  0  0  0  0  0  0  0  0
   58.3220   32.7690   46.0690 C   0  0  0  0  0  0  0  0  0  0  0  0
   58.7600   33.2280   44.8480 C   0  0  0  0  0  0  0  0  0  0  0  0
   59.2810   34.4990   44.7670 C   0  0  0  0  0  0  0  0  0  0  0  0
   59.3720   35.3150   45.8790 C   0  0  0  0  0  0  0  0  0  0  0  0
   58.9360   34.8610   47.1030 C   0  0  0  0  0  0  0  0  0  0  0  0
   58.4060   33.5820   47.2080 C   0  0  0  0  0  0  0  0  0  0  0  0
   63.7616   34.8688   46.5399 H   0  0  0  0  0  0  0  0  0  0  0  0
   64.0766   33.2942   45.7349 H   0  0  0  0  0  0  0  0  0  0  0  0
   62.4194   33.9872   45.7349 H   0  0  0  0  0  0  0  0  0  0  0  0
   63.8093   33.3517   48.3814 H   0  0  0  0  0  0  0  0  0  0  0  0
   63.1098   31.1855   48.4304 H   0  0  0  0  0  0  0  0  0  0  0  0
   62.2058   31.3384   46.8857 H   0  0  0  0  0  0  0  0  0  0  0  0
   64.0011   31.4005   46.8857 H   0  0  0  0  0  0  0  0  0  0  0  0
   61.9140   34.4813   48.8439 H   0  0  0  0  0  0  0  0  0  0  0  0
   61.1476   34.0097   47.2510 H   0  0  0  0  0  0  0  0  0  0  0  0
   60.5570   31.8830   48.2270 H   0  0  0  0  0  0  0  0  0  0  0  0
   60.7933   32.1743   52.6987 H   0  0  0  0  0  0  0  0  0  0  0  0
   59.5540   30.5400   53.8460 H   0  0  0  0  0  0  0  0  0  0  0  0
   56.0682   27.2273   53.8556 H   0  0  0  0  0  0  0  0  0  0  0  0
   53.6284   27.3741   54.0686 H   0  0  0  0  0  0  0  0  0  0  0  0
   51.6031   28.5292   52.8279 H   0  0  0  0  0  0  0  0  0  0  0  0
   51.8348   29.4911   54.3907 H   0  0  0  0  0  0  0  0  0  0  0  0
   52.1284   30.0125   50.8788 H   0  0  0  0  0  0  0  0  0  0  0  0
   50.4316   30.5295   50.9022 H   0  0  0  0  0  0  0  0  0  0  0  0
   52.8798   32.3026   51.5134 H   0  0  0  0  0  0  0  0  0  0  0  0
   51.8761   32.3260   49.9936 H   0  0  0  0  0  0  0  0  0  0  0  0
   50.1769   33.5822   53.4026 H   0  0  0  0  0  0  0  0  0  0  0  0
   49.4133   32.2339   52.4748 H   0  0  0  0  0  0  0  0  0  0  0  0
   52.1469   32.1375   53.8351 H   0  0  0  0  0  0  0  0  0  0  0  0
   50.6372   31.3994   54.4630 H   0  0  0  0  0  0  0  0  0  0  0  0
   53.7817   31.2508   52.2712 H   0  0  0  0  0  0  0  0  0  0  0  0
   56.2116   31.0977   52.0614 H   0  0  0  0  0  0  0  0  0  0  0  0
   57.4890   29.4660   50.4730 H   0  0  0  0  0  0  0  0  0  0  0  0
   60.1212   28.8840   49.1762 H   0  0  0  0  0  0  0  0  0  0  0  0
   60.6533   27.2724   47.4141 H   0  0  0  0  0  0  0  0  0  0  0  0
   59.8236   27.6680   45.0910 H   0  0  0  0  0  0  0  0  0  0  0  0
   58.4814   29.6901   44.6434 H   0  0  0  0  0  0  0  0  0  0  0  0
   58.6949   32.5910   43.9536 H   0  0  0  0  0  0  0  0  0  0  0  0
   59.6332   34.8744   43.7949 H   0  0  0  0  0  0  0  0  0  0  0  0
   59.7928   36.3270   45.7857 H   0  0  0  0  0  0  0  0  0  0  0  0
   59.0069   35.5063   47.9910 H   0  0  0  0  0  0  0  0  0  0  0  0
   58.0535   33.2082   48.1807 H   0  0  0  0  0  0  0  0  0  0  0  0
  1  2  1  0
  2  3  1  0
  2  4  1  0
  4  5  1  0
  5  6  1  0
  6  7  2  0
  6  8  1  0
  8  9  2  0
  9 10  1  0
 10 11  1  0
 11 12  2  0
 12 13  1  0
 13 14  2  0
 14 15  1  0
 15 16  2  0
 16 17  1  0
 17 18  1  0
 18 19  1  0
 19 20  1  0
 20 21  1  0
 21 22  1  0
 22 23  1  0
 16 24  1  0
 24 25  2  0
 11 26  1  0
 26 27  1  0
 27 28  2  0
 28 29  1  0
 29 30  2  0
 30 31  1  0
 31 32  2  0
 32 33  1  0
 33 34  2  0
 34 35  1  0
 35 36  1  0
 36 37  2  0
 37 38  1  0
 38 39  2  0
 39 40  1  0
 40 41  2  0
 27  8  1  0
 34 29  1  0
 41 36  1  0
 25 13  1  0
 23 18  1  0
  1 42  1  0
  1 43  1  0
  1 44  1  0
  2 45  1  0
  3 46  1  0
  3 47  1  0
  3 48  1  0
  4 49  1  0
  4 50  1  0
  5 51  1  0
  9 52  1  0
 10 53  1  0
 14 54  1  0
 15 55  1  0
 17 56  1  0
 17 57  1  0
 19 58  1  0
 19 59  1  0
 20 60  1  0
 20 61  1  0
 22 62  1  0
 22 63  1  0
 23 64  1  0
 23 65  1  0
 24 66  1  0
 25 67  1  0
 26 68  1  0
 30 69  1  0
 31 70  1  0
 32 71  1  0
 33 72  1  0
 37 73  1  0
 38 74  1  0
 39 75  1  0
 40 76  1  0
 41 77  1  0
M  END
>  <smiles>  (4) 
CC(C)CNC(=O)c1c[nH]c(=Nc2ccc(CN3CCOCC3)cc2)[nH]c1=Nc1ccccc1Oc1ccccc1

>  <score_type>  (4) 
oracle

>  <origin>  (4) 
adg

>  <m_score__min__energy>  (4) 
-10.609999999999999

>  <m_primary>  (4) 
energy

$$$$
4:0
     RDKit          3D

 93 99  0  0  1  0  0  0  0  0999 V2000
   60.8450   29.1620   55.2830 C   0  0  0  0  0  0  0  0  0  0  0  0
   61.0030   28.8900   53.9160 O   0  0  0  0  0  0  0  0  0  0  0  0
   62.2330   28.9250   53.3250 C   0  0  0  0  0  0  0  0  0  0  0  0
   63.1190   29.9740   53.3470 C   0  0  0  0  0  0  0  0  0  0  0  0
   64.3580   29.9100   52.7100 C   0  0  0  0  0  0  0  0  0  0  0  0
   64.7510   28.7660   52.0140 C   0  0  0  0  0  0  0  0  0  0  0  0
   63.8600   27.7240   51.9960 C   0  0  0  0  0  0  0  0  0  0  0  0
   62.6400   27.7910   52.6270 C   0  0  0  0  0  0  0  0  0  0  0  0
   61.6790   26.6180   52.5830 C   0  0  0  0  0  0  0  0  0  0  0  0
   61.2470   26.6160   51.1970 N   0  0  0  0  0  0  0  0  0  0  0  0
   60.6780   27.6110   50.6130 C   0  0  0  0  0  0  0  0  0  0  0  0
   60.9470   27.7990   49.3020 N   0  0  0  0  0  0  0  0  0  0  0  0
   60.3650   28.8360   48.6730 C   0  0  0  0  0  0  0  0  0  0  0  0
   58.4950   30.2450   51.3000 N   0  0  0  0  0  0  0  0  0  0  0  0
   59.2680   29.4570   50.6840 C   0  0  0  0  0  0  0  0  0  0  0  0
   59.5170   29.6800   49.3520 C   0  0  0  0  0  0  0  0  0  0  0  0
   58.4920   30.5880   45.0300 C   0  0  0  0  0  0  0  0  0  0  0  0
   57.6690   30.6350   43.8010 C   0  0  0  0  0  0  0  0  0  0  0  0
   57.7660   31.9740   43.1030 C   0  0  0  0  0  0  0  0  0  0  0  0
   56.2110   30.3810   44.1160 C   0  0  0  0  0  0  0  0  0  0  0  0
   58.6920   31.5200   45.9760 N   0  0  0  0  0  0  0  0  0  0  0  0
   59.5060   31.0540   46.9070 N   0  0  0  0  0  0  0  0  0  0  0  0
   59.2360   29.4780   45.4110 C   0  0  0  0  0  0  0  0  0  0  0  0
   59.8820   29.7860   46.6130 C   0  0  0  0  0  0  0  0  0  0  0  0
   60.6670   29.0150   47.2850 N   0  0  0  0  0  0  0  0  0  0  0  0
   58.8270   31.4620   51.9860 C   0  0  1  0  0  0  0  0  0  0  0  0
   60.1780   31.3750   52.7180 C   0  0  0  0  0  0  0  0  0  0  0  0
   60.8170   32.7430   52.7290 C   0  0  1  0  0  0  0  0  0  0  0  0
   61.7590   32.8670   53.9070 C   0  0  0  0  0  0  0  0  0  0  0  0
   62.7780   33.8600   53.2930 C   0  0  0  0  0  0  0  0  0  0  0  0
   62.9890   33.3500   51.9710 N   0  0  0  0  0  0  0  0  0  0  0  0
   63.5980   34.2060   51.0250 C   0  0  0  0  0  0  0  0  0  0  0  0
   63.4390   33.8070   49.6090 C   0  0  0  0  0  0  0  0  0  0  0  0
   64.4260   33.1790   48.8690 C   0  0  0  0  0  0  0  0  0  0  0  0
   64.0080   32.9640   47.6150 N   0  0  0  0  0  0  0  0  0  0  0  0
   62.7440   33.4450   47.5120 C   0  0  0  0  0  0  0  0  0  0  0  0
   61.8620   33.4680   46.4440 C   0  0  0  0  0  0  0  0  0  0  0  0
   60.6050   34.0200   46.6020 C   0  0  0  0  0  0  0  0  0  0  0  0
   60.2320   34.5480   47.8340 C   0  0  0  0  0  0  0  0  0  0  0  0
   61.1360   34.5050   48.8640 C   0  0  0  0  0  0  0  0  0  0  0  0
   62.3900   33.9650   48.7370 C   0  0  0  0  0  0  0  0  0  0  0  0
   61.6830   32.9430   51.5060 C   0  0  0  0  0  0  0  0  0  0  0  0
   59.7110   33.7510   52.8140 C   0  0  0  0  0  0  0  0  0  0  0  0
   58.9330   33.7990   51.5160 C   0  0  0  0  0  0  0  0  0  0  0  0
   59.0220   32.4690   50.9360 N   0  0  0  0  0  0  0  0  0  0  0  0
   58.0830   32.2700   49.8530 C   0  0  0  0  0  0  0  0  0  0  0  0
   59.8590   28.4050   51.3200 N   0  0  0  0  0  0  0  0  0  0  0  0
   61.3113   28.3592   55.8729 H   0  0  0  0  0  0  0  0  0  0  0  0
   61.3265   30.1212   55.5240 H   0  0  0  0  0  0  0  0  0  0  0  0
   59.7732   29.2189   55.5240 H   0  0  0  0  0  0  0  0  0  0  0  0
   62.8428   30.8935   53.8839 H   0  0  0  0  0  0  0  0  0  0  0  0
   65.0361   30.7748   52.7569 H   0  0  0  0  0  0  0  0  0  0  0  0
   65.7248   28.7035   51.5063 H   0  0  0  0  0  0  0  0  0  0  0  0
   64.1303   26.8031   51.4585 H   0  0  0  0  0  0  0  0  0  0  0  0
   62.1877   25.6777   52.8420 H   0  0  0  0  0  0  0  0  0  0  0  0
   60.8495   26.7042   53.3002 H   0  0  0  0  0  0  0  0  0  0  0  0
   61.5890   27.1680   48.7690 H   0  0  0  0  0  0  0  0  0  0  0  0
   59.0427   30.5258   48.8327 H   0  0  0  0  0  0  0  0  0  0  0  0
   58.0626   29.8494   43.1392 H   0  0  0  0  0  0  0  0  0  0  0  0
   57.8241   32.7756   43.8540 H   0  0  0  0  0  0  0  0  0  0  0  0
   58.6680   31.9950   42.4738 H   0  0  0  0  0  0  0  0  0  0  0  0
   56.8764   32.1248   42.4738 H   0  0  0  0  0  0  0  0  0  0  0  0
   56.0704   30.3565   45.2067 H   0  0  0  0  0  0  0  0  0  0  0  0
   55.5972   31.1857   43.6852 H   0  0  0  0  0  0  0  0  0  0  0  0
   55.9055   29.4161   43.6852 H   0  0  0  0  0  0  0  0  0  0  0  0
   58.2570   32.4860   45.9690 H   0  0  0  0  0  0  0  0  0  0  0  0
   59.8230   31.5690   47.7450 H   0  0  0  0  0  0  0  0  0  0  0  0
   59.3048   28.5259   44.8644 H   0  0  0  0  0  0  0  0  0  0  0  0
   58.0343   31.6837   52.7157 H   0  0  0  0  0  0  0  0  0  0  0  0
   60.0168   31.0344   53.7514 H   0  0  0  0  0  0  0  0  0  0  0  0
   60.8361   30.6603   52.2022 H   0  0  0  0  0  0  0  0  0  0  0  0
   61.2590   33.2836   54.7938 H   0  0  0  0  0  0  0  0  0  0  0  0
   62.1818   31.9218   54.2784 H   0  0  0  0  0  0  0  0  0  0  0  0
   62.3633   34.8783   53.2598 H   0  0  0  0  0  0  0  0  0  0  0  0
   63.7076   33.9345   53.8763 H   0  0  0  0  0  0  0  0  0  0  0  0
   63.1621   35.2088   51.1454 H   0  0  0  0  0  0  0  0  0  0  0  0
   64.6777   34.1639   51.2310 H   0  0  0  0  0  0  0  0  0  0  0  0
   65.4157   32.8960   49.2569 H   0  0  0  0  0  0  0  0  0  0  0  0
   64.5160   32.5110   46.8110 H   0  0  0  0  0  0  0  0  0  0  0  0
   62.1615   33.0479   45.4725 H   0  0  0  0  0  0  0  0  0  0  0  0
   59.9017   34.0419   45.7565 H   0  0  0  0  0  0  0  0  0  0  0  0
   59.2350   34.9897   47.9784 H   0  0  0  0  0  0  0  0  0  0  0  0
   60.8415   34.9233   49.8378 H   0  0  0  0  0  0  0  0  0  0  0  0
   61.2518   33.7236   50.8621 H   0  0  0  0  0  0  0  0  0  0  0  0
   61.7487   32.0160   50.9175 H   0  0  0  0  0  0  0  0  0  0  0  0
   59.0311   33.4735   53.6330 H   0  0  0  0  0  0  0  0  0  0  0  0
   60.1485   34.7426   53.0022 H   0  0  0  0  0  0  0  0  0  0  0  0
   57.8823   34.0595   51.7114 H   0  0  0  0  0  0  0  0  0  0  0  0
   59.3405   34.5600   50.8342 H   0  0  0  0  0  0  0  0  0  0  0  0
   57.0858   32.0587   50.2665 H   0  0  0  0  0  0  0  0  0  0  0  0
   58.0385   33.1787   49.2347 H   0  0  0  0  0  0  0  0  0  0  0  0
   58.4109   31.4214   49.2347 H   0  0  0  0  0  0  0  0  0  0  0  0
   59.6710   28.2300   52.3300 H   0  0  0  0  0  0  0  0  0  0  0  0
  1  2  1  0
  2  3  1  0
  3  4  2  0
  4  5  1  0
  5  6  2  0
  6  7  1  0
  7  8  2  0
  8  9  1  0
  9 10  1  0
 10 11  2  0
 11 12  1  0
 12 13  1  0
 13 14  1  0
 14 15  2  0
 15 16  1  0
 16 17  2  0
 17 18  1  0
 18 19  1  0
 18 20  1  0
 17 21  1  0
 21 22  1  0
 13 23  2  0
 23 24  1  0
 24 25  2  0
 25 26  1  0
 26 27  1  0
 28 27  1  6
 28 29  1  0
 29 30  1  0
 30 31  1  0
 31 32  1  0
 32 33  1  0
 33 34  2  0
 34 35  1  0
 35 36  1  0
 36 37  2  0
 37 38  1  0
 38 39  2  0
 39 40  1  0
 40 41  2  0
 31 42  1  0
 28 43  1  0
 43 44  1  0
 44 45  1  0
 45 46  1  0
 24 47  1  0
  8  3  1  0
 47 11  1  0
 22 15  1  0
 45 26  1  0
 42 28  1  0
 41 33  1  0
 41 36  1  0
  1 48  1  0
  1 49  1  0
  1 50  1  0
  4 51  1  0
  5 52  1  0
  6 53  1  0
  7 54  1  0
  9 55  1  0
  9 56  1  0
 12 57  1  0
 16 58  1  0
 18 59  1  0
 19 60  1  0
 19 61  1  0
 19 62  1  0
 20 63  1  0
 20 64  1  0
 20 65  1  0
 21 66  1  0
 22 67  1  0
 23 68  1  0
 26 69  1  1
 27 70  1  0
 27 71  1  0
 29 72  1  0
 29 73  1  0
 30 74  1  0
 30 75  1  0
 32 76  1  0
 32 77  1  0
 34 78  1  0
 35 79  1  0
 37 80  1  0
 38 81  1  0
 39 82  1  0
 40 83  1  0
 42 84  1  0
 42 85  1  0
 43 86  1  0
 43 87  1  0
 44 88  1  0
 44 89  1  0
 46 90  1  0
 46 91  1  0
 46 92  1  0
 47 93  1  0
M  END
>  <smiles>  (5) 
COc1ccccc1CN=c1[nH]c(N=c2cc(C(C)C)[nH][nH]2)cc(=NC2CC3(CCN(Cc4c[nH]c5ccccc45)C3)CCN2C)[nH]1

>  <score_type>  (5) 
oracle

>  <origin>  (5) 
adg

>  <m_score__min__energy>  (5) 
-12.84

>  <m_primary>  (5) 
energy

$$$$
5:0
     RDKit          3D

 40 42  0  0  0  0  0  0  0  0999 V2000
   64.5900   32.6540   46.6560 H   0  0  0  0  0  0  0  0  0  0  0  0
   63.8640   33.3200   46.4130 O   0  0  0  0  0  0  0  0  0  0  0  0
   62.5670   33.1920   46.9030 C   0  0  0  0  0  0  0  0  0  0  0  0
   62.3030   32.2770   47.9280 C   0  0  0  0  0  0  0  0  0  0  0  0
   63.1193   31.6664   48.3412 H   0  0  0  0  0  0  0  0  0  0  0  0
   61.0050   32.1360   48.4290 C   0  0  0  0  0  0  0  0  0  0  0  0
   60.8021   31.4086   49.2288 H   0  0  0  0  0  0  0  0  0  0  0  0
   59.9610   32.9190   47.9150 C   0  0  0  0  0  0  0  0  0  0  0  0
   58.5540   32.7220   48.4150 C   0  0  0  0  0  0  0  0  0  0  0  0
   58.2744   33.5695   49.0581 H   0  0  0  0  0  0  0  0  0  0  0  0
   58.5035   31.7846   48.9883 H   0  0  0  0  0  0  0  0  0  0  0  0
   57.6270   32.6440   47.2880 N   0  0  0  0  0  0  0  0  0  0  0  0
   56.7480   33.2070   47.3320 H   0  0  0  0  0  0  0  0  0  0  0  0
   57.8270   31.7400   46.1840 C   0  0  0  0  0  0  0  0  0  0  0  0
   57.6070   32.2110   44.8860 C   0  0  0  0  0  0  0  0  0  0  0  0
   57.3024   33.2567   44.7320 H   0  0  0  0  0  0  0  0  0  0  0  0
   57.7680   31.3760   43.7900 C   0  0  0  0  0  0  0  0  0  0  0  0
   57.4800   31.9930   42.1720 Cl  0  0  0  0  0  0  0  0  0  0  0  0
   58.1190   30.0430   43.9730 C   0  0  0  0  0  0  0  0  0  0  0  0
   58.2233   29.3890   43.0947 H   0  0  0  0  0  0  0  0  0  0  0  0
   58.3450   29.5090   45.2640 C   0  0  0  0  0  0  0  0  0  0  0  0
   58.5990   28.1770   45.3980 C   0  0  0  0  0  0  0  0  0  0  0  0
   59.6404   27.8428   45.2802 H   0  0  0  0  0  0  0  0  0  0  0  0
   57.5750   27.1440   45.6910 C   0  0  0  0  0  0  0  0  0  0  0  0
   56.2110   27.4620   45.6230 C   0  0  0  0  0  0  0  0  0  0  0  0
   55.7990   28.7330   45.2360 O   0  0  0  0  0  0  0  0  0  0  0  0
   55.2800   26.5220   45.9260 N   0  0  0  0  0  0  0  0  0  0  0  0
   55.6430   25.2730   46.3130 C   0  0  0  0  0  0  0  0  0  0  0  0
   54.7620   24.4180   46.5850 O   0  0  0  0  0  0  0  0  0  0  0  0
   56.9570   24.9480   46.4120 N   0  0  0  0  0  0  0  0  0  0  0  0
   57.9280   25.8520   46.1220 C   0  0  0  0  0  0  0  0  0  0  0  0
   59.1380   25.5230   46.2510 O   0  0  0  0  0  0  0  0  0  0  0  0
   58.2440   30.3920   46.3960 C   0  0  0  0  0  0  0  0  0  0  0  0
   58.6080   30.0120   47.6410 C   0  0  0  0  0  0  0  0  0  0  0  0
   58.9329   28.9777   47.8274 H   0  0  0  0  0  0  0  0  0  0  0  0
   58.5793   30.7370   48.4678 H   0  0  0  0  0  0  0  0  0  0  0  0
   60.2260   33.8290   46.8790 C   0  0  0  0  0  0  0  0  0  0  0  0
   59.4093   34.4346   46.4592 H   0  0  0  0  0  0  0  0  0  0  0  0
   61.5250   33.9680   46.3790 C   0  0  0  0  0  0  0  0  0  0  0  0
   61.7287   34.6881   45.5728 H   0  0  0  0  0  0  0  0  0  0  0  0
  1  2  1  0
  2  3  1  0
  3  4  2  0
  4  5  1  0
  4  6  1  0
  6  7  1  0
  6  8  2  0
  8  9  1  0
  9 10  1  0
  9 11  1  0
  9 12  1  0
 12 13  1  0
 12 14  1  0
 14 15  2  0
 15 16  1  0
 15 17  1  0
 17 18  1  0
 17 19  2  0
 19 20  1  0
 19 21  1  0
 21 22  2  0
 22 23  1  0
 22 24  1  0
 24 25  2  0
 25 26  1  0
 25 27  1  0
 27 28  1  0
 28 29  2  0
 28 30  1  0
 30 31  1  0
 31 32  2  0
 21 33  1  0
 33 34  2  0
 34 35  1  0
 34 36  1  0
  8 37  1  0
 37 38  1  0
 37 39  2  0
 39 40  1  0
 39  3  1  0
 33 14  1  0
 31 24  1  0
M  CHG  3  26  -1  27  -1  30  -1
M  END
>  <UniqueID>  (6) 
4

>  <SMILES>  (6) 
C=c1c(NCc2ccc(O)cc2)cc(Cl)c/c1=C\c1c([O-])[n-]c(=O)[n-]c1=O

>  <Energy>  (6) 
66.77195738529615

>  <Genealogy>  (6) 
C=c1c(NCc2ccc(O)cc2)cc(Cl)cc1=Cc1c([O-])[n-]c(=O)[n-]c1=O (protonated)
C=c1c(NCc2ccc(O)cc2)cc(Cl)c/c1=C\c1c([O-])[n-]c(=O)[n-]c1=O (cis-trans isomerization)
C=c1c(NCc2ccc(O)cc2)cc(Cl)c/c1=C\c1c([O-])[n-]c(=O)[n-]c1=O (3D coordinates assigned)
C=c1c(NCc2ccc(O)cc2)cc(Cl)c/c1=C\c1c([O-])[n-]c(=O)[n-]c1=O (optimized conformer: 66.77195738529615 kcal/mol)

>  <smiles>  (6) 
C=c1c(NCc2ccc(O)cc2)cc(Cl)cc1=Cc1c(O)[nH]c(=O)[nH]c1=O

>  <score_type>  (6) 
oracle

>  <origin>  (6) 
adg

>  <m_score__min__energy>  (6) 
-15.720000000000001

>  <m_primary>  (6) 
energy

$$$$
6:0
     RDKit          3D

 46 49  0  0  0  0  0  0  0  0999 V2000
   57.1396   30.5610   43.5797 H   0  0  0  0  0  0  0  0  0  0  0  0
   57.3670   29.5400   43.9200 C   0  0  0  0  0  0  0  0  0  0  0  0
   57.1832   28.6844   43.2535 H   0  0  0  0  0  0  0  0  0  0  0  0
   57.8690   29.3380   45.1490 C   0  0  0  0  0  0  0  0  0  0  0  0
   58.2100   28.1060   45.7290 C   0  0  0  0  0  0  0  0  0  0  0  0
   57.9300   26.8430   45.3530 C   0  0  0  0  0  0  0  0  0  0  0  0
   58.2445   26.5368   44.3444 H   0  0  0  0  0  0  0  0  0  0  0  0
   57.2390   25.8380   46.1770 C   0  0  0  0  0  0  0  0  0  0  0  0
   57.8160   24.7290   46.6780 N   0  0  0  0  0  0  0  0  0  0  0  0
   56.7780   24.0610   47.2280 C   0  0  0  0  0  0  0  0  0  0  0  0
   56.9190   22.9600   47.8210 O   0  0  0  0  0  0  0  0  0  0  0  0
   55.5760   24.6600   47.0830 N   0  0  0  0  0  0  0  0  0  0  0  0
   55.8860   25.7750   46.4030 C   0  0  0  0  0  0  0  0  0  0  0  0
   54.9480   26.7150   45.9920 O   0  0  0  0  0  0  0  0  0  0  0  0
   58.9380   28.4030   46.8700 C   0  0  0  0  0  0  0  0  0  0  0  0
   59.4156   27.6814   47.5491 H   0  0  0  0  0  0  0  0  0  0  0  0
   58.9490   29.7770   46.9910 C   0  0  0  0  0  0  0  0  0  0  0  0
   59.6160   30.5240   48.1050 C   0  0  0  0  0  0  0  0  0  0  0  0
   59.2656   30.1315   49.0710 H   0  0  0  0  0  0  0  0  0  0  0  0
   60.7061   30.3963   48.0310 H   0  0  0  0  0  0  0  0  0  0  0  0
   59.3662   31.5927   48.0310 H   0  0  0  0  0  0  0  0  0  0  0  0
   58.3010   30.3470   45.9510 N   0  0  0  0  0  0  0  0  0  0  0  0
   58.1480   31.7600   45.7260 C   0  0  0  0  0  0  0  0  0  0  0  0
   57.1870   32.2300   44.8200 C   0  0  0  0  0  0  0  0  0  0  0  0
   56.5423   31.5164   44.2859 H   0  0  0  0  0  0  0  0  0  0  0  0
   57.0450   33.6000   44.5930 C   0  0  0  0  0  0  0  0  0  0  0  0
   56.2934   33.9621   43.8761 H   0  0  0  0  0  0  0  0  0  0  0  0
   57.8550   34.5130   45.2740 C   0  0  0  0  0  0  0  0  0  0  0  0
   57.7442   35.5908   45.0840 H   0  0  0  0  0  0  0  0  0  0  0  0
   58.8100   34.0610   46.2000 C   0  0  0  0  0  0  0  0  0  0  0  0
   59.6680   35.0310   46.9190 C   0  0  0  0  0  0  0  0  0  0  0  0
   59.9130   36.1500   46.3930 O   0  0  0  0  0  0  0  0  0  0  0  0
   60.2760   34.7160   48.1790 N   0  0  0  0  0  0  0  0  0  0  0  0
   61.4740   33.9470   48.3630 C   0  0  0  0  0  0  0  0  0  0  0  0
   62.2270   33.4840   47.2670 C   0  0  0  0  0  0  0  0  0  0  0  0
   61.9095   33.7265   46.2421 H   0  0  0  0  0  0  0  0  0  0  0  0
   63.3770   32.7170   47.4770 C   0  0  0  0  0  0  0  0  0  0  0  0
   64.1010   32.2800   46.4180 F   0  0  0  0  0  0  0  0  0  0  0  0
   63.7790   32.3990   48.7770 C   0  0  0  0  0  0  0  0  0  0  0  0
   64.6880   31.8017   48.9412 H   0  0  0  0  0  0  0  0  0  0  0  0
   63.0260   32.8400   49.8680 C   0  0  0  0  0  0  0  0  0  0  0  0
   63.3409   32.5854   50.8907 H   0  0  0  0  0  0  0  0  0  0  0  0
   61.8720   33.6050   49.6630 C   0  0  0  0  0  0  0  0  0  0  0  0
   61.1480   34.0240   50.7310 F   0  0  0  0  0  0  0  0  0  0  0  0
   58.9590   32.6780   46.4100 C   0  0  0  0  0  0  0  0  0  0  0  0
   59.7185   32.3129   47.1171 H   0  0  0  0  0  0  0  0  0  0  0  0
  1  2  1  0
  2  3  1  0
  2  4  2  0
  4  5  1  0
  5  6  2  0
  6  7  1  0
  6  8  1  0
  8  9  1  0
  9 10  1  0
 10 11  2  0
 10 12  1  0
 12 13  1  0
 13 14  1  0
  5 15  1  0
 15 16  1  0
 15 17  2  0
 17 18  1  0
 18 19  1  0
 18 20  1  0
 18 21  1  0
 17 22  1  0
 22 23  1  0
 23 24  2  0
 24 25  1  0
 24 26  1  0
 26 27  1  0
 26 28  2  0
 28 29  1  0
 28 30  1  0
 30 31  1  0
 31 32  2  0
 31 33  1  0
 33 34  1  0
 34 35  2  0
 35 36  1  0
 35 37  1  0
 37 38  1  0
 37 39  2  0
 39 40  1  0
 39 41  1  0
 41 42  1  0
 41 43  2  0
 43 44  1  0
 30 45  2  0
 45 46  1  0
 22  4  1  0
 45 23  1  0
 13  8  2  0
 43 34  1  0
M  CHG  4   9  -1  12  -1  14  -1  33  -1
M  END
>  <UniqueID>  (7) 
5

>  <SMILES>  (7) 
C=c1/c(=C\c2[n-]c(=O)[n-]c2[O-])cc(C)n1-c1cccc(C(=O)[N-]c2cc(F)ccc2F)c1

>  <Energy>  (7) 
130.08586353164512

>  <Genealogy>  (7) 
C=c1c(=Cc2[n-]c(=O)[n-]c2[O-])cc(C)n1-c1cccc(C(=O)[N-]c2cc(F)ccc2F)c1 (protonated)
C=c1/c(=C\c2[n-]c(=O)[n-]c2[O-])cc(C)n1-c1cccc(C(=O)[N-]c2cc(F)ccc2F)c1 (cis-trans isomerization)
C=c1/c(=C\c2[n-]c(=O)[n-]c2[O-])cc(C)n1-c1cccc(C(=O)[N-]c2cc(F)ccc2F)c1 (3D coordinates assigned)
C=c1/c(=C\c2[n-]c(=O)[n-]c2[O-])cc(C)n1-c1cccc(C(=O)[N-]c2cc(F)ccc2F)c1 (optimized conformer: 130.08586353164512 kcal/mol)

>  <smiles>  (7) 
C=c1c(=Cc2[nH]c(=O)[nH]c2O)cc(C)n1-c1cccc(C(=O)Nc2cc(F)ccc2F)c1

>  <score_type>  (7) 
oracle

>  <origin>  (7) 
adg

>  <m_score__min__energy>  (7) 
-17.82

>  <m_primary>  (7) 
energy

$$$$
7:0
     RDKit          3D

 57 61  0  0  0  0  0  0  0  0999 V2000
   52.6280   22.2320   45.7380 N   0  0  0  0  0  0  0  0  0  0  0  0
   54.0220   23.1240   45.2410 S   0  0  0  0  0  0  0  0  0  0  0  0
   54.1160   24.3990   46.0340 O   0  0  0  0  0  0  0  0  0  0  0  0
   53.8880   23.4790   43.7860 O   0  0  0  0  0  0  0  0  0  0  0  0
   55.4760   22.1460   45.4960 C   0  0  0  0  0  0  0  0  0  0  0  0
   55.3660   20.7450   45.4940 C   0  0  0  0  0  0  0  0  0  0  0  0
   56.4940   19.9430   45.6830 C   0  0  0  0  0  0  0  0  0  0  0  0
   57.7450   20.5300   45.8770 C   0  0  0  0  0  0  0  0  0  0  0  0
   57.8720   21.9200   45.8890 C   0  0  0  0  0  0  0  0  0  0  0  0
   56.7450   22.7380   45.7070 C   0  0  0  0  0  0  0  0  0  0  0  0
   56.9250   24.2010   45.7460 C   0  0  0  0  0  0  0  0  0  0  0  0
   57.2320   24.8960   44.5680 C   0  0  0  0  0  0  0  0  0  0  0  0
   57.4100   26.2810   44.5970 C   0  0  0  0  0  0  0  0  0  0  0  0
   57.3080   26.9840   45.8030 C   0  0  0  0  0  0  0  0  0  0  0  0
   57.4880   28.4080   45.7930 N   0  0  0  0  0  0  0  0  0  0  0  0
   56.7540   29.3520   45.0010 C   0  0  0  0  0  0  0  0  0  0  0  0
   55.4950   29.3130   45.0340 O   0  0  0  0  0  0  0  0  0  0  0  0
   57.4260   30.3330   44.1140 C   0  0  0  0  0  0  0  0  0  0  0  0
   56.8530   30.7530   42.9840 C   0  0  0  0  0  0  0  0  0  0  0  0
   57.6900   31.9890   41.9920 S   0  0  0  0  0  0  0  0  0  0  0  0
   57.8760   33.0780   43.4540 C   0  0  0  0  0  0  0  0  0  0  0  0
   58.6460   32.4530   44.5700 N   0  0  0  0  0  0  0  0  0  0  0  0
   58.1610   32.9160   45.8880 C   0  0  0  0  0  0  0  0  0  0  0  0
   59.3150   33.2900   46.7810 C   0  0  0  0  0  0  0  0  0  0  0  0
   59.0660   33.8470   48.0620 C   0  0  0  0  0  0  0  0  0  0  0  0
   60.1320   34.1810   48.9160 C   0  0  0  0  0  0  0  0  0  0  0  0
   61.4260   33.9400   48.4630 C   0  0  0  0  0  0  0  0  0  0  0  0
   61.6720   33.3980   47.2440 C   0  0  0  0  0  0  0  0  0  0  0  0
   60.6460   33.0570   46.3680 C   0  0  0  0  0  0  0  0  0  0  0  0
   63.0350   33.2630   47.0650 O   0  0  0  0  0  0  0  0  0  0  0  0
   63.6860   33.7530   48.2450 C   0  0  0  0  0  0  0  0  0  0  0  0
   62.6220   34.1760   49.1120 O   0  0  0  0  0  0  0  0  0  0  0  0
   58.7340   30.9700   44.5190 C   0  0  0  0  0  0  0  0  0  0  0  0
   56.9880   26.2870   46.9830 C   0  0  0  0  0  0  0  0  0  0  0  0
   56.8110   24.9000   46.9570 C   0  0  0  0  0  0  0  0  0  0  0  0
   56.5290   24.2420   48.1090 F   0  0  0  0  0  0  0  0  0  0  0  0
   52.1950   21.8350   44.8740 H   0  0  0  0  0  0  0  0  0  0  0  0
   51.9460   22.9200   46.1290 H   0  0  0  0  0  0  0  0  0  0  0  0
   54.3828   20.2757   45.3422 H   0  0  0  0  0  0  0  0  0  0  0  0
   56.3960   18.8474   45.6789 H   0  0  0  0  0  0  0  0  0  0  0  0
   58.6325   19.8963   46.0207 H   0  0  0  0  0  0  0  0  0  0  0  0
   58.8606   22.3774   46.0419 H   0  0  0  0  0  0  0  0  0  0  0  0
   57.3329   24.3494   43.6187 H   0  0  0  0  0  0  0  0  0  0  0  0
   57.6318   26.8229   43.6658 H   0  0  0  0  0  0  0  0  0  0  0  0
   55.8815   30.3466   42.6663 H   0  0  0  0  0  0  0  0  0  0  0  0
   58.3984   33.9941   43.1412 H   0  0  0  0  0  0  0  0  0  0  0  0
   56.8645   33.2829   43.8347 H   0  0  0  0  0  0  0  0  0  0  0  0
   57.5150   33.7950   45.7462 H   0  0  0  0  0  0  0  0  0  0  0  0
   57.5974   32.0996   46.3632 H   0  0  0  0  0  0  0  0  0  0  0  0
   58.0302   34.0190   48.3898 H   0  0  0  0  0  0  0  0  0  0  0  0
   59.9495   34.6181   49.9088 H   0  0  0  0  0  0  0  0  0  0  0  0
   60.8647   32.6189   45.3830 H   0  0  0  0  0  0  0  0  0  0  0  0
   64.2766   32.9555   48.7195 H   0  0  0  0  0  0  0  0  0  0  0  0
   64.3843   34.5726   48.0199 H   0  0  0  0  0  0  0  0  0  0  0  0
   59.5068   30.6862   43.7895 H   0  0  0  0  0  0  0  0  0  0  0  0
   58.9847   30.6123   45.5286 H   0  0  0  0  0  0  0  0  0  0  0  0
   56.8766   26.8356   47.9299 H   0  0  0  0  0  0  0  0  0  0  0  0
  1  2  1  0
  2  3  2  0
  2  4  2  0
  2  5  1  0
  5  6  2  0
  6  7  1  0
  7  8  2  0
  8  9  1  0
  9 10  2  0
 10 11  1  0
 11 12  2  0
 12 13  1  0
 13 14  2  0
 14 15  1  0
 15 16  1  0
 16 17  2  0
 16 18  1  0
 18 19  2  0
 19 20  1  0
 20 21  1  0
 21 22  1  0
 22 23  1  0
 23 24  1  0
 24 25  2  0
 25 26  1  0
 26 27  2  0
 27 28  1  0
 28 29  2  0
 28 30  1  0
 30 31  1  0
 31 32  1  0
 22 33  1  0
 14 34  1  0
 34 35  2  0
 35 36  1  0
 10  5  1  0
 35 11  1  0
 33 18  1  0
 29 24  1  0
 32 27  1  0
  1 37  1  0
  1 38  1  0
  6 39  1  0
  7 40  1  0
  8 41  1  0
  9 42  1  0
 12 43  1  0
 13 44  1  0
 19 45  1  0
 21 46  1  0
 21 47  1  0
 23 48  1  0
 23 49  1  0
 25 50  1  0
 26 51  1  0
 29 52  1  0
 31 53  1  0
 31 54  1  0
 33 55  1  0
 33 56  1  0
 34 57  1  0
M  CHG  1  15  -1
M  END
>  <UniqueID>  (8) 
6

>  <SMILES>  (8) 
NS(=O)(=O)c1ccccc1-c1ccc([N-]C(=O)C2=CSCN(Cc3ccc4c(c3)OCO4)C2)cc1F

>  <Energy>  (8) 
115.65582438595277

>  <Genealogy>  (8) 
NS(=O)(=O)c1ccccc1-c1ccc([N-]C(=O)C2=CSCN(Cc3ccc4c(c3)OCO4)C2)cc1F (protonated)
NS(=O)(=O)c1ccccc1-c1ccc([N-]C(=O)C2=CSCN(Cc3ccc4c(c3)OCO4)C2)cc1F (3D coordinates assigned)
NS(=O)(=O)c1ccccc1-c1ccc([N-]C(=O)C2=CSCN(Cc3ccc4c(c3)OCO4)C2)cc1F (nonaromatic ring conformer: 115.65582438595277 kcal/mol)

>  <smiles>  (8) 
NS(=O)(=O)c1ccccc1-c1ccc(NC(=O)C2=CSCN(Cc3ccc4c(c3)OCO4)C2)cc1F

>  <score_type>  (8) 
oracle

>  <origin>  (8) 
adg

>  <m_score__min__energy>  (8) 
-12.08

>  <m_primary>  (8) 
energy

$$$$
8:0
     RDKit          3D

 33 34  0  0  0  0  0  0  0  0999 V2000
   54.7660   27.4940   46.2340 H   0  0  0  0  0  0  0  0  0  0  0  0
   55.1090   26.5690   46.0040 O   0  0  0  0  0  0  0  0  0  0  0  0
   56.4710   26.2840   45.9440 C   0  0  0  0  0  0  0  0  0  0  0  0
   56.8900   24.9480   46.0210 C   0  0  0  0  0  0  0  0  0  0  0  0
   56.1428   24.1411   46.0476 H   0  0  0  0  0  0  0  0  0  0  0  0
   58.2470   24.6370   46.0640 C   0  0  0  0  0  0  0  0  0  0  0  0
   58.5758   23.5887   46.1187 H   0  0  0  0  0  0  0  0  0  0  0  0
   59.1820   25.6670   46.0370 C   0  0  0  0  0  0  0  0  0  0  0  0
   60.2561   25.4366   46.0941 H   0  0  0  0  0  0  0  0  0  0  0  0
   58.7680   26.9580   45.9400 N   0  0  0  0  0  0  0  0  0  0  0  0
   57.4540   27.3070   45.8640 C   0  0  0  0  0  0  0  0  0  0  0  0
   57.1770   28.5760   45.7540 N   0  0  0  0  0  0  0  0  0  0  0  0
   56.3950   29.2620   44.7630 C   0  0  0  0  0  0  0  0  0  0  0  0
   55.1370   29.2900   44.8530 O   0  0  0  0  0  0  0  0  0  0  0  0
   57.0510   29.8200   43.5250 C   0  0  1  0  0  0  0  0  0  0  0  0
   57.8444   29.1150   43.2362 H   0  0  0  0  0  0  0  0  0  0  0  0
   56.1100   29.8870   42.4030 N   0  0  0  0  0  0  0  0  0  0  0  0
   56.1270   28.9950   41.8590 H   0  0  0  0  0  0  0  0  0  0  0  0
   55.1410   30.0070   42.7800 H   0  0  0  0  0  0  0  0  0  0  0  0
   57.7670   31.1700   43.7860 C   0  0  0  0  0  0  0  0  0  0  0  0
   58.7411   30.9492   44.2468 H   0  0  0  0  0  0  0  0  0  0  0  0
   57.8302   31.6631   42.8048 H   0  0  0  0  0  0  0  0  0  0  0  0
   57.0300   32.1680   44.7010 C   0  0  0  0  0  0  0  0  0  0  0  0
   56.2713   32.6987   44.1071 H   0  0  0  0  0  0  0  0  0  0  0  0
   56.5706   31.5968   45.5212 H   0  0  0  0  0  0  0  0  0  0  0  0
   57.9360   33.1510   45.2930 N   0  0  0  0  0  0  0  0  0  0  0  0
   58.1360   33.3890   46.6040 C   0  0  0  0  0  0  0  0  0  0  0  0
   57.5856   32.8804   47.4092 H   0  0  0  0  0  0  0  0  0  0  0  0
   59.0880   34.3220   46.8180 N   0  0  0  0  0  0  0  0  0  0  0  0
   59.5010   34.6660   45.5810 C   0  0  0  0  0  0  0  0  0  0  0  0
   60.2771   35.4127   45.3572 H   0  0  0  0  0  0  0  0  0  0  0  0
   58.8040   33.9410   44.6410 C   0  0  0  0  0  0  0  0  0  0  0  0
   58.9348   33.9986   43.5503 H   0  0  0  0  0  0  0  0  0  0  0  0
  1  2  1  0
  2  3  1  0
  3  4  2  0
  4  5  1  0
  4  6  1  0
  6  7  1  0
  6  8  2  0
  8  9  1  0
  8 10  1  0
 10 11  1  0
 11 12  2  0
 12 13  1  0
 13 14  2  0
 13 15  1  0
 15 16  1  6
 15 17  1  0
 17 18  1  0
 17 19  1  0
 15 20  1  0
 20 21  1  0
 20 22  1  0
 20 23  1  0
 23 24  1  0
 23 25  1  0
 23 26  1  0
 26 27  1  0
 27 28  1  0
 27 29  2  0
 29 30  1  0
 30 31  1  0
 30 32  2  0
 32 33  1  0
 11  3  1  0
 32 26  1  0
M  CHG  1  10  -1
M  END
>  <UniqueID>  (9) 
7

>  <SMILES>  (9) 
N[C@@H](CCn1ccnc1)C(=O)/N=c1/[n-]cccc1O

>  <Energy>  (9) 
71.65764570518834

>  <Genealogy>  (9) 
NC(CCn1ccnc1)C(=O)N=c1[n-]cccc1O (protonated)
N[C@@H](CCn1ccnc1)C(=O)N=c1[n-]cccc1O (chirality)
N[C@@H](CCn1ccnc1)C(=O)/N=c1/[n-]cccc1O (cis-trans isomerization)
N[C@@H](CCn1ccnc1)C(=O)/N=c1/[n-]cccc1O (3D coordinates assigned)
N[C@@H](CCn1ccnc1)C(=O)/N=c1/[n-]cccc1O (optimized conformer: 71.65764570518834 kcal/mol)

>  <smiles>  (9) 
NC(CCn1ccnc1)C(=O)N=c1[nH]cccc1O

>  <score_type>  (9) 
oracle

>  <origin>  (9) 
adg

>  <m_score__min__energy>  (9) 
-9.1300000000000008

>  <m_primary>  (9) 
energy

$$$$
9:0
     RDKit          3D

 58 60  0  0  0  0  0  0  0  0999 V2000
   55.5178   30.0064   42.4338 H   0  0  0  0  0  0  0  0  0  0  0  0
   56.2150   30.3680   43.2040 C   0  0  0  0  0  0  0  0  0  0  0  0
   57.2040   31.3070   42.8930 C   0  0  0  0  0  0  0  0  0  0  0  0
   57.3210   31.8610   41.5020 C   0  0  0  0  0  0  0  0  0  0  0  0
   57.5480   32.9361   41.5534 H   0  0  0  0  0  0  0  0  0  0  0  0
   58.1291   31.3408   40.9669 H   0  0  0  0  0  0  0  0  0  0  0  0
   56.3716   31.7119   40.9669 H   0  0  0  0  0  0  0  0  0  0  0  0
   58.0750   31.7090   43.8530 N   0  0  0  0  0  0  0  0  0  0  0  0
   57.9870   31.2430   45.1300 C   0  0  0  0  0  0  0  0  0  0  0  0
   58.7800   31.7340   46.0400 N   0  0  0  0  0  0  0  0  0  0  0  0
   58.9100   33.1540   46.3820 C   0  0  2  0  0  0  0  0  0  0  0  0
   59.7740   33.5903   45.8593 H   0  0  0  0  0  0  0  0  0  0  0  0
   59.1450   33.2820   47.8800 C   0  0  0  0  0  0  0  0  0  0  0  0
   60.1810   34.1020   48.3450 C   0  0  0  0  0  0  0  0  0  0  0  0
   60.7142   34.7552   47.6386 H   0  0  0  0  0  0  0  0  0  0  0  0
   60.5460   34.1020   49.6910 C   0  0  0  0  0  0  0  0  0  0  0  0
   61.3728   34.7458   50.0256 H   0  0  0  0  0  0  0  0  0  0  0  0
   59.8810   33.2990   50.6240 C   0  0  0  0  0  0  0  0  0  0  0  0
   60.4030   33.3270   51.9300 O   0  0  0  0  0  0  0  0  0  0  0  0
   61.2520   32.3980   52.6010 C   0  0  0  0  0  0  0  0  0  0  0  0
   60.8814   32.2275   53.6226 H   0  0  0  0  0  0  0  0  0  0  0  0
   61.2617   31.4390   52.0623 H   0  0  0  0  0  0  0  0  0  0  0  0
   62.6300   32.9690   52.6540 C   0  0  0  0  0  0  0  0  0  0  0  0
   62.8390   34.1630   52.2980 O   0  0  0  0  0  0  0  0  0  0  0  0
   63.6660   32.1750   53.1560 O   0  0  0  0  0  0  0  0  0  0  0  0
   63.8250   30.7800   52.8880 C   0  0  0  0  0  0  0  0  0  0  0  0
   64.6079   30.3702   53.5431 H   0  0  0  0  0  0  0  0  0  0  0  0
   62.8718   30.2650   53.0783 H   0  0  0  0  0  0  0  0  0  0  0  0
   64.2260   30.5700   51.4270 C   0  0  0  0  0  0  0  0  0  0  0  0
   65.3215   30.6205   51.3415 H   0  0  0  0  0  0  0  0  0  0  0  0
   63.8649   29.5847   51.0971 H   0  0  0  0  0  0  0  0  0  0  0  0
   63.6440   31.5750   50.6000 O   0  0  0  0  0  0  0  0  0  0  0  0
   62.8810   31.3530   49.4460 C   0  0  0  0  0  0  0  0  0  0  0  0
   63.1550   31.9800   48.2190 C   0  0  0  0  0  0  0  0  0  0  0  0
   64.0013   32.6780   48.1376 H   0  0  0  0  0  0  0  0  0  0  0  0
   62.3580   31.7210   47.1030 C   0  0  0  0  0  0  0  0  0  0  0  0
   62.5755   32.2234   46.1489 H   0  0  0  0  0  0  0  0  0  0  0  0
   61.2840   30.8270   47.1880 C   0  0  0  0  0  0  0  0  0  0  0  0
   60.6641   30.6280   46.3014 H   0  0  0  0  0  0  0  0  0  0  0  0
   60.9960   30.1830   48.4040 C   0  0  0  0  0  0  0  0  0  0  0  0
   59.8200   29.2840   48.5280 C   0  0  0  0  0  0  0  0  0  0  0  0
   59.8260   28.3780   49.4050 O   0  0  0  0  0  0  0  0  0  0  0  0
   58.6730   29.4250   47.6850 N   0  0  0  0  0  0  0  0  0  0  0  0
   57.7870   28.9360   47.9340 H   0  0  0  0  0  0  0  0  0  0  0  0
   58.6920   30.0030   46.8170 H   0  0  0  0  0  0  0  0  0  0  0  0
   61.8000   30.4590   49.5250 C   0  0  0  0  0  0  0  0  0  0  0  0
   61.5779   29.9650   50.4824 H   0  0  0  0  0  0  0  0  0  0  0  0
   58.7990   32.4890   50.1760 C   0  0  0  0  0  0  0  0  0  0  0  0
   57.8940   31.3900   51.2100 Cl  0  0  0  0  0  0  0  0  0  0  0  0
   58.4620   32.4720   48.8070 C   0  0  0  0  0  0  0  0  0  0  0  0
   57.6520   31.8149   48.4575 H   0  0  0  0  0  0  0  0  0  0  0  0
   57.6790   33.9390   45.9140 C   0  0  0  0  0  0  0  0  0  0  0  0
   57.1177   34.2969   46.7897 H   0  0  0  0  0  0  0  0  0  0  0  0
   58.0010   34.7989   45.3083 H   0  0  0  0  0  0  0  0  0  0  0  0
   57.0351   33.2844   45.3083 H   0  0  0  0  0  0  0  0  0  0  0  0
   57.0100   30.3520   45.4530 N   0  0  0  0  0  0  0  0  0  0  0  0
   56.1360   29.9020   44.5170 C   0  0  0  0  0  0  0  0  0  0  0  0
   55.1750   28.9620   44.8680 O   0  0  0  0  0  0  0  0  0  0  0  0
  1  2  1  0
  2  3  1  0
  3  4  1  0
  4  5  1  0
  4  6  1  0
  4  7  1  0
  3  8  2  0
  8  9  1  0
  9 10  2  0
 10 11  1  0
 11 12  1  6
 11 13  1  0
 13 14  2  0
 14 15  1  0
 14 16  1  0
 16 17  1  0
 16 18  2  0
 18 19  1  0
 19 20  1  0
 20 21  1  0
 20 22  1  0
 20 23  1  0
 23 24  2  0
 23 25  1  0
 25 26  1  0
 26 27  1  0
 26 28  1  0
 26 29  1  0
 29 30  1  0
 29 31  1  0
 29 32  1  0
 32 33  1  0
 33 34  2  0
 34 35  1  0
 34 36  1  0
 36 37  1  0
 36 38  2  0
 38 39  1  0
 38 40  1  0
 40 41  1  0
 41 42  2  0
 41 43  1  0
 43 44  1  0
 43 45  1  0
 40 46  2  0
 46 47  1  0
 18 48  1  0
 48 49  1  0
 48 50  2  0
 50 51  1  0
 11 52  1  0
 52 53  1  0
 52 54  1  0
 52 55  1  0
  9 56  1  0
 56 57  1  0
 57 58  1  0
 57  2  2  0
 50 13  1  0
 46 33  1  0
M  CHG  2  56  -1  58  -1
M  END
>  <UniqueID>  (10) 
8

>  <SMILES>  (10) 
Cc1cc([O-])[n-]/c(=N\[C@@H](C)c2ccc(OCC(=O)OCCOc3cccc(C(N)=O)c3)c(Cl)c2)n1

>  <Energy>  (10) 
70.91071999031776

>  <Genealogy>  (10) 
Cc1cc([O-])[n-]c(=NC(C)c2ccc(OCC(=O)OCCOc3cccc(C(N)=O)c3)c(Cl)c2)n1 (protonated)
Cc1cc([O-])[n-]c(=N[C@@H](C)c2ccc(OCC(=O)OCCOc3cccc(C(N)=O)c3)c(Cl)c2)n1 (chirality)
Cc1cc([O-])[n-]/c(=N\[C@@H](C)c2ccc(OCC(=O)OCCOc3cccc(C(N)=O)c3)c(Cl)c2)n1 (cis-trans isomerization)
Cc1cc([O-])[n-]/c(=N\[C@@H](C)c2ccc(OCC(=O)OCCOc3cccc(C(N)=O)c3)c(Cl)c2)n1 (3D coordinates assigned)
Cc1cc([O-])[n-]/c(=N\[C@@H](C)c2ccc(OCC(=O)OCCOc3cccc(C(N)=O)c3)c(Cl)c2)n1 (optimized conformer: 70.91071999031776 kcal/mol)

>  <smiles>  (10) 
Cc1cc(O)[nH]c(=NC(C)c2ccc(OCC(=O)OCCOc3cccc(C(N)=O)c3)c(Cl)c2)n1

>  <score_type>  (10) 
oracle

>  <origin>  (10) 
adg

>  <m_score__min__energy>  (10) 
-14.93

>  <m_primary>  (10) 
energy

$$$$
10:0
     RDKit          3D

 56 59  0  0  0  0  0  0  0  0999 V2000
   61.1710   31.6520   50.7370 C   0  0  0  0  0  0  0  0  0  0  0  0
   62.6110   31.9630   50.4330 C   0  0  0  0  0  0  0  0  0  0  0  0
   63.5890   31.0270   50.8180 C   0  0  0  0  0  0  0  0  0  0  0  0
   64.9420   31.2710   50.5860 C   0  0  0  0  0  0  0  0  0  0  0  0
   65.3420   32.4570   49.9770 C   0  0  0  0  0  0  0  0  0  0  0  0
   64.3910   33.4060   49.6020 C   0  0  0  0  0  0  0  0  0  0  0  0
   63.0180   33.1840   49.8270 C   0  0  0  0  0  0  0  0  0  0  0  0
   62.0390   34.2800   49.4080 C   0  0  0  0  0  0  0  0  0  0  0  0
   61.0220   33.8880   48.3790 N   0  0  0  0  0  0  0  0  0  0  0  0
   61.4980   33.9710   46.9780 C   0  0  0  0  0  0  0  0  0  0  0  0
   60.4910   33.3080   46.0270 C   0  0  0  0  0  0  0  0  0  0  0  0
   59.1100   33.6860   46.3610 N   0  0  0  0  0  0  0  0  0  0  0  0
   57.9830   33.0350   45.7280 C   0  0  0  0  0  0  0  0  0  0  0  0
   56.8140   33.2620   46.1480 O   0  0  0  0  0  0  0  0  0  0  0  0
   58.1600   32.0310   44.6150 C   0  0  0  0  0  0  0  0  0  0  0  0
   57.8580   30.6390   45.0930 C   0  0  0  0  0  0  0  0  0  0  0  0
   56.6440   30.0560   44.8990 N   0  0  0  0  0  0  0  0  0  0  0  0
   56.8220   28.8330   45.4240 C   0  0  0  0  0  0  0  0  0  0  0  0
   55.9130   27.8350   45.4570 N   0  0  0  0  0  0  0  0  0  0  0  0
   56.2720   26.6340   46.0030 C   0  0  0  0  0  0  0  0  0  0  0  0
   55.4260   25.6990   46.0190 O   0  0  0  0  0  0  0  0  0  0  0  0
   57.5420   26.4450   46.5200 N   0  0  0  0  0  0  0  0  0  0  0  0
   57.9240   25.1350   47.0710 C   0  0  0  0  0  0  0  0  0  0  0  0
   58.4720   27.4610   46.4510 C   0  0  0  0  0  0  0  0  0  0  0  0
   59.6510   27.2990   46.8710 O   0  0  0  0  0  0  0  0  0  0  0  0
   58.0780   28.6770   45.8980 C   0  0  0  0  0  0  0  0  0  0  0  0
   58.7620   29.8180   45.7000 N   0  0  0  0  0  0  0  0  0  0  0  0
   60.1670   30.0810   46.0170 C   0  0  0  0  0  0  0  0  0  0  0  0
   58.9040   34.7970   47.2990 C   0  0  0  0  0  0  0  0  0  0  0  0
   59.7200   34.5870   48.5890 C   0  0  0  0  0  0  0  0  0  0  0  0
   61.0249   31.6204   51.8268 H   0  0  0  0  0  0  0  0  0  0  0  0
   60.5280   32.4320   50.3033 H   0  0  0  0  0  0  0  0  0  0  0  0
   60.9072   30.6762   50.3033 H   0  0  0  0  0  0  0  0  0  0  0  0
   63.2821   30.0912   51.3081 H   0  0  0  0  0  0  0  0  0  0  0  0
   65.6939   30.5257   50.8845 H   0  0  0  0  0  0  0  0  0  0  0  0
   66.4096   32.6461   49.7912 H   0  0  0  0  0  0  0  0  0  0  0  0
   64.7177   34.3412   49.1237 H   0  0  0  0  0  0  0  0  0  0  0  0
   61.4989   34.6117   50.3070 H   0  0  0  0  0  0  0  0  0  0  0  0
   62.6515   35.0642   48.9390 H   0  0  0  0  0  0  0  0  0  0  0  0
   60.8270   32.8700   48.5480 H   0  0  0  0  0  0  0  0  0  0  0  0
   61.6177   35.0281   46.6985 H   0  0  0  0  0  0  0  0  0  0  0  0
   62.4612   33.4459   46.8981 H   0  0  0  0  0  0  0  0  0  0  0  0
   60.7097   33.6247   44.9965 H   0  0  0  0  0  0  0  0  0  0  0  0
   60.5857   32.2167   46.1279 H   0  0  0  0  0  0  0  0  0  0  0  0
   57.4776   32.2842   43.7902 H   0  0  0  0  0  0  0  0  0  0  0  0
   59.2054   32.0657   44.2745 H   0  0  0  0  0  0  0  0  0  0  0  0
   57.9105   25.1814   48.1699 H   0  0  0  0  0  0  0  0  0  0  0  0
   57.2113   24.3708   46.7275 H   0  0  0  0  0  0  0  0  0  0  0  0
   58.9358   24.8736   46.7275 H   0  0  0  0  0  0  0  0  0  0  0  0
   60.2981   30.1055   47.1089 H   0  0  0  0  0  0  0  0  0  0  0  0
   60.7945   29.2847   45.5901 H   0  0  0  0  0  0  0  0  0  0  0  0
   60.4640   31.0503   45.5901 H   0  0  0  0  0  0  0  0  0  0  0  0
   59.2216   35.7354   46.8209 H   0  0  0  0  0  0  0  0  0  0  0  0
   57.8368   34.8413   47.5619 H   0  0  0  0  0  0  0  0  0  0  0  0
   59.9246   35.5725   49.0327 H   0  0  0  0  0  0  0  0  0  0  0  0
   59.1162   33.9429   49.2452 H   0  0  0  0  0  0  0  0  0  0  0  0
  1  2  1  0
  2  3  2  0
  3  4  1  0
  4  5  2  0
  5  6  1  0
  6  7  2  0
  7  8  1  0
  8  9  1  0
  9 10  1  0
 10 11  1  0
 11 12  1  0
 12 13  1  0
 13 14  2  0
 13 15  1  0
 15 16  1  0
 16 17  2  0
 17 18  1  0
 18 19  1  0
 19 20  1  0
 20 21  2  0
 20 22  1  0
 22 23  1  0
 22 24  1  0
 24 25  2  0
 24 26  1  0
 26 27  1  0
 27 28  1  0
 12 29  1  0
 29 30  1  0
  7  2  1  0
 30  9  1  0
 27 16  1  0
 26 18  2  0
  1 31  1  0
  1 32  1  0
  1 33  1  0
  3 34  1  0
  4 35  1  0
  5 36  1  0
  6 37  1  0
  8 38  1  0
  8 39  1  0
  9 40  1  0
 10 41  1  0
 10 42  1  0
 11 43  1  0
 11 44  1  0
 15 45  1  0
 15 46  1  0
 23 47  1  0
 23 48  1  0
 23 49  1  0
 28 50  1  0
 28 51  1  0
 28 52  1  0
 29 53  1  0
 29 54  1  0
 30 55  1  0
 30 56  1  0
M  CHG  2   9   1  19  -1
M  END
>  <UniqueID>  (11) 
9

>  <SMILES>  (11) 
Cc1ccccc1C[NH+]1CCN(C(=O)Cc2nc3[n-]c(=O)n(C)c(=O)c3n2C)CC1

>  <Energy>  (11) 
119.97274475568757

>  <Genealogy>  (11) 
Cc1ccccc1C[NH+]1CCN(C(=O)Cc2nc3[n-]c(=O)n(C)c(=O)c3n2C)CC1 (protonated)
Cc1ccccc1C[NH+]1CCN(C(=O)Cc2nc3[n-]c(=O)n(C)c(=O)c3n2C)CC1 (3D coordinates assigned)
Cc1ccccc1C[NH+]1CCN(C(=O)Cc2nc3[n-]c(=O)n(C)c(=O)c3n2C)CC1 (nonaromatic ring conformer: 119.97274475568757 kcal/mol)

>  <smiles>  (11) 
Cc1ccccc1CN1CCN(C(=O)Cc2nc3[nH]c(=O)n(C)c(=O)c3n2C)CC1

>  <score_type>  (11) 
oracle

>  <origin>  (11) 
adg

>  <m_score__min__energy>  (11) 
-8.7799999999999994

>  <m_primary>  (11) 
energy

$$$$
11:0
     RDKit          3D

 60 63  0  0  0  0  0  0  0  0999 V2000
   60.8210   26.8290   49.2400 C   0  0  0  0  0  0  0  0  0  0  0  0
   60.0050   27.8110   48.8230 C   0  0  0  0  0  0  0  0  0  0  0  0
   59.2000   27.7990   47.6720 C   0  0  0  0  0  0  0  0  0  0  0  0
   58.8640   26.7950   46.8380 C   0  0  0  0  0  0  0  0  0  0  0  0
   57.4920   26.4040   46.4740 C   0  0  0  0  0  0  0  0  0  0  0  0
   56.9370   25.2080   46.7500 N   0  0  0  0  0  0  0  0  0  0  0  0
   55.6520   25.3650   46.3650 C   0  0  0  0  0  0  0  0  0  0  0  0
   54.7990   24.4440   46.4560 O   0  0  0  0  0  0  0  0  0  0  0  0
   55.3480   26.5920   45.8940 N   0  0  0  0  0  0  0  0  0  0  0  0
   56.5220   27.2390   45.9820 C   0  0  0  0  0  0  0  0  0  0  0  0
   56.7070   28.5700   45.6200 O   0  0  0  0  0  0  0  0  0  0  0  0
   58.7310   29.0900   47.5140 C   0  0  0  0  0  0  0  0  0  0  0  0
   59.1780   29.8130   48.5990 C   0  0  0  0  0  0  0  0  0  0  0  0
   58.8360   31.2270   48.8360 C   0  0  0  0  0  0  0  0  0  0  0  0
   58.4490   31.5780   49.9820 O   0  0  0  0  0  0  0  0  0  0  0  0
   58.9740   32.2090   47.7930 N   0  0  0  0  0  0  0  0  0  0  0  0
   58.1410   33.4140   47.8020 C   0  0  0  0  0  0  0  0  0  0  0  0
   57.8740   33.8460   46.3590 C   0  0  0  0  0  0  0  0  0  0  0  0
   59.1230   34.1300   45.6090 N   0  0  0  0  0  0  0  0  0  0  0  0
   58.9240   33.9440   44.1560 C   0  0  0  0  0  0  0  0  0  0  0  0
   57.7290   33.0200   43.8720 C   0  0  0  0  0  0  0  0  0  0  0  0
   58.0350   31.5460   44.1640 C   0  0  0  0  0  0  0  0  0  0  0  0
   57.0130   30.9650   44.9310 O   0  0  0  0  0  0  0  0  0  0  0  0
   60.3260   33.4100   46.1090 C   0  0  0  0  0  0  0  0  0  0  0  0
   59.9980   32.0540   46.7520 C   0  0  0  0  0  0  0  0  0  0  0  0
   59.9600   29.0450   49.3960 N   0  0  0  0  0  0  0  0  0  0  0  0
   60.7670   29.5190   50.5370 C   0  0  0  0  0  0  0  0  0  0  0  0
   61.5110   30.7850   50.1870 C   0  0  0  0  0  0  0  0  0  0  0  0
   62.2580   30.8510   48.9990 C   0  0  0  0  0  0  0  0  0  0  0  0
   62.9250   32.0270   48.6440 C   0  0  0  0  0  0  0  0  0  0  0  0
   62.8460   33.1520   49.4660 C   0  0  0  0  0  0  0  0  0  0  0  0
   62.0970   33.1040   50.6450 C   0  0  0  0  0  0  0  0  0  0  0  0
   61.4250   31.9300   51.0040 C   0  0  0  0  0  0  0  0  0  0  0  0
   60.7020   31.9160   52.1500 F   0  0  0  0  0  0  0  0  0  0  0  0
   61.4053   26.9544   50.1635 H   0  0  0  0  0  0  0  0  0  0  0  0
   60.9050   25.8994   48.6580 H   0  0  0  0  0  0  0  0  0  0  0  0
   59.6863   26.2175   46.3904 H   0  0  0  0  0  0  0  0  0  0  0  0
   56.4100   29.3190   46.2340 H   0  0  0  0  0  0  0  0  0  0  0  0
   58.1186   29.4677   46.6820 H   0  0  0  0  0  0  0  0  0  0  0  0
   57.1867   33.1989   48.3051 H   0  0  0  0  0  0  0  0  0  0  0  0
   58.6598   34.2203   48.3412 H   0  0  0  0  0  0  0  0  0  0  0  0
   57.3295   33.0403   45.8448 H   0  0  0  0  0  0  0  0  0  0  0  0
   57.2861   34.7752   46.3922 H   0  0  0  0  0  0  0  0  0  0  0  0
   58.7385   34.9235   43.6910 H   0  0  0  0  0  0  0  0  0  0  0  0
   59.8295   33.4808   43.7371 H   0  0  0  0  0  0  0  0  0  0  0  0
   56.8838   33.3349   44.5017 H   0  0  0  0  0  0  0  0  0  0  0  0
   57.4931   33.1034   42.8008 H   0  0  0  0  0  0  0  0  0  0  0  0
   58.1252   31.0015   43.2125 H   0  0  0  0  0  0  0  0  0  0  0  0
   58.9761   31.4878   44.7305 H   0  0  0  0  0  0  0  0  0  0  0  0
   57.1330   29.9830   44.8710 H   0  0  0  0  0  0  0  0  0  0  0  0
   61.0078   33.2395   45.2628 H   0  0  0  0  0  0  0  0  0  0  0  0
   60.7820   34.0386   46.8881 H   0  0  0  0  0  0  0  0  0  0  0  0
   59.6250   31.3676   45.9776 H   0  0  0  0  0  0  0  0  0  0  0  0
   60.9119   31.6494   47.2114 H   0  0  0  0  0  0  0  0  0  0  0  0
   60.1015   29.7174   51.3901 H   0  0  0  0  0  0  0  0  0  0  0  0
   61.5015   28.7412   50.7928 H   0  0  0  0  0  0  0  0  0  0  0  0
   62.3185   29.9702   48.3429 H   0  0  0  0  0  0  0  0  0  0  0  0
   63.5131   32.0658   47.7152 H   0  0  0  0  0  0  0  0  0  0  0  0
   63.3730   34.0761   49.1861 H   0  0  0  0  0  0  0  0  0  0  0  0
   62.0355   33.9912   51.2924 H   0  0  0  0  0  0  0  0  0  0  0  0
  1  2  2  0
  2  3  1  0
  3  4  2  3
  4  5  1  0
  5  6  1  0
  6  7  1  0
  7  8  2  0
  7  9  1  0
  9 10  1  0
 10 11  1  0
  3 12  1  0
 12 13  2  0
 13 14  1  0
 14 15  2  0
 14 16  1  0
 16 17  1  0
 17 18  1  0
 18 19  1  0
 19 20  1  0
 20 21  1  0
 21 22  1  0
 22 23  1  0
 19 24  1  0
 24 25  1  0
 13 26  1  0
 26 27  1  0
 27 28  1  0
 28 29  2  0
 29 30  1  0
 30 31  2  0
 31 32  1  0
 32 33  2  0
 33 34  1  0
 26  2  1  0
 33 28  1  0
 10  5  2  0
 25 16  1  0
  1 35  1  0
  1 36  1  0
  4 37  1  0
 11 38  1  0
 12 39  1  0
 17 40  1  0
 17 41  1  0
 18 42  1  0
 18 43  1  0
 20 44  1  0
 20 45  1  0
 21 46  1  0
 21 47  1  0
 22 48  1  0
 22 49  1  0
 23 50  1  0
 24 51  1  0
 24 52  1  0
 25 53  1  0
 25 54  1  0
 27 55  1  0
 27 56  1  0
 29 57  1  0
 30 58  1  0
 31 59  1  0
 32 60  1  0
M  CHG  2   6  -1   9  -1
M  END
>  <UniqueID>  (12) 
10

>  <SMILES>  (12) 
C=c1c(=Cc2[n-]c(=O)[n-]c2O)cc(C(=O)N2CCN(CCCO)CC2)n1Cc1ccccc1F

>  <Energy>  (12) 
141.20275267625323

>  <Genealogy>  (12) 
C=c1c(=Cc2[n-]c(=O)[n-]c2O)cc(C(=O)N2CCN(CCCO)CC2)n1Cc1ccccc1F (protonated)
C=c1c(=Cc2[n-]c(=O)[n-]c2O)cc(C(=O)N2CCN(CCCO)CC2)n1Cc1ccccc1F (3D coordinates assigned)
C=c1c(=Cc2[n-]c(=O)[n-]c2O)cc(C(=O)N2CCN(CCCO)CC2)n1Cc1ccccc1F (nonaromatic ring conformer: 141.20275267625323 kcal/mol)

>  <smiles>  (12) 
C=c1c(=Cc2[nH]c(=O)[nH]c2O)cc(C(=O)N2CCN(CCCO)CC2)n1Cc1ccccc1F

>  <score_type>  (12) 
oracle

>  <origin>  (12) 
adg

>  <m_score__min__energy>  (12) 
-13.5

>  <m_primary>  (12) 
energy

$$$$
12:0
     RDKit          3D

 63 65  0  0  0  0  0  0  0  0999 V2000
   54.3820   25.2130   45.6200 C   0  0  0  0  0  0  0  0  0  0  0  0
   55.1570   26.3460   46.1020 N   0  0  0  0  0  0  0  0  0  0  0  0
   56.5620   26.2690   46.3560 C   0  0  0  0  0  0  0  0  0  0  0  0
   57.1330   25.1480   46.4450 O   0  0  0  0  0  0  0  0  0  0  0  0
   57.3610   27.5350   46.5110 C   0  0  2  0  0  0  0  0  0  0  0  0
   56.9010   28.6110   45.5120 C   0  0  0  0  0  0  0  0  0  0  0  0
   57.3870   28.3200   44.0810 C   0  0  0  0  0  0  0  0  0  0  0  0
   57.0070   29.4340   43.0930 C   0  0  0  0  0  0  0  0  0  0  0  0
   56.0720   30.4820   43.7110 C   0  0  0  0  0  0  0  0  0  0  0  0
   56.8140   31.3460   44.6270 N   0  0  0  0  0  0  0  0  0  0  0  0
   57.7380   32.3450   44.1650 C   0  0  0  0  0  0  0  0  0  0  0  0
   57.9890   32.4430   42.9320 O   0  0  0  0  0  0  0  0  0  0  0  0
   58.4010   33.2550   45.1240 C   0  0  0  0  0  0  0  0  0  0  0  0
   58.9530   34.4740   44.7020 C   0  0  0  0  0  0  0  0  0  0  0  0
   59.5590   35.3120   45.6390 C   0  0  0  0  0  0  0  0  0  0  0  0
   59.6170   34.9340   46.9810 C   0  0  0  0  0  0  0  0  0  0  0  0
   59.0660   33.7030   47.3780 C   0  0  0  0  0  0  0  0  0  0  0  0
   59.0930   33.2520   48.7940 C   0  0  0  0  0  0  0  0  0  0  0  0
   59.7550   33.9960   49.7920 C   0  0  0  0  0  0  0  0  0  0  0  0
   59.7740   33.5480   51.1160 C   0  0  0  0  0  0  0  0  0  0  0  0
   59.1400   32.3520   51.4610 C   0  0  0  0  0  0  0  0  0  0  0  0
   58.4910   31.5980   50.4800 C   0  0  0  0  0  0  0  0  0  0  0  0
   58.4700   32.0420   49.1540 C   0  0  0  0  0  0  0  0  0  0  0  0
   58.4740   32.9120   46.4390 N   0  0  0  0  0  0  0  0  0  0  0  0
   58.7760   27.2510   46.2920 N   0  0  0  0  0  0  0  0  0  0  0  0
   59.7380   28.2540   45.9540 C   0  0  0  0  0  0  0  0  0  0  0  0
   60.4180   28.1500   44.8960 O   0  0  0  0  0  0  0  0  0  0  0  0
   59.9110   29.3470   46.8080 O   0  0  0  0  0  0  0  0  0  0  0  0
   60.4460   30.5980   46.3800 C   0  0  0  0  0  0  0  0  0  0  0  0
   61.3680   31.1600   47.4280 C   0  0  0  0  0  0  0  0  0  0  0  0
   62.1880   32.2580   47.1240 C   0  0  0  0  0  0  0  0  0  0  0  0
   63.0670   32.7690   48.0840 C   0  0  0  0  0  0  0  0  0  0  0  0
   63.1330   32.1870   49.3530 C   0  0  0  0  0  0  0  0  0  0  0  0
   62.3230   31.0900   49.6620 C   0  0  0  0  0  0  0  0  0  0  0  0
   61.4440   30.5770   48.7040 C   0  0  0  0  0  0  0  0  0  0  0  0
   53.9927   24.6439   46.4770 H   0  0  0  0  0  0  0  0  0  0  0  0
   53.5424   25.5763   45.0093 H   0  0  0  0  0  0  0  0  0  0  0  0
   55.0250   24.5622   45.0093 H   0  0  0  0  0  0  0  0  0  0  0  0
   57.2033   27.9153   47.5311 H   0  0  0  0  0  0  0  0  0  0  0  0
   55.8016   28.6481   45.5123 H   0  0  0  0  0  0  0  0  0  0  0  0
   57.3336   29.5720   45.8271 H   0  0  0  0  0  0  0  0  0  0  0  0
   58.4822   28.2185   44.0941 H   0  0  0  0  0  0  0  0  0  0  0  0
   56.8992   27.3934   43.7441 H   0  0  0  0  0  0  0  0  0  0  0  0
   57.9267   29.9366   42.7590 H   0  0  0  0  0  0  0  0  0  0  0  0
   56.4714   28.9650   42.2544 H   0  0  0  0  0  0  0  0  0  0  0  0
   55.6332   31.0945   42.9096 H   0  0  0  0  0  0  0  0  0  0  0  0
   55.2767   29.9670   44.2698 H   0  0  0  0  0  0  0  0  0  0  0  0
   56.6880   31.1940   45.6520 H   0  0  0  0  0  0  0  0  0  0  0  0
   58.9085   34.7664   43.6425 H   0  0  0  0  0  0  0  0  0  0  0  0
   59.9914   36.2716   45.3193 H   0  0  0  0  0  0  0  0  0  0  0  0
   60.0903   35.5942   47.7227 H   0  0  0  0  0  0  0  0  0  0  0  0
   60.2605   34.9363   49.5267 H   0  0  0  0  0  0  0  0  0  0  0  0
   60.2893   34.1385   51.8879 H   0  0  0  0  0  0  0  0  0  0  0  0
   59.1517   32.0040   52.5044 H   0  0  0  0  0  0  0  0  0  0  0  0
   57.9959   30.6538   50.7510 H   0  0  0  0  0  0  0  0  0  0  0  0
   57.9623   31.4405   48.3856 H   0  0  0  0  0  0  0  0  0  0  0  0
   61.0065   30.4517   45.4449 H   0  0  0  0  0  0  0  0  0  0  0  0
   59.6179   31.3036   46.2177 H   0  0  0  0  0  0  0  0  0  0  0  0
   62.1389   32.7185   46.1262 H   0  0  0  0  0  0  0  0  0  0  0  0
   63.7071   33.6298   47.8402 H   0  0  0  0  0  0  0  0  0  0  0  0
   63.8222   32.5920   50.1087 H   0  0  0  0  0  0  0  0  0  0  0  0
   62.3776   30.6303   50.6599 H   0  0  0  0  0  0  0  0  0  0  0  0
   60.8090   29.7131   48.9501 H   0  0  0  0  0  0  0  0  0  0  0  0
  1  2  1  0
  2  3  1  0
  3  4  2  0
  3  5  1  0
  5  6  1  0
  6  7  1  0
  7  8  1  0
  8  9  1  0
  9 10  1  0
 10 11  1  0
 11 12  2  0
 11 13  1  0
 13 14  2  0
 14 15  1  0
 15 16  2  0
 16 17  1  0
 17 18  1  0
 18 19  2  0
 19 20  1  0
 20 21  2  0
 21 22  1  0
 22 23  2  0
 17 24  2  0
  5 25  1  0
 25 26  1  0
 26 27  2  0
 26 28  1  0
 28 29  1  0
 29 30  1  0
 30 31  2  0
 31 32  1  0
 32 33  2  0
 33 34  1  0
 34 35  2  0
 24 13  1  0
 35 30  1  0
 23 18  1  0
  1 36  1  0
  1 37  1  0
  1 38  1  0
  5 39  1  1
  6 40  1  0
  6 41  1  0
  7 42  1  0
  7 43  1  0
  8 44  1  0
  8 45  1  0
  9 46  1  0
  9 47  1  0
 10 48  1  0
 14 49  1  0
 15 50  1  0
 16 51  1  0
 19 52  1  0
 20 53  1  0
 21 54  1  0
 22 55  1  0
 23 56  1  0
 29 57  1  0
 29 58  1  0
 31 59  1  0
 32 60  1  0
 33 61  1  0
 34 62  1  0
 35 63  1  0
M  CHG  2   2  -1  25  -1
M  END
>  <UniqueID>  (13) 
11

>  <SMILES>  (13) 
C[N-]C(=O)[C@H](CCCCNC(=O)c1cccc(-c2ccccc2)n1)[N-]C(=O)OCc1ccccc1

>  <Energy>  (13) 
53.63804869876307

>  <Genealogy>  (13) 
C[N-]C(=O)C(CCCCNC(=O)c1cccc(-c2ccccc2)n1)[N-]C(=O)OCc1ccccc1 (protonated)
C[N-]C(=O)[C@H](CCCCNC(=O)c1cccc(-c2ccccc2)n1)[N-]C(=O)OCc1ccccc1 (chirality)
C[N-]C(=O)[C@H](CCCCNC(=O)c1cccc(-c2ccccc2)n1)[N-]C(=O)OCc1ccccc1 (3D coordinates assigned)
C[N-]C(=O)[C@H](CCCCNC(=O)c1cccc(-c2ccccc2)n1)[N-]C(=O)OCc1ccccc1 (optimized conformer: 53.63804869876307 kcal/mol)

>  <smiles>  (13) 
CNC(=O)C(CCCCNC(=O)c1cccc(-c2ccccc2)n1)NC(=O)OCc1ccccc1

>  <score_type>  (13) 
oracle

>  <origin>  (13) 
adg

>  <m_score__min__energy>  (13) 
-13

>  <m_primary>  (13) 
energy

$$$$
13:0
     RDKit          3D

 59 63  0  0  0  0  0  0  0  0999 V2000
   63.3700   33.7200   50.4540 C   0  0  0  0  0  0  0  0  0  0  0  0
   63.0250   34.4500   49.2450 N   0  0  0  0  0  0  0  0  0  0  0  0
   62.9750   33.8350   47.9540 C   0  0  0  0  0  0  0  0  0  0  0  0
   63.7830   34.1980   47.0570 O   0  0  0  0  0  0  0  0  0  0  0  0
   62.0030   32.7520   47.6740 C   0  0  0  0  0  0  0  0  0  0  0  0
   62.4690   31.5450   47.1230 C   0  0  0  0  0  0  0  0  0  0  0  0
   61.5990   30.4740   46.9090 C   0  0  0  0  0  0  0  0  0  0  0  0
   60.2400   30.5780   47.2460 C   0  0  0  0  0  0  0  0  0  0  0  0
   59.3090   29.4440   47.0040 C   0  0  0  0  0  0  0  0  0  0  0  0
   58.2350   29.5800   46.1060 C   0  0  0  0  0  0  0  0  0  0  0  0
   57.3540   28.5170   45.8840 C   0  0  0  0  0  0  0  0  0  0  0  0
   57.5330   27.2930   46.5490 C   0  0  0  0  0  0  0  0  0  0  0  0
   56.6020   26.1660   46.3120 C   0  0  0  0  0  0  0  0  0  0  0  0
   55.2920   26.3440   45.9910 N   0  0  0  0  0  0  0  0  0  0  0  0
   54.8460   25.0840   45.8670 C   0  0  0  0  0  0  0  0  0  0  0  0
   53.5590   24.6640   45.5450 C   0  0  0  0  0  0  0  0  0  0  0  0
   53.3200   23.2760   45.4670 C   0  0  0  0  0  0  0  0  0  0  0  0
   51.7100   22.6830   45.0750 S   0  0  0  0  0  0  0  0  0  0  0  0
   51.6590   20.9640   45.2500 N   0  0  0  0  0  0  0  0  0  0  0  0
   51.3750   23.0510   43.6580 O   0  0  0  0  0  0  0  0  0  0  0  0
   50.6970   23.2910   46.0020 O   0  0  0  0  0  0  0  0  0  0  0  0
   54.3710   22.3610   45.7250 C   0  0  0  0  0  0  0  0  0  0  0  0
   55.6600   22.8280   46.0440 C   0  0  0  0  0  0  0  0  0  0  0  0
   55.8540   24.2040   46.1030 C   0  0  0  0  0  0  0  0  0  0  0  0
   56.9860   24.8610   46.3910 N   0  0  0  0  0  0  0  0  0  0  0  0
   58.6100   27.1530   47.4410 C   0  0  0  0  0  0  0  0  0  0  0  0
   59.4860   28.2180   47.6690 C   0  0  0  0  0  0  0  0  0  0  0  0
   59.7710   31.7800   47.7950 C   0  0  0  0  0  0  0  0  0  0  0  0
   60.6280   32.8730   47.9860 C   0  0  0  0  0  0  0  0  0  0  0  0
   60.0530   34.1200   48.4060 N   0  0  0  0  0  0  0  0  0  0  0  0
   59.5170   35.0710   47.4310 C   0  0  0  0  0  0  0  0  0  0  0  0
   58.8310   34.3370   46.3090 C   0  0  0  0  0  0  0  0  0  0  0  0
   57.6120   33.6770   46.5390 C   0  0  0  0  0  0  0  0  0  0  0  0
   57.0150   32.9280   45.5220 C   0  0  0  0  0  0  0  0  0  0  0  0
   57.6330   32.8260   44.2740 C   0  0  0  0  0  0  0  0  0  0  0  0
   58.8500   33.4710   44.0410 C   0  0  0  0  0  0  0  0  0  0  0  0
   59.4520   34.2200   45.0550 C   0  0  0  0  0  0  0  0  0  0  0  0
   63.0885   34.3156   51.3349 H   0  0  0  0  0  0  0  0  0  0  0  0
   62.8292   32.7622   50.4709 H   0  0  0  0  0  0  0  0  0  0  0  0
   64.4533   33.5298   50.4709 H   0  0  0  0  0  0  0  0  0  0  0  0
   63.5316   31.4434   46.8574 H   0  0  0  0  0  0  0  0  0  0  0  0
   61.9820   29.5399   46.4722 H   0  0  0  0  0  0  0  0  0  0  0  0
   58.0868   30.5311   45.5736 H   0  0  0  0  0  0  0  0  0  0  0  0
   56.5148   28.6404   45.1836 H   0  0  0  0  0  0  0  0  0  0  0  0
   52.7546   25.3904   45.3575 H   0  0  0  0  0  0  0  0  0  0  0  0
   52.6500   20.6280   45.2450 H   0  0  0  0  0  0  0  0  0  0  0  0
   54.1783   21.2791   45.6757 H   0  0  0  0  0  0  0  0  0  0  0  0
   56.4859   22.1284   46.2400 H   0  0  0  0  0  0  0  0  0  0  0  0
   58.7648   26.1977   47.9639 H   0  0  0  0  0  0  0  0  0  0  0  0
   60.3209   28.0959   48.3747 H   0  0  0  0  0  0  0  0  0  0  0  0
   58.7123   31.8669   48.0808 H   0  0  0  0  0  0  0  0  0  0  0  0
   59.7140   34.1930   49.3930 H   0  0  0  0  0  0  0  0  0  0  0  0
   58.7923   35.7319   47.9290 H   0  0  0  0  0  0  0  0  0  0  0  0
   60.3453   35.6648   47.0170 H   0  0  0  0  0  0  0  0  0  0  0  0
   57.1261   33.7503   47.5232 H   0  0  0  0  0  0  0  0  0  0  0  0
   56.0575   32.4183   45.7045 H   0  0  0  0  0  0  0  0  0  0  0  0
   57.1611   32.2372   43.4736 H   0  0  0  0  0  0  0  0  0  0  0  0
   59.3352   33.3890   43.0572 H   0  0  0  0  0  0  0  0  0  0  0  0
   60.4147   34.7193   44.8707 H   0  0  0  0  0  0  0  0  0  0  0  0
  1  2  1  0
  2  3  1  0
  3  4  2  0
  3  5  1  0
  5  6  2  0
  6  7  1  0
  7  8  2  0
  8  9  1  0
  9 10  2  0
 10 11  1  0
 11 12  2  0
 12 13  1  0
 13 14  2  0
 14 15  1  0
 15 16  2  0
 16 17  1  0
 17 18  1  0
 18 19  1  0
 18 20  2  0
 18 21  2  0
 17 22  2  0
 22 23  1  0
 23 24  2  0
 24 25  1  0
 12 26  1  0
 26 27  2  0
  8 28  1  0
 28 29  2  0
 29 30  1  0
 30 31  1  0
 31 32  1  0
 32 33  2  0
 33 34  1  0
 34 35  2  0
 35 36  1  0
 36 37  2  0
 29  5  1  0
 37 32  1  0
 27  9  1  0
 25 13  1  0
 24 15  1  0
  1 38  1  0
  1 39  1  0
  1 40  1  0
  6 41  1  0
  7 42  1  0
 10 43  1  0
 11 44  1  0
 16 45  1  0
 19 46  1  0
 22 47  1  0
 23 48  1  0
 26 49  1  0
 27 50  1  0
 28 51  1  0
 30 52  1  0
 31 53  1  0
 31 54  1  0
 33 55  1  0
 34 56  1  0
 35 57  1  0
 36 58  1  0
 37 59  1  0
M  CHG  3   2  -1  19  -1  25  -1
M  END
>  <UniqueID>  (14) 
12

>  <SMILES>  (14) 
C[N-]C(=O)c1ccc(-c2ccc(-c3nc4cc(S([NH-])(=O)=O)ccc4[n-]3)cc2)cc1NCc1ccccc1

>  <Energy>  (14) 
109.45835047348224

>  <Genealogy>  (14) 
C[N-]C(=O)c1ccc(-c2ccc(-c3nc4cc(S([NH-])(=O)=O)ccc4[n-]3)cc2)cc1NCc1ccccc1 (protonated)
C[N-]C(=O)c1ccc(-c2ccc(-c3nc4cc(S([NH-])(=O)=O)ccc4[n-]3)cc2)cc1NCc1ccccc1 (3D coordinates assigned)
C[N-]C(=O)c1ccc(-c2ccc(-c3nc4cc(S([NH-])(=O)=O)ccc4[n-]3)cc2)cc1NCc1ccccc1 (optimized conformer: 109.45835047348224 kcal/mol)

>  <smiles>  (14) 
CNC(=O)c1ccc(-c2ccc(-c3nc4cc(S(N)(=O)=O)ccc4[nH]3)cc2)cc1NCc1ccccc1

>  <score_type>  (14) 
oracle

>  <origin>  (14) 
adg

>  <m_score__min__energy>  (14) 
-13.27

>  <m_primary>  (14) 
energy

$$$$
14:0
     RDKit          3D

 52 54  0  0  0  0  0  0  0  0999 V2000
   62.3140   30.7800   51.4780 C   0  0  0  0  0  0  0  0  0  0  0  0
   63.2380   30.9830   50.4150 O   0  0  0  0  0  0  0  0  0  0  0  0
   62.9530   31.6820   49.2310 C   0  0  0  0  0  0  0  0  0  0  0  0
   63.6750   32.8340   48.8590 C   0  0  0  0  0  0  0  0  0  0  0  0
   63.4160   33.4710   47.6430 C   0  0  0  0  0  0  0  0  0  0  0  0
   62.4450   32.9630   46.7800 C   0  0  0  0  0  0  0  0  0  0  0  0
   61.7150   31.8300   47.1410 C   0  0  0  0  0  0  0  0  0  0  0  0
   61.9380   31.2020   48.3730 C   0  0  0  0  0  0  0  0  0  0  0  0
   61.1610   30.0410   48.6940 N   0  0  0  0  0  0  0  0  0  0  0  0
   59.8430   29.7560   48.2090 C   0  0  0  0  0  0  0  0  0  0  0  0
   58.9030   30.5670   48.4340 O   0  0  0  0  0  0  0  0  0  0  0  0
   59.6000   28.5820   47.4070 N   0  0  0  0  0  0  0  0  0  0  0  0
   58.3720   27.8000   47.6240 C   0  0  0  0  0  0  0  0  0  0  0  0
   58.2360   26.6620   46.6030 C   0  0  0  0  0  0  0  0  0  0  0  0
   58.4490   27.1690   45.1660 C   0  0  0  0  0  0  0  0  0  0  0  0
   59.6940   28.0940   44.9980 C   0  0  1  0  0  0  0  0  0  0  0  0
   59.2700   29.4890   44.4900 C   0  0  0  0  0  0  0  0  0  0  0  0
   58.2420   30.0670   45.3610 N   0  0  0  0  0  0  0  0  0  0  0  0
   57.6170   31.5250   44.6520 S   0  0  0  0  0  0  0  0  0  0  0  0
   56.1290   31.5750   44.8550 O   0  0  0  0  0  0  0  0  0  0  0  0
   57.8960   31.5280   43.1750 O   0  0  0  0  0  0  0  0  0  0  0  0
   58.3520   32.9380   45.4080 C   0  0  0  0  0  0  0  0  0  0  0  0
   58.6670   34.0700   44.6430 C   0  0  0  0  0  0  0  0  0  0  0  0
   59.2720   35.1780   45.2450 C   0  0  0  0  0  0  0  0  0  0  0  0
   59.5680   35.1580   46.6110 C   0  0  0  0  0  0  0  0  0  0  0  0
   59.2620   34.0280   47.3770 C   0  0  0  0  0  0  0  0  0  0  0  0
   59.6420   34.0000   49.0900 Cl  0  0  0  0  0  0  0  0  0  0  0  0
   58.6570   32.9180   46.7760 C   0  0  0  0  0  0  0  0  0  0  0  0
   60.5000   28.2070   46.3070 C   0  0  0  0  0  0  0  0  0  0  0  0
   62.8326   30.8939   52.4414 H   0  0  0  0  0  0  0  0  0  0  0  0
   61.5049   31.5218   51.4072 H   0  0  0  0  0  0  0  0  0  0  0  0
   61.8903   29.7674   51.4072 H   0  0  0  0  0  0  0  0  0  0  0  0
   64.4482   33.2344   49.5312 H   0  0  0  0  0  0  0  0  0  0  0  0
   63.9787   34.3746   47.3656 H   0  0  0  0  0  0  0  0  0  0  0  0
   62.2548   33.4555   45.8150 H   0  0  0  0  0  0  0  0  0  0  0  0
   60.9580   31.4266   46.4523 H   0  0  0  0  0  0  0  0  0  0  0  0
   58.3975   27.3698   48.6361 H   0  0  0  0  0  0  0  0  0  0  0  0
   57.5107   28.4735   47.5036 H   0  0  0  0  0  0  0  0  0  0  0  0
   58.9874   25.8900   46.8253 H   0  0  0  0  0  0  0  0  0  0  0  0
   57.2190   26.2496   46.6775 H   0  0  0  0  0  0  0  0  0  0  0  0
   58.5740   26.2975   44.5066 H   0  0  0  0  0  0  0  0  0  0  0  0
   57.5666   27.7726   44.9072 H   0  0  0  0  0  0  0  0  0  0  0  0
   60.3523   27.6343   44.2461 H   0  0  0  0  0  0  0  0  0  0  0  0
   60.1480   30.1515   44.4788 H   0  0  0  0  0  0  0  0  0  0  0  0
   58.8571   29.3857   43.4757 H   0  0  0  0  0  0  0  0  0  0  0  0
   58.6930   30.3340   46.2670 H   0  0  0  0  0  0  0  0  0  0  0  0
   58.4379   34.0867   43.5673 H   0  0  0  0  0  0  0  0  0  0  0  0
   59.5151   36.0660   44.6430 H   0  0  0  0  0  0  0  0  0  0  0  0
   60.0417   36.0310   47.0838 H   0  0  0  0  0  0  0  0  0  0  0  0
   58.4205   32.0284   47.3783 H   0  0  0  0  0  0  0  0  0  0  0  0
   60.9705   27.2386   46.5324 H   0  0  0  0  0  0  0  0  0  0  0  0
   61.2785   28.9757   46.1925 H   0  0  0  0  0  0  0  0  0  0  0  0
  1  2  1  0
  2  3  1  0
  3  4  2  0
  4  5  1  0
  5  6  2  0
  6  7  1  0
  7  8  2  0
  8  9  1  0
  9 10  1  0
 10 11  2  0
 10 12  1  0
 12 13  1  0
 13 14  1  0
 14 15  1  0
 15 16  1  0
 16 17  1  0
 17 18  1  0
 18 19  1  0
 19 20  2  0
 19 21  2  0
 19 22  1  0
 22 23  2  0
 23 24  1  0
 24 25  2  0
 25 26  1  0
 26 27  1  0
 26 28  2  0
 16 29  1  0
  8  3  1  0
 29 12  1  0
 28 22  1  0
  1 30  1  0
  1 31  1  0
  1 32  1  0
  4 33  1  0
  5 34  1  0
  6 35  1  0
  7 36  1  0
 13 37  1  0
 13 38  1  0
 14 39  1  0
 14 40  1  0
 15 41  1  0
 15 42  1  0
 16 43  1  6
 17 44  1  0
 17 45  1  0
 18 46  1  0
 23 47  1  0
 24 48  1  0
 25 49  1  0
 28 50  1  0
 29 51  1  0
 29 52  1  0
M  CHG  1   9  -1
M  END
>  <UniqueID>  (15) 
13

>  <SMILES>  (15) 
COc1ccccc1[N-]C(=O)N1CCC[C@@H](CNS(=O)(=O)c2cccc(Cl)c2)C1

>  <Energy>  (15) 
55.22294164829962

>  <Genealogy>  (15) 
COc1ccccc1[N-]C(=O)N1CCCC(CNS(=O)(=O)c2cccc(Cl)c2)C1 (protonated)
COc1ccccc1[N-]C(=O)N1CCC[C@@H](CNS(=O)(=O)c2cccc(Cl)c2)C1 (chirality)
COc1ccccc1[N-]C(=O)N1CCC[C@@H](CNS(=O)(=O)c2cccc(Cl)c2)C1 (3D coordinates assigned)
COc1ccccc1[N-]C(=O)N1CCC[C@@H](CNS(=O)(=O)c2cccc(Cl)c2)C1 (nonaromatic ring conformer: 55.22294164829962 kcal/mol)

>  <smiles>  (15) 
COc1ccccc1NC(=O)N1CCCC(CNS(=O)(=O)c2cccc(Cl)c2)C1

>  <score_type>  (15) 
oracle

>  <origin>  (15) 
adg

>  <m_score__min__energy>  (15) 
-12.720000000000001

>  <m_primary>  (15) 
energy

$$$$
15:0
     RDKit          3D

 45 47  0  0  0  0  0  0  0  0999 V2000
   55.8950   30.1080   44.1700 C   0  0  0  0  0  0  0  0  0  0  0  0
   56.6830   31.0540   44.8820 O   0  0  0  0  0  0  0  0  0  0  0  0
   57.4530   32.0290   44.2390 C   0  0  0  0  0  0  0  0  0  0  0  0
   57.4380   32.1320   42.9820 O   0  0  0  0  0  0  0  0  0  0  0  0
   58.2830   32.9390   45.0340 C   0  0  0  0  0  0  0  0  0  0  0  0
   58.0050   33.4200   46.2930 C   0  0  0  0  0  0  0  0  0  0  0  0
   59.0400   34.2110   46.6210 N   0  0  0  0  0  0  0  0  0  0  0  0
   59.2450   34.8990   47.8910 C   0  0  0  0  0  0  0  0  0  0  0  0
   59.6980   33.9010   48.9600 C   0  0  0  0  0  0  0  0  0  0  0  0
   61.1550   33.5430   48.7780 C   0  0  0  0  0  0  0  0  0  0  0  0
   62.1200   34.2590   49.5100 C   0  0  0  0  0  0  0  0  0  0  0  0
   63.4750   33.9540   49.3860 C   0  0  0  0  0  0  0  0  0  0  0  0
   63.8870   32.9390   48.5260 C   0  0  0  0  0  0  0  0  0  0  0  0
   62.9460   32.2290   47.7780 C   0  0  0  0  0  0  0  0  0  0  0  0
   61.5730   32.5210   47.8890 C   0  0  0  0  0  0  0  0  0  0  0  0
   60.6180   31.7910   47.0970 N   0  0  0  0  0  0  0  0  0  0  0  0
   59.7470   30.4250   47.7180 S   0  0  0  0  0  0  0  0  0  0  0  0
   58.5400   30.9100   48.4700 O   0  0  0  0  0  0  0  0  0  0  0  0
   60.6330   29.6540   48.6550 O   0  0  0  0  0  0  0  0  0  0  0  0
   59.2760   29.3700   46.3900 C   0  0  0  0  0  0  0  0  0  0  0  0
   60.0350   29.3560   45.2110 C   0  0  0  0  0  0  0  0  0  0  0  0
   59.6580   28.5380   44.1420 C   0  0  0  0  0  0  0  0  0  0  0  0
   58.5230   27.7270   44.2460 C   0  0  0  0  0  0  0  0  0  0  0  0
   58.0500   26.7030   42.9030 Cl  0  0  0  0  0  0  0  0  0  0  0  0
   57.7660   27.7340   45.4220 C   0  0  0  0  0  0  0  0  0  0  0  0
   58.1400   28.5530   46.4920 C   0  0  0  0  0  0  0  0  0  0  0  0
   59.9120   34.2020   45.6250 N   0  0  0  0  0  0  0  0  0  0  0  0
   59.4710   33.4370   44.6360 N   0  0  0  0  0  0  0  0  0  0  0  0
   55.3596   29.4652   44.8842 H   0  0  0  0  0  0  0  0  0  0  0  0
   55.1679   30.6384   43.5375 H   0  0  0  0  0  0  0  0  0  0  0  0
   56.5481   29.4887   43.5375 H   0  0  0  0  0  0  0  0  0  0  0  0
   57.1175   33.2016   46.9051 H   0  0  0  0  0  0  0  0  0  0  0  0
   60.0161   35.6734   47.7655 H   0  0  0  0  0  0  0  0  0  0  0  0
   58.2989   35.3624   48.2074 H   0  0  0  0  0  0  0  0  0  0  0  0
   59.5586   34.3499   49.9545 H   0  0  0  0  0  0  0  0  0  0  0  0
   59.0958   32.9854   48.8650 H   0  0  0  0  0  0  0  0  0  0  0  0
   61.8027   35.0666   50.1861 H   0  0  0  0  0  0  0  0  0  0  0  0
   64.2198   34.5161   49.9685 H   0  0  0  0  0  0  0  0  0  0  0  0
   64.9561   32.6962   48.4359 H   0  0  0  0  0  0  0  0  0  0  0  0
   63.2804   31.4339   47.0954 H   0  0  0  0  0  0  0  0  0  0  0  0
   60.3450   32.1340   46.1510 H   0  0  0  0  0  0  0  0  0  0  0  0
   60.9296   29.9905   45.1271 H   0  0  0  0  0  0  0  0  0  0  0  0
   60.2546   28.5320   43.2179 H   0  0  0  0  0  0  0  0  0  0  0  0
   56.8750   27.0943   45.5054 H   0  0  0  0  0  0  0  0  0  0  0  0
   57.5423   28.5567   47.4155 H   0  0  0  0  0  0  0  0  0  0  0  0
  1  2  1  0
  2  3  1  0
  3  4  2  0
  3  5  1  0
  5  6  2  0
  6  7  1  0
  7  8  1  0
  8  9  1  0
  9 10  1  0
 10 11  2  0
 11 12  1  0
 12 13  2  0
 13 14  1  0
 14 15  2  0
 15 16  1  0
 16 17  1  0
 17 18  2  0
 17 19  2  0
 17 20  1  0
 20 21  2  0
 21 22  1  0
 22 23  2  0
 23 24  1  0
 23 25  1  0
 25 26  2  0
  7 27  1  0
 27 28  2  0
 28  5  1  0
 15 10  1  0
 26 20  1  0
  1 29  1  0
  1 30  1  0
  1 31  1  0
  6 32  1  0
  8 33  1  0
  8 34  1  0
  9 35  1  0
  9 36  1  0
 11 37  1  0
 12 38  1  0
 13 39  1  0
 14 40  1  0
 16 41  1  0
 21 42  1  0
 22 43  1  0
 25 44  1  0
 26 45  1  0
M  END
>  <UniqueID>  (16) 
14

>  <SMILES>  (16) 
COC(=O)c1cn(CCc2ccccc2NS(=O)(=O)c2ccc(Cl)cc2)nn1

>  <Energy>  (16) 
79.79501921617448

>  <Genealogy>  (16) 
COC(=O)c1cn(CCc2ccccc2NS(=O)(=O)c2ccc(Cl)cc2)nn1 (3D coordinates assigned)
COC(=O)c1cn(CCc2ccccc2NS(=O)(=O)c2ccc(Cl)cc2)nn1 (optimized conformer: 79.79501921617448 kcal/mol)

>  <smiles>  (16) 
COC(=O)c1cn(CCc2ccccc2NS(=O)(=O)c2ccc(Cl)cc2)nn1

>  <score_type>  (16) 
oracle

>  <origin>  (16) 
adg

>  <m_score__min__energy>  (16) 
-9.5700000000000003

>  <m_primary>  (16) 
energy

$$$$
16:0
     RDKit          3D

 40 42  0  0  0  0  0  0  0  0999 V2000
   62.5130   34.2620   48.9800 C   0  0  0  0  0  0  0  0  0  0  0  0
   61.7550   33.2590   48.2290 N   0  0  0  0  0  0  0  0  0  0  0  0
   60.5680   33.6360   47.4980 C   0  0  0  0  0  0  0  0  0  0  0  0
   59.2890   33.3340   48.0030 C   0  0  0  0  0  0  0  0  0  0  0  0
   58.1400   33.6930   47.2900 C   0  0  0  0  0  0  0  0  0  0  0  0
   58.2540   34.3540   46.0660 C   0  0  0  0  0  0  0  0  0  0  0  0
   59.5160   34.6560   45.5500 C   0  0  0  0  0  0  0  0  0  0  0  0
   60.6670   34.3000   46.2590 C   0  0  0  0  0  0  0  0  0  0  0  0
   62.3000   31.6040   48.2520 S   0  0  0  0  0  0  0  0  0  0  0  0
   62.7460   31.2380   49.6410 O   0  0  0  0  0  0  0  0  0  0  0  0
   63.4720   31.4630   47.3210 O   0  0  0  0  0  0  0  0  0  0  0  0
   61.0090   30.5160   47.7500 C   0  0  0  0  0  0  0  0  0  0  0  0
   60.2260   29.8720   48.7160 C   0  0  0  0  0  0  0  0  0  0  0  0
   59.1990   29.0070   48.3280 C   0  0  0  0  0  0  0  0  0  0  0  0
   58.9310   28.7910   46.9720 C   0  0  0  0  0  0  0  0  0  0  0  0
   57.8880   27.8760   46.6060 N   0  0  0  0  0  0  0  0  0  0  0  0
   56.8410   28.1230   45.6600 C   0  0  0  0  0  0  0  0  0  0  0  0
   55.8630   27.3320   45.6140 O   0  0  0  0  0  0  0  0  0  0  0  0
   56.8470   29.3170   44.7930 C   0  0  0  0  0  0  0  0  0  0  0  0
   56.6930   29.3180   43.4200 C   0  0  0  0  0  0  0  0  0  0  0  0
   56.7520   30.6410   43.0410 C   0  0  0  0  0  0  0  0  0  0  0  0
   56.9330   31.3660   44.2030 C   0  0  0  0  0  0  0  0  0  0  0  0
   56.9820   30.5480   45.2290 O   0  0  0  0  0  0  0  0  0  0  0  0
   59.7330   29.4170   46.0030 C   0  0  0  0  0  0  0  0  0  0  0  0
   60.7590   30.2840   46.3900 C   0  0  0  0  0  0  0  0  0  0  0  0
   62.3821   34.0888   50.0584 H   0  0  0  0  0  0  0  0  0  0  0  0
   63.5797   34.1838   48.7229 H   0  0  0  0  0  0  0  0  0  0  0  0
   62.1466   35.2668   48.7229 H   0  0  0  0  0  0  0  0  0  0  0  0
   59.1923   32.8115   48.9661 H   0  0  0  0  0  0  0  0  0  0  0  0
   57.1454   33.4540   47.6946 H   0  0  0  0  0  0  0  0  0  0  0  0
   57.3495   34.6371   45.5077 H   0  0  0  0  0  0  0  0  0  0  0  0
   59.6045   35.1748   44.5841 H   0  0  0  0  0  0  0  0  0  0  0  0
   61.6580   34.5401   45.8464 H   0  0  0  0  0  0  0  0  0  0  0  0
   60.4200   30.0476   49.7844 H   0  0  0  0  0  0  0  0  0  0  0  0
   58.5982   28.4933   49.0930 H   0  0  0  0  0  0  0  0  0  0  0  0
   56.5526   28.4447   42.7661 H   0  0  0  0  0  0  0  0  0  0  0  0
   56.6713   31.0399   42.0190 H   0  0  0  0  0  0  0  0  0  0  0  0
   57.0224   32.4609   44.2600 H   0  0  0  0  0  0  0  0  0  0  0  0
   59.5528   29.2240   44.9352 H   0  0  0  0  0  0  0  0  0  0  0  0
   61.3715   30.7852   45.6260 H   0  0  0  0  0  0  0  0  0  0  0  0
  1  2  1  0
  2  3  1  0
  3  4  2  0
  4  5  1  0
  5  6  2  0
  6  7  1  0
  7  8  2  0
  2  9  1  0
  9 10  2  0
  9 11  2  0
  9 12  1  0
 12 13  2  0
 13 14  1  0
 14 15  2  0
 15 16  1  0
 16 17  1  0
 17 18  2  0
 17 19  1  0
 19 20  2  0
 20 21  1  0
 21 22  2  0
 22 23  1  0
 15 24  1  0
 24 25  2  0
  8  3  1  0
 25 12  1  0
 23 19  1  0
  1 26  1  0
  1 27  1  0
  1 28  1  0
  4 29  1  0
  5 30  1  0
  6 31  1  0
  7 32  1  0
  8 33  1  0
 13 34  1  0
 14 35  1  0
 20 36  1  0
 21 37  1  0
 22 38  1  0
 24 39  1  0
 25 40  1  0
M  CHG  1  16  -1
M  END
>  <UniqueID>  (17) 
15

>  <SMILES>  (17) 
CN(c1ccccc1)S(=O)(=O)c1ccc([N-]C(=O)c2ccco2)cc1

>  <Energy>  (17) 
76.78508833727666

>  <Genealogy>  (17) 
CN(c1ccccc1)S(=O)(=O)c1ccc([N-]C(=O)c2ccco2)cc1 (protonated)
CN(c1ccccc1)S(=O)(=O)c1ccc([N-]C(=O)c2ccco2)cc1 (3D coordinates assigned)
CN(c1ccccc1)S(=O)(=O)c1ccc([N-]C(=O)c2ccco2)cc1 (optimized conformer: 76.78508833727666 kcal/mol)

>  <smiles>  (17) 
CN(c1ccccc1)S(=O)(=O)c1ccc(NC(=O)c2ccco2)cc1

>  <score_type>  (17) 
oracle

>  <origin>  (17) 
adg

>  <m_score__min__energy>  (17) 
-9.75

>  <m_primary>  (17) 
energy

$$$$
17:0
     RDKit          3D

 63 66  0  0  0  0  0  0  0  0999 V2000
   57.9060   32.6940   52.2550 C   0  0  0  0  0  0  0  0  0  0  0  0
   57.8450   32.2800   50.7880 C   0  0  0  0  0  0  0  0  0  0  0  0
   59.1550   32.0400   50.2740 O   0  0  0  0  0  0  0  0  0  0  0  0
   59.7890   30.7890   50.1980 C   0  0  0  0  0  0  0  0  0  0  0  0
   60.8780   30.5520   51.0440 C   0  0  0  0  0  0  0  0  0  0  0  0
   61.5360   29.3210   51.0240 C   0  0  0  0  0  0  0  0  0  0  0  0
   61.1200   28.3170   50.1460 C   0  0  0  0  0  0  0  0  0  0  0  0
   60.0540   28.5430   49.2690 C   0  0  0  0  0  0  0  0  0  0  0  0
   59.6430   27.4770   48.3990 N   0  0  0  0  0  0  0  0  0  0  0  0
   60.2020   27.1580   47.1200 C   0  0  0  0  0  0  0  0  0  0  0  0
   61.1940   26.3840   47.0260 O   0  0  0  0  0  0  0  0  0  0  0  0
   59.5930   27.7560   45.8800 C   0  0  1  0  0  0  0  0  0  0  0  0
   58.7790   26.6930   45.1120 C   0  0  0  0  0  0  0  0  0  0  0  0
   57.8150   27.2880   44.0610 C   0  0  0  0  0  0  0  0  0  0  0  0
   58.1020   28.7610   43.7540 C   0  0  0  0  0  0  0  0  0  0  0  0
   58.1080   29.5420   45.0000 N   0  0  0  0  0  0  0  0  0  0  0  0
   57.4190   30.8050   45.0850 C   0  0  0  0  0  0  0  0  0  0  0  0
   56.1780   30.8480   44.8650 O   0  0  0  0  0  0  0  0  0  0  0  0
   58.1300   32.0570   45.4330 C   0  0  0  0  0  0  0  0  0  0  0  0
   57.6730   33.2940   44.9510 C   0  0  0  0  0  0  0  0  0  0  0  0
   58.3540   34.4690   45.2720 C   0  0  0  0  0  0  0  0  0  0  0  0
   59.4990   34.4230   46.0700 C   0  0  0  0  0  0  0  0  0  0  0  0
   59.9830   33.1950   46.5510 C   0  0  0  0  0  0  0  0  0  0  0  0
   61.2010   33.1500   47.3970 C   0  0  0  0  0  0  0  0  0  0  0  0
   62.4540   32.8690   46.8250 C   0  0  0  0  0  0  0  0  0  0  0  0
   63.5850   32.8070   47.6370 C   0  0  0  0  0  0  0  0  0  0  0  0
   63.4690   33.0260   49.0080 C   0  0  0  0  0  0  0  0  0  0  0  0
   62.2140   33.3220   49.5560 C   0  0  0  0  0  0  0  0  0  0  0  0
   62.0690   33.5420   51.0360 C   0  0  0  0  0  0  0  0  0  0  0  0
   60.7370   33.8380   51.3500 O   0  0  0  0  0  0  0  0  0  0  0  0
   61.1140   33.3630   48.7460 N   0  0  0  0  0  0  0  0  0  0  0  0
   59.2930   32.0140   46.2190 C   0  0  0  0  0  0  0  0  0  0  0  0
   58.7340   28.9890   46.2110 C   0  0  0  0  0  0  0  0  0  0  0  0
   59.3760   29.7750   49.3080 C   0  0  0  0  0  0  0  0  0  0  0  0
   57.7753   31.8068   52.8921 H   0  0  0  0  0  0  0  0  0  0  0  0
   58.8819   33.1559   52.4654 H   0  0  0  0  0  0  0  0  0  0  0  0
   57.1048   33.4178   52.4654 H   0  0  0  0  0  0  0  0  0  0  0  0
   57.2480   31.3606   50.6973 H   0  0  0  0  0  0  0  0  0  0  0  0
   57.3836   33.0947   50.2107 H   0  0  0  0  0  0  0  0  0  0  0  0
   61.2182   31.3417   51.7300 H   0  0  0  0  0  0  0  0  0  0  0  0
   62.3840   29.1410   51.7011 H   0  0  0  0  0  0  0  0  0  0  0  0
   61.6333   27.3441   50.1444 H   0  0  0  0  0  0  0  0  0  0  0  0
   60.4115   28.0981   45.2295 H   0  0  0  0  0  0  0  0  0  0  0  0
   59.4825   26.0220   44.5974 H   0  0  0  0  0  0  0  0  0  0  0  0
   58.1605   26.1649   45.8527 H   0  0  0  0  0  0  0  0  0  0  0  0
   57.9113   26.7103   43.1298 H   0  0  0  0  0  0  0  0  0  0  0  0
   56.7980   27.2298   44.4761 H   0  0  0  0  0  0  0  0  0  0  0  0
   59.0838   28.8468   43.2655 H   0  0  0  0  0  0  0  0  0  0  0  0
   57.3185   29.1504   43.0873 H   0  0  0  0  0  0  0  0  0  0  0  0
   56.7746   33.3371   44.3178 H   0  0  0  0  0  0  0  0  0  0  0  0
   57.9874   35.4352   44.8950 H   0  0  0  0  0  0  0  0  0  0  0  0
   60.0257   35.3548   46.3238 H   0  0  0  0  0  0  0  0  0  0  0  0
   62.5414   32.6989   45.7418 H   0  0  0  0  0  0  0  0  0  0  0  0
   64.5681   32.5854   47.1960 H   0  0  0  0  0  0  0  0  0  0  0  0
   64.3563   32.9669   49.6555 H   0  0  0  0  0  0  0  0  0  0  0  0
   62.3751   32.6309   51.5710 H   0  0  0  0  0  0  0  0  0  0  0  0
   62.7064   34.3858   51.3388 H   0  0  0  0  0  0  0  0  0  0  0  0
   60.2640   32.9690   51.4300 H   0  0  0  0  0  0  0  0  0  0  0  0
   60.1870   33.5870   49.1730 H   0  0  0  0  0  0  0  0  0  0  0  0
   59.6694   31.0454   46.5797 H   0  0  0  0  0  0  0  0  0  0  0  0
   59.3728   29.7590   46.6683 H   0  0  0  0  0  0  0  0  0  0  0  0
   57.9380   28.6826   46.9056 H   0  0  0  0  0  0  0  0  0  0  0  0
   58.5189   29.9488   48.6408 H   0  0  0  0  0  0  0  0  0  0  0  0
  1  2  1  0
  2  3  1  0
  3  4  1  0
  4  5  2  0
  5  6  1  0
  6  7  2  0
  7  8  1  0
  8  9  1  0
  9 10  1  0
 10 11  2  0
 10 12  1  0
 12 13  1  0
 13 14  1  0
 14 15  1  0
 15 16  1  0
 16 17  1  0
 17 18  2  0
 17 19  1  0
 19 20  2  0
 20 21  1  0
 21 22  2  0
 22 23  1  0
 23 24  1  0
 24 25  2  0
 25 26  1  0
 26 27  2  0
 27 28  1  0
 28 29  1  0
 29 30  1  0
 28 31  2  0
 23 32  2  0
 16 33  1  0
  8 34  2  0
 34  4  1  0
 33 12  1  0
 32 19  1  0
 31 24  1  0
  1 35  1  0
  1 36  1  0
  1 37  1  0
  2 38  1  0
  2 39  1  0
  5 40  1  0
  6 41  1  0
  7 42  1  0
 12 43  1  6
 13 44  1  0
 13 45  1  0
 14 46  1  0
 14 47  1  0
 15 48  1  0
 15 49  1  0
 20 50  1  0
 21 51  1  0
 22 52  1  0
 25 53  1  0
 26 54  1  0
 27 55  1  0
 29 56  1  0
 29 57  1  0
 30 58  1  0
 31 59  1  0
 32 60  1  0
 33 61  1  0
 33 62  1  0
 34 63  1  0
M  CHG  2   9  -1  31   1
M  END
>  <UniqueID>  (18) 
16

>  <SMILES>  (18) 
CCOc1cccc([N-]C(=O)[C@H]2CCCN(C(=O)c3cccc(-c4cccc(CO)[nH+]4)c3)C2)c1

>  <Energy>  (18) 
77.67156857058887

>  <Genealogy>  (18) 
CCOc1cccc([N-]C(=O)C2CCCN(C(=O)c3cccc(-c4cccc(CO)[nH+]4)c3)C2)c1 (protonated)
CCOc1cccc([N-]C(=O)[C@H]2CCCN(C(=O)c3cccc(-c4cccc(CO)[nH+]4)c3)C2)c1 (chirality)
CCOc1cccc([N-]C(=O)[C@H]2CCCN(C(=O)c3cccc(-c4cccc(CO)[nH+]4)c3)C2)c1 (3D coordinates assigned)
CCOc1cccc([N-]C(=O)[C@H]2CCCN(C(=O)c3cccc(-c4cccc(CO)[nH+]4)c3)C2)c1 (nonaromatic ring conformer: 77.67156857058887 kcal/mol)

>  <smiles>  (18) 
CCOc1cccc(NC(=O)C2CCCN(C(=O)c3cccc(-c4cccc(CO)n4)c3)C2)c1

>  <score_type>  (18) 
oracle

>  <origin>  (18) 
adg

>  <m_score__min__energy>  (18) 
-10.800000000000001

>  <m_primary>  (18) 
energy

$$$$
18:0
     RDKit          3D

 33 34  0  0  0  0  0  0  0  0999 V2000
   55.4250   29.3350   45.1950 O   0  0  0  0  0  0  0  0  0  0  0  0
   56.4470   29.7620   44.5940 C   0  0  0  0  0  0  0  0  0  0  0  0
   57.3600   28.7900   43.9060 C   0  0  0  0  0  0  0  0  0  0  0  0
   58.0050   27.9320   44.8930 N   0  0  0  0  0  0  0  0  0  0  0  0
   57.3340   27.2400   45.9540 C   0  0  0  0  0  0  0  0  0  0  0  0
   57.5510   27.6080   47.1390 O   0  0  0  0  0  0  0  0  0  0  0  0
   56.3920   26.1240   45.7040 C   0  0  0  0  0  0  0  0  0  0  0  0
   55.1720   26.2720   45.9860 O   0  0  0  0  0  0  0  0  0  0  0  0
   56.8510   24.8180   45.1710 C   0  0  0  0  0  0  0  0  0  0  0  0
   56.1030   24.1600   44.1770 C   0  0  0  0  0  0  0  0  0  0  0  0
   56.5350   22.9360   43.6590 C   0  0  0  0  0  0  0  0  0  0  0  0
   57.7200   22.3590   44.1180 C   0  0  0  0  0  0  0  0  0  0  0  0
   58.4810   23.0080   45.0930 C   0  0  0  0  0  0  0  0  0  0  0  0
   58.0530   24.2330   45.6160 C   0  0  0  0  0  0  0  0  0  0  0  0
   56.6180   31.1740   44.4210 N   0  0  0  0  0  0  0  0  0  0  0  0
   57.3870   31.9870   45.0930 C   0  0  0  0  0  0  0  0  0  0  0  0
   57.4240   33.2900   44.6980 N   0  0  0  0  0  0  0  0  0  0  0  0
   58.1980   34.2220   45.3130 C   0  0  0  0  0  0  0  0  0  0  0  0
   58.9940   33.8620   46.3970 C   0  0  0  0  0  0  0  0  0  0  0  0
   58.9690   32.5450   46.8510 C   0  0  0  0  0  0  0  0  0  0  0  0
   58.1540   31.5940   46.2210 C   0  0  0  0  0  0  0  0  0  0  0  0
   58.0890   30.3030   46.7430 O   0  0  0  0  0  0  0  0  0  0  0  0
   56.7755   28.1702   43.2102 H   0  0  0  0  0  0  0  0  0  0  0  0
   58.1298   29.3463   43.3511 H   0  0  0  0  0  0  0  0  0  0  0  0
   55.1718   24.6123   43.8052 H   0  0  0  0  0  0  0  0  0  0  0  0
   55.9395   22.4260   42.8875 H   0  0  0  0  0  0  0  0  0  0  0  0
   58.0547   21.3930   43.7119 H   0  0  0  0  0  0  0  0  0  0  0  0
   59.4179   22.5555   45.4500 H   0  0  0  0  0  0  0  0  0  0  0  0
   58.6589   24.7427   46.3796 H   0  0  0  0  0  0  0  0  0  0  0  0
   58.1957   35.2618   44.9542 H   0  0  0  0  0  0  0  0  0  0  0  0
   59.6349   34.6083   46.8891 H   0  0  0  0  0  0  0  0  0  0  0  0
   59.5920   32.2498   47.7082 H   0  0  0  0  0  0  0  0  0  0  0  0
   57.5820   29.5620   46.2750 H   0  0  0  0  0  0  0  0  0  0  0  0
  1  2  2  0
  2  3  1  0
  3  4  1  0
  4  5  1  0
  5  6  2  0
  5  7  1  0
  7  8  2  0
  7  9  1  0
  9 10  2  0
 10 11  1  0
 11 12  2  0
 12 13  1  0
 13 14  2  0
  2 15  1  0
 15 16  2  3
 16 17  1  0
 17 18  1  0
 18 19  2  0
 19 20  1  0
 20 21  2  0
 21 22  1  0
 14  9  1  0
 21 16  1  0
  3 23  1  0
  3 24  1  0
 10 25  1  0
 11 26  1  0
 12 27  1  0
 13 28  1  0
 14 29  1  0
 18 30  1  0
 19 31  1  0
 20 32  1  0
 22 33  1  0
M  CHG  2   4  -1  17  -1
M  END
>  <UniqueID>  (19) 
17

>  <SMILES>  (19) 
O=C(C[N-]C(=O)C(=O)c1ccccc1)N=c1[n-]cccc1O

>  <Energy>  (19) 
49.81804459587684

>  <Genealogy>  (19) 
O=C(C[N-]C(=O)C(=O)c1ccccc1)N=c1[n-]cccc1O (protonated)
O=C(C[N-]C(=O)C(=O)c1ccccc1)N=c1[n-]cccc1O (3D coordinates assigned)
O=C(C[N-]C(=O)C(=O)c1ccccc1)N=c1[n-]cccc1O (optimized conformer: 49.81804459587684 kcal/mol)

>  <smiles>  (19) 
O=C(CNC(=O)C(=O)c1ccccc1)N=c1[nH]cccc1O

>  <score_type>  (19) 
oracle

>  <origin>  (19) 
adg

>  <m_score__min__energy>  (19) 
-11.1

>  <m_primary>  (19) 
energy

$$$$
19:0
     RDKit          3D

 42 44  0  0  0  0  0  0  0  0999 V2000
   60.3132   35.8136   45.3770 H   0  0  0  0  0  0  0  0  0  0  0  0
   59.9380   34.9090   45.8780 C   0  0  0  0  0  0  0  0  0  0  0  0
   60.8230   34.0650   46.5450 C   0  0  0  0  0  0  0  0  0  0  0  0
   61.8981   34.2974   46.5594 H   0  0  0  0  0  0  0  0  0  0  0  0
   60.3480   32.9250   47.1950 C   0  0  0  0  0  0  0  0  0  0  0  0
   61.0553   32.2584   47.7101 H   0  0  0  0  0  0  0  0  0  0  0  0
   58.9720   32.6180   47.1990 C   0  0  0  0  0  0  0  0  0  0  0  0
   58.4850   31.4620   47.9140 N   0  0  0  0  0  0  0  0  0  0  0  0
   57.8150   30.8220   47.4360 H   0  0  0  0  0  0  0  0  0  0  0  0
   59.0410   30.9980   49.1870 C   0  0  0  0  0  0  0  0  0  0  0  0
   59.8570   31.6713   49.4882 H   0  0  0  0  0  0  0  0  0  0  0  0
   58.2372   31.0000   49.9380 H   0  0  0  0  0  0  0  0  0  0  0  0
   59.5890   29.5710   49.0690 C   0  0  0  0  0  0  0  0  0  0  0  0
   60.1706   29.3504   49.9763 H   0  0  0  0  0  0  0  0  0  0  0  0
   58.7177   28.9111   48.9448 H   0  0  0  0  0  0  0  0  0  0  0  0
   60.4950   29.3330   47.8480 C   0  0  0  0  0  0  0  0  0  0  0  0
   60.6136   30.2797   47.3005 H   0  0  0  0  0  0  0  0  0  0  0  0
   61.4677   28.9641   48.2055 H   0  0  0  0  0  0  0  0  0  0  0  0
   59.9250   28.3300   46.9470 N   0  0  0  0  0  0  0  0  0  0  0  0
   58.7720   28.1630   46.3470 C   0  0  0  0  0  0  0  0  0  0  0  0
   58.1020   26.9780   46.6810 C   0  0  0  0  0  0  0  0  0  0  0  0
   58.6228   26.2081   47.2692 H   0  0  0  0  0  0  0  0  0  0  0  0
   56.7900   26.7620   46.2800 C   0  0  0  0  0  0  0  0  0  0  0  0
   56.2791   25.8290   46.5604 H   0  0  0  0  0  0  0  0  0  0  0  0
   56.1360   27.6930   45.5460 N   0  0  0  0  0  0  0  0  0  0  0  0
   55.1440   27.5010   45.2800 H   0  0  0  0  0  0  0  0  0  0  0  0
   56.7540   28.8300   45.1200 C   0  0  0  0  0  0  0  0  0  0  0  0
   56.0500   29.7220   44.2960 C   0  0  0  0  0  0  0  0  0  0  0  0
   54.9877   29.5398   44.0763 H   0  0  0  0  0  0  0  0  0  0  0  0
   56.6860   30.8350   43.7550 C   0  0  0  0  0  0  0  0  0  0  0  0
   56.1212   31.5439   43.1317 H   0  0  0  0  0  0  0  0  0  0  0  0
   58.0370   31.0490   44.0040 C   0  0  0  0  0  0  0  0  0  0  0  0
   58.5493   31.9067   43.5437 H   0  0  0  0  0  0  0  0  0  0  0  0
   58.7470   30.1800   44.8360 C   0  0  0  0  0  0  0  0  0  0  0  0
   59.8212   30.3500   45.0007 H   0  0  0  0  0  0  0  0  0  0  0  0
   58.1150   29.0880   45.4700 C   0  0  0  0  0  0  0  0  0  0  0  0
   58.0800   33.4650   46.4920 C   0  0  0  0  0  0  0  0  0  0  0  0
   56.6690   33.2080   46.4370 N   0  0  0  0  0  0  0  0  0  0  0  0
   56.2650   32.3720   45.9660 H   0  0  0  0  0  0  0  0  0  0  0  0
   55.9970   33.8520   46.9090 H   0  0  0  0  0  0  0  0  0  0  0  0
   58.5770   34.6080   45.8450 C   0  0  0  0  0  0  0  0  0  0  0  0
   57.8854   35.2727   45.3066 H   0  0  0  0  0  0  0  0  0  0  0  0
  1  2  1  0
  2  3  2  0
  3  4  1  0
  3  5  1  0
  5  6  1  0
  5  7  2  0
  7  8  1  0
  8  9  1  0
  8 10  1  0
 10 11  1  0
 10 12  1  0
 10 13  1  0
 13 14  1  0
 13 15  1  0
 13 16  1  0
 16 17  1  0
 16 18  1  0
 16 19  1  0
 19 20  2  0
 20 21  1  0
 21 22  1  0
 21 23  2  0
 23 24  1  0
 23 25  1  0
 25 26  1  0
 25 27  1  0
 27 28  2  0
 28 29  1  0
 28 30  1  0
 30 31  1  0
 30 32  2  0
 32 33  1  0
 32 34  1  0
 34 35  1  0
 34 36  2  0
  7 37  1  0
 37 38  1  0
 38 39  1  0
 38 40  1  0
 37 41  2  0
 41 42  1  0
 41  2  1  0
 36 20  1  0
 36 27  1  0
M  END
>  <UniqueID>  (20) 
18

>  <SMILES>  (20) 
Nc1ccccc1NCCC/N=c1/cc[nH]c2ccccc12

>  <Energy>  (20) 
65.62661157621525

>  <Genealogy>  (20) 
Nc1ccccc1NCCC/N=c1/cc[nH]c2ccccc12 (cis-trans isomerization)
Nc1ccccc1NCCC/N=c1/cc[nH]c2ccccc12 (3D coordinates assigned)
Nc1ccccc1NCCC/N=c1/cc[nH]c2ccccc12 (optimized conformer: 65.62661157621525 kcal/mol)

>  <smiles>  (20) 
Nc1ccccc1NCCCN=c1cc[nH]c2ccccc12

>  <score_type>  (20) 
oracle

>  <origin>  (20) 
adg

>  <m_score__min__energy>  (20) 
-8.2300000000000004

>  <m_primary>  (20) 
energy

$$$$
20:0
     RDKit          3D

 74 78  0  0  0  0  0  0  0  0999 V2000
   57.6910   32.2440   50.2870 O   0  0  0  0  0  0  0  0  0  0  0  0
   57.7610   31.0090   50.5260 C   0  0  0  0  0  0  0  0  0  0  0  0
   58.6730   30.1300   49.6970 C   0  0  0  0  0  0  0  0  0  0  0  0
   59.7200   30.9030   48.9730 N   0  0  1  0  0  0  0  0  0  0  0  0
   61.1020   30.5240   49.3720 C   0  0  0  0  0  0  0  0  0  0  0  0
   61.1270   29.1890   50.0800 C   0  0  0  0  0  0  0  0  0  0  0  0
   61.4710   29.1270   51.4430 C   0  0  0  0  0  0  0  0  0  0  0  0
   61.4780   27.8990   52.1130 C   0  0  0  0  0  0  0  0  0  0  0  0
   61.1240   26.7290   51.4370 C   0  0  0  0  0  0  0  0  0  0  0  0
   60.7660   26.7830   50.0860 C   0  0  0  0  0  0  0  0  0  0  0  0
   60.7690   28.0060   49.4080 C   0  0  0  0  0  0  0  0  0  0  0  0
   59.5000   30.7740   47.2340 S   0  0  0  0  0  0  0  0  0  0  0  0
   58.5110   29.6690   46.9770 O   0  0  0  0  0  0  0  0  0  0  0  0
   60.8150   30.3820   46.6200 O   0  0  0  0  0  0  0  0  0  0  0  0
   58.9240   32.2400   46.3920 C   0  0  0  0  0  0  0  0  0  0  0  0
   58.0640   32.1620   45.2820 C   0  0  0  0  0  0  0  0  0  0  0  0
   57.6370   33.3190   44.6260 C   0  0  0  0  0  0  0  0  0  0  0  0
   58.0550   34.5730   45.0690 C   0  0  0  0  0  0  0  0  0  0  0  0
   58.8940   34.6740   46.1760 C   0  0  0  0  0  0  0  0  0  0  0  0
   59.3270   33.5210   46.8480 C   0  0  0  0  0  0  0  0  0  0  0  0
   60.1770   33.6870   48.0410 C   0  0  0  0  0  0  0  0  0  0  0  0
   59.6330   33.9660   49.1430 O   0  0  0  0  0  0  0  0  0  0  0  0
   61.6030   33.5370   47.9620 N   0  0  0  0  0  0  0  0  0  0  0  0
   62.4740   33.6270   49.1220 C   0  0  0  0  0  0  0  0  0  0  0  0
   63.8930   33.5050   48.5820 C   0  0  0  0  0  0  0  0  0  0  0  0
   63.7600   32.9580   47.1600 C   0  0  0  0  0  0  0  0  0  0  0  0
   62.3190   33.2200   46.7380 C   0  0  0  0  0  0  0  0  0  0  0  0
   56.9550   30.4680   51.5810 N   0  0  0  0  0  0  0  0  0  0  0  0
   57.4420   29.8290   52.7690 C   0  0  0  0  0  0  0  0  0  0  0  0
   56.9180   28.5920   53.1810 C   0  0  0  0  0  0  0  0  0  0  0  0
   57.4170   27.9610   54.3220 C   0  0  0  0  0  0  0  0  0  0  0  0
   58.4380   28.5590   55.0630 C   0  0  0  0  0  0  0  0  0  0  0  0
   58.9460   29.8010   54.6760 C   0  0  0  0  0  0  0  0  0  0  0  0
   58.4400   30.4550   53.5430 C   0  0  0  0  0  0  0  0  0  0  0  0
   58.9790   31.7370   53.1760 N   0  0  0  0  0  0  0  0  0  0  0  0
   58.2000   32.9490   53.4360 C   0  0  0  0  0  0  0  0  0  0  0  0
   58.5670   34.0110   52.3910 C   0  0  0  0  0  0  0  0  0  0  0  0
   59.9690   34.2170   52.3510 O   0  0  0  0  0  0  0  0  0  0  0  0
   60.6250   33.0320   51.9270 C   0  0  0  0  0  0  0  0  0  0  0  0
   60.4180   31.9070   52.9440 C   0  0  0  0  0  0  0  0  0  0  0  0
   59.1674   29.4087   50.3643 H   0  0  0  0  0  0  0  0  0  0  0  0
   58.0510   29.6279   48.9414 H   0  0  0  0  0  0  0  0  0  0  0  0
   59.6080   31.9240   49.1770 H   0  0  0  0  0  0  0  0  0  0  0  0
   61.7302   30.4627   48.4711 H   0  0  0  0  0  0  0  0  0  0  0  0
   61.4838   31.2891   50.0639 H   0  0  0  0  0  0  0  0  0  0  0  0
   61.7354   30.0477   51.9838 H   0  0  0  0  0  0  0  0  0  0  0  0
   61.7629   27.8546   53.1745 H   0  0  0  0  0  0  0  0  0  0  0  0
   61.1268   25.7652   51.9672 H   0  0  0  0  0  0  0  0  0  0  0  0
   60.4816   25.8620   49.5560 H   0  0  0  0  0  0  0  0  0  0  0  0
   60.4902   28.0432   48.3446 H   0  0  0  0  0  0  0  0  0  0  0  0
   57.7236   31.1784   44.9262 H   0  0  0  0  0  0  0  0  0  0  0  0
   56.9682   33.2403   43.7563 H   0  0  0  0  0  0  0  0  0  0  0  0
   57.7227   35.4813   44.5450 H   0  0  0  0  0  0  0  0  0  0  0  0
   59.2195   35.6647   46.5260 H   0  0  0  0  0  0  0  0  0  0  0  0
   62.3384   34.5935   49.6294 H   0  0  0  0  0  0  0  0  0  0  0  0
   62.2511   32.8416   49.8592 H   0  0  0  0  0  0  0  0  0  0  0  0
   64.3821   34.4902   48.5679 H   0  0  0  0  0  0  0  0  0  0  0  0
   64.5070   32.8438   49.2112 H   0  0  0  0  0  0  0  0  0  0  0  0
   64.4558   33.4775   46.4847 H   0  0  0  0  0  0  0  0  0  0  0  0
   64.0018   31.8857   47.1182 H   0  0  0  0  0  0  0  0  0  0  0  0
   62.2725   34.0658   46.0363 H   0  0  0  0  0  0  0  0  0  0  0  0
   61.8815   32.3509   46.2249 H   0  0  0  0  0  0  0  0  0  0  0  0
   56.1112   28.1188   52.6021 H   0  0  0  0  0  0  0  0  0  0  0  0
   57.0051   26.9911   54.6377 H   0  0  0  0  0  0  0  0  0  0  0  0
   58.8423   28.0520   55.9515 H   0  0  0  0  0  0  0  0  0  0  0  0
   59.7488   30.2698   55.2640 H   0  0  0  0  0  0  0  0  0  0  0  0
   57.1264   32.7194   53.3675 H   0  0  0  0  0  0  0  0  0  0  0  0
   58.4242   33.3263   54.4446 H   0  0  0  0  0  0  0  0  0  0  0  0
   58.2237   33.6761   51.4011 H   0  0  0  0  0  0  0  0  0  0  0  0
   58.0800   34.9582   52.6660 H   0  0  0  0  0  0  0  0  0  0  0  0
   60.2152   32.7202   50.9549 H   0  0  0  0  0  0  0  0  0  0  0  0
   61.7023   33.2358   51.8387 H   0  0  0  0  0  0  0  0  0  0  0  0
   60.8421   30.9711   52.5512 H   0  0  0  0  0  0  0  0  0  0  0  0
   60.9211   32.1605   53.8888 H   0  0  0  0  0  0  0  0  0  0  0  0
  1  2  2  0
  2  3  1  0
  3  4  1  0
  4  5  1  0
  5  6  1  0
  6  7  2  0
  7  8  1  0
  8  9  2  0
  9 10  1  0
 10 11  2  0
  4 12  1  0
 12 13  2  0
 12 14  2  0
 12 15  1  0
 15 16  2  0
 16 17  1  0
 17 18  2  0
 18 19  1  0
 19 20  2  0
 20 21  1  0
 21 22  2  0
 21 23  1  0
 23 24  1  0
 24 25  1  0
 25 26  1  0
 26 27  1  0
  2 28  1  0
 28 29  1  0
 29 30  2  0
 30 31  1  0
 31 32  2  0
 32 33  1  0
 33 34  2  0
 34 35  1  0
 35 36  1  0
 36 37  1  0
 37 38  1  0
 38 39  1  0
 39 40  1  0
 11  6  1  0
 20 15  1  0
 27 23  1  0
 34 29  1  0
 40 35  1  0
  3 41  1  0
  3 42  1  0
  4 43  1  1
  5 44  1  0
  5 45  1  0
  7 46  1  0
  8 47  1  0
  9 48  1  0
 10 49  1  0
 11 50  1  0
 16 51  1  0
 17 52  1  0
 18 53  1  0
 19 54  1  0
 24 55  1  0
 24 56  1  0
 25 57  1  0
 25 58  1  0
 26 59  1  0
 26 60  1  0
 27 61  1  0
 27 62  1  0
 30 63  1  0
 31 64  1  0
 32 65  1  0
 33 66  1  0
 36 67  1  0
 36 68  1  0
 37 69  1  0
 37 70  1  0
 39 71  1  0
 39 72  1  0
 40 73  1  0
 40 74  1  0
M  CHG  2   4   1  28  -1
M  END
>  <UniqueID>  (21) 
19

>  <SMILES>  (21) 
O=C(C[N@@H+](Cc1ccccc1)S(=O)(=O)c1ccccc1C(=O)N1CCCC1)[N-]c1ccccc1N1CCOCC1

>  <Energy>  (21) 
103.38277973157244

>  <Genealogy>  (21) 
O=C(C[NH+](Cc1ccccc1)S(=O)(=O)c1ccccc1C(=O)N1CCCC1)[N-]c1ccccc1N1CCOCC1 (protonated)
O=C(C[N@@H+](Cc1ccccc1)S(=O)(=O)c1ccccc1C(=O)N1CCCC1)[N-]c1ccccc1N1CCOCC1 (chirality)
O=C(C[N@@H+](Cc1ccccc1)S(=O)(=O)c1ccccc1C(=O)N1CCCC1)[N-]c1ccccc1N1CCOCC1 (3D coordinates assigned)
O=C(C[N@@H+](Cc1ccccc1)S(=O)(=O)c1ccccc1C(=O)N1CCCC1)[N-]c1ccccc1N1CCOCC1 (nonaromatic ring conformer: 103.38277973157244 kcal/mol)

>  <smiles>  (21) 
O=C(CN(Cc1ccccc1)S(=O)(=O)c1ccccc1C(=O)N1CCCC1)Nc1ccccc1N1CCOCC1

>  <score_type>  (21) 
oracle

>  <origin>  (21) 
adg

>  <m_score__min__energy>  (21) 
-9.3699999999999992

>  <m_primary>  (21) 
energy

$$$$
21:0
     RDKit          3D

 30 32  0  0  0  0  0  0  0  0999 V2000
   57.4840   22.9860   44.6360 C   0  0  0  0  0  0  0  0  0  0  0  0
   57.3230   23.0890   45.9580 C   0  0  0  0  0  0  0  0  0  0  0  0
   57.3610   21.9590   46.7200 N   0  0  0  0  0  0  0  0  0  0  0  0
   56.9370   22.1840   47.9780 C   0  0  0  0  0  0  0  0  0  0  0  0
   56.8740   21.2840   48.8550 O   0  0  0  0  0  0  0  0  0  0  0  0
   56.4910   23.7760   48.2220 S   0  0  0  0  0  0  0  0  0  0  0  0
   56.9140   24.2530   46.6540 C   0  0  0  0  0  0  0  0  0  0  0  0
   56.8880   25.5470   46.2670 C   0  0  0  0  0  0  0  0  0  0  0  0
   58.0240   26.2210   45.9660 N   0  0  0  0  0  0  0  0  0  0  0  0
   57.6550   27.4660   45.5900 C   0  0  0  0  0  0  0  0  0  0  0  0
   58.5050   28.4280   45.2010 C   0  0  0  0  0  0  0  0  0  0  0  0
   58.1450   29.8600   45.0810 C   0  0  0  0  0  0  0  0  0  0  0  0
   58.1810   30.7360   46.1840 C   0  0  0  0  0  0  0  0  0  0  0  0
   57.8120   32.0760   46.0330 C   0  0  0  0  0  0  0  0  0  0  0  0
   57.3890   32.5510   44.7900 C   0  0  0  0  0  0  0  0  0  0  0  0
   57.3240   31.6850   43.6970 C   0  0  0  0  0  0  0  0  0  0  0  0
   57.6920   30.3430   43.8430 C   0  0  0  0  0  0  0  0  0  0  0  0
   56.2810   27.5770   45.6080 C   0  0  0  0  0  0  0  0  0  0  0  0
   55.5310   28.6880   45.2390 O   0  0  0  0  0  0  0  0  0  0  0  0
   55.7850   26.3620   46.0130 C   0  0  0  0  0  0  0  0  0  0  0  0
   54.4400   26.0030   46.0020 O   0  0  0  0  0  0  0  0  0  0  0  0
   57.4561   23.8877   44.0066 H   0  0  0  0  0  0  0  0  0  0  0  0
   57.6445   21.9995   44.1767 H   0  0  0  0  0  0  0  0  0  0  0  0
   59.5362   28.1346   44.9552 H   0  0  0  0  0  0  0  0  0  0  0  0
   58.5009   30.3639   47.1685 H   0  0  0  0  0  0  0  0  0  0  0  0
   57.8550   32.7576   46.8953 H   0  0  0  0  0  0  0  0  0  0  0  0
   57.1070   33.6077   44.6720 H   0  0  0  0  0  0  0  0  0  0  0  0
   56.9831   32.0581   42.7200 H   0  0  0  0  0  0  0  0  0  0  0  0
   57.6259   29.6617   42.9819 H   0  0  0  0  0  0  0  0  0  0  0  0
   53.7130   26.7030   45.9370 H   0  0  0  0  0  0  0  0  0  0  0  0
  1  2  2  0
  2  3  1  0
  3  4  1  0
  4  5  2  0
  4  6  1  0
  6  7  1  0
  7  8  2  3
  8  9  1  0
  9 10  1  0
 10 11  2  3
 11 12  1  0
 12 13  2  0
 13 14  1  0
 14 15  2  0
 15 16  1  0
 16 17  2  0
 10 18  1  0
 18 19  1  0
 18 20  2  0
 20 21  1  0
  7  2  1  0
 20  8  1  0
 17 12  1  0
  1 22  1  0
  1 23  1  0
 11 24  1  0
 13 25  1  0
 14 26  1  0
 15 27  1  0
 16 28  1  0
 17 29  1  0
 21 30  1  0
M  CHG  3   3  -1   9  -1  19  -1
M  END
>  <UniqueID>  (22) 
20

>  <SMILES>  (22) 
C=c1[n-]c(=O)sc1=c1[n-]c(=Cc2ccccc2)c([O-])c1O

>  <Energy>  (22) 
111.8103122871551

>  <Genealogy>  (22) 
C=c1[n-]c(=O)sc1=c1[n-]c(=Cc2ccccc2)c([O-])c1O (protonated)
C=c1[n-]c(=O)sc1=c1[n-]c(=Cc2ccccc2)c([O-])c1O (3D coordinates assigned)
C=c1[n-]c(=O)sc1=c1[n-]c(=Cc2ccccc2)c([O-])c1O (optimized conformer: 111.8103122871551 kcal/mol)

>  <smiles>  (22) 
C=c1[nH]c(=O)sc1=c1[nH]c(=Cc2ccccc2)c(O)c1O

>  <score_type>  (22) 
oracle

>  <origin>  (22) 
adg

>  <m_score__min__energy>  (22) 
-13.890000000000001

>  <m_primary>  (22) 
energy

$$$$
22:0
     RDKit          3D

 30 32  0  0  0  0  0  0  0  0999 V2000
   57.0260   30.6610   43.0140 O   0  0  0  0  0  0  0  0  0  0  0  0
   57.3310   30.5480   44.2330 C   0  0  0  0  0  0  0  0  0  0  0  0
   57.7630   31.7480   44.9980 C   0  0  0  0  0  0  0  0  0  0  0  0
   57.7780   33.0110   44.3800 C   0  0  0  0  0  0  0  0  0  0  0  0
   58.1860   34.1430   45.0910 C   0  0  0  0  0  0  0  0  0  0  0  0
   58.5780   34.0320   46.4260 C   0  0  0  0  0  0  0  0  0  0  0  0
   58.9840   35.1650   47.1240 O   0  0  0  0  0  0  0  0  0  0  0  0
   58.5630   32.7840   47.0590 C   0  0  0  0  0  0  0  0  0  0  0  0
   58.9540   32.6810   48.3930 O   0  0  0  0  0  0  0  0  0  0  0  0
   58.1540   31.6470   46.3480 C   0  0  0  0  0  0  0  0  0  0  0  0
   57.2170   29.2130   44.8670 C   0  0  0  0  0  0  0  0  0  0  0  0
   55.9420   28.6510   45.0390 C   0  0  0  0  0  0  0  0  0  0  0  0
   54.8060   29.3260   44.6040 O   0  0  0  0  0  0  0  0  0  0  0  0
   55.7990   27.4450   45.6440 N   0  0  0  0  0  0  0  0  0  0  0  0
   56.8570   26.7320   46.1040 C   0  0  0  0  0  0  0  0  0  0  0  0
   56.6510   25.6210   46.6630 O   0  0  0  0  0  0  0  0  0  0  0  0
   58.1630   27.2320   45.9510 C   0  0  0  0  0  0  0  0  0  0  0  0
   59.2800   26.5080   46.4080 C   0  0  0  0  0  0  0  0  0  0  0  0
   60.5700   27.0110   46.2270 C   0  0  0  0  0  0  0  0  0  0  0  0
   60.7610   28.2330   45.5850 C   0  0  0  0  0  0  0  0  0  0  0  0
   59.6650   28.9660   45.1250 C   0  0  0  0  0  0  0  0  0  0  0  0
   58.3500   28.4880   45.3130 C   0  0  0  0  0  0  0  0  0  0  0  0
   57.4664   33.1088   43.3296 H   0  0  0  0  0  0  0  0  0  0  0  0
   58.1982   35.1255   44.5964 H   0  0  0  0  0  0  0  0  0  0  0  0
   59.2530   33.4910   48.9220 H   0  0  0  0  0  0  0  0  0  0  0  0
   58.1382   30.6675   46.8484 H   0  0  0  0  0  0  0  0  0  0  0  0
   59.1360   25.5402   46.9107 H   0  0  0  0  0  0  0  0  0  0  0  0
   61.4374   26.4414   46.5920 H   0  0  0  0  0  0  0  0  0  0  0  0
   61.7797   28.6220   45.4399 H   0  0  0  0  0  0  0  0  0  0  0  0
   59.8278   29.9249   44.6113 H   0  0  0  0  0  0  0  0  0  0  0  0
  1  2  2  0
  2  3  1  0
  3  4  2  0
  4  5  1  0
  5  6  2  0
  6  7  1  0
  6  8  1  0
  8  9  1  0
  8 10  2  0
  2 11  1  0
 11 12  2  0
 12 13  1  0
 12 14  1  0
 14 15  1  0
 15 16  2  0
 15 17  1  0
 17 18  2  0
 18 19  1  0
 19 20  2  0
 20 21  1  0
 21 22  2  0
 10  3  1  0
 22 11  1  0
 22 17  1  0
  4 23  1  0
  5 24  1  0
  9 25  1  0
 10 26  1  0
 18 27  1  0
 19 28  1  0
 20 29  1  0
 21 30  1  0
M  CHG  3   7  -1  13  -1  14  -1
M  END
>  <UniqueID>  (23) 
21

>  <SMILES>  (23) 
O=C(c1ccc([O-])c(O)c1)c1c([O-])[n-]c(=O)c2ccccc12

>  <Energy>  (23) 
48.493517053364705

>  <Genealogy>  (23) 
O=C(c1ccc([O-])c(O)c1)c1c([O-])[n-]c(=O)c2ccccc12 (protonated)
O=C(c1ccc([O-])c(O)c1)c1c([O-])[n-]c(=O)c2ccccc12 (3D coordinates assigned)
O=C(c1ccc([O-])c(O)c1)c1c([O-])[n-]c(=O)c2ccccc12 (optimized conformer: 48.493517053364705 kcal/mol)

>  <smiles>  (23) 
O=C(c1ccc(O)c(O)c1)c1c(O)[nH]c(=O)c2ccccc12

>  <score_type>  (23) 
oracle

>  <origin>  (23) 
adg

>  <m_score__min__energy>  (23) 
-15.289999999999999

>  <m_primary>  (23) 
energy

$$$$
23:0
     RDKit          3D

 43 45  0  0  0  0  0  0  0  0999 V2000
   60.4640   30.0520   46.2860 C   0  0  0  0  0  0  0  0  0  0  0  0
   59.3570   29.4100   45.8510 C   0  0  0  0  0  0  0  0  0  0  0  0
   59.3620   27.9980   45.7600 C   0  0  0  0  0  0  0  0  0  0  0  0
   60.4170   27.3560   46.0230 O   0  0  0  0  0  0  0  0  0  0  0  0
   58.1930   27.3290   45.3250 C   0  0  0  0  0  0  0  0  0  0  0  0
   58.0820   25.9790   45.2520 C   0  0  0  0  0  0  0  0  0  0  0  0
   56.8370   25.2150   45.0260 C   0  0  0  0  0  0  0  0  0  0  0  0
   55.6930   25.5230   45.7720 C   0  0  0  0  0  0  0  0  0  0  0  0
   54.5240   24.7800   45.6040 C   0  0  0  0  0  0  0  0  0  0  0  0
   54.4930   23.7120   44.7010 C   0  0  0  0  0  0  0  0  0  0  0  0
   53.3200   22.9840   44.5390 O   0  0  0  0  0  0  0  0  0  0  0  0
   55.6360   23.3720   43.9630 C   0  0  0  0  0  0  0  0  0  0  0  0
   55.5570   22.2890   43.0720 O   0  0  0  0  0  0  0  0  0  0  0  0
   56.6570   21.4880   42.6350 C   0  0  0  0  0  0  0  0  0  0  0  0
   57.5490   21.1030   43.8110 C   0  0  0  0  0  0  0  0  0  0  0  0
   56.8170   24.1190   44.1470 C   0  0  0  0  0  0  0  0  0  0  0  0
   57.1260   28.0820   44.9290 N   0  0  0  0  0  0  0  0  0  0  0  0
   57.1290   29.4370   45.0080 C   0  0  0  0  0  0  0  0  0  0  0  0
   56.1000   30.0730   44.6470 O   0  0  0  0  0  0  0  0  0  0  0  0
   58.2260   30.1070   45.4790 N   0  0  0  0  0  0  0  0  0  0  0  0
   58.1580   31.5450   45.5700 C   0  0  0  0  0  0  0  0  0  0  0  0
   58.1100   32.3240   44.4030 C   0  0  0  0  0  0  0  0  0  0  0  0
   58.0460   33.7180   44.4940 C   0  0  0  0  0  0  0  0  0  0  0  0
   58.0320   34.3390   45.7460 C   0  0  0  0  0  0  0  0  0  0  0  0
   58.0830   33.5670   46.9110 C   0  0  0  0  0  0  0  0  0  0  0  0
   58.1470   32.1720   46.8250 C   0  0  0  0  0  0  0  0  0  0  0  0
   60.4699   31.1495   46.3602 H   0  0  0  0  0  0  0  0  0  0  0  0
   61.3590   29.4770   46.5658 H   0  0  0  0  0  0  0  0  0  0  0  0
   59.0075   25.3969   45.3726 H   0  0  0  0  0  0  0  0  0  0  0  0
   55.7158   26.3535   46.4929 H   0  0  0  0  0  0  0  0  0  0  0  0
   53.6242   25.0348   46.1832 H   0  0  0  0  0  0  0  0  0  0  0  0
   56.2711   20.5736   42.1608 H   0  0  0  0  0  0  0  0  0  0  0  0
   57.2530   22.0701   41.9167 H   0  0  0  0  0  0  0  0  0  0  0  0
   57.0293   21.3273   44.7542 H   0  0  0  0  0  0  0  0  0  0  0  0
   57.7745   20.0274   43.7634 H   0  0  0  0  0  0  0  0  0  0  0  0
   58.4864   21.6767   43.7634 H   0  0  0  0  0  0  0  0  0  0  0  0
   57.7294   23.8420   43.5986 H   0  0  0  0  0  0  0  0  0  0  0  0
   56.2570   27.6170   44.5740 H   0  0  0  0  0  0  0  0  0  0  0  0
   58.1227   31.8376   43.4165 H   0  0  0  0  0  0  0  0  0  0  0  0
   58.0066   34.3268   43.5787 H   0  0  0  0  0  0  0  0  0  0  0  0
   57.9808   35.4356   45.8151 H   0  0  0  0  0  0  0  0  0  0  0  0
   58.0728   34.0570   47.8958 H   0  0  0  0  0  0  0  0  0  0  0  0
   58.1887   31.5663   47.7423 H   0  0  0  0  0  0  0  0  0  0  0  0
  1  2  2  0
  2  3  1  0
  3  4  2  0
  3  5  1  0
  5  6  2  3
  6  7  1  0
  7  8  2  0
  8  9  1  0
  9 10  2  0
 10 11  1  0
 10 12  1  0
 12 13  1  0
 13 14  1  0
 14 15  1  0
 12 16  2  0
  5 17  1  0
 17 18  1  0
 18 19  2  0
 18 20  1  0
 20 21  1  0
 21 22  2  0
 22 23  1  0
 23 24  2  0
 24 25  1  0
 25 26  2  0
 20  2  1  0
 26 21  1  0
 16  7  1  0
  1 27  1  0
  1 28  1  0
  6 29  1  0
  8 30  1  0
  9 31  1  0
 14 32  1  0
 14 33  1  0
 15 34  1  0
 15 35  1  0
 15 36  1  0
 16 37  1  0
 17 38  1  0
 22 39  1  0
 23 40  1  0
 24 41  1  0
 25 42  1  0
 26 43  1  0
M  CHG  1  11  -1
M  END
>  <UniqueID>  (24) 
22

>  <SMILES>  (24) 
C=c1c(=O)c(=Cc2ccc([O-])c(OCC)c2)[nH]c(=O)n1-c1ccccc1

>  <Energy>  (24) 
72.86018084940895

>  <Genealogy>  (24) 
C=c1c(=O)c(=Cc2ccc([O-])c(OCC)c2)[nH]c(=O)n1-c1ccccc1 (protonated)
C=c1c(=O)c(=Cc2ccc([O-])c(OCC)c2)[nH]c(=O)n1-c1ccccc1 (3D coordinates assigned)
C=c1c(=O)c(=Cc2ccc([O-])c(OCC)c2)[nH]c(=O)n1-c1ccccc1 (optimized conformer: 72.86018084940895 kcal/mol)

>  <smiles>  (24) 
C=c1c(=O)c(=Cc2ccc(O)c(OCC)c2)[nH]c(=O)n1-c1ccccc1

>  <score_type>  (24) 
oracle

>  <origin>  (24) 
adg

>  <m_score__min__energy>  (24) 
-10.949999999999999

>  <m_primary>  (24) 
energy

$$$$
24:0
     RDKit          3D

 37 39  0  0  0  0  0  0  0  0999 V2000
   56.6560   30.3110   42.6200 C   0  0  0  0  0  0  0  0  0  0  0  0
   56.6210   30.3090   44.4000 S   0  0  0  0  0  0  0  0  0  0  0  0
   55.3290   29.6930   44.8560 O   0  0  0  0  0  0  0  0  0  0  0  0
   56.6980   31.7140   44.9280 O   0  0  0  0  0  0  0  0  0  0  0  0
   57.9370   29.3680   45.0220 N   0  0  0  0  0  0  0  0  0  0  0  0
   57.8190   28.1470   45.7660 C   0  0  0  0  0  0  0  0  0  0  0  0
   58.6490   27.8510   46.8610 C   0  0  0  0  0  0  0  0  0  0  0  0
   58.5020   26.6430   47.5460 C   0  0  0  0  0  0  0  0  0  0  0  0
   57.5240   25.7260   47.1560 C   0  0  0  0  0  0  0  0  0  0  0  0
   56.6700   26.0170   46.0800 C   0  0  0  0  0  0  0  0  0  0  0  0
   55.6370   25.0360   45.6810 C   0  0  0  0  0  0  0  0  0  0  0  0
   54.3180   25.2750   45.8040 N   0  0  0  0  0  0  0  0  0  0  0  0
   53.7470   24.1200   45.4090 C   0  0  0  0  0  0  0  0  0  0  0  0
   52.4650   23.9500   45.3910 N   0  0  0  0  0  0  0  0  0  0  0  0
   54.6180   23.1600   45.0370 N   0  0  0  0  0  0  0  0  0  0  0  0
   55.8190   23.7450   45.1990 C   0  0  0  0  0  0  0  0  0  0  0  0
   57.0880   23.0740   44.8450 C   0  0  0  0  0  0  0  0  0  0  0  0
   58.2520   23.3950   45.5600 C   0  0  0  0  0  0  0  0  0  0  0  0
   59.4680   22.7860   45.2390 C   0  0  0  0  0  0  0  0  0  0  0  0
   59.5290   21.8420   44.2130 C   0  0  0  0  0  0  0  0  0  0  0  0
   58.3730   21.4960   43.5100 C   0  0  0  0  0  0  0  0  0  0  0  0
   57.1460   22.0970   43.8290 C   0  0  0  0  0  0  0  0  0  0  0  0
   55.9890   21.7120   43.1520 O   0  0  0  0  0  0  0  0  0  0  0  0
   56.8390   27.2240   45.3790 C   0  0  0  0  0  0  0  0  0  0  0  0
   57.6984   30.3706   42.2738 H   0  0  0  0  0  0  0  0  0  0  0  0
   56.1969   29.3851   42.2432 H   0  0  0  0  0  0  0  0  0  0  0  0
   56.0943   31.1785   42.2432 H   0  0  0  0  0  0  0  0  0  0  0  0
   59.4160   28.5725   47.1791 H   0  0  0  0  0  0  0  0  0  0  0  0
   59.1599   26.4128   48.3970 H   0  0  0  0  0  0  0  0  0  0  0  0
   57.4221   24.7718   47.6938 H   0  0  0  0  0  0  0  0  0  0  0  0
   52.0460   22.9940   45.4230 H   0  0  0  0  0  0  0  0  0  0  0  0
   58.2070   24.1298   46.3773 H   0  0  0  0  0  0  0  0  0  0  0  0
   60.3787   23.0511   45.7960 H   0  0  0  0  0  0  0  0  0  0  0  0
   60.4891   21.3697   43.9576 H   0  0  0  0  0  0  0  0  0  0  0  0
   58.4246   20.7498   42.7035 H   0  0  0  0  0  0  0  0  0  0  0  0
   55.1100   22.2010   43.2810 H   0  0  0  0  0  0  0  0  0  0  0  0
   56.1938   27.4462   44.5162 H   0  0  0  0  0  0  0  0  0  0  0  0
  1  2  1  0
  2  3  2  0
  2  4  2  0
  2  5  1  0
  5  6  1  0
  6  7  2  0
  7  8  1  0
  8  9  2  0
  9 10  1  0
 10 11  1  0
 11 12  1  0
 12 13  1  0
 13 14  2  3
 13 15  1  0
 15 16  1  0
 16 17  1  0
 17 18  2  0
 18 19  1  0
 19 20  2  0
 20 21  1  0
 21 22  2  0
 22 23  1  0
 10 24  2  0
 24  6  1  0
 16 11  2  0
 22 17  1  0
  1 25  1  0
  1 26  1  0
  1 27  1  0
  7 28  1  0
  8 29  1  0
  9 30  1  0
 14 31  1  0
 18 32  1  0
 19 33  1  0
 20 34  1  0
 21 35  1  0
 23 36  1  0
 24 37  1  0
M  CHG  3   5  -1  12  -1  15  -1
M  END
>  <UniqueID>  (25) 
23

>  <SMILES>  (25) 
CS(=O)(=O)[N-]c1cccc(-c2[n-]c(=N)[n-]c2-c2ccccc2O)c1

>  <Energy>  (25) 
74.94562031767907

>  <Genealogy>  (25) 
CS(=O)(=O)[N-]c1cccc(-c2[n-]c(=N)[n-]c2-c2ccccc2O)c1 (protonated)
CS(=O)(=O)[N-]c1cccc(-c2[n-]c(=N)[n-]c2-c2ccccc2O)c1 (3D coordinates assigned)
CS(=O)(=O)[N-]c1cccc(-c2[n-]c(=N)[n-]c2-c2ccccc2O)c1 (optimized conformer: 74.94562031767907 kcal/mol)

>  <smiles>  (25) 
CS(=O)(=O)Nc1cccc(-c2[nH]c(=N)[nH]c2-c2ccccc2O)c1

>  <score_type>  (25) 
oracle

>  <origin>  (25) 
adg

>  <m_score__min__energy>  (25) 
-12.880000000000001

>  <m_primary>  (25) 
energy

$$$$
25:0
     RDKit          3D

 29 31  0  0  0  0  0  0  0  0999 V2000
   55.9410   24.2160   44.7350 C   0  0  0  0  0  0  0  0  0  0  0  0
   56.0660   25.5470   45.9140 S   0  0  0  0  0  0  0  0  0  0  0  0
   56.3080   24.9540   47.2730 O   0  0  0  0  0  0  0  0  0  0  0  0
   54.7760   26.3200   45.9480 O   0  0  0  0  0  0  0  0  0  0  0  0
   57.3640   26.5720   45.5390 O   0  0  0  0  0  0  0  0  0  0  0  0
   57.3400   27.6760   46.4090 C   0  0  0  0  0  0  0  0  0  0  0  0
   57.3920   28.9280   45.5980 C   0  0  0  0  0  0  0  0  0  0  0  0
   56.9190   28.9290   44.3130 N   0  0  0  0  0  0  0  0  0  0  0  0
   56.9850   30.0450   43.5340 C   0  0  0  0  0  0  0  0  0  0  0  0
   56.5390   30.0280   42.3570 O   0  0  0  0  0  0  0  0  0  0  0  0
   57.5570   31.1920   44.0700 C   0  0  0  0  0  0  0  0  0  0  0  0
   57.7900   32.7130   43.3720 S   0  0  0  0  0  0  0  0  0  0  0  0
   58.5260   33.3580   44.7540 C   0  0  0  0  0  0  0  0  0  0  0  0
   59.0180   34.6470   44.9380 C   0  0  0  0  0  0  0  0  0  0  0  0
   59.5960   34.9670   46.1770 C   0  0  0  0  0  0  0  0  0  0  0  0
   59.6700   34.0020   47.2000 C   0  0  0  0  0  0  0  0  0  0  0  0
   59.1670   32.7060   46.9970 C   0  0  0  0  0  0  0  0  0  0  0  0
   58.5950   32.3970   45.7590 C   0  0  0  0  0  0  0  0  0  0  0  0
   58.0440   31.1760   45.3640 C   0  0  0  0  0  0  0  0  0  0  0  0
   57.9670   30.0520   46.1220 N   0  0  0  0  0  0  0  0  0  0  0  0
   55.8511   23.2592   45.2703 H   0  0  0  0  0  0  0  0  0  0  0  0
   55.0531   24.3677   44.1036 H   0  0  0  0  0  0  0  0  0  0  0  0
   56.8416   24.1997   44.1036 H   0  0  0  0  0  0  0  0  0  0  0  0
   56.4145   27.6585   47.0033 H   0  0  0  0  0  0  0  0  0  0  0  0
   58.2035   27.6349   47.0893 H   0  0  0  0  0  0  0  0  0  0  0  0
   58.9557   35.3952   44.1340 H   0  0  0  0  0  0  0  0  0  0  0  0
   59.9936   35.9780   46.3497 H   0  0  0  0  0  0  0  0  0  0  0  0
   60.1254   34.2652   48.1661 H   0  0  0  0  0  0  0  0  0  0  0  0
   59.2220   31.9506   47.7948 H   0  0  0  0  0  0  0  0  0  0  0  0
  1  2  1  0
  2  3  2  0
  2  4  2  0
  2  5  1  0
  5  6  1  0
  6  7  1  0
  7  8  2  0
  8  9  1  0
  9 10  2  0
  9 11  1  0
 11 12  1  0
 12 13  1  0
 13 14  2  0
 14 15  1  0
 15 16  2  0
 16 17  1  0
 17 18  2  0
 18 19  1  0
 19 20  1  0
 20  7  1  0
 19 11  2  0
 18 13  1  0
  1 21  1  0
  1 22  1  0
  1 23  1  0
  6 24  1  0
  6 25  1  0
 14 26  1  0
 15 27  1  0
 16 28  1  0
 17 29  1  0
M  CHG  1  20  -1
M  END
>  <UniqueID>  (26) 
24

>  <SMILES>  (26) 
CS(=O)(=O)OCc1nc(=O)c2sc3ccccc3c2[n-]1

>  <Energy>  (26) 
66.32597251890266

>  <Genealogy>  (26) 
CS(=O)(=O)OCc1nc(=O)c2sc3ccccc3c2[n-]1 (protonated)
CS(=O)(=O)OCc1nc(=O)c2sc3ccccc3c2[n-]1 (3D coordinates assigned)
CS(=O)(=O)OCc1nc(=O)c2sc3ccccc3c2[n-]1 (optimized conformer: 66.32597251890266 kcal/mol)

>  <smiles>  (26) 
CS(=O)(=O)OCc1nc(=O)c2sc3ccccc3c2[nH]1

>  <score_type>  (26) 
oracle

>  <origin>  (26) 
adg

>  <m_score__min__energy>  (26) 
-9.3800000000000008

>  <m_primary>  (26) 
energy

$$$$
26:0
     RDKit          3D

 56 59  0  0  0  0  0  0  0  0999 V2000
   58.0690   32.3960   41.9270 C   0  0  0  0  0  0  0  0  0  0  0  0
   57.5460   32.0380   43.3140 C   0  0  0  0  0  0  0  0  0  0  0  0
   58.2550   32.8340   44.3800 C   0  0  0  0  0  0  0  0  0  0  0  0
   58.2990   34.1870   44.2550 N   0  0  0  0  0  0  0  0  0  0  0  0
   58.8900   34.9650   45.1950 C   0  0  0  0  0  0  0  0  0  0  0  0
   59.4530   34.3990   46.2910 N   0  0  0  0  0  0  0  0  0  0  0  0
   59.4460   33.0520   46.4760 C   0  0  0  0  0  0  0  0  0  0  0  0
   60.0400   32.5070   47.6650 N   0  0  0  0  0  0  0  0  0  0  0  0
   61.4160   31.9950   47.6400 C   0  0  0  0  0  0  0  0  0  0  0  0
   61.5240   30.7780   48.5630 C   0  0  0  0  0  0  0  0  0  0  0  0
   61.0420   31.0720   50.0060 C   0  0  0  0  0  0  0  0  0  0  0  0
   60.2320   30.0310   50.4310 F   0  0  0  0  0  0  0  0  0  0  0  0
   62.1420   31.1300   50.8480 F   0  0  0  0  0  0  0  0  0  0  0  0
   60.2600   32.3960   50.1350 C   0  0  0  0  0  0  0  0  0  0  0  0
   59.3250   32.6350   48.9430 C   0  0  0  0  0  0  0  0  0  0  0  0
   58.8250   32.2260   45.5180 C   0  0  0  0  0  0  0  0  0  0  0  0
   58.7320   30.7980   45.7260 C   0  0  0  0  0  0  0  0  0  0  0  0
   58.6540   29.6090   45.8980 C   0  0  0  0  0  0  0  0  0  0  0  0
   58.5560   28.1880   46.1050 C   0  0  0  0  0  0  0  0  0  0  0  0
   59.7090   27.4090   46.2110 C   0  0  0  0  0  0  0  0  0  0  0  0
   59.6070   26.0670   46.3990 N   0  0  0  0  0  0  0  0  0  0  0  0
   58.4050   25.4320   46.4730 C   0  0  0  0  0  0  0  0  0  0  0  0
   58.3910   24.1570   46.7080 N   0  0  0  0  0  0  0  0  0  0  0  0
   57.2130   26.1820   46.3350 C   0  0  0  0  0  0  0  0  0  0  0  0
   55.9150   25.5680   46.3430 N   0  0  0  0  0  0  0  0  0  0  0  0
   55.6030   24.4430   45.5050 C   0  0  0  0  0  0  0  0  0  0  0  0
   56.4240   24.0830   44.6150 O   0  0  0  0  0  0  0  0  0  0  0  0
   54.3230   23.7100   45.6540 C   0  0  0  0  0  0  0  0  0  0  0  0
   54.0370   23.0120   46.8400 C   0  0  0  0  0  0  0  0  0  0  0  0
   52.8260   22.3330   46.9830 C   0  0  0  0  0  0  0  0  0  0  0  0
   51.8990   22.3590   45.9390 C   0  0  0  0  0  0  0  0  0  0  0  0
   50.8010   21.7530   46.0510 O   0  0  0  0  0  0  0  0  0  0  0  0
   52.1810   23.0440   44.8000 N   0  0  0  0  0  0  0  0  0  0  0  0
   53.3550   23.7120   44.6350 C   0  0  0  0  0  0  0  0  0  0  0  0
   57.3050   27.5710   46.1800 C   0  0  0  0  0  0  0  0  0  0  0  0
   58.9731   33.0149   42.0245 H   0  0  0  0  0  0  0  0  0  0  0  0
   58.3129   31.4745   41.3780 H   0  0  0  0  0  0  0  0  0  0  0  0
   57.2982   32.9568   41.3780 H   0  0  0  0  0  0  0  0  0  0  0  0
   56.4686   32.2552   43.3595 H   0  0  0  0  0  0  0  0  0  0  0  0
   57.7311   30.9686   43.4934 H   0  0  0  0  0  0  0  0  0  0  0  0
   58.9128   36.0574   45.0683 H   0  0  0  0  0  0  0  0  0  0  0  0
   61.6794   31.7011   46.6132 H   0  0  0  0  0  0  0  0  0  0  0  0
   62.1057   32.7794   47.9849 H   0  0  0  0  0  0  0  0  0  0  0  0
   60.9102   29.9658   48.1464 H   0  0  0  0  0  0  0  0  0  0  0  0
   62.5867   30.4996   48.6198 H   0  0  0  0  0  0  0  0  0  0  0  0
   59.6591   32.3642   51.0558 H   0  0  0  0  0  0  0  0  0  0  0  0
   60.9902   33.2183   50.1617 H   0  0  0  0  0  0  0  0  0  0  0  0
   58.5110   31.8957   48.9731 H   0  0  0  0  0  0  0  0  0  0  0  0
   58.9270   33.6579   49.0155 H   0  0  0  0  0  0  0  0  0  0  0  0
   60.7002   27.8811   46.1424 H   0  0  0  0  0  0  0  0  0  0  0  0
   57.7860   23.4780   46.1970 H   0  0  0  0  0  0  0  0  0  0  0  0
   55.1260   26.1160   46.7500 H   0  0  0  0  0  0  0  0  0  0  0  0
   54.7710   23.0008   47.6592 H   0  0  0  0  0  0  0  0  0  0  0  0
   52.6039   21.7827   47.9092 H   0  0  0  0  0  0  0  0  0  0  0  0
   53.5475   24.2566   43.6989 H   0  0  0  0  0  0  0  0  0  0  0  0
   56.3896   28.1777   46.1172 H   0  0  0  0  0  0  0  0  0  0  0  0
  1  2  1  0
  2  3  1  0
  3  4  2  0
  4  5  1  0
  5  6  2  0
  6  7  1  0
  7  8  1  0
  8  9  1  0
  9 10  1  0
 10 11  1  0
 11 12  1  0
 11 13  1  0
 11 14  1  0
 14 15  1  0
  7 16  2  0
 16 17  1  0
 17 18  3  0
 18 19  1  0
 19 20  2  0
 20 21  1  0
 21 22  1  0
 22 23  2  3
 22 24  1  0
 24 25  1  0
 25 26  1  0
 26 27  2  0
 26 28  1  0
 28 29  1  0
 29 30  2  0
 30 31  1  0
 31 32  2  0
 31 33  1  0
 33 34  1  0
 24 35  2  0
 16  3  1  0
 35 19  1  0
 15  8  1  0
 34 28  2  0
  1 36  1  0
  1 37  1  0
  1 38  1  0
  2 39  1  0
  2 40  1  0
  5 41  1  0
  9 42  1  0
  9 43  1  0
 10 44  1  0
 10 45  1  0
 14 46  1  0
 14 47  1  0
 15 48  1  0
 15 49  1  0
 20 50  1  0
 23 51  1  0
 25 52  1  0
 29 53  1  0
 30 54  1  0
 34 55  1  0
 35 56  1  0
M  CHG  2  21  -1  33  -1
M  END
>  <UniqueID>  (27) 
25

>  <SMILES>  (27) 
CCc1ncnc(N2CCC(F)(F)CC2)c1C#Cc1c[n-]c(=N)c(NC(=O)c2ccc(=O)[n-]c2)c1

>  <Energy>  (27) 
70.7183418320916

>  <Genealogy>  (27) 
CCc1ncnc(N2CCC(F)(F)CC2)c1C#Cc1c[n-]c(=N)c(NC(=O)c2ccc(=O)[n-]c2)c1 (protonated)
CCc1ncnc(N2CCC(F)(F)CC2)c1C#Cc1c[n-]c(=N)c(NC(=O)c2ccc(=O)[n-]c2)c1 (3D coordinates assigned)
CCc1ncnc(N2CCC(F)(F)CC2)c1C#Cc1c[n-]c(=N)c(NC(=O)c2ccc(=O)[n-]c2)c1 (nonaromatic ring conformer: 70.7183418320916 kcal/mol)

>  <smiles>  (27) 
CCc1ncnc(N2CCC(F)(F)CC2)c1C#Cc1c[nH]c(=N)c(NC(=O)c2ccc(=O)[nH]c2)c1

>  <score_type>  (27) 
oracle

>  <origin>  (27) 
adg

>  <m_score__min__energy>  (27) 
-11.220000000000001

>  <m_primary>  (27) 
energy

$$$$
27:0
     RDKit          3D

 43 46  0  0  0  0  0  0  0  0999 V2000
   55.8860   31.9180   52.3490 C   0  0  0  0  0  0  0  0  0  0  0  0
   55.3490   30.7270   52.6570 C   0  0  0  0  0  0  0  0  0  0  0  0
   53.9870   30.4290   52.8360 C   0  0  0  0  0  0  0  0  0  0  0  0
   52.8810   31.1530   52.5800 C   0  0  0  0  0  0  0  0  0  0  0  0
   52.2190   31.2750   51.2710 C   0  0  0  0  0  0  0  0  0  0  0  0
   52.2350   30.3310   50.3110 N   0  0  0  0  0  0  0  0  0  0  0  0
   51.3920   30.8220   49.3770 C   0  0  0  0  0  0  0  0  0  0  0  0
   51.1500   30.2200   48.2990 O   0  0  0  0  0  0  0  0  0  0  0  0
   50.8190   32.0040   49.6950 N   0  0  0  0  0  0  0  0  0  0  0  0
   51.3430   32.2680   50.9030 C   0  0  0  0  0  0  0  0  0  0  0  0
   51.0220   33.3900   51.6550 O   0  0  0  0  0  0  0  0  0  0  0  0
   53.9370   29.1400   53.3420 C   0  0  0  0  0  0  0  0  0  0  0  0
   55.2350   28.6810   53.4020 C   0  0  0  0  0  0  0  0  0  0  0  0
   55.6330   27.3120   53.8650 C   0  0  0  0  0  0  0  0  0  0  0  0
   56.0900   29.6330   52.9670 N   0  0  0  0  0  0  0  0  0  0  0  0
   57.5220   29.5220   52.9500 C   0  0  0  0  0  0  0  0  0  0  0  0
   58.3200   29.0360   53.9620 C   0  0  0  0  0  0  0  0  0  0  0  0
   59.6030   29.0550   53.5470 N   0  0  0  0  0  0  0  0  0  0  0  0
   59.6310   29.5260   52.3050 N   0  0  0  0  0  0  0  0  0  0  0  0
   60.8630   29.7390   51.5330 C   0  0  0  0  0  0  0  0  0  0  0  0
   62.0750   29.9660   52.4300 C   0  0  0  0  0  0  0  0  0  0  0  0
   62.6880   28.6660   51.9240 C   0  0  0  0  0  0  0  0  0  0  0  0
   61.4840   28.4420   51.0180 C   0  0  0  0  0  0  0  0  0  0  0  0
   58.3750   29.8330   51.9120 C   0  0  0  0  0  0  0  0  0  0  0  0
   57.9980   30.4360   50.5930 C   0  0  0  0  0  0  0  0  0  0  0  0
   56.9757   32.0174   52.2365 H   0  0  0  0  0  0  0  0  0  0  0  0
   55.2364   32.7946   52.2091 H   0  0  0  0  0  0  0  0  0  0  0  0
   52.4333   31.7009   53.4222 H   0  0  0  0  0  0  0  0  0  0  0  0
   53.0331   28.5881   53.6393 H   0  0  0  0  0  0  0  0  0  0  0  0
   55.6409   27.2847   54.9646 H   0  0  0  0  0  0  0  0  0  0  0  0
   54.9126   26.5726   53.4851 H   0  0  0  0  0  0  0  0  0  0  0  0
   56.6375   27.0741   53.4851 H   0  0  0  0  0  0  0  0  0  0  0  0
   57.9691   28.6899   54.9454 H   0  0  0  0  0  0  0  0  0  0  0  0
   60.5313   30.5114   50.8235 H   0  0  0  0  0  0  0  0  0  0  0  0
   62.6574   30.8650   52.1799 H   0  0  0  0  0  0  0  0  0  0  0  0
   61.9463   30.1396   53.5086 H   0  0  0  0  0  0  0  0  0  0  0  0
   63.6368   28.7987   51.3835 H   0  0  0  0  0  0  0  0  0  0  0  0
   62.9992   27.8865   52.6349 H   0  0  0  0  0  0  0  0  0  0  0  0
   61.7210   28.4521   49.9439 H   0  0  0  0  0  0  0  0  0  0  0  0
   60.9212   27.4978   51.0599 H   0  0  0  0  0  0  0  0  0  0  0  0
   57.4218   31.3576   50.7624 H   0  0  0  0  0  0  0  0  0  0  0  0
   58.9093   30.6727   50.0242 H   0  0  0  0  0  0  0  0  0  0  0  0
   57.3862   29.7204   50.0242 H   0  0  0  0  0  0  0  0  0  0  0  0
  1  2  2  0
  2  3  1  0
  3  4  2  3
  4  5  1  0
  5  6  1  0
  6  7  1  0
  7  8  2  0
  7  9  1  0
  9 10  1  0
 10 11  1  0
  3 12  1  0
 12 13  2  0
 13 14  1  0
 13 15  1  0
 15 16  1  0
 16 17  1  0
 17 18  2  0
 18 19  1  0
 19 20  1  0
 20 21  1  0
 21 22  1  0
 22 23  1  0
 19 24  1  0
 24 25  1  0
 15  2  1  0
 24 16  2  0
 10  5  2  0
 23 20  1  0
  1 26  1  0
  1 27  1  0
  4 28  1  0
 12 29  1  0
 14 30  1  0
 14 31  1  0
 14 32  1  0
 17 33  1  0
 20 34  1  0
 21 35  1  0
 21 36  1  0
 22 37  1  0
 22 38  1  0
 23 39  1  0
 23 40  1  0
 25 41  1  0
 25 42  1  0
 25 43  1  0
M  CHG  3   6  -1   9  -1  11  -1
M  END
>  <UniqueID>  (28) 
26

>  <SMILES>  (28) 
C=c1c(=Cc2[n-]c(=O)[n-]c2[O-])cc(C)n1-c1cnn(C2CCC2)c1C

>  <Energy>  (28) 
211.36593407516688

>  <Genealogy>  (28) 
C=c1c(=Cc2[n-]c(=O)[n-]c2[O-])cc(C)n1-c1cnn(C2CCC2)c1C (protonated)
C=c1c(=Cc2[n-]c(=O)[n-]c2[O-])cc(C)n1-c1cnn(C2CCC2)c1C (3D coordinates assigned)
C=c1c(=Cc2[n-]c(=O)[n-]c2[O-])cc(C)n1-c1cnn(C2CCC2)c1C (nonaromatic ring conformer: 211.36593407516688 kcal/mol)

>  <smiles>  (28) 
C=c1c(=Cc2[nH]c(=O)[nH]c2O)cc(C)n1-c1cnn(C2CCC2)c1C

>  <score_type>  (28) 
oracle

>  <origin>  (28) 
adg

>  <m_score__min__energy>  (28) 
-15.539999999999999

>  <m_primary>  (28) 
energy

$$$$
28:0
     RDKit          3D

 38 40  0  0  0  0  0  0  0  0999 V2000
   57.0650   34.1540   44.8890 C   0  0  0  0  0  0  0  0  0  0  0  0
   57.1880   32.7110   45.2760 C   0  0  0  0  0  0  0  0  0  0  0  0
   56.5830   31.8510   44.5790 O   0  0  0  0  0  0  0  0  0  0  0  0
   57.9960   32.2760   46.4480 C   0  0  0  0  0  0  0  0  0  0  0  0
   57.7560   32.7950   47.7350 C   0  0  0  0  0  0  0  0  0  0  0  0
   58.5340   32.3870   48.8190 C   0  0  0  0  0  0  0  0  0  0  0  0
   59.5480   31.4460   48.6430 C   0  0  0  0  0  0  0  0  0  0  0  0
   59.7830   30.8820   47.3800 C   0  0  0  0  0  0  0  0  0  0  0  0
   60.8910   29.8640   47.1830 C   0  0  0  0  0  0  0  0  0  0  0  0
   60.4460   28.5500   46.6630 N   0  0  0  0  0  0  0  0  0  0  0  0
   60.3840   28.4340   45.2040 C   0  0  0  0  0  0  0  0  0  0  0  0
   59.4060   27.3130   44.9110 C   0  0  0  0  0  0  0  0  0  0  0  0
   58.4000   27.3620   46.0690 C   0  0  0  0  0  0  0  0  0  0  0  0
   59.1920   28.0270   47.2220 C   0  0  0  0  0  0  0  0  0  0  0  0
   57.9700   25.9480   46.4520 C   0  0  0  0  0  0  0  0  0  0  0  0
   58.8340   25.1160   46.8380 O   0  0  0  0  0  0  0  0  0  0  0  0
   56.6080   25.5250   46.3730 N   0  0  0  0  0  0  0  0  0  0  0  0
   55.5740   26.4060   45.9590 C   0  0  0  0  0  0  0  0  0  0  0  0
   54.3870   25.9970   45.8940 O   0  0  0  0  0  0  0  0  0  0  0  0
   55.8830   27.7520   45.6230 N   0  0  0  0  0  0  0  0  0  0  0  0
   57.2190   28.2500   45.6760 C   0  0  0  0  0  0  0  0  0  0  0  0
   57.4180   29.4590   45.3780 O   0  0  0  0  0  0  0  0  0  0  0  0
   59.0240   31.3280   46.2830 C   0  0  0  0  0  0  0  0  0  0  0  0
   57.0122   34.7737   45.7963 H   0  0  0  0  0  0  0  0  0  0  0  0
   57.9412   34.4499   44.2934 H   0  0  0  0  0  0  0  0  0  0  0  0
   56.1514   34.2973   44.2934 H   0  0  0  0  0  0  0  0  0  0  0  0
   56.9494   33.5273   47.8868 H   0  0  0  0  0  0  0  0  0  0  0  0
   58.3466   32.8096   49.8171 H   0  0  0  0  0  0  0  0  0  0  0  0
   60.1677   31.1439   49.5001 H   0  0  0  0  0  0  0  0  0  0  0  0
   61.6184   30.2839   46.4727 H   0  0  0  0  0  0  0  0  0  0  0  0
   61.3155   29.6735   48.1797 H   0  0  0  0  0  0  0  0  0  0  0  0
   60.0284   29.3760   44.7612 H   0  0  0  0  0  0  0  0  0  0  0  0
   61.3752   28.2239   44.7757 H   0  0  0  0  0  0  0  0  0  0  0  0
   58.8992   27.4816   43.9494 H   0  0  0  0  0  0  0  0  0  0  0  0
   59.9042   26.3354   44.8332 H   0  0  0  0  0  0  0  0  0  0  0  0
   58.6034   28.8495   47.6544 H   0  0  0  0  0  0  0  0  0  0  0  0
   59.4013   27.2952   48.0161 H   0  0  0  0  0  0  0  0  0  0  0  0
   59.2369   30.9298   45.2800 H   0  0  0  0  0  0  0  0  0  0  0  0
  1  2  1  0
  2  3  2  0
  2  4  1  0
  4  5  2  0
  5  6  1  0
  6  7  2  0
  7  8  1  0
  8  9  1  0
  9 10  1  0
 10 11  1  0
 11 12  1  0
 12 13  1  0
 13 14  1  0
 13 15  1  0
 15 16  2  0
 15 17  1  0
 17 18  1  0
 18 19  2  0
 18 20  1  0
 20 21  1  0
 21 22  2  0
  8 23  2  0
 23  4  1  0
 14 10  1  0
 21 13  1  0
  1 24  1  0
  1 25  1  0
  1 26  1  0
  5 27  1  0
  6 28  1  0
  7 29  1  0
  9 30  1  0
  9 31  1  0
 11 32  1  0
 11 33  1  0
 12 34  1  0
 12 35  1  0
 14 36  1  0
 14 37  1  0
 23 38  1  0
M  CHG  2  17  -1  20  -1
M  END
>  <UniqueID>  (29) 
27

>  <SMILES>  (29) 
CC(=O)c1cccc(CN2CCC3(C2)C(=O)[N-]C(=O)[N-]C3=O)c1

>  <Energy>  (29) 
50.42037221387419

>  <Genealogy>  (29) 
CC(=O)c1cccc(CN2CCC3(C2)C(=O)[N-]C(=O)[N-]C3=O)c1 (protonated)
CC(=O)c1cccc(CN2CCC3(C2)C(=O)[N-]C(=O)[N-]C3=O)c1 (3D coordinates assigned)
CC(=O)c1cccc(CN2CCC3(C2)C(=O)[N-]C(=O)[N-]C3=O)c1 (nonaromatic ring conformer: 50.42037221387419 kcal/mol)

>  <smiles>  (29) 
CC(=O)c1cccc(CN2CCC3(C2)C(=O)NC(=O)NC3=O)c1

>  <score_type>  (29) 
oracle

>  <origin>  (29) 
adg

>  <m_score__min__energy>  (29) 
-12.33

>  <m_primary>  (29) 
energy

$$$$
29:0
     RDKit          3D

 64 68  0  0  0  0  0  0  0  0999 V2000
   61.1050   27.1050   47.5200 O   0  0  0  0  0  0  0  0  0  0  0  0
   59.9120   27.3620   47.8330 C   0  0  0  0  0  0  0  0  0  0  0  0
   58.8810   26.4730   47.3990 N   0  0  0  0  0  0  0  0  0  0  0  0
   58.5060   26.2900   46.0020 C   0  0  0  0  0  0  0  0  0  0  0  0
   58.3660   27.6340   45.3470 C   0  0  0  0  0  0  0  0  0  0  0  0
   59.5000   28.3580   44.9510 C   0  0  0  0  0  0  0  0  0  0  0  0
   59.3630   29.6330   44.3920 C   0  0  0  0  0  0  0  0  0  0  0  0
   58.0900   30.2060   44.2260 C   0  0  0  0  0  0  0  0  0  0  0  0
   57.9440   31.5680   43.6560 C   0  0  0  0  0  0  0  0  0  0  0  0
   57.7810   31.7120   42.4150 O   0  0  0  0  0  0  0  0  0  0  0  0
   58.0140   32.7310   44.4930 N   0  0  0  0  0  0  0  0  0  0  0  0
   58.9360   33.8140   44.1290 C   0  0  0  0  0  0  0  0  0  0  0  0
   58.9400   34.9280   45.1840 C   0  0  0  0  0  0  0  0  0  0  0  0
   58.9420   34.3270   46.5900 C   0  0  0  0  0  0  0  0  0  0  0  0
   57.7060   33.4440   46.8530 C   0  0  0  0  0  0  0  0  0  0  0  0
   57.0350   32.9170   45.5730 C   0  0  0  0  0  0  0  0  0  0  0  0
   56.9600   29.4860   44.6470 C   0  0  0  0  0  0  0  0  0  0  0  0
   57.0960   28.2120   45.2040 C   0  0  0  0  0  0  0  0  0  0  0  0
   59.6020   28.6090   48.5710 C   0  0  0  0  0  0  0  0  0  0  0  0
   59.8860   28.7110   49.9430 C   0  0  0  0  0  0  0  0  0  0  0  0
   59.6610   29.9090   50.6270 C   0  0  0  0  0  0  0  0  0  0  0  0
   59.1630   31.0300   49.9520 C   0  0  0  0  0  0  0  0  0  0  0  0
   58.9950   32.2530   50.6800 N   0  0  0  0  0  0  0  0  0  0  0  0
   60.1100   33.5840   50.6600 S   0  0  0  0  0  0  0  0  0  0  0  0
   59.6770   34.5810   49.6220 O   0  0  0  0  0  0  0  0  0  0  0  0
   60.1340   34.2300   52.0170 O   0  0  0  0  0  0  0  0  0  0  0  0
   61.7340   33.0210   50.2500 C   0  0  0  0  0  0  0  0  0  0  0  0
   62.5210   32.3800   51.2210 C   0  0  0  0  0  0  0  0  0  0  0  0
   63.7990   31.9150   50.9040 C   0  0  0  0  0  0  0  0  0  0  0  0
   64.3090   32.0780   49.6160 C   0  0  0  0  0  0  0  0  0  0  0  0
   63.5390   32.7130   48.6330 C   0  0  0  0  0  0  0  0  0  0  0  0
   64.0270   32.8850   47.3310 C   0  0  0  0  0  0  0  0  0  0  0  0
   63.2360   33.5160   46.3690 C   0  0  0  0  0  0  0  0  0  0  0  0
   61.9620   33.9670   46.7170 C   0  0  0  0  0  0  0  0  0  0  0  0
   61.4990   33.7970   47.9840 N   0  0  0  0  0  0  0  0  0  0  0  0
   62.2430   33.1870   48.9480 C   0  0  0  0  0  0  0  0  0  0  0  0
   58.8610   30.9280   48.5820 C   0  0  0  0  0  0  0  0  0  0  0  0
   59.0840   29.7290   47.8980 C   0  0  0  0  0  0  0  0  0  0  0  0
   59.2840   25.7085   45.4856 H   0  0  0  0  0  0  0  0  0  0  0  0
   57.5495   25.7499   45.9443 H   0  0  0  0  0  0  0  0  0  0  0  0
   60.5013   27.9214   45.0805 H   0  0  0  0  0  0  0  0  0  0  0  0
   60.2579   30.1914   44.0800 H   0  0  0  0  0  0  0  0  0  0  0  0
   59.9524   33.4030   44.0394 H   0  0  0  0  0  0  0  0  0  0  0  0
   58.6020   34.2449   43.1736 H   0  0  0  0  0  0  0  0  0  0  0  0
   59.8389   35.5484   45.0532 H   0  0  0  0  0  0  0  0  0  0  0  0
   58.0364   35.5428   45.0588 H   0  0  0  0  0  0  0  0  0  0  0  0
   59.8468   33.7132   46.7106 H   0  0  0  0  0  0  0  0  0  0  0  0
   58.9200   35.1581   47.3102 H   0  0  0  0  0  0  0  0  0  0  0  0
   58.0187   32.5820   47.4606 H   0  0  0  0  0  0  0  0  0  0  0  0
   56.9653   34.0748   47.3663 H   0  0  0  0  0  0  0  0  0  0  0  0
   56.5553   31.9515   45.7916 H   0  0  0  0  0  0  0  0  0  0  0  0
   56.2905   33.6562   45.2424 H   0  0  0  0  0  0  0  0  0  0  0  0
   55.9592   29.9290   44.5372 H   0  0  0  0  0  0  0  0  0  0  0  0
   56.2030   27.6597   45.5319 H   0  0  0  0  0  0  0  0  0  0  0  0
   60.2885   27.8414   50.4832 H   0  0  0  0  0  0  0  0  0  0  0  0
   59.8768   29.9716   51.7038 H   0  0  0  0  0  0  0  0  0  0  0  0
   62.1275   32.2433   52.2391 H   0  0  0  0  0  0  0  0  0  0  0  0
   64.4068   31.4175   51.6741 H   0  0  0  0  0  0  0  0  0  0  0  0
   65.3158   31.7079   49.3722 H   0  0  0  0  0  0  0  0  0  0  0  0
   65.0318   32.5234   47.0671 H   0  0  0  0  0  0  0  0  0  0  0  0
   63.6138   33.6565   45.3455 H   0  0  0  0  0  0  0  0  0  0  0  0
   61.3306   34.4614   45.9641 H   0  0  0  0  0  0  0  0  0  0  0  0
   58.4476   31.7953   48.0464 H   0  0  0  0  0  0  0  0  0  0  0  0
   58.8522   29.6617   46.8248 H   0  0  0  0  0  0  0  0  0  0  0  0
  1  2  2  0
  2  3  1  0
  3  4  1  0
  4  5  1  0
  5  6  2  0
  6  7  1  0
  7  8  2  0
  8  9  1  0
  9 10  2  0
  9 11  1  0
 11 12  1  0
 12 13  1  0
 13 14  1  0
 14 15  1  0
 15 16  1  0
  8 17  1  0
 17 18  2  0
  2 19  1  0
 19 20  2  0
 20 21  1  0
 21 22  2  0
 22 23  1  0
 23 24  1  0
 24 25  2  0
 24 26  2  0
 24 27  1  0
 27 28  2  0
 28 29  1  0
 29 30  2  0
 30 31  1  0
 31 32  2  0
 32 33  1  0
 33 34  2  0
 34 35  1  0
 35 36  2  0
 22 37  1  0
 37 38  2  0
 18  5  1  0
 38 19  1  0
 16 11  1  0
 36 27  1  0
 36 31  1  0
  4 39  1  0
  4 40  1  0
  6 41  1  0
  7 42  1  0
 12 43  1  0
 12 44  1  0
 13 45  1  0
 13 46  1  0
 14 47  1  0
 14 48  1  0
 15 49  1  0
 15 50  1  0
 16 51  1  0
 16 52  1  0
 17 53  1  0
 18 54  1  0
 20 55  1  0
 21 56  1  0
 28 57  1  0
 29 58  1  0
 30 59  1  0
 32 60  1  0
 33 61  1  0
 34 62  1  0
 37 63  1  0
 38 64  1  0
M  CHG  2   3  -1  23  -1
M  END
>  <UniqueID>  (30) 
28

>  <SMILES>  (30) 
O=C([N-]Cc1ccc(C(=O)N2CCCCC2)cc1)c1ccc([N-]S(=O)(=O)c2cccc3cccnc23)cc1

>  <Energy>  (30) 
89.90510327531915

>  <Genealogy>  (30) 
O=C([N-]Cc1ccc(C(=O)N2CCCCC2)cc1)c1ccc([N-]S(=O)(=O)c2cccc3cccnc23)cc1 (protonated)
O=C([N-]Cc1ccc(C(=O)N2CCCCC2)cc1)c1ccc([N-]S(=O)(=O)c2cccc3cccnc23)cc1 (3D coordinates assigned)
O=C([N-]Cc1ccc(C(=O)N2CCCCC2)cc1)c1ccc([N-]S(=O)(=O)c2cccc3cccnc23)cc1 (nonaromatic ring conformer: 89.90510327531915 kcal/mol)

>  <smiles>  (30) 
O=C(NCc1ccc(C(=O)N2CCCCC2)cc1)c1ccc(NS(=O)(=O)c2cccc3cccnc23)cc1

>  <score_type>  (30) 
oracle

>  <origin>  (30) 
adg

>  <m_score__min__energy>  (30) 
-13.31

>  <m_primary>  (30) 
energy

$$$$
30:0
     RDKit          3D

 71 76  0  0  0  0  0  0  0  0999 V2000
   57.7850   32.0820   42.3000 C   0  0  0  0  0  0  0  0  0  0  0  0
   57.2760   30.8910   43.0560 C   0  0  0  0  0  0  0  0  0  0  0  0
   56.6350   31.2150   44.3650 C   0  0  0  0  0  0  0  0  0  0  0  0
   57.5860   31.3730   45.4460 N   0  0  0  0  0  0  0  0  0  0  0  0
   57.9850   30.2600   46.0890 C   0  0  0  0  0  0  0  0  0  0  0  0
   57.5800   29.1060   45.8020 O   0  0  0  0  0  0  0  0  0  0  0  0
   58.8900   30.3970   47.1210 C   0  0  0  0  0  0  0  0  0  0  0  0
   59.5040   29.5280   47.9740 N   0  0  0  0  0  0  0  0  0  0  0  0
   60.3140   30.1660   48.8140 C   0  0  0  0  0  0  0  0  0  0  0  0
   61.1770   29.7390   49.8860 C   0  0  0  0  0  0  0  0  0  0  0  0
   62.0790   30.5830   50.5540 C   0  0  0  0  0  0  0  0  0  0  0  0
   62.7350   29.8920   51.4980 N   0  0  0  0  0  0  0  0  0  0  0  0
   63.7430   30.4830   52.3730 C   0  0  0  0  0  0  0  0  0  0  0  0
   63.2070   30.8720   53.6880 C   0  0  0  0  0  0  0  0  0  0  0  0
   62.9040   32.0320   54.0210 O   0  0  0  0  0  0  0  0  0  0  0  0
   63.0310   29.8380   54.6270 O   0  0  0  0  0  0  0  0  0  0  0  0
   62.3100   28.6210   51.4890 C   0  0  0  0  0  0  0  0  0  0  0  0
   62.6980   27.5300   52.2860 C   0  0  0  0  0  0  0  0  0  0  0  0
   63.6400   27.7530   53.2150 O   0  0  0  0  0  0  0  0  0  0  0  0
   64.9400   27.4250   53.4360 C   0  0  0  0  0  0  0  0  0  0  0  0
   65.8820   27.4880   52.3190 C   0  0  0  0  0  0  0  0  0  0  0  0
   66.6320   28.5750   51.9450 C   0  0  0  0  0  0  0  0  0  0  0  0
   67.5140   28.5720   50.8850 C   0  0  0  0  0  0  0  0  0  0  0  0
   67.6740   27.4270   50.1410 C   0  0  0  0  0  0  0  0  0  0  0  0
   66.9400   26.3080   50.4780 C   0  0  0  0  0  0  0  0  0  0  0  0
   66.0640   26.3340   51.5420 C   0  0  0  0  0  0  0  0  0  0  0  0
   62.0550   26.3450   52.0140 C   0  0  0  0  0  0  0  0  0  0  0  0
   61.0950   26.1910   51.0420 C   0  0  0  0  0  0  0  0  0  0  0  0
   60.7670   27.3060   50.3020 C   0  0  0  0  0  0  0  0  0  0  0  0
   61.3560   28.5230   50.5050 C   0  0  0  0  0  0  0  0  0  0  0  0
   60.1920   31.4810   48.4610 N   0  0  0  0  0  0  0  0  0  0  0  0
   59.3510   31.6490   47.4550 C   0  0  0  0  0  0  0  0  0  0  0  0
   58.9430   32.7660   46.8010 N   0  0  0  0  0  0  0  0  0  0  0  0
   59.4470   34.0740   47.1770 C   0  0  0  0  0  0  0  0  0  0  0  0
   60.8920   33.9960   47.5180 C   0  0  0  0  0  0  0  0  0  0  0  0
   61.3440   34.2340   48.8210 C   0  0  0  0  0  0  0  0  0  0  0  0
   62.7180   34.1410   49.0590 C   0  0  0  0  0  0  0  0  0  0  0  0
   63.6140   33.8280   48.0600 C   0  0  0  0  0  0  0  0  0  0  0  0
   63.1710   33.5950   46.7800 C   0  0  0  0  0  0  0  0  0  0  0  0
   61.8170   33.6840   46.5370 C   0  0  0  0  0  0  0  0  0  0  0  0
   58.0680   32.5950   45.8120 C   0  0  0  0  0  0  0  0  0  0  0  0
   57.6320   33.5690   45.1460 O   0  0  0  0  0  0  0  0  0  0  0  0
   58.1149   32.8539   43.0108 H   0  0  0  0  0  0  0  0  0  0  0  0
   58.6326   31.7799   41.6673 H   0  0  0  0  0  0  0  0  0  0  0  0
   56.9808   32.4858   41.6673 H   0  0  0  0  0  0  0  0  0  0  0  0
   56.5334   30.3773   42.4278 H   0  0  0  0  0  0  0  0  0  0  0  0
   58.1530   30.2672   43.2835 H   0  0  0  0  0  0  0  0  0  0  0  0
   56.0724   32.1538   44.2552 H   0  0  0  0  0  0  0  0  0  0  0  0
   55.9829   30.3686   44.6264 H   0  0  0  0  0  0  0  0  0  0  0  0
   59.3150   28.5180   47.9170 H   0  0  0  0  0  0  0  0  0  0  0  0
   62.2256   31.6511   50.3357 H   0  0  0  0  0  0  0  0  0  0  0  0
   64.5481   29.7492   52.5258 H   0  0  0  0  0  0  0  0  0  0  0  0
   64.1083   31.3976   51.8831 H   0  0  0  0  0  0  0  0  0  0  0  0
   63.1360   28.8680   54.3350 H   0  0  0  0  0  0  0  0  0  0  0  0
   65.3167   28.1037   54.2154 H   0  0  0  0  0  0  0  0  0  0  0  0
   64.9046   26.3563   53.6943 H   0  0  0  0  0  0  0  0  0  0  0  0
   66.5231   29.5033   52.5250 H   0  0  0  0  0  0  0  0  0  0  0  0
   68.0851   29.4787   50.6366 H   0  0  0  0  0  0  0  0  0  0  0  0
   68.3741   27.4033   49.2929 H   0  0  0  0  0  0  0  0  0  0  0  0
   67.0553   25.3849   49.8909 H   0  0  0  0  0  0  0  0  0  0  0  0
   65.4930   25.4267   51.7882 H   0  0  0  0  0  0  0  0  0  0  0  0
   62.3265   25.4633   52.6130 H   0  0  0  0  0  0  0  0  0  0  0  0
   60.6100   25.2201   50.8629 H   0  0  0  0  0  0  0  0  0  0  0  0
   60.0016   27.2134   49.5174 H   0  0  0  0  0  0  0  0  0  0  0  0
   59.3104   34.7701   46.3363 H   0  0  0  0  0  0  0  0  0  0  0  0
   58.8920   34.4299   48.0575 H   0  0  0  0  0  0  0  0  0  0  0  0
   60.6421   34.4855   49.6298 H   0  0  0  0  0  0  0  0  0  0  0  0
   63.0961   34.3234   50.0758 H   0  0  0  0  0  0  0  0  0  0  0  0
   64.6882   33.7644   48.2879 H   0  0  0  0  0  0  0  0  0  0  0  0
   63.8759   33.3449   45.9734 H   0  0  0  0  0  0  0  0  0  0  0  0
   61.4547   33.4983   45.5151 H   0  0  0  0  0  0  0  0  0  0  0  0
  1  2  1  0
  2  3  1  0
  3  4  1  0
  4  5  1  0
  5  6  2  0
  5  7  1  0
  7  8  1  0
  8  9  1  0
  9 10  1  0
 10 11  2  0
 11 12  1  0
 12 13  1  0
 13 14  1  0
 14 15  2  0
 14 16  1  0
 12 17  1  0
 17 18  2  0
 18 19  1  0
 19 20  1  0
 20 21  1  0
 21 22  2  0
 22 23  1  0
 23 24  2  0
 24 25  1  0
 25 26  2  0
 18 27  1  0
 27 28  2  0
 28 29  1  0
 29 30  2  0
  9 31  2  0
 31 32  1  0
 32 33  1  0
 33 34  1  0
 34 35  1  0
 35 36  2  0
 36 37  1  0
 37 38  2  0
 38 39  1  0
 39 40  2  0
 33 41  1  0
 41 42  2  0
 41  4  1  0
 32  7  2  0
 40 35  1  0
 30 10  1  0
 30 17  1  0
 26 21  1  0
  1 43  1  0
  1 44  1  0
  1 45  1  0
  2 46  1  0
  2 47  1  0
  3 48  1  0
  3 49  1  0
  8 50  1  0
 11 51  1  0
 13 52  1  0
 13 53  1  0
 16 54  1  0
 20 55  1  0
 20 56  1  0
 22 57  1  0
 23 58  1  0
 24 59  1  0
 25 60  1  0
 26 61  1  0
 27 62  1  0
 28 63  1  0
 29 64  1  0
 34 65  1  0
 34 66  1  0
 36 67  1  0
 37 68  1  0
 38 69  1  0
 39 70  1  0
 40 71  1  0
M  END
>  <smiles>  (31) 
CCCn1c(=O)c2[nH]c(-c3cn(CC(=O)O)c4c(OCc5ccccc5)cccc34)nc2n(Cc2ccccc2)c1=O

>  <score_type>  (31) 
oracle

>  <origin>  (31) 
adg

>  <m_score__min__energy>  (31) 
-9.6099999999999994

>  <m_primary>  (31) 
energy

$$$$
31:0
     RDKit          3D

 54 57  0  0  0  0  0  0  0  0999 V2000
   52.2049   31.1607   53.0326 H   0  0  0  0  0  0  0  0  0  0  0  0
   52.3660   31.4250   51.9770 C   0  0  0  0  0  0  0  0  0  0  0  0
   51.3930   32.3260   51.3460 C   0  0  0  0  0  0  0  0  0  0  0  0
   51.2930   32.3370   50.0950 O   0  0  0  0  0  0  0  0  0  0  0  0
   50.6510   33.2320   52.0930 O   0  0  0  0  0  0  0  0  0  0  0  0
   53.4350   30.9010   51.3630 C   0  0  0  0  0  0  0  0  0  0  0  0
   53.3179   30.5907   50.3142 H   0  0  0  0  0  0  0  0  0  0  0  0
   54.7560   30.7090   51.9870 C   0  0  0  0  0  0  0  0  0  0  0  0
   56.1660   31.5550   51.6020 S   0  0  0  0  0  0  0  0  0  0  0  0
   57.0900   30.9310   52.8620 C   0  0  0  0  0  0  0  0  0  0  0  0
   58.5320   31.2640   53.1310 C   0  0  0  0  0  0  0  0  0  0  0  0
   58.8127   32.1399   52.5276 H   0  0  0  0  0  0  0  0  0  0  0  0
   58.6380   31.4708   54.2062 H   0  0  0  0  0  0  0  0  0  0  0  0
   59.4300   30.1450   52.7920 N   0  0  0  0  0  0  0  0  0  0  0  0
   59.1140   29.2690   53.2680 H   0  0  0  0  0  0  0  0  0  0  0  0
   60.3860   30.3630   53.1550 H   0  0  0  0  0  0  0  0  0  0  0  0
   59.5050   29.9550   51.3630 C   0  0  0  0  0  0  0  0  0  0  0  0
   59.9430   28.7300   50.8360 C   0  0  0  0  0  0  0  0  0  0  0  0
   60.2013   27.9041   51.5151 H   0  0  0  0  0  0  0  0  0  0  0  0
   60.0530   28.5530   49.4550 C   0  0  0  0  0  0  0  0  0  0  0  0
   60.3903   27.5870   49.0511 H   0  0  0  0  0  0  0  0  0  0  0  0
   59.7360   29.5990   48.5850 C   0  0  0  0  0  0  0  0  0  0  0  0
   59.8305   29.4550   47.4986 H   0  0  0  0  0  0  0  0  0  0  0  0
   59.2970   30.8340   49.0910 C   0  0  0  0  0  0  0  0  0  0  0  0
   58.9430   31.9500   48.1870 C   0  0  0  0  0  0  0  0  0  0  0  0
   58.1500   31.7070   47.1060 N   0  0  0  0  0  0  0  0  0  0  0  0
   57.7580   32.6920   46.2490 C   0  0  0  0  0  0  0  0  0  0  0  0
   57.0070   32.4230   45.2220 N   0  0  0  0  0  0  0  0  0  0  0  0
   57.3950   31.5640   44.1040 C   0  0  0  0  0  0  0  0  0  0  0  0
   56.5561   31.4951   43.3958 H   0  0  0  0  0  0  0  0  0  0  0  0
   58.2777   32.0029   43.6160 H   0  0  0  0  0  0  0  0  0  0  0  0
   57.7510   30.1790   44.5820 C   0  0  0  0  0  0  0  0  0  0  0  0
   59.0970   29.7860   44.6890 C   0  0  0  0  0  0  0  0  0  0  0  0
   59.8980   30.4965   44.4370 H   0  0  0  0  0  0  0  0  0  0  0  0
   59.4190   28.4940   45.1150 C   0  0  0  0  0  0  0  0  0  0  0  0
   60.4729   28.1913   45.2028 H   0  0  0  0  0  0  0  0  0  0  0  0
   58.4020   27.5850   45.4300 C   0  0  0  0  0  0  0  0  0  0  0  0
   58.6574   26.5661   45.7565 H   0  0  0  0  0  0  0  0  0  0  0  0
   57.0620   27.9710   45.3300 C   0  0  0  0  0  0  0  0  0  0  0  0
   56.2642   27.2579   45.5850 H   0  0  0  0  0  0  0  0  0  0  0  0
   56.7350   29.2630   44.9060 C   0  0  0  0  0  0  0  0  0  0  0  0
   55.6798   29.5633   44.8258 H   0  0  0  0  0  0  0  0  0  0  0  0
   58.1710   34.0080   46.4790 C   0  0  0  0  0  0  0  0  0  0  0  0
   57.8583   34.8142   45.7991 H   0  0  0  0  0  0  0  0  0  0  0  0
   58.9830   34.2900   47.5780 C   0  0  0  0  0  0  0  0  0  0  0  0
   59.3128   35.3221   47.7678 H   0  0  0  0  0  0  0  0  0  0  0  0
   59.3770   33.2620   48.4370 C   0  0  0  0  0  0  0  0  0  0  0  0
   60.0216   33.4779   49.3018 H   0  0  0  0  0  0  0  0  0  0  0  0
   59.1820   31.0010   50.4830 C   0  0  0  0  0  0  0  0  0  0  0  0
   58.8346   31.9631   50.8875 H   0  0  0  0  0  0  0  0  0  0  0  0
   56.3020   30.0600   53.6060 C   0  0  0  0  0  0  0  0  0  0  0  0
   56.6747   29.5047   54.4793 H   0  0  0  0  0  0  0  0  0  0  0  0
   54.9860   29.9590   53.1340 C   0  0  0  0  0  0  0  0  0  0  0  0
   54.2130   29.3475   53.6225 H   0  0  0  0  0  0  0  0  0  0  0  0
  1  2  1  0
  2  3  1  0
  3  4  2  0
  3  5  1  0
  2  6  2  0
  6  7  1  0
  6  8  1  0
  8  9  1  0
  9 10  1  0
 10 11  1  0
 11 12  1  0
 11 13  1  0
 11 14  1  0
 14 15  1  0
 14 16  1  0
 14 17  1  0
 17 18  2  0
 18 19  1  0
 18 20  1  0
 20 21  1  0
 20 22  2  0
 22 23  1  0
 22 24  1  0
 24 25  1  0
 25 26  1  0
 26 27  1  0
 27 28  2  0
 28 29  1  0
 29 30  1  0
 29 31  1  0
 29 32  1  0
 32 33  2  0
 33 34  1  0
 33 35  1  0
 35 36  1  0
 35 37  2  0
 37 38  1  0
 37 39  1  0
 39 40  1  0
 39 41  2  0
 41 42  1  0
 27 43  1  0
 43 44  1  0
 43 45  2  0
 45 46  1  0
 45 47  1  0
 47 48  1  0
 24 49  2  0
 49 50  1  0
 10 51  2  0
 51 52  1  0
 51 53  1  0
 53 54  1  0
 53  8  2  0
 49 17  1  0
 47 25  2  0
 41 32  1  0
M  CHG  3   5  -1  14   1  26  -1
M  END
>  <UniqueID>  (32) 
29

>  <SMILES>  (32) 
O=C([O-])/C=C\c1ccc(C[NH2+]c2cccc(-c3ccc/c(=N/Cc4ccccc4)[n-]3)c2)s1

>  <Energy>  (32) 
87.80026324500828

>  <Genealogy>  (32) 
O=C([O-])C=Cc1ccc(C[NH2+]c2cccc(-c3cccc(=NCc4ccccc4)[n-]3)c2)s1 (protonated)
O=C([O-])/C=C\c1ccc(C[NH2+]c2cccc(-c3ccc/c(=N/Cc4ccccc4)[n-]3)c2)s1 (cis-trans isomerization)
O=C([O-])/C=C\c1ccc(C[NH2+]c2cccc(-c3ccc/c(=N/Cc4ccccc4)[n-]3)c2)s1 (3D coordinates assigned)
O=C([O-])/C=C\c1ccc(C[NH2+]c2cccc(-c3ccc/c(=N/Cc4ccccc4)[n-]3)c2)s1 (optimized conformer: 87.80026324500828 kcal/mol)

>  <smiles>  (32) 
O=C(O)C=Cc1ccc(CNc2cccc(-c3cccc(=NCc4ccccc4)[nH]3)c2)s1

>  <score_type>  (32) 
oracle

>  <origin>  (32) 
adg

>  <m_score__min__energy>  (32) 
-14.119999999999999

>  <m_primary>  (32) 
energy

$$$$
32:0
     RDKit          3D

 18 19  0  0  0  0  0  0  0  0999 V2000
   52.8485   28.5799   53.0741 H   0  0  0  0  0  0  0  0  0  0  0  0
   53.9240   28.3820   52.9550 C   0  0  0  0  0  0  0  0  0  0  0  0
   54.3309   27.3896   53.1990 H   0  0  0  0  0  0  0  0  0  0  0  0
   54.7360   29.3470   52.5140 C   0  0  0  0  0  0  0  0  0  0  0  0
   56.0670   29.0850   52.3720 N   0  0  0  0  0  0  0  0  0  0  0  0
   56.7790   30.1930   52.0900 C   0  0  0  0  0  0  0  0  0  0  0  0
   58.3990   30.1960   51.8890 S   0  0  0  0  0  0  0  0  0  0  0  0
   55.8110   31.5560   52.0110 S   0  0  0  0  0  0  0  0  0  0  0  0
   54.3840   30.7020   52.2980 C   0  0  0  0  0  0  0  0  0  0  0  0
   53.1840   31.3080   52.2710 C   0  0  0  0  0  0  0  0  0  0  0  0
   52.8899   31.8764   53.1657 H   0  0  0  0  0  0  0  0  0  0  0  0
   52.2280   31.2790   51.1510 C   0  0  0  0  0  0  0  0  0  0  0  0
   52.2540   30.3860   50.1440 N   0  0  0  0  0  0  0  0  0  0  0  0
   51.2990   30.8390   49.3020 C   0  0  0  0  0  0  0  0  0  0  0  0
   51.0090   30.2510   48.2290 O   0  0  0  0  0  0  0  0  0  0  0  0
   50.6900   31.9780   49.6960 N   0  0  0  0  0  0  0  0  0  0  0  0
   51.3010   32.2490   50.8600 C   0  0  0  0  0  0  0  0  0  0  0  0
   51.0210   33.3660   51.6380 O   0  0  0  0  0  0  0  0  0  0  0  0
  1  2  1  0
  2  3  1  0
  2  4  2  0
  4  5  1  0
  5  6  1  0
  6  7  2  0
  6  8  1  0
  8  9  1  0
  9 10  2  0
 10 11  1  0
 10 12  1  0
 12 13  1  0
 13 14  1  0
 14 15  2  0
 14 16  1  0
 16 17  1  0
 17 18  1  0
  9  4  1  0
 17 12  2  0
M  CHG  4   5  -1  13  -1  16  -1  18  -1
M  END
>  <UniqueID>  (33) 
30

>  <SMILES>  (33) 
C=c1[n-]c(=S)s/c1=C/c1[n-]c(=O)[n-]c1[O-]

>  <Energy>  (33) 
90.41866784773853

>  <Genealogy>  (33) 
C=c1[n-]c(=S)sc1=Cc1[n-]c(=O)[n-]c1[O-] (protonated)
C=c1[n-]c(=S)s/c1=C/c1[n-]c(=O)[n-]c1[O-] (cis-trans isomerization)
C=c1[n-]c(=S)s/c1=C/c1[n-]c(=O)[n-]c1[O-] (3D coordinates assigned)
C=c1[n-]c(=S)s/c1=C/c1[n-]c(=O)[n-]c1[O-] (optimized conformer: 90.41866784773853 kcal/mol)

>  <smiles>  (33) 
C=c1[nH]c(=S)sc1=Cc1[nH]c(=O)[nH]c1O

>  <score_type>  (33) 
oracle

>  <origin>  (33) 
adg

>  <m_score__min__energy>  (33) 
-16.02

>  <m_primary>  (33) 
energy

$$$$
33:0
     RDKit          3D

 47 50  0  0  0  0  0  0  0  0999 V2000
   54.7368   28.4293   55.0130 H   0  0  0  0  0  0  0  0  0  0  0  0
   54.0470   28.8780   54.2830 C   0  0  0  0  0  0  0  0  0  0  0  0
   52.9875   28.5823   54.2736 H   0  0  0  0  0  0  0  0  0  0  0  0
   54.4990   29.7880   53.4020 C   0  0  0  0  0  0  0  0  0  0  0  0
   53.7260   30.4280   52.4290 C   0  0  0  0  0  0  0  0  0  0  0  0
   52.3970   30.3200   52.2350 C   0  0  0  0  0  0  0  0  0  0  0  0
   51.7913   29.8765   53.0390 H   0  0  0  0  0  0  0  0  0  0  0  0
   51.7060   30.7610   51.0090 C   0  0  0  0  0  0  0  0  0  0  0  0
   51.6730   30.0330   49.8790 N   0  0  0  0  0  0  0  0  0  0  0  0
   51.0240   30.8380   49.0080 C   0  0  0  0  0  0  0  0  0  0  0  0
   50.7830   30.4960   47.8220 O   0  0  0  0  0  0  0  0  0  0  0  0
   50.6670   32.0410   49.5050 N   0  0  0  0  0  0  0  0  0  0  0  0
   51.1170   31.9830   50.7690 C   0  0  0  0  0  0  0  0  0  0  0  0
   51.0310   33.0420   51.6640 O   0  0  0  0  0  0  0  0  0  0  0  0
   54.5910   31.2360   51.7120 C   0  0  0  0  0  0  0  0  0  0  0  0
   54.3278   31.8928   50.8698 H   0  0  0  0  0  0  0  0  0  0  0  0
   55.8470   31.0600   52.2560 C   0  0  0  0  0  0  0  0  0  0  0  0
   57.0660   31.7100   51.7350 C   0  0  0  0  0  0  0  0  0  0  0  0
   57.2800   31.7550   50.4960 O   0  0  0  0  0  0  0  0  0  0  0  0
   58.0110   32.3010   52.6270 N   0  0  0  0  0  0  0  0  0  0  0  0
   58.1420   32.5910   54.0680 C   0  0  0  0  0  0  0  0  0  0  0  0
   57.3116   33.1990   54.4562 H   0  0  0  0  0  0  0  0  0  0  0  0
   58.1318   31.7323   54.7554 H   0  0  0  0  0  0  0  0  0  0  0  0
   59.4160   33.3590   53.9580 C   0  0  0  0  0  0  0  0  0  0  0  0
   59.5658   34.3692   54.3669 H   0  0  0  0  0  0  0  0  0  0  0  0
   60.4870   32.6970   54.5350 F   0  0  0  0  0  0  0  0  0  0  0  0
   59.2720   33.0560   52.5040 C   0  0  0  0  0  0  0  0  0  0  0  0
   59.1663   33.9623   51.8896 H   0  0  0  0  0  0  0  0  0  0  0  0
   60.1145   32.5482   52.0118 H   0  0  0  0  0  0  0  0  0  0  0  0
   55.7980   30.1870   53.2950 N   0  0  0  0  0  0  0  0  0  0  0  0
   56.9650   29.6490   54.0200 C   0  0  0  0  0  0  0  0  0  0  0  0
   57.6629   30.4713   54.2364 H   0  0  0  0  0  0  0  0  0  0  0  0
   56.6110   29.1841   54.9519 H   0  0  0  0  0  0  0  0  0  0  0  0
   57.6920   28.5810   53.1910 C   0  0  0  0  0  0  0  0  0  0  0  0
   57.8821   27.7040   53.8272 H   0  0  0  0  0  0  0  0  0  0  0  0
   57.0526   28.3162   52.3360 H   0  0  0  0  0  0  0  0  0  0  0  0
   59.0050   29.0900   52.6560 C   0  0  0  0  0  0  0  0  0  0  0  0
   60.0550   29.4040   53.5360 C   0  0  0  0  0  0  0  0  0  0  0  0
   59.9357   29.2286   54.6154 H   0  0  0  0  0  0  0  0  0  0  0  0
   61.2500   29.9380   53.0460 C   0  0  0  0  0  0  0  0  0  0  0  0
   62.0686   30.1807   53.7396 H   0  0  0  0  0  0  0  0  0  0  0  0
   61.4060   30.1640   51.6750 C   0  0  0  0  0  0  0  0  0  0  0  0
   62.5930   30.6970   51.1890 O   0  0  0  0  0  0  0  0  0  0  0  0
   60.3650   29.8560   50.7930 C   0  0  0  0  0  0  0  0  0  0  0  0
   60.4886   30.0324   49.7143 H   0  0  0  0  0  0  0  0  0  0  0  0
   59.1670   29.3240   51.2810 C   0  0  0  0  0  0  0  0  0  0  0  0
   58.3486   29.0880   50.5849 H   0  0  0  0  0  0  0  0  0  0  0  0
  1  2  1  0
  2  3  1  0
  2  4  2  0
  4  5  1  0
  5  6  2  0
  6  7  1  0
  6  8  1  0
  8  9  1  0
  9 10  1  0
 10 11  2  0
 10 12  1  0
 12 13  1  0
 13 14  1  0
  5 15  1  0
 15 16  1  0
 15 17  2  0
 17 18  1  0
 18 19  2  0
 18 20  1  0
 20 21  1  0
 21 22  1  0
 21 23  1  0
 21 24  1  0
 24 25  1  0
 24 26  1  0
 24 27  1  0
 27 28  1  0
 27 29  1  0
 17 30  1  0
 30 31  1  0
 31 32  1  0
 31 33  1  0
 31 34  1  0
 34 35  1  0
 34 36  1  0
 34 37  1  0
 37 38  2  0
 38 39  1  0
 38 40  1  0
 40 41  1  0
 40 42  2  0
 42 43  1  0
 42 44  1  0
 44 45  1  0
 44 46  2  0
 46 47  1  0
 30  4  1  0
 46 37  1  0
 13  8  2  0
 27 20  1  0
M  CHG  4   9  -1  12  -1  14  -1  43  -1
M  END
>  <UniqueID>  (34) 
31

>  <SMILES>  (34) 
C=c1/c(=C/c2[n-]c(=O)[n-]c2[O-])cc(C(=O)N2CC(F)C2)n1CCc1ccc([O-])cc1

>  <Energy>  (34) 
158.23781172840873

>  <Genealogy>  (34) 
C=c1c(=Cc2[n-]c(=O)[n-]c2[O-])cc(C(=O)N2CC(F)C2)n1CCc1ccc([O-])cc1 (protonated)
C=c1/c(=C/c2[n-]c(=O)[n-]c2[O-])cc(C(=O)N2CC(F)C2)n1CCc1ccc([O-])cc1 (cis-trans isomerization)
C=c1/c(=C/c2[n-]c(=O)[n-]c2[O-])cc(C(=O)N2CC(F)C2)n1CCc1ccc([O-])cc1 (3D coordinates assigned)
C=c1/c(=C/c2[n-]c(=O)[n-]c2[O-])cc(C(=O)N2CC(F)C2)n1CCc1ccc([O-])cc1 (nonaromatic ring conformer: 158.23781172840873 kcal/mol)

>  <smiles>  (34) 
C=c1c(=Cc2[nH]c(=O)[nH]c2O)cc(C(=O)N2CC(F)C2)n1CCc1ccc(O)cc1

>  <score_type>  (34) 
oracle

>  <origin>  (34) 
adg

>  <m_score__min__energy>  (34) 
-16.420000000000002

>  <m_primary>  (34) 
energy

$$$$
34:0
     RDKit          3D

 40 42  0  0  0  0  0  0  0  0999 V2000
   59.0950   26.3340   48.1610 O   0  0  0  0  0  0  0  0  0  0  0  0
   58.4120   26.0540   47.1390 C   0  0  0  0  0  0  0  0  0  0  0  0
   58.0410   24.6920   46.8800 N   0  0  0  0  0  0  0  0  0  0  0  0
   56.8500   24.1660   46.7830 C   0  0  0  0  0  0  0  0  0  0  0  0
   55.8960   24.8870   46.1320 N   0  0  0  0  0  0  0  0  0  0  0  0
   54.6250   24.4360   45.9600 C   0  0  0  0  0  0  0  0  0  0  0  0
   54.2530   23.1920   46.4640 C   0  0  0  0  0  0  0  0  0  0  0  0
   55.1890   22.4330   47.1620 C   0  0  0  0  0  0  0  0  0  0  0  0
   56.4890   22.9140   47.3480 C   0  0  0  0  0  0  0  0  0  0  0  0
   57.3620   22.1670   48.1290 O   0  0  0  0  0  0  0  0  0  0  0  0
   58.0960   27.1110   46.1500 C   0  0  0  0  0  0  0  0  0  0  0  0
   59.1130   27.6820   45.3640 C   0  0  0  0  0  0  0  0  0  0  0  0
   58.8140   28.6770   44.4290 C   0  0  0  0  0  0  0  0  0  0  0  0
   57.4890   29.1220   44.2610 C   0  0  0  0  0  0  0  0  0  0  0  0
   57.1410   30.1220   43.3360 O   0  0  0  0  0  0  0  0  0  0  0  0
   57.6120   31.4700   43.3660 C   0  0  0  0  0  0  0  0  0  0  0  0
   57.4470   32.0640   44.7390 C   0  0  0  0  0  0  0  0  0  0  0  0
   56.2860   32.1700   45.2180 O   0  0  0  0  0  0  0  0  0  0  0  0
   58.6110   32.5640   45.5140 C   0  0  0  0  0  0  0  0  0  0  0  0
   59.4220   31.6660   46.2360 C   0  0  0  0  0  0  0  0  0  0  0  0
   60.5230   32.1280   46.9630 C   0  0  0  0  0  0  0  0  0  0  0  0
   60.8300   33.4890   46.9770 C   0  0  0  0  0  0  0  0  0  0  0  0
   60.0380   34.3910   46.2650 C   0  0  0  0  0  0  0  0  0  0  0  0
   58.9320   33.9390   45.5370 C   0  0  0  0  0  0  0  0  0  0  0  0
   58.1520   34.8670   44.8550 O   0  0  0  0  0  0  0  0  0  0  0  0
   56.4750   28.5510   45.0390 C   0  0  0  0  0  0  0  0  0  0  0  0
   55.1600   28.9750   44.8860 O   0  0  0  0  0  0  0  0  0  0  0  0
   56.7740   27.5540   45.9750 C   0  0  0  0  0  0  0  0  0  0  0  0
   53.8903   25.0537   45.4227 H   0  0  0  0  0  0  0  0  0  0  0  0
   53.2314   22.8133   46.3124 H   0  0  0  0  0  0  0  0  0  0  0  0
   54.9047   21.4513   47.5687 H   0  0  0  0  0  0  0  0  0  0  0  0
   60.1522   27.3427   45.4861 H   0  0  0  0  0  0  0  0  0  0  0  0
   59.6190   29.1151   43.8207 H   0  0  0  0  0  0  0  0  0  0  0  0
   58.6772   31.4859   43.0919 H   0  0  0  0  0  0  0  0  0  0  0  0
   57.0237   32.0648   42.6518 H   0  0  0  0  0  0  0  0  0  0  0  0
   59.1866   30.5915   46.2275 H   0  0  0  0  0  0  0  0  0  0  0  0
   61.1479   31.4179   47.5245 H   0  0  0  0  0  0  0  0  0  0  0  0
   61.6967   33.8512   47.5495 H   0  0  0  0  0  0  0  0  0  0  0  0
   60.2846   35.4629   46.2762 H   0  0  0  0  0  0  0  0  0  0  0  0
   55.9670   27.1135   46.5788 H   0  0  0  0  0  0  0  0  0  0  0  0
  1  2  2  0
  2  3  1  0
  3  4  2  3
  4  5  1  0
  5  6  1  0
  6  7  2  0
  7  8  1  0
  8  9  2  0
  9 10  1  0
  2 11  1  0
 11 12  2  0
 12 13  1  0
 13 14  2  0
 14 15  1  0
 15 16  1  0
 16 17  1  0
 17 18  2  0
 17 19  1  0
 19 20  2  0
 20 21  1  0
 21 22  2  0
 22 23  1  0
 23 24  2  0
 24 25  1  0
 14 26  1  0
 26 27  1  0
 26 28  2  0
  9  4  1  0
 28 11  1  0
 24 19  1  0
  6 29  1  0
  7 30  1  0
  8 31  1  0
 12 32  1  0
 13 33  1  0
 16 34  1  0
 16 35  1  0
 20 36  1  0
 21 37  1  0
 22 38  1  0
 23 39  1  0
 28 40  1  0
M  CHG  4   5  -1  10  -1  25  -1  27  -1
M  END
>  <UniqueID>  (35) 
32

>  <SMILES>  (35) 
O=C(N=c1[n-]cccc1[O-])c1ccc(OCC(=O)c2ccccc2[O-])c([O-])c1

>  <Energy>  (35) 
60.35256410398506

>  <Genealogy>  (35) 
O=C(N=c1[n-]cccc1[O-])c1ccc(OCC(=O)c2ccccc2[O-])c([O-])c1 (protonated)
O=C(N=c1[n-]cccc1[O-])c1ccc(OCC(=O)c2ccccc2[O-])c([O-])c1 (3D coordinates assigned)
O=C(N=c1[n-]cccc1[O-])c1ccc(OCC(=O)c2ccccc2[O-])c([O-])c1 (optimized conformer: 60.35256410398506 kcal/mol)

>  <smiles>  (35) 
O=C(N=c1[nH]cccc1O)c1ccc(OCC(=O)c2ccccc2O)c(O)c1

>  <score_type>  (35) 
oracle

>  <origin>  (35) 
adg

>  <m_score__min__energy>  (35) 
-16.969999999999999

>  <m_primary>  (35) 
energy

$$$$
35:0
     RDKit          3D

 56 60  0  0  1  0  0  0  0  0999 V2000
   58.5820   28.9410   47.6020 C   0  0  0  0  0  0  0  0  0  0  0  0
   58.3580   27.6780   46.8370 C   0  0  0  0  0  0  0  0  0  0  0  0
   58.7680   26.4550   47.3440 C   0  0  0  0  0  0  0  0  0  0  0  0
   58.5200   25.3300   46.5690 C   0  0  0  0  0  0  0  0  0  0  0  0
   57.8940   25.4110   45.3410 C   0  0  0  0  0  0  0  0  0  0  0  0
   57.4920   26.6360   44.8470 C   0  0  0  0  0  0  0  0  0  0  0  0
   57.7310   27.7630   45.6070 C   0  0  0  0  0  0  0  0  0  0  0  0
   57.3350   29.1080   45.1320 C   0  0  0  0  0  0  0  0  0  0  0  0
   56.3780   29.7610   44.8820 N   0  0  0  0  0  0  0  0  0  0  0  0
   56.3000   30.9720   44.4600 N   0  0  0  0  0  0  0  0  0  0  0  0
   57.4380   31.6050   44.2710 C   0  0  0  0  0  0  0  0  0  0  0  0
   57.7790   32.7790   43.8730 N   0  0  0  0  0  0  0  0  0  0  0  0
   57.7630   33.8510   44.8370 C   0  0  0  0  0  0  0  0  0  0  0  0
   57.2520   34.9570   44.5070 O   0  0  0  0  0  0  0  0  0  0  0  0
   58.3340   33.6230   46.1460 C   0  0  0  0  0  0  0  0  0  0  0  0
   57.7170   32.8720   47.1350 C   0  0  0  0  0  0  0  0  0  0  0  0
   58.3230   32.6820   48.3690 C   0  0  0  0  0  0  0  0  0  0  0  0
   59.5560   33.2320   48.6530 C   0  0  0  0  0  0  0  0  0  0  0  0
   60.3650   33.0460   50.1850 S   0  0  0  0  0  0  0  0  0  0  0  0
   59.9930   34.2090   51.0720 O   0  0  0  0  0  0  0  0  0  0  0  0
   59.7910   31.8260   50.8470 O   0  0  0  0  0  0  0  0  0  0  0  0
   62.0400   32.8930   50.1090 N   0  0  0  0  0  0  0  0  0  0  0  0
   62.5990   31.7800   49.4570 C   0  0  0  0  0  0  0  0  0  0  0  0
   63.9210   32.1930   48.8320 C   0  0  0  0  0  0  0  0  0  0  0  0
   64.7630   32.8600   49.8570 C   0  0  0  0  0  0  0  0  0  0  0  0
   66.1440   32.8770   49.7460 C   0  0  0  0  0  0  0  0  0  0  0  0
   66.9310   33.4920   50.6980 C   0  0  0  0  0  0  0  0  0  0  0  0
   66.3730   34.1120   51.7920 C   0  0  0  0  0  0  0  0  0  0  0  0
   65.0020   34.1040   51.9170 C   0  0  0  0  0  0  0  0  0  0  0  0
   64.2070   33.4760   50.9450 C   0  0  0  0  0  0  0  0  0  0  0  0
   62.7610   33.5200   51.1510 C   0  0  0  0  0  0  0  0  0  0  0  0
   60.1570   33.9800   47.6570 C   0  0  0  0  0  0  0  0  0  0  0  0
   59.5580   34.1750   46.4210 C   0  0  0  0  0  0  0  0  0  0  0  0
   58.7000   30.3340   44.7440 S   0  0  0  0  0  0  0  0  0  0  0  0
   58.5442   28.7280   48.6805 H   0  0  0  0  0  0  0  0  0  0  0  0
   59.5677   29.3558   47.3445 H   0  0  0  0  0  0  0  0  0  0  0  0
   57.7990   29.6694   47.3445 H   0  0  0  0  0  0  0  0  0  0  0  0
   59.2692   26.3788   48.3202 H   0  0  0  0  0  0  0  0  0  0  0  0
   58.8317   24.3443   46.9447 H   0  0  0  0  0  0  0  0  0  0  0  0
   57.7152   24.4975   44.7549 H   0  0  0  0  0  0  0  0  0  0  0  0
   56.9926   26.7120   43.8699 H   0  0  0  0  0  0  0  0  0  0  0  0
   55.3590   31.4510   44.2700 H   0  0  0  0  0  0  0  0  0  0  0  0
   56.7333   32.4205   46.9387 H   0  0  0  0  0  0  0  0  0  0  0  0
   57.8106   32.0816   49.1351 H   0  0  0  0  0  0  0  0  0  0  0  0
   62.7699   30.9726   50.1842 H   0  0  0  0  0  0  0  0  0  0  0  0
   61.9125   31.4197   48.6767 H   0  0  0  0  0  0  0  0  0  0  0  0
   64.4419   31.3017   48.4522 H   0  0  0  0  0  0  0  0  0  0  0  0
   63.7335   32.8885   48.0007 H   0  0  0  0  0  0  0  0  0  0  0  0
   66.6220   32.3910   48.8826 H   0  0  0  0  0  0  0  0  0  0  0  0
   68.0246   33.4864   50.5800 H   0  0  0  0  0  0  0  0  0  0  0  0
   67.0057   34.6013   52.5471 H   0  0  0  0  0  0  0  0  0  0  0  0
   64.5277   34.5914   52.7816 H   0  0  0  0  0  0  0  0  0  0  0  0
   62.5251   33.0112   52.0973 H   0  0  0  0  0  0  0  0  0  0  0  0
   62.4613   34.5782   51.1711 H   0  0  0  0  0  0  0  0  0  0  0  0
   61.1399   34.4342   47.8508 H   0  0  0  0  0  0  0  0  0  0  0  0
   60.0694   34.7773   45.6557 H   0  0  0  0  0  0  0  0  0  0  0  0
  1  2  1  0
  2  3  2  0
  3  4  1  0
  4  5  2  0
  5  6  1  0
  6  7  2  0
  7  8  1  0
  8  9  2  0
  9 10  1  0
 10 11  1  0
 11 12  2  0
 12 13  1  0
 13 14  2  0
 13 15  1  0
 15 16  2  0
 16 17  1  0
 17 18  2  0
 18 19  1  0
 19 20  2  0
 19 21  2  0
 19 22  1  0
 22 23  1  0
 23 24  1  0
 24 25  1  0
 25 26  2  0
 26 27  1  0
 27 28  2  0
 28 29  1  0
 29 30  2  0
 30 31  1  0
 18 32  1  0
 32 33  2  0
 11 34  1  0
  7  2  1  0
 34  8  1  0
 33 15  1  0
 31 22  1  0
 30 25  1  0
  1 35  1  0
  1 36  1  0
  1 37  1  0
  3 38  1  0
  4 39  1  0
  5 40  1  0
  6 41  1  0
 10 42  1  0
 16 43  1  0
 17 44  1  0
 23 45  1  0
 23 46  1  0
 24 47  1  0
 24 48  1  0
 26 49  1  0
 27 50  1  0
 28 51  1  0
 29 52  1  0
 31 53  1  0
 31 54  1  0
 32 55  1  0
 33 56  1  0
M  END
>  <smiles>  (36) 
Cc1ccccc1-c1n[nH]c(=NC(=O)c2ccc(S(=O)(=O)N3CCc4ccccc4C3)cc2)s1

>  <score_type>  (36) 
oracle

>  <origin>  (36) 
adg

>  <m_score__min__energy>  (36) 
-11.390000000000001

>  <m_primary>  (36) 
energy

$$$$
36:0
     RDKit          3D

 50 52  0  0  0  0  0  0  0  0999 V2000
   57.1580   33.4760   45.9510 C   0  0  0  0  0  0  0  0  0  0  0  0
   57.9990   33.9070   45.0090 C   0  0  0  0  0  0  0  0  0  0  0  0
   59.0170   34.9740   45.3130 C   0  0  0  0  0  0  0  0  0  0  0  0
   60.1940   34.4150   45.9770 N   0  0  0  0  0  0  0  0  0  0  0  0
   60.3060   34.3990   47.4060 C   0  0  0  0  0  0  0  0  0  0  0  0
   59.4320   34.9660   48.1170 O   0  0  0  0  0  0  0  0  0  0  0  0
   61.4700   33.7730   48.0580 C   0  0  0  0  0  0  0  0  0  0  0  0
   62.1690   34.5200   49.0200 C   0  0  0  0  0  0  0  0  0  0  0  0
   63.2850   33.9840   49.6640 C   0  0  0  0  0  0  0  0  0  0  0  0
   63.7110   32.6920   49.3630 C   0  0  0  0  0  0  0  0  0  0  0  0
   63.0170   31.9270   48.4240 C   0  0  0  0  0  0  0  0  0  0  0  0
   61.8900   32.4490   47.7610 C   0  0  0  0  0  0  0  0  0  0  0  0
   61.1420   31.5450   46.8050 C   0  0  0  0  0  0  0  0  0  0  0  0
   59.6880   31.3410   47.2460 C   0  0  0  0  0  0  0  0  0  0  0  0
   59.3050   29.9280   47.1050 N   0  0  0  0  0  0  0  0  0  0  0  0
   59.6250   28.9310   47.9650 C   0  0  0  0  0  0  0  0  0  0  0  0
   60.3970   29.1080   49.2360 C   0  0  0  0  0  0  0  0  0  0  0  0
   59.1400   27.7230   47.5090 C   0  0  0  0  0  0  0  0  0  0  0  0
   58.5080   27.9770   46.2990 C   0  0  0  0  0  0  0  0  0  0  0  0
   57.8670   27.0780   45.5290 C   0  0  0  0  0  0  0  0  0  0  0  0
   57.1550   25.8990   46.0570 C   0  0  0  0  0  0  0  0  0  0  0  0
   57.7820   24.8070   46.5250 N   0  0  0  0  0  0  0  0  0  0  0  0
   56.7720   24.0330   46.9770 C   0  0  0  0  0  0  0  0  0  0  0  0
   56.9630   22.8980   47.4860 O   0  0  0  0  0  0  0  0  0  0  0  0
   55.5420   24.5740   46.8490 N   0  0  0  0  0  0  0  0  0  0  0  0
   55.8010   25.7610   46.2770 C   0  0  0  0  0  0  0  0  0  0  0  0
   54.8260   26.7140   46.0080 O   0  0  0  0  0  0  0  0  0  0  0  0
   58.6320   29.3530   46.0750 C   0  0  0  0  0  0  0  0  0  0  0  0
   58.1860   30.0210   44.9980 C   0  0  0  0  0  0  0  0  0  0  0  0
   56.4197   32.6959   45.7139 H   0  0  0  0  0  0  0  0  0  0  0  0
   57.2030   33.9008   46.9646 H   0  0  0  0  0  0  0  0  0  0  0  0
   57.9480   33.4774   43.9976 H   0  0  0  0  0  0  0  0  0  0  0  0
   59.3293   35.4493   44.3714 H   0  0  0  0  0  0  0  0  0  0  0  0
   58.5559   35.7102   45.9878 H   0  0  0  0  0  0  0  0  0  0  0  0
   60.9990   34.0570   45.4140 H   0  0  0  0  0  0  0  0  0  0  0  0
   61.8335   35.5377   49.2684 H   0  0  0  0  0  0  0  0  0  0  0  0
   63.8289   34.5821   50.4100 H   0  0  0  0  0  0  0  0  0  0  0  0
   64.5955   32.2742   49.8661 H   0  0  0  0  0  0  0  0  0  0  0  0
   63.3546   30.9044   48.1995 H   0  0  0  0  0  0  0  0  0  0  0  0
   61.1513   31.9986   45.8029 H   0  0  0  0  0  0  0  0  0  0  0  0
   61.6406   30.5645   46.7957 H   0  0  0  0  0  0  0  0  0  0  0  0
   59.5825   31.6422   48.2987 H   0  0  0  0  0  0  0  0  0  0  0  0
   59.0321   31.9545   46.6108 H   0  0  0  0  0  0  0  0  0  0  0  0
   59.7281   28.9546   50.0957 H   0  0  0  0  0  0  0  0  0  0  0  0
   61.2157   28.3743   49.2729 H   0  0  0  0  0  0  0  0  0  0  0  0
   60.8143   30.1251   49.2729 H   0  0  0  0  0  0  0  0  0  0  0  0
   59.2354   26.7471   48.0075 H   0  0  0  0  0  0  0  0  0  0  0  0
   57.8746   27.2319   44.4399 H   0  0  0  0  0  0  0  0  0  0  0  0
   58.3374   31.1080   44.9234 H   0  0  0  0  0  0  0  0  0  0  0  0
   57.6694   29.4810   44.1909 H   0  0  0  0  0  0  0  0  0  0  0  0
  1  2  2  0
  2  3  1  0
  3  4  1  0
  4  5  1  0
  5  6  2  0
  5  7  1  0
  7  8  2  0
  8  9  1  0
  9 10  2  0
 10 11  1  0
 11 12  2  0
 12 13  1  0
 13 14  1  0
 14 15  1  0
 15 16  1  0
 16 17  1  0
 16 18  2  0
 18 19  1  0
 19 20  2  3
 20 21  1  0
 21 22  1  0
 22 23  1  0
 23 24  2  0
 23 25  1  0
 25 26  1  0
 26 27  1  0
 19 28  1  0
 28 29  2  0
 12  7  1  0
 28 15  1  0
 26 21  2  0
  1 30  1  0
  1 31  1  0
  2 32  1  0
  3 33  1  0
  3 34  1  0
  4 35  1  0
  8 36  1  0
  9 37  1  0
 10 38  1  0
 11 39  1  0
 13 40  1  0
 13 41  1  0
 14 42  1  0
 14 43  1  0
 17 44  1  0
 17 45  1  0
 17 46  1  0
 18 47  1  0
 20 48  1  0
 29 49  1  0
 29 50  1  0
M  CHG  3  22  -1  25  -1  27  -1
M  END
>  <UniqueID>  (37) 
33

>  <SMILES>  (37) 
C=CCNC(=O)c1ccccc1CCn1c(C)cc(=Cc2[n-]c(=O)[n-]c2[O-])c1=C

>  <Energy>  (37) 
115.01756232740732

>  <Genealogy>  (37) 
C=CCNC(=O)c1ccccc1CCn1c(C)cc(=Cc2[n-]c(=O)[n-]c2[O-])c1=C (protonated)
C=CCNC(=O)c1ccccc1CCn1c(C)cc(=Cc2[n-]c(=O)[n-]c2[O-])c1=C (3D coordinates assigned)
C=CCNC(=O)c1ccccc1CCn1c(C)cc(=Cc2[n-]c(=O)[n-]c2[O-])c1=C (optimized conformer: 115.01756232740732 kcal/mol)

>  <smiles>  (37) 
C=CCNC(=O)c1ccccc1CCn1c(C)cc(=Cc2[nH]c(=O)[nH]c2O)c1=C

>  <score_type>  (37) 
oracle

>  <origin>  (37) 
adg

>  <m_score__min__energy>  (37) 
-16.02

>  <m_primary>  (37) 
energy

$$$$
37:0
     RDKit          3D

 78 81  0  0  0  0  0  0  0  0999 V2000
   57.1340   33.0780   45.3180 C   0  0  0  0  0  0  0  0  0  0  0  0
   57.7030   32.1170   46.0490 C   0  0  0  0  0  0  0  0  0  0  0  0
   58.4770   30.9960   45.4150 C   0  0  0  0  0  0  0  0  0  0  0  0
   58.9170   30.0180   46.4250 N   0  0  0  0  0  0  0  0  0  0  0  0
   58.0850   28.8350   46.7050 C   0  0  0  0  0  0  0  0  0  0  0  0
   57.3900   28.3520   45.4540 C   0  0  0  0  0  0  0  0  0  0  0  0
   58.0250   27.6240   44.6480 O   0  0  0  0  0  0  0  0  0  0  0  0
   56.0190   28.6600   45.1570 N   0  0  0  0  0  0  0  0  0  0  0  0
   55.4960   29.8320   44.4560 C   0  0  0  0  0  0  0  0  0  0  0  0
   56.2730   30.1070   43.1610 C   0  0  0  0  0  0  0  0  0  0  0  0
   57.0290   28.9450   42.7040 N   0  0  0  0  0  0  0  0  0  0  0  0
   60.2280   30.1210   47.0280 C   0  0  0  0  0  0  0  0  0  0  0  0
   61.2490   29.7380   46.3950 O   0  0  0  0  0  0  0  0  0  0  0  0
   60.4160   30.6750   48.3750 C   0  0  0  0  0  0  0  0  0  0  0  0
   60.6300   29.9410   49.5210 C   0  0  0  0  0  0  0  0  0  0  0  0
   60.6820   30.8630   50.5450 C   0  0  0  0  0  0  0  0  0  0  0  0
   60.8210   30.5350   51.8910 O   0  0  0  0  0  0  0  0  0  0  0  0
   60.5350   32.1290   50.0820 N   0  0  0  0  0  0  0  0  0  0  0  0
   60.3760   33.3590   50.8860 C   0  0  1  0  0  0  0  0  0  0  0  0
   58.8890   33.5950   51.2640 C   0  0  0  0  0  0  0  0  0  0  0  0
   58.2210   32.4060   51.9160 C   0  0  0  0  0  0  0  0  0  0  0  0
   57.6330   31.3940   51.1390 C   0  0  0  0  0  0  0  0  0  0  0  0
   56.9860   30.3180   51.7530 C   0  0  0  0  0  0  0  0  0  0  0  0
   56.9280   30.2370   53.1470 C   0  0  0  0  0  0  0  0  0  0  0  0
   56.2820   29.1690   53.7560 O   0  0  0  0  0  0  0  0  0  0  0  0
   57.5260   31.2300   53.9290 C   0  0  0  0  0  0  0  0  0  0  0  0
   58.1750   32.3060   53.3180 C   0  0  0  0  0  0  0  0  0  0  0  0
   61.3380   33.3850   52.0510 C   0  0  0  0  0  0  0  0  0  0  0  0
   61.0000   32.8310   53.1340 O   0  0  0  0  0  0  0  0  0  0  0  0
   62.6420   33.9600   51.9230 N   0  0  0  0  0  0  0  0  0  0  0  0
   63.7940   33.2410   51.3920 C   0  0  0  0  0  0  0  0  0  0  0  0
   63.6760   33.0930   49.9000 C   0  0  0  0  0  0  0  0  0  0  0  0
   63.4580   34.2160   49.0850 C   0  0  0  0  0  0  0  0  0  0  0  0
   63.3840   34.0730   47.6960 C   0  0  0  0  0  0  0  0  0  0  0  0
   63.5300   32.8110   47.1120 C   0  0  0  0  0  0  0  0  0  0  0  0
   63.7510   31.6900   47.9170 C   0  0  0  0  0  0  0  0  0  0  0  0
   63.8260   31.8290   49.3060 C   0  0  0  0  0  0  0  0  0  0  0  0
   60.3540   32.0110   48.7440 C   0  0  0  0  0  0  0  0  0  0  0  0
   60.1010   33.1360   47.8220 C   0  0  0  0  0  0  0  0  0  0  0  0
   60.6240   33.1150   46.5200 C   0  0  0  0  0  0  0  0  0  0  0  0
   60.3910   34.1880   45.6540 C   0  0  0  0  0  0  0  0  0  0  0  0
   59.6430   35.2870   46.0840 C   0  0  0  0  0  0  0  0  0  0  0  0
   59.1270   35.3180   47.3820 C   0  0  0  0  0  0  0  0  0  0  0  0
   59.3550   34.2450   48.2500 C   0  0  0  0  0  0  0  0  0  0  0  0
   56.5736   33.8856   45.8117 H   0  0  0  0  0  0  0  0  0  0  0  0
   57.2255   33.0623   44.2219 H   0  0  0  0  0  0  0  0  0  0  0  0
   57.6027   32.1465   47.1440 H   0  0  0  0  0  0  0  0  0  0  0  0
   57.8364   30.4886   44.6787 H   0  0  0  0  0  0  0  0  0  0  0  0
   59.3674   31.4186   44.9266 H   0  0  0  0  0  0  0  0  0  0  0  0
   58.7249   28.0295   47.0945 H   0  0  0  0  0  0  0  0  0  0  0  0
   57.3201   29.1125   47.4452 H   0  0  0  0  0  0  0  0  0  0  0  0
   54.4386   29.6577   44.2081 H   0  0  0  0  0  0  0  0  0  0  0  0
   55.6050   30.7055   45.1157 H   0  0  0  0  0  0  0  0  0  0  0  0
   55.5586   30.3940   42.3754 H   0  0  0  0  0  0  0  0  0  0  0  0
   56.9925   30.9129   43.3682 H   0  0  0  0  0  0  0  0  0  0  0  0
   58.0300   29.0600   42.9820 H   0  0  0  0  0  0  0  0  0  0  0  0
   56.6500   28.0810   43.1590 H   0  0  0  0  0  0  0  0  0  0  0  0
   60.7369   28.8492   49.6021 H   0  0  0  0  0  0  0  0  0  0  0  0
   61.0240   31.2480   52.5830 H   0  0  0  0  0  0  0  0  0  0  0  0
   60.6557   34.2266   50.2703 H   0  0  0  0  0  0  0  0  0  0  0  0
   58.8407   34.4439   51.9619 H   0  0  0  0  0  0  0  0  0  0  0  0
   58.3496   33.7857   50.3245 H   0  0  0  0  0  0  0  0  0  0  0  0
   57.6821   31.4488   50.0415 H   0  0  0  0  0  0  0  0  0  0  0  0
   56.5215   29.5333   51.1378 H   0  0  0  0  0  0  0  0  0  0  0  0
   57.4855   31.1640   55.0263 H   0  0  0  0  0  0  0  0  0  0  0  0
   58.6528   33.0795   53.9373 H   0  0  0  0  0  0  0  0  0  0  0  0
   64.7113   33.7997   51.6296 H   0  0  0  0  0  0  0  0  0  0  0  0
   63.8324   32.2409   51.8484 H   0  0  0  0  0  0  0  0  0  0  0  0
   63.3452   35.2108   49.5407 H   0  0  0  0  0  0  0  0  0  0  0  0
   63.2106   34.9548   47.0617 H   0  0  0  0  0  0  0  0  0  0  0  0
   63.4709   32.7004   46.0192 H   0  0  0  0  0  0  0  0  0  0  0  0
   63.8660   30.6974   47.4571 H   0  0  0  0  0  0  0  0  0  0  0  0
   64.0032   30.9450   49.9363 H   0  0  0  0  0  0  0  0  0  0  0  0
   61.2178   32.2537   46.1802 H   0  0  0  0  0  0  0  0  0  0  0  0
   60.7975   34.1668   44.6321 H   0  0  0  0  0  0  0  0  0  0  0  0
   59.4602   36.1287   45.3998 H   0  0  0  0  0  0  0  0  0  0  0  0
   58.5419   36.1855   47.7211 H   0  0  0  0  0  0  0  0  0  0  0  0
   58.9481   34.2705   49.2717 H   0  0  0  0  0  0  0  0  0  0  0  0
  1  2  2  0
  2  3  1  0
  3  4  1  0
  4  5  1  0
  5  6  1  0
  6  7  2  0
  6  8  1  0
  8  9  1  0
  9 10  1  0
 10 11  1  0
  4 12  1  0
 12 13  2  0
 12 14  1  0
 14 15  1  0
 15 16  2  0
 16 17  1  0
 16 18  1  0
 18 19  1  0
 19 20  1  0
 20 21  1  0
 21 22  2  0
 22 23  1  0
 23 24  2  0
 24 25  1  0
 24 26  1  0
 26 27  2  0
 19 28  1  0
 28 29  2  0
 28 30  1  0
 30 31  1  0
 31 32  1  0
 32 33  2  0
 33 34  1  0
 34 35  2  0
 35 36  1  0
 36 37  2  0
 18 38  1  0
 38 39  1  0
 39 40  2  0
 40 41  1  0
 41 42  2  0
 42 43  1  0
 43 44  2  0
 38 14  2  0
 44 39  1  0
 27 21  1  0
 37 32  1  0
  1 45  1  0
  1 46  1  0
  2 47  1  0
  3 48  1  0
  3 49  1  0
  5 50  1  0
  5 51  1  0
  9 52  1  0
  9 53  1  0
 10 54  1  0
 10 55  1  0
 11 56  1  0
 11 57  1  0
 15 58  1  0
 17 59  1  0
 19 60  1  6
 20 61  1  0
 20 62  1  0
 22 63  1  0
 23 64  1  0
 26 65  1  0
 27 66  1  0
 31 67  1  0
 31 68  1  0
 33 69  1  0
 34 70  1  0
 35 71  1  0
 36 72  1  0
 37 73  1  0
 40 74  1  0
 41 75  1  0
 42 76  1  0
 43 77  1  0
 44 78  1  0
M  CHG  3   8  -1  25  -1  30  -1
M  END
>  <UniqueID>  (38) 
34

>  <SMILES>  (38) 
C=CCN(CC(=O)[N-]CCN)C(=O)c1cc(O)n([C@@H](Cc2ccc([O-])cc2)C(=O)[N-]Cc2ccccc2)c1-c1ccccc1

>  <Energy>  (38) 
110.93707247130796

>  <Genealogy>  (38) 
C=CCN(CC(=O)[N-]CCN)C(=O)c1cc(O)n(C(Cc2ccc([O-])cc2)C(=O)[N-]Cc2ccccc2)c1-c1ccccc1 (protonated)
C=CCN(CC(=O)[N-]CCN)C(=O)c1cc(O)n([C@@H](Cc2ccc([O-])cc2)C(=O)[N-]Cc2ccccc2)c1-c1ccccc1 (chirality)
C=CCN(CC(=O)[N-]CCN)C(=O)c1cc(O)n([C@@H](Cc2ccc([O-])cc2)C(=O)[N-]Cc2ccccc2)c1-c1ccccc1 (3D coordinates assigned)
C=CCN(CC(=O)[N-]CCN)C(=O)c1cc(O)n([C@@H](Cc2ccc([O-])cc2)C(=O)[N-]Cc2ccccc2)c1-c1ccccc1 (optimized conformer: 110.93707247130796 kcal/mol)

>  <smiles>  (38) 
C=CCN(CC(=O)NCCN)C(=O)c1cc(O)n(C(Cc2ccc(O)cc2)C(=O)NCc2ccccc2)c1-c1ccccc1

>  <score_type>  (38) 
oracle

>  <origin>  (38) 
adg

>  <m_score__min__energy>  (38) 
-13.720000000000001

>  <m_primary>  (38) 
energy

$$$$
38:0
     RDKit          3D

 43 45  0  0  0  0  0  0  0  0999 V2000
   61.0120   26.3190   46.4460 O   0  0  0  0  0  0  0  0  0  0  0  0
   59.9800   26.8070   46.9820 C   0  0  0  0  0  0  0  0  0  0  0  0
   58.7640   25.9260   47.1070 C   0  0  0  0  0  0  0  0  0  0  0  0
   57.5320   26.7060   47.2570 N   0  0  0  0  0  0  0  0  0  0  0  0
   56.6540   26.8300   45.7570 S   0  0  0  0  0  0  0  0  0  0  0  0
   57.1140   25.7430   44.8260 O   0  0  0  0  0  0  0  0  0  0  0  0
   55.1780   26.6660   45.9950 O   0  0  0  0  0  0  0  0  0  0  0  0
   56.9910   28.3910   45.0160 C   0  0  0  0  0  0  0  0  0  0  0  0
   55.9570   29.3040   44.7560 C   0  0  0  0  0  0  0  0  0  0  0  0
   56.2490   30.5580   44.2110 C   0  0  0  0  0  0  0  0  0  0  0  0
   57.5720   30.9070   43.9240 C   0  0  0  0  0  0  0  0  0  0  0  0
   58.6050   30.0000   44.1800 C   0  0  0  0  0  0  0  0  0  0  0  0
   58.3160   28.7450   44.7220 C   0  0  0  0  0  0  0  0  0  0  0  0
   60.0080   28.2090   47.4780 C   0  0  0  0  0  0  0  0  0  0  0  0
   59.4430   28.5620   48.7180 C   0  0  0  0  0  0  0  0  0  0  0  0
   59.5350   29.8730   49.1940 C   0  0  0  0  0  0  0  0  0  0  0  0
   60.1930   30.8560   48.4420 C   0  0  0  0  0  0  0  0  0  0  0  0
   60.2740   32.2700   48.9500 C   0  0  0  0  0  0  0  0  0  0  0  0
   60.0250   33.2210   47.8550 N   0  0  0  0  0  0  0  0  0  0  0  0
   58.8320   33.1720   47.1880 C   0  0  0  0  0  0  0  0  0  0  0  0
   58.5770   34.0390   46.1240 C   0  0  0  0  0  0  0  0  0  0  0  0
   57.0380   33.9670   45.2790 Cl  0  0  0  0  0  0  0  0  0  0  0  0
   59.5680   34.9480   45.7560 C   0  0  0  0  0  0  0  0  0  0  0  0
   59.3810   35.7490   44.8030 O   0  0  0  0  0  0  0  0  0  0  0  0
   60.7450   34.9690   46.4290 N   0  0  0  0  0  0  0  0  0  0  0  0
   60.9840   34.1200   47.4630 C   0  0  0  0  0  0  0  0  0  0  0  0
   62.0970   34.1750   48.0540 O   0  0  0  0  0  0  0  0  0  0  0  0
   60.7320   30.5180   47.1920 C   0  0  0  0  0  0  0  0  0  0  0  0
   60.6400   29.2080   46.7160 C   0  0  0  0  0  0  0  0  0  0  0  0
   58.6823   25.3038   46.2036 H   0  0  0  0  0  0  0  0  0  0  0  0
   58.8851   25.3067   48.0080 H   0  0  0  0  0  0  0  0  0  0  0  0
   54.9152   29.0324   44.9814 H   0  0  0  0  0  0  0  0  0  0  0  0
   55.4365   31.2711   44.0077 H   0  0  0  0  0  0  0  0  0  0  0  0
   57.8002   31.8947   43.4970 H   0  0  0  0  0  0  0  0  0  0  0  0
   59.6460   30.2747   43.9545 H   0  0  0  0  0  0  0  0  0  0  0  0
   59.1304   28.0322   44.9188 H   0  0  0  0  0  0  0  0  0  0  0  0
   58.9245   27.7994   49.3177 H   0  0  0  0  0  0  0  0  0  0  0  0
   59.0884   30.1349   50.1645 H   0  0  0  0  0  0  0  0  0  0  0  0
   59.5193   32.4167   49.7367 H   0  0  0  0  0  0  0  0  0  0  0  0
   61.2809   32.4473   49.3559 H   0  0  0  0  0  0  0  0  0  0  0  0
   58.0667   32.4430   47.4926 H   0  0  0  0  0  0  0  0  0  0  0  0
   61.2294   31.2879   46.5838 H   0  0  0  0  0  0  0  0  0  0  0  0
   61.0666   28.9549   45.7342 H   0  0  0  0  0  0  0  0  0  0  0  0
  1  2  2  0
  2  3  1  0
  3  4  1  0
  4  5  1  0
  5  6  2  0
  5  7  2  0
  5  8  1  0
  8  9  2  0
  9 10  1  0
 10 11  2  0
 11 12  1  0
 12 13  2  0
  2 14  1  0
 14 15  2  0
 15 16  1  0
 16 17  2  0
 17 18  1  0
 18 19  1  0
 19 20  1  0
 20 21  2  0
 21 22  1  0
 21 23  1  0
 23 24  2  0
 23 25  1  0
 25 26  1  0
 26 27  2  0
 17 28  1  0
 28 29  2  0
 13  8  1  0
 29 14  1  0
 26 19  1  0
  3 30  1  0
  3 31  1  0
  9 32  1  0
 10 33  1  0
 11 34  1  0
 12 35  1  0
 13 36  1  0
 15 37  1  0
 16 38  1  0
 18 39  1  0
 18 40  1  0
 20 41  1  0
 28 42  1  0
 29 43  1  0
M  CHG  2   4  -1  25  -1
M  END
>  <UniqueID>  (39) 
35

>  <SMILES>  (39) 
O=C(C[N-]S(=O)(=O)c1ccccc1)c1ccc(Cn2cc(Cl)c(=O)[n-]c2=O)cc1

>  <Energy>  (39) 
45.10848867396232

>  <Genealogy>  (39) 
O=C(C[N-]S(=O)(=O)c1ccccc1)c1ccc(Cn2cc(Cl)c(=O)[n-]c2=O)cc1 (protonated)
O=C(C[N-]S(=O)(=O)c1ccccc1)c1ccc(Cn2cc(Cl)c(=O)[n-]c2=O)cc1 (3D coordinates assigned)
O=C(C[N-]S(=O)(=O)c1ccccc1)c1ccc(Cn2cc(Cl)c(=O)[n-]c2=O)cc1 (optimized conformer: 45.10848867396232 kcal/mol)

>  <smiles>  (39) 
O=C(CNS(=O)(=O)c1ccccc1)c1ccc(Cn2cc(Cl)c(=O)[nH]c2=O)cc1

>  <score_type>  (39) 
oracle

>  <origin>  (39) 
adg

>  <m_score__min__energy>  (39) 
-12.210000000000001

>  <m_primary>  (39) 
energy

$$$$
39:0
     RDKit          3D

 57 60  0  0  0  0  0  0  0  0999 V2000
   61.2780   32.1700   52.8340 C   0  0  0  0  0  0  0  0  0  0  0  0
   61.3950   33.4260   52.1770 O   0  0  0  0  0  0  0  0  0  0  0  0
   61.2530   33.6140   50.7930 C   0  0  0  0  0  0  0  0  0  0  0  0
   59.9950   33.7340   50.1750 C   0  0  0  0  0  0  0  0  0  0  0  0
   59.9060   33.9260   48.7950 C   0  0  0  0  0  0  0  0  0  0  0  0
   61.0640   34.0010   48.0170 C   0  0  0  0  0  0  0  0  0  0  0  0
   60.9530   34.2300   46.6130 N   0  0  0  0  0  0  0  0  0  0  0  0
   59.4010   34.4170   45.8700 S   0  0  0  0  0  0  0  0  0  0  0  0
   58.5250   35.2500   46.7620 O   0  0  0  0  0  0  0  0  0  0  0  0
   59.5550   35.1230   44.5510 O   0  0  0  0  0  0  0  0  0  0  0  0
   58.6630   32.8380   45.6250 C   0  0  0  0  0  0  0  0  0  0  0  0
   57.7460   32.6480   44.5830 C   0  0  0  0  0  0  0  0  0  0  0  0
   57.2130   31.3800   44.3400 C   0  0  0  0  0  0  0  0  0  0  0  0
   57.5860   30.2970   45.1400 C   0  0  0  0  0  0  0  0  0  0  0  0
   58.4860   30.4810   46.2020 C   0  0  0  0  0  0  0  0  0  0  0  0
   58.9230   29.3820   47.0120 N   0  0  0  0  0  0  0  0  0  0  0  0
   58.7940   27.9910   46.6920 C   0  0  0  0  0  0  0  0  0  0  0  0
   59.6290   27.4690   45.9060 O   0  0  0  0  0  0  0  0  0  0  0  0
   57.7470   27.1200   47.3300 C   0  0  0  0  0  0  0  0  0  0  0  0
   57.4000   26.0170   46.4330 N   0  0  0  0  0  0  0  0  0  0  0  0
   56.2070   25.8130   45.8310 C   0  0  0  0  0  0  0  0  0  0  0  0
   55.0910   26.6220   46.0100 O   0  0  0  0  0  0  0  0  0  0  0  0
   56.2650   24.7030   45.0130 C   0  0  0  0  0  0  0  0  0  0  0  0
   57.5420   24.2140   45.1060 C   0  0  0  0  0  0  0  0  0  0  0  0
   58.2220   25.0430   45.9760 C   0  0  0  0  0  0  0  0  0  0  0  0
   59.5650   24.9040   46.3220 O   0  0  0  0  0  0  0  0  0  0  0  0
   58.0450   23.0310   44.3430 C   0  0  0  0  0  0  0  0  0  0  0  0
   56.9490   22.3910   43.5140 C   0  0  0  0  0  0  0  0  0  0  0  0
   55.6890   22.8730   43.4240 C   0  0  0  0  0  0  0  0  0  0  0  0
   55.2020   24.1180   44.1390 C   0  0  0  0  0  0  0  0  0  0  0  0
   59.0390   31.7480   46.4240 C   0  0  0  0  0  0  0  0  0  0  0  0
   62.3280   33.8730   48.6160 C   0  0  0  0  0  0  0  0  0  0  0  0
   63.4700   33.9450   47.8030 O   0  0  0  0  0  0  0  0  0  0  0  0
   63.7670   33.0370   46.7460 C   0  0  0  0  0  0  0  0  0  0  0  0
   62.4110   33.6830   50.0090 C   0  0  0  0  0  0  0  0  0  0  0  0
   61.2923   32.3232   53.9232 H   0  0  0  0  0  0  0  0  0  0  0  0
   60.3313   31.6910   52.5435 H   0  0  0  0  0  0  0  0  0  0  0  0
   62.1199   31.5244   52.5435 H   0  0  0  0  0  0  0  0  0  0  0  0
   59.0787   33.6764   50.7808 H   0  0  0  0  0  0  0  0  0  0  0  0
   58.9192   34.0187   48.3179 H   0  0  0  0  0  0  0  0  0  0  0  0
   57.4451   33.4994   43.9548 H   0  0  0  0  0  0  0  0  0  0  0  0
   56.4980   31.2338   43.5170 H   0  0  0  0  0  0  0  0  0  0  0  0
   57.1735   29.2976   44.9374 H   0  0  0  0  0  0  0  0  0  0  0  0
   58.1377   26.7127   48.2742 H   0  0  0  0  0  0  0  0  0  0  0  0
   56.8476   27.7218   47.5275 H   0  0  0  0  0  0  0  0  0  0  0  0
   60.2170   25.6740   46.2480 H   0  0  0  0  0  0  0  0  0  0  0  0
   58.8545   23.3568   43.6732 H   0  0  0  0  0  0  0  0  0  0  0  0
   58.4076   22.2856   45.0661 H   0  0  0  0  0  0  0  0  0  0  0  0
   57.1939   21.4783   42.9510 H   0  0  0  0  0  0  0  0  0  0  0  0
   54.9723   22.3276   42.7924 H   0  0  0  0  0  0  0  0  0  0  0  0
   54.9042   24.8663   43.3898 H   0  0  0  0  0  0  0  0  0  0  0  0
   54.3495   23.8378   44.7752 H   0  0  0  0  0  0  0  0  0  0  0  0
   59.7734   31.8897   47.2306 H   0  0  0  0  0  0  0  0  0  0  0  0
   64.0826   32.0720   47.1694 H   0  0  0  0  0  0  0  0  0  0  0  0
   62.8702   32.8897   46.1263 H   0  0  0  0  0  0  0  0  0  0  0  0
   64.5775   33.4482   46.1263 H   0  0  0  0  0  0  0  0  0  0  0  0
   63.3973   33.5877   50.4867 H   0  0  0  0  0  0  0  0  0  0  0  0
  1  2  1  0
  2  3  1  0
  3  4  2  0
  4  5  1  0
  5  6  2  0
  6  7  1  0
  7  8  1  0
  8  9  2  0
  8 10  2  0
  8 11  1  0
 11 12  2  0
 12 13  1  0
 13 14  2  0
 14 15  1  0
 15 16  1  0
 16 17  1  0
 17 18  2  0
 17 19  1  0
 19 20  1  0
 20 21  1  0
 21 22  1  0
 21 23  2  0
 23 24  1  0
 24 25  2  0
 25 26  1  0
 24 27  1  0
 27 28  1  0
 28 29  2  0
 29 30  1  0
 15 31  2  0
  6 32  1  0
 32 33  1  0
 33 34  1  0
 32 35  2  0
 35  3  1  0
 31 11  1  0
 25 20  1  0
 30 23  1  0
  1 36  1  0
  1 37  1  0
  1 38  1  0
  4 39  1  0
  5 40  1  0
 12 41  1  0
 13 42  1  0
 14 43  1  0
 19 44  1  0
 19 45  1  0
 26 46  1  0
 27 47  1  0
 27 48  1  0
 28 49  1  0
 29 50  1  0
 30 51  1  0
 30 52  1  0
 31 53  1  0
 34 54  1  0
 34 55  1  0
 34 56  1  0
 35 57  1  0
M  CHG  3   7  -1  16  -1  22  -1
M  END
>  <UniqueID>  (40) 
36

>  <SMILES>  (40) 
COc1ccc([N-]S(=O)(=O)c2cccc([N-]C(=O)Cn3c([O-])c4c(c3O)CC=CC4)c2)c(OC)c1

>  <Energy>  (40) 
102.78147310228839

>  <Genealogy>  (40) 
COc1ccc([N-]S(=O)(=O)c2cccc([N-]C(=O)Cn3c([O-])c4c(c3O)CC=CC4)c2)c(OC)c1 (protonated)
COc1ccc([N-]S(=O)(=O)c2cccc([N-]C(=O)Cn3c([O-])c4c(c3O)CC=CC4)c2)c(OC)c1 (3D coordinates assigned)
COc1ccc([N-]S(=O)(=O)c2cccc([N-]C(=O)Cn3c([O-])c4c(c3O)CC=CC4)c2)c(OC)c1 (nonaromatic ring conformer: 102.78147310228839 kcal/mol)

>  <smiles>  (40) 
COc1ccc(NS(=O)(=O)c2cccc(NC(=O)Cn3c(O)c4c(c3O)CC=CC4)c2)c(OC)c1

>  <score_type>  (40) 
oracle

>  <origin>  (40) 
adg

>  <m_score__min__energy>  (40) 
-14.210000000000001

>  <m_primary>  (40) 
energy

$$$$
40:0
     RDKit          3D

 44 47  0  0  0  0  0  0  0  0999 V2000
   55.7578   28.3796   45.4595 H   0  0  0  0  0  0  0  0  0  0  0  0
   56.7280   27.8730   45.3500 C   0  0  0  0  0  0  0  0  0  0  0  0
   57.7630   28.5930   44.8700 C   0  0  0  0  0  0  0  0  0  0  0  0
   58.8480   27.9620   44.0880 C   0  0  0  0  0  0  0  0  0  0  0  0
   58.5660   27.2420   43.0900 O   0  0  0  0  0  0  0  0  0  0  0  0
   60.2120   28.1260   44.4960 N   0  0  0  0  0  0  0  0  0  0  0  0
   60.7250   27.7220   45.8000 C   0  0  0  0  0  0  0  0  0  0  0  0
   60.2812   26.7560   46.0825 H   0  0  0  0  0  0  0  0  0  0  0  0
   61.8195   27.6280   45.7437 H   0  0  0  0  0  0  0  0  0  0  0  0
   60.3720   28.7520   46.8330 C   0  0  0  0  0  0  0  0  0  0  0  0
   60.8820   30.0580   46.7310 C   0  0  0  0  0  0  0  0  0  0  0  0
   61.5273   30.3290   45.8823 H   0  0  0  0  0  0  0  0  0  0  0  0
   60.5730   31.0140   47.7030 C   0  0  0  0  0  0  0  0  0  0  0  0
   60.9652   32.0376   47.6115 H   0  0  0  0  0  0  0  0  0  0  0  0
   59.7660   30.6700   48.7910 C   0  0  0  0  0  0  0  0  0  0  0  0
   59.5233   31.4228   49.5554 H   0  0  0  0  0  0  0  0  0  0  0  0
   59.2670   29.3690   48.9080 C   0  0  0  0  0  0  0  0  0  0  0  0
   58.6359   29.0979   49.7672 H   0  0  0  0  0  0  0  0  0  0  0  0
   59.5690   28.4130   47.9350 C   0  0  0  0  0  0  0  0  0  0  0  0
   59.1763   27.3901   48.0321 H   0  0  0  0  0  0  0  0  0  0  0  0
   57.7950   30.0640   45.0680 C   0  0  0  0  0  0  0  0  0  0  0  0
   57.7400   30.6420   46.2980 N   0  0  0  0  0  0  0  0  0  0  0  0
   57.7990   31.9500   46.0130 C   0  0  0  0  0  0  0  0  0  0  0  0
   57.7790   33.0190   46.9050 C   0  0  0  0  0  0  0  0  0  0  0  0
   57.7079   32.8541   47.9902 H   0  0  0  0  0  0  0  0  0  0  0  0
   57.8530   34.3190   46.3680 C   0  0  0  0  0  0  0  0  0  0  0  0
   57.8408   35.1898   47.0399 H   0  0  0  0  0  0  0  0  0  0  0  0
   57.9430   34.5110   44.9690 C   0  0  0  0  0  0  0  0  0  0  0  0
   58.0007   35.5300   44.5588 H   0  0  0  0  0  0  0  0  0  0  0  0
   57.9590   33.4040   44.1000 C   0  0  0  0  0  0  0  0  0  0  0  0
   58.0283   33.5369   43.0103 H   0  0  0  0  0  0  0  0  0  0  0  0
   57.8840   32.1340   44.6680 C   0  0  0  0  0  0  0  0  0  0  0  0
   57.8850   30.9510   44.0380 N   0  0  0  0  0  0  0  0  0  0  0  0
   56.8100   26.4480   45.7390 C   0  0  0  0  0  0  0  0  0  0  0  0
   58.0600   25.8180   45.8880 C   0  0  0  0  0  0  0  0  0  0  0  0
   58.9830   26.3741   45.6671 H   0  0  0  0  0  0  0  0  0  0  0  0
   58.1340   24.4900   46.3150 C   0  0  0  0  0  0  0  0  0  0  0  0
   59.1140   24.0043   46.4317 H   0  0  0  0  0  0  0  0  0  0  0  0
   56.9650   23.7780   46.5940 C   0  0  0  0  0  0  0  0  0  0  0  0
   57.0246   22.7277   46.9155 H   0  0  0  0  0  0  0  0  0  0  0  0
   55.7200   24.3990   46.4650 C   0  0  0  0  0  0  0  0  0  0  0  0
   54.8011   23.8378   46.6902 H   0  0  0  0  0  0  0  0  0  0  0  0
   55.6390   25.7330   46.0500 C   0  0  0  0  0  0  0  0  0  0  0  0
   54.3910   26.3380   45.9390 O   0  0  0  0  0  0  0  0  0  0  0  0
  1  2  1  0
  2  3  2  0
  3  4  1  0
  4  5  2  0
  4  6  1  0
  6  7  1  0
  7  8  1  0
  7  9  1  0
  7 10  1  0
 10 11  2  0
 11 12  1  0
 11 13  1  0
 13 14  1  0
 13 15  2  0
 15 16  1  0
 15 17  1  0
 17 18  1  0
 17 19  2  0
 19 20  1  0
  3 21  1  0
 21 22  2  0
 22 23  1  0
 23 24  2  0
 24 25  1  0
 24 26  1  0
 26 27  1  0
 26 28  2  0
 28 29  1  0
 28 30  1  0
 30 31  1  0
 30 32  2  0
 32 33  1  0
  2 34  1  0
 34 35  2  0
 35 36  1  0
 35 37  1  0
 37 38  1  0
 37 39  2  0
 39 40  1  0
 39 41  1  0
 41 42  1  0
 41 43  2  0
 43 44  1  0
 19 10  1  0
 33 21  1  0
 43 34  1  0
 32 23  1  0
M  CHG  3   6  -1  33  -1  44  -1
M  END
>  <UniqueID>  (41) 
37

>  <SMILES>  (41) 
O=C([N-]Cc1ccccc1)/C(=C\c1ccccc1[O-])c1nc2ccccc2[n-]1

>  <Energy>  (41) 
89.47127736530732

>  <Genealogy>  (41) 
O=C([N-]Cc1ccccc1)C(=Cc1ccccc1[O-])c1nc2ccccc2[n-]1 (protonated)
O=C([N-]Cc1ccccc1)/C(=C\c1ccccc1[O-])c1nc2ccccc2[n-]1 (cis-trans isomerization)
O=C([N-]Cc1ccccc1)/C(=C\c1ccccc1[O-])c1nc2ccccc2[n-]1 (3D coordinates assigned)
O=C([N-]Cc1ccccc1)/C(=C\c1ccccc1[O-])c1nc2ccccc2[n-]1 (optimized conformer: 89.47127736530732 kcal/mol)

>  <smiles>  (41) 
O=C(NCc1ccccc1)C(=Cc1ccccc1O)c1nc2ccccc2[nH]1

>  <score_type>  (41) 
oracle

>  <origin>  (41) 
adg

>  <m_score__min__energy>  (41) 
-15.48

>  <m_primary>  (41) 
energy

$$$$
41:0
     RDKit          3D

 43 45  0  0  1  0  0  0  0  0999 V2000
   56.8470   20.3830   45.4700 C   0  0  0  0  0  0  0  0  0  0  0  0
   56.8900   21.7240   44.8090 C   0  0  0  0  0  0  0  0  0  0  0  0
   57.0450   22.8240   45.6350 C   0  0  0  0  0  0  0  0  0  0  0  0
   57.0930   24.0680   45.1130 N   0  0  0  0  0  0  0  0  0  0  0  0
   57.2580   25.1600   46.0470 C   0  0  1  0  0  0  0  0  0  0  0  0
   58.6340   25.7730   45.8930 C   0  0  0  0  0  0  0  0  0  0  0  0
   58.4120   26.8920   44.8700 C   0  0  0  0  0  0  0  0  0  0  0  0
   57.0880   27.4110   45.2500 N   0  0  0  0  0  0  0  0  0  0  0  0
   56.6630   28.7790   45.0870 C   0  0  0  0  0  0  0  0  0  0  0  0
   57.3210   29.4880   43.9290 C   0  0  0  0  0  0  0  0  0  0  0  0
   57.8020   30.8520   44.3320 C   0  0  0  0  0  0  0  0  0  0  0  0
   58.2790   31.0340   45.6340 C   0  0  0  0  0  0  0  0  0  0  0  0
   58.7250   32.2880   46.0180 C   0  0  0  0  0  0  0  0  0  0  0  0
   58.7050   33.3660   45.1310 C   0  0  0  0  0  0  0  0  0  0  0  0
   59.2760   34.9610   45.6320 Cl  0  0  0  0  0  0  0  0  0  0  0  0
   58.2240   33.1360   43.8540 C   0  0  0  0  0  0  0  0  0  0  0  0
   57.7720   31.9090   43.4290 C   0  0  0  0  0  0  0  0  0  0  0  0
   56.3770   26.3010   45.7870 C   0  0  0  0  0  0  0  0  0  0  0  0
   55.1280   26.3220   46.0030 O   0  0  0  0  0  0  0  0  0  0  0  0
   56.7840   21.8990   43.4560 C   0  0  0  0  0  0  0  0  0  0  0  0
   57.0370   25.4070   43.3170 O   0  0  0  0  0  0  0  0  0  0  0  0
   56.8360   23.1600   42.9580 N   0  0  0  0  0  0  0  0  0  0  0  0
   56.9880   24.2330   43.7830 C   0  0  0  0  0  0  0  0  0  0  0  0
   56.6390   20.8610   42.6910 N   0  0  0  0  0  0  0  0  0  0  0  0
   56.8511   20.5124   46.5624 H   0  0  0  0  0  0  0  0  0  0  0  0
   55.9314   19.8540   45.1669 H   0  0  0  0  0  0  0  0  0  0  0  0
   57.7268   19.7964   45.1669 H   0  0  0  0  0  0  0  0  0  0  0  0
   57.1295   22.6836   46.7227 H   0  0  0  0  0  0  0  0  0  0  0  0
   57.0532   24.7054   47.0275 H   0  0  0  0  0  0  0  0  0  0  0  0
   58.9929   26.1800   46.8498 H   0  0  0  0  0  0  0  0  0  0  0  0
   59.3951   25.0453   45.5750 H   0  0  0  0  0  0  0  0  0  0  0  0
   59.1845   27.6702   44.9578 H   0  0  0  0  0  0  0  0  0  0  0  0
   58.4663   26.5497   43.8260 H   0  0  0  0  0  0  0  0  0  0  0  0
   55.5750   28.7871   44.9254 H   0  0  0  0  0  0  0  0  0  0  0  0
   56.9574   29.3166   46.0004 H   0  0  0  0  0  0  0  0  0  0  0  0
   58.1788   28.8922   43.5838 H   0  0  0  0  0  0  0  0  0  0  0  0
   56.5804   29.6029   43.1238 H   0  0  0  0  0  0  0  0  0  0  0  0
   58.2997   30.1933   46.3431 H   0  0  0  0  0  0  0  0  0  0  0  0
   59.1019   32.4372   47.0406 H   0  0  0  0  0  0  0  0  0  0  0  0
   58.2022   33.9760   43.1441 H   0  0  0  0  0  0  0  0  0  0  0  0
   57.3975   31.7676   42.4044 H   0  0  0  0  0  0  0  0  0  0  0  0
   56.7540   23.2870   41.9070 H   0  0  0  0  0  0  0  0  0  0  0  0
   57.0450   19.9380   42.9670 H   0  0  0  0  0  0  0  0  0  0  0  0
  1  2  1  0
  2  3  2  0
  3  4  1  0
  4  5  1  0
  5  6  1  0
  6  7  1  0
  7  8  1  0
  8  9  1  0
  9 10  1  0
 10 11  1  0
 11 12  2  0
 12 13  1  0
 13 14  2  0
 14 15  1  0
 14 16  1  0
 16 17  2  0
  8 18  1  0
 18 19  2  0
  4 20  1  0
 20 21  2  0
 20 22  1  0
 22 23  1  0
 23 24  2  3
 23  2  1  0
 18  5  1  0
 17 11  1  0
  1 25  1  0
  1 26  1  0
  1 27  1  0
  3 28  1  0
  5 29  1  1
  6 30  1  0
  6 31  1  0
  7 32  1  0
  7 33  1  0
  9 34  1  0
  9 35  1  0
 10 36  1  0
 10 37  1  0
 12 38  1  0
 13 39  1  0
 16 40  1  0
 17 41  1  0
 22 42  1  0
 24 43  1  0
M  END
>  <smiles>  (42) 
Cc1cn(C2CCN(CCc3ccc(Cl)cc3)C2=O)c(=O)[nH]c1=N

>  <score_type>  (42) 
oracle

>  <origin>  (42) 
adg

>  <m_score__min__energy>  (42) 
-8.9000000000000004

>  <m_primary>  (42) 
energy

$$$$
42:0
     RDKit          3D

 43 45  0  0  0  0  0  0  0  0999 V2000
   60.0730   28.2930   45.4680 O   0  0  0  0  0  0  0  0  0  0  0  0
   58.8410   28.3050   45.2080 C   0  0  0  0  0  0  0  0  0  0  0  0
   58.2290   27.1290   44.5100 C   0  0  0  0  0  0  0  0  0  0  0  0
   57.1170   26.5650   45.3360 C   0  0  0  0  0  0  0  0  0  0  0  0
   57.1130   25.3210   45.8510 N   0  0  0  0  0  0  0  0  0  0  0  0
   55.9060   25.2370   46.4480 C   0  0  0  0  0  0  0  0  0  0  0  0
   55.5230   24.2050   47.0590 O   0  0  0  0  0  0  0  0  0  0  0  0
   55.1380   26.3430   46.3380 N   0  0  0  0  0  0  0  0  0  0  0  0
   55.9180   27.1710   45.6240 C   0  0  0  0  0  0  0  0  0  0  0  0
   55.5400   28.4510   45.2410 O   0  0  0  0  0  0  0  0  0  0  0  0
   58.0080   29.3870   45.6540 N   0  0  0  0  0  0  0  0  0  0  0  0
   58.5090   30.6230   46.1890 C   0  0  0  0  0  0  0  0  0  0  0  0
   58.4850   31.8110   45.4380 C   0  0  0  0  0  0  0  0  0  0  0  0
   58.9570   33.0060   45.9900 C   0  0  0  0  0  0  0  0  0  0  0  0
   59.4490   33.0310   47.3010 C   0  0  0  0  0  0  0  0  0  0  0  0
   60.0140   34.5490   47.9950 S   0  0  0  0  0  0  0  0  0  0  0  0
   59.3630   34.7370   49.3370 O   0  0  0  0  0  0  0  0  0  0  0  0
   59.6180   35.6960   47.1060 O   0  0  0  0  0  0  0  0  0  0  0  0
   61.7510   34.5110   48.1830 N   0  0  0  0  0  0  0  0  0  0  0  0
   62.1010   33.9830   49.5200 C   0  0  0  0  0  0  0  0  0  0  0  0
   63.5550   33.5040   49.5730 C   0  0  0  0  0  0  0  0  0  0  0  0
   63.7920   32.3470   48.5890 C   0  0  0  0  0  0  0  0  0  0  0  0
   62.8120   32.3640   47.4030 C   0  0  0  0  0  0  0  0  0  0  0  0
   62.3930   33.7990   47.0500 C   0  0  0  0  0  0  0  0  0  0  0  0
   59.4480   31.8560   48.0630 C   0  0  0  0  0  0  0  0  0  0  0  0
   58.9750   30.6620   47.5110 C   0  0  0  0  0  0  0  0  0  0  0  0
   57.8322   27.4499   43.5355 H   0  0  0  0  0  0  0  0  0  0  0  0
   58.9978   26.3560   44.3638 H   0  0  0  0  0  0  0  0  0  0  0  0
   56.9740   29.2270   45.6720 H   0  0  0  0  0  0  0  0  0  0  0  0
   58.0928   31.8006   44.4104 H   0  0  0  0  0  0  0  0  0  0  0  0
   58.9418   33.9295   45.3925 H   0  0  0  0  0  0  0  0  0  0  0  0
   61.9596   34.7785   50.2664 H   0  0  0  0  0  0  0  0  0  0  0  0
   61.4474   33.1243   49.7332 H   0  0  0  0  0  0  0  0  0  0  0  0
   64.2189   34.3408   49.3104 H   0  0  0  0  0  0  0  0  0  0  0  0
   63.7685   33.1464   50.5911 H   0  0  0  0  0  0  0  0  0  0  0  0
   64.8177   32.4219   48.1987 H   0  0  0  0  0  0  0  0  0  0  0  0
   63.6323   31.4071   49.1377 H   0  0  0  0  0  0  0  0  0  0  0  0
   63.2986   31.9068   46.5288 H   0  0  0  0  0  0  0  0  0  0  0  0
   61.9124   31.7978   47.6860 H   0  0  0  0  0  0  0  0  0  0  0  0
   63.2883   34.3607   46.7452 H   0  0  0  0  0  0  0  0  0  0  0  0
   61.6523   33.7355   46.2392 H   0  0  0  0  0  0  0  0  0  0  0  0
   59.8202   31.8727   49.0980 H   0  0  0  0  0  0  0  0  0  0  0  0
   58.9683   29.7452   48.1188 H   0  0  0  0  0  0  0  0  0  0  0  0
  1  2  2  0
  2  3  1  0
  3  4  1  0
  4  5  1  0
  5  6  1  0
  6  7  2  0
  6  8  1  0
  8  9  1  0
  9 10  1  0
  2 11  1  0
 11 12  1  0
 12 13  2  0
 13 14  1  0
 14 15  2  0
 15 16  1  0
 16 17  2  0
 16 18  2  0
 16 19  1  0
 19 20  1  0
 20 21  1  0
 21 22  1  0
 22 23  1  0
 23 24  1  0
 15 25  1  0
 25 26  2  0
  9  4  2  0
 26 12  1  0
 24 19  1  0
  3 27  1  0
  3 28  1  0
 11 29  1  0
 13 30  1  0
 14 31  1  0
 20 32  1  0
 20 33  1  0
 21 34  1  0
 21 35  1  0
 22 36  1  0
 22 37  1  0
 23 38  1  0
 23 39  1  0
 24 40  1  0
 24 41  1  0
 25 42  1  0
 26 43  1  0
M  CHG  3   5  -1   8  -1  10  -1
M  END
>  <UniqueID>  (43) 
38

>  <SMILES>  (43) 
O=C(Cc1[n-]c(=O)[n-]c1[O-])Nc1ccc(S(=O)(=O)N2CCCCC2)cc1

>  <Energy>  (43) 
79.3519128296606

>  <Genealogy>  (43) 
O=C(Cc1[n-]c(=O)[n-]c1[O-])Nc1ccc(S(=O)(=O)N2CCCCC2)cc1 (protonated)
O=C(Cc1[n-]c(=O)[n-]c1[O-])Nc1ccc(S(=O)(=O)N2CCCCC2)cc1 (3D coordinates assigned)
O=C(Cc1[n-]c(=O)[n-]c1[O-])Nc1ccc(S(=O)(=O)N2CCCCC2)cc1 (nonaromatic ring conformer: 79.3519128296606 kcal/mol)

>  <smiles>  (43) 
O=C(Cc1[nH]c(=O)[nH]c1O)Nc1ccc(S(=O)(=O)N2CCCCC2)cc1

>  <score_type>  (43) 
oracle

>  <origin>  (43) 
adg

>  <m_score__min__energy>  (43) 
-16.899999999999999

>  <m_primary>  (43) 
energy

$$$$
43:0
     RDKit          3D

 35 37  0  0  0  0  0  0  0  0999 V2000
   60.7870   26.7180   47.2780 C   0  0  0  0  0  0  0  0  0  0  0  0
   60.1340   28.0200   47.2090 N   0  0  0  0  0  0  0  0  0  0  0  0
   58.8850   28.2510   46.5260 C   0  0  0  0  0  0  0  0  0  0  0  0
   58.6750   29.4430   45.7770 C   0  0  0  0  0  0  0  0  0  0  0  0
   59.7230   30.4160   45.6670 N   0  0  0  0  0  0  0  0  0  0  0  0
   59.6520   31.6790   46.3970 C   0  0  0  0  0  0  0  0  0  0  0  0
   60.9640   31.9530   47.0790 C   0  0  0  0  0  0  0  0  0  0  0  0
   61.4180   31.1090   48.1050 C   0  0  0  0  0  0  0  0  0  0  0  0
   62.5930   31.4120   48.7980 C   0  0  0  0  0  0  0  0  0  0  0  0
   63.3190   32.5630   48.4790 C   0  0  0  0  0  0  0  0  0  0  0  0
   64.7850   32.9510   49.3610 Cl  0  0  0  0  0  0  0  0  0  0  0  0
   62.8690   33.4120   47.4610 C   0  0  0  0  0  0  0  0  0  0  0  0
   61.6930   33.1120   46.7660 C   0  0  0  0  0  0  0  0  0  0  0  0
   57.4420   29.6610   45.1010 C   0  0  0  0  0  0  0  0  0  0  0  0
   57.1150   31.2790   44.1310 Br  0  0  0  0  0  0  0  0  0  0  0  0
   56.4200   28.6980   45.1560 C   0  0  0  0  0  0  0  0  0  0  0  0
   56.6610   27.5440   45.8870 C   0  0  0  0  0  0  0  0  0  0  0  0
   57.8340   27.3190   46.5480 C   0  0  0  0  0  0  0  0  0  0  0  0
   57.7800   26.1320   47.1930 N   0  0  0  0  0  0  0  0  0  0  0  0
   56.5430   25.6590   46.8900 C   0  0  0  0  0  0  0  0  0  0  0  0
   55.8490   26.5030   46.0970 N   0  0  0  0  0  0  0  0  0  0  0  0
   54.5700   26.3310   45.6240 O   0  0  0  0  0  0  0  0  0  0  0  0
   60.9292   26.4345   48.3313 H   0  0  0  0  0  0  0  0  0  0  0  0
   60.1594   25.9660   46.7774 H   0  0  0  0  0  0  0  0  0  0  0  0
   61.7650   26.7713   46.7774 H   0  0  0  0  0  0  0  0  0  0  0  0
   60.6800   28.8360   47.5640 H   0  0  0  0  0  0  0  0  0  0  0  0
   60.3840   30.3480   44.8590 H   0  0  0  0  0  0  0  0  0  0  0  0
   59.4299   32.4946   45.6931 H   0  0  0  0  0  0  0  0  0  0  0  0
   58.8575   31.6139   47.1550 H   0  0  0  0  0  0  0  0  0  0  0  0
   60.8465   30.2056   48.3644 H   0  0  0  0  0  0  0  0  0  0  0  0
   62.9473   30.7433   49.5963 H   0  0  0  0  0  0  0  0  0  0  0  0
   63.4412   34.3165   47.2073 H   0  0  0  0  0  0  0  0  0  0  0  0
   61.3380   33.7856   45.9721 H   0  0  0  0  0  0  0  0  0  0  0  0
   55.4625   28.8539   44.6375 H   0  0  0  0  0  0  0  0  0  0  0  0
   56.1509   24.6965   47.2503 H   0  0  0  0  0  0  0  0  0  0  0  0
  1  2  1  0
  2  3  1  0
  3  4  2  0
  4  5  1  0
  5  6  1  0
  6  7  1  0
  7  8  2  0
  8  9  1  0
  9 10  2  0
 10 11  1  0
 10 12  1  0
 12 13  2  0
  4 14  1  0
 14 15  1  0
 14 16  2  0
 16 17  1  0
 17 18  2  0
 18 19  1  0
 19 20  1  0
 20 21  2  0
 21 22  1  0
 18  3  1  0
 13  7  1  0
 21 17  1  0
  1 23  1  0
  1 24  1  0
  1 25  1  0
  2 26  1  0
  5 27  1  0
  6 28  1  0
  6 29  1  0
  8 30  1  0
  9 31  1  0
 12 32  1  0
 13 33  1  0
 16 34  1  0
 20 35  1  0
M  CHG  3  19  -1  21   1  22  -1
M  END
>  <UniqueID>  (44) 
39

>  <SMILES>  (44) 
CNc1c(NCc2ccc(Cl)cc2)c(Br)cc2c1[n-]c[n+]2[O-]

>  <Energy>  (44) 
79.48717408287864

>  <Genealogy>  (44) 
CNc1c(NCc2ccc(Cl)cc2)c(Br)cc2c1[n-]c[n+]2[O-] (protonated)
CNc1c(NCc2ccc(Cl)cc2)c(Br)cc2c1[n-]c[n+]2[O-] (3D coordinates assigned)
CNc1c(NCc2ccc(Cl)cc2)c(Br)cc2c1[n-]c[n+]2[O-] (optimized conformer: 79.48717408287864 kcal/mol)

>  <smiles>  (44) 
CNc1c(NCc2ccc(Cl)cc2)c(Br)cc2c1[nH]c[n+]2[O-]

>  <score_type>  (44) 
oracle

>  <origin>  (44) 
adg

>  <m_score__min__energy>  (44) 
-10.32

>  <m_primary>  (44) 
energy

$$$$
44:0
     RDKit          3D

 36 38  0  0  0  0  0  0  0  0999 V2000
   63.6940   33.0790   46.9020 N   0  0  0  0  0  0  0  0  0  0  0  0
   63.2790   32.8490   48.2540 C   0  0  0  0  0  0  0  0  0  0  0  0
   64.0880   32.0710   49.0960 C   0  0  0  0  0  0  0  0  0  0  0  0
   63.6760   31.7730   50.3980 C   0  0  0  0  0  0  0  0  0  0  0  0
   62.4500   32.2440   50.8680 C   0  0  0  0  0  0  0  0  0  0  0  0
   61.6380   33.0270   50.0430 C   0  0  0  0  0  0  0  0  0  0  0  0
   62.0510   33.3560   48.7450 C   0  0  0  0  0  0  0  0  0  0  0  0
   61.2020   34.1860   47.9380 N   0  0  0  0  0  0  0  0  0  0  0  0
   60.0690   33.6930   47.1980 C   0  0  0  0  0  0  0  0  0  0  0  0
   59.3550   32.5900   47.6880 C   0  0  0  0  0  0  0  0  0  0  0  0
   58.2550   32.0880   46.9860 C   0  0  0  0  0  0  0  0  0  0  0  0
   57.8590   32.6740   45.7790 C   0  0  0  0  0  0  0  0  0  0  0  0
   56.7230   32.1380   45.0860 N   0  0  0  0  0  0  0  0  0  0  0  0
   56.7160   30.9620   44.2660 C   0  0  0  0  0  0  0  0  0  0  0  0
   56.6610   31.0940   43.0150 O   0  0  0  0  0  0  0  0  0  0  0  0
   56.7110   29.6030   44.8420 C   0  0  0  0  0  0  0  0  0  0  0  0
   57.8180   28.9160   45.3170 C   0  0  0  0  0  0  0  0  0  0  0  0
   57.3490   27.7110   45.7910 C   0  0  0  0  0  0  0  0  0  0  0  0
   55.9880   27.7360   45.5890 C   0  0  0  0  0  0  0  0  0  0  0  0
   55.1200   26.7100   45.9340 O   0  0  0  0  0  0  0  0  0  0  0  0
   55.5820   28.8850   45.0180 N   0  0  0  0  0  0  0  0  0  0  0  0
   58.5450   33.8040   45.3050 C   0  0  0  0  0  0  0  0  0  0  0  0
   59.6440   34.3080   46.0060 C   0  0  0  0  0  0  0  0  0  0  0  0
   63.2460   33.8300   46.3300 H   0  0  0  0  0  0  0  0  0  0  0  0
   64.4880   32.5560   46.4730 H   0  0  0  0  0  0  0  0  0  0  0  0
   65.0535   31.6928   48.7288 H   0  0  0  0  0  0  0  0  0  0  0  0
   64.3192   31.1665   51.0526 H   0  0  0  0  0  0  0  0  0  0  0  0
   62.1220   31.9989   51.8890 H   0  0  0  0  0  0  0  0  0  0  0  0
   60.6677   33.3876   50.4152 H   0  0  0  0  0  0  0  0  0  0  0  0
   61.5030   35.1740   47.7810 H   0  0  0  0  0  0  0  0  0  0  0  0
   59.6627   32.1162   48.6318 H   0  0  0  0  0  0  0  0  0  0  0  0
   57.6979   31.2275   47.3850 H   0  0  0  0  0  0  0  0  0  0  0  0
   58.8616   29.2638   45.3155 H   0  0  0  0  0  0  0  0  0  0  0  0
   57.9395   26.8977   46.2381 H   0  0  0  0  0  0  0  0  0  0  0  0
   58.2157   34.2949   44.3773 H   0  0  0  0  0  0  0  0  0  0  0  0
   60.1793   35.1898   45.6240 H   0  0  0  0  0  0  0  0  0  0  0  0
  1  2  1  0
  2  3  2  0
  3  4  1  0
  4  5  2  0
  5  6  1  0
  6  7  2  0
  7  8  1  0
  8  9  1  0
  9 10  2  0
 10 11  1  0
 11 12  2  0
 12 13  1  0
 13 14  1  0
 14 15  2  0
 14 16  1  0
 16 17  2  0
 17 18  1  0
 18 19  2  0
 19 20  1  0
 19 21  1  0
 12 22  1  0
 22 23  2  0
  7  2  1  0
 23  9  1  0
 21 16  1  0
  1 24  1  0
  1 25  1  0
  3 26  1  0
  4 27  1  0
  5 28  1  0
  6 29  1  0
  8 30  1  0
 10 31  1  0
 11 32  1  0
 17 33  1  0
 18 34  1  0
 22 35  1  0
 23 36  1  0
M  CHG  3  13  -1  20  -1  21  -1
M  END
>  <UniqueID>  (45) 
40

>  <SMILES>  (45) 
Nc1ccccc1Nc1ccc([N-]C(=O)c2ccc([O-])[n-]2)cc1

>  <Energy>  (45) 
75.65934891224171

>  <Genealogy>  (45) 
Nc1ccccc1Nc1ccc([N-]C(=O)c2ccc([O-])[n-]2)cc1 (protonated)
Nc1ccccc1Nc1ccc([N-]C(=O)c2ccc([O-])[n-]2)cc1 (3D coordinates assigned)
Nc1ccccc1Nc1ccc([N-]C(=O)c2ccc([O-])[n-]2)cc1 (optimized conformer: 75.65934891224171 kcal/mol)

>  <smiles>  (45) 
Nc1ccccc1Nc1ccc(NC(=O)c2ccc(O)[nH]2)cc1

>  <score_type>  (45) 
oracle

>  <origin>  (45) 
adg

>  <m_score__min__energy>  (45) 
-14.390000000000001

>  <m_primary>  (45) 
energy

$$$$
45:0
     RDKit          3D

 55 58  0  0  0  0  0  0  0  0999 V2000
   59.2020   29.5370   48.3570 O   0  0  0  0  0  0  0  0  0  0  0  0
   59.8310   30.5580   48.7380 C   0  0  0  0  0  0  0  0  0  0  0  0
   59.0650   31.7290   49.2070 C   0  0  0  0  0  0  0  0  0  0  0  0
   58.9600   32.9010   48.5580 C   0  0  0  0  0  0  0  0  0  0  0  0
   58.5270   33.0670   47.1520 C   0  0  0  0  0  0  0  0  0  0  0  0
   58.9190   34.2100   46.4420 C   0  0  0  0  0  0  0  0  0  0  0  0
   58.5260   34.3820   45.1120 C   0  0  0  0  0  0  0  0  0  0  0  0
   57.7570   33.4050   44.4750 C   0  0  0  0  0  0  0  0  0  0  0  0
   57.3980   32.2350   45.1530 C   0  0  0  0  0  0  0  0  0  0  0  0
   56.5870   31.2630   44.4760 N   0  0  0  0  0  0  0  0  0  0  0  0
   56.4640   29.8770   44.8280 C   0  0  0  0  0  0  0  0  0  0  0  0
   55.3140   29.3610   44.8580 O   0  0  0  0  0  0  0  0  0  0  0  0
   57.6480   29.0330   45.1100 C   0  0  0  0  0  0  0  0  0  0  0  0
   58.9380   29.4720   44.7680 C   0  0  0  0  0  0  0  0  0  0  0  0
   60.0490   28.6780   45.0470 C   0  0  0  0  0  0  0  0  0  0  0  0
   59.8890   27.4370   45.6680 C   0  0  0  0  0  0  0  0  0  0  0  0
   58.6080   26.9730   46.0140 C   0  0  0  0  0  0  0  0  0  0  0  0
   58.4390   25.6590   46.6790 C   0  0  0  0  0  0  0  0  0  0  0  0
   57.9070   25.5950   47.8200 O   0  0  0  0  0  0  0  0  0  0  0  0
   58.8360   24.4570   46.0040 N   0  0  0  0  0  0  0  0  0  0  0  0
   58.0910   23.7620   44.9950 C   0  0  0  0  0  0  0  0  0  0  0  0
   58.3360   22.3940   44.8020 C   0  0  0  0  0  0  0  0  0  0  0  0
   57.6290   21.6790   43.8290 C   0  0  0  0  0  0  0  0  0  0  0  0
   56.6540   22.3200   43.0610 C   0  0  0  0  0  0  0  0  0  0  0  0
   56.3760   23.6740   43.2720 C   0  0  0  0  0  0  0  0  0  0  0  0
   57.0880   24.3950   44.2370 C   0  0  0  0  0  0  0  0  0  0  0  0
   57.4900   27.7780   45.7220 C   0  0  0  0  0  0  0  0  0  0  0  0
   57.7890   32.0680   46.4930 C   0  0  0  0  0  0  0  0  0  0  0  0
   61.2660   30.5870   48.7130 N   0  0  0  0  0  0  0  0  0  0  0  0
   62.1190   31.6670   48.3080 C   0  0  0  0  0  0  0  0  0  0  0  0
   63.2770   32.0260   49.0250 C   0  0  0  0  0  0  0  0  0  0  0  0
   64.0790   33.0820   48.5790 C   0  0  0  0  0  0  0  0  0  0  0  0
   63.7450   33.7750   47.4110 C   0  0  0  0  0  0  0  0  0  0  0  0
   62.6130   33.4050   46.6810 C   0  0  0  0  0  0  0  0  0  0  0  0
   61.8070   32.3520   47.1250 C   0  0  0  0  0  0  0  0  0  0  0  0
   58.5364   31.6347   50.1670 H   0  0  0  0  0  0  0  0  0  0  0  0
   59.2170   33.8124   49.1177 H   0  0  0  0  0  0  0  0  0  0  0  0
   59.5384   34.9747   46.9335 H   0  0  0  0  0  0  0  0  0  0  0  0
   58.8230   35.2891   44.5652 H   0  0  0  0  0  0  0  0  0  0  0  0
   57.4321   33.5564   43.4350 H   0  0  0  0  0  0  0  0  0  0  0  0
   59.0719   30.4474   44.2775 H   0  0  0  0  0  0  0  0  0  0  0  0
   61.0556   29.0299   44.7772 H   0  0  0  0  0  0  0  0  0  0  0  0
   60.7717   26.8185   45.8878 H   0  0  0  0  0  0  0  0  0  0  0  0
   59.0881   21.8807   45.4191 H   0  0  0  0  0  0  0  0  0  0  0  0
   57.8411   20.6116   43.6688 H   0  0  0  0  0  0  0  0  0  0  0  0
   56.1048   21.7595   42.2901 H   0  0  0  0  0  0  0  0  0  0  0  0
   55.5961   24.1733   42.6783 H   0  0  0  0  0  0  0  0  0  0  0  0
   56.8634   25.4589   44.4036 H   0  0  0  0  0  0  0  0  0  0  0  0
   56.4813   27.4202   45.9760 H   0  0  0  0  0  0  0  0  0  0  0  0
   57.5153   31.1481   47.0304 H   0  0  0  0  0  0  0  0  0  0  0  0
   63.5512   31.4753   49.9369 H   0  0  0  0  0  0  0  0  0  0  0  0
   64.9753   33.3682   49.1489 H   0  0  0  0  0  0  0  0  0  0  0  0
   64.3729   34.6104   47.0677 H   0  0  0  0  0  0  0  0  0  0  0  0
   62.3554   33.9422   45.7563 H   0  0  0  0  0  0  0  0  0  0  0  0
   60.9216   32.0589   46.5418 H   0  0  0  0  0  0  0  0  0  0  0  0
  1  2  2  0
  2  3  1  0
  3  4  2  3
  4  5  1  0
  5  6  2  0
  6  7  1  0
  7  8  2  0
  8  9  1  0
  9 10  1  0
 10 11  1  0
 11 12  2  0
 11 13  1  0
 13 14  2  0
 14 15  1  0
 15 16  2  0
 16 17  1  0
 17 18  1  0
 18 19  2  0
 18 20  1  0
 20 21  1  0
 21 22  2  0
 22 23  1  0
 23 24  2  0
 24 25  1  0
 25 26  2  0
 17 27  2  0
  9 28  2  0
  2 29  1  0
 29 30  1  0
 30 31  2  0
 31 32  1  0
 32 33  2  0
 33 34  1  0
 34 35  2  0
 28  5  1  0
 35 30  1  0
 27 13  1  0
 26 21  1  0
  3 36  1  0
  4 37  1  0
  6 38  1  0
  7 39  1  0
  8 40  1  0
 14 41  1  0
 15 42  1  0
 16 43  1  0
 22 44  1  0
 23 45  1  0
 24 46  1  0
 25 47  1  0
 26 48  1  0
 27 49  1  0
 28 50  1  0
 31 51  1  0
 32 52  1  0
 33 53  1  0
 34 54  1  0
 35 55  1  0
M  CHG  3  10  -1  20  -1  29  -1
M  END
>  <UniqueID>  (46) 
41

>  <SMILES>  (46) 
O=C(C=Cc1cccc([N-]C(=O)c2cccc(C(=O)[N-]c3ccccc3)c2)c1)[N-]c1ccccc1

>  <Energy>  (46) 
80.83049327670409

>  <Genealogy>  (46) 
O=C(C=Cc1cccc([N-]C(=O)c2cccc(C(=O)[N-]c3ccccc3)c2)c1)[N-]c1ccccc1 (protonated)
O=C(C=Cc1cccc([N-]C(=O)c2cccc(C(=O)[N-]c3ccccc3)c2)c1)[N-]c1ccccc1 (3D coordinates assigned)
O=C(C=Cc1cccc([N-]C(=O)c2cccc(C(=O)[N-]c3ccccc3)c2)c1)[N-]c1ccccc1 (optimized conformer: 80.83049327670409 kcal/mol)

>  <smiles>  (46) 
O=C(C=Cc1cccc(NC(=O)c2cccc(C(=O)Nc3ccccc3)c2)c1)Nc1ccccc1

>  <score_type>  (46) 
oracle

>  <origin>  (46) 
adg

>  <m_score__min__energy>  (46) 
-14.369999999999999

>  <m_primary>  (46) 
energy

$$$$
46:0
     RDKit          3D

 50 52  0  0  0  0  0  0  0  0999 V2000
   58.9077   28.6103   48.0514 H   0  0  0  0  0  0  0  0  0  0  0  0
   58.5120   27.9830   47.2390 C   0  0  0  0  0  0  0  0  0  0  0  0
   58.2999   26.9188   47.4193 H   0  0  0  0  0  0  0  0  0  0  0  0
   58.2880   28.5160   46.0280 C   0  0  0  0  0  0  0  0  0  0  0  0
   57.7890   27.8650   44.8850 C   0  0  0  0  0  0  0  0  0  0  0  0
   57.5540   26.5620   44.6390 C   0  0  0  0  0  0  0  0  0  0  0  0
   57.6736   26.2171   43.6013 H   0  0  0  0  0  0  0  0  0  0  0  0
   57.1500   25.5570   45.6410 C   0  0  0  0  0  0  0  0  0  0  0  0
   55.9020   25.6490   46.2720 C   0  0  0  0  0  0  0  0  0  0  0  0
   55.0480   26.7120   46.0010 O   0  0  0  0  0  0  0  0  0  0  0  0
   55.5200   24.6970   47.1630 N   0  0  0  0  0  0  0  0  0  0  0  0
   56.3230   23.6400   47.4460 C   0  0  0  0  0  0  0  0  0  0  0  0
   55.9510   22.7730   48.2780 O   0  0  0  0  0  0  0  0  0  0  0  0
   57.5260   23.5140   46.8290 N   0  0  0  0  0  0  0  0  0  0  0  0
   57.9520   24.4380   45.9310 C   0  0  0  0  0  0  0  0  0  0  0  0
   59.0650   24.2790   45.3600 O   0  0  0  0  0  0  0  0  0  0  0  0
   57.5610   28.8570   43.9440 C   0  0  0  0  0  0  0  0  0  0  0  0
   57.1329   28.7209   42.9399 H   0  0  0  0  0  0  0  0  0  0  0  0
   57.9730   30.0470   44.5060 C   0  0  0  0  0  0  0  0  0  0  0  0
   57.9110   31.3790   43.8230 C   0  0  0  0  0  0  0  0  0  0  0  0
   57.8738   32.1773   44.5789 H   0  0  0  0  0  0  0  0  0  0  0  0
   58.8040   31.5106   43.1943 H   0  0  0  0  0  0  0  0  0  0  0  0
   57.0096   31.4271   43.1943 H   0  0  0  0  0  0  0  0  0  0  0  0
   58.4080   29.8430   45.7690 N   0  0  0  0  0  0  0  0  0  0  0  0
   58.8900   30.8620   46.6610 C   0  0  0  0  0  0  0  0  0  0  0  0
   58.1920   32.0710   46.7840 C   0  0  0  0  0  0  0  0  0  0  0  0
   57.2858   32.2439   46.1849 H   0  0  0  0  0  0  0  0  0  0  0  0
   58.6430   33.0580   47.6650 C   0  0  0  0  0  0  0  0  0  0  0  0
   58.1010   34.0119   47.7446 H   0  0  0  0  0  0  0  0  0  0  0  0
   59.7840   32.8350   48.4470 C   0  0  0  0  0  0  0  0  0  0  0  0
   60.2800   33.8840   49.3470 C   0  0  0  0  0  0  0  0  0  0  0  0
   59.6840   34.9920   49.3600 O   0  0  0  0  0  0  0  0  0  0  0  0
   61.4300   33.7110   50.1890 N   0  0  0  0  0  0  0  0  0  0  0  0
   62.8300   33.4510   49.8260 C   0  0  0  0  0  0  0  0  0  0  0  0
   63.1630   31.9620   50.0170 C   0  0  0  0  0  0  0  0  0  0  0  0
   63.2143   31.7327   51.0916 H   0  0  0  0  0  0  0  0  0  0  0  0
   62.3800   31.3481   49.5480 H   0  0  0  0  0  0  0  0  0  0  0  0
   64.1330   31.7401   49.5480 H   0  0  0  0  0  0  0  0  0  0  0  0
   63.7090   34.2810   50.7770 C   0  0  0  0  0  0  0  0  0  0  0  0
   63.4523   34.0386   51.8188 H   0  0  0  0  0  0  0  0  0  0  0  0
   64.7683   34.0459   50.5961 H   0  0  0  0  0  0  0  0  0  0  0  0
   63.5350   35.3520   50.5961 H   0  0  0  0  0  0  0  0  0  0  0  0
   63.1220   33.8870   48.3770 C   0  0  0  0  0  0  0  0  0  0  0  0
   63.7341   34.8009   48.3854 H   0  0  0  0  0  0  0  0  0  0  0  0
   63.6664   33.0859   47.8557 H   0  0  0  0  0  0  0  0  0  0  0  0
   62.1739   34.0854   47.8557 H   0  0  0  0  0  0  0  0  0  0  0  0
   60.5090   31.6430   48.2930 C   0  0  0  0  0  0  0  0  0  0  0  0
   61.4344   31.4856   48.8665 H   0  0  0  0  0  0  0  0  0  0  0  0
   60.0580   30.6560   47.4130 C   0  0  0  0  0  0  0  0  0  0  0  0
   60.7690   29.5080   47.2740 F   0  0  0  0  0  0  0  0  0  0  0  0
  1  2  1  0
  2  3  1  0
  2  4  2  0
  4  5  1  0
  5  6  2  0
  6  7  1  0
  6  8  1  0
  8  9  2  0
  9 10  1  0
  9 11  1  0
 11 12  1  0
 12 13  2  0
 12 14  1  0
 14 15  1  0
 15 16  2  0
  5 17  1  0
 17 18  1  0
 17 19  2  0
 19 20  1  0
 20 21  1  0
 20 22  1  0
 20 23  1  0
 19 24  1  0
 24 25  1  0
 25 26  2  0
 26 27  1  0
 26 28  1  0
 28 29  1  0
 28 30  2  0
 30 31  1  0
 31 32  2  0
 31 33  1  0
 33 34  1  0
 34 35  1  0
 35 36  1  0
 35 37  1  0
 35 38  1  0
 34 39  1  0
 39 40  1  0
 39 41  1  0
 39 42  1  0
 34 43  1  0
 43 44  1  0
 43 45  1  0
 43 46  1  0
 30 47  1  0
 47 48  1  0
 47 49  2  0
 49 50  1  0
 24  4  1  0
 49 25  1  0
 15  8  1  0
M  CHG  4  10  -1  11  -1  14  -1  33  -1
M  END
>  <UniqueID>  (47) 
42

>  <SMILES>  (47) 
C=c1/c(=C\c2c([O-])[n-]c(=O)[n-]c2=O)cc(C)n1-c1ccc(C(=O)[N-]C(C)(C)C)cc1F

>  <Energy>  (47) 
105.3806373638699

>  <Genealogy>  (47) 
C=c1c(=Cc2c([O-])[n-]c(=O)[n-]c2=O)cc(C)n1-c1ccc(C(=O)[N-]C(C)(C)C)cc1F (protonated)
C=c1/c(=C\c2c([O-])[n-]c(=O)[n-]c2=O)cc(C)n1-c1ccc(C(=O)[N-]C(C)(C)C)cc1F (cis-trans isomerization)
C=c1/c(=C\c2c([O-])[n-]c(=O)[n-]c2=O)cc(C)n1-c1ccc(C(=O)[N-]C(C)(C)C)cc1F (3D coordinates assigned)
C=c1/c(=C\c2c([O-])[n-]c(=O)[n-]c2=O)cc(C)n1-c1ccc(C(=O)[N-]C(C)(C)C)cc1F (optimized conformer: 105.3806373638699 kcal/mol)

>  <smiles>  (47) 
C=c1c(=Cc2c(O)[nH]c(=O)[nH]c2=O)cc(C)n1-c1ccc(C(=O)NC(C)(C)C)cc1F

>  <score_type>  (47) 
oracle

>  <origin>  (47) 
adg

>  <m_score__min__energy>  (47) 
-16.149999999999999

>  <m_primary>  (47) 
energy

$$$$
47:0
     RDKit          3D

 53 57  0  0  0  0  0  0  0  0999 V2000
   57.6610   25.5640   47.4150 C   0  0  0  0  0  0  0  0  0  0  0  0
   57.9760   26.2610   46.3110 C   0  0  0  0  0  0  0  0  0  0  0  0
   57.6930   25.9260   44.9750 C   0  0  0  0  0  0  0  0  0  0  0  0
   56.9700   24.9190   44.4440 C   0  0  0  0  0  0  0  0  0  0  0  0
   55.6530   24.4610   44.9230 C   0  0  0  0  0  0  0  0  0  0  0  0
   54.7850   25.3290   45.6050 C   0  0  0  0  0  0  0  0  0  0  0  0
   55.1660   26.6370   45.8870 O   0  0  0  0  0  0  0  0  0  0  0  0
   53.5600   24.8940   45.9960 N   0  0  0  0  0  0  0  0  0  0  0  0
   53.1450   23.6300   45.7220 C   0  0  0  0  0  0  0  0  0  0  0  0
   52.0070   23.2470   46.0960 O   0  0  0  0  0  0  0  0  0  0  0  0
   53.9550   22.7810   45.0390 N   0  0  0  0  0  0  0  0  0  0  0  0
   55.1910   23.1690   44.6260 C   0  0  0  0  0  0  0  0  0  0  0  0
   55.9140   22.3590   43.9880 O   0  0  0  0  0  0  0  0  0  0  0  0
   58.3080   26.8920   44.1940 C   0  0  0  0  0  0  0  0  0  0  0  0
   58.9030   27.7870   45.0580 C   0  0  0  0  0  0  0  0  0  0  0  0
   59.6560   29.0110   44.6340 C   0  0  0  0  0  0  0  0  0  0  0  0
   58.6950   27.4130   46.3390 N   0  0  0  0  0  0  0  0  0  0  0  0
   59.2060   28.0960   47.4970 C   0  0  0  0  0  0  0  0  0  0  0  0
   60.1480   27.4730   48.3270 C   0  0  0  0  0  0  0  0  0  0  0  0
   60.6600   28.1470   49.4370 C   0  0  0  0  0  0  0  0  0  0  0  0
   60.2340   29.4450   49.7280 C   0  0  0  0  0  0  0  0  0  0  0  0
   59.2830   30.0810   48.9100 C   0  0  0  0  0  0  0  0  0  0  0  0
   58.8380   31.4600   49.2050 C   0  0  0  0  0  0  0  0  0  0  0  0
   58.1410   31.6780   50.2340 O   0  0  0  0  0  0  0  0  0  0  0  0
   59.2130   32.5580   48.3580 N   0  0  0  0  0  0  0  0  0  0  0  0
   59.7690   33.8190   48.8620 C   0  0  0  0  0  0  0  0  0  0  0  0
   59.6090   34.8510   47.7210 C   0  0  0  0  0  0  0  0  0  0  0  0
   58.9470   34.0710   46.6410 C   0  0  0  0  0  0  0  0  0  0  0  0
   58.5760   34.5100   45.3700 C   0  0  0  0  0  0  0  0  0  0  0  0
   57.9780   33.5920   44.4920 C   0  0  0  0  0  0  0  0  0  0  0  0
   57.7710   32.2580   44.8940 C   0  0  0  0  0  0  0  0  0  0  0  0
   57.0380   31.1130   43.7860 Cl  0  0  0  0  0  0  0  0  0  0  0  0
   58.1570   31.8400   46.1790 C   0  0  0  0  0  0  0  0  0  0  0  0
   58.7350   32.7800   47.0400 C   0  0  0  0  0  0  0  0  0  0  0  0
   58.7850   29.4020   47.7860 C   0  0  0  0  0  0  0  0  0  0  0  0
   57.9461   25.9458   48.4065 H   0  0  0  0  0  0  0  0  0  0  0  0
   57.1179   24.6114   47.3277 H   0  0  0  0  0  0  0  0  0  0  0  0
   57.4002   24.3938   43.5785 H   0  0  0  0  0  0  0  0  0  0  0  0
   58.3193   26.9362   43.0949 H   0  0  0  0  0  0  0  0  0  0  0  0
   59.9940   29.5605   45.5249 H   0  0  0  0  0  0  0  0  0  0  0  0
   60.5284   28.7149   44.0329 H   0  0  0  0  0  0  0  0  0  0  0  0
   58.9984   29.6562   44.0329 H   0  0  0  0  0  0  0  0  0  0  0  0
   60.4848   26.4500   48.1031 H   0  0  0  0  0  0  0  0  0  0  0  0
   61.4008   27.6547   50.0842 H   0  0  0  0  0  0  0  0  0  0  0  0
   60.6445   29.9726   50.6016 H   0  0  0  0  0  0  0  0  0  0  0  0
   59.2168   34.1491   49.7542 H   0  0  0  0  0  0  0  0  0  0  0  0
   60.8239   33.7034   49.1514 H   0  0  0  0  0  0  0  0  0  0  0  0
   58.9797   35.6952   48.0392 H   0  0  0  0  0  0  0  0  0  0  0  0
   60.5650   35.2947   47.4061 H   0  0  0  0  0  0  0  0  0  0  0  0
   58.7481   35.5520   45.0625 H   0  0  0  0  0  0  0  0  0  0  0  0
   57.6701   33.9156   43.4868 H   0  0  0  0  0  0  0  0  0  0  0  0
   58.0084   30.7986   46.5006 H   0  0  0  0  0  0  0  0  0  0  0  0
   58.0583   29.8990   47.1265 H   0  0  0  0  0  0  0  0  0  0  0  0
  1  2  2  0
  2  3  1  0
  3  4  2  3
  4  5  1  0
  5  6  2  0
  6  7  1  0
  6  8  1  0
  8  9  1  0
  9 10  2  0
  9 11  1  0
 11 12  1  0
 12 13  2  0
  3 14  1  0
 14 15  2  0
 15 16  1  0
 15 17  1  0
 17 18  1  0
 18 19  2  0
 19 20  1  0
 20 21  2  0
 21 22  1  0
 22 23  1  0
 23 24  2  0
 23 25  1  0
 25 26  1  0
 26 27  1  0
 27 28  1  0
 28 29  2  0
 29 30  1  0
 30 31  2  0
 31 32  1  0
 31 33  1  0
 33 34  2  0
 22 35  2  0
 17  2  1  0
 35 18  1  0
 12  5  1  0
 34 25  1  0
 34 28  1  0
  1 36  1  0
  1 37  1  0
  4 38  1  0
 14 39  1  0
 16 40  1  0
 16 41  1  0
 16 42  1  0
 19 43  1  0
 20 44  1  0
 21 45  1  0
 26 46  1  0
 26 47  1  0
 27 48  1  0
 27 49  1  0
 29 50  1  0
 30 51  1  0
 33 52  1  0
 35 53  1  0
M  CHG  3   7  -1   8  -1  11  -1
M  END
>  <UniqueID>  (48) 
43

>  <SMILES>  (48) 
C=c1c(=Cc2c([O-])[n-]c(=O)[n-]c2=O)cc(C)n1-c1cccc(C(=O)N2CCc3ccc(Cl)cc32)c1

>  <Energy>  (48) 
128.67116145584075

>  <Genealogy>  (48) 
C=c1c(=Cc2c([O-])[n-]c(=O)[n-]c2=O)cc(C)n1-c1cccc(C(=O)N2CCc3ccc(Cl)cc32)c1 (protonated)
C=c1c(=Cc2c([O-])[n-]c(=O)[n-]c2=O)cc(C)n1-c1cccc(C(=O)N2CCc3ccc(Cl)cc32)c1 (3D coordinates assigned)
C=c1c(=Cc2c([O-])[n-]c(=O)[n-]c2=O)cc(C)n1-c1cccc(C(=O)N2CCc3ccc(Cl)cc32)c1 (nonaromatic ring conformer: 128.67116145584075 kcal/mol)

>  <smiles>  (48) 
C=c1c(=Cc2c(O)[nH]c(=O)[nH]c2=O)cc(C)n1-c1cccc(C(=O)N2CCc3ccc(Cl)cc32)c1

>  <score_type>  (48) 
oracle

>  <origin>  (48) 
adg

>  <m_score__min__energy>  (48) 
-18.039999999999999

>  <m_primary>  (48) 
energy

$$$$
48:0
     RDKit          3D

 35 36  0  0  0  0  0  0  0  0999 V2000
   51.7320   28.9190   54.4200 O   0  0  0  0  0  0  0  0  0  0  0  0
   52.5750   29.4070   53.6220 C   0  0  0  0  0  0  0  0  0  0  0  0
   53.9610   29.0920   53.8080 N   0  0  0  0  0  0  0  0  0  0  0  0
   54.8060   28.4400   52.8120 C   0  0  0  0  0  0  0  0  0  0  0  0
   56.2730   28.7750   53.0730 C   0  0  0  0  0  0  0  0  0  0  0  0
   56.8100   29.6220   52.0120 N   0  0  0  0  0  0  0  0  0  0  0  0
   58.1750   30.0540   51.9520 C   0  0  0  0  0  0  0  0  0  0  0  0
   59.0320   29.3390   51.3620 O   0  0  0  0  0  0  0  0  0  0  0  0
   58.5810   31.3310   52.5830 C   0  0  0  0  0  0  0  0  0  0  0  0
   59.5490   31.3490   53.6040 C   0  0  0  0  0  0  0  0  0  0  0  0
   59.9280   32.5550   54.1990 C   0  0  0  0  0  0  0  0  0  0  0  0
   59.3510   33.7570   53.7840 C   0  0  0  0  0  0  0  0  0  0  0  0
   59.7370   34.9520   54.3800 O   0  0  0  0  0  0  0  0  0  0  0  0
   58.3870   33.7570   52.7700 C   0  0  0  0  0  0  0  0  0  0  0  0
   57.8140   34.9600   52.3600 O   0  0  0  0  0  0  0  0  0  0  0  0
   58.0030   32.5470   52.1720 C   0  0  0  0  0  0  0  0  0  0  0  0
   52.1040   30.2570   52.5120 C   0  0  0  0  0  0  0  0  0  0  0  0
   52.2150   29.8260   51.1800 C   0  0  0  0  0  0  0  0  0  0  0  0
   51.7800   30.6470   50.1350 C   0  0  0  0  0  0  0  0  0  0  0  0
   51.2450   31.9090   50.4100 C   0  0  0  0  0  0  0  0  0  0  0  0
   50.8130   32.7200   49.3670 O   0  0  0  0  0  0  0  0  0  0  0  0
   51.1510   32.3540   51.7340 C   0  0  0  0  0  0  0  0  0  0  0  0
   50.6260   33.6110   52.0140 O   0  0  0  0  0  0  0  0  0  0  0  0
   51.5860   31.5340   52.7810 C   0  0  0  0  0  0  0  0  0  0  0  0
   54.6648   27.3507   52.8712 H   0  0  0  0  0  0  0  0  0  0  0  0
   54.5261   28.7982   51.8103 H   0  0  0  0  0  0  0  0  0  0  0  0
   56.3563   29.3045   54.0336 H   0  0  0  0  0  0  0  0  0  0  0  0
   56.8484   27.8379   53.1001 H   0  0  0  0  0  0  0  0  0  0  0  0
   60.0105   30.4073   53.9360 H   0  0  0  0  0  0  0  0  0  0  0  0
   60.6842   32.5576   54.9978 H   0  0  0  0  0  0  0  0  0  0  0  0
   58.1050   35.8470   52.7540 H   0  0  0  0  0  0  0  0  0  0  0  0
   57.2442   32.5487   51.3756 H   0  0  0  0  0  0  0  0  0  0  0  0
   52.6459   28.8386   50.9579 H   0  0  0  0  0  0  0  0  0  0  0  0
   51.8589   30.2992   49.0944 H   0  0  0  0  0  0  0  0  0  0  0  0
   51.5219   31.8914   53.8194 H   0  0  0  0  0  0  0  0  0  0  0  0
  1  2  2  0
  2  3  1  0
  3  4  1  0
  4  5  1  0
  5  6  1  0
  6  7  1  0
  7  8  2  0
  7  9  1  0
  9 10  2  0
 10 11  1  0
 11 12  2  0
 12 13  1  0
 12 14  1  0
 14 15  1  0
 14 16  2  0
  2 17  1  0
 17 18  2  0
 18 19  1  0
 19 20  2  0
 20 21  1  0
 20 22  1  0
 22 23  1  0
 22 24  2  0
 16  9  1  0
 24 17  1  0
  4 25  1  0
  4 26  1  0
  5 27  1  0
  5 28  1  0
 10 29  1  0
 11 30  1  0
 15 31  1  0
 16 32  1  0
 18 33  1  0
 19 34  1  0
 24 35  1  0
M  CHG  5   3  -1   6  -1  13  -1  21  -1  23  -1
M  END
>  <UniqueID>  (49) 
44

>  <SMILES>  (49) 
O=C([N-]CC[N-]C(=O)c1ccc([O-])c(O)c1)c1ccc([O-])c([O-])c1

>  <Energy>  (49) 
36.7719933932297

>  <Genealogy>  (49) 
O=C([N-]CC[N-]C(=O)c1ccc([O-])c(O)c1)c1ccc([O-])c([O-])c1 (protonated)
O=C([N-]CC[N-]C(=O)c1ccc([O-])c(O)c1)c1ccc([O-])c([O-])c1 (3D coordinates assigned)
O=C([N-]CC[N-]C(=O)c1ccc([O-])c(O)c1)c1ccc([O-])c([O-])c1 (optimized conformer: 36.7719933932297 kcal/mol)

>  <smiles>  (49) 
O=C(NCCNC(=O)c1ccc(O)c(O)c1)c1ccc(O)c(O)c1

>  <score_type>  (49) 
oracle

>  <origin>  (49) 
adg

>  <m_score__min__energy>  (49) 
-17.329999999999998

>  <m_primary>  (49) 
energy

$$$$
49:0
     RDKit          3D

 66 70  0  0  0  0  0  0  0  0999 V2000
   62.1800   27.9590   51.1240 O   0  0  0  0  0  0  0  0  0  0  0  0
   60.9340   28.0600   50.9590 C   0  0  0  0  0  0  0  0  0  0  0  0
   60.3470   27.4880   49.7790 N   0  0  0  0  0  0  0  0  0  0  0  0
   60.4540   27.9250   48.5590 C   0  0  0  0  0  0  0  0  0  0  0  0
   60.5620   29.2560   48.2890 N   0  0  0  0  0  0  0  0  0  0  0  0
   60.6440   29.7120   47.0100 C   0  0  0  0  0  0  0  0  0  0  0  0
   60.6200   28.8100   45.9500 C   0  0  0  0  0  0  0  0  0  0  0  0
   60.5130   27.4500   46.2380 C   0  0  0  0  0  0  0  0  0  0  0  0
   60.4300   27.0350   47.5310 N   0  0  0  0  0  0  0  0  0  0  0  0
   60.1360   28.7920   51.9000 N   0  0  0  0  0  0  0  0  0  0  0  0
   59.2390   29.8730   51.6080 C   0  0  0  0  0  0  0  0  0  0  0  0
   59.6740   31.0440   50.9580 C   0  0  0  0  0  0  0  0  0  0  0  0
   58.7780   32.1030   50.7330 C   0  0  0  0  0  0  0  0  0  0  0  0
   59.2290   33.3500   50.0240 C   0  0  0  0  0  0  0  0  0  0  0  0
   59.7290   33.0100   48.6840 N   0  0  0  0  0  0  0  0  0  0  0  0
   58.8190   32.4940   47.6990 C   0  0  0  0  0  0  0  0  0  0  0  0
   58.3550   31.3280   47.8210 O   0  0  0  0  0  0  0  0  0  0  0  0
   58.3830   33.3480   46.5400 C   0  0  2  0  0  0  0  0  0  0  0  0
   57.1850   32.8040   45.8660 N   0  0  0  0  0  0  0  0  0  0  0  0
   57.6030   31.6620   44.6200 S   0  0  0  0  0  0  0  0  0  0  0  0
   58.8780   30.9420   44.9620 O   0  0  0  0  0  0  0  0  0  0  0  0
   57.7940   32.4000   43.3230 O   0  0  0  0  0  0  0  0  0  0  0  0
   56.2820   30.4770   44.4290 C   0  0  0  0  0  0  0  0  0  0  0  0
   56.8350   29.0790   44.4210 C   0  0  0  0  0  0  0  0  0  0  0  0
   56.8350   28.3100   45.5980 C   0  0  0  0  0  0  0  0  0  0  0  0
   57.3950   27.0290   45.6030 C   0  0  0  0  0  0  0  0  0  0  0  0
   57.9670   26.5100   44.4380 C   0  0  0  0  0  0  0  0  0  0  0  0
   57.9780   27.2710   43.2650 C   0  0  0  0  0  0  0  0  0  0  0  0
   57.4120   28.5490   43.2540 C   0  0  0  0  0  0  0  0  0  0  0  0
   59.5550   33.4920   45.5550 C   0  0  0  0  0  0  0  0  0  0  0  0
   60.7710   34.2740   46.0760 C   0  0  0  0  0  0  0  0  0  0  0  0
   61.6270   33.6540   47.1720 C   0  0  0  0  0  0  0  0  0  0  0  0
   63.0190   33.6950   46.9660 C   0  0  0  0  0  0  0  0  0  0  0  0
   63.9050   33.1920   47.9200 C   0  0  0  0  0  0  0  0  0  0  0  0
   63.4200   32.6480   49.1040 C   0  0  0  0  0  0  0  0  0  0  0  0
   62.0470   32.6080   49.3400 C   0  0  0  0  0  0  0  0  0  0  0  0
   61.1340   33.1110   48.3920 C   0  0  0  0  0  0  0  0  0  0  0  0
   57.4430   31.9800   51.1440 C   0  0  0  0  0  0  0  0  0  0  0  0
   57.0130   30.8230   51.8000 C   0  0  0  0  0  0  0  0  0  0  0  0
   57.9100   29.7820   52.0440 C   0  0  0  0  0  0  0  0  0  0  0  0
   57.4790   28.6680   52.6890 F   0  0  0  0  0  0  0  0  0  0  0  0
   60.7291   30.7910   46.8138 H   0  0  0  0  0  0  0  0  0  0  0  0
   60.6839   29.1619   44.9098 H   0  0  0  0  0  0  0  0  0  0  0  0
   60.4957   26.7137   45.4210 H   0  0  0  0  0  0  0  0  0  0  0  0
   60.7189   31.1301   50.6252 H   0  0  0  0  0  0  0  0  0  0  0  0
   58.3807   34.0442   49.9316 H   0  0  0  0  0  0  0  0  0  0  0  0
   60.0358   33.8240   50.6023 H   0  0  0  0  0  0  0  0  0  0  0  0
   58.0986   34.3389   46.9236 H   0  0  0  0  0  0  0  0  0  0  0  0
   56.6320   33.5690   45.4080 H   0  0  0  0  0  0  0  0  0  0  0  0
   55.5750   30.5832   45.2650 H   0  0  0  0  0  0  0  0  0  0  0  0
   55.7671   30.6645   43.4752 H   0  0  0  0  0  0  0  0  0  0  0  0
   56.3925   28.7179   46.5188 H   0  0  0  0  0  0  0  0  0  0  0  0
   57.3855   26.4289   46.5248 H   0  0  0  0  0  0  0  0  0  0  0  0
   58.4086   25.5026   44.4440 H   0  0  0  0  0  0  0  0  0  0  0  0
   58.4325   26.8635   42.3499 H   0  0  0  0  0  0  0  0  0  0  0  0
   57.4182   29.1426   42.3279 H   0  0  0  0  0  0  0  0  0  0  0  0
   59.8942   32.4815   45.2832 H   0  0  0  0  0  0  0  0  0  0  0  0
   59.1646   34.0745   44.7075 H   0  0  0  0  0  0  0  0  0  0  0  0
   61.4308   34.4570   45.2151 H   0  0  0  0  0  0  0  0  0  0  0  0
   60.3315   35.1628   46.5524 H   0  0  0  0  0  0  0  0  0  0  0  0
   63.4153   34.1310   46.0371 H   0  0  0  0  0  0  0  0  0  0  0  0
   64.9888   33.2260   47.7348 H   0  0  0  0  0  0  0  0  0  0  0  0
   64.1193   32.2495   49.8538 H   0  0  0  0  0  0  0  0  0  0  0  0
   61.6707   32.1776   50.2798 H   0  0  0  0  0  0  0  0  0  0  0  0
   56.7320   32.7965   50.9496 H   0  0  0  0  0  0  0  0  0  0  0  0
   55.9658   30.7328   52.1245 H   0  0  0  0  0  0  0  0  0  0  0  0
  1  2  2  0
  2  3  1  0
  3  4  2  3
  4  5  1  0
  5  6  2  0
  6  7  1  0
  7  8  2  0
  8  9  1  0
  2 10  1  0
 10 11  1  0
 11 12  2  0
 12 13  1  0
 13 14  1  0
 14 15  1  0
 15 16  1  0
 16 17  2  0
 16 18  1  0
 18 19  1  0
 19 20  1  0
 20 21  2  0
 20 22  2  0
 20 23  1  0
 23 24  1  0
 24 25  2  0
 25 26  1  0
 26 27  2  0
 27 28  1  0
 28 29  2  0
 18 30  1  0
 30 31  1  0
 31 32  1  0
 32 33  2  0
 33 34  1  0
 34 35  2  0
 35 36  1  0
 36 37  2  0
 13 38  2  0
 38 39  1  0
 39 40  2  0
 40 41  1  0
  9  4  1  0
 40 11  1  0
 37 15  1  0
 29 24  1  0
 37 32  1  0
  6 42  1  0
  7 43  1  0
  8 44  1  0
 12 45  1  0
 14 46  1  0
 14 47  1  0
 18 48  1  1
 19 49  1  0
 23 50  1  0
 23 51  1  0
 25 52  1  0
 26 53  1  0
 27 54  1  0
 28 55  1  0
 29 56  1  0
 30 57  1  0
 30 58  1  0
 31 59  1  0
 31 60  1  0
 33 61  1  0
 34 62  1  0
 35 63  1  0
 36 64  1  0
 38 65  1  0
 39 66  1  0
M  CHG  2   9  -1  10  -1
M  END
>  <UniqueID>  (50) 
45

>  <SMILES>  (50) 
O=C(N=c1nccc[n-]1)[N-]c1cc(CN2C(=O)[C@H](NS(=O)(=O)Cc3ccccc3)CCc3ccccc32)ccc1F

>  <Energy>  (50) 
88.58979452156137

>  <Genealogy>  (50) 
O=C(N=c1nccc[n-]1)[N-]c1cc(CN2C(=O)C(NS(=O)(=O)Cc3ccccc3)CCc3ccccc32)ccc1F (protonated)
O=C(N=c1nccc[n-]1)[N-]c1cc(CN2C(=O)[C@H](NS(=O)(=O)Cc3ccccc3)CCc3ccccc32)ccc1F (chirality)
O=C(N=c1nccc[n-]1)[N-]c1cc(CN2C(=O)[C@H](NS(=O)(=O)Cc3ccccc3)CCc3ccccc32)ccc1F (3D coordinates assigned)
O=C(N=c1nccc[n-]1)[N-]c1cc(CN2C(=O)[C@H](NS(=O)(=O)Cc3ccccc3)CCc3ccccc32)ccc1F (nonaromatic ring conformer: 88.58979452156137 kcal/mol)

>  <smiles>  (50) 
O=C(N=c1nccc[nH]1)Nc1cc(CN2C(=O)C(NS(=O)(=O)Cc3ccccc3)CCc3ccccc32)ccc1F

>  <score_type>  (50) 
oracle

>  <origin>  (50) 
adg

>  <m_score__min__energy>  (50) 
-12.050000000000001

>  <m_primary>  (50) 
energy

$$$$
50:0
     RDKit          3D

 80 85  0  0  0  0  0  0  0  0999 V2000
   62.9920   34.3730   50.3270 C   0  0  0  0  0  0  0  0  0  0  0  0
   62.2070   34.1340   49.0710 C   0  0  0  0  0  0  0  0  0  0  0  0
   62.8140   33.5110   47.9700 C   0  0  0  0  0  0  0  0  0  0  0  0
   62.0960   33.3070   46.7870 C   0  0  0  0  0  0  0  0  0  0  0  0
   60.7590   33.7290   46.6900 C   0  0  0  0  0  0  0  0  0  0  0  0
   59.9940   33.5480   45.4890 N   0  0  0  0  0  0  0  0  0  0  0  0
   58.6480   33.9930   45.2850 C   0  0  0  0  0  0  0  0  0  0  0  0
   58.4020   34.9590   44.5150 O   0  0  0  0  0  0  0  0  0  0  0  0
   57.5090   33.2520   45.9200 C   0  0  0  0  0  0  0  0  0  0  0  0
   57.8250   31.8090   46.0420 N   0  0  0  0  0  0  0  0  0  0  0  0
   58.4230   31.3770   47.2030 C   0  0  0  0  0  0  0  0  0  0  0  0
   58.5850   32.1830   48.1640 O   0  0  0  0  0  0  0  0  0  0  0  0
   58.8320   30.0760   47.3450 N   0  0  0  0  0  0  0  0  0  0  0  0
   59.4180   29.6410   48.5920 C   0  0  0  0  0  0  0  0  0  0  0  0
   60.6070   28.8930   48.6020 C   0  0  0  0  0  0  0  0  0  0  0  0
   61.2150   28.5480   49.8130 C   0  0  0  0  0  0  0  0  0  0  0  0
   60.6330   28.9270   51.0310 C   0  0  0  0  0  0  0  0  0  0  0  0
   61.3380   28.6500   52.3340 C   0  0  0  0  0  0  0  0  0  0  0  0
   62.6540   29.3760   52.3890 C   0  0  0  0  0  0  0  0  0  0  0  0
   63.6580   28.7980   52.8930 O   0  0  0  0  0  0  0  0  0  0  0  0
   62.7720   30.7090   51.8600 N   0  0  0  0  0  0  0  0  0  0  0  0
   64.0270   31.3910   51.6940 C   0  0  0  0  0  0  0  0  0  0  0  0
   64.6840   31.9120   52.8210 C   0  0  0  0  0  0  0  0  0  0  0  0
   65.9040   32.5820   52.6830 C   0  0  0  0  0  0  0  0  0  0  0  0
   66.4760   32.7490   51.4110 C   0  0  0  0  0  0  0  0  0  0  0  0
   68.0270   33.5650   51.2100 S   0  0  0  0  0  0  0  0  0  0  0  0
   69.1020   32.7040   51.8100 O   0  0  0  0  0  0  0  0  0  0  0  0
   68.3270   33.7670   49.7490 O   0  0  0  0  0  0  0  0  0  0  0  0
   67.9790   35.1080   52.0250 N   0  0  0  0  0  0  0  0  0  0  0  0
   66.5960   35.6140   52.0710 C   0  0  0  0  0  0  0  0  0  0  0  0
   66.5600   37.0540   52.6220 C   0  0  0  0  0  0  0  0  0  0  0  0
   67.8320   37.4640   53.0830 O   0  0  0  0  0  0  0  0  0  0  0  0
   68.7510   37.4620   52.0050 C   0  0  0  0  0  0  0  0  0  0  0  0
   68.8540   36.0720   51.3380 C   0  0  0  0  0  0  0  0  0  0  0  0
   65.8130   32.2500   50.2830 C   0  0  0  0  0  0  0  0  0  0  0  0
   64.5920   31.5850   50.4200 C   0  0  0  0  0  0  0  0  0  0  0  0
   59.4340   29.6560   51.0220 C   0  0  0  0  0  0  0  0  0  0  0  0
   58.8360   30.0150   49.8120 C   0  0  0  0  0  0  0  0  0  0  0  0
   58.6530   29.1810   46.3290 C   0  0  0  0  0  0  0  0  0  0  0  0
   59.0900   28.0010   46.4420 O   0  0  0  0  0  0  0  0  0  0  0  0
   57.9790   29.5640   45.1620 C   0  0  0  0  0  0  0  0  0  0  0  0
   57.7300   28.6360   44.1290 C   0  0  0  0  0  0  0  0  0  0  0  0
   57.0170   29.0180   42.9960 C   0  0  0  0  0  0  0  0  0  0  0  0
   56.5320   30.3170   42.8850 C   0  0  0  0  0  0  0  0  0  0  0  0
   56.7770   31.2510   43.8920 C   0  0  0  0  0  0  0  0  0  0  0  0
   57.5300   30.9020   45.0420 C   0  0  0  0  0  0  0  0  0  0  0  0
   60.1700   34.3960   47.7740 C   0  0  0  0  0  0  0  0  0  0  0  0
   60.8860   34.5940   48.9590 C   0  0  0  0  0  0  0  0  0  0  0  0
   62.3533   34.1785   51.2012 H   0  0  0  0  0  0  0  0  0  0  0  0
   63.8607   33.6986   50.3503 H   0  0  0  0  0  0  0  0  0  0  0  0
   63.3375   35.4171   50.3503 H   0  0  0  0  0  0  0  0  0  0  0  0
   63.8611   33.1809   48.0376 H   0  0  0  0  0  0  0  0  0  0  0  0
   62.5793   32.8148   45.9301 H   0  0  0  0  0  0  0  0  0  0  0  0
   57.3224   33.6666   46.9216 H   0  0  0  0  0  0  0  0  0  0  0  0
   56.6166   33.3660   45.2870 H   0  0  0  0  0  0  0  0  0  0  0  0
   61.0623   28.5769   47.6519 H   0  0  0  0  0  0  0  0  0  0  0  0
   62.1548   27.9763   49.8101 H   0  0  0  0  0  0  0  0  0  0  0  0
   60.7038   28.9876   53.1670 H   0  0  0  0  0  0  0  0  0  0  0  0
   61.5260   27.5690   52.4125 H   0  0  0  0  0  0  0  0  0  0  0  0
   61.8950   31.2450   51.6710 H   0  0  0  0  0  0  0  0  0  0  0  0
   64.2361   31.7923   53.8185 H   0  0  0  0  0  0  0  0  0  0  0  0
   66.4163   32.9787   53.5719 H   0  0  0  0  0  0  0  0  0  0  0  0
   66.1745   35.6056   51.0550 H   0  0  0  0  0  0  0  0  0  0  0  0
   66.0046   34.9665   52.7351 H   0  0  0  0  0  0  0  0  0  0  0  0
   66.2331   37.7347   51.8222 H   0  0  0  0  0  0  0  0  0  0  0  0
   65.8600   37.0818   53.4701 H   0  0  0  0  0  0  0  0  0  0  0  0
   68.4190   38.1934   51.2534 H   0  0  0  0  0  0  0  0  0  0  0  0
   69.7428   37.7238   52.4022 H   0  0  0  0  0  0  0  0  0  0  0  0
   68.5486   36.1519   50.2843 H   0  0  0  0  0  0  0  0  0  0  0  0
   69.8942   35.7203   51.4040 H   0  0  0  0  0  0  0  0  0  0  0  0
   66.2555   32.3822   49.2847 H   0  0  0  0  0  0  0  0  0  0  0  0
   64.0695   31.2111   49.5271 H   0  0  0  0  0  0  0  0  0  0  0  0
   58.9628   29.9461   51.9727 H   0  0  0  0  0  0  0  0  0  0  0  0
   57.9016   30.5954   49.8159 H   0  0  0  0  0  0  0  0  0  0  0  0
   58.1014   27.6045   44.2193 H   0  0  0  0  0  0  0  0  0  0  0  0
   56.8372   28.2928   42.1887 H   0  0  0  0  0  0  0  0  0  0  0  0
   55.9516   30.6097   41.9976 H   0  0  0  0  0  0  0  0  0  0  0  0
   56.3806   32.2723   43.7926 H   0  0  0  0  0  0  0  0  0  0  0  0
   59.1374   34.7661   47.6916 H   0  0  0  0  0  0  0  0  0  0  0  0
   60.4121   35.1119   49.8059 H   0  0  0  0  0  0  0  0  0  0  0  0
  1  2  1  0
  2  3  2  0
  3  4  1  0
  4  5  2  0
  5  6  1  0
  6  7  1  0
  7  8  2  0
  7  9  1  0
  9 10  1  0
 10 11  1  0
 11 12  2  0
 11 13  1  0
 13 14  1  0
 14 15  2  0
 15 16  1  0
 16 17  2  0
 17 18  1  0
 18 19  1  0
 19 20  2  0
 19 21  1  0
 21 22  1  0
 22 23  2  0
 23 24  1  0
 24 25  2  0
 25 26  1  0
 26 27  2  0
 26 28  2  0
 26 29  1  0
 29 30  1  0
 30 31  1  0
 31 32  1  0
 32 33  1  0
 33 34  1  0
 25 35  1  0
 35 36  2  0
 17 37  1  0
 37 38  2  0
 13 39  1  0
 39 40  2  0
 39 41  1  0
 41 42  2  0
 42 43  1  0
 43 44  2  0
 44 45  1  0
 45 46  2  0
  5 47  1  0
 47 48  2  0
 48  2  1  0
 46 10  1  0
 38 14  1  0
 46 41  1  0
 36 22  1  0
 34 29  1  0
  1 49  1  0
  1 50  1  0
  1 51  1  0
  3 52  1  0
  4 53  1  0
  9 54  1  0
  9 55  1  0
 15 56  1  0
 16 57  1  0
 18 58  1  0
 18 59  1  0
 21 60  1  0
 23 61  1  0
 24 62  1  0
 30 63  1  0
 30 64  1  0
 31 65  1  0
 31 66  1  0
 33 67  1  0
 33 68  1  0
 34 69  1  0
 34 70  1  0
 35 71  1  0
 36 72  1  0
 37 73  1  0
 38 74  1  0
 42 75  1  0
 43 76  1  0
 44 77  1  0
 45 78  1  0
 47 79  1  0
 48 80  1  0
M  CHG  1   6  -1
M  END
>  <UniqueID>  (51) 
46

>  <SMILES>  (51) 
Cc1ccc([N-]C(=O)Cn2c(=O)n(-c3ccc(CC(=O)Nc4ccc(S(=O)(=O)N5CCOCC5)cc4)cc3)c(=O)c3ccccc32)cc1

>  <Energy>  (51) 
122.13653839603009

>  <Genealogy>  (51) 
Cc1ccc([N-]C(=O)Cn2c(=O)n(-c3ccc(CC(=O)Nc4ccc(S(=O)(=O)N5CCOCC5)cc4)cc3)c(=O)c3ccccc32)cc1 (protonated)
Cc1ccc([N-]C(=O)Cn2c(=O)n(-c3ccc(CC(=O)Nc4ccc(S(=O)(=O)N5CCOCC5)cc4)cc3)c(=O)c3ccccc32)cc1 (3D coordinates assigned)
Cc1ccc([N-]C(=O)Cn2c(=O)n(-c3ccc(CC(=O)Nc4ccc(S(=O)(=O)N5CCOCC5)cc4)cc3)c(=O)c3ccccc32)cc1 (nonaromatic ring conformer: 122.13653839603009 kcal/mol)

>  <smiles>  (51) 
Cc1ccc(NC(=O)Cn2c(=O)n(-c3ccc(CC(=O)Nc4ccc(S(=O)(=O)N5CCOCC5)cc4)cc3)c(=O)c3ccccc32)cc1

>  <score_type>  (51) 
oracle

>  <origin>  (51) 
adg

>  <m_score__min__energy>  (51) 
-10.77

>  <m_primary>  (51) 
energy

$$$$
51:0
     RDKit          3D

 58 61  0  0  0  0  0  0  0  0999 V2000
   57.0305   31.6751   51.8563 H   0  0  0  0  0  0  0  0  0  0  0  0
   55.9440   31.6420   52.0250 C   0  0  0  0  0  0  0  0  0  0  0  0
   55.3184   32.5045   51.7516 H   0  0  0  0  0  0  0  0  0  0  0  0
   55.3810   30.5480   52.5650 C   0  0  0  0  0  0  0  0  0  0  0  0
   54.0200   30.3620   52.8370 C   0  0  0  0  0  0  0  0  0  0  0  0
   53.0110   31.2290   52.6090 C   0  0  0  0  0  0  0  0  0  0  0  0
   52.7912   31.9794   53.3827 H   0  0  0  0  0  0  0  0  0  0  0  0
   52.1860   31.2330   51.3890 C   0  0  0  0  0  0  0  0  0  0  0  0
   52.2670   30.2830   50.4400 N   0  0  0  0  0  0  0  0  0  0  0  0
   51.4070   30.7120   49.4910 C   0  0  0  0  0  0  0  0  0  0  0  0
   51.1920   30.0690   48.4320 O   0  0  0  0  0  0  0  0  0  0  0  0
   50.8010   31.8860   49.7640 N   0  0  0  0  0  0  0  0  0  0  0  0
   51.3130   32.2100   50.9620 C   0  0  0  0  0  0  0  0  0  0  0  0
   51.0230   33.3960   51.6260 O   0  0  0  0  0  0  0  0  0  0  0  0
   53.8960   29.0680   53.3300 C   0  0  0  0  0  0  0  0  0  0  0  0
   52.9654   28.5684   53.6373 H   0  0  0  0  0  0  0  0  0  0  0  0
   55.1700   28.5310   53.3590 C   0  0  0  0  0  0  0  0  0  0  0  0
   55.4930   27.1380   53.8060 C   0  0  0  0  0  0  0  0  0  0  0  0
   55.5022   27.0985   54.9053 H   0  0  0  0  0  0  0  0  0  0  0  0
   54.7321   26.4435   53.4205 H   0  0  0  0  0  0  0  0  0  0  0  0
   56.4819   26.8492   53.4205 H   0  0  0  0  0  0  0  0  0  0  0  0
   56.0720   29.4250   52.8940 N   0  0  0  0  0  0  0  0  0  0  0  0
   57.4900   29.2070   52.7720 C   0  0  0  0  0  0  0  0  0  0  0  0
   58.2340   28.7790   53.8820 C   0  0  0  0  0  0  0  0  0  0  0  0
   57.7315   28.6066   54.8452 H   0  0  0  0  0  0  0  0  0  0  0  0
   59.6110   28.5710   53.7680 C   0  0  0  0  0  0  0  0  0  0  0  0
   60.1905   28.2414   54.6429 H   0  0  0  0  0  0  0  0  0  0  0  0
   60.2540   28.7810   52.5440 C   0  0  0  0  0  0  0  0  0  0  0  0
   61.3397   28.6243   52.4620 H   0  0  0  0  0  0  0  0  0  0  0  0
   59.5200   29.1910   51.4190 C   0  0  0  0  0  0  0  0  0  0  0  0
   60.2160   29.4190   50.1350 C   0  0  0  0  0  0  0  0  0  0  0  0
   60.4150   28.4220   49.3760 O   0  0  0  0  0  0  0  0  0  0  0  0
   60.6320   30.7470   49.7200 N   0  0  0  0  0  0  0  0  0  0  0  0
   60.0460   31.9390   50.3570 C   0  0  0  0  0  0  0  0  0  0  0  0
   58.9546   31.8120   50.4086 H   0  0  0  0  0  0  0  0  0  0  0  0
   60.4872   32.0357   51.3600 H   0  0  0  0  0  0  0  0  0  0  0  0
   60.3570   33.2270   49.5810 C   0  0  0  0  0  0  0  0  0  0  0  0
   59.6707   34.0215   49.9091 H   0  0  0  0  0  0  0  0  0  0  0  0
   61.3989   33.5184   49.7800 H   0  0  0  0  0  0  0  0  0  0  0  0
   60.1920   33.0120   48.1340 N   0  0  0  0  0  0  0  0  0  0  0  0
   59.6070   34.0320   47.2990 C   0  0  0  0  0  0  0  0  0  0  0  0
   59.2500   35.1360   47.8010 O   0  0  0  0  0  0  0  0  0  0  0  0
   59.4120   33.7860   45.9320 O   0  0  0  0  0  0  0  0  0  0  0  0
   58.1490   33.4240   45.3740 C   0  0  0  0  0  0  0  0  0  0  0  0
   57.9043   34.1152   44.5541 H   0  0  0  0  0  0  0  0  0  0  0  0
   58.2101   32.3928   44.9960 H   0  0  0  0  0  0  0  0  0  0  0  0
   57.0540   33.4960   46.4350 C   0  0  0  0  0  0  0  0  0  0  0  0
   57.5103   33.4660   47.4354 H   0  0  0  0  0  0  0  0  0  0  0  0
   56.4902   34.4332   46.3171 H   0  0  0  0  0  0  0  0  0  0  0  0
   56.3724   32.6407   46.3171 H   0  0  0  0  0  0  0  0  0  0  0  0
   60.7390   31.8000   47.5030 C   0  0  0  0  0  0  0  0  0  0  0  0
   59.9136   31.2207   47.0635 H   0  0  0  0  0  0  0  0  0  0  0  0
   61.4558   32.1052   46.7264 H   0  0  0  0  0  0  0  0  0  0  0  0
   61.4750   30.9250   48.5260 C   0  0  0  0  0  0  0  0  0  0  0  0
   61.6905   29.9428   48.0801 H   0  0  0  0  0  0  0  0  0  0  0  0
   62.4178   31.4133   48.8136 H   0  0  0  0  0  0  0  0  0  0  0  0
   58.1410   29.4250   51.5450 C   0  0  0  0  0  0  0  0  0  0  0  0
   57.5661   29.7814   50.6775 H   0  0  0  0  0  0  0  0  0  0  0  0
  1  2  1  0
  2  3  1  0
  2  4  2  0
  4  5  1  0
  5  6  2  0
  6  7  1  0
  6  8  1  0
  8  9  1  0
  9 10  1  0
 10 11  2  0
 10 12  1  0
 12 13  1  0
 13 14  1  0
  5 15  1  0
 15 16  1  0
 15 17  2  0
 17 18  1  0
 18 19  1  0
 18 20  1  0
 18 21  1  0
 17 22  1  0
 22 23  1  0
 23 24  2  0
 24 25  1  0
 24 26  1  0
 26 27  1  0
 26 28  2  0
 28 29  1  0
 28 30  1  0
 30 31  1  0
 31 32  2  0
 31 33  1  0
 33 34  1  0
 34 35  1  0
 34 36  1  0
 34 37  1  0
 37 38  1  0
 37 39  1  0
 37 40  1  0
 40 41  1  0
 41 42  2  0
 41 43  1  0
 43 44  1  0
 44 45  1  0
 44 46  1  0
 44 47  1  0
 47 48  1  0
 47 49  1  0
 47 50  1  0
 40 51  1  0
 51 52  1  0
 51 53  1  0
 51 54  1  0
 54 55  1  0
 54 56  1  0
 30 57  2  0
 57 58  1  0
 22  4  1  0
 57 23  1  0
 13  8  2  0
 54 33  1  0
M  CHG  3   9  -1  12  -1  14  -1
M  END
>  <UniqueID>  (52) 
47

>  <SMILES>  (52) 
C=c1/c(=C/c2[n-]c(=O)[n-]c2[O-])cc(C)n1-c1cccc(C(=O)N2CCN(C(=O)OCC)CC2)c1

>  <Energy>  (52) 
133.45255630330388

>  <Genealogy>  (52) 
C=c1c(=Cc2[n-]c(=O)[n-]c2[O-])cc(C)n1-c1cccc(C(=O)N2CCN(C(=O)OCC)CC2)c1 (protonated)
C=c1/c(=C/c2[n-]c(=O)[n-]c2[O-])cc(C)n1-c1cccc(C(=O)N2CCN(C(=O)OCC)CC2)c1 (cis-trans isomerization)
C=c1/c(=C/c2[n-]c(=O)[n-]c2[O-])cc(C)n1-c1cccc(C(=O)N2CCN(C(=O)OCC)CC2)c1 (3D coordinates assigned)
C=c1/c(=C/c2[n-]c(=O)[n-]c2[O-])cc(C)n1-c1cccc(C(=O)N2CCN(C(=O)OCC)CC2)c1 (nonaromatic ring conformer: 133.45255630330388 kcal/mol)

>  <smiles>  (52) 
C=c1c(=Cc2[nH]c(=O)[nH]c2O)cc(C)n1-c1cccc(C(=O)N2CCN(C(=O)OCC)CC2)c1

>  <score_type>  (52) 
oracle

>  <origin>  (52) 
adg

>  <m_score__min__energy>  (52) 
-17.289999999999999

>  <m_primary>  (52) 
energy

$$$$
52:0
     RDKit          3D

 64 67  0  0  0  0  0  0  0  0999 V2000
   61.0510   32.3830   52.8560 H   0  0  0  0  0  0  0  0  0  0  0  0
   60.4180   32.6510   52.1140 O   0  0  0  0  0  0  0  0  0  0  0  0
   60.2180   31.8880   50.9610 C   0  0  0  0  0  0  0  0  0  0  0  0
   60.2830   30.4960   51.0740 C   0  0  0  0  0  0  0  0  0  0  0  0
   60.5100   30.0408   52.0493 H   0  0  0  0  0  0  0  0  0  0  0  0
   60.0640   29.6770   49.9670 C   0  0  0  0  0  0  0  0  0  0  0  0
   60.1029   28.5834   50.0788 H   0  0  0  0  0  0  0  0  0  0  0  0
   59.7940   30.2420   48.7100 C   0  0  0  0  0  0  0  0  0  0  0  0
   59.5300   29.4080   47.5090 C   0  0  0  0  0  0  0  0  0  0  0  0
   58.5390   28.5210   47.5670 O   0  0  0  0  0  0  0  0  0  0  0  0
   58.2140   27.7220   46.5570 C   0  0  0  0  0  0  0  0  0  0  0  0
   57.1580   26.8210   46.7100 C   0  0  0  0  0  0  0  0  0  0  0  0
   56.6114   26.7752   47.6635 H   0  0  0  0  0  0  0  0  0  0  0  0
   56.7900   25.9720   45.6510 C   0  0  0  0  0  0  0  0  0  0  0  0
   55.7250   25.0630   45.7530 O   0  0  0  0  0  0  0  0  0  0  0  0
   55.8280   23.6480   45.5810 C   0  0  1  0  0  0  0  0  0  0  0  0
   55.1067   23.3001   44.8269 H   0  0  0  0  0  0  0  0  0  0  0  0
   57.1320   23.3210   45.1290 O   0  0  0  0  0  0  0  0  0  0  0  0
   57.2820   21.9420   44.8020 C   0  0  2  0  0  0  0  0  0  0  0  0
   58.2976   21.6713   45.1264 H   0  0  0  0  0  0  0  0  0  0  0  0
   57.2140   21.7150   43.2830 C   0  0  0  0  0  0  0  0  0  0  0  0
   56.9157   22.6537   42.7933 H   0  0  0  0  0  0  0  0  0  0  0  0
   58.2066   21.3932   42.9350 H   0  0  0  0  0  0  0  0  0  0  0  0
   56.2860   20.7160   42.9590 O   0  0  0  0  0  0  0  0  0  0  0  0
   56.5320   19.9030   43.4730 H   0  0  0  0  0  0  0  0  0  0  0  0
   56.3910   20.9640   45.6250 C   0  0  2  0  0  0  0  0  0  0  0  0
   56.9050   19.9945   45.7008 H   0  0  0  0  0  0  0  0  0  0  0  0
   55.1550   20.7490   44.9910 O   0  0  0  0  0  0  0  0  0  0  0  0
   55.1800   21.2520   44.1360 H   0  0  0  0  0  0  0  0  0  0  0  0
   56.1650   21.5520   47.0280 C   0  0  1  0  0  0  0  0  0  0  0  0
   55.4881   20.8906   47.5886 H   0  0  0  0  0  0  0  0  0  0  0  0
   57.3930   21.6380   47.7100 O   0  0  0  0  0  0  0  0  0  0  0  0
   57.7620   22.5430   47.5270 H   0  0  0  0  0  0  0  0  0  0  0  0
   55.5090   22.9510   46.9260 C   0  0  1  0  0  0  0  0  0  0  0  0
   54.4196   22.8058   46.9709 H   0  0  0  0  0  0  0  0  0  0  0  0
   55.9140   23.7590   48.0000 O   0  0  0  0  0  0  0  0  0  0  0  0
   56.5680   24.4100   47.6390 H   0  0  0  0  0  0  0  0  0  0  0  0
   57.5030   26.0290   44.4480 C   0  0  0  0  0  0  0  0  0  0  0  0
   57.2232   25.3642   43.6174 H   0  0  0  0  0  0  0  0  0  0  0  0
   58.5670   26.9220   44.2910 C   0  0  0  0  0  0  0  0  0  0  0  0
   59.1238   26.9509   43.3428 H   0  0  0  0  0  0  0  0  0  0  0  0
   58.9270   27.7830   45.3420 C   0  0  0  0  0  0  0  0  0  0  0  0
   59.9760   28.7100   45.2350 C   0  0  0  0  0  0  0  0  0  0  0  0
   60.6420   28.8140   44.1690 O   0  0  0  0  0  0  0  0  0  0  0  0
   60.2800   29.5300   46.3240 C   0  0  0  0  0  0  0  0  0  0  0  0
   61.0970   30.2635   46.2564 H   0  0  0  0  0  0  0  0  0  0  0  0
   59.7320   31.6410   48.5960 C   0  0  0  0  0  0  0  0  0  0  0  0
   59.5236   32.0926   47.6148 H   0  0  0  0  0  0  0  0  0  0  0  0
   59.9310   32.4770   49.7110 C   0  0  0  0  0  0  0  0  0  0  0  0
   60.4850   34.2920   47.1650 C   0  0  0  0  0  0  0  0  0  0  0  0
   61.3969   33.3068   45.5474 H   0  0  0  0  0  0  0  0  0  0  0  0
   61.5310   33.6840   46.5720 C   0  0  0  0  0  0  0  0  0  0  0  0
   59.2351   34.5344   50.2266 H   0  0  0  0  0  0  0  0  0  0  0  0
   59.8780   33.9500   49.5520 C   0  0  0  0  0  0  0  0  0  0  0  0
   60.5870   34.5940   48.6140 C   0  0  0  0  0  0  0  0  0  0  0  0
   61.2793   35.3863   48.9349 H   0  0  0  0  0  0  0  0  0  0  0  0
   62.8650   33.4910   47.2240 C   0  0  0  0  0  0  0  0  0  0  0  0
   62.7447   33.5084   48.3173 H   0  0  0  0  0  0  0  0  0  0  0  0
   63.2866   32.5225   46.9169 H   0  0  0  0  0  0  0  0  0  0  0  0
   63.5438   34.3003   46.9169 H   0  0  0  0  0  0  0  0  0  0  0  0
   59.2650   34.7130   46.3810 C   0  0  0  0  0  0  0  0  0  0  0  0
   58.4598   34.9909   47.0770 H   0  0  0  0  0  0  0  0  0  0  0  0
   59.5162   35.5764   45.7475 H   0  0  0  0  0  0  0  0  0  0  0  0
   58.9303   33.8784   45.7475 H   0  0  0  0  0  0  0  0  0  0  0  0
  1  2  1  0
  2  3  1  0
  3  4  2  0
  4  5  1  0
  4  6  1  0
  6  7  1  0
  6  8  2  0
  8  9  1  0
  9 10  1  0
 10 11  1  0
 11 12  2  0
 12 13  1  0
 12 14  1  0
 14 15  1  0
 15 16  1  0
 16 17  1  6
 16 18  1  0
 18 19  1  0
 19 20  1  1
 19 21  1  0
 21 22  1  0
 21 23  1  0
 21 24  1  0
 24 25  1  0
 19 26  1  0
 26 27  1  1
 26 28  1  0
 28 29  1  0
 26 30  1  0
 30 31  1  1
 30 32  1  0
 32 33  1  0
 30 34  1  0
 34 35  1  1
 34 36  1  0
 36 37  1  0
 14 38  2  0
 38 39  1  0
 38 40  1  0
 40 41  1  0
 40 42  2  0
 42 43  1  0
 43 44  2  0
 43 45  1  0
 45 46  1  0
  8 47  1  0
 47 48  1  0
 47 49  2  0
 49 50  1  0
 50 51  1  0
 50 52  2  0
 52 53  1  0
 52 54  1  0
 54 55  2  3
 55 56  1  0
 55 57  1  0
 57 58  1  0
 57 59  1  0
 57 60  1  0
 54 61  1  0
 61 62  1  0
 61 63  1  0
 61 64  1  0
 49  3  1  0
 45  9  2  0
 42 11  1  0
 34 16  1  0
M  END
>  <UniqueID>  (53) 
48

>  <SMILES>  (53) 
CC=C(C)/C=C/c1cc(-c2cc(=O)c3ccc(O[C@H]4O[C@H](CO)C(O)C(O)C4O)cc3o2)ccc1O

>  <Energy>  (53) 
91.02675876391187

>  <Genealogy>  (53) 
CC=C(C)C=Cc1cc(-c2cc(=O)c3ccc(O[C@H]4O[C@H](CO)C(O)C(O)C4O)cc3o2)ccc1O (chirality)
CC=C(C)/C=C/c1cc(-c2cc(=O)c3ccc(O[C@H]4O[C@H](CO)C(O)C(O)C4O)cc3o2)ccc1O (cis-trans isomerization)
CC=C(C)/C=C/c1cc(-c2cc(=O)c3ccc(O[C@H]4O[C@H](CO)C(O)C(O)C4O)cc3o2)ccc1O (3D coordinates assigned)
CC=C(C)/C=C/c1cc(-c2cc(=O)c3ccc(O[C@H]4O[C@H](CO)C(O)C(O)C4O)cc3o2)ccc1O (nonaromatic ring conformer: 91.02675876391187 kcal/mol)

>  <smiles>  (53) 
CC=C(C)C=Cc1cc(-c2cc(=O)c3ccc(OC4OC(CO)C(O)C(O)C4O)cc3o2)ccc1O

>  <score_type>  (53) 
oracle

>  <origin>  (53) 
adg

>  <m_score__min__energy>  (53) 
-8.5199999999999996

>  <m_primary>  (53) 
energy

$$$$
53:0
     RDKit          3D

 25 26  0  0  0  0  0  0  0  0999 V2000
   60.0940   26.8900   46.4930 C   0  0  0  0  0  0  0  0  0  0  0  0
   58.8200   27.1420   46.1760 C   0  0  0  0  0  0  0  0  0  0  0  0
   57.8610   26.2810   46.6010 N   0  0  0  0  0  0  0  0  0  0  0  0
   56.5510   26.4860   46.3260 C   0  0  0  0  0  0  0  0  0  0  0  0
   55.6920   25.6680   46.7450 O   0  0  0  0  0  0  0  0  0  0  0  0
   56.1660   27.5670   45.5960 N   0  0  0  0  0  0  0  0  0  0  0  0
   57.0740   28.4660   45.1090 C   0  0  0  0  0  0  0  0  0  0  0  0
   56.6100   29.5050   44.3720 C   0  0  0  0  0  0  0  0  0  0  0  0
   57.2020   30.8560   44.2950 C   0  0  0  0  0  0  0  0  0  0  0  0
   57.5210   31.4010   43.0430 C   0  0  0  0  0  0  0  0  0  0  0  0
   58.1310   32.6560   42.9580 C   0  0  0  0  0  0  0  0  0  0  0  0
   58.4450   33.3640   44.1220 C   0  0  0  0  0  0  0  0  0  0  0  0
   58.1570   32.8130   45.3760 C   0  0  0  0  0  0  0  0  0  0  0  0
   58.6050   33.7700   46.9660 Br  0  0  0  0  0  0  0  0  0  0  0  0
   57.5490   31.5560   45.4630 C   0  0  0  0  0  0  0  0  0  0  0  0
   58.4470   28.2780   45.4270 C   0  0  0  0  0  0  0  0  0  0  0  0
   59.3250   29.1200   45.0860 O   0  0  0  0  0  0  0  0  0  0  0  0
   60.8891   27.5733   46.1600 H   0  0  0  0  0  0  0  0  0  0  0  0
   60.3472   25.9994   47.0869 H   0  0  0  0  0  0  0  0  0  0  0  0
   55.1450   27.6850   45.3990 H   0  0  0  0  0  0  0  0  0  0  0  0
   55.7050   29.3244   43.7734 H   0  0  0  0  0  0  0  0  0  0  0  0
   57.2907   30.8396   42.1255 H   0  0  0  0  0  0  0  0  0  0  0  0
   58.3644   33.0873   41.9734 H   0  0  0  0  0  0  0  0  0  0  0  0
   58.9185   34.3544   44.0523 H   0  0  0  0  0  0  0  0  0  0  0  0
   57.3419   31.1142   46.4489 H   0  0  0  0  0  0  0  0  0  0  0  0
  1  2  2  0
  2  3  1  0
  3  4  1  0
  4  5  2  0
  4  6  1  0
  6  7  1  0
  7  8  2  3
  8  9  1  0
  9 10  2  0
 10 11  1  0
 11 12  2  0
 12 13  1  0
 13 14  1  0
 13 15  2  0
  7 16  1  0
 16 17  2  0
 16  2  1  0
 15  9  1  0
  1 18  1  0
  1 19  1  0
  6 20  1  0
  8 21  1  0
 10 22  1  0
 11 23  1  0
 12 24  1  0
 15 25  1  0
M  CHG  1   3  -1
M  END
>  <UniqueID>  (54) 
49

>  <SMILES>  (54) 
C=c1[n-]c(=O)[nH]c(=Cc2cccc(Br)c2)c1=O

>  <Energy>  (54) 
41.21143954818473

>  <Genealogy>  (54) 
C=c1[n-]c(=O)[nH]c(=Cc2cccc(Br)c2)c1=O (protonated)
C=c1[n-]c(=O)[nH]c(=Cc2cccc(Br)c2)c1=O (3D coordinates assigned)
C=c1[n-]c(=O)[nH]c(=Cc2cccc(Br)c2)c1=O (optimized conformer: 41.21143954818473 kcal/mol)

>  <smiles>  (54) 
C=c1[nH]c(=O)[nH]c(=Cc2cccc(Br)c2)c1=O

>  <score_type>  (54) 
oracle

>  <origin>  (54) 
adg

>  <m_score__min__energy>  (54) 
-9.2699999999999996

>  <m_primary>  (54) 
energy

$$$$
54:0
     RDKit          3D

 70 74  0  0  0  0  0  0  0  0999 V2000
   61.5900   32.0300   53.1550 C   0  0  0  0  0  0  0  0  0  0  0  0
   60.2970   31.7210   52.4530 C   0  0  0  0  0  0  0  0  0  0  0  0
   60.0740   31.7510   51.0840 C   0  0  0  0  0  0  0  0  0  0  0  0
   61.0160   32.0990   50.0650 N   0  0  0  0  0  0  0  0  0  0  0  0
   61.8630   30.8640   49.1970 S   0  0  0  0  0  0  0  0  0  0  0  0
   62.8780   31.4850   48.2790 O   0  0  0  0  0  0  0  0  0  0  0  0
   62.5800   29.9700   50.1720 O   0  0  0  0  0  0  0  0  0  0  0  0
   60.6900   29.9140   48.2900 C   0  0  0  0  0  0  0  0  0  0  0  0
   59.7380   29.1530   48.9800 C   0  0  0  0  0  0  0  0  0  0  0  0
   58.7640   28.4410   48.2750 C   0  0  0  0  0  0  0  0  0  0  0  0
   58.7420   28.4660   46.8700 C   0  0  0  0  0  0  0  0  0  0  0  0
   57.7260   27.6880   46.1280 C   0  0  0  0  0  0  0  0  0  0  0  0
   57.4840   26.5000   46.4690 O   0  0  0  0  0  0  0  0  0  0  0  0
   56.9790   28.2620   45.0460 N   0  0  0  0  0  0  0  0  0  0  0  0
   57.1360   29.5970   44.5460 C   0  0  0  0  0  0  0  0  0  0  0  0
   57.0800   29.8200   43.1640 C   0  0  0  0  0  0  0  0  0  0  0  0
   57.2470   31.1090   42.6520 C   0  0  0  0  0  0  0  0  0  0  0  0
   57.4790   32.1840   43.5120 C   0  0  0  0  0  0  0  0  0  0  0  0
   57.5550   31.9710   44.8950 C   0  0  0  0  0  0  0  0  0  0  0  0
   57.8550   33.3040   46.0050 S   0  0  0  0  0  0  0  0  0  0  0  0
   57.9470   34.5790   45.2120 O   0  0  0  0  0  0  0  0  0  0  0  0
   56.7230   33.4190   46.9910 O   0  0  0  0  0  0  0  0  0  0  0  0
   59.3520   33.0200   46.8580 N   0  0  0  0  0  0  0  0  0  0  0  0
   59.2310   33.3840   48.2870 C   0  0  0  0  0  0  0  0  0  0  0  0
   60.1250   34.5750   48.6720 C   0  0  0  0  0  0  0  0  0  0  0  0
   61.4900   34.3260   48.3770 O   0  0  0  0  0  0  0  0  0  0  0  0
   61.7000   33.7750   47.0790 C   0  0  0  0  0  0  0  0  0  0  0  0
   60.4530   33.7170   46.1730 C   0  0  0  0  0  0  0  0  0  0  0  0
   57.3980   30.6770   45.4070 C   0  0  0  0  0  0  0  0  0  0  0  0
   59.6910   29.2420   46.1810 C   0  0  0  0  0  0  0  0  0  0  0  0
   60.6530   29.9700   46.8890 C   0  0  0  0  0  0  0  0  0  0  0  0
   58.7650   31.3480   50.9230 C   0  0  0  0  0  0  0  0  0  0  0  0
   58.1480   31.2430   49.8290 O   0  0  0  0  0  0  0  0  0  0  0  0
   58.2270   31.0870   52.1290 N   0  0  0  0  0  0  0  0  0  0  0  0
   56.8860   30.6260   52.3680 C   0  0  0  0  0  0  0  0  0  0  0  0
   56.6680   29.3880   52.9950 C   0  0  0  0  0  0  0  0  0  0  0  0
   55.3660   28.9390   53.2360 C   0  0  0  0  0  0  0  0  0  0  0  0
   54.2720   29.7280   52.8620 C   0  0  0  0  0  0  0  0  0  0  0  0
   54.4800   30.9700   52.2470 C   0  0  0  0  0  0  0  0  0  0  0  0
   55.7840   31.4200   52.0050 C   0  0  0  0  0  0  0  0  0  0  0  0
   59.1510   31.3260   53.0630 N   0  0  0  0  0  0  0  0  0  0  0  0
   58.9530   31.1660   54.5060 C   0  0  0  0  0  0  0  0  0  0  0  0
   61.4343   31.9928   54.2433 H   0  0  0  0  0  0  0  0  0  0  0  0
   62.3496   31.2881   52.8677 H   0  0  0  0  0  0  0  0  0  0  0  0
   61.9321   33.0352   52.8677 H   0  0  0  0  0  0  0  0  0  0  0  0
   61.4130   33.0630   50.0440 H   0  0  0  0  0  0  0  0  0  0  0  0
   59.7571   29.1157   50.0792 H   0  0  0  0  0  0  0  0  0  0  0  0
   58.0098   27.8573   48.8231 H   0  0  0  0  0  0  0  0  0  0  0  0
   56.9039   28.9771   42.4796 H   0  0  0  0  0  0  0  0  0  0  0  0
   57.1955   31.2777   41.5662 H   0  0  0  0  0  0  0  0  0  0  0  0
   57.6021   33.1981   43.1041 H   0  0  0  0  0  0  0  0  0  0  0  0
   58.1837   33.6477   48.4959 H   0  0  0  0  0  0  0  0  0  0  0  0
   59.5573   32.5171   48.8803 H   0  0  0  0  0  0  0  0  0  0  0  0
   59.7959   35.4629   48.1121 H   0  0  0  0  0  0  0  0  0  0  0  0
   60.0332   34.7350   49.7564 H   0  0  0  0  0  0  0  0  0  0  0  0
   62.4604   34.3858   46.5704 H   0  0  0  0  0  0  0  0  0  0  0  0
   62.0055   32.7306   47.2399 H   0  0  0  0  0  0  0  0  0  0  0  0
   60.1360   34.7412   45.9270 H   0  0  0  0  0  0  0  0  0  0  0  0
   60.7054   33.1679   45.2539 H   0  0  0  0  0  0  0  0  0  0  0  0
   57.4802   30.5045   46.4903 H   0  0  0  0  0  0  0  0  0  0  0  0
   59.6768   29.2766   45.0816 H   0  0  0  0  0  0  0  0  0  0  0  0
   61.3826   30.5882   46.3454 H   0  0  0  0  0  0  0  0  0  0  0  0
   57.5255   28.7690   53.2977 H   0  0  0  0  0  0  0  0  0  0  0  0
   55.2013   27.9650   53.7199 H   0  0  0  0  0  0  0  0  0  0  0  0
   53.2482   29.3729   53.0510 H   0  0  0  0  0  0  0  0  0  0  0  0
   53.6201   31.5906   51.9547 H   0  0  0  0  0  0  0  0  0  0  0  0
   55.9466   32.3983   51.5291 H   0  0  0  0  0  0  0  0  0  0  0  0
   59.6978   31.7679   55.0473 H   0  0  0  0  0  0  0  0  0  0  0  0
   57.9418   31.5036   54.7770 H   0  0  0  0  0  0  0  0  0  0  0  0
   59.0708   30.1064   54.7770 H   0  0  0  0  0  0  0  0  0  0  0  0
  1  2  1  0
  2  3  2  0
  3  4  1  0
  4  5  1  0
  5  6  2  0
  5  7  2  0
  5  8  1  0
  8  9  2  0
  9 10  1  0
 10 11  2  0
 11 12  1  0
 12 13  2  0
 12 14  1  0
 14 15  1  0
 15 16  2  0
 16 17  1  0
 17 18  2  0
 18 19  1  0
 19 20  1  0
 20 21  2  0
 20 22  2  0
 20 23  1  0
 23 24  1  0
 24 25  1  0
 25 26  1  0
 26 27  1  0
 27 28  1  0
 19 29  2  0
 11 30  1  0
 30 31  2  0
  3 32  1  0
 32 33  2  0
 32 34  1  0
 34 35  1  0
 35 36  2  0
 36 37  1  0
 37 38  2  0
 38 39  1  0
 39 40  2  0
 34 41  1  0
 41 42  1  0
 41  2  1  0
 31  8  1  0
 40 35  1  0
 29 15  1  0
 28 23  1  0
  1 43  1  0
  1 44  1  0
  1 45  1  0
  4 46  1  0
  9 47  1  0
 10 48  1  0
 16 49  1  0
 17 50  1  0
 18 51  1  0
 24 52  1  0
 24 53  1  0
 25 54  1  0
 25 55  1  0
 27 56  1  0
 27 57  1  0
 28 58  1  0
 28 59  1  0
 29 60  1  0
 30 61  1  0
 31 62  1  0
 36 63  1  0
 37 64  1  0
 38 65  1  0
 39 66  1  0
 40 67  1  0
 42 68  1  0
 42 69  1  0
 42 70  1  0
M  CHG  1  14  -1
M  END
>  <UniqueID>  (55) 
50

>  <SMILES>  (55) 
Cc1c(NS(=O)(=O)c2ccc(C(=O)[N-]c3cccc(S(=O)(=O)N4CCOCC4)c3)cc2)c(=O)n(-c2ccccc2)n1C

>  <Energy>  (55) 
135.72620464091244

>  <Genealogy>  (55) 
Cc1c(NS(=O)(=O)c2ccc(C(=O)[N-]c3cccc(S(=O)(=O)N4CCOCC4)c3)cc2)c(=O)n(-c2ccccc2)n1C (protonated)
Cc1c(NS(=O)(=O)c2ccc(C(=O)[N-]c3cccc(S(=O)(=O)N4CCOCC4)c3)cc2)c(=O)n(-c2ccccc2)n1C (3D coordinates assigned)
Cc1c(NS(=O)(=O)c2ccc(C(=O)[N-]c3cccc(S(=O)(=O)N4CCOCC4)c3)cc2)c(=O)n(-c2ccccc2)n1C (nonaromatic ring conformer: 135.72620464091244 kcal/mol)

>  <smiles>  (55) 
Cc1c(NS(=O)(=O)c2ccc(C(=O)Nc3cccc(S(=O)(=O)N4CCOCC4)c3)cc2)c(=O)n(-c2ccccc2)n1C

>  <score_type>  (55) 
oracle

>  <origin>  (55) 
adg

>  <m_score__min__energy>  (55) 
-13.380000000000001

>  <m_primary>  (55) 
energy

$$$$
55:0
     RDKit          3D

 43 45  0  0  0  0  0  0  0  0999 V2000
   58.7570   25.7100   45.7740 O   0  0  0  0  0  0  0  0  0  0  0  0
   59.0550   26.9300   45.8810 C   0  0  0  0  0  0  0  0  0  0  0  0
   60.3820   27.3050   46.4910 C   0  0  0  0  0  0  0  0  0  0  0  0
   60.2310   27.8710   47.9120 C   0  0  0  0  0  0  0  0  0  0  0  0
   60.2570   29.3810   47.9340 C   0  0  0  0  0  0  0  0  0  0  0  0
   61.1290   30.0850   47.0850 C   0  0  0  0  0  0  0  0  0  0  0  0
   61.1830   31.4810   47.1290 C   0  0  0  0  0  0  0  0  0  0  0  0
   60.3520   32.1870   48.0000 C   0  0  0  0  0  0  0  0  0  0  0  0
   59.4640   31.4970   48.8300 C   0  0  0  0  0  0  0  0  0  0  0  0
   59.4180   30.1000   48.8060 C   0  0  0  0  0  0  0  0  0  0  0  0
   58.5510   29.4520   49.6230 F   0  0  0  0  0  0  0  0  0  0  0  0
   58.0790   27.9530   45.4330 C   0  0  0  0  0  0  0  0  0  0  0  0
   56.6990   27.7800   45.6490 C   0  0  0  0  0  0  0  0  0  0  0  0
   56.1840   26.6740   46.3260 O   0  0  0  0  0  0  0  0  0  0  0  0
   55.8330   28.7270   45.2180 N   0  0  0  0  0  0  0  0  0  0  0  0
   56.2500   29.8460   44.5790 C   0  0  0  0  0  0  0  0  0  0  0  0
   55.3890   30.6890   44.2120 O   0  0  0  0  0  0  0  0  0  0  0  0
   57.5850   30.0480   44.3350 N   0  0  0  0  0  0  0  0  0  0  0  0
   58.0400   31.2690   43.6370 C   0  0  0  0  0  0  0  0  0  0  0  0
   58.1660   32.4180   44.6020 C   0  0  0  0  0  0  0  0  0  0  0  0
   57.5550   32.3590   45.8650 C   0  0  0  0  0  0  0  0  0  0  0  0
   57.6840   33.4240   46.7620 C   0  0  0  0  0  0  0  0  0  0  0  0
   58.4160   34.5580   46.4000 C   0  0  0  0  0  0  0  0  0  0  0  0
   59.0140   34.6330   45.1400 C   0  0  0  0  0  0  0  0  0  0  0  0
   58.8890   33.5670   44.2420 C   0  0  0  0  0  0  0  0  0  0  0  0
   58.5000   29.1130   44.7520 C   0  0  0  0  0  0  0  0  0  0  0  0
   59.7270   29.2770   44.5030 O   0  0  0  0  0  0  0  0  0  0  0  0
   61.0181   26.4086   46.5329 H   0  0  0  0  0  0  0  0  0  0  0  0
   60.8322   28.0877   45.8628 H   0  0  0  0  0  0  0  0  0  0  0  0
   59.2729   27.5277   48.3294 H   0  0  0  0  0  0  0  0  0  0  0  0
   61.0818   27.5113   48.5094 H   0  0  0  0  0  0  0  0  0  0  0  0
   61.7720   29.5344   46.3826 H   0  0  0  0  0  0  0  0  0  0  0  0
   61.8818   32.0242   46.4759 H   0  0  0  0  0  0  0  0  0  0  0  0
   60.3958   33.2856   48.0333 H   0  0  0  0  0  0  0  0  0  0  0  0
   58.7986   32.0555   49.5048 H   0  0  0  0  0  0  0  0  0  0  0  0
   56.7260   25.8430   46.5270 H   0  0  0  0  0  0  0  0  0  0  0  0
   59.0194   31.0768   43.1745 H   0  0  0  0  0  0  0  0  0  0  0  0
   57.2997   31.5331   42.8674 H   0  0  0  0  0  0  0  0  0  0  0  0
   56.9721   31.4708   46.1501 H   0  0  0  0  0  0  0  0  0  0  0  0
   57.2092   33.3691   47.7527 H   0  0  0  0  0  0  0  0  0  0  0  0
   58.5214   35.3928   47.1085 H   0  0  0  0  0  0  0  0  0  0  0  0
   59.5831   35.5297   44.8536 H   0  0  0  0  0  0  0  0  0  0  0  0
   59.3592   33.6293   43.2495 H   0  0  0  0  0  0  0  0  0  0  0  0
  1  2  2  0
  2  3  1  0
  3  4  1  0
  4  5  1  0
  5  6  2  0
  6  7  1  0
  7  8  2  0
  8  9  1  0
  9 10  2  0
 10 11  1  0
  2 12  1  0
 12 13  2  0
 13 14  1  0
 13 15  1  0
 15 16  1  0
 16 17  2  0
 16 18  1  0
 18 19  1  0
 19 20  1  0
 20 21  2  0
 21 22  1  0
 22 23  2  0
 23 24  1  0
 24 25  2  0
 18 26  1  0
 26 27  2  0
 10  5  1  0
 26 12  1  0
 25 20  1  0
  3 28  1  0
  3 29  1  0
  4 30  1  0
  4 31  1  0
  6 32  1  0
  7 33  1  0
  8 34  1  0
  9 35  1  0
 14 36  1  0
 19 37  1  0
 19 38  1  0
 21 39  1  0
 22 40  1  0
 23 41  1  0
 24 42  1  0
 25 43  1  0
M  CHG  1  15  -1
M  END
>  <UniqueID>  (56) 
51

>  <SMILES>  (56) 
O=C(CCc1ccccc1F)c1c(O)[n-]c(=O)n(Cc2ccccc2)c1=O

>  <Energy>  (56) 
49.9423800519044

>  <Genealogy>  (56) 
O=C(CCc1ccccc1F)c1c(O)[n-]c(=O)n(Cc2ccccc2)c1=O (protonated)
O=C(CCc1ccccc1F)c1c(O)[n-]c(=O)n(Cc2ccccc2)c1=O (3D coordinates assigned)
O=C(CCc1ccccc1F)c1c(O)[n-]c(=O)n(Cc2ccccc2)c1=O (optimized conformer: 49.9423800519044 kcal/mol)

>  <smiles>  (56) 
O=C(CCc1ccccc1F)c1c(O)[nH]c(=O)n(Cc2ccccc2)c1=O

>  <score_type>  (56) 
oracle

>  <origin>  (56) 
adg

>  <m_score__min__energy>  (56) 
-9.8200000000000003

>  <m_primary>  (56) 
energy

$$$$
56:0
     RDKit          3D

 57 60  0  0  0  0  0  0  0  0999 V2000
   59.2323   23.5885   45.9195 H   0  0  0  0  0  0  0  0  0  0  0  0
   58.3410   24.2330   45.9350 C   0  0  0  0  0  0  0  0  0  0  0  0
   58.4520   25.5380   46.2990 N   0  0  0  0  0  0  0  0  0  0  0  0
   57.3760   26.3760   46.3330 C   0  0  0  0  0  0  0  0  0  0  0  0
   57.5000   27.6210   46.6930 N   0  0  0  0  0  0  0  0  0  0  0  0
   58.7020   28.4090   46.6770 C   0  0  0  0  0  0  0  0  0  0  0  0
   59.0450   29.0350   45.6370 O   0  0  0  0  0  0  0  0  0  0  0  0
   59.5210   28.5180   47.9060 C   0  0  0  0  0  0  0  0  0  0  0  0
   59.9350   27.3370   48.5640 C   0  0  0  0  0  0  0  0  0  0  0  0
   59.6982   26.3452   48.1514 H   0  0  0  0  0  0  0  0  0  0  0  0
   60.6490   27.4680   49.7460 C   0  0  0  0  0  0  0  0  0  0  0  0
   61.1720   26.5260   50.6040 C   0  0  0  0  0  0  0  0  0  0  0  0
   61.1209   25.4314   50.5075 H   0  0  0  0  0  0  0  0  0  0  0  0
   61.7800   27.2600   51.6210 C   0  0  0  0  0  0  0  0  0  0  0  0
   62.3026   26.8193   52.4828 H   0  0  0  0  0  0  0  0  0  0  0  0
   61.6400   28.5890   51.4040 N   0  0  0  0  0  0  0  0  0  0  0  0
   61.9960   29.3650   52.0040 H   0  0  0  0  0  0  0  0  0  0  0  0
   60.9470   28.6920   50.2610 C   0  0  0  0  0  0  0  0  0  0  0  0
   60.5770   29.8430   49.6470 N   0  0  0  0  0  0  0  0  0  0  0  0
   60.8430   30.7660   50.0600 H   0  0  0  0  0  0  0  0  0  0  0  0
   59.8790   29.7840   48.4700 C   0  0  0  0  0  0  0  0  0  0  0  0
   59.5690   31.0070   47.7890 N   0  0  0  0  0  0  0  0  0  0  0  0
   58.5190   31.8810   48.3230 C   0  0  0  0  0  0  0  0  0  0  0  0
   58.9291   32.4758   49.1525 H   0  0  0  0  0  0  0  0  0  0  0  0
   57.6845   31.2601   48.6809 H   0  0  0  0  0  0  0  0  0  0  0  0
   58.0060   32.8230   47.2320 C   0  0  0  0  0  0  0  0  0  0  0  0
   57.2461   33.4913   47.6633 H   0  0  0  0  0  0  0  0  0  0  0  0
   57.5745   32.2159   46.4225 H   0  0  0  0  0  0  0  0  0  0  0  0
   59.1550   33.6780   46.6440 C   0  0  0  0  0  0  0  0  0  0  0  0
   59.3465   34.4684   47.3847 H   0  0  0  0  0  0  0  0  0  0  0  0
   58.7480   34.4100   45.3390 C   0  0  0  0  0  0  0  0  0  0  0  0
   59.6422   34.4873   44.7030 H   0  0  0  0  0  0  0  0  0  0  0  0
   58.3384   35.3800   45.6573 H   0  0  0  0  0  0  0  0  0  0  0  0
   57.6330   33.7380   44.5080 C   0  0  0  0  0  0  0  0  0  0  0  0
   57.3845   34.3850   43.6538 H   0  0  0  0  0  0  0  0  0  0  0  0
   56.7572   33.5940   45.1578 H   0  0  0  0  0  0  0  0  0  0  0  0
   58.0580   32.4140   44.0010 N   0  0  0  0  0  0  0  0  0  0  0  0
   57.1600   31.3470   44.4770 C   0  0  0  0  0  0  0  0  0  0  0  0
   57.1523   31.3378   45.5769 H   0  0  0  0  0  0  0  0  0  0  0  0
   56.1415   31.5317   44.1047 H   0  0  0  0  0  0  0  0  0  0  0  0
   57.5159   30.3750   44.1047 H   0  0  0  0  0  0  0  0  0  0  0  0
   58.0940   32.4080   42.5300 C   0  0  0  0  0  0  0  0  0  0  0  0
   59.1256   32.2361   42.1892 H   0  0  0  0  0  0  0  0  0  0  0  0
   57.4440   31.6058   42.1506 H   0  0  0  0  0  0  0  0  0  0  0  0
   57.7393   33.3777   42.1506 H   0  0  0  0  0  0  0  0  0  0  0  0
   60.5010   32.9070   46.5230 C   0  0  0  0  0  0  0  0  0  0  0  0
   61.1601   33.2216   47.3456 H   0  0  0  0  0  0  0  0  0  0  0  0
   60.9292   33.1462   45.5384 H   0  0  0  0  0  0  0  0  0  0  0  0
   60.3290   31.3840   46.5900 C   0  0  0  0  0  0  0  0  0  0  0  0
   61.3203   30.9084   46.6248 H   0  0  0  0  0  0  0  0  0  0  0  0
   59.7794   31.0473   45.6986 H   0  0  0  0  0  0  0  0  0  0  0  0
   56.1090   25.8810   45.9820 C   0  0  0  0  0  0  0  0  0  0  0  0
   54.9910   26.7080   46.0070 O   0  0  0  0  0  0  0  0  0  0  0  0
   55.9760   24.5420   45.6040 C   0  0  0  0  0  0  0  0  0  0  0  0
   54.9892   24.1440   45.3250 H   0  0  0  0  0  0  0  0  0  0  0  0
   57.0960   23.7110   45.5810 C   0  0  0  0  0  0  0  0  0  0  0  0
   56.9990   22.6555   45.2870 H   0  0  0  0  0  0  0  0  0  0  0  0
  1  2  1  0
  2  3  1  0
  3  4  1  0
  4  5  2  0
  5  6  1  0
  6  7  2  0
  6  8  1  0
  8  9  2  0
  9 10  1  0
  9 11  1  0
 11 12  1  0
 12 13  1  0
 12 14  2  0
 14 15  1  0
 14 16  1  0
 16 17  1  0
 16 18  1  0
 18 19  1  0
 19 20  1  0
 19 21  2  0
 21 22  1  0
 22 23  1  0
 23 24  1  0
 23 25  1  0
 23 26  1  0
 26 27  1  0
 26 28  1  0
 26 29  1  0
 29 30  1  0
 29 31  1  0
 31 32  1  0
 31 33  1  0
 31 34  1  0
 34 35  1  0
 34 36  1  0
 34 37  1  0
 37 38  1  0
 38 39  1  0
 38 40  1  0
 38 41  1  0
 37 42  1  0
 42 43  1  0
 42 44  1  0
 42 45  1  0
 29 46  1  0
 46 47  1  0
 46 48  1  0
 46 49  1  0
 49 50  1  0
 49 51  1  0
  4 52  1  0
 52 53  1  0
 52 54  2  0
 54 55  1  0
 54 56  1  0
 56 57  1  0
 56  2  2  0
 21  8  1  0
 49 22  1  0
 18 11  2  0
M  CHG  3   3  -1  19   1  53  -1
M  END
>  <UniqueID>  (57) 
52

>  <SMILES>  (57) 
CN(C)CCC1CCN(c2[nH+]c3[nH]ccc3cc2C(=O)/N=c2\[n-]cccc2[O-])CC1

>  <Energy>  (57) 
106.8680089629459

>  <Genealogy>  (57) 
CN(C)CCC1CCN(c2[nH+]c3[nH]ccc3cc2C(=O)N=c2[n-]cccc2[O-])CC1 (protonated)
CN(C)CCC1CCN(c2[nH+]c3[nH]ccc3cc2C(=O)/N=c2\[n-]cccc2[O-])CC1 (cis-trans isomerization)
CN(C)CCC1CCN(c2[nH+]c3[nH]ccc3cc2C(=O)/N=c2\[n-]cccc2[O-])CC1 (3D coordinates assigned)
CN(C)CCC1CCN(c2[nH+]c3[nH]ccc3cc2C(=O)/N=c2\[n-]cccc2[O-])CC1 (nonaromatic ring conformer: 106.8680089629459 kcal/mol)

>  <smiles>  (57) 
CN(C)CCC1CCN(c2nc3[nH]ccc3cc2C(=O)N=c2[nH]cccc2O)CC1

>  <score_type>  (57) 
oracle

>  <origin>  (57) 
adg

>  <m_score__min__energy>  (57) 
-11.890000000000001

>  <m_primary>  (57) 
energy

$$$$
57:0
     RDKit          3D

 68 72  0  0  0  0  0  0  0  0999 V2000
   57.1200   30.1710   44.5290 C   0  0  0  0  0  0  0  0  0  0  0  0
   57.2050   31.5610   45.0040 N   0  0  0  0  0  0  0  0  0  0  0  0
   57.7920   31.6330   46.3650 C   0  0  0  0  0  0  0  0  0  0  0  0
   59.2970   31.9560   46.3330 C   0  0  0  0  0  0  0  0  0  0  0  0
   59.5900   33.2360   45.6330 N   0  0  0  0  0  0  0  0  0  0  0  0
   59.8830   34.3290   46.5870 C   0  0  0  0  0  0  0  0  0  0  0  0
   61.1800   34.0740   47.3340 C   0  0  0  0  0  0  0  0  0  0  0  0
   62.3490   33.8690   46.5750 C   0  0  0  0  0  0  0  0  0  0  0  0
   63.5670   33.5850   47.1920 C   0  0  0  0  0  0  0  0  0  0  0  0
   63.6440   33.5090   48.5900 C   0  0  0  0  0  0  0  0  0  0  0  0
   64.8740   33.2030   49.2640 N   0  0  0  0  0  0  0  0  0  0  0  0
   65.0880   32.0660   50.1040 C   0  0  0  0  0  0  0  0  0  0  0  0
   66.2670   31.6730   50.2970 O   0  0  0  0  0  0  0  0  0  0  0  0
   63.9470   31.3170   50.6860 C   0  0  0  0  0  0  0  0  0  0  0  0
   63.8780   31.0720   52.0670 C   0  0  0  0  0  0  0  0  0  0  0  0
   62.7980   30.3770   52.6090 C   0  0  0  0  0  0  0  0  0  0  0  0
   61.7590   29.9370   51.7870 C   0  0  0  0  0  0  0  0  0  0  0  0
   61.7860   30.1930   50.4070 C   0  0  0  0  0  0  0  0  0  0  0  0
   60.6820   29.7740   49.5780 N   0  0  0  0  0  0  0  0  0  0  0  0
   60.7170   28.9290   48.5280 C   0  0  0  0  0  0  0  0  0  0  0  0
   59.4330   28.8930   48.0140 C   0  0  0  0  0  0  0  0  0  0  0  0
   58.9560   28.1610   46.8170 C   0  0  0  0  0  0  0  0  0  0  0  0
   59.6130   28.3300   45.5830 C   0  0  0  0  0  0  0  0  0  0  0  0
   59.2070   27.6100   44.4570 C   0  0  0  0  0  0  0  0  0  0  0  0
   58.1320   26.7200   44.5420 C   0  0  0  0  0  0  0  0  0  0  0  0
   57.4510   26.5570   45.7580 C   0  0  0  0  0  0  0  0  0  0  0  0
   56.1130   25.4190   45.8920 S   0  0  0  0  0  0  0  0  0  0  0  0
   54.6240   26.2940   45.9660 N   0  0  0  0  0  0  0  0  0  0  0  0
   56.1070   24.5080   44.6980 O   0  0  0  0  0  0  0  0  0  0  0  0
   56.2620   24.5860   47.1350 O   0  0  0  0  0  0  0  0  0  0  0  0
   57.8670   27.2730   46.8910 C   0  0  0  0  0  0  0  0  0  0  0  0
   58.6620   29.7110   48.7630 N   0  0  0  0  0  0  0  0  0  0  0  0
   59.4440   30.2280   49.6990 N   0  0  0  0  0  0  0  0  0  0  0  0
   62.8950   30.8710   49.8620 C   0  0  0  0  0  0  0  0  0  0  0  0
   62.4910   33.7150   49.3590 C   0  0  0  0  0  0  0  0  0  0  0  0
   61.2460   33.9900   48.7560 C   0  0  0  0  0  0  0  0  0  0  0  0
   60.0130   34.1380   49.6330 C   0  0  0  0  0  0  0  0  0  0  0  0
   59.3000   35.2880   49.3310 F   0  0  0  0  0  0  0  0  0  0  0  0
   60.3950   34.2120   50.9560 F   0  0  0  0  0  0  0  0  0  0  0  0
   59.1680   33.0610   49.4530 F   0  0  0  0  0  0  0  0  0  0  0  0
   58.5400   33.6350   44.6670 C   0  0  0  0  0  0  0  0  0  0  0  0
   57.9060   32.4070   44.0060 C   0  0  0  0  0  0  0  0  0  0  0  0
   57.0784   29.4904   45.3922 H   0  0  0  0  0  0  0  0  0  0  0  0
   56.2126   30.0465   43.9198 H   0  0  0  0  0  0  0  0  0  0  0  0
   58.0055   29.9369   43.9198 H   0  0  0  0  0  0  0  0  0  0  0  0
   57.2731   32.4188   46.9335 H   0  0  0  0  0  0  0  0  0  0  0  0
   57.6681   30.6480   46.8387 H   0  0  0  0  0  0  0  0  0  0  0  0
   59.6646   32.0273   47.3673 H   0  0  0  0  0  0  0  0  0  0  0  0
   59.8004   31.1495   45.7797 H   0  0  0  0  0  0  0  0  0  0  0  0
   59.9684   35.2754   46.0329 H   0  0  0  0  0  0  0  0  0  0  0  0
   59.0639   34.3804   47.3195 H   0  0  0  0  0  0  0  0  0  0  0  0
   62.3003   33.9340   45.4780 H   0  0  0  0  0  0  0  0  0  0  0  0
   64.4674   33.4206   46.5819 H   0  0  0  0  0  0  0  0  0  0  0  0
   64.6822   31.4312   52.7260 H   0  0  0  0  0  0  0  0  0  0  0  0
   62.7643   30.1743   53.6896 H   0  0  0  0  0  0  0  0  0  0  0  0
   60.9132   29.3858   52.2237 H   0  0  0  0  0  0  0  0  0  0  0  0
   61.5925   28.3777   48.1543 H   0  0  0  0  0  0  0  0  0  0  0  0
   60.4535   29.0353   45.5051 H   0  0  0  0  0  0  0  0  0  0  0  0
   59.7344   27.7435   43.5009 H   0  0  0  0  0  0  0  0  0  0  0  0
   57.8202   26.1477   43.6558 H   0  0  0  0  0  0  0  0  0  0  0  0
   54.7680   27.0910   46.6240 H   0  0  0  0  0  0  0  0  0  0  0  0
   57.3370   27.1388   47.8455 H   0  0  0  0  0  0  0  0  0  0  0  0
   62.9397   31.0544   48.7783 H   0  0  0  0  0  0  0  0  0  0  0  0
   62.5582   33.6611   50.4556 H   0  0  0  0  0  0  0  0  0  0  0  0
   57.7599   34.2010   45.1972 H   0  0  0  0  0  0  0  0  0  0  0  0
   59.0016   34.2549   43.8843 H   0  0  0  0  0  0  0  0  0  0  0  0
   57.1825   32.7412   43.2478 H   0  0  0  0  0  0  0  0  0  0  0  0
   58.7052   31.8094   43.5433 H   0  0  0  0  0  0  0  0  0  0  0  0
  1  2  1  0
  2  3  1  0
  3  4  1  0
  4  5  1  0
  5  6  1  0
  6  7  1  0
  7  8  2  0
  8  9  1  0
  9 10  2  0
 10 11  1  0
 11 12  1  0
 12 13  2  0
 12 14  1  0
 14 15  2  0
 15 16  1  0
 16 17  2  0
 17 18  1  0
 18 19  1  0
 19 20  1  0
 20 21  2  0
 21 22  1  0
 22 23  2  0
 23 24  1  0
 24 25  2  0
 25 26  1  0
 26 27  1  0
 27 28  1  0
 27 29  2  0
 27 30  2  0
 26 31  2  0
 21 32  1  0
 32 33  2  0
 18 34  2  0
 10 35  1  0
 35 36  2  0
 36 37  1  0
 37 38  1  0
 37 39  1  0
 37 40  1  0
  5 41  1  0
 41 42  1  0
 42  2  1  0
 36  7  1  0
 34 14  1  0
 33 19  1  0
 31 22  1  0
  1 43  1  0
  1 44  1  0
  1 45  1  0
  3 46  1  0
  3 47  1  0
  4 48  1  0
  4 49  1  0
  6 50  1  0
  6 51  1  0
  8 52  1  0
  9 53  1  0
 15 54  1  0
 16 55  1  0
 17 56  1  0
 20 57  1  0
 23 58  1  0
 24 59  1  0
 25 60  1  0
 28 61  1  0
 31 62  1  0
 34 63  1  0
 35 64  1  0
 41 65  1  0
 41 66  1  0
 42 67  1  0
 42 68  1  0
M  CHG  2  11  -1  28  -1
M  END
>  <UniqueID>  (58) 
53

>  <SMILES>  (58) 
CN1CCN(Cc2ccc([N-]C(=O)c3cccc(-n4cc(-c5cccc(S([NH-])(=O)=O)c5)nn4)c3)cc2C(F)(F)F)CC1

>  <Energy>  (58) 
138.000658382199

>  <Genealogy>  (58) 
CN1CCN(Cc2ccc([N-]C(=O)c3cccc(-n4cc(-c5cccc(S([NH-])(=O)=O)c5)nn4)c3)cc2C(F)(F)F)CC1 (protonated)
CN1CCN(Cc2ccc([N-]C(=O)c3cccc(-n4cc(-c5cccc(S([NH-])(=O)=O)c5)nn4)c3)cc2C(F)(F)F)CC1 (3D coordinates assigned)
CN1CCN(Cc2ccc([N-]C(=O)c3cccc(-n4cc(-c5cccc(S([NH-])(=O)=O)c5)nn4)c3)cc2C(F)(F)F)CC1 (nonaromatic ring conformer: 138.000658382199 kcal/mol)

>  <smiles>  (58) 
CN1CCN(Cc2ccc(NC(=O)c3cccc(-n4cc(-c5cccc(S(N)(=O)=O)c5)nn4)c3)cc2C(F)(F)F)CC1

>  <score_type>  (58) 
oracle

>  <origin>  (58) 
adg

>  <m_score__min__energy>  (58) 
-14.83

>  <m_primary>  (58) 
energy

$$$$
58:0
     RDKit          3D

 55 59  0  0  0  0  0  0  0  0999 V2000
   58.6280   29.6120   49.3540 O   0  0  0  0  0  0  0  0  0  0  0  0
   59.3120   29.4520   48.3060 C   0  0  0  0  0  0  0  0  0  0  0  0
   60.6480   29.9710   48.2400 N   0  0  0  0  0  0  0  0  0  0  0  0
   61.1820   30.8330   49.2950 C   0  0  0  0  0  0  0  0  0  0  0  0
   62.0030   31.9490   48.7020 C   0  0  0  0  0  0  0  0  0  0  0  0
   62.7760   31.7110   47.5520 C   0  0  0  0  0  0  0  0  0  0  0  0
   63.5900   32.7180   47.0270 C   0  0  0  0  0  0  0  0  0  0  0  0
   63.6470   33.9670   47.6490 C   0  0  0  0  0  0  0  0  0  0  0  0
   62.8950   34.2080   48.8030 C   0  0  0  0  0  0  0  0  0  0  0  0
   62.0790   33.2040   49.3350 C   0  0  0  0  0  0  0  0  0  0  0  0
   61.3730   33.4530   50.4670 F   0  0  0  0  0  0  0  0  0  0  0  0
   58.7190   28.7280   47.1680 C   0  0  0  0  0  0  0  0  0  0  0  0
   58.1510   27.4650   47.1890 C   0  0  0  0  0  0  0  0  0  0  0  0
   57.7690   27.2420   45.8810 C   0  0  0  0  0  0  0  0  0  0  0  0
   57.0870   26.0270   45.3940 C   0  0  0  0  0  0  0  0  0  0  0  0
   55.8910   25.6060   45.9980 C   0  0  0  0  0  0  0  0  0  0  0  0
   55.2410   24.4540   45.5470 C   0  0  0  0  0  0  0  0  0  0  0  0
   55.7870   23.7070   44.5000 C   0  0  0  0  0  0  0  0  0  0  0  0
   56.9880   24.1070   43.9080 C   0  0  0  0  0  0  0  0  0  0  0  0
   57.6410   25.2600   44.3560 C   0  0  0  0  0  0  0  0  0  0  0  0
   58.0880   28.3300   45.1410 N   0  0  0  0  0  0  0  0  0  0  0  0
   57.7390   28.6030   43.7450 C   0  0  0  0  0  0  0  0  0  0  0  0
   56.5790   29.6030   43.6390 C   0  0  0  0  0  0  0  0  0  0  0  0
   57.0190   31.0890   42.6650 S   0  0  0  0  0  0  0  0  0  0  0  0
   57.6760   31.9980   44.0600 C   0  0  0  0  0  0  0  0  0  0  0  0
   58.4850   33.0790   43.9240 N   0  0  0  0  0  0  0  0  0  0  0  0
   58.7130   33.4120   45.2050 C   0  0  0  0  0  0  0  0  0  0  0  0
   59.5020   34.4530   45.6930 C   0  0  0  0  0  0  0  0  0  0  0  0
   59.5960   34.6000   47.0900 C   0  0  0  0  0  0  0  0  0  0  0  0
   58.9110   33.7120   47.9520 C   0  0  0  0  0  0  0  0  0  0  0  0
   58.1260   32.6690   47.4240 C   0  0  0  0  0  0  0  0  0  0  0  0
   58.0580   32.5570   46.0390 C   0  0  0  0  0  0  0  0  0  0  0  0
   57.4120   31.6830   45.3170 O   0  0  0  0  0  0  0  0  0  0  0  0
   58.6620   29.2340   45.9200 N   0  0  0  0  0  0  0  0  0  0  0  0
   61.2520   29.7290   47.4220 H   0  0  0  0  0  0  0  0  0  0  0  0
   60.3472   31.2631   49.8678 H   0  0  0  0  0  0  0  0  0  0  0  0
   61.8248   30.2309   49.9540 H   0  0  0  0  0  0  0  0  0  0  0  0
   62.7397   30.7264   47.0628 H   0  0  0  0  0  0  0  0  0  0  0  0
   64.1865   32.5267   46.1228 H   0  0  0  0  0  0  0  0  0  0  0  0
   64.2833   34.7611   47.2312 H   0  0  0  0  0  0  0  0  0  0  0  0
   62.9453   35.1909   49.2944 H   0  0  0  0  0  0  0  0  0  0  0  0
   58.0314   26.7926   48.0513 H   0  0  0  0  0  0  0  0  0  0  0  0
   55.4640   26.1856   46.8297 H   0  0  0  0  0  0  0  0  0  0  0  0
   54.2988   24.1351   46.0166 H   0  0  0  0  0  0  0  0  0  0  0  0
   55.2713   22.8038   44.1416 H   0  0  0  0  0  0  0  0  0  0  0  0
   57.4205   23.5142   43.0885 H   0  0  0  0  0  0  0  0  0  0  0  0
   58.5910   25.5669   43.8941 H   0  0  0  0  0  0  0  0  0  0  0  0
   58.6181   29.0200   43.2320 H   0  0  0  0  0  0  0  0  0  0  0  0
   57.4236   27.6585   43.2776 H   0  0  0  0  0  0  0  0  0  0  0  0
   55.7265   29.1040   43.1550 H   0  0  0  0  0  0  0  0  0  0  0  0
   56.3296   29.9338   44.6580 H   0  0  0  0  0  0  0  0  0  0  0  0
   60.0317   35.1346   45.0112 H   0  0  0  0  0  0  0  0  0  0  0  0
   60.2063   35.4110   47.5141 H   0  0  0  0  0  0  0  0  0  0  0  0
   58.9920   33.8370   49.0419 H   0  0  0  0  0  0  0  0  0  0  0  0
   57.5876   31.9701   48.0810 H   0  0  0  0  0  0  0  0  0  0  0  0
  1  2  2  0
  2  3  1  0
  3  4  1  0
  4  5  1  0
  5  6  2  0
  6  7  1  0
  7  8  2  0
  8  9  1  0
  9 10  2  0
 10 11  1  0
  2 12  1  0
 12 13  1  0
 13 14  2  0
 14 15  1  0
 15 16  2  0
 16 17  1  0
 17 18  2  0
 18 19  1  0
 19 20  2  0
 14 21  1  0
 21 22  1  0
 22 23  1  0
 23 24  1  0
 24 25  1  0
 25 26  2  0
 26 27  1  0
 27 28  2  0
 28 29  1  0
 29 30  2  0
 30 31  1  0
 31 32  2  0
 32 33  1  0
 21 34  1  0
 10  5  1  0
 34 12  2  0
 20 15  1  0
 33 25  1  0
 32 27  1  0
  3 35  1  0
  4 36  1  0
  4 37  1  0
  6 38  1  0
  7 39  1  0
  8 40  1  0
  9 41  1  0
 13 42  1  0
 16 43  1  0
 17 44  1  0
 18 45  1  0
 19 46  1  0
 20 47  1  0
 22 48  1  0
 22 49  1  0
 23 50  1  0
 23 51  1  0
 28 52  1  0
 29 53  1  0
 30 54  1  0
 31 55  1  0
M  END
>  <UniqueID>  (59) 
54

>  <SMILES>  (59) 
O=C(NCc1ccccc1F)c1cc(-c2ccccc2)n(CCSc2nc3ccccc3o2)n1

>  <Energy>  (59) 
126.17375549990736

>  <Genealogy>  (59) 
O=C(NCc1ccccc1F)c1cc(-c2ccccc2)n(CCSc2nc3ccccc3o2)n1 (3D coordinates assigned)
O=C(NCc1ccccc1F)c1cc(-c2ccccc2)n(CCSc2nc3ccccc3o2)n1 (optimized conformer: 126.17375549990736 kcal/mol)

>  <smiles>  (59) 
O=C(NCc1ccccc1F)c1cc(-c2ccccc2)n(CCSc2nc3ccccc3o2)n1

>  <score_type>  (59) 
oracle

>  <origin>  (59) 
adg

>  <m_score__min__energy>  (59) 
-9.5700000000000003

>  <m_primary>  (59) 
energy

$$$$
59:0
     RDKit          3D

 68 71  0  0  0  0  0  0  0  0999 V2000
   57.9170   32.9840   52.3940 C   0  0  0  0  0  0  0  0  0  0  0  0
   59.3430   33.2650   52.1600 N   0  0  0  0  0  0  0  0  0  0  0  0
   59.5840   33.7540   50.7820 C   0  0  0  0  0  0  0  0  0  0  0  0
   59.4680   32.6260   49.7430 C   0  0  0  0  0  0  0  0  0  0  0  0
   60.1370   31.4080   50.2150 N   0  0  0  0  0  0  0  0  0  0  0  0
   59.9110   30.1530   49.5450 C   0  0  0  0  0  0  0  0  0  0  0  0
   58.7620   29.9640   48.7600 C   0  0  0  0  0  0  0  0  0  0  0  0
   58.5390   28.7480   48.1100 C   0  0  0  0  0  0  0  0  0  0  0  0
   59.4620   27.6910   48.2250 C   0  0  0  0  0  0  0  0  0  0  0  0
   59.1930   26.3960   47.5400 C   0  0  0  0  0  0  0  0  0  0  0  0
   59.9800   25.9960   46.6340 O   0  0  0  0  0  0  0  0  0  0  0  0
   57.9990   25.5440   47.8610 C   0  0  0  0  0  0  0  0  0  0  0  0
   57.3060   25.1840   46.6300 N   0  0  0  0  0  0  0  0  0  0  0  0
   56.6730   26.1500   45.7850 C   0  0  0  0  0  0  0  0  0  0  0  0
   55.4830   26.5060   46.0040 O   0  0  0  0  0  0  0  0  0  0  0  0
   57.4060   26.6650   44.5820 C   0  0  0  0  0  0  0  0  0  0  0  0
   57.8030   28.1070   44.7570 C   0  0  0  0  0  0  0  0  0  0  0  0
   56.8300   29.1190   44.7450 C   0  0  0  0  0  0  0  0  0  0  0  0
   57.1970   30.4530   44.9370 C   0  0  0  0  0  0  0  0  0  0  0  0
   58.5370   30.7960   45.1680 C   0  0  0  0  0  0  0  0  0  0  0  0
   58.8860   32.1770   45.3600 N   0  0  0  0  0  0  0  0  0  0  0  0
   58.5420   32.9340   46.5280 C   0  0  0  0  0  0  0  0  0  0  0  0
   57.7730   32.4510   47.4040 O   0  0  0  0  0  0  0  0  0  0  0  0
   59.0390   34.2350   46.6630 O   0  0  0  0  0  0  0  0  0  0  0  0
   60.3950   34.5870   46.3900 C   0  0  0  0  0  0  0  0  0  0  0  0
   61.3310   33.7150   47.1830 C   0  0  0  0  0  0  0  0  0  0  0  0
   61.9480   34.1990   48.3490 C   0  0  0  0  0  0  0  0  0  0  0  0
   62.8280   33.3850   49.0720 C   0  0  0  0  0  0  0  0  0  0  0  0
   63.1030   32.0870   48.6300 C   0  0  0  0  0  0  0  0  0  0  0  0
   62.4970   31.6010   47.4680 C   0  0  0  0  0  0  0  0  0  0  0  0
   61.6130   32.4100   46.7470 C   0  0  0  0  0  0  0  0  0  0  0  0
   59.5110   29.7850   45.1750 C   0  0  0  0  0  0  0  0  0  0  0  0
   59.1460   28.4490   44.9780 C   0  0  0  0  0  0  0  0  0  0  0  0
   60.6220   27.8900   49.0000 C   0  0  0  0  0  0  0  0  0  0  0  0
   60.8430   29.1090   49.6500 C   0  0  0  0  0  0  0  0  0  0  0  0
   60.9930   31.4910   51.4030 C   0  0  0  0  0  0  0  0  0  0  0  0
   60.2080   32.1220   52.5650 C   0  0  0  0  0  0  0  0  0  0  0  0
   57.7236   32.9459   53.4762 H   0  0  0  0  0  0  0  0  0  0  0  0
   57.3073   33.7793   51.9403 H   0  0  0  0  0  0  0  0  0  0  0  0
   57.6546   32.0169   51.9403 H   0  0  0  0  0  0  0  0  0  0  0  0
   58.8428   34.5318   50.5463 H   0  0  0  0  0  0  0  0  0  0  0  0
   60.6077   34.1540   50.7371 H   0  0  0  0  0  0  0  0  0  0  0  0
   58.4046   32.4073   49.5662 H   0  0  0  0  0  0  0  0  0  0  0  0
   59.9528   32.9548   48.8119 H   0  0  0  0  0  0  0  0  0  0  0  0
   58.0318   30.7801   48.6562 H   0  0  0  0  0  0  0  0  0  0  0  0
   57.6323   28.6147   47.5016 H   0  0  0  0  0  0  0  0  0  0  0  0
   58.3301   24.6295   48.3749 H   0  0  0  0  0  0  0  0  0  0  0  0
   57.3146   26.1072   48.5125 H   0  0  0  0  0  0  0  0  0  0  0  0
   58.3120   26.0603   44.4288 H   0  0  0  0  0  0  0  0  0  0  0  0
   56.7372   26.5929   43.7116 H   0  0  0  0  0  0  0  0  0  0  0  0
   55.7732   28.8601   44.5836 H   0  0  0  0  0  0  0  0  0  0  0  0
   56.4293   31.2402   44.9068 H   0  0  0  0  0  0  0  0  0  0  0  0
   59.3030   32.6990   44.5550 H   0  0  0  0  0  0  0  0  0  0  0  0
   60.5957   34.4528   45.3168 H   0  0  0  0  0  0  0  0  0  0  0  0
   60.5564   35.6371   46.6752 H   0  0  0  0  0  0  0  0  0  0  0  0
   61.7386   35.2219   48.6951 H   0  0  0  0  0  0  0  0  0  0  0  0
   63.3032   33.7664   49.9878 H   0  0  0  0  0  0  0  0  0  0  0  0
   63.7964   31.4484   49.1969 H   0  0  0  0  0  0  0  0  0  0  0  0
   62.7157   30.5806   47.1201 H   0  0  0  0  0  0  0  0  0  0  0  0
   61.1364   32.0226   45.8344 H   0  0  0  0  0  0  0  0  0  0  0  0
   60.5676   30.0449   45.3364 H   0  0  0  0  0  0  0  0  0  0  0  0
   59.9152   27.6629   44.9964 H   0  0  0  0  0  0  0  0  0  0  0  0
   61.3601   27.0799   49.0947 H   0  0  0  0  0  0  0  0  0  0  0  0
   61.7550   29.2504   50.2485 H   0  0  0  0  0  0  0  0  0  0  0  0
   61.3203   30.4805   51.6891 H   0  0  0  0  0  0  0  0  0  0  0  0
   61.8710   32.1136   51.1763 H   0  0  0  0  0  0  0  0  0  0  0  0
   59.5694   31.3464   53.0129 H   0  0  0  0  0  0  0  0  0  0  0  0
   60.9505   32.5192   53.2728 H   0  0  0  0  0  0  0  0  0  0  0  0
  1  2  1  0
  2  3  1  0
  3  4  1  0
  4  5  1  0
  5  6  1  0
  6  7  2  0
  7  8  1  0
  8  9  2  0
  9 10  1  0
 10 11  2  0
 10 12  1  0
 12 13  1  0
 13 14  1  0
 14 15  2  0
 14 16  1  0
 16 17  1  0
 17 18  2  0
 18 19  1  0
 19 20  2  0
 20 21  1  0
 21 22  1  0
 22 23  2  0
 22 24  1  0
 24 25  1  0
 25 26  1  0
 26 27  2  0
 27 28  1  0
 28 29  2  0
 29 30  1  0
 30 31  2  0
 20 32  1  0
 32 33  2  0
  9 34  1  0
 34 35  2  0
  5 36  1  0
 36 37  1  0
 37  2  1  0
 35  6  1  0
 33 17  1  0
 31 26  1  0
  1 38  1  0
  1 39  1  0
  1 40  1  0
  3 41  1  0
  3 42  1  0
  4 43  1  0
  4 44  1  0
  7 45  1  0
  8 46  1  0
 12 47  1  0
 12 48  1  0
 16 49  1  0
 16 50  1  0
 18 51  1  0
 19 52  1  0
 21 53  1  0
 25 54  1  0
 25 55  1  0
 27 56  1  0
 28 57  1  0
 29 58  1  0
 30 59  1  0
 31 60  1  0
 32 61  1  0
 33 62  1  0
 34 63  1  0
 35 64  1  0
 36 65  1  0
 36 66  1  0
 37 67  1  0
 37 68  1  0
M  CHG  1  13  -1
M  END
>  <UniqueID>  (60) 
55

>  <SMILES>  (60) 
CN1CCN(c2ccc(C(=O)C[N-]C(=O)Cc3ccc(NC(=O)OCc4ccccc4)cc3)cc2)CC1

>  <Energy>  (60) 
81.7831799089767

>  <Genealogy>  (60) 
CN1CCN(c2ccc(C(=O)C[N-]C(=O)Cc3ccc(NC(=O)OCc4ccccc4)cc3)cc2)CC1 (protonated)
CN1CCN(c2ccc(C(=O)C[N-]C(=O)Cc3ccc(NC(=O)OCc4ccccc4)cc3)cc2)CC1 (3D coordinates assigned)
CN1CCN(c2ccc(C(=O)C[N-]C(=O)Cc3ccc(NC(=O)OCc4ccccc4)cc3)cc2)CC1 (nonaromatic ring conformer: 81.7831799089767 kcal/mol)

>  <smiles>  (60) 
CN1CCN(c2ccc(C(=O)CNC(=O)Cc3ccc(NC(=O)OCc4ccccc4)cc3)cc2)CC1

>  <score_type>  (60) 
oracle

>  <origin>  (60) 
adg

>  <m_score__min__energy>  (60) 
-11.1

>  <m_primary>  (60) 
energy

$$$$
60:0
     RDKit          3D

 50 53  0  0  0  0  0  0  0  0999 V2000
   60.5520   27.7780   48.5570 C   0  0  0  0  0  0  0  0  0  0  0  0
   59.7910   28.6130   47.6110 N   0  0  0  0  0  0  0  0  0  0  0  0
   60.2950   29.8340   47.2290 C   0  0  0  0  0  0  0  0  0  0  0  0
   61.8170   30.5030   47.9330 S   0  0  0  0  0  0  0  0  0  0  0  0
   61.0320   31.0810   49.4830 C   0  0  0  0  0  0  0  0  0  0  0  0
   59.5990   31.4270   49.2440 C   0  0  0  0  0  0  0  0  0  0  0  0
   58.7210   30.5240   49.2990 O   0  0  0  0  0  0  0  0  0  0  0  0
   59.2460   32.7840   48.9440 N   0  0  0  0  0  0  0  0  0  0  0  0
   58.9380   33.3330   47.6540 C   0  0  0  0  0  0  0  0  0  0  0  0
   57.6380   33.2610   47.1160 C   0  0  0  0  0  0  0  0  0  0  0  0
   57.3430   33.8650   45.8930 C   0  0  0  0  0  0  0  0  0  0  0  0
   58.3290   34.5740   45.2060 C   0  0  0  0  0  0  0  0  0  0  0  0
   59.6150   34.6800   45.7400 C   0  0  0  0  0  0  0  0  0  0  0  0
   59.9270   34.0700   46.9690 C   0  0  0  0  0  0  0  0  0  0  0  0
   61.2530   34.2110   47.5100 N   0  0  0  0  0  0  0  0  0  0  0  0
   61.4440   34.5280   48.9280 C   0  0  0  0  0  0  0  0  0  0  0  0
   62.8470   34.1070   49.3730 C   0  0  0  0  0  0  0  0  0  0  0  0
   63.1790   32.8720   48.7730 O   0  0  0  0  0  0  0  0  0  0  0  0
   63.4470   33.0480   47.3900 C   0  0  0  0  0  0  0  0  0  0  0  0
   62.4240   33.9550   46.6620 C   0  0  0  0  0  0  0  0  0  0  0  0
   59.6360   30.5910   46.3160 N   0  0  0  0  0  0  0  0  0  0  0  0
   58.4600   30.1950   45.7770 C   0  0  0  0  0  0  0  0  0  0  0  0
   57.8030   31.0150   44.8530 C   0  0  0  0  0  0  0  0  0  0  0  0
   56.5750   30.6210   44.3160 C   0  0  0  0  0  0  0  0  0  0  0  0
   56.0020   29.4040   44.7010 C   0  0  0  0  0  0  0  0  0  0  0  0
   54.7740   29.0240   44.1780 O   0  0  0  0  0  0  0  0  0  0  0  0
   56.6520   28.5800   45.6250 C   0  0  0  0  0  0  0  0  0  0  0  0
   57.8910   28.9710   46.1690 C   0  0  0  0  0  0  0  0  0  0  0  0
   58.5880   28.1820   47.1010 C   0  0  0  0  0  0  0  0  0  0  0  0
   58.1060   27.0700   47.4590 O   0  0  0  0  0  0  0  0  0  0  0  0
   60.2929   28.0623   49.5875 H   0  0  0  0  0  0  0  0  0  0  0  0
   60.3018   26.7192   48.3948 H   0  0  0  0  0  0  0  0  0  0  0  0
   61.6294   27.9292   48.3948 H   0  0  0  0  0  0  0  0  0  0  0  0
   61.0911   30.2835   50.2383 H   0  0  0  0  0  0  0  0  0  0  0  0
   61.5610   31.9779   49.8376 H   0  0  0  0  0  0  0  0  0  0  0  0
   56.8494   32.7246   47.6641 H   0  0  0  0  0  0  0  0  0  0  0  0
   56.3311   33.7820   45.4698 H   0  0  0  0  0  0  0  0  0  0  0  0
   58.0931   35.0500   44.2428 H   0  0  0  0  0  0  0  0  0  0  0  0
   60.3882   35.2433   45.1970 H   0  0  0  0  0  0  0  0  0  0  0  0
   61.3234   35.6109   49.0789 H   0  0  0  0  0  0  0  0  0  0  0  0
   60.6970   33.9834   49.5241 H   0  0  0  0  0  0  0  0  0  0  0  0
   63.5747   34.8721   49.0648 H   0  0  0  0  0  0  0  0  0  0  0  0
   62.8688   34.0011   50.4677 H   0  0  0  0  0  0  0  0  0  0  0  0
   64.4450   33.4985   47.2854 H   0  0  0  0  0  0  0  0  0  0  0  0
   63.3807   32.0541   46.9233 H   0  0  0  0  0  0  0  0  0  0  0  0
   62.9048   34.9126   46.4135 H   0  0  0  0  0  0  0  0  0  0  0  0
   62.0900   33.4436   45.7472 H   0  0  0  0  0  0  0  0  0  0  0  0
   58.2540   31.9711   44.5490 H   0  0  0  0  0  0  0  0  0  0  0  0
   56.0588   31.2673   43.5908 H   0  0  0  0  0  0  0  0  0  0  0  0
   56.1955   27.6259   45.9272 H   0  0  0  0  0  0  0  0  0  0  0  0
  1  2  1  0
  2  3  1  0
  3  4  1  0
  4  5  1  0
  5  6  1  0
  6  7  2  0
  6  8  1  0
  8  9  1  0
  9 10  2  0
 10 11  1  0
 11 12  2  0
 12 13  1  0
 13 14  2  0
 14 15  1  0
 15 16  1  0
 16 17  1  0
 17 18  1  0
 18 19  1  0
 19 20  1  0
  3 21  2  0
 21 22  1  0
 22 23  2  0
 23 24  1  0
 24 25  2  0
 25 26  1  0
 25 27  1  0
 27 28  2  0
 28 29  1  0
 29 30  2  0
 29  2  1  0
 14  9  1  0
 20 15  1  0
 28 22  1  0
  1 31  1  0
  1 32  1  0
  1 33  1  0
  5 34  1  0
  5 35  1  0
 10 36  1  0
 11 37  1  0
 12 38  1  0
 13 39  1  0
 16 40  1  0
 16 41  1  0
 17 42  1  0
 17 43  1  0
 19 44  1  0
 19 45  1  0
 20 46  1  0
 20 47  1  0
 23 48  1  0
 24 49  1  0
 27 50  1  0
M  CHG  2   8  -1  26  -1
M  END
>  <UniqueID>  (61) 
56

>  <SMILES>  (61) 
Cn1c(SCC(=O)[N-]c2ccccc2N2CCOCC2)nc2ccc([O-])cc2c1=O

>  <Energy>  (61) 
67.04196187735054

>  <Genealogy>  (61) 
Cn1c(SCC(=O)[N-]c2ccccc2N2CCOCC2)nc2ccc([O-])cc2c1=O (protonated)
Cn1c(SCC(=O)[N-]c2ccccc2N2CCOCC2)nc2ccc([O-])cc2c1=O (3D coordinates assigned)
Cn1c(SCC(=O)[N-]c2ccccc2N2CCOCC2)nc2ccc([O-])cc2c1=O (nonaromatic ring conformer: 67.04196187735054 kcal/mol)

>  <smiles>  (61) 
Cn1c(SCC(=O)Nc2ccccc2N2CCOCC2)nc2ccc(O)cc2c1=O

>  <score_type>  (61) 
oracle

>  <origin>  (61) 
adg

>  <m_score__min__energy>  (61) 
-11.619999999999999

>  <m_primary>  (61) 
energy

$$$$
61:0
     RDKit          3D

 37 39  0  0  0  0  0  0  0  0999 V2000
   63.2210   33.8730   46.3700 C   0  0  0  0  0  0  0  0  0  0  0  0
   63.3490   32.9820   47.5630 C   0  0  0  0  0  0  0  0  0  0  0  0
   64.3550   33.0850   48.4530 N   0  0  0  0  0  0  0  0  0  0  0  0
   64.1040   32.0930   49.3330 C   0  0  0  0  0  0  0  0  0  0  0  0
   63.0210   31.4120   49.0300 O   0  0  0  0  0  0  0  0  0  0  0  0
   62.5180   31.9400   47.9420 C   0  0  0  0  0  0  0  0  0  0  0  0
   61.2930   31.4430   47.2890 C   0  0  0  0  0  0  0  0  0  0  0  0
   60.2290   32.1050   47.4160 O   0  0  0  0  0  0  0  0  0  0  0  0
   61.3130   30.2700   46.4640 N   0  0  0  0  0  0  0  0  0  0  0  0
   60.1520   29.4680   46.1890 C   0  0  0  0  0  0  0  0  0  0  0  0
   60.1720   28.1010   46.4960 C   0  0  0  0  0  0  0  0  0  0  0  0
   59.0500   27.3060   46.2570 C   0  0  0  0  0  0  0  0  0  0  0  0
   57.8900   27.8700   45.7210 C   0  0  0  0  0  0  0  0  0  0  0  0
   57.8380   29.2440   45.4250 C   0  0  0  0  0  0  0  0  0  0  0  0
   56.6010   29.8460   44.8710 C   0  0  0  0  0  0  0  0  0  0  0  0
   55.5280   29.1820   44.8730 O   0  0  0  0  0  0  0  0  0  0  0  0
   56.6340   31.1810   44.3330 N   0  0  0  0  0  0  0  0  0  0  0  0
   57.2810   32.2060   44.8100 C   0  0  0  0  0  0  0  0  0  0  0  0
   58.2030   32.8710   43.9930 C   0  0  0  0  0  0  0  0  0  0  0  0
   58.9030   33.9690   44.4990 C   0  0  0  0  0  0  0  0  0  0  0  0
   58.6760   34.3950   45.8090 C   0  0  0  0  0  0  0  0  0  0  0  0
   57.7490   33.7100   46.5970 C   0  0  0  0  0  0  0  0  0  0  0  0
   57.0790   32.6430   46.0870 N   0  0  0  0  0  0  0  0  0  0  0  0
   58.9740   30.0370   45.6700 C   0  0  0  0  0  0  0  0  0  0  0  0
   63.0719   34.9111   46.7020 H   0  0  0  0  0  0  0  0  0  0  0  0
   64.1375   33.8096   45.7650 H   0  0  0  0  0  0  0  0  0  0  0  0
   62.3594   33.5542   45.7650 H   0  0  0  0  0  0  0  0  0  0  0  0
   64.7359   31.8780   50.2074 H   0  0  0  0  0  0  0  0  0  0  0  0
   62.1920   30.0580   45.9390 H   0  0  0  0  0  0  0  0  0  0  0  0
   61.0781   27.6514   46.9283 H   0  0  0  0  0  0  0  0  0  0  0  0
   59.0794   26.2317   46.4915 H   0  0  0  0  0  0  0  0  0  0  0  0
   57.0119   27.2358   45.5292 H   0  0  0  0  0  0  0  0  0  0  0  0
   58.3749   32.5317   42.9609 H   0  0  0  0  0  0  0  0  0  0  0  0
   59.6317   34.4970   43.8664 H   0  0  0  0  0  0  0  0  0  0  0  0
   59.2209   35.2598   46.2154 H   0  0  0  0  0  0  0  0  0  0  0  0
   57.5608   34.0340   47.6312 H   0  0  0  0  0  0  0  0  0  0  0  0
   58.9411   31.1149   45.4533 H   0  0  0  0  0  0  0  0  0  0  0  0
  1  2  1  0
  2  3  1  0
  3  4  2  0
  4  5  1  0
  5  6  1  0
  6  7  1  0
  7  8  2  0
  7  9  1  0
  9 10  1  0
 10 11  2  0
 11 12  1  0
 12 13  2  0
 13 14  1  0
 14 15  1  0
 15 16  2  0
 15 17  1  0
 17 18  2  3
 18 19  1  0
 19 20  2  0
 20 21  1  0
 21 22  2  0
 22 23  1  0
 14 24  2  0
  6  2  2  0
 24 10  1  0
 23 18  1  0
  1 25  1  0
  1 26  1  0
  1 27  1  0
  4 28  1  0
  9 29  1  0
 11 30  1  0
 12 31  1  0
 13 32  1  0
 19 33  1  0
 20 34  1  0
 21 35  1  0
 22 36  1  0
 24 37  1  0
M  CHG  1  23  -1
M  END
>  <UniqueID>  (62) 
57

>  <SMILES>  (62) 
Cc1ncoc1C(=O)Nc1cccc(C(=O)N=c2cccc[n-]2)c1

>  <Energy>  (62) 
77.3706251173013

>  <Genealogy>  (62) 
Cc1ncoc1C(=O)Nc1cccc(C(=O)N=c2cccc[n-]2)c1 (protonated)
Cc1ncoc1C(=O)Nc1cccc(C(=O)N=c2cccc[n-]2)c1 (3D coordinates assigned)
Cc1ncoc1C(=O)Nc1cccc(C(=O)N=c2cccc[n-]2)c1 (optimized conformer: 77.3706251173013 kcal/mol)

>  <smiles>  (62) 
Cc1ncoc1C(=O)Nc1cccc(C(=O)N=c2cccc[nH]2)c1

>  <score_type>  (62) 
oracle

>  <origin>  (62) 
adg

>  <m_score__min__energy>  (62) 
-9.5500000000000007

>  <m_primary>  (62) 
energy

$$$$
62:0
     RDKit          3D

 51 54  0  0  0  0  0  0  0  0999 V2000
   56.7444   32.2264   52.1443 H   0  0  0  0  0  0  0  0  0  0  0  0
   55.6860   31.9800   52.3150 C   0  0  0  0  0  0  0  0  0  0  0  0
   54.9242   32.7727   52.2798 H   0  0  0  0  0  0  0  0  0  0  0  0
   55.3230   30.7080   52.5670 C   0  0  0  0  0  0  0  0  0  0  0  0
   54.0100   30.2780   52.7990 C   0  0  0  0  0  0  0  0  0  0  0  0
   52.8240   30.8740   52.5610 C   0  0  0  0  0  0  0  0  0  0  0  0
   52.2858   31.2877   53.4266 H   0  0  0  0  0  0  0  0  0  0  0  0
   52.1880   31.0180   51.2400 C   0  0  0  0  0  0  0  0  0  0  0  0
   52.2150   30.0870   50.2680 N   0  0  0  0  0  0  0  0  0  0  0  0
   51.4020   30.6020   49.3210 C   0  0  0  0  0  0  0  0  0  0  0  0
   51.1790   30.0190   48.2280 O   0  0  0  0  0  0  0  0  0  0  0  0
   50.8390   31.7880   49.6400 N   0  0  0  0  0  0  0  0  0  0  0  0
   51.3370   32.0280   50.8640 C   0  0  0  0  0  0  0  0  0  0  0  0
   51.0170   33.1460   51.6230 O   0  0  0  0  0  0  0  0  0  0  0  0
   54.1120   29.0220   53.3520 C   0  0  0  0  0  0  0  0  0  0  0  0
   53.2804   28.3976   53.7106 H   0  0  0  0  0  0  0  0  0  0  0  0
   55.4500   28.6920   53.3730 C   0  0  0  0  0  0  0  0  0  0  0  0
   55.9150   27.3580   53.8790 C   0  0  0  0  0  0  0  0  0  0  0  0
   55.9135   27.3623   54.9790 H   0  0  0  0  0  0  0  0  0  0  0  0
   55.2381   26.5713   53.5145 H   0  0  0  0  0  0  0  0  0  0  0  0
   56.9343   27.1626   53.5145 H   0  0  0  0  0  0  0  0  0  0  0  0
   56.2060   29.6970   52.8370 N   0  0  0  0  0  0  0  0  0  0  0  0
   57.6840   29.7880   52.6810 C   0  0  0  0  0  0  0  0  0  0  0  0
   58.0936   28.8996   53.1840 H   0  0  0  0  0  0  0  0  0  0  0  0
   58.3520   30.9510   53.4580 C   0  0  0  0  0  0  0  0  0  0  0  0
   57.5764   31.6733   53.7525 H   0  0  0  0  0  0  0  0  0  0  0  0
   58.8551   30.5266   54.3394 H   0  0  0  0  0  0  0  0  0  0  0  0
   59.4050   31.6730   52.6140 C   0  0  0  0  0  0  0  0  0  0  0  0
   59.7833   32.5440   53.1692 H   0  0  0  0  0  0  0  0  0  0  0  0
   60.2333   30.9820   52.3984 H   0  0  0  0  0  0  0  0  0  0  0  0
   58.8060   32.1240   51.3460 N   0  0  0  0  0  0  0  0  0  0  0  0
   59.6180   33.1250   50.6190 C   0  0  0  0  0  0  0  0  0  0  0  0
   59.1583   34.1140   50.7626 H   0  0  0  0  0  0  0  0  0  0  0  0
   60.6367   33.0685   51.0301 H   0  0  0  0  0  0  0  0  0  0  0  0
   59.7300   32.8620   49.1270 C   0  0  0  0  0  0  0  0  0  0  0  0
   58.7340   33.3340   48.2510 C   0  0  0  0  0  0  0  0  0  0  0  0
   57.8767   33.8953   48.6510 H   0  0  0  0  0  0  0  0  0  0  0  0
   58.8260   33.0950   46.8780 C   0  0  0  0  0  0  0  0  0  0  0  0
   58.0363   33.4576   46.2036 H   0  0  0  0  0  0  0  0  0  0  0  0
   59.9180   32.3970   46.3600 C   0  0  0  0  0  0  0  0  0  0  0  0
   59.9827   32.2000   45.2797 H   0  0  0  0  0  0  0  0  0  0  0  0
   60.9280   31.9490   47.2130 C   0  0  0  0  0  0  0  0  0  0  0  0
   61.7929   31.4078   46.8018 H   0  0  0  0  0  0  0  0  0  0  0  0
   60.8440   32.1860   48.5890 C   0  0  0  0  0  0  0  0  0  0  0  0
   61.8620   31.7780   49.3870 F   0  0  0  0  0  0  0  0  0  0  0  0
   58.2640   31.0430   50.4860 C   0  0  0  0  0  0  0  0  0  0  0  0
   57.2753   31.3567   50.1199 H   0  0  0  0  0  0  0  0  0  0  0  0
   58.9909   30.8908   49.6746 H   0  0  0  0  0  0  0  0  0  0  0  0
   58.1070   29.6880   51.1980 C   0  0  0  0  0  0  0  0  0  0  0  0
   57.3440   29.1046   50.6618 H   0  0  0  0  0  0  0  0  0  0  0  0
   59.0988   29.2124   51.1872 H   0  0  0  0  0  0  0  0  0  0  0  0
  1  2  1  0
  2  3  1  0
  2  4  2  0
  4  5  1  0
  5  6  2  0
  6  7  1  0
  6  8  1  0
  8  9  1  0
  9 10  1  0
 10 11  2  0
 10 12  1  0
 12 13  1  0
 13 14  1  0
  5 15  1  0
 15 16  1  0
 15 17  2  0
 17 18  1  0
 18 19  1  0
 18 20  1  0
 18 21  1  0
 17 22  1  0
 22 23  1  0
 23 24  1  0
 23 25  1  0
 25 26  1  0
 25 27  1  0
 25 28  1  0
 28 29  1  0
 28 30  1  0
 28 31  1  0
 31 32  1  0
 32 33  1  0
 32 34  1  0
 32 35  1  0
 35 36  2  0
 36 37  1  0
 36 38  1  0
 38 39  1  0
 38 40  2  0
 40 41  1  0
 40 42  1  0
 42 43  1  0
 42 44  2  0
 44 45  1  0
 31 46  1  0
 46 47  1  0
 46 48  1  0
 46 49  1  0
 49 50  1  0
 49 51  1  0
 22  4  1  0
 49 23  1  0
 13  8  2  0
 44 35  1  0
M  CHG  3   9  -1  12  -1  14  -1
M  END
>  <UniqueID>  (63) 
58

>  <SMILES>  (63) 
C=c1/c(=C\c2[n-]c(=O)[n-]c2[O-])cc(C)n1C1CCN(Cc2ccccc2F)CC1

>  <Energy>  (63) 
144.65794877818283

>  <Genealogy>  (63) 
C=c1c(=Cc2[n-]c(=O)[n-]c2[O-])cc(C)n1C1CCN(Cc2ccccc2F)CC1 (protonated)
C=c1/c(=C\c2[n-]c(=O)[n-]c2[O-])cc(C)n1C1CCN(Cc2ccccc2F)CC1 (cis-trans isomerization)
C=c1/c(=C\c2[n-]c(=O)[n-]c2[O-])cc(C)n1C1CCN(Cc2ccccc2F)CC1 (3D coordinates assigned)
C=c1/c(=C\c2[n-]c(=O)[n-]c2[O-])cc(C)n1C1CCN(Cc2ccccc2F)CC1 (nonaromatic ring conformer: 144.65794877818283 kcal/mol)

>  <smiles>  (63) 
C=c1c(=Cc2[nH]c(=O)[nH]c2O)cc(C)n1C1CCN(Cc2ccccc2F)CC1

>  <score_type>  (63) 
oracle

>  <origin>  (63) 
adg

>  <m_score__min__energy>  (63) 
-16.920000000000002

>  <m_primary>  (63) 
energy

$$$$
63:0
     RDKit          3D

 53 56  0  0  0  0  0  0  0  0999 V2000
   56.4780   29.3510   44.1650 C   0  0  0  0  0  0  0  0  0  0  0  0
   57.6420   28.9860   44.7280 C   0  0  0  0  0  0  0  0  0  0  0  0
   58.1510   27.6830   44.8670 C   0  0  0  0  0  0  0  0  0  0  0  0
   57.5840   26.4820   44.6430 C   0  0  0  0  0  0  0  0  0  0  0  0
   57.1680   25.5220   45.6830 C   0  0  0  0  0  0  0  0  0  0  0  0
   55.9170   25.6490   46.3040 C   0  0  0  0  0  0  0  0  0  0  0  0
   55.0740   26.7070   45.9850 O   0  0  0  0  0  0  0  0  0  0  0  0
   55.5250   24.7390   47.2330 N   0  0  0  0  0  0  0  0  0  0  0  0
   56.3220   23.6910   47.5670 C   0  0  0  0  0  0  0  0  0  0  0  0
   55.9400   22.8630   48.4330 O   0  0  0  0  0  0  0  0  0  0  0  0
   57.5270   23.5320   46.9620 N   0  0  0  0  0  0  0  0  0  0  0  0
   57.9640   24.4140   46.0250 C   0  0  0  0  0  0  0  0  0  0  0  0
   59.0810   24.2280   45.4730 O   0  0  0  0  0  0  0  0  0  0  0  0
   59.4510   27.8220   45.3270 C   0  0  0  0  0  0  0  0  0  0  0  0
   59.6720   29.1720   45.5030 C   0  0  0  0  0  0  0  0  0  0  0  0
   60.9500   29.7670   46.0150 C   0  0  0  0  0  0  0  0  0  0  0  0
   58.5800   29.8790   45.1400 N   0  0  0  0  0  0  0  0  0  0  0  0
   58.4560   31.3120   45.1830 C   0  0  0  0  0  0  0  0  0  0  0  0
   57.8800   32.0040   44.1080 C   0  0  0  0  0  0  0  0  0  0  0  0
   57.7550   33.3930   44.1550 C   0  0  0  0  0  0  0  0  0  0  0  0
   58.2080   34.1020   45.2720 C   0  0  0  0  0  0  0  0  0  0  0  0
   58.8020   33.4240   46.3510 C   0  0  0  0  0  0  0  0  0  0  0  0
   59.2770   34.1790   47.5350 C   0  0  0  0  0  0  0  0  0  0  0  0
   59.2810   35.4400   47.4980 O   0  0  0  0  0  0  0  0  0  0  0  0
   59.7250   33.5050   48.7270 N   0  0  0  0  0  0  0  0  0  0  0  0
   61.1530   33.3630   49.0080 C   0  0  0  0  0  0  0  0  0  0  0  0
   61.5670   31.9150   48.7560 C   0  0  0  0  0  0  0  0  0  0  0  0
   60.6700   30.9740   49.4450 N   0  0  0  0  0  0  0  0  0  0  0  0
   61.1210   29.5980   49.6650 C   0  0  0  0  0  0  0  0  0  0  0  0
   59.2980   31.3230   49.7350 C   0  0  0  0  0  0  0  0  0  0  0  0
   58.5090   30.4550   50.1960 O   0  0  0  0  0  0  0  0  0  0  0  0
   58.7990   32.7290   49.5560 C   0  0  0  0  0  0  0  0  0  0  0  0
   58.9100   32.0240   46.3020 C   0  0  0  0  0  0  0  0  0  0  0  0
   56.1978   30.4138   44.1209 H   0  0  0  0  0  0  0  0  0  0  0  0
   55.8052   28.5870   43.7482 H   0  0  0  0  0  0  0  0  0  0  0  0
   57.4168   26.1922   43.5951 H   0  0  0  0  0  0  0  0  0  0  0  0
   60.1693   27.0106   45.5157 H   0  0  0  0  0  0  0  0  0  0  0  0
   60.9415   29.7630   47.1150 H   0  0  0  0  0  0  0  0  0  0  0  0
   61.8020   29.1730   45.6528 H   0  0  0  0  0  0  0  0  0  0  0  0
   61.0438   30.8014   45.6528 H   0  0  0  0  0  0  0  0  0  0  0  0
   57.5259   31.4507   43.2257 H   0  0  0  0  0  0  0  0  0  0  0  0
   57.2990   33.9316   43.3113 H   0  0  0  0  0  0  0  0  0  0  0  0
   58.0990   35.1960   45.3066 H   0  0  0  0  0  0  0  0  0  0  0  0
   61.7269   34.0308   48.3488 H   0  0  0  0  0  0  0  0  0  0  0  0
   61.3542   33.6304   50.0559 H   0  0  0  0  0  0  0  0  0  0  0  0
   61.5330   31.7158   47.6747 H   0  0  0  0  0  0  0  0  0  0  0  0
   62.5854   31.7725   49.1466 H   0  0  0  0  0  0  0  0  0  0  0  0
   61.1854   29.4016   50.7454 H   0  0  0  0  0  0  0  0  0  0  0  0
   60.4047   28.8998   49.2074 H   0  0  0  0  0  0  0  0  0  0  0  0
   62.1116   29.4592   49.2074 H   0  0  0  0  0  0  0  0  0  0  0  0
   57.8131   32.7031   49.0689 H   0  0  0  0  0  0  0  0  0  0  0  0
   58.7237   33.2063   50.5442 H   0  0  0  0  0  0  0  0  0  0  0  0
   59.3548   31.4817   47.1494 H   0  0  0  0  0  0  0  0  0  0  0  0
  1  2  2  0
  2  3  1  0
  3  4  2  3
  4  5  1  0
  5  6  2  0
  6  7  1  0
  6  8  1  0
  8  9  1  0
  9 10  2  0
  9 11  1  0
 11 12  1  0
 12 13  2  0
  3 14  1  0
 14 15  2  0
 15 16  1  0
 15 17  1  0
 17 18  1  0
 18 19  2  0
 19 20  1  0
 20 21  2  0
 21 22  1  0
 22 23  1  0
 23 24  2  0
 23 25  1  0
 25 26  1  0
 26 27  1  0
 27 28  1  0
 28 29  1  0
 28 30  1  0
 30 31  2  0
 30 32  1  0
 22 33  2  0
 17  2  1  0
 33 18  1  0
 12  5  1  0
 32 25  1  0
  1 34  1  0
  1 35  1  0
  4 36  1  0
 14 37  1  0
 16 38  1  0
 16 39  1  0
 16 40  1  0
 19 41  1  0
 20 42  1  0
 21 43  1  0
 26 44  1  0
 26 45  1  0
 27 46  1  0
 27 47  1  0
 29 48  1  0
 29 49  1  0
 29 50  1  0
 32 51  1  0
 32 52  1  0
 33 53  1  0
M  CHG  3   7  -1   8  -1  11  -1
M  END
>  <UniqueID>  (64) 
59

>  <SMILES>  (64) 
C=c1c(=Cc2c([O-])[n-]c(=O)[n-]c2=O)cc(C)n1-c1cccc(C(=O)N2CCN(C)C(=O)C2)c1

>  <Energy>  (64) 
108.80707394246654

>  <Genealogy>  (64) 
C=c1c(=Cc2c([O-])[n-]c(=O)[n-]c2=O)cc(C)n1-c1cccc(C(=O)N2CCN(C)C(=O)C2)c1 (protonated)
C=c1c(=Cc2c([O-])[n-]c(=O)[n-]c2=O)cc(C)n1-c1cccc(C(=O)N2CCN(C)C(=O)C2)c1 (3D coordinates assigned)
C=c1c(=Cc2c([O-])[n-]c(=O)[n-]c2=O)cc(C)n1-c1cccc(C(=O)N2CCN(C)C(=O)C2)c1 (nonaromatic ring conformer: 108.80707394246654 kcal/mol)

>  <smiles>  (64) 
C=c1c(=Cc2c(O)[nH]c(=O)[nH]c2=O)cc(C)n1-c1cccc(C(=O)N2CCN(C)C(=O)C2)c1

>  <score_type>  (64) 
oracle

>  <origin>  (64) 
adg

>  <m_score__min__energy>  (64) 
-17.039999999999999

>  <m_primary>  (64) 
energy

$$$$
64:0
     RDKit          3D

 39 40  0  0  0  0  0  0  0  0999 V2000
   54.1105   23.9745   45.3495 H   0  0  0  0  0  0  0  0  0  0  0  0
   55.1320   23.6540   45.0970 C   0  0  0  0  0  0  0  0  0  0  0  0
   55.3035   22.6620   44.6536 H   0  0  0  0  0  0  0  0  0  0  0  0
   56.1650   24.4700   45.3290 C   0  0  0  0  0  0  0  0  0  0  0  0
   55.9480   25.8590   45.8020 C   0  0  0  0  0  0  0  0  0  0  0  0
   54.7700   26.2680   45.9910 O   0  0  0  0  0  0  0  0  0  0  0  0
   57.0350   26.7440   46.1060 N   0  0  0  0  0  0  0  0  0  0  0  0
   57.1010   28.0010   45.7770 C   0  0  0  0  0  0  0  0  0  0  0  0
   58.4480   29.0110   45.9460 S   0  0  0  0  0  0  0  0  0  0  0  0
   57.6100   30.2850   45.2240 C   0  0  0  0  0  0  0  0  0  0  0  0
   58.1600   31.6600   45.0100 C   0  0  0  0  0  0  0  0  0  0  0  0
   58.7960   31.9326   45.8651 H   0  0  0  0  0  0  0  0  0  0  0  0
   58.7496   31.6666   44.0814 H   0  0  0  0  0  0  0  0  0  0  0  0
   57.0210   32.6810   44.8820 C   0  0  0  0  0  0  0  0  0  0  0  0
   56.6832   32.7012   43.8354 H   0  0  0  0  0  0  0  0  0  0  0  0
   56.2172   32.3676   45.5644 H   0  0  0  0  0  0  0  0  0  0  0  0
   57.4460   34.1030   45.2890 C   0  0  0  0  0  0  0  0  0  0  0  0
   56.8549   34.8206   44.7011 H   0  0  0  0  0  0  0  0  0  0  0  0
   57.2679   34.1871   46.3712 H   0  0  0  0  0  0  0  0  0  0  0  0
   58.9380   34.4080   45.0630 C   0  0  0  0  0  0  0  0  0  0  0  0
   59.3366   33.6992   44.3223 H   0  0  0  0  0  0  0  0  0  0  0  0
   59.0214   35.4457   44.7078 H   0  0  0  0  0  0  0  0  0  0  0  0
   59.7370   34.2870   46.3270 C   0  0  0  0  0  0  0  0  0  0  0  0
   61.3650   33.8590   46.4080 S   0  0  0  0  0  0  0  0  0  0  0  0
   61.4360   33.8770   48.0880 C   0  0  0  0  0  0  0  0  0  0  0  0
   62.6000   33.5830   48.8560 N   0  0  0  0  0  0  0  0  0  0  0  0
   63.3230   34.3200   49.0270 H   0  0  0  0  0  0  0  0  0  0  0  0
   62.7410   32.6270   49.2530 H   0  0  0  0  0  0  0  0  0  0  0  0
   60.1930   34.2000   48.6120 C   0  0  0  0  0  0  0  0  0  0  0  0
   59.9839   34.2693   49.6897 H   0  0  0  0  0  0  0  0  0  0  0  0
   59.2340   34.4280   47.6180 C   0  0  0  0  0  0  0  0  0  0  0  0
   58.1884   34.6920   47.8348 H   0  0  0  0  0  0  0  0  0  0  0  0
   56.3530   29.9180   44.8760 N   0  0  0  0  0  0  0  0  0  0  0  0
   56.0780   28.6510   45.1820 N   0  0  0  0  0  0  0  0  0  0  0  0
   55.1530   28.2150   44.9690 H   0  0  0  0  0  0  0  0  0  0  0  0
   57.5590   24.0200   44.9790 C   0  0  0  0  0  0  0  0  0  0  0  0
   58.1277   23.8364   45.9025 H   0  0  0  0  0  0  0  0  0  0  0  0
   57.5078   23.0927   44.3894 H   0  0  0  0  0  0  0  0  0  0  0  0
   58.0596   24.8022   44.3894 H   0  0  0  0  0  0  0  0  0  0  0  0
  1  2  1  0
  2  3  1  0
  2  4  2  0
  4  5  1  0
  5  6  2  0
  5  7  1  0
  7  8  2  0
  8  9  1  0
  9 10  1  0
 10 11  1  0
 11 12  1  0
 11 13  1  0
 11 14  1  0
 14 15  1  0
 14 16  1  0
 14 17  1  0
 17 18  1  0
 17 19  1  0
 17 20  1  0
 20 21  1  0
 20 22  1  0
 20 23  1  0
 23 24  1  0
 24 25  1  0
 25 26  1  0
 26 27  1  0
 26 28  1  0
 25 29  2  0
 29 30  1  0
 29 31  1  0
 31 32  1  0
 10 33  2  0
 33 34  1  0
 34 35  1  0
  4 36  1  0
 36 37  1  0
 36 38  1  0
 36 39  1  0
 34  8  1  0
 31 23  2  0
M  END
>  <UniqueID>  (65) 
60

>  <SMILES>  (65) 
C=C(C)C(=O)/N=c1/[nH]nc(CCCCc2ccc(N)s2)s1

>  <Energy>  (65) 
96.29168950032935

>  <Genealogy>  (65) 
C=C(C)C(=O)/N=c1/[nH]nc(CCCCc2ccc(N)s2)s1 (cis-trans isomerization)
C=C(C)C(=O)/N=c1/[nH]nc(CCCCc2ccc(N)s2)s1 (3D coordinates assigned)
C=C(C)C(=O)/N=c1/[nH]nc(CCCCc2ccc(N)s2)s1 (optimized conformer: 96.29168950032935 kcal/mol)

>  <smiles>  (65) 
C=C(C)C(=O)N=c1[nH]nc(CCCCc2ccc(N)s2)s1

>  <score_type>  (65) 
oracle

>  <origin>  (65) 
adg

>  <m_score__min__energy>  (65) 
-8.8399999999999999

>  <m_primary>  (65) 
energy

$$$$
65:0
     RDKit          3D

 39 41  0  0  0  0  0  0  0  0999 V2000
   55.1470   28.4220   45.2850 H   0  0  0  0  0  0  0  0  0  0  0  0
   56.1220   28.7920   45.2300 N   0  0  0  0  0  0  0  0  0  0  0  0
   57.1390   28.1550   45.7240 C   0  0  0  0  0  0  0  0  0  0  0  0
   57.1050   26.6780   45.8400 C   0  0  0  0  0  0  0  0  0  0  0  0
   58.2860   25.9370   45.6690 C   0  0  0  0  0  0  0  0  0  0  0  0
   59.2289   26.4609   45.4533 H   0  0  0  0  0  0  0  0  0  0  0  0
   58.2790   24.5330   45.7700 C   0  0  0  0  0  0  0  0  0  0  0  0
   59.5300   23.7590   45.5800 C   0  0  0  0  0  0  0  0  0  0  0  0
   60.6460   24.3260   45.7360 O   0  0  0  0  0  0  0  0  0  0  0  0
   59.4630   22.3470   45.3080 N   0  0  0  0  0  0  0  0  0  0  0  0
   58.4290   21.5520   45.3270 C   0  0  0  0  0  0  0  0  0  0  0  0
   58.0900   20.9690   46.5110 N   0  0  0  0  0  0  0  0  0  0  0  0
   57.0270   20.1320   46.6340 C   0  0  0  0  0  0  0  0  0  0  0  0
   56.7951   19.6785   47.6090 H   0  0  0  0  0  0  0  0  0  0  0  0
   56.2300   19.8470   45.5270 C   0  0  0  0  0  0  0  0  0  0  0  0
   55.3725   19.1642   45.6187 H   0  0  0  0  0  0  0  0  0  0  0  0
   56.5340   20.4390   44.3010 C   0  0  0  0  0  0  0  0  0  0  0  0
   55.9101   20.2287   43.4198 H   0  0  0  0  0  0  0  0  0  0  0  0
   57.6290   21.2980   44.1910 C   0  0  0  0  0  0  0  0  0  0  0  0
   57.8667   21.7730   43.2278 H   0  0  0  0  0  0  0  0  0  0  0  0
   57.0680   23.8770   46.0440 C   0  0  0  0  0  0  0  0  0  0  0  0
   57.0466   22.7799   46.1205 H   0  0  0  0  0  0  0  0  0  0  0  0
   55.8910   24.6070   46.2200 C   0  0  0  0  0  0  0  0  0  0  0  0
   54.9487   24.0817   46.4347 H   0  0  0  0  0  0  0  0  0  0  0  0
   55.9030   26.0010   46.1250 C   0  0  0  0  0  0  0  0  0  0  0  0
   54.7220   26.7050   46.3330 O   0  0  0  0  0  0  0  0  0  0  0  0
   58.3340   28.8710   46.0870 N   0  0  0  0  0  0  0  0  0  0  0  0
   59.2120   28.3250   46.2400 H   0  0  0  0  0  0  0  0  0  0  0  0
   58.4220   30.3030   46.1880 C   0  0  0  0  0  0  0  0  0  0  0  0
   58.0910   31.0930   45.0760 C   0  0  0  0  0  0  0  0  0  0  0  0
   57.7500   30.6132   44.1468 H   0  0  0  0  0  0  0  0  0  0  0  0
   58.1920   32.4860   45.1420 C   0  0  0  0  0  0  0  0  0  0  0  0
   57.9187   33.0986   44.2702 H   0  0  0  0  0  0  0  0  0  0  0  0
   58.6400   33.1010   46.3150 C   0  0  0  0  0  0  0  0  0  0  0  0
   58.7400   34.4520   46.3770 F   0  0  0  0  0  0  0  0  0  0  0  0
   58.9960   32.3210   47.4190 C   0  0  0  0  0  0  0  0  0  0  0  0
   59.3565   32.8045   48.3389 H   0  0  0  0  0  0  0  0  0  0  0  0
   58.8950   30.9280   47.3570 C   0  0  0  0  0  0  0  0  0  0  0  0
   59.1863   30.3182   48.2250 H   0  0  0  0  0  0  0  0  0  0  0  0
  1  2  1  0
  2  3  2  0
  3  4  1  0
  4  5  2  0
  5  6  1  0
  5  7  1  0
  7  8  1  0
  8  9  2  0
  8 10  1  0
 10 11  2  3
 11 12  1  0
 12 13  1  0
 13 14  1  0
 13 15  2  0
 15 16  1  0
 15 17  1  0
 17 18  1  0
 17 19  2  0
 19 20  1  0
  7 21  2  0
 21 22  1  0
 21 23  1  0
 23 24  1  0
 23 25  2  0
 25 26  1  0
  3 27  1  0
 27 28  1  0
 27 29  1  0
 29 30  2  0
 30 31  1  0
 30 32  1  0
 32 33  1  0
 32 34  2  0
 34 35  1  0
 34 36  1  0
 36 37  1  0
 36 38  2  0
 38 39  1  0
 25  4  1  0
 38 29  1  0
 19 11  1  0
M  CHG  2  12  -1  26  -1
M  END
>  <UniqueID>  (66) 
61

>  <SMILES>  (66) 
[H]/N=C(/Nc1ccc(F)cc1)c1cc(C(=O)N=c2cccc[n-]2)ccc1[O-]

>  <Energy>  (66) 
60.988247687339204

>  <Genealogy>  (66) 
N=C(Nc1ccc(F)cc1)c1cc(C(=O)N=c2cccc[n-]2)ccc1[O-] (protonated)
[H]/N=C(/Nc1ccc(F)cc1)c1cc(C(=O)N=c2cccc[n-]2)ccc1[O-] (cis-trans isomerization)
[H]/N=C(/Nc1ccc(F)cc1)c1cc(C(=O)N=c2cccc[n-]2)ccc1[O-] (3D coordinates assigned)
[H]/N=C(/Nc1ccc(F)cc1)c1cc(C(=O)N=c2cccc[n-]2)ccc1[O-] (optimized conformer: 60.988247687339204 kcal/mol)

>  <smiles>  (66) 
N=C(Nc1ccc(F)cc1)c1cc(C(=O)N=c2cccc[nH]2)ccc1O

>  <score_type>  (66) 
oracle

>  <origin>  (66) 
adg

>  <m_score__min__energy>  (66) 
-11.49

>  <m_primary>  (66) 
energy

$$$$
66:0
     RDKit          3D

 66 69  0  0  0  0  0  0  0  0999 V2000
   58.5410   31.5190   42.9450 O   0  0  0  0  0  0  0  0  0  0  0  0
   57.7490   31.4530   43.9230 C   0  0  0  0  0  0  0  0  0  0  0  0
   57.1790   32.6670   44.4320 N   0  0  0  0  0  0  0  0  0  0  0  0
   57.9140   33.9130   44.6350 C   0  0  0  0  0  0  0  0  0  0  0  0
   58.4800   33.9580   46.0280 C   0  0  0  0  0  0  0  0  0  0  0  0
   59.4490   34.9120   46.3700 C   0  0  0  0  0  0  0  0  0  0  0  0
   59.9980   34.9250   47.6560 C   0  0  0  0  0  0  0  0  0  0  0  0
   59.5940   33.9800   48.6030 C   0  0  0  0  0  0  0  0  0  0  0  0
   58.6430   33.0130   48.2620 C   0  0  0  0  0  0  0  0  0  0  0  0
   58.2650   32.0850   49.1750 F   0  0  0  0  0  0  0  0  0  0  0  0
   58.0940   32.9940   46.9740 C   0  0  0  0  0  0  0  0  0  0  0  0
   57.4460   30.1330   44.5190 C   0  0  0  0  0  0  0  0  0  0  0  0
   58.4780   29.2430   44.8400 C   0  0  0  0  0  0  0  0  0  0  0  0
   58.1910   28.0220   45.3560 N   0  0  0  0  0  0  0  0  0  0  0  0
   56.9080   27.6300   45.5640 C   0  0  0  0  0  0  0  0  0  0  0  0
   56.6770   26.4510   46.0540 N   0  0  0  0  0  0  0  0  0  0  0  0
   57.7150   25.5080   46.4650 C   0  0  0  0  0  0  0  0  0  0  0  0
   58.5940   26.1360   47.5520 C   0  0  0  0  0  0  0  0  0  0  0  0
   60.0440   26.3820   47.1090 C   0  0  0  0  0  0  0  0  0  0  0  0
   60.4670   27.7160   47.4130 O   0  0  0  0  0  0  0  0  0  0  0  0
   60.6840   28.2570   48.6940 C   0  0  0  0  0  0  0  0  0  0  0  0
   60.8270   27.4690   49.8540 C   0  0  0  0  0  0  0  0  0  0  0  0
   61.0640   28.0740   51.0910 C   0  0  0  0  0  0  0  0  0  0  0  0
   61.1530   29.4620   51.1880 C   0  0  0  0  0  0  0  0  0  0  0  0
   60.9930   30.2610   50.0490 C   0  0  0  0  0  0  0  0  0  0  0  0
   61.0870   31.7670   50.1430 C   0  0  0  0  0  0  0  0  0  0  0  0
   62.4990   32.2180   50.2640 N   0  0  0  0  0  0  0  0  0  0  0  0
   62.6340   33.7040   50.1270 C   0  0  0  0  0  0  0  0  0  0  0  0
   63.2930   34.1630   48.8100 C   0  0  0  0  0  0  0  0  0  0  0  0
   62.8150   33.3080   47.6370 C   0  0  0  0  0  0  0  0  0  0  0  0
   63.1110   31.8160   47.8590 C   0  0  0  0  0  0  0  0  0  0  0  0
   63.3820   31.4740   49.3360 C   0  0  0  0  0  0  0  0  0  0  0  0
   60.7660   29.6500   48.8050 C   0  0  0  0  0  0  0  0  0  0  0  0
   55.8870   28.4740   45.2520 N   0  0  0  0  0  0  0  0  0  0  0  0
   56.1240   29.7070   44.7360 C   0  0  0  0  0  0  0  0  0  0  0  0
   55.1510   30.4620   44.4690 O   0  0  0  0  0  0  0  0  0  0  0  0
   58.7357   33.9736   43.9062 H   0  0  0  0  0  0  0  0  0  0  0  0
   57.2284   34.7621   44.4973 H   0  0  0  0  0  0  0  0  0  0  0  0
   59.7780   35.6516   45.6252 H   0  0  0  0  0  0  0  0  0  0  0  0
   60.7504   35.6816   47.9231 H   0  0  0  0  0  0  0  0  0  0  0  0
   60.0236   33.9968   49.6155 H   0  0  0  0  0  0  0  0  0  0  0  0
   57.3587   32.2223   46.7023 H   0  0  0  0  0  0  0  0  0  0  0  0
   59.5253   29.5351   44.6731 H   0  0  0  0  0  0  0  0  0  0  0  0
   57.2430   24.5963   46.8600 H   0  0  0  0  0  0  0  0  0  0  0  0
   58.3402   25.2580   45.5952 H   0  0  0  0  0  0  0  0  0  0  0  0
   58.1514   27.1003   47.8422 H   0  0  0  0  0  0  0  0  0  0  0  0
   58.6304   25.4219   48.3879 H   0  0  0  0  0  0  0  0  0  0  0  0
   60.7023   25.6710   47.6297 H   0  0  0  0  0  0  0  0  0  0  0  0
   60.1002   26.2422   46.0194 H   0  0  0  0  0  0  0  0  0  0  0  0
   60.7517   26.3737   49.7851 H   0  0  0  0  0  0  0  0  0  0  0  0
   61.1808   27.4530   51.9914 H   0  0  0  0  0  0  0  0  0  0  0  0
   61.3497   29.9314   52.1632 H   0  0  0  0  0  0  0  0  0  0  0  0
   60.6466   32.2099   49.2376 H   0  0  0  0  0  0  0  0  0  0  0  0
   60.5426   32.0915   51.0420 H   0  0  0  0  0  0  0  0  0  0  0  0
   62.8350   31.9640   51.2240 H   0  0  0  0  0  0  0  0  0  0  0  0
   61.6290   34.1477   50.1822 H   0  0  0  0  0  0  0  0  0  0  0  0
   63.2937   34.0367   50.9419 H   0  0  0  0  0  0  0  0  0  0  0  0
   63.0285   35.2140   48.6216 H   0  0  0  0  0  0  0  0  0  0  0  0
   64.3834   34.0536   48.9046 H   0  0  0  0  0  0  0  0  0  0  0  0
   61.7296   33.4417   47.5182 H   0  0  0  0  0  0  0  0  0  0  0  0
   63.3549   33.6328   46.7353 H   0  0  0  0  0  0  0  0  0  0  0  0
   62.2447   31.2311   47.5162 H   0  0  0  0  0  0  0  0  0  0  0  0
   64.0201   31.5708   47.2904 H   0  0  0  0  0  0  0  0  0  0  0  0
   63.2199   30.3961   49.4835 H   0  0  0  0  0  0  0  0  0  0  0  0
   64.4196   31.7625   49.5600 H   0  0  0  0  0  0  0  0  0  0  0  0
   60.6512   30.2740   47.9064 H   0  0  0  0  0  0  0  0  0  0  0  0
  1  2  2  0
  2  3  1  0
  3  4  1  0
  4  5  1  0
  5  6  2  0
  6  7  1  0
  7  8  2  0
  8  9  1  0
  9 10  1  0
  9 11  2  0
  2 12  1  0
 12 13  2  0
 13 14  1  0
 14 15  1  0
 15 16  2  3
 16 17  1  0
 17 18  1  0
 18 19  1  0
 19 20  1  0
 20 21  1  0
 21 22  2  0
 22 23  1  0
 23 24  2  0
 24 25  1  0
 25 26  1  0
 26 27  1  0
 27 28  1  0
 28 29  1  0
 29 30  1  0
 30 31  1  0
 31 32  1  0
 25 33  2  0
 15 34  1  0
 34 35  1  0
 35 36  2  0
 11  5  1  0
 35 12  1  0
 33 21  1  0
 32 27  1  0
  4 37  1  0
  4 38  1  0
  6 39  1  0
  7 40  1  0
  8 41  1  0
 11 42  1  0
 13 43  1  0
 17 44  1  0
 17 45  1  0
 18 46  1  0
 18 47  1  0
 19 48  1  0
 19 49  1  0
 22 50  1  0
 23 51  1  0
 24 52  1  0
 26 53  1  0
 26 54  1  0
 27 55  1  0
 28 56  1  0
 28 57  1  0
 29 58  1  0
 29 59  1  0
 30 60  1  0
 30 61  1  0
 31 62  1  0
 31 63  1  0
 32 64  1  0
 32 65  1  0
 33 66  1  0
M  CHG  4   3  -1  14  -1  27   1  34  -1
M  END
>  <UniqueID>  (67) 
62

>  <SMILES>  (67) 
O=C([N-]Cc1cccc(F)c1)c1c[n-]c(=NCCCOc2cccc(C[NH+]3CCCCC3)c2)[n-]c1=O

>  <Energy>  (67) 
77.0917956916033

>  <Genealogy>  (67) 
O=C([N-]Cc1cccc(F)c1)c1c[n-]c(=NCCCOc2cccc(C[NH+]3CCCCC3)c2)[n-]c1=O (protonated)
O=C([N-]Cc1cccc(F)c1)c1c[n-]c(=NCCCOc2cccc(C[NH+]3CCCCC3)c2)[n-]c1=O (3D coordinates assigned)
O=C([N-]Cc1cccc(F)c1)c1c[n-]c(=NCCCOc2cccc(C[NH+]3CCCCC3)c2)[n-]c1=O (nonaromatic ring conformer: 77.0917956916033 kcal/mol)

>  <smiles>  (67) 
O=C(NCc1cccc(F)c1)c1c[nH]c(=NCCCOc2cccc(CN3CCCCC3)c2)[nH]c1=O

>  <score_type>  (67) 
oracle

>  <origin>  (67) 
adg

>  <m_score__min__energy>  (67) 
-12.029999999999999

>  <m_primary>  (67) 
energy

$$$$
67:0
     RDKit          3D

 45 47  0  0  0  0  0  0  0  0999 V2000
   57.8300   24.6774   44.0199 H   0  0  0  0  0  0  0  0  0  0  0  0
   58.0980   25.5540   44.6280 C   0  0  0  0  0  0  0  0  0  0  0  0
   57.6340   26.8220   44.2600 C   0  0  0  0  0  0  0  0  0  0  0  0
   56.9996   26.9336   43.3683 H   0  0  0  0  0  0  0  0  0  0  0  0
   57.9720   27.9520   45.0200 C   0  0  0  0  0  0  0  0  0  0  0  0
   57.5350   29.2600   44.6150 N   0  0  0  0  0  0  0  0  0  0  0  0
   58.3190   30.2600   44.1610 C   0  0  0  0  0  0  0  0  0  0  0  0
   59.4136   30.2132   44.0628 H   0  0  0  0  0  0  0  0  0  0  0  0
   57.5350   31.3530   43.8380 C   0  0  0  0  0  0  0  0  0  0  0  0
   58.0110   32.6550   43.3300 C   0  0  0  0  0  0  0  0  0  0  0  0
   58.5220   32.7240   42.1810 O   0  0  0  0  0  0  0  0  0  0  0  0
   57.9700   33.8310   44.1490 N   0  0  0  0  0  0  0  0  0  0  0  0
   58.6130   33.9780   45.2700 C   0  0  0  0  0  0  0  0  0  0  0  0
   59.5770   34.9040   45.4340 N   0  0  0  0  0  0  0  0  0  0  0  0
   60.1220   34.8810   46.6500 N   0  0  0  0  0  0  0  0  0  0  0  0
   59.5810   33.9440   47.4580 C   0  0  0  0  0  0  0  0  0  0  0  0
   60.1420   33.6210   49.1290 S   0  0  0  0  0  0  0  0  0  0  0  0
   61.8910   34.0390   48.7870 C   0  0  0  0  0  0  0  0  0  0  0  0
   62.4491   34.0551   49.7347 H   0  0  0  0  0  0  0  0  0  0  0  0
   61.9276   35.0256   48.3020 H   0  0  0  0  0  0  0  0  0  0  0  0
   62.5130   33.0320   47.8690 C   0  0  0  0  0  0  0  0  0  0  0  0
   63.2880   33.4160   46.9500 O   0  0  0  0  0  0  0  0  0  0  0  0
   62.1930   31.6440   48.0180 N   0  0  0  0  0  0  0  0  0  0  0  0
   61.3040   30.9140   47.1190 C   0  0  0  0  0  0  0  0  0  0  0  0
   61.8676   30.0984   46.6423 H   0  0  0  0  0  0  0  0  0  0  0  0
   60.9213   31.6164   46.3639 H   0  0  0  0  0  0  0  0  0  0  0  0
   60.1160   30.3230   47.8720 C   0  0  0  0  0  0  0  0  0  0  0  0
   60.2888   30.4090   48.9549 H   0  0  0  0  0  0  0  0  0  0  0  0
   59.2013   30.8711   47.6020 H   0  0  0  0  0  0  0  0  0  0  0  0
   60.0014   29.2628   47.6020 H   0  0  0  0  0  0  0  0  0  0  0  0
   58.3590   33.0890   46.6850 S   0  0  0  0  0  0  0  0  0  0  0  0
   56.2210   31.0110   44.1110 C   0  0  0  0  0  0  0  0  0  0  0  0
   55.3288   31.6416   43.9831 H   0  0  0  0  0  0  0  0  0  0  0  0
   56.2660   29.7160   44.5760 C   0  0  0  0  0  0  0  0  0  0  0  0
   55.1510   28.9680   44.9310 O   0  0  0  0  0  0  0  0  0  0  0  0
   58.7620   27.7880   46.1700 C   0  0  0  0  0  0  0  0  0  0  0  0
   59.0163   28.6626   46.7868 H   0  0  0  0  0  0  0  0  0  0  0  0
   59.2280   26.5200   46.5370 C   0  0  0  0  0  0  0  0  0  0  0  0
   59.8534   26.4051   47.4346 H   0  0  0  0  0  0  0  0  0  0  0  0
   58.9000   25.3920   45.7630 C   0  0  0  0  0  0  0  0  0  0  0  0
   59.3430   24.1010   46.0910 O   0  0  0  0  0  0  0  0  0  0  0  0
   59.1200   22.9480   45.2890 C   0  0  0  0  0  0  0  0  0  0  0  0
   58.9514   22.0765   45.9387 H   0  0  0  0  0  0  0  0  0  0  0  0
   58.2362   23.1084   44.6540 H   0  0  0  0  0  0  0  0  0  0  0  0
   59.9998   22.7673   44.6540 H   0  0  0  0  0  0  0  0  0  0  0  0
  1  2  1  0
  2  3  2  0
  3  4  1  0
  3  5  1  0
  5  6  1  0
  6  7  1  0
  7  8  1  0
  7  9  2  0
  9 10  1  0
 10 11  2  0
 10 12  1  0
 12 13  2  0
 13 14  1  0
 14 15  1  0
 15 16  2  0
 16 17  1  0
 17 18  1  0
 18 19  1  0
 18 20  1  0
 18 21  1  0
 21 22  2  0
 21 23  1  0
 23 24  1  0
 24 25  1  0
 24 26  1  0
 24 27  1  0
 27 28  1  0
 27 29  1  0
 27 30  1  0
 16 31  1  0
  9 32  1  0
 32 33  1  0
 32 34  2  0
 34 35  1  0
  5 36  2  0
 36 37  1  0
 36 38  1  0
 38 39  1  0
 38 40  2  0
 40 41  1  0
 41 42  1  0
 42 43  1  0
 42 44  1  0
 42 45  1  0
 40  2  1  0
 34  6  1  0
 31 13  1  0
M  CHG  3  14  -1  23  -1  35  -1
M  END
>  <UniqueID>  (68) 
63

>  <SMILES>  (68) 
CC[N-]C(=O)CSc1n[n-]/c(=N/C(=O)c2cc([O-])n(-c3ccc(OC)cc3)c2)s1

>  <Energy>  (68) 
108.43989492400202

>  <Genealogy>  (68) 
CC[N-]C(=O)CSc1n[n-]c(=NC(=O)c2cc([O-])n(-c3ccc(OC)cc3)c2)s1 (protonated)
CC[N-]C(=O)CSc1n[n-]/c(=N/C(=O)c2cc([O-])n(-c3ccc(OC)cc3)c2)s1 (cis-trans isomerization)
CC[N-]C(=O)CSc1n[n-]/c(=N/C(=O)c2cc([O-])n(-c3ccc(OC)cc3)c2)s1 (3D coordinates assigned)
CC[N-]C(=O)CSc1n[n-]/c(=N/C(=O)c2cc([O-])n(-c3ccc(OC)cc3)c2)s1 (optimized conformer: 108.43989492400202 kcal/mol)

>  <smiles>  (68) 
CCNC(=O)CSc1n[nH]c(=NC(=O)c2cc(O)n(-c3ccc(OC)cc3)c2)s1

>  <score_type>  (68) 
oracle

>  <origin>  (68) 
adg

>  <m_score__min__energy>  (68) 
-13.17

>  <m_primary>  (68) 
energy

$$$$
68:0
     RDKit          3D

 47 49  0  0  0  0  0  0  0  0999 V2000
   58.1380   27.6010   44.7190 O   0  0  0  0  0  0  0  0  0  0  0  0
   57.0290   27.7610   45.2950 C   0  0  0  0  0  0  0  0  0  0  0  0
   56.5490   26.7380   46.2930 C   0  0  0  0  0  0  0  0  0  0  0  0
   55.1830   26.3130   45.9950 N   0  0  0  0  0  0  0  0  0  0  0  0
   54.8120   24.9860   45.6040 C   0  0  0  0  0  0  0  0  0  0  0  0
   53.5930   24.7080   45.4600 O   0  0  0  0  0  0  0  0  0  0  0  0
   55.8200   23.9370   45.3790 C   0  0  0  0  0  0  0  0  0  0  0  0
   55.7100   22.7280   46.0830 C   0  0  0  0  0  0  0  0  0  0  0  0
   56.6470   21.7110   45.8870 C   0  0  0  0  0  0  0  0  0  0  0  0
   57.6910   21.8880   44.9780 C   0  0  0  0  0  0  0  0  0  0  0  0
   57.8050   23.0840   44.2650 C   0  0  0  0  0  0  0  0  0  0  0  0
   56.8760   24.1120   44.4550 C   0  0  0  0  0  0  0  0  0  0  0  0
   57.0170   25.2840   43.7110 O   0  0  0  0  0  0  0  0  0  0  0  0
   56.3320   28.9980   45.1050 N   0  0  0  0  0  0  0  0  0  0  0  0
   56.8510   30.1490   44.4300 C   0  0  0  0  0  0  0  0  0  0  0  0
   56.7440   30.2320   43.0370 C   0  0  0  0  0  0  0  0  0  0  0  0
   57.2260   31.3560   42.3600 C   0  0  0  0  0  0  0  0  0  0  0  0
   57.7900   32.4160   43.0750 C   0  0  0  0  0  0  0  0  0  0  0  0
   57.8580   32.3650   44.4740 C   0  0  0  0  0  0  0  0  0  0  0  0
   58.4260   33.5010   45.2190 C   0  0  0  0  0  0  0  0  0  0  0  0
   57.9300   34.6450   45.0280 O   0  0  0  0  0  0  0  0  0  0  0  0
   59.4880   33.3230   46.1860 N   0  0  0  0  0  0  0  0  0  0  0  0
   59.9560   31.9650   46.5090 C   0  0  0  0  0  0  0  0  0  0  0  0
   61.1970   31.9750   47.4060 C   0  0  0  0  0  0  0  0  0  0  0  0
   61.0570   32.9150   48.4460 O   0  0  0  0  0  0  0  0  0  0  0  0
   61.0850   34.2120   47.8930 C   0  0  0  0  0  0  0  0  0  0  0  0
   59.8400   34.4720   47.0390 C   0  0  0  0  0  0  0  0  0  0  0  0
   57.3890   31.2280   45.1500 C   0  0  0  0  0  0  0  0  0  0  0  0
   57.2136   25.8622   46.2576 H   0  0  0  0  0  0  0  0  0  0  0  0
   56.5627   27.1934   47.2942 H   0  0  0  0  0  0  0  0  0  0  0  0
   54.8822   22.5807   46.7923 H   0  0  0  0  0  0  0  0  0  0  0  0
   56.5620   20.7696   46.4497 H   0  0  0  0  0  0  0  0  0  0  0  0
   58.4257   21.0842   44.8226 H   0  0  0  0  0  0  0  0  0  0  0  0
   58.6302   23.2179   43.5501 H   0  0  0  0  0  0  0  0  0  0  0  0
   56.6450   26.1750   44.0160 H   0  0  0  0  0  0  0  0  0  0  0  0
   56.2790   29.4100   42.4730 H   0  0  0  0  0  0  0  0  0  0  0  0
   57.1613   31.4062   41.2631 H   0  0  0  0  0  0  0  0  0  0  0  0
   58.1816   33.2927   42.5384 H   0  0  0  0  0  0  0  0  0  0  0  0
   59.1490   31.4270   47.0279 H   0  0  0  0  0  0  0  0  0  0  0  0
   60.2275   31.4697   45.5651 H   0  0  0  0  0  0  0  0  0  0  0  0
   61.3352   30.9742   47.8411 H   0  0  0  0  0  0  0  0  0  0  0  0
   62.0696   32.2522   46.7963 H   0  0  0  0  0  0  0  0  0  0  0  0
   61.1226   34.9498   48.7080 H   0  0  0  0  0  0  0  0  0  0  0  0
   61.9744   34.3003   47.2518 H   0  0  0  0  0  0  0  0  0  0  0  0
   58.9931   34.6873   47.7072 H   0  0  0  0  0  0  0  0  0  0  0  0
   60.0613   35.3226   46.3776 H   0  0  0  0  0  0  0  0  0  0  0  0
   57.4430   31.1819   46.2477 H   0  0  0  0  0  0  0  0  0  0  0  0
  1  2  2  0
  2  3  1  0
  3  4  1  0
  4  5  1  0
  5  6  2  0
  5  7  1  0
  7  8  2  0
  8  9  1  0
  9 10  2  0
 10 11  1  0
 11 12  2  0
 12 13  1  0
  2 14  1  0
 14 15  1  0
 15 16  2  0
 16 17  1  0
 17 18  2  0
 18 19  1  0
 19 20  1  0
 20 21  2  0
 20 22  1  0
 22 23  1  0
 23 24  1  0
 24 25  1  0
 25 26  1  0
 26 27  1  0
 19 28  2  0
 12  7  1  0
 28 15  1  0
 27 22  1  0
  3 29  1  0
  3 30  1  0
  8 31  1  0
  9 32  1  0
 10 33  1  0
 11 34  1  0
 13 35  1  0
 16 36  1  0
 17 37  1  0
 18 38  1  0
 23 39  1  0
 23 40  1  0
 24 41  1  0
 24 42  1  0
 26 43  1  0
 26 44  1  0
 27 45  1  0
 27 46  1  0
 28 47  1  0
M  CHG  2   4  -1  14  -1
M  END
>  <UniqueID>  (69) 
64

>  <SMILES>  (69) 
O=C(C[N-]C(=O)c1ccccc1O)[N-]c1cccc(C(=O)N2CCOCC2)c1

>  <Energy>  (69) 
63.966479065817396

>  <Genealogy>  (69) 
O=C(C[N-]C(=O)c1ccccc1O)[N-]c1cccc(C(=O)N2CCOCC2)c1 (protonated)
O=C(C[N-]C(=O)c1ccccc1O)[N-]c1cccc(C(=O)N2CCOCC2)c1 (3D coordinates assigned)
O=C(C[N-]C(=O)c1ccccc1O)[N-]c1cccc(C(=O)N2CCOCC2)c1 (nonaromatic ring conformer: 63.966479065817396 kcal/mol)

>  <smiles>  (69) 
O=C(CNC(=O)c1ccccc1O)Nc1cccc(C(=O)N2CCOCC2)c1

>  <score_type>  (69) 
oracle

>  <origin>  (69) 
adg

>  <m_score__min__energy>  (69) 
-12.9

>  <m_primary>  (69) 
energy

$$$$
69:0
     RDKit          3D

 48 50  0  0  0  0  0  0  0  0999 V2000
   57.8515   25.1373   46.4637 H   0  0  0  0  0  0  0  0  0  0  0  0
   57.8630   26.1910   46.1480 C   0  0  0  0  0  0  0  0  0  0  0  0
   59.0610   26.9090   46.1650 C   0  0  0  0  0  0  0  0  0  0  0  0
   59.9925   26.4149   46.4785 H   0  0  0  0  0  0  0  0  0  0  0  0
   59.0790   28.2630   45.7820 C   0  0  0  0  0  0  0  0  0  0  0  0
   60.2950   29.0290   45.7480 N   0  0  0  0  0  0  0  0  0  0  0  0
   60.5310   30.1450   46.3740 C   0  0  0  0  0  0  0  0  0  0  0  0
   59.5470   31.0930   46.4280 N   0  0  0  0  0  0  0  0  0  0  0  0
   59.7960   32.2420   47.1030 C   0  0  0  0  0  0  0  0  0  0  0  0
   60.9800   32.4780   47.7250 C   0  0  0  0  0  0  0  0  0  0  0  0
   61.9820   31.5190   47.6950 C   0  0  0  0  0  0  0  0  0  0  0  0
   62.9444   31.6841   48.2015 H   0  0  0  0  0  0  0  0  0  0  0  0
   61.7300   30.3630   47.0140 N   0  0  0  0  0  0  0  0  0  0  0  0
   60.9430   33.6880   48.3160 N   0  0  0  0  0  0  0  0  0  0  0  0
   61.9590   34.3140   49.1620 C   0  0  0  0  0  0  0  0  0  0  0  0
   61.7377   35.3869   49.2615 H   0  0  0  0  0  0  0  0  0  0  0  0
   62.9466   34.1746   48.6981 H   0  0  0  0  0  0  0  0  0  0  0  0
   61.9650   33.6720   50.5430 C   0  0  0  0  0  0  0  0  0  0  0  0
   61.9577   34.4578   51.3127 H   0  0  0  0  0  0  0  0  0  0  0  0
   61.0727   33.0388   50.6569 H   0  0  0  0  0  0  0  0  0  0  0  0
   62.8689   33.0556   50.6569 H   0  0  0  0  0  0  0  0  0  0  0  0
   59.6940   34.1470   48.0370 C   0  0  0  0  0  0  0  0  0  0  0  0
   59.2600   35.2620   48.4360 O   0  0  0  0  0  0  0  0  0  0  0  0
   58.9580   33.2780   47.2940 N   0  0  0  0  0  0  0  0  0  0  0  0
   57.5970   33.4500   46.7820 C   0  0  0  0  0  0  0  0  0  0  0  0
   56.8916   32.9434   47.4571 H   0  0  0  0  0  0  0  0  0  0  0  0
   57.3745   34.5260   46.7306 H   0  0  0  0  0  0  0  0  0  0  0  0
   57.4640   32.8650   45.4010 C   0  0  0  0  0  0  0  0  0  0  0  0
   56.5850   31.9800   45.2110 O   0  0  0  0  0  0  0  0  0  0  0  0
   58.2910   33.2980   44.2980 N   0  0  0  0  0  0  0  0  0  0  0  0
   59.3110   34.3380   44.4770 C   0  0  0  0  0  0  0  0  0  0  0  0
   59.4773   34.5075   45.5511 H   0  0  0  0  0  0  0  0  0  0  0  0
   60.2513   34.0141   44.0070 H   0  0  0  0  0  0  0  0  0  0  0  0
   58.9689   35.2719   44.0070 H   0  0  0  0  0  0  0  0  0  0  0  0
   58.0970   32.6820   42.9810 C   0  0  0  0  0  0  0  0  0  0  0  0
   57.7688   31.6399   43.1084 H   0  0  0  0  0  0  0  0  0  0  0  0
   57.3317   33.2419   42.4235 H   0  0  0  0  0  0  0  0  0  0  0  0
   59.0450   32.7023   42.4235 H   0  0  0  0  0  0  0  0  0  0  0  0
   57.8950   28.8620   45.3340 C   0  0  0  0  0  0  0  0  0  0  0  0
   57.9122   29.9074   44.9920 H   0  0  0  0  0  0  0  0  0  0  0  0
   56.6900   28.1500   45.3150 C   0  0  0  0  0  0  0  0  0  0  0  0
   55.5320   28.8090   44.8750 O   0  0  0  0  0  0  0  0  0  0  0  0
   55.4900   29.7110   43.7730 C   0  0  0  0  0  0  0  0  0  0  0  0
   55.4419   30.7445   44.1467 H   0  0  0  0  0  0  0  0  0  0  0  0
   56.3950   29.5843   43.1607 H   0  0  0  0  0  0  0  0  0  0  0  0
   54.6007   29.5007   43.1607 H   0  0  0  0  0  0  0  0  0  0  0  0
   56.6800   26.8050   45.7320 C   0  0  0  0  0  0  0  0  0  0  0  0
   55.7381   26.2368   45.7300 H   0  0  0  0  0  0  0  0  0  0  0  0
  1  2  1  0
  2  3  2  0
  3  4  1  0
  3  5  1  0
  5  6  1  0
  6  7  2  0
  7  8  1  0
  8  9  2  0
  9 10  1  0
 10 11  2  0
 11 12  1  0
 11 13  1  0
 10 14  1  0
 14 15  1  0
 15 16  1  0
 15 17  1  0
 15 18  1  0
 18 19  1  0
 18 20  1  0
 18 21  1  0
 14 22  1  0
 22 23  2  0
 22 24  1  0
 24 25  1  0
 25 26  1  0
 25 27  1  0
 25 28  1  0
 28 29  2  0
 28 30  1  0
 30 31  1  0
 31 32  1  0
 31 33  1  0
 31 34  1  0
 30 35  1  0
 35 36  1  0
 35 37  1  0
 35 38  1  0
  5 39  2  0
 39 40  1  0
 39 41  1  0
 41 42  1  0
 42 43  1  0
 43 44  1  0
 43 45  1  0
 43 46  1  0
 41 47  2  0
 47 48  1  0
 47  2  1  0
 13  7  1  0
 24  9  1  0
M  CHG  1  13  -1
M  END
>  <UniqueID>  (70) 
65

>  <SMILES>  (70) 
CCn1c(=O)n(CC(=O)N(C)C)c2n/c(=N/c3cccc(OC)c3)[n-]cc21

>  <Energy>  (70) 
92.92378902772002

>  <Genealogy>  (70) 
CCn1c(=O)n(CC(=O)N(C)C)c2nc(=Nc3cccc(OC)c3)[n-]cc21 (protonated)
CCn1c(=O)n(CC(=O)N(C)C)c2n/c(=N/c3cccc(OC)c3)[n-]cc21 (cis-trans isomerization)
CCn1c(=O)n(CC(=O)N(C)C)c2n/c(=N/c3cccc(OC)c3)[n-]cc21 (3D coordinates assigned)
CCn1c(=O)n(CC(=O)N(C)C)c2n/c(=N/c3cccc(OC)c3)[n-]cc21 (optimized conformer: 92.92378902772002 kcal/mol)

>  <smiles>  (70) 
CCn1c(=O)n(CC(=O)N(C)C)c2nc(=Nc3cccc(OC)c3)[nH]cc21

>  <score_type>  (70) 
oracle

>  <origin>  (70) 
adg

>  <m_score__min__energy>  (70) 
-8.3100000000000005

>  <m_primary>  (70) 
energy

$$$$
70:0
     RDKit          3D

 46 48  0  0  0  0  0  0  0  0999 V2000
   57.0240   28.1560   44.3130 N   0  0  0  0  0  0  0  0  0  0  0  0
   56.3130   29.3910   44.4440 C   0  0  0  0  0  0  0  0  0  0  0  0
   55.1410   29.3780   44.9090 O   0  0  0  0  0  0  0  0  0  0  0  0
   56.9370   30.6710   44.0380 C   0  0  0  0  0  0  0  0  0  0  0  0
   57.3900   30.8710   42.7240 C   0  0  0  0  0  0  0  0  0  0  0  0
   57.9810   32.0880   42.3790 C   0  0  0  0  0  0  0  0  0  0  0  0
   58.1160   33.0950   43.3360 C   0  0  0  0  0  0  0  0  0  0  0  0
   57.6450   32.8750   44.6430 C   0  0  0  0  0  0  0  0  0  0  0  0
   57.7950   33.9170   45.7350 C   0  0  0  0  0  0  0  0  0  0  0  0
   59.1910   34.5970   45.7100 C   0  0  0  0  0  0  0  0  0  0  0  0
   59.6940   34.9380   47.1120 C   0  0  0  0  0  0  0  0  0  0  0  0
   59.7320   33.7160   47.9290 N   0  0  0  0  0  0  0  0  0  0  0  0
   60.8610   33.4140   48.7700 C   0  0  0  0  0  0  0  0  0  0  0  0
   61.8140   34.2360   48.8820 O   0  0  0  0  0  0  0  0  0  0  0  0
   60.9000   32.2020   49.4670 O   0  0  0  0  0  0  0  0  0  0  0  0
   61.6220   31.0640   49.0040 C   0  0  0  0  0  0  0  0  0  0  0  0
   60.7390   30.2580   48.0960 C   0  0  0  0  0  0  0  0  0  0  0  0
   59.8040   29.3580   48.6320 C   0  0  0  0  0  0  0  0  0  0  0  0
   58.9540   28.6400   47.7850 C   0  0  0  0  0  0  0  0  0  0  0  0
   59.0220   28.8260   46.4010 C   0  0  0  0  0  0  0  0  0  0  0  0
   59.9400   29.7340   45.8620 C   0  0  0  0  0  0  0  0  0  0  0  0
   60.7920   30.4520   46.7050 C   0  0  0  0  0  0  0  0  0  0  0  0
   58.5900   32.7870   47.9150 C   0  0  0  0  0  0  0  0  0  0  0  0
   57.4000   33.3470   47.1220 C   0  0  0  0  0  0  0  0  0  0  0  0
   57.0810   31.6730   44.9520 N   0  0  0  0  0  0  0  0  0  0  0  0
   57.9970   28.1250   43.9340 H   0  0  0  0  0  0  0  0  0  0  0  0
   56.5700   27.2610   44.5970 H   0  0  0  0  0  0  0  0  0  0  0  0
   57.2801   30.0753   41.9725 H   0  0  0  0  0  0  0  0  0  0  0  0
   58.3404   32.2533   41.3526 H   0  0  0  0  0  0  0  0  0  0  0  0
   58.5869   34.0529   43.0702 H   0  0  0  0  0  0  0  0  0  0  0  0
   57.0795   34.7262   45.5271 H   0  0  0  0  0  0  0  0  0  0  0  0
   59.9090   33.9138   45.2328 H   0  0  0  0  0  0  0  0  0  0  0  0
   59.0976   35.5377   45.1475 H   0  0  0  0  0  0  0  0  0  0  0  0
   60.7051   35.3660   47.0449 H   0  0  0  0  0  0  0  0  0  0  0  0
   59.0167   35.6695   47.5771 H   0  0  0  0  0  0  0  0  0  0  0  0
   62.5147   31.3936   48.4523 H   0  0  0  0  0  0  0  0  0  0  0  0
   61.9327   30.4484   49.8610 H   0  0  0  0  0  0  0  0  0  0  0  0
   59.7400   29.2174   49.7211 H   0  0  0  0  0  0  0  0  0  0  0  0
   58.2306   27.9276   48.2084 H   0  0  0  0  0  0  0  0  0  0  0  0
   58.3541   28.2587   45.7361 H   0  0  0  0  0  0  0  0  0  0  0  0
   59.9910   29.8827   44.7733 H   0  0  0  0  0  0  0  0  0  0  0  0
   61.5066   31.1714   46.2786 H   0  0  0  0  0  0  0  0  0  0  0  0
   58.9087   31.8400   47.4551 H   0  0  0  0  0  0  0  0  0  0  0  0
   58.2635   32.6356   48.9545 H   0  0  0  0  0  0  0  0  0  0  0  0
   56.6703   32.5378   46.9711 H   0  0  0  0  0  0  0  0  0  0  0  0
   56.9837   34.1798   47.7077 H   0  0  0  0  0  0  0  0  0  0  0  0
  1  2  1  0
  2  3  2  0
  2  4  1  0
  4  5  2  0
  5  6  1  0
  6  7  2  0
  7  8  1  0
  8  9  1  0
  9 10  1  0
 10 11  1  0
 11 12  1  0
 12 13  1  0
 13 14  2  0
 13 15  1  0
 15 16  1  0
 16 17  1  0
 17 18  2  0
 18 19  1  0
 19 20  2  0
 20 21  1  0
 21 22  2  0
 12 23  1  0
 23 24  1  0
  8 25  2  0
 25  4  1  0
 24  9  1  0
 22 17  1  0
  1 26  1  0
  1 27  1  0
  5 28  1  0
  6 29  1  0
  7 30  1  0
  9 31  1  0
 10 32  1  0
 10 33  1  0
 11 34  1  0
 11 35  1  0
 16 36  1  0
 16 37  1  0
 18 38  1  0
 19 39  1  0
 20 40  1  0
 21 41  1  0
 22 42  1  0
 23 43  1  0
 23 44  1  0
 24 45  1  0
 24 46  1  0
M  END
>  <UniqueID>  (71) 
66

>  <SMILES>  (71) 
NC(=O)c1cccc(C2CCN(C(=O)OCc3ccccc3)CC2)n1

>  <Energy>  (71) 
47.15184822931544

>  <Genealogy>  (71) 
NC(=O)c1cccc(C2CCN(C(=O)OCc3ccccc3)CC2)n1 (3D coordinates assigned)
NC(=O)c1cccc(C2CCN(C(=O)OCc3ccccc3)CC2)n1 (nonaromatic ring conformer: 47.15184822931544 kcal/mol)

>  <smiles>  (71) 
NC(=O)c1cccc(C2CCN(C(=O)OCc3ccccc3)CC2)n1

>  <score_type>  (71) 
oracle

>  <origin>  (71) 
adg

>  <m_score__min__energy>  (71) 
-8.8000000000000007

>  <m_primary>  (71) 
energy

$$$$
71:0
     RDKit          3D

 34 35  0  0  0  0  0  0  0  0999 V2000
   58.6300   33.8940   45.2700 C   0  0  0  0  0  0  0  0  0  0  0  0
   59.1630   32.5760   45.3330 O   0  0  0  0  0  0  0  0  0  0  0  0
   58.9430   31.7230   46.4180 C   0  0  0  0  0  0  0  0  0  0  0  0
   58.8530   32.1950   47.5840 O   0  0  0  0  0  0  0  0  0  0  0  0
   58.8170   30.2740   46.1770 C   0  0  0  0  0  0  0  0  0  0  0  0
   59.8390   29.1310   46.8750 S   0  0  0  0  0  0  0  0  0  0  0  0
   59.1200   27.7850   46.1760 C   0  0  0  0  0  0  0  0  0  0  0  0
   59.5740   26.3690   46.3520 C   0  0  0  0  0  0  0  0  0  0  0  0
   58.5980   25.4510   45.7710 N   0  0  0  0  0  0  0  0  0  0  0  0
   57.2240   25.4230   46.1920 C   0  0  0  0  0  0  0  0  0  0  0  0
   56.8170   26.2500   47.0520 O   0  0  0  0  0  0  0  0  0  0  0  0
   56.2860   24.4290   45.6270 C   0  0  0  0  0  0  0  0  0  0  0  0
   56.7100   23.4940   44.6700 C   0  0  0  0  0  0  0  0  0  0  0  0
   55.7800   22.5820   44.1670 C   0  0  0  0  0  0  0  0  0  0  0  0
   56.1290   21.7300   43.3090 O   0  0  0  0  0  0  0  0  0  0  0  0
   54.4950   22.6110   44.6070 N   0  0  0  0  0  0  0  0  0  0  0  0
   54.0970   23.5210   45.5320 C   0  0  0  0  0  0  0  0  0  0  0  0
   52.9020   23.5340   45.9270 O   0  0  0  0  0  0  0  0  0  0  0  0
   54.9860   24.4170   46.0330 N   0  0  0  0  0  0  0  0  0  0  0  0
   58.0690   28.2030   45.3730 C   0  0  0  0  0  0  0  0  0  0  0  0
   57.8900   29.5950   45.3690 C   0  0  0  0  0  0  0  0  0  0  0  0
   56.6160   30.3620   44.4220 S   0  0  0  0  0  0  0  0  0  0  0  0
   55.1420   29.4800   44.6080 N   0  0  0  0  0  0  0  0  0  0  0  0
   56.9980   30.3690   42.9680 O   0  0  0  0  0  0  0  0  0  0  0  0
   56.4280   31.7810   44.8810 O   0  0  0  0  0  0  0  0  0  0  0  0
   58.4755   34.2762   46.2898 H   0  0  0  0  0  0  0  0  0  0  0  0
   59.3339   34.5490   44.7357 H   0  0  0  0  0  0  0  0  0  0  0  0
   57.6686   33.8756   44.7357 H   0  0  0  0  0  0  0  0  0  0  0  0
   60.5438   26.2333   45.8509 H   0  0  0  0  0  0  0  0  0  0  0  0
   59.6735   26.1547   47.4263 H   0  0  0  0  0  0  0  0  0  0  0  0
   58.9240   24.8020   45.0200 H   0  0  0  0  0  0  0  0  0  0  0  0
   57.7538   23.4799   44.3232 H   0  0  0  0  0  0  0  0  0  0  0  0
   57.4377   27.5113   44.7959 H   0  0  0  0  0  0  0  0  0  0  0  0
   55.2080   28.9600   45.5120 H   0  0  0  0  0  0  0  0  0  0  0  0
  1  2  1  0
  2  3  1  0
  3  4  2  0
  3  5  1  0
  5  6  1  0
  6  7  1  0
  7  8  1  0
  8  9  1  0
  9 10  1  0
 10 11  2  0
 10 12  1  0
 12 13  2  0
 13 14  1  0
 14 15  2  0
 14 16  1  0
 16 17  1  0
 17 18  2  0
 17 19  1  0
  7 20  2  0
 20 21  1  0
 21 22  1  0
 22 23  1  0
 22 24  2  0
 22 25  2  0
 21  5  2  0
 19 12  1  0
  1 26  1  0
  1 27  1  0
  1 28  1  0
  8 29  1  0
  8 30  1  0
  9 31  1  0
 13 32  1  0
 20 33  1  0
 23 34  1  0
M  CHG  3  16  -1  19  -1  23  -1
M  END
>  <UniqueID>  (72) 
67

>  <SMILES>  (72) 
COC(=O)c1sc(CNC(=O)c2cc(=O)[n-]c(=O)[n-]2)cc1S([NH-])(=O)=O

>  <Energy>  (72) 
57.224459765721676

>  <Genealogy>  (72) 
COC(=O)c1sc(CNC(=O)c2cc(=O)[n-]c(=O)[n-]2)cc1S([NH-])(=O)=O (protonated)
COC(=O)c1sc(CNC(=O)c2cc(=O)[n-]c(=O)[n-]2)cc1S([NH-])(=O)=O (3D coordinates assigned)
COC(=O)c1sc(CNC(=O)c2cc(=O)[n-]c(=O)[n-]2)cc1S([NH-])(=O)=O (optimized conformer: 57.224459765721676 kcal/mol)

>  <smiles>  (72) 
COC(=O)c1sc(CNC(=O)c2cc(=O)[nH]c(=O)[nH]2)cc1S(N)(=O)=O

>  <score_type>  (72) 
oracle

>  <origin>  (72) 
adg

>  <m_score__min__energy>  (72) 
-13.16

>  <m_primary>  (72) 
energy

$$$$
72:0
     RDKit          3D

 36 37  0  0  0  0  0  0  0  0999 V2000
   55.5680   29.8590   43.9350 C   0  0  0  0  0  0  0  0  0  0  0  0
   56.6340   29.9510   43.1360 C   0  0  0  0  0  0  0  0  0  0  0  0
   57.3690   31.2470   42.9440 C   0  0  0  0  0  0  0  0  0  0  0  0
   57.7080   31.8710   44.2700 C   0  0  0  0  0  0  0  0  0  0  0  0
   58.2770   31.1010   45.2960 C   0  0  0  0  0  0  0  0  0  0  0  0
   58.5600   31.6740   46.5380 C   0  0  0  0  0  0  0  0  0  0  0  0
   58.2660   33.0300   46.7780 C   0  0  0  0  0  0  0  0  0  0  0  0
   58.5170   33.6590   48.0090 O   0  0  0  0  0  0  0  0  0  0  0  0
   59.6480   34.4770   48.3080 C   0  0  0  0  0  0  0  0  0  0  0  0
   60.7700   34.2740   47.2830 C   0  0  0  0  0  0  0  0  0  0  0  0
   62.0000   33.7980   47.9400 N   0  0  0  0  0  0  0  0  0  0  0  0
   61.9670   33.5170   49.2770 C   0  0  0  0  0  0  0  0  0  0  0  0
   63.1000   33.0410   49.9290 C   0  0  0  0  0  0  0  0  0  0  0  0
   64.2650   32.8530   49.1920 C   0  0  0  0  0  0  0  0  0  0  0  0
   65.3060   32.4220   49.7560 O   0  0  0  0  0  0  0  0  0  0  0  0
   64.2750   33.1340   47.8620 N   0  0  0  0  0  0  0  0  0  0  0  0
   63.1600   33.6010   47.2320 C   0  0  0  0  0  0  0  0  0  0  0  0
   63.2110   33.8480   45.9970 O   0  0  0  0  0  0  0  0  0  0  0  0
   57.6960   33.7950   45.7530 C   0  0  0  0  0  0  0  0  0  0  0  0
   57.4130   33.2210   44.5100 C   0  0  0  0  0  0  0  0  0  0  0  0
   55.0516   28.8951   44.0543 H   0  0  0  0  0  0  0  0  0  0  0  0
   55.2063   30.7471   44.4738 H   0  0  0  0  0  0  0  0  0  0  0  0
   56.9833   29.0537   42.6041 H   0  0  0  0  0  0  0  0  0  0  0  0
   58.2984   31.0554   42.3876 H   0  0  0  0  0  0  0  0  0  0  0  0
   56.7228   31.9389   42.3839 H   0  0  0  0  0  0  0  0  0  0  0  0
   58.5018   30.0385   45.1209 H   0  0  0  0  0  0  0  0  0  0  0  0
   59.0145   31.0633   47.3320 H   0  0  0  0  0  0  0  0  0  0  0  0
   59.3394   35.5328   48.2968 H   0  0  0  0  0  0  0  0  0  0  0  0
   60.0289   34.1929   49.3000 H   0  0  0  0  0  0  0  0  0  0  0  0
   60.4481   33.5308   46.5386 H   0  0  0  0  0  0  0  0  0  0  0  0
   60.9809   35.2376   46.7961 H   0  0  0  0  0  0  0  0  0  0  0  0
   61.0360   33.6686   49.8429 H   0  0  0  0  0  0  0  0  0  0  0  0
   63.0753   32.8177   51.0058 H   0  0  0  0  0  0  0  0  0  0  0  0
   65.1540   32.9900   47.3130 H   0  0  0  0  0  0  0  0  0  0  0  0
   57.4689   34.8571   45.9273 H   0  0  0  0  0  0  0  0  0  0  0  0
   56.9568   33.8311   43.7165 H   0  0  0  0  0  0  0  0  0  0  0  0
  1  2  2  0
  2  3  1  0
  3  4  1  0
  4  5  2  0
  5  6  1  0
  6  7  2  0
  7  8  1  0
  8  9  1  0
  9 10  1  0
 10 11  1  0
 11 12  1  0
 12 13  2  0
 13 14  1  0
 14 15  2  0
 14 16  1  0
 16 17  1  0
 17 18  2  0
  7 19  1  0
 19 20  2  0
 20  4  1  0
 17 11  1  0
  1 21  1  0
  1 22  1  0
  2 23  1  0
  3 24  1  0
  3 25  1  0
  5 26  1  0
  6 27  1  0
  9 28  1  0
  9 29  1  0
 10 30  1  0
 10 31  1  0
 12 32  1  0
 13 33  1  0
 16 34  1  0
 19 35  1  0
 20 36  1  0
M  END
>  <UniqueID>  (73) 
68

>  <SMILES>  (73) 
C=CCc1ccc(OCCn2ccc(=O)[nH]c2=O)cc1

>  <Energy>  (73) 
33.245731218627

>  <Genealogy>  (73) 
C=CCc1ccc(OCCn2ccc(=O)[nH]c2=O)cc1 (3D coordinates assigned)
C=CCc1ccc(OCCn2ccc(=O)[nH]c2=O)cc1 (optimized conformer: 33.245731218627 kcal/mol)

>  <smiles>  (73) 
C=CCc1ccc(OCCn2ccc(=O)[nH]c2=O)cc1

>  <score_type>  (73) 
oracle

>  <origin>  (73) 
adg

>  <m_score__min__energy>  (73) 
-6.9400000000000004

>  <m_primary>  (73) 
energy

$$$$
73:0
     RDKit          3D

 51 54  0  0  0  0  0  0  0  0999 V2000
   54.7600   27.4680   46.4080 H   0  0  0  0  0  0  0  0  0  0  0  0
   55.1480   26.7590   45.7990 O   0  0  0  0  0  0  0  0  0  0  0  0
   56.0050   25.7850   46.3000 C   0  0  0  0  0  0  0  0  0  0  0  0
   55.6060   24.7680   47.0830 N   0  0  0  0  0  0  0  0  0  0  0  0
   56.7580   24.1070   47.3170 C   0  0  0  0  0  0  0  0  0  0  0  0
   56.8130   23.0690   48.0280 O   0  0  0  0  0  0  0  0  0  0  0  0
   57.8490   24.6460   46.7320 N   0  0  0  0  0  0  0  0  0  0  0  0
   57.3610   25.7140   46.0770 C   0  0  0  0  0  0  0  0  0  0  0  0
   58.1490   26.6900   45.2920 C   0  0  0  0  0  0  0  0  0  0  0  0
   59.0424   26.3120   44.7735 H   0  0  0  0  0  0  0  0  0  0  0  0
   57.8680   28.0040   45.1560 C   0  0  0  0  0  0  0  0  0  0  0  0
   56.7570   28.5680   44.5340 C   0  0  0  0  0  0  0  0  0  0  0  0
   55.9349   28.0266   44.0431 H   0  0  0  0  0  0  0  0  0  0  0  0
   56.8860   29.9370   44.6520 C   0  0  0  0  0  0  0  0  0  0  0  0
   55.8880   30.9340   44.1470 C   0  0  0  0  0  0  0  0  0  0  0  0
   55.3965   31.4250   44.9998 H   0  0  0  0  0  0  0  0  0  0  0  0
   56.4022   31.6899   43.5352 H   0  0  0  0  0  0  0  0  0  0  0  0
   55.1327   30.4191   43.5352 H   0  0  0  0  0  0  0  0  0  0  0  0
   58.0130   30.2490   45.3260 N   0  0  0  0  0  0  0  0  0  0  0  0
   58.4570   31.5790   45.6470 C   0  0  0  0  0  0  0  0  0  0  0  0
   58.8880   31.8800   46.9460 C   0  0  0  0  0  0  0  0  0  0  0  0
   58.8894   31.0956   47.7172 H   0  0  0  0  0  0  0  0  0  0  0  0
   59.3170   33.1740   47.2680 C   0  0  0  0  0  0  0  0  0  0  0  0
   59.8860   33.5570   48.8910 S   0  0  0  0  0  0  0  0  0  0  0  0
   59.1380   32.7390   49.9080 O   0  0  0  0  0  0  0  0  0  0  0  0
   59.6280   35.0140   49.1600 O   0  0  0  0  0  0  0  0  0  0  0  0
   61.5970   33.2250   49.0010 N   0  0  0  0  0  0  0  0  0  0  0  0
   62.3840   34.2010   48.2100 C   0  0  0  0  0  0  0  0  0  0  0  0
   61.7517   35.0765   48.0010 H   0  0  0  0  0  0  0  0  0  0  0  0
   63.2701   34.4724   48.8025 H   0  0  0  0  0  0  0  0  0  0  0  0
   62.8770   33.6200   46.8750 C   0  0  0  0  0  0  0  0  0  0  0  0
   62.0044   33.3623   46.2568 H   0  0  0  0  0  0  0  0  0  0  0  0
   63.5029   34.3807   46.3856 H   0  0  0  0  0  0  0  0  0  0  0  0
   63.6990   32.4100   47.0650 N   0  0  0  0  0  0  0  0  0  0  0  0
   64.7000   32.7010   47.1700 H   0  0  0  0  0  0  0  0  0  0  0  0
   63.3280   31.6150   48.2510 C   0  0  0  0  0  0  0  0  0  0  0  0
   63.4943   30.5501   48.0312 H   0  0  0  0  0  0  0  0  0  0  0  0
   63.9518   31.9490   49.0932 H   0  0  0  0  0  0  0  0  0  0  0  0
   61.8580   31.8170   48.6400 C   0  0  0  0  0  0  0  0  0  0  0  0
   61.2188   31.5390   47.7890 H   0  0  0  0  0  0  0  0  0  0  0  0
   61.6348   31.1837   49.5113 H   0  0  0  0  0  0  0  0  0  0  0  0
   59.3160   34.1700   46.2830 C   0  0  0  0  0  0  0  0  0  0  0  0
   59.6591   35.1857   46.5292 H   0  0  0  0  0  0  0  0  0  0  0  0
   58.8800   33.8760   44.9880 C   0  0  0  0  0  0  0  0  0  0  0  0
   58.8759   34.6622   44.2187 H   0  0  0  0  0  0  0  0  0  0  0  0
   58.4490   32.5850   44.6680 C   0  0  0  0  0  0  0  0  0  0  0  0
   58.0140   32.3160   43.4110 F   0  0  0  0  0  0  0  0  0  0  0  0
   58.6230   29.0800   45.6450 C   0  0  0  0  0  0  0  0  0  0  0  0
   59.7640   29.0010   46.3480 C   0  0  0  0  0  0  0  0  0  0  0  0
   60.2702   29.9195   46.6800 H   0  0  0  0  0  0  0  0  0  0  0  0
   60.1927   28.0178   46.5920 H   0  0  0  0  0  0  0  0  0  0  0  0
  1  2  1  0
  2  3  1  0
  3  4  1  0
  4  5  1  0
  5  6  2  0
  5  7  1  0
  7  8  1  0
  8  9  1  0
  9 10  1  0
  9 11  2  0
 11 12  1  0
 12 13  1  0
 12 14  2  0
 14 15  1  0
 15 16  1  0
 15 17  1  0
 15 18  1  0
 14 19  1  0
 19 20  1  0
 20 21  2  0
 21 22  1  0
 21 23  1  0
 23 24  1  0
 24 25  2  0
 24 26  2  0
 24 27  1  0
 27 28  1  0
 28 29  1  0
 28 30  1  0
 28 31  1  0
 31 32  1  0
 31 33  1  0
 31 34  1  0
 34 35  1  0
 34 36  1  0
 36 37  1  0
 36 38  1  0
 36 39  1  0
 39 40  1  0
 39 41  1  0
 23 42  2  0
 42 43  1  0
 42 44  1  0
 44 45  1  0
 44 46  2  0
 46 47  1  0
 19 48  1  0
 48 49  2  0
 49 50  1  0
 49 51  1  0
  8  3  2  0
 48 11  1  0
 46 20  1  0
 39 27  1  0
M  CHG  2   4  -1   7  -1
M  END
>  <UniqueID>  (74) 
69

>  <SMILES>  (74) 
C=c1/c(=C/c2[n-]c(=O)[n-]c2O)cc(C)n1-c1cc(S(=O)(=O)N2CCNCC2)ccc1F

>  <Energy>  (74) 
129.9012570134916

>  <Genealogy>  (74) 
C=c1c(=Cc2[n-]c(=O)[n-]c2O)cc(C)n1-c1cc(S(=O)(=O)N2CCNCC2)ccc1F (protonated)
C=c1/c(=C/c2[n-]c(=O)[n-]c2O)cc(C)n1-c1cc(S(=O)(=O)N2CCNCC2)ccc1F (cis-trans isomerization)
C=c1/c(=C/c2[n-]c(=O)[n-]c2O)cc(C)n1-c1cc(S(=O)(=O)N2CCNCC2)ccc1F (3D coordinates assigned)
C=c1/c(=C/c2[n-]c(=O)[n-]c2O)cc(C)n1-c1cc(S(=O)(=O)N2CCNCC2)ccc1F (nonaromatic ring conformer: 129.9012570134916 kcal/mol)

>  <smiles>  (74) 
C=c1c(=Cc2[nH]c(=O)[nH]c2O)cc(C)n1-c1cc(S(=O)(=O)N2CCNCC2)ccc1F

>  <score_type>  (74) 
oracle

>  <origin>  (74) 
adg

>  <m_score__min__energy>  (74) 
-14.56

>  <m_primary>  (74) 
energy

$$$$
74:0
     RDKit          3D

 29 30  0  0  0  0  0  0  0  0999 V2000
   56.4260   24.6130   45.2920 C   0  0  0  0  0  0  0  0  0  0  0  0
   57.8490   25.0230   44.9250 C   0  0  0  0  0  0  0  0  0  0  0  0
   57.9670   26.5160   44.8470 C   0  0  0  0  0  0  0  0  0  0  0  0
   58.0240   27.5390   46.1870 S   0  0  0  0  0  0  0  0  0  0  0  0
   58.2280   28.9240   45.2450 C   0  0  0  0  0  0  0  0  0  0  0  0
   58.3380   30.1390   45.6880 N   0  0  0  0  0  0  0  0  0  0  0  0
   57.8110   31.5470   44.8200 S   0  0  0  0  0  0  0  0  0  0  0  0
   56.3110   31.6090   44.8440 O   0  0  0  0  0  0  0  0  0  0  0  0
   58.2760   31.4550   43.3940 O   0  0  0  0  0  0  0  0  0  0  0  0
   58.4560   32.9920   45.5750 C   0  0  0  0  0  0  0  0  0  0  0  0
   58.4050   33.2860   46.9290 C   0  0  0  0  0  0  0  0  0  0  0  0
   59.0190   34.5040   47.2440 C   0  0  0  0  0  0  0  0  0  0  0  0
   59.5490   35.1630   46.1410 C   0  0  0  0  0  0  0  0  0  0  0  0
   59.2560   34.2300   44.7720 S   0  0  0  0  0  0  0  0  0  0  0  0
   58.2660   28.6250   43.9280 N   0  0  0  0  0  0  0  0  0  0  0  0
   58.1340   27.2900   43.6940 C   0  0  0  0  0  0  0  0  0  0  0  0
   58.1430   26.7240   42.3060 C   0  0  0  0  0  0  0  0  0  0  0  0
   56.3237   24.5835   46.3868 H   0  0  0  0  0  0  0  0  0  0  0  0
   55.7155   25.3430   44.8769 H   0  0  0  0  0  0  0  0  0  0  0  0
   56.2128   23.6169   44.8769 H   0  0  0  0  0  0  0  0  0  0  0  0
   58.5425   24.6455   45.6909 H   0  0  0  0  0  0  0  0  0  0  0  0
   58.0974   24.5967   43.9419 H   0  0  0  0  0  0  0  0  0  0  0  0
   57.9323   32.6317   47.6763 H   0  0  0  0  0  0  0  0  0  0  0  0
   59.0766   34.9020   48.2679 H   0  0  0  0  0  0  0  0  0  0  0  0
   60.0716   36.1308   46.1599 H   0  0  0  0  0  0  0  0  0  0  0  0
   58.3880   29.3410   43.1770 H   0  0  0  0  0  0  0  0  0  0  0  0
   58.1605   25.6254   42.3581 H   0  0  0  0  0  0  0  0  0  0  0  0
   57.2395   27.0514   41.7707 H   0  0  0  0  0  0  0  0  0  0  0  0
   59.0356   27.0799   41.7707 H   0  0  0  0  0  0  0  0  0  0  0  0
  1  2  1  0
  2  3  1  0
  3  4  1  0
  4  5  1  0
  5  6  2  3
  6  7  1  0
  7  8  2  0
  7  9  2  0
  7 10  1  0
 10 11  2  0
 11 12  1  0
 12 13  2  0
 13 14  1  0
  5 15  1  0
 15 16  1  0
 16 17  1  0
 16  3  2  0
 14 10  1  0
  1 18  1  0
  1 19  1  0
  1 20  1  0
  2 21  1  0
  2 22  1  0
 11 23  1  0
 12 24  1  0
 13 25  1  0
 15 26  1  0
 17 27  1  0
 17 28  1  0
 17 29  1  0
M  END
>  <UniqueID>  (75) 
70

>  <SMILES>  (75) 
CCc1sc(=NS(=O)(=O)c2cccs2)[nH]c1C

>  <Energy>  (75) 
83.01493042561053

>  <Genealogy>  (75) 
CCc1sc(=NS(=O)(=O)c2cccs2)[nH]c1C (3D coordinates assigned)
CCc1sc(=NS(=O)(=O)c2cccs2)[nH]c1C (optimized conformer: 83.01493042561053 kcal/mol)

>  <smiles>  (75) 
CCc1sc(=NS(=O)(=O)c2cccs2)[nH]c1C

>  <score_type>  (75) 
oracle

>  <origin>  (75) 
adg

>  <m_score__min__energy>  (75) 
-6.9800000000000004

>  <m_primary>  (75) 
energy

$$$$
75:0
     RDKit          3D

 53 56  0  0  0  0  0  0  0  0999 V2000
   59.6290   30.9170   48.3430 O   0  0  0  0  0  0  0  0  0  0  0  0
   59.0810   31.9560   47.8790 C   0  0  0  0  0  0  0  0  0  0  0  0
   58.8880   33.0910   48.7320 N   0  0  0  0  0  0  0  0  0  0  0  0
   59.6140   33.2340   49.9590 C   0  0  0  0  0  0  0  0  0  0  0  0
   58.9080   33.4340   51.1540 C   0  0  0  0  0  0  0  0  0  0  0  0
   59.5900   33.5260   52.3710 C   0  0  0  0  0  0  0  0  0  0  0  0
   60.9820   33.4250   52.4040 C   0  0  0  0  0  0  0  0  0  0  0  0
   61.6970   33.2470   51.2170 C   0  0  0  0  0  0  0  0  0  0  0  0
   61.0250   33.1620   49.9860 C   0  0  0  0  0  0  0  0  0  0  0  0
   61.7890   33.0970   48.7700 N   0  0  0  0  0  0  0  0  0  0  0  0
   62.7540   32.0000   48.6200 C   0  0  0  0  0  0  0  0  0  0  0  0
   63.3740   31.9510   47.2230 C   0  0  0  0  0  0  0  0  0  0  0  0
   63.5850   33.2470   46.7180 O   0  0  0  0  0  0  0  0  0  0  0  0
   62.3310   33.8330   46.4480 C   0  0  0  0  0  0  0  0  0  0  0  0
   61.5710   34.1260   47.7430 C   0  0  0  0  0  0  0  0  0  0  0  0
   58.6180   31.9700   46.4720 C   0  0  0  0  0  0  0  0  0  0  0  0
   58.8930   33.0830   45.6560 C   0  0  0  0  0  0  0  0  0  0  0  0
   58.4570   33.1140   44.3280 C   0  0  0  0  0  0  0  0  0  0  0  0
   57.7310   32.0420   43.8060 C   0  0  0  0  0  0  0  0  0  0  0  0
   57.4360   30.9330   44.6100 C   0  0  0  0  0  0  0  0  0  0  0  0
   56.4820   29.5990   43.9660 S   0  0  0  0  0  0  0  0  0  0  0  0
   55.2880   30.1150   43.2160 O   0  0  0  0  0  0  0  0  0  0  0  0
   57.3350   28.8010   43.0230 O   0  0  0  0  0  0  0  0  0  0  0  0
   55.9330   28.5700   45.2480 N   0  0  0  0  0  0  0  0  0  0  0  0
   56.5750   27.3600   45.6710 C   0  0  0  0  0  0  0  0  0  0  0  0
   57.9760   27.2440   45.7350 C   0  0  0  0  0  0  0  0  0  0  0  0
   58.5670   26.0370   46.1150 C   0  0  0  0  0  0  0  0  0  0  0  0
   57.7660   24.9400   46.4430 C   0  0  0  0  0  0  0  0  0  0  0  0
   56.3760   25.0530   46.4060 C   0  0  0  0  0  0  0  0  0  0  0  0
   55.7800   26.2550   46.0150 C   0  0  0  0  0  0  0  0  0  0  0  0
   54.3950   26.3400   45.9490 O   0  0  0  0  0  0  0  0  0  0  0  0
   57.8870   30.8950   45.9360 C   0  0  0  0  0  0  0  0  0  0  0  0
   58.0510   33.6970   48.5750 H   0  0  0  0  0  0  0  0  0  0  0  0
   57.8115   33.5190   51.1338 H   0  0  0  0  0  0  0  0  0  0  0  0
   59.0285   33.6783   53.3046 H   0  0  0  0  0  0  0  0  0  0  0  0
   61.5155   33.4855   53.3640 H   0  0  0  0  0  0  0  0  0  0  0  0
   62.7941   33.1729   51.2464 H   0  0  0  0  0  0  0  0  0  0  0  0
   63.5583   32.1346   49.3582 H   0  0  0  0  0  0  0  0  0  0  0  0
   62.2129   31.0555   48.7783 H   0  0  0  0  0  0  0  0  0  0  0  0
   64.3383   31.4244   47.2759 H   0  0  0  0  0  0  0  0  0  0  0  0
   62.6818   31.4222   46.5513 H   0  0  0  0  0  0  0  0  0  0  0  0
   62.4846   34.7746   45.9005 H   0  0  0  0  0  0  0  0  0  0  0  0
   61.7380   33.1287   45.8460 H   0  0  0  0  0  0  0  0  0  0  0  0
   61.9084   35.0955   48.1381 H   0  0  0  0  0  0  0  0  0  0  0  0
   60.4972   34.1374   47.5046 H   0  0  0  0  0  0  0  0  0  0  0  0
   59.4552   33.9350   46.0660 H   0  0  0  0  0  0  0  0  0  0  0  0
   58.6861   33.9834   43.6942 H   0  0  0  0  0  0  0  0  0  0  0  0
   57.3896   32.0680   42.7606 H   0  0  0  0  0  0  0  0  0  0  0  0
   58.6087   28.1082   45.4845 H   0  0  0  0  0  0  0  0  0  0  0  0
   59.6628   25.9499   46.1561 H   0  0  0  0  0  0  0  0  0  0  0  0
   58.2321   23.9861   46.7308 H   0  0  0  0  0  0  0  0  0  0  0  0
   55.7479   24.1942   46.6852 H   0  0  0  0  0  0  0  0  0  0  0  0
   57.6676   30.0178   46.5623 H   0  0  0  0  0  0  0  0  0  0  0  0
  1  2  2  0
  2  3  1  0
  3  4  1  0
  4  5  2  0
  5  6  1  0
  6  7  2  0
  7  8  1  0
  8  9  2  0
  9 10  1  0
 10 11  1  0
 11 12  1  0
 12 13  1  0
 13 14  1  0
 14 15  1  0
  2 16  1  0
 16 17  2  0
 17 18  1  0
 18 19  2  0
 19 20  1  0
 20 21  1  0
 21 22  2  0
 21 23  2  0
 21 24  1  0
 24 25  1  0
 25 26  2  0
 26 27  1  0
 27 28  2  0
 28 29  1  0
 29 30  2  0
 30 31  1  0
 20 32  2  0
  9  4  1  0
 15 10  1  0
 32 16  1  0
 30 25  1  0
  3 33  1  0
  5 34  1  0
  6 35  1  0
  7 36  1  0
  8 37  1  0
 11 38  1  0
 11 39  1  0
 12 40  1  0
 12 41  1  0
 14 42  1  0
 14 43  1  0
 15 44  1  0
 15 45  1  0
 17 46  1  0
 18 47  1  0
 19 48  1  0
 26 49  1  0
 27 50  1  0
 28 51  1  0
 29 52  1  0
 32 53  1  0
M  CHG  2  24  -1  31  -1
M  END
>  <UniqueID>  (76) 
71

>  <SMILES>  (76) 
O=C(Nc1ccccc1N1CCOCC1)c1cccc(S(=O)(=O)[N-]c2ccccc2[O-])c1

>  <Energy>  (76) 
73.1881182415791

>  <Genealogy>  (76) 
O=C(Nc1ccccc1N1CCOCC1)c1cccc(S(=O)(=O)[N-]c2ccccc2[O-])c1 (protonated)
O=C(Nc1ccccc1N1CCOCC1)c1cccc(S(=O)(=O)[N-]c2ccccc2[O-])c1 (3D coordinates assigned)
O=C(Nc1ccccc1N1CCOCC1)c1cccc(S(=O)(=O)[N-]c2ccccc2[O-])c1 (nonaromatic ring conformer: 73.1881182415791 kcal/mol)

>  <smiles>  (76) 
O=C(Nc1ccccc1N1CCOCC1)c1cccc(S(=O)(=O)Nc2ccccc2O)c1

>  <score_type>  (76) 
oracle

>  <origin>  (76) 
adg

>  <m_score__min__energy>  (76) 
-15.35

>  <m_primary>  (76) 
energy

$$$$
76:0
     RDKit          3D

 52 55  0  0  0  0  0  0  0  0999 V2000
   63.4640   33.2000   47.1450 C   0  0  0  0  0  0  0  0  0  0  0  0
   63.4900   32.9710   48.6320 C   0  0  0  0  0  0  0  0  0  0  0  0
   64.4360   32.0880   49.1810 C   0  0  0  0  0  0  0  0  0  0  0  0
   64.4770   31.8620   50.5600 C   0  0  0  0  0  0  0  0  0  0  0  0
   63.5790   32.5190   51.4040 C   0  0  0  0  0  0  0  0  0  0  0  0
   62.6430   33.4080   50.8720 C   0  0  0  0  0  0  0  0  0  0  0  0
   62.6020   33.6520   49.4920 C   0  0  0  0  0  0  0  0  0  0  0  0
   61.6420   34.5830   48.9830 N   0  0  0  0  0  0  0  0  0  0  0  0
   60.2400   34.2810   48.9880 C   0  0  0  0  0  0  0  0  0  0  0  0
   59.7820   33.4010   49.7650 O   0  0  0  0  0  0  0  0  0  0  0  0
   59.3220   34.9660   48.0210 C   0  0  0  0  0  0  0  0  0  0  0  0
   58.9250   34.0030   46.9350 C   0  0  0  0  0  0  0  0  0  0  0  0
   57.8000   34.2690   46.1390 C   0  0  0  0  0  0  0  0  0  0  0  0
   57.3390   33.3150   45.2290 C   0  0  0  0  0  0  0  0  0  0  0  0
   58.0000   32.0870   45.0990 C   0  0  0  0  0  0  0  0  0  0  0  0
   57.3280   30.8500   44.0430 S   0  0  0  0  0  0  0  0  0  0  0  0
   56.9750   31.4190   42.6980 O   0  0  0  0  0  0  0  0  0  0  0  0
   56.0850   30.2920   44.6740 O   0  0  0  0  0  0  0  0  0  0  0  0
   58.4910   29.5790   43.8440 N   0  0  0  0  0  0  0  0  0  0  0  0
   58.8600   28.6320   44.8560 C   0  0  0  0  0  0  0  0  0  0  0  0
   60.0920   28.6990   45.5280 C   0  0  0  0  0  0  0  0  0  0  0  0
   60.4090   27.7570   46.5080 C   0  0  0  0  0  0  0  0  0  0  0  0
   59.5040   26.7440   46.8310 C   0  0  0  0  0  0  0  0  0  0  0  0
   58.2630   26.6640   46.1760 C   0  0  0  0  0  0  0  0  0  0  0  0
   57.2870   25.5920   46.4890 C   0  0  0  0  0  0  0  0  0  0  0  0
   57.6460   24.3590   46.8960 N   0  0  0  0  0  0  0  0  0  0  0  0
   56.4700   23.7180   47.0560 C   0  0  0  0  0  0  0  0  0  0  0  0
   56.3970   22.5220   47.4420 O   0  0  0  0  0  0  0  0  0  0  0  0
   55.3800   24.4570   46.7700 N   0  0  0  0  0  0  0  0  0  0  0  0
   55.9070   25.6380   46.4100 C   0  0  0  0  0  0  0  0  0  0  0  0
   55.1400   26.7160   45.9880 O   0  0  0  0  0  0  0  0  0  0  0  0
   57.9580   27.6100   45.1800 C   0  0  0  0  0  0  0  0  0  0  0  0
   59.1430   31.8310   45.8680 C   0  0  0  0  0  0  0  0  0  0  0  0
   59.6000   32.7810   46.7850 C   0  0  0  0  0  0  0  0  0  0  0  0
   63.3420   34.2741   46.9415 H   0  0  0  0  0  0  0  0  0  0  0  0
   64.4079   32.8480   46.7032 H   0  0  0  0  0  0  0  0  0  0  0  0
   62.6231   32.6453   46.7032 H   0  0  0  0  0  0  0  0  0  0  0  0
   65.1487   31.5715   48.5212 H   0  0  0  0  0  0  0  0  0  0  0  0
   65.2175   31.1658   50.9808 H   0  0  0  0  0  0  0  0  0  0  0  0
   63.6091   32.3360   52.4883 H   0  0  0  0  0  0  0  0  0  0  0  0
   61.9339   33.9198   51.5393 H   0  0  0  0  0  0  0  0  0  0  0  0
   61.9890   35.3280   48.3380 H   0  0  0  0  0  0  0  0  0  0  0  0
   58.4223   35.3109   48.5516 H   0  0  0  0  0  0  0  0  0  0  0  0
   59.8386   35.8283   47.5743 H   0  0  0  0  0  0  0  0  0  0  0  0
   57.2790   35.2333   46.2323 H   0  0  0  0  0  0  0  0  0  0  0  0
   56.4537   33.5288   44.6122 H   0  0  0  0  0  0  0  0  0  0  0  0
   60.8088   29.4961   45.2811 H   0  0  0  0  0  0  0  0  0  0  0  0
   61.3765   27.8130   47.0284 H   0  0  0  0  0  0  0  0  0  0  0  0
   59.7638   26.0043   47.6026 H   0  0  0  0  0  0  0  0  0  0  0  0
   56.9973   27.5462   44.6480 H   0  0  0  0  0  0  0  0  0  0  0  0
   59.6820   30.8795   45.7494 H   0  0  0  0  0  0  0  0  0  0  0  0
   60.4927   32.5706   47.3922 H   0  0  0  0  0  0  0  0  0  0  0  0
  1  2  1  0
  2  3  2  0
  3  4  1  0
  4  5  2  0
  5  6  1  0
  6  7  2  0
  7  8  1  0
  8  9  1  0
  9 10  2  0
  9 11  1  0
 11 12  1  0
 12 13  2  0
 13 14  1  0
 14 15  2  0
 15 16  1  0
 16 17  2  0
 16 18  2  0
 16 19  1  0
 19 20  1  0
 20 21  2  0
 21 22  1  0
 22 23  2  0
 23 24  1  0
 24 25  1  0
 25 26  1  0
 26 27  1  0
 27 28  2  0
 27 29  1  0
 29 30  1  0
 30 31  1  0
 24 32  2  0
 15 33  1  0
 33 34  2  0
  7  2  1  0
 34 12  1  0
 32 20  1  0
 30 25  2  0
  1 35  1  0
  1 36  1  0
  1 37  1  0
  3 38  1  0
  4 39  1  0
  5 40  1  0
  6 41  1  0
  8 42  1  0
 11 43  1  0
 11 44  1  0
 13 45  1  0
 14 46  1  0
 21 47  1  0
 22 48  1  0
 23 49  1  0
 32 50  1  0
 33 51  1  0
 34 52  1  0
M  CHG  4  19  -1  26  -1  29  -1  31  -1
M  END
>  <UniqueID>  (77) 
72

>  <SMILES>  (77) 
Cc1ccccc1NC(=O)Cc1ccc(S(=O)(=O)[N-]c2cccc(-c3[n-]c(=O)[n-]c3[O-])c2)cc1

>  <Energy>  (77) 
94.44288374885123

>  <Genealogy>  (77) 
Cc1ccccc1NC(=O)Cc1ccc(S(=O)(=O)[N-]c2cccc(-c3[n-]c(=O)[n-]c3[O-])c2)cc1 (protonated)
Cc1ccccc1NC(=O)Cc1ccc(S(=O)(=O)[N-]c2cccc(-c3[n-]c(=O)[n-]c3[O-])c2)cc1 (3D coordinates assigned)
Cc1ccccc1NC(=O)Cc1ccc(S(=O)(=O)[N-]c2cccc(-c3[n-]c(=O)[n-]c3[O-])c2)cc1 (optimized conformer: 94.44288374885123 kcal/mol)

>  <smiles>  (77) 
Cc1ccccc1NC(=O)Cc1ccc(S(=O)(=O)Nc2cccc(-c3[nH]c(=O)[nH]c3O)c2)cc1

>  <score_type>  (77) 
oracle

>  <origin>  (77) 
adg

>  <m_score__min__energy>  (77) 
-20.199999999999999

>  <m_primary>  (77) 
energy

$$$$
77:0
     RDKit          3D

 39 41  0  0  0  0  0  0  0  0999 V2000
   59.4760   35.1620   46.9910 O   0  0  0  0  0  0  0  0  0  0  0  0
   59.9190   34.2520   46.2370 C   0  0  0  0  0  0  0  0  0  0  0  0
   59.1880   33.9870   44.9470 C   0  0  0  0  0  0  0  0  0  0  0  0
   57.4000   33.7490   45.2450 S   0  0  0  0  0  0  0  0  0  0  0  0
   57.4290   31.9800   44.9730 C   0  0  0  0  0  0  0  0  0  0  0  0
   58.6130   31.3160   44.9530 N   0  0  0  0  0  0  0  0  0  0  0  0
   58.6590   29.9670   44.7860 C   0  0  0  0  0  0  0  0  0  0  0  0
   59.9800   29.2600   44.8320 C   0  0  0  0  0  0  0  0  0  0  0  0
   60.1010   28.4760   46.1090 C   0  0  0  0  0  0  0  0  0  0  0  0
   60.4010   27.1030   46.0750 C   0  0  0  0  0  0  0  0  0  0  0  0
   60.4870   26.3720   47.2650 C   0  0  0  0  0  0  0  0  0  0  0  0
   60.2600   27.0010   48.4920 C   0  0  0  0  0  0  0  0  0  0  0  0
   59.9440   28.3610   48.5330 C   0  0  0  0  0  0  0  0  0  0  0  0
   59.8630   29.0980   47.3470 C   0  0  0  0  0  0  0  0  0  0  0  0
   57.4650   29.2480   44.6460 C   0  0  0  0  0  0  0  0  0  0  0  0
   56.2600   29.9510   44.6600 C   0  0  0  0  0  0  0  0  0  0  0  0
   55.1680   29.3370   44.5330 O   0  0  0  0  0  0  0  0  0  0  0  0
   56.2630   31.2980   44.8210 N   0  0  0  0  0  0  0  0  0  0  0  0
   61.0700   33.4300   46.6960 C   0  0  0  0  0  0  0  0  0  0  0  0
   60.8940   32.2590   47.4620 C   0  0  0  0  0  0  0  0  0  0  0  0
   62.0010   31.5330   47.9110 C   0  0  0  0  0  0  0  0  0  0  0  0
   63.2930   31.9590   47.5990 C   0  0  0  0  0  0  0  0  0  0  0  0
   63.4820   33.1060   46.8280 C   0  0  0  0  0  0  0  0  0  0  0  0
   62.3790   33.8350   46.3740 C   0  0  0  0  0  0  0  0  0  0  0  0
   59.3293   34.8431   44.2709 H   0  0  0  0  0  0  0  0  0  0  0  0
   59.5936   33.0693   44.4962 H   0  0  0  0  0  0  0  0  0  0  0  0
   60.0559   28.5742   43.9753 H   0  0  0  0  0  0  0  0  0  0  0  0
   60.7889   30.0042   44.7879 H   0  0  0  0  0  0  0  0  0  0  0  0
   60.5686   26.6019   45.1102 H   0  0  0  0  0  0  0  0  0  0  0  0
   60.7337   25.3005   47.2346 H   0  0  0  0  0  0  0  0  0  0  0  0
   60.3302   26.4247   49.4263 H   0  0  0  0  0  0  0  0  0  0  0  0
   59.7586   28.8530   49.4992 H   0  0  0  0  0  0  0  0  0  0  0  0
   59.6121   30.1684   47.3831 H   0  0  0  0  0  0  0  0  0  0  0  0
   57.4772   28.1544   44.5278 H   0  0  0  0  0  0  0  0  0  0  0  0
   59.8787   31.9146   47.7078 H   0  0  0  0  0  0  0  0  0  0  0  0
   61.8534   30.6235   48.5118 H   0  0  0  0  0  0  0  0  0  0  0  0
   64.1622   31.3903   47.9611 H   0  0  0  0  0  0  0  0  0  0  0  0
   64.5004   33.4373   46.5769 H   0  0  0  0  0  0  0  0  0  0  0  0
   62.5355   34.7337   45.7593 H   0  0  0  0  0  0  0  0  0  0  0  0
  1  2  2  0
  2  3  1  0
  3  4  1  0
  4  5  1  0
  5  6  2  0
  6  7  1  0
  7  8  1  0
  8  9  1  0
  9 10  2  0
 10 11  1  0
 11 12  2  0
 12 13  1  0
 13 14  2  0
  7 15  2  0
 15 16  1  0
 16 17  2  0
 16 18  1  0
  2 19  1  0
 19 20  2  0
 20 21  1  0
 21 22  2  0
 22 23  1  0
 23 24  2  0
 18  5  1  0
 24 19  1  0
 14  9  1  0
  3 25  1  0
  3 26  1  0
  8 27  1  0
  8 28  1  0
 10 29  1  0
 11 30  1  0
 12 31  1  0
 13 32  1  0
 14 33  1  0
 15 34  1  0
 20 35  1  0
 21 36  1  0
 22 37  1  0
 23 38  1  0
 24 39  1  0
M  CHG  1  18  -1
M  END
>  <UniqueID>  (78) 
73

>  <SMILES>  (78) 
O=C(CSc1nc(Cc2ccccc2)cc(=O)[n-]1)c1ccccc1

>  <Energy>  (78) 
34.92980148834082

>  <Genealogy>  (78) 
O=C(CSc1nc(Cc2ccccc2)cc(=O)[n-]1)c1ccccc1 (protonated)
O=C(CSc1nc(Cc2ccccc2)cc(=O)[n-]1)c1ccccc1 (3D coordinates assigned)
O=C(CSc1nc(Cc2ccccc2)cc(=O)[n-]1)c1ccccc1 (optimized conformer: 34.92980148834082 kcal/mol)

>  <smiles>  (78) 
O=C(CSc1nc(Cc2ccccc2)cc(=O)[nH]1)c1ccccc1

>  <score_type>  (78) 
oracle

>  <origin>  (78) 
adg

>  <m_score__min__energy>  (78) 
-9.8200000000000003

>  <m_primary>  (78) 
energy

$$$$
78:0
     RDKit          3D

 49 52  0  0  0  0  0  0  0  0999 V2000
   54.3727   29.5769   56.4153 H   0  0  0  0  0  0  0  0  0  0  0  0
   53.7540   29.9570   55.5890 C   0  0  0  0  0  0  0  0  0  0  0  0
   52.6937   30.1946   55.7600 H   0  0  0  0  0  0  0  0  0  0  0  0
   54.2930   30.1310   54.3720 C   0  0  0  0  0  0  0  0  0  0  0  0
   53.6370   30.6050   53.2240 C   0  0  0  0  0  0  0  0  0  0  0  0
   52.3300   30.8030   52.9670 C   0  0  0  0  0  0  0  0  0  0  0  0
   51.6467   30.8295   53.8286 H   0  0  0  0  0  0  0  0  0  0  0  0
   51.7370   30.9870   51.6320 C   0  0  0  0  0  0  0  0  0  0  0  0
   51.9590   30.1810   50.5760 N   0  0  0  0  0  0  0  0  0  0  0  0
   51.3350   30.8180   49.5620 C   0  0  0  0  0  0  0  0  0  0  0  0
   51.3040   30.3600   48.3910 O   0  0  0  0  0  0  0  0  0  0  0  0
   50.7570   31.9910   49.8990 N   0  0  0  0  0  0  0  0  0  0  0  0
   51.0330   32.0880   51.2090 C   0  0  0  0  0  0  0  0  0  0  0  0
   50.6560   33.1650   52.0010 O   0  0  0  0  0  0  0  0  0  0  0  0
   54.6240   30.8310   52.2830 C   0  0  0  0  0  0  0  0  0  0  0  0
   54.4826   31.2421   51.2726 H   0  0  0  0  0  0  0  0  0  0  0  0
   55.8180   30.4440   52.8500 C   0  0  0  0  0  0  0  0  0  0  0  0
   57.1120   30.4900   52.1420 C   0  0  0  0  0  0  0  0  0  0  0  0
   57.4330   29.5220   51.4020 O   0  0  0  0  0  0  0  0  0  0  0  0
   57.9840   31.6300   52.2500 N   0  0  0  0  0  0  0  0  0  0  0  0
   59.4240   31.4730   52.0210 C   0  0  0  0  0  0  0  0  0  0  0  0
   59.7058   30.4276   52.2150 H   0  0  0  0  0  0  0  0  0  0  0  0
   59.6418   31.7477   50.9783 H   0  0  0  0  0  0  0  0  0  0  0  0
   60.2440   32.3960   52.9500 C   0  0  0  0  0  0  0  0  0  0  0  0
   60.5121   31.8258   53.8517 H   0  0  0  0  0  0  0  0  0  0  0  0
   61.1209   32.7231   52.3721 H   0  0  0  0  0  0  0  0  0  0  0  0
   59.5380   33.6210   53.3720 N   0  0  0  0  0  0  0  0  0  0  0  0
   59.0800   33.4480   54.2980 H   0  0  0  0  0  0  0  0  0  0  0  0
   58.5080   34.0390   52.4140 C   0  0  0  0  0  0  0  0  0  0  0  0
   58.0705   34.9929   52.7438 H   0  0  0  0  0  0  0  0  0  0  0  0
   58.9679   34.1602   51.4221 H   0  0  0  0  0  0  0  0  0  0  0  0
   57.4050   32.9790   52.3280 C   0  0  0  0  0  0  0  0  0  0  0  0
   56.7684   33.0473   53.2224 H   0  0  0  0  0  0  0  0  0  0  0  0
   56.8103   33.1610   51.4207 H   0  0  0  0  0  0  0  0  0  0  0  0
   55.6230   30.0010   54.1160 N   0  0  0  0  0  0  0  0  0  0  0  0
   56.6310   29.3690   54.9880 C   0  0  0  0  0  0  0  0  0  0  0  0
   57.5918   29.8913   54.8698 H   0  0  0  0  0  0  0  0  0  0  0  0
   56.2924   29.4348   56.0325 H   0  0  0  0  0  0  0  0  0  0  0  0
   56.8050   27.9200   54.6200 C   0  0  0  0  0  0  0  0  0  0  0  0
   58.0750   27.4320   54.2690 C   0  0  0  0  0  0  0  0  0  0  0  0
   58.9413   28.1098   54.2705 H   0  0  0  0  0  0  0  0  0  0  0  0
   58.2430   26.0900   53.9180 C   0  0  0  0  0  0  0  0  0  0  0  0
   59.2395   25.7151   53.6413 H   0  0  0  0  0  0  0  0  0  0  0  0
   57.1460   25.2230   53.9180 C   0  0  0  0  0  0  0  0  0  0  0  0
   57.3110   23.9220   53.5760 F   0  0  0  0  0  0  0  0  0  0  0  0
   55.8800   25.6990   54.2710 C   0  0  0  0  0  0  0  0  0  0  0  0
   55.0174   25.0164   54.2718 H   0  0  0  0  0  0  0  0  0  0  0  0
   55.7080   27.0410   54.6230 C   0  0  0  0  0  0  0  0  0  0  0  0
   54.7106   27.4105   54.9034 H   0  0  0  0  0  0  0  0  0  0  0  0
  1  2  1  0
  2  3  1  0
  2  4  2  0
  4  5  1  0
  5  6  2  0
  6  7  1  0
  6  8  1  0
  8  9  1  0
  9 10  1  0
 10 11  2  0
 10 12  1  0
 12 13  1  0
 13 14  1  0
  5 15  1  0
 15 16  1  0
 15 17  2  0
 17 18  1  0
 18 19  2  0
 18 20  1  0
 20 21  1  0
 21 22  1  0
 21 23  1  0
 21 24  1  0
 24 25  1  0
 24 26  1  0
 24 27  1  0
 27 28  1  0
 27 29  1  0
 29 30  1  0
 29 31  1  0
 29 32  1  0
 32 33  1  0
 32 34  1  0
 17 35  1  0
 35 36  1  0
 36 37  1  0
 36 38  1  0
 36 39  1  0
 39 40  2  0
 40 41  1  0
 40 42  1  0
 42 43  1  0
 42 44  2  0
 44 45  1  0
 44 46  1  0
 46 47  1  0
 46 48  2  0
 48 49  1  0
 35  4  1  0
 48 39  1  0
 13  8  2  0
 32 20  1  0
M  CHG  3   9  -1  12  -1  14  -1
M  END
>  <UniqueID>  (79) 
74

>  <SMILES>  (79) 
C=c1/c(=C\c2[n-]c(=O)[n-]c2[O-])cc(C(=O)N2CCNCC2)n1Cc1ccc(F)cc1

>  <Energy>  (79) 
129.924438845549

>  <Genealogy>  (79) 
C=c1c(=Cc2[n-]c(=O)[n-]c2[O-])cc(C(=O)N2CCNCC2)n1Cc1ccc(F)cc1 (protonated)
C=c1/c(=C\c2[n-]c(=O)[n-]c2[O-])cc(C(=O)N2CCNCC2)n1Cc1ccc(F)cc1 (cis-trans isomerization)
C=c1/c(=C\c2[n-]c(=O)[n-]c2[O-])cc(C(=O)N2CCNCC2)n1Cc1ccc(F)cc1 (3D coordinates assigned)
C=c1/c(=C\c2[n-]c(=O)[n-]c2[O-])cc(C(=O)N2CCNCC2)n1Cc1ccc(F)cc1 (nonaromatic ring conformer: 129.924438845549 kcal/mol)

>  <smiles>  (79) 
C=c1c(=Cc2[nH]c(=O)[nH]c2O)cc(C(=O)N2CCNCC2)n1Cc1ccc(F)cc1

>  <score_type>  (79) 
oracle

>  <origin>  (79) 
adg

>  <m_score__min__energy>  (79) 
-16.059999999999999

>  <m_primary>  (79) 
energy

$$$$
79:0
     RDKit          3D

 59 61  0  0  0  0  0  0  0  0999 V2000
   59.9128   32.3149   46.8173 H   0  0  0  0  0  0  0  0  0  0  0  0
   59.3390   31.4840   46.3810 C   0  0  0  0  0  0  0  0  0  0  0  0
   58.1860   31.7460   45.7420 C   0  0  0  0  0  0  0  0  0  0  0  0
   57.6760   33.1340   45.6210 C   0  0  0  0  0  0  0  0  0  0  0  0
   56.5970   33.4350   46.1990 O   0  0  0  0  0  0  0  0  0  0  0  0
   58.4200   34.1690   44.8570 C   0  0  0  0  0  0  0  0  0  0  0  0
   58.0475   34.4230   43.8536 H   0  0  0  0  0  0  0  0  0  0  0  0
   59.5110   34.8190   45.2940 C   0  0  0  0  0  0  0  0  0  0  0  0
   59.8571   35.6794   44.7024 H   0  0  0  0  0  0  0  0  0  0  0  0
   60.2840   34.4730   46.5040 C   0  0  0  0  0  0  0  0  0  0  0  0
   61.6310   34.1070   46.3790 C   0  0  0  0  0  0  0  0  0  0  0  0
   62.0919   34.0500   45.3819 H   0  0  0  0  0  0  0  0  0  0  0  0
   62.3920   33.8140   47.5140 C   0  0  0  0  0  0  0  0  0  0  0  0
   63.4448   33.5149   47.4039 H   0  0  0  0  0  0  0  0  0  0  0  0
   61.8210   33.8990   48.7940 C   0  0  0  0  0  0  0  0  0  0  0  0
   62.6440   33.5750   50.0240 C   0  0  0  0  0  0  0  0  0  0  0  0
   63.4969   34.2686   50.0626 H   0  0  0  0  0  0  0  0  0  0  0  0
   61.9758   33.6786   50.8916 H   0  0  0  0  0  0  0  0  0  0  0  0
   63.1690   32.1870   50.0480 N   0  0  0  0  0  0  0  0  0  0  0  0
   63.3180   31.9350   51.0550 H   0  0  0  0  0  0  0  0  0  0  0  0
   64.4750   32.0690   49.3760 C   0  0  0  0  0  0  0  0  0  0  0  0
   65.2710   31.9971   50.1317 H   0  0  0  0  0  0  0  0  0  0  0  0
   64.4836   31.1664   48.7473 H   0  0  0  0  0  0  0  0  0  0  0  0
   64.6453   32.9554   48.7473 H   0  0  0  0  0  0  0  0  0  0  0  0
   62.2090   31.2140   49.4980 C   0  0  0  0  0  0  0  0  0  0  0  0
   61.6982   30.6963   50.3233 H   0  0  0  0  0  0  0  0  0  0  0  0
   61.4667   31.7404   48.8801 H   0  0  0  0  0  0  0  0  0  0  0  0
   62.7454   30.4788   48.8801 H   0  0  0  0  0  0  0  0  0  0  0  0
   60.4830   34.3080   48.9220 C   0  0  0  0  0  0  0  0  0  0  0  0
   60.0317   34.3987   49.9210 H   0  0  0  0  0  0  0  0  0  0  0  0
   59.7230   34.6000   47.7870 C   0  0  0  0  0  0  0  0  0  0  0  0
   58.6799   34.9311   47.8975 H   0  0  0  0  0  0  0  0  0  0  0  0
   57.4060   30.6210   45.1700 C   0  0  0  0  0  0  0  0  0  0  0  0
   56.3470   30.8400   44.5220 O   0  0  0  0  0  0  0  0  0  0  0  0
   57.8430   29.3020   45.3280 O   0  0  0  0  0  0  0  0  0  0  0  0
   59.0160   28.9840   46.0190 C   0  0  0  0  0  0  0  0  0  0  0  0
   59.3160   27.6830   46.1740 C   0  0  0  0  0  0  0  0  0  0  0  0
   60.1600   27.4369   46.8352 H   0  0  0  0  0  0  0  0  0  0  0  0
   58.6100   26.5560   45.5330 C   0  0  0  0  0  0  0  0  0  0  0  0
   58.4990   25.3370   46.2100 C   0  0  0  0  0  0  0  0  0  0  0  0
   58.9011   25.2391   47.2292 H   0  0  0  0  0  0  0  0  0  0  0  0
   57.8800   24.2420   45.5990 C   0  0  0  0  0  0  0  0  0  0  0  0
   57.7840   23.2949   46.1502 H   0  0  0  0  0  0  0  0  0  0  0  0
   57.3770   24.3370   44.2840 C   0  0  0  0  0  0  0  0  0  0  0  0
   56.7340   23.2010   43.6490 N   0  0  0  0  0  0  0  0  0  0  0  0
   57.3860   21.8850   43.6370 C   0  0  0  0  0  0  0  0  0  0  0  0
   57.5525   21.5489   44.6711 H   0  0  0  0  0  0  0  0  0  0  0  0
   56.7421   21.1615   43.1155 H   0  0  0  0  0  0  0  0  0  0  0  0
   58.3517   21.9590   43.1155 H   0  0  0  0  0  0  0  0  0  0  0  0
   55.4210   23.3480   43.0090 C   0  0  0  0  0  0  0  0  0  0  0  0
   54.6438   23.4350   43.7825 H   0  0  0  0  0  0  0  0  0  0  0  0
   55.4176   24.2521   42.3825 H   0  0  0  0  0  0  0  0  0  0  0  0
   55.2178   22.4670   42.3825 H   0  0  0  0  0  0  0  0  0  0  0  0
   57.5250   25.5610   43.6010 C   0  0  0  0  0  0  0  0  0  0  0  0
   57.1485   25.6571   42.5719 H   0  0  0  0  0  0  0  0  0  0  0  0
   58.1440   26.6550   44.2140 C   0  0  0  0  0  0  0  0  0  0  0  0
   58.2659   27.5970   43.6593 H   0  0  0  0  0  0  0  0  0  0  0  0
   59.8510   30.1100   46.5100 C   0  0  0  0  0  0  0  0  0  0  0  0
   61.0040   29.9290   46.9840 O   0  0  0  0  0  0  0  0  0  0  0  0
  1  2  1  0
  2  3  2  0
  3  4  1  0
  4  5  2  0
  4  6  1  0
  6  7  1  0
  6  8  2  3
  8  9  1  0
  8 10  1  0
 10 11  2  0
 11 12  1  0
 11 13  1  0
 13 14  1  0
 13 15  2  0
 15 16  1  0
 16 17  1  0
 16 18  1  0
 16 19  1  0
 19 20  1  0
 19 21  1  0
 21 22  1  0
 21 23  1  0
 21 24  1  0
 19 25  1  0
 25 26  1  0
 25 27  1  0
 25 28  1  0
 15 29  1  0
 29 30  1  0
 29 31  2  0
 31 32  1  0
  3 33  1  0
 33 34  2  0
 33 35  1  0
 35 36  1  0
 36 37  2  0
 37 38  1  0
 37 39  1  0
 39 40  2  0
 40 41  1  0
 40 42  1  0
 42 43  1  0
 42 44  2  0
 44 45  1  0
 45 46  1  0
 46 47  1  0
 46 48  1  0
 46 49  1  0
 45 50  1  0
 50 51  1  0
 50 52  1  0
 50 53  1  0
 44 54  1  0
 54 55  1  0
 54 56  2  0
 56 57  1  0
 36 58  1  0
 58 59  2  0
 58  2  1  0
 31 10  1  0
 56 39  1  0
M  CHG  1  19   1
M  END
>  <UniqueID>  (80) 
75

>  <SMILES>  (80) 
CN(C)c1ccc(/C=C2/OC(=O)C(C(=O)C=Cc3ccc(C[NH+](C)C)cc3)=CC2=O)cc1

>  <Energy>  (80) 
83.84069721144958

>  <Genealogy>  (80) 
CN(C)c1ccc(C=C2OC(=O)C(C(=O)C=Cc3ccc(C[NH+](C)C)cc3)=CC2=O)cc1 (protonated)
CN(C)c1ccc(/C=C2/OC(=O)C(C(=O)C=Cc3ccc(C[NH+](C)C)cc3)=CC2=O)cc1 (cis-trans isomerization)
CN(C)c1ccc(/C=C2/OC(=O)C(C(=O)C=Cc3ccc(C[NH+](C)C)cc3)=CC2=O)cc1 (3D coordinates assigned)
CN(C)c1ccc(/C=C2/OC(=O)C(C(=O)C=Cc3ccc(C[NH+](C)C)cc3)=CC2=O)cc1 (nonaromatic ring conformer: 83.84069721144958 kcal/mol)

>  <smiles>  (80) 
CN(C)Cc1ccc(C=CC(=O)C2=CC(=O)C(=Cc3ccc(N(C)C)cc3)OC2=O)cc1

>  <score_type>  (80) 
oracle

>  <origin>  (80) 
adg

>  <m_score__min__energy>  (80) 
-8.6300000000000008

>  <m_primary>  (80) 
energy

$$$$
80:0
     RDKit          3D

 37 39  0  0  0  0  0  0  0  0999 V2000
   60.9872   31.7408   51.3436 H   0  0  0  0  0  0  0  0  0  0  0  0
   60.8040   32.3970   50.4800 C   0  0  0  0  0  0  0  0  0  0  0  0
   61.4930   32.1830   49.2840 C   0  0  0  0  0  0  0  0  0  0  0  0
   62.2193   31.3600   49.2116 H   0  0  0  0  0  0  0  0  0  0  0  0
   61.2640   33.0140   48.1700 C   0  0  0  0  0  0  0  0  0  0  0  0
   61.9450   32.8270   46.9550 O   0  0  0  0  0  0  0  0  0  0  0  0
   63.3240   33.1120   46.7500 C   0  0  0  0  0  0  0  0  0  0  0  0
   63.8256   33.2157   47.7234 H   0  0  0  0  0  0  0  0  0  0  0  0
   63.7880   32.2908   46.1840 H   0  0  0  0  0  0  0  0  0  0  0  0
   63.4244   34.0499   46.1840 H   0  0  0  0  0  0  0  0  0  0  0  0
   60.3270   34.0630   48.2730 C   0  0  0  0  0  0  0  0  0  0  0  0
   60.0510   34.9650   47.0930 C   0  0  0  0  0  0  0  0  0  0  0  0
   59.1169   35.5176   47.2724 H   0  0  0  0  0  0  0  0  0  0  0  0
   60.8934   35.6630   46.9787 H   0  0  0  0  0  0  0  0  0  0  0  0
   59.9180   34.1850   45.8610 N   0  0  0  0  0  0  0  0  0  0  0  0
   60.5610   34.4190   45.0690 H   0  0  0  0  0  0  0  0  0  0  0  0
   59.0540   33.2250   45.7000 C   0  0  0  0  0  0  0  0  0  0  0  0
   57.4300   33.4370   44.9140 S   0  0  0  0  0  0  0  0  0  0  0  0
   57.6090   31.6840   44.4820 C   0  0  2  0  0  0  0  0  0  0  0  0
   58.1691   31.7000   43.5354 H   0  0  0  0  0  0  0  0  0  0  0  0
   56.3900   30.8450   44.1450 C   0  0  0  0  0  0  0  0  0  0  0  0
   56.0757   30.9927   43.1013 H   0  0  0  0  0  0  0  0  0  0  0  0
   55.4970   31.0893   44.7390 H   0  0  0  0  0  0  0  0  0  0  0  0
   57.0170   29.1920   44.4120 S   0  0  0  0  0  0  0  0  0  0  0  0
   57.3310   28.5010   43.1150 O   0  0  0  0  0  0  0  0  0  0  0  0
   56.0680   28.3700   45.2380 O   0  0  0  0  0  0  0  0  0  0  0  0
   58.5070   29.5900   45.3190 C   0  0  0  0  0  0  0  0  0  0  0  0
   59.4017   29.4959   44.6860 H   0  0  0  0  0  0  0  0  0  0  0  0
   58.7057   28.9277   46.1745 H   0  0  0  0  0  0  0  0  0  0  0  0
   58.2430   31.0360   45.6980 C   0  0  1  0  0  0  0  0  0  0  0  0
   57.6421   30.9787   46.6176 H   0  0  0  0  0  0  0  0  0  0  0  0
   59.3790   31.8700   46.0190 N   0  0  0  0  0  0  0  0  0  0  0  0
   60.1720   31.5800   46.6340 H   0  0  0  0  0  0  0  0  0  0  0  0
   59.6470   34.2730   49.4850 C   0  0  0  0  0  0  0  0  0  0  0  0
   58.9238   35.0974   49.5703 H   0  0  0  0  0  0  0  0  0  0  0  0
   59.8840   33.4410   50.5820 C   0  0  0  0  0  0  0  0  0  0  0  0
   59.0220   33.7070   52.0860 Cl  0  0  0  0  0  0  0  0  0  0  0  0
  1  2  1  0
  2  3  2  0
  3  4  1  0
  3  5  1  0
  5  6  1  0
  6  7  1  0
  7  8  1  0
  7  9  1  0
  7 10  1  0
  5 11  2  0
 11 12  1  0
 12 13  1  0
 12 14  1  0
 12 15  1  0
 15 16  1  0
 15 17  2  0
 17 18  1  0
 18 19  1  0
 19 20  1  6
 19 21  1  0
 21 22  1  0
 21 23  1  0
 21 24  1  0
 24 25  2  0
 24 26  2  0
 24 27  1  0
 27 28  1  0
 27 29  1  0
 27 30  1  0
 30 31  1  1
 30 32  1  0
 32 33  1  0
 11 34  1  0
 34 35  1  0
 34 36  2  0
 36 37  1  0
 36  2  1  0
 32 17  1  0
 30 19  1  0
M  CHG  1  15   1
M  END
>  <UniqueID>  (81) 
76

>  <SMILES>  (81) 
COc1ccc(Cl)cc1C/[NH+]=C1/N[C@@H]2CS(=O)(=O)C[C@H]2S1

>  <Energy>  (81) 
56.29915639163441

>  <Genealogy>  (81) 
COc1ccc(Cl)cc1C[NH+]=C1NC2CS(=O)(=O)CC2S1 (protonated)
COc1ccc(Cl)cc1C[NH+]=C1N[C@@H]2CS(=O)(=O)C[C@H]2S1 (chirality)
COc1ccc(Cl)cc1C/[NH+]=C1/N[C@@H]2CS(=O)(=O)C[C@H]2S1 (cis-trans isomerization)
COc1ccc(Cl)cc1C/[NH+]=C1/N[C@@H]2CS(=O)(=O)C[C@H]2S1 (3D coordinates assigned)
COc1ccc(Cl)cc1C/[NH+]=C1/N[C@@H]2CS(=O)(=O)C[C@H]2S1 (nonaromatic ring conformer: 56.29915639163441 kcal/mol)

>  <smiles>  (81) 
COc1ccc(Cl)cc1CN=C1NC2CS(=O)(=O)CC2S1

>  <score_type>  (81) 
oracle

>  <origin>  (81) 
adg

>  <m_score__min__energy>  (81) 
-5.6299999999999999

>  <m_primary>  (81) 
energy

$$$$
81:0
     RDKit          3D

 56 60  0  0  0  0  0  0  0  0999 V2000
   58.1030   30.2100   44.3200 C   0  0  0  0  0  0  0  0  0  0  0  0
   58.4550   29.6810   45.5020 C   0  0  0  0  0  0  0  0  0  0  0  0
   58.1750   28.3860   45.9670 C   0  0  0  0  0  0  0  0  0  0  0  0
   57.7150   27.2960   45.3240 C   0  0  0  0  0  0  0  0  0  0  0  0
   57.1990   26.0760   45.9680 C   0  0  0  0  0  0  0  0  0  0  0  0
   57.9660   25.0980   46.4840 N   0  0  0  0  0  0  0  0  0  0  0  0
   57.0690   24.2790   47.0750 C   0  0  0  0  0  0  0  0  0  0  0  0
   57.4060   23.2200   47.6670 O   0  0  0  0  0  0  0  0  0  0  0  0
   55.7860   24.6890   46.9920 N   0  0  0  0  0  0  0  0  0  0  0  0
   55.8890   25.8360   46.3010 C   0  0  0  0  0  0  0  0  0  0  0  0
   54.8080   26.6480   45.9850 O   0  0  0  0  0  0  0  0  0  0  0  0
   58.4850   28.3840   47.3180 C   0  0  0  0  0  0  0  0  0  0  0  0
   59.0080   29.6270   47.6110 C   0  0  0  0  0  0  0  0  0  0  0  0
   59.4840   30.0520   48.9660 C   0  0  0  0  0  0  0  0  0  0  0  0
   58.9940   30.4130   46.5120 N   0  0  0  0  0  0  0  0  0  0  0  0
   59.4140   31.7880   46.4590 C   0  0  0  0  0  0  0  0  0  0  0  0
   60.7360   32.1330   46.7810 C   0  0  0  0  0  0  0  0  0  0  0  0
   61.1610   33.4720   46.7190 C   0  0  0  0  0  0  0  0  0  0  0  0
   62.5560   33.8290   47.0690 C   0  0  0  0  0  0  0  0  0  0  0  0
   63.3030   34.3500   46.1960 O   0  0  0  0  0  0  0  0  0  0  0  0
   63.0800   33.5750   48.3860 N   0  0  0  0  0  0  0  0  0  0  0  0
   62.2470   33.8280   49.5580 C   0  0  0  0  0  0  0  0  0  0  0  0
   63.1270   34.2910   50.7210 C   0  0  0  0  0  0  0  0  0  0  0  0
   64.3060   33.4300   50.9420 N   0  0  0  0  0  0  0  0  0  0  0  0
   64.0370   32.1760   51.6490 C   0  0  0  0  0  0  0  0  0  0  0  0
   65.1750   31.2210   51.2870 C   0  0  0  0  0  0  0  0  0  0  0  0
   65.9720   31.9260   50.1930 C   0  0  0  0  0  0  0  0  0  0  0  0
   65.0810   33.0790   49.7450 C   0  0  1  0  0  0  0  0  0  0  0  0
   64.1900   32.6410   48.5600 C   0  0  0  0  0  0  0  0  0  0  0  0
   60.2390   34.4650   46.3490 C   0  0  0  0  0  0  0  0  0  0  0  0
   58.9220   34.1230   46.0290 C   0  0  0  0  0  0  0  0  0  0  0  0
   58.5090   32.7910   46.0790 C   0  0  0  0  0  0  0  0  0  0  0  0
   57.2330   32.4720   45.7510 F   0  0  0  0  0  0  0  0  0  0  0  0
   58.3857   31.2443   44.0743 H   0  0  0  0  0  0  0  0  0  0  0  0
   57.5318   29.6094   43.5969 H   0  0  0  0  0  0  0  0  0  0  0  0
   57.7255   27.3186   44.2243 H   0  0  0  0  0  0  0  0  0  0  0  0
   58.3416   27.5510   48.0219 H   0  0  0  0  0  0  0  0  0  0  0  0
   58.9007   29.5312   49.7396 H   0  0  0  0  0  0  0  0  0  0  0  0
   60.5486   29.7985   49.0768 H   0  0  0  0  0  0  0  0  0  0  0  0
   59.3523   31.1385   49.0768 H   0  0  0  0  0  0  0  0  0  0  0  0
   61.4456   31.3492   47.0844 H   0  0  0  0  0  0  0  0  0  0  0  0
   61.5104   34.6101   49.3220 H   0  0  0  0  0  0  0  0  0  0  0  0
   61.7231   32.9031   49.8411 H   0  0  0  0  0  0  0  0  0  0  0  0
   63.4758   35.3126   50.5094 H   0  0  0  0  0  0  0  0  0  0  0  0
   62.5133   34.2422   51.6326 H   0  0  0  0  0  0  0  0  0  0  0  0
   64.0169   32.3488   52.7351 H   0  0  0  0  0  0  0  0  0  0  0  0
   63.0607   31.7587   51.3615 H   0  0  0  0  0  0  0  0  0  0  0  0
   65.8113   31.0323   52.1642 H   0  0  0  0  0  0  0  0  0  0  0  0
   64.7951   30.2457   50.9487 H   0  0  0  0  0  0  0  0  0  0  0  0
   66.9252   32.3046   50.5906 H   0  0  0  0  0  0  0  0  0  0  0  0
   66.2261   31.2504   49.3630 H   0  0  0  0  0  0  0  0  0  0  0  0
   65.6447   33.9475   49.3735 H   0  0  0  0  0  0  0  0  0  0  0  0
   64.7938   32.6200   47.6407 H   0  0  0  0  0  0  0  0  0  0  0  0
   63.7850   31.6398   48.7686 H   0  0  0  0  0  0  0  0  0  0  0  0
   60.5552   35.5179   46.3108 H   0  0  0  0  0  0  0  0  0  0  0  0
   58.2081   34.9071   45.7365 H   0  0  0  0  0  0  0  0  0  0  0  0
  1  2  2  0
  2  3  1  0
  3  4  2  3
  4  5  1  0
  5  6  1  0
  6  7  1  0
  7  8  2  0
  7  9  1  0
  9 10  1  0
 10 11  1  0
  3 12  1  0
 12 13  2  0
 13 14  1  0
 13 15  1  0
 15 16  1  0
 16 17  2  0
 17 18  1  0
 18 19  1  0
 19 20  2  0
 19 21  1  0
 21 22  1  0
 22 23  1  0
 23 24  1  0
 24 25  1  0
 25 26  1  0
 26 27  1  0
 27 28  1  0
 28 29  1  0
 18 30  2  0
 30 31  1  0
 31 32  2  0
 32 33  1  0
 15  2  1  0
 32 16  1  0
 10  5  2  0
 29 21  1  0
 28 24  1  0
  1 34  1  0
  1 35  1  0
  4 36  1  0
 12 37  1  0
 14 38  1  0
 14 39  1  0
 14 40  1  0
 17 41  1  0
 22 42  1  0
 22 43  1  0
 23 44  1  0
 23 45  1  0
 25 46  1  0
 25 47  1  0
 26 48  1  0
 26 49  1  0
 27 50  1  0
 27 51  1  0
 28 52  1  6
 29 53  1  0
 29 54  1  0
 30 55  1  0
 31 56  1  0
M  CHG  3   6  -1   9  -1  11  -1
M  END
>  <UniqueID>  (82) 
77

>  <SMILES>  (82) 
C=c1c(=Cc2[n-]c(=O)[n-]c2[O-])cc(C)n1-c1cc(C(=O)N2CCN3CCC[C@H]3C2)ccc1F

>  <Energy>  (82) 
146.21873912851356

>  <Genealogy>  (82) 
C=c1c(=Cc2[n-]c(=O)[n-]c2[O-])cc(C)n1-c1cc(C(=O)N2CCN3CCCC3C2)ccc1F (protonated)
C=c1c(=Cc2[n-]c(=O)[n-]c2[O-])cc(C)n1-c1cc(C(=O)N2CCN3CCC[C@H]3C2)ccc1F (chirality)
C=c1c(=Cc2[n-]c(=O)[n-]c2[O-])cc(C)n1-c1cc(C(=O)N2CCN3CCC[C@H]3C2)ccc1F (3D coordinates assigned)
C=c1c(=Cc2[n-]c(=O)[n-]c2[O-])cc(C)n1-c1cc(C(=O)N2CCN3CCC[C@H]3C2)ccc1F (nonaromatic ring conformer: 146.21873912851356 kcal/mol)

>  <smiles>  (82) 
C=c1c(=Cc2[nH]c(=O)[nH]c2O)cc(C)n1-c1cc(C(=O)N2CCN3CCCC3C2)ccc1F

>  <score_type>  (82) 
oracle

>  <origin>  (82) 
adg

>  <m_score__min__energy>  (82) 
-17.68

>  <m_primary>  (82) 
energy

$$$$
82:0
     RDKit          3D

 62 65  0  0  0  0  0  0  0  0999 V2000
   56.6710   24.6400   47.3510 C   0  0  0  0  0  0  0  0  0  0  0  0
   56.8520   25.9810   46.6700 C   0  0  0  0  0  0  0  0  0  0  0  0
   58.1100   26.6480   46.6530 C   0  0  0  0  0  0  0  0  0  0  0  0
   59.3400   25.9310   47.1790 C   0  0  0  0  0  0  0  0  0  0  0  0
   58.1920   27.9700   46.1070 C   0  0  0  0  0  0  0  0  0  0  0  0
   59.3510   28.7980   46.2060 C   0  0  0  0  0  0  0  0  0  0  0  0
   60.4550   28.3910   46.9710 O   0  0  0  0  0  0  0  0  0  0  0  0
   60.9190   29.0250   48.1620 C   0  0  0  0  0  0  0  0  0  0  0  0
   60.2320   28.4360   49.3500 C   0  0  0  0  0  0  0  0  0  0  0  0
   60.4880   27.2520   49.7010 O   0  0  0  0  0  0  0  0  0  0  0  0
   59.2790   29.2270   50.0730 N   0  0  0  0  0  0  0  0  0  0  0  0
   59.2730   30.6560   50.2080 C   0  0  0  0  0  0  0  0  0  0  0  0
   58.6560   31.2190   51.3320 C   0  0  0  0  0  0  0  0  0  0  0  0
   58.6460   32.6040   51.5160 C   0  0  0  0  0  0  0  0  0  0  0  0
   59.2670   33.4380   50.5850 C   0  0  0  0  0  0  0  0  0  0  0  0
   59.9090   32.8900   49.4670 C   0  0  0  0  0  0  0  0  0  0  0  0
   60.7250   33.9280   48.2980 S   0  0  0  0  0  0  0  0  0  0  0  0
   61.6630   33.1120   47.4520 O   0  0  0  0  0  0  0  0  0  0  0  0
   61.5230   34.9570   49.0480 O   0  0  0  0  0  0  0  0  0  0  0  0
   59.5480   34.7180   47.2740 N   0  0  0  0  0  0  0  0  0  0  0  0
   60.0230   34.7010   45.8670 C   0  0  0  0  0  0  0  0  0  0  0  0
   58.8730   34.9410   44.8820 C   0  0  0  0  0  0  0  0  0  0  0  0
   57.8140   33.8290   44.9850 C   0  0  0  0  0  0  0  0  0  0  0  0
   57.8020   33.1450   46.3630 C   0  0  0  0  0  0  0  0  0  0  0  0
   58.1940   34.1330   47.4720 C   0  0  0  0  0  0  0  0  0  0  0  0
   59.9190   31.5000   49.2840 C   0  0  0  0  0  0  0  0  0  0  0  0
   59.3660   30.0490   45.5600 C   0  0  0  0  0  0  0  0  0  0  0  0
   58.2520   30.5110   44.8690 C   0  0  0  0  0  0  0  0  0  0  0  0
   57.0840   29.7490   44.8140 C   0  0  0  0  0  0  0  0  0  0  0  0
   55.8730   30.2900   44.1010 C   0  0  0  0  0  0  0  0  0  0  0  0
   57.0470   28.4890   45.4420 C   0  0  0  0  0  0  0  0  0  0  0  0
   55.8950   27.7730   45.4080 N   0  0  0  0  0  0  0  0  0  0  0  0
   55.7640   26.5660   46.0000 C   0  0  0  0  0  0  0  0  0  0  0  0
   54.6510   25.9750   45.9320 O   0  0  0  0  0  0  0  0  0  0  0  0
   56.6896   24.7775   48.4422 H   0  0  0  0  0  0  0  0  0  0  0  0
   55.7059   24.2045   47.0526 H   0  0  0  0  0  0  0  0  0  0  0  0
   57.4861   23.9643   47.0526 H   0  0  0  0  0  0  0  0  0  0  0  0
   59.3266   25.9388   48.2789 H   0  0  0  0  0  0  0  0  0  0  0  0
   59.3401   24.8913   46.8197 H   0  0  0  0  0  0  0  0  0  0  0  0
   60.2447   26.4432   46.8197 H   0  0  0  0  0  0  0  0  0  0  0  0
   62.0046   28.8747   48.2564 H   0  0  0  0  0  0  0  0  0  0  0  0
   60.6965   30.1010   48.1106 H   0  0  0  0  0  0  0  0  0  0  0  0
   58.1757   30.5660   52.0756 H   0  0  0  0  0  0  0  0  0  0  0  0
   58.1480   33.0376   52.3958 H   0  0  0  0  0  0  0  0  0  0  0  0
   59.2523   34.5284   50.7295 H   0  0  0  0  0  0  0  0  0  0  0  0
   59.5100   35.7180   47.5820 H   0  0  0  0  0  0  0  0  0  0  0  0
   60.7772   35.4908   45.7350 H   0  0  0  0  0  0  0  0  0  0  0  0
   60.4529   33.7098   45.6602 H   0  0  0  0  0  0  0  0  0  0  0  0
   58.4014   35.9084   45.1092 H   0  0  0  0  0  0  0  0  0  0  0  0
   59.2819   34.9406   43.8608 H   0  0  0  0  0  0  0  0  0  0  0  0
   56.8227   34.2693   44.8022 H   0  0  0  0  0  0  0  0  0  0  0  0
   58.0636   33.0627   44.2363 H   0  0  0  0  0  0  0  0  0  0  0  0
   56.7914   32.7604   46.5648 H   0  0  0  0  0  0  0  0  0  0  0  0
   58.5326   32.3227   46.3522 H   0  0  0  0  0  0  0  0  0  0  0  0
   57.4578   34.9501   47.4905 H   0  0  0  0  0  0  0  0  0  0  0  0
   58.2105   33.5756   48.4202 H   0  0  0  0  0  0  0  0  0  0  0  0
   60.4341   31.0664   48.4142 H   0  0  0  0  0  0  0  0  0  0  0  0
   60.2729   30.6700   45.6028 H   0  0  0  0  0  0  0  0  0  0  0  0
   58.2913   31.4859   44.3610 H   0  0  0  0  0  0  0  0  0  0  0  0
   55.1298   30.6220   44.8409 H   0  0  0  0  0  0  0  0  0  0  0  0
   56.1686   31.1416   43.4707 H   0  0  0  0  0  0  0  0  0  0  0  0
   55.4360   29.5016   43.4707 H   0  0  0  0  0  0  0  0  0  0  0  0
  1  2  1  0
  2  3  2  0
  3  4  1  0
  3  5  1  0
  5  6  2  0
  6  7  1  0
  7  8  1  0
  8  9  1  0
  9 10  2  0
  9 11  1  0
 11 12  1  0
 12 13  2  0
 13 14  1  0
 14 15  2  0
 15 16  1  0
 16 17  1  0
 17 18  2  0
 17 19  2  0
 17 20  1  0
 20 21  1  0
 21 22  1  0
 22 23  1  0
 23 24  1  0
 24 25  1  0
 16 26  2  0
  6 27  1  0
 27 28  2  0
 28 29  1  0
 29 30  1  0
 29 31  2  0
 31 32  1  0
 32 33  1  0
 33 34  2  0
 33  2  1  0
 31  5  1  0
 26 12  1  0
 25 20  1  0
  1 35  1  0
  1 36  1  0
  1 37  1  0
  4 38  1  0
  4 39  1  0
  4 40  1  0
  8 41  1  0
  8 42  1  0
 13 43  1  0
 14 44  1  0
 15 45  1  0
 20 46  1  0
 21 47  1  0
 21 48  1  0
 22 49  1  0
 22 50  1  0
 23 51  1  0
 23 52  1  0
 24 53  1  0
 24 54  1  0
 25 55  1  0
 25 56  1  0
 26 57  1  0
 27 58  1  0
 28 59  1  0
 30 60  1  0
 30 61  1  0
 30 62  1  0
M  CHG  3  11  -1  20   1  32  -1
M  END
>  <UniqueID>  (83) 
78

>  <SMILES>  (83) 
Cc1c(C)c2c(OCC(=O)[N-]c3cccc(S(=O)(=O)[NH+]4CCCCC4)c3)ccc(C)c2[n-]c1=O

>  <Energy>  (83) 
86.2119563006787

>  <Genealogy>  (83) 
Cc1c(C)c2c(OCC(=O)[N-]c3cccc(S(=O)(=O)[NH+]4CCCCC4)c3)ccc(C)c2[n-]c1=O (protonated)
Cc1c(C)c2c(OCC(=O)[N-]c3cccc(S(=O)(=O)[NH+]4CCCCC4)c3)ccc(C)c2[n-]c1=O (3D coordinates assigned)
Cc1c(C)c2c(OCC(=O)[N-]c3cccc(S(=O)(=O)[NH+]4CCCCC4)c3)ccc(C)c2[n-]c1=O (nonaromatic ring conformer: 86.2119563006787 kcal/mol)

>  <smiles>  (83) 
Cc1c(C)c2c(OCC(=O)Nc3cccc(S(=O)(=O)N4CCCCC4)c3)ccc(C)c2[nH]c1=O

>  <score_type>  (83) 
oracle

>  <origin>  (83) 
adg

>  <m_score__min__energy>  (83) 
-11.58

>  <m_primary>  (83) 
energy

$$$$
83:0
     RDKit          3D

 47 49  0  0  0  0  0  0  0  0999 V2000
   63.6660   33.4330   48.3030 C   0  0  0  0  0  0  0  0  0  0  0  0
   62.5270   34.1730   48.6800 O   0  0  0  0  0  0  0  0  0  0  0  0
   61.9300   33.5670   49.8060 C   0  0  0  0  0  0  0  0  0  0  0  0
   63.0060   32.8400   50.6090 C   0  0  0  0  0  0  0  0  0  0  0  0
   62.8630   31.3950   50.4670 N   0  0  0  0  0  0  0  0  0  0  0  0
   61.8870   30.6140   51.1680 C   0  0  0  0  0  0  0  0  0  0  0  0
   61.4690   30.9930   52.2960 O   0  0  0  0  0  0  0  0  0  0  0  0
   61.3590   29.3730   50.5620 C   0  0  0  0  0  0  0  0  0  0  0  0
   61.5570   28.0990   51.1040 C   0  0  0  0  0  0  0  0  0  0  0  0
   62.3410   27.7760   52.2560 N   0  0  0  0  0  0  0  0  0  0  0  0
   60.8550   26.9480   50.1080 S   0  0  0  0  0  0  0  0  0  0  0  0
   60.2620   28.0300   48.9650 C   0  0  0  0  0  0  0  0  0  0  0  0
   59.4710   27.6260   47.7880 C   0  0  0  0  0  0  0  0  0  0  0  0
   58.5470   26.7790   47.9240 O   0  0  0  0  0  0  0  0  0  0  0  0
   59.7030   28.2420   46.5160 N   0  0  0  0  0  0  0  0  0  0  0  0
   58.7430   28.9610   45.7300 C   0  0  0  0  0  0  0  0  0  0  0  0
   59.1920   30.0130   44.9200 C   0  0  0  0  0  0  0  0  0  0  0  0
   58.2910   30.7200   44.1160 C   0  0  0  0  0  0  0  0  0  0  0  0
   56.9390   30.3700   44.1070 C   0  0  0  0  0  0  0  0  0  0  0  0
   56.4860   29.3080   44.8950 C   0  0  0  0  0  0  0  0  0  0  0  0
   55.1420   28.9560   44.8770 O   0  0  0  0  0  0  0  0  0  0  0  0
   57.3840   28.6000   45.7000 C   0  0  0  0  0  0  0  0  0  0  0  0
   60.6280   29.3300   49.3480 C   0  0  0  0  0  0  0  0  0  0  0  0
   60.3080   30.5320   48.5470 C   0  0  0  0  0  0  0  0  0  0  0  0
   61.2100   30.9990   47.5780 C   0  0  0  0  0  0  0  0  0  0  0  0
   60.9020   32.1340   46.8210 C   0  0  0  0  0  0  0  0  0  0  0  0
   59.6930   32.8080   47.0280 C   0  0  0  0  0  0  0  0  0  0  0  0
   59.2740   34.3600   45.9960 Br  0  0  0  0  0  0  0  0  0  0  0  0
   58.7910   32.3460   47.9910 C   0  0  0  0  0  0  0  0  0  0  0  0
   59.0940   31.2090   48.7470 C   0  0  0  0  0  0  0  0  0  0  0  0
   64.1949   33.0894   49.2043 H   0  0  0  0  0  0  0  0  0  0  0  0
   63.3567   32.5629   47.7053 H   0  0  0  0  0  0  0  0  0  0  0  0
   64.3353   34.0692   47.7053 H   0  0  0  0  0  0  0  0  0  0  0  0
   61.4595   34.3382   50.4336 H   0  0  0  0  0  0  0  0  0  0  0  0
   61.1628   32.8499   49.4787 H   0  0  0  0  0  0  0  0  0  0  0  0
   63.9978   33.1431   50.2422 H   0  0  0  0  0  0  0  0  0  0  0  0
   62.8963   33.1050   51.6710 H   0  0  0  0  0  0  0  0  0  0  0  0
   62.6740   26.7960   52.3970 H   0  0  0  0  0  0  0  0  0  0  0  0
   62.6650   28.5070   52.9240 H   0  0  0  0  0  0  0  0  0  0  0  0
   60.2580   30.2842   44.9163 H   0  0  0  0  0  0  0  0  0  0  0  0
   58.6477   31.5518   43.4908 H   0  0  0  0  0  0  0  0  0  0  0  0
   56.2303   30.9303   43.4795 H   0  0  0  0  0  0  0  0  0  0  0  0
   57.0265   27.7584   46.3115 H   0  0  0  0  0  0  0  0  0  0  0  0
   62.1610   30.4712   47.4137 H   0  0  0  0  0  0  0  0  0  0  0  0
   61.6107   32.4973   46.0622 H   0  0  0  0  0  0  0  0  0  0  0  0
   57.8418   32.8774   48.1543 H   0  0  0  0  0  0  0  0  0  0  0  0
   58.3798   30.8442   49.4999 H   0  0  0  0  0  0  0  0  0  0  0  0
  1  2  1  0
  2  3  1  0
  3  4  1  0
  4  5  1  0
  5  6  1  0
  6  7  2  0
  6  8  1  0
  8  9  2  0
  9 10  1  0
  9 11  1  0
 11 12  1  0
 12 13  1  0
 13 14  2  0
 13 15  1  0
 15 16  1  0
 16 17  2  0
 17 18  1  0
 18 19  2  0
 19 20  1  0
 20 21  1  0
 20 22  2  0
 12 23  2  0
 23 24  1  0
 24 25  2  0
 25 26  1  0
 26 27  2  0
 27 28  1  0
 27 29  1  0
 29 30  2  0
 23  8  1  0
 30 24  1  0
 22 16  1  0
  1 31  1  0
  1 32  1  0
  1 33  1  0
  3 34  1  0
  3 35  1  0
  4 36  1  0
  4 37  1  0
 10 38  1  0
 10 39  1  0
 17 40  1  0
 18 41  1  0
 19 42  1  0
 22 43  1  0
 25 44  1  0
 26 45  1  0
 29 46  1  0
 30 47  1  0
M  CHG  3   5  -1  15  -1  21  -1
M  END
>  <UniqueID>  (84) 
79

>  <SMILES>  (84) 
COCC[N-]C(=O)c1c(N)sc(C(=O)[N-]c2cccc([O-])c2)c1-c1ccc(Br)cc1

>  <Energy>  (84) 
84.85081410665687

>  <Genealogy>  (84) 
COCC[N-]C(=O)c1c(N)sc(C(=O)[N-]c2cccc([O-])c2)c1-c1ccc(Br)cc1 (protonated)
COCC[N-]C(=O)c1c(N)sc(C(=O)[N-]c2cccc([O-])c2)c1-c1ccc(Br)cc1 (3D coordinates assigned)
COCC[N-]C(=O)c1c(N)sc(C(=O)[N-]c2cccc([O-])c2)c1-c1ccc(Br)cc1 (optimized conformer: 84.85081410665687 kcal/mol)

>  <smiles>  (84) 
COCCNC(=O)c1c(N)sc(C(=O)Nc2cccc(O)c2)c1-c1ccc(Br)cc1

>  <score_type>  (84) 
oracle

>  <origin>  (84) 
adg

>  <m_score__min__energy>  (84) 
-13.640000000000001

>  <m_primary>  (84) 
energy

$$$$
84:0
     RDKit          3D

 29 30  0  0  0  0  0  0  0  0999 V2000
   59.9390   27.6590   47.9300 O   0  0  0  0  0  0  0  0  0  0  0  0
   59.6410   27.1100   46.8330 C   0  0  0  0  0  0  0  0  0  0  0  0
   60.4900   27.2880   45.6940 N   0  0  0  0  0  0  0  0  0  0  0  0
   60.5520   28.5200   44.9160 C   0  0  0  0  0  0  0  0  0  0  0  0
   59.1770   29.1120   44.7660 C   0  0  0  0  0  0  0  0  0  0  0  0
   58.2040   28.4440   44.0050 C   0  0  0  0  0  0  0  0  0  0  0  0
   56.9180   28.9770   43.8800 C   0  0  0  0  0  0  0  0  0  0  0  0
   56.5900   30.1770   44.5170 C   0  0  0  0  0  0  0  0  0  0  0  0
   55.3090   30.7000   44.3890 O   0  0  0  0  0  0  0  0  0  0  0  0
   57.5510   30.8490   45.2840 C   0  0  0  0  0  0  0  0  0  0  0  0
   57.2160   32.0440   45.9190 O   0  0  0  0  0  0  0  0  0  0  0  0
   58.8410   30.3150   45.4090 C   0  0  0  0  0  0  0  0  0  0  0  0
   58.4160   26.2820   46.7290 C   0  0  0  0  0  0  0  0  0  0  0  0
   58.4710   24.8920   46.9510 C   0  0  0  0  0  0  0  0  0  0  0  0
   57.3140   24.1120   46.8540 C   0  0  0  0  0  0  0  0  0  0  0  0
   57.3810   22.7420   47.0750 O   0  0  0  0  0  0  0  0  0  0  0  0
   56.0920   24.7090   46.5350 C   0  0  0  0  0  0  0  0  0  0  0  0
   56.0230   26.0860   46.3130 C   0  0  0  0  0  0  0  0  0  0  0  0
   54.8070   26.6780   45.9970 O   0  0  0  0  0  0  0  0  0  0  0  0
   57.1770   26.8710   46.4090 C   0  0  0  0  0  0  0  0  0  0  0  0
   61.2037   29.2416   45.4303 H   0  0  0  0  0  0  0  0  0  0  0  0
   60.9550   28.2933   43.9179 H   0  0  0  0  0  0  0  0  0  0  0  0
   58.4551   27.4969   43.5050 H   0  0  0  0  0  0  0  0  0  0  0  0
   56.1621   28.4507   43.2787 H   0  0  0  0  0  0  0  0  0  0  0  0
   56.2540   32.3500   46.0000 H   0  0  0  0  0  0  0  0  0  0  0  0
   59.5944   30.8408   46.0139 H   0  0  0  0  0  0  0  0  0  0  0  0
   59.4306   24.4167   47.2024 H   0  0  0  0  0  0  0  0  0  0  0  0
   55.1833   24.0939   46.4586 H   0  0  0  0  0  0  0  0  0  0  0  0
   57.1165   27.9552   46.2335 H   0  0  0  0  0  0  0  0  0  0  0  0
  1  2  2  0
  2  3  1  0
  3  4  1  0
  4  5  1  0
  5  6  2  0
  6  7  1  0
  7  8  2  0
  8  9  1  0
  8 10  1  0
 10 11  1  0
 10 12  2  0
  2 13  1  0
 13 14  2  0
 14 15  1  0
 15 16  1  0
 15 17  2  0
 17 18  1  0
 18 19  1  0
 18 20  2  0
 12  5  1  0
 20 13  1  0
  4 21  1  0
  4 22  1  0
  6 23  1  0
  7 24  1  0
 11 25  1  0
 12 26  1  0
 14 27  1  0
 17 28  1  0
 20 29  1  0
M  CHG  4   3  -1   9  -1  16  -1  19  -1
M  END
>  <UniqueID>  (85) 
80

>  <SMILES>  (85) 
O=C([N-]Cc1ccc([O-])c(O)c1)c1cc([O-])cc([O-])c1

>  <Energy>  (85) 
28.355521566161222

>  <Genealogy>  (85) 
O=C([N-]Cc1ccc([O-])c(O)c1)c1cc([O-])cc([O-])c1 (protonated)
O=C([N-]Cc1ccc([O-])c(O)c1)c1cc([O-])cc([O-])c1 (3D coordinates assigned)
O=C([N-]Cc1ccc([O-])c(O)c1)c1cc([O-])cc([O-])c1 (optimized conformer: 28.355521566161222 kcal/mol)

>  <smiles>  (85) 
O=C(NCc1ccc(O)c(O)c1)c1cc(O)cc(O)c1

>  <score_type>  (85) 
oracle

>  <origin>  (85) 
adg

>  <m_score__min__energy>  (85) 
-14.5

>  <m_primary>  (85) 
energy

$$$$
85:0
     RDKit          3D

 63 67  0  0  0  0  0  0  0  0999 V2000
   56.1474   30.7697   44.5315 H   0  0  0  0  0  0  0  0  0  0  0  0
   56.4660   29.7170   44.5480 C   0  0  0  0  0  0  0  0  0  0  0  0
   55.7964   28.9336   44.1634 H   0  0  0  0  0  0  0  0  0  0  0  0
   57.6730   29.3880   45.0380 C   0  0  0  0  0  0  0  0  0  0  0  0
   58.2330   28.1020   45.1330 C   0  0  0  0  0  0  0  0  0  0  0  0
   57.7110   26.8830   44.8920 C   0  0  0  0  0  0  0  0  0  0  0  0
   57.6559   26.5602   43.8419 H   0  0  0  0  0  0  0  0  0  0  0  0
   57.2090   25.9470   45.9070 C   0  0  0  0  0  0  0  0  0  0  0  0
   57.9210   24.9300   46.4280 N   0  0  0  0  0  0  0  0  0  0  0  0
   57.0180   24.2870   47.2020 C   0  0  0  0  0  0  0  0  0  0  0  0
   57.3120   23.2700   47.8820 O   0  0  0  0  0  0  0  0  0  0  0  0
   55.7740   24.8130   47.1820 N   0  0  0  0  0  0  0  0  0  0  0  0
   55.9110   25.8540   46.3440 C   0  0  0  0  0  0  0  0  0  0  0  0
   54.8690   26.7000   45.9860 O   0  0  0  0  0  0  0  0  0  0  0  0
   59.5270   28.2760   45.5950 C   0  0  0  0  0  0  0  0  0  0  0  0
   60.2728   27.4855   45.7651 H   0  0  0  0  0  0  0  0  0  0  0  0
   59.7030   29.6260   45.8010 C   0  0  0  0  0  0  0  0  0  0  0  0
   60.9300   30.2330   46.4080 C   0  0  0  0  0  0  0  0  0  0  0  0
   60.8536   30.1952   47.5047 H   0  0  0  0  0  0  0  0  0  0  0  0
   61.8171   29.6698   46.0826 H   0  0  0  0  0  0  0  0  0  0  0  0
   61.0206   31.2799   46.0826 H   0  0  0  0  0  0  0  0  0  0  0  0
   58.5860   30.3040   45.4540 N   0  0  0  0  0  0  0  0  0  0  0  0
   58.4310   31.7370   45.5110 C   0  0  0  0  0  0  0  0  0  0  0  0
   58.2980   32.4520   44.3090 C   0  0  0  0  0  0  0  0  0  0  0  0
   58.2780   31.9104   43.3518 H   0  0  0  0  0  0  0  0  0  0  0  0
   58.1910   33.8440   44.3190 C   0  0  0  0  0  0  0  0  0  0  0  0
   58.0837   34.3937   43.3723 H   0  0  0  0  0  0  0  0  0  0  0  0
   58.2200   34.5380   45.5280 C   0  0  0  0  0  0  0  0  0  0  0  0
   58.1443   35.6354   45.5331 H   0  0  0  0  0  0  0  0  0  0  0  0
   58.3450   33.8420   46.7330 C   0  0  0  0  0  0  0  0  0  0  0  0
   58.3732   34.3968   47.6825 H   0  0  0  0  0  0  0  0  0  0  0  0
   58.4350   32.4400   46.7430 C   0  0  0  0  0  0  0  0  0  0  0  0
   58.5770   31.7460   48.0450 C   0  0  0  0  0  0  0  0  0  0  0  0
   58.4800   30.4890   48.0790 O   0  0  0  0  0  0  0  0  0  0  0  0
   58.8300   32.4690   49.2610 N   0  0  0  0  0  0  0  0  0  0  0  0
   59.8260   33.5490   49.2910 C   0  0  0  0  0  0  0  0  0  0  0  0
   60.4043   33.5422   48.3553 H   0  0  0  0  0  0  0  0  0  0  0  0
   59.3168   34.5183   49.3966 H   0  0  0  0  0  0  0  0  0  0  0  0
   60.7680   33.3320   50.4760 C   0  0  0  0  0  0  0  0  0  0  0  0
   61.2934   32.3751   50.3404 H   0  0  0  0  0  0  0  0  0  0  0  0
   61.4738   34.1752   50.5055 H   0  0  0  0  0  0  0  0  0  0  0  0
   60.0060   33.2980   51.8340 C   0  0  0  0  0  0  0  0  0  0  0  0
   60.0691   34.3149   52.2485 H   0  0  0  0  0  0  0  0  0  0  0  0
   60.6720   32.3230   52.8310 C   0  0  0  0  0  0  0  0  0  0  0  0
   61.6616   32.7172   53.1055 H   0  0  0  0  0  0  0  0  0  0  0  0
   60.0180   32.2391   53.7115 H   0  0  0  0  0  0  0  0  0  0  0  0
   60.8430   30.9440   52.2460 C   0  0  0  0  0  0  0  0  0  0  0  0
   61.9950   30.6190   51.5090 C   0  0  0  0  0  0  0  0  0  0  0  0
   62.7742   31.3785   51.3478 H   0  0  0  0  0  0  0  0  0  0  0  0
   62.1550   29.3350   50.9800 C   0  0  0  0  0  0  0  0  0  0  0  0
   63.0575   29.0878   50.4017 H   0  0  0  0  0  0  0  0  0  0  0  0
   61.1690   28.3640   51.1850 C   0  0  0  0  0  0  0  0  0  0  0  0
   61.3250   27.1200   50.6680 F   0  0  0  0  0  0  0  0  0  0  0  0
   60.0230   28.6780   51.9220 C   0  0  0  0  0  0  0  0  0  0  0  0
   59.2483   27.9142   52.0843 H   0  0  0  0  0  0  0  0  0  0  0  0
   59.8600   29.9610   52.4530 C   0  0  0  0  0  0  0  0  0  0  0  0
   58.9585   30.2022   53.0353 H   0  0  0  0  0  0  0  0  0  0  0  0
   58.4980   32.9680   51.6660 C   0  0  0  0  0  0  0  0  0  0  0  0
   58.1261   32.5254   52.6019 H   0  0  0  0  0  0  0  0  0  0  0  0
   57.9725   33.9047   51.4286 H   0  0  0  0  0  0  0  0  0  0  0  0
   58.2430   31.9820   50.5180 C   0  0  0  0  0  0  0  0  0  0  0  0
   58.6930   31.0109   50.7720 H   0  0  0  0  0  0  0  0  0  0  0  0
   57.1564   31.8806   50.3797 H   0  0  0  0  0  0  0  0  0  0  0  0
  1  2  1  0
  2  3  1  0
  2  4  2  0
  4  5  1  0
  5  6  2  0
  6  7  1  0
  6  8  1  0
  8  9  1  0
  9 10  1  0
 10 11  2  0
 10 12  1  0
 12 13  1  0
 13 14  1  0
  5 15  1  0
 15 16  1  0
 15 17  2  0
 17 18  1  0
 18 19  1  0
 18 20  1  0
 18 21  1  0
 17 22  1  0
 22 23  1  0
 23 24  2  0
 24 25  1  0
 24 26  1  0
 26 27  1  0
 26 28  2  0
 28 29  1  0
 28 30  1  0
 30 31  1  0
 30 32  2  0
 32 33  1  0
 33 34  2  0
 33 35  1  0
 35 36  1  0
 36 37  1  0
 36 38  1  0
 36 39  1  0
 39 40  1  0
 39 41  1  0
 39 42  1  0
 42 43  1  0
 42 44  1  0
 44 45  1  0
 44 46  1  0
 44 47  1  0
 47 48  2  0
 48 49  1  0
 48 50  1  0
 50 51  1  0
 50 52  2  0
 52 53  1  0
 52 54  1  0
 54 55  1  0
 54 56  2  0
 56 57  1  0
 42 58  1  0
 58 59  1  0
 58 60  1  0
 58 61  1  0
 61 62  1  0
 61 63  1  0
 22  4  1  0
 32 23  1  0
 61 35  1  0
 13  8  2  0
 56 47  1  0
M  CHG  3   9  -1  12  -1  14  -1
M  END
>  <UniqueID>  (86) 
81

>  <SMILES>  (86) 
C=c1/c(=C\c2[n-]c(=O)[n-]c2[O-])cc(C)n1-c1ccccc1C(=O)N1CCC(Cc2ccc(F)cc2)CC1

>  <Energy>  (86) 
147.6059631778888

>  <Genealogy>  (86) 
C=c1c(=Cc2[n-]c(=O)[n-]c2[O-])cc(C)n1-c1ccccc1C(=O)N1CCC(Cc2ccc(F)cc2)CC1 (protonated)
C=c1/c(=C\c2[n-]c(=O)[n-]c2[O-])cc(C)n1-c1ccccc1C(=O)N1CCC(Cc2ccc(F)cc2)CC1 (cis-trans isomerization)
C=c1/c(=C\c2[n-]c(=O)[n-]c2[O-])cc(C)n1-c1ccccc1C(=O)N1CCC(Cc2ccc(F)cc2)CC1 (3D coordinates assigned)
C=c1/c(=C\c2[n-]c(=O)[n-]c2[O-])cc(C)n1-c1ccccc1C(=O)N1CCC(Cc2ccc(F)cc2)CC1 (nonaromatic ring conformer: 147.6059631778888 kcal/mol)

>  <smiles>  (86) 
C=c1c(=Cc2[nH]c(=O)[nH]c2O)cc(C)n1-c1ccccc1C(=O)N1CCC(Cc2ccc(F)cc2)CC1

>  <score_type>  (86) 
oracle

>  <origin>  (86) 
adg

>  <m_score__min__energy>  (86) 
-18.370000000000001

>  <m_primary>  (86) 
energy

$$$$
86:0
     RDKit          3D

 61 63  0  0  0  0  0  0  0  0999 V2000
   60.5230   29.5440   47.9760 C   0  0  0  0  0  0  0  0  0  0  0  0
   60.1000   29.3090   49.2210 C   0  0  0  0  0  0  0  0  0  0  0  0
   58.7790   29.8270   49.7190 C   0  0  0  0  0  0  0  0  0  0  0  0
   58.9620   31.1680   50.3810 C   0  0  0  0  0  0  0  0  0  0  0  0
   60.2080   31.8130   50.3060 C   0  0  0  0  0  0  0  0  0  0  0  0
   60.4220   33.0460   50.9350 C   0  0  0  0  0  0  0  0  0  0  0  0
   61.6950   33.6300   50.8120 O   0  0  0  0  0  0  0  0  0  0  0  0
   62.2510   34.2220   49.6370 C   0  0  0  0  0  0  0  0  0  0  0  0
   62.9380   33.1740   48.7510 C   0  0  0  0  0  0  0  0  0  0  0  0
   62.0270   32.6550   47.6300 C   0  0  0  0  0  0  0  0  0  0  0  0
   61.5440   33.7840   46.7080 C   0  0  0  0  0  0  0  0  0  0  0  0
   60.3250   34.4440   47.2340 N   0  0  0  0  0  0  0  0  0  0  0  0
   59.3640   33.4880   47.7920 C   0  0  0  0  0  0  0  0  0  0  0  0
   58.8060   32.5270   46.7350 C   0  0  0  0  0  0  0  0  0  0  0  0
   58.5730   33.1230   45.3980 N   0  0  0  0  0  0  0  0  0  0  0  0
   57.9800   32.2720   44.3490 C   0  0  0  0  0  0  0  0  0  0  0  0
   57.9560   32.7280   43.0020 C   0  0  0  0  0  0  0  0  0  0  0  0
   57.4180   31.9600   41.9730 C   0  0  0  0  0  0  0  0  0  0  0  0
   56.8790   30.7110   42.2410 C   0  0  0  0  0  0  0  0  0  0  0  0
   56.8670   30.2270   43.5440 C   0  0  0  0  0  0  0  0  0  0  0  0
   57.4010   30.9830   44.6100 C   0  0  0  0  0  0  0  0  0  0  0  0
   57.3550   30.4640   45.9150 O   0  0  0  0  0  0  0  0  0  0  0  0
   57.7900   29.1650   46.3050 C   0  0  0  0  0  0  0  0  0  0  0  0
   59.0280   34.4980   45.0820 C   0  0  0  0  0  0  0  0  0  0  0  0
   59.6280   35.2880   46.2560 C   0  0  0  0  0  0  0  0  0  0  0  0
   59.3640   33.6430   51.6480 C   0  0  0  0  0  0  0  0  0  0  0  0
   58.1280   33.0020   51.7410 C   0  0  0  0  0  0  0  0  0  0  0  0
   57.9190   31.7650   51.1170 C   0  0  0  0  0  0  0  0  0  0  0  0
   56.6820   31.1310   51.2250 O   0  0  0  0  0  0  0  0  0  0  0  0
   61.4946   29.1511   47.6419 H   0  0  0  0  0  0  0  0  0  0  0  0
   59.8997   30.1304   47.2848 H   0  0  0  0  0  0  0  0  0  0  0  0
   60.7348   28.7209   49.9001 H   0  0  0  0  0  0  0  0  0  0  0  0
   58.0868   29.9321   48.8706 H   0  0  0  0  0  0  0  0  0  0  0  0
   58.3689   29.1175   50.4528 H   0  0  0  0  0  0  0  0  0  0  0  0
   61.0283   31.3422   49.7444 H   0  0  0  0  0  0  0  0  0  0  0  0
   61.4449   34.7024   49.0630 H   0  0  0  0  0  0  0  0  0  0  0  0
   63.0051   34.9607   49.9462 H   0  0  0  0  0  0  0  0  0  0  0  0
   63.8307   33.6285   48.2966 H   0  0  0  0  0  0  0  0  0  0  0  0
   63.1974   32.3176   49.3907 H   0  0  0  0  0  0  0  0  0  0  0  0
   62.5858   31.9217   47.0299 H   0  0  0  0  0  0  0  0  0  0  0  0
   61.1423   32.1977   48.0972 H   0  0  0  0  0  0  0  0  0  0  0  0
   62.3431   34.5343   46.6159 H   0  0  0  0  0  0  0  0  0  0  0  0
   61.2985   33.3441   45.7301 H   0  0  0  0  0  0  0  0  0  0  0  0
   59.8664   32.8989   48.5734 H   0  0  0  0  0  0  0  0  0  0  0  0
   58.5191   34.0637   48.1978 H   0  0  0  0  0  0  0  0  0  0  0  0
   59.5200   31.6984   46.6181 H   0  0  0  0  0  0  0  0  0  0  0  0
   57.8192   32.2094   47.1029 H   0  0  0  0  0  0  0  0  0  0  0  0
   58.3752   33.7173   42.7662 H   0  0  0  0  0  0  0  0  0  0  0  0
   57.4205   32.3458   40.9429 H   0  0  0  0  0  0  0  0  0  0  0  0
   56.4616   30.1042   41.4240 H   0  0  0  0  0  0  0  0  0  0  0  0
   56.4335   29.2369   43.7482 H   0  0  0  0  0  0  0  0  0  0  0  0
   57.8118   29.0999   47.4029 H   0  0  0  0  0  0  0  0  0  0  0  0
   57.0954   28.4108   45.9067 H   0  0  0  0  0  0  0  0  0  0  0  0
   58.7987   28.9812   45.9067 H   0  0  0  0  0  0  0  0  0  0  0  0
   59.7936   34.4282   44.2953 H   0  0  0  0  0  0  0  0  0  0  0  0
   58.1260   35.0500   44.7791 H   0  0  0  0  0  0  0  0  0  0  0  0
   60.3446   36.0192   45.8536 H   0  0  0  0  0  0  0  0  0  0  0  0
   58.7914   35.7703   46.7827 H   0  0  0  0  0  0  0  0  0  0  0  0
   59.5128   34.6187   52.1336 H   0  0  0  0  0  0  0  0  0  0  0  0
   57.3112   33.4716   52.3087 H   0  0  0  0  0  0  0  0  0  0  0  0
   55.8230   31.5910   50.9410 H   0  0  0  0  0  0  0  0  0  0  0  0
  1  2  2  0
  2  3  1  0
  3  4  1  0
  4  5  2  0
  5  6  1  0
  6  7  1  0
  7  8  1  0
  8  9  1  0
  9 10  1  0
 10 11  1  0
 11 12  1  0
 12 13  1  0
 13 14  1  0
 14 15  1  0
 15 16  1  0
 16 17  2  0
 17 18  1  0
 18 19  2  0
 19 20  1  0
 20 21  2  0
 21 22  1  0
 22 23  1  0
 15 24  1  0
 24 25  1  0
  6 26  2  0
 26 27  1  0
 27 28  2  0
 28 29  1  0
 28  4  1  0
 25 12  1  0
 21 16  1  0
  1 30  1  0
  1 31  1  0
  2 32  1  0
  3 33  1  0
  3 34  1  0
  5 35  1  0
  8 36  1  0
  8 37  1  0
  9 38  1  0
  9 39  1  0
 10 40  1  0
 10 41  1  0
 11 42  1  0
 11 43  1  0
 13 44  1  0
 13 45  1  0
 14 46  1  0
 14 47  1  0
 17 48  1  0
 18 49  1  0
 19 50  1  0
 20 51  1  0
 23 52  1  0
 23 53  1  0
 23 54  1  0
 24 55  1  0
 24 56  1  0
 25 57  1  0
 25 58  1  0
 26 59  1  0
 27 60  1  0
 29 61  1  0
M  END
>  <UniqueID>  (87) 
82

>  <SMILES>  (87) 
C=CCc1cc(OCCCCN2CCN(c3ccccc3OC)CC2)ccc1O

>  <Energy>  (87) 
73.43091475425739

>  <Genealogy>  (87) 
C=CCc1cc(OCCCCN2CCN(c3ccccc3OC)CC2)ccc1O (3D coordinates assigned)
C=CCc1cc(OCCCCN2CCN(c3ccccc3OC)CC2)ccc1O (nonaromatic ring conformer: 73.43091475425739 kcal/mol)

>  <smiles>  (87) 
C=CCc1cc(OCCCCN2CCN(c3ccccc3OC)CC2)ccc1O

>  <score_type>  (87) 
oracle

>  <origin>  (87) 
adg

>  <m_score__min__energy>  (87) 
-7.9000000000000004

>  <m_primary>  (87) 
energy

$$$$
87:0
     RDKit          3D

 40 42  0  0  0  0  0  0  0  0999 V2000
   55.9950   28.6130   45.2140 O   0  0  0  0  0  0  0  0  0  0  0  0
   56.9730   28.0060   45.7300 C   0  0  0  0  0  0  0  0  0  0  0  0
   58.2840   28.6900   45.8050 C   0  0  0  0  0  0  0  0  0  0  0  0
   59.3610   28.2260   45.0340 C   0  0  0  0  0  0  0  0  0  0  0  0
   60.6070   28.8530   45.1140 C   0  0  0  0  0  0  0  0  0  0  0  0
   60.7950   29.9390   45.9730 C   0  0  0  0  0  0  0  0  0  0  0  0
   59.7320   30.4020   46.7670 C   0  0  0  0  0  0  0  0  0  0  0  0
   59.8810   31.5020   47.6730 N   0  0  0  0  0  0  0  0  0  0  0  0
   60.7080   32.9840   47.3210 S   0  0  0  0  0  0  0  0  0  0  0  0
   60.7710   33.8400   48.5550 O   0  0  0  0  0  0  0  0  0  0  0  0
   62.1020   32.6830   46.8440 O   0  0  0  0  0  0  0  0  0  0  0  0
   59.8330   33.8670   46.0360 C   0  0  0  0  0  0  0  0  0  0  0  0
   58.3360   33.5280   46.0050 C   0  0  0  0  0  0  0  0  0  0  0  0
   57.9530   32.7400   44.7770 C   0  0  0  0  0  0  0  0  0  0  0  0
   58.4900   33.0780   43.5240 C   0  0  0  0  0  0  0  0  0  0  0  0
   58.1160   32.3640   42.3820 C   0  0  0  0  0  0  0  0  0  0  0  0
   57.2050   31.3100   42.4810 C   0  0  0  0  0  0  0  0  0  0  0  0
   56.6650   30.9670   43.7240 C   0  0  0  0  0  0  0  0  0  0  0  0
   57.0360   31.6790   44.8700 C   0  0  0  0  0  0  0  0  0  0  0  0
   58.4840   29.7710   46.6810 C   0  0  0  0  0  0  0  0  0  0  0  0
   56.7650   26.6320   46.2260 C   0  0  0  0  0  0  0  0  0  0  0  0
   57.7620   25.8510   46.6830 N   0  0  0  0  0  0  0  0  0  0  0  0
   57.1420   24.6900   46.9850 C   0  0  0  0  0  0  0  0  0  0  0  0
   57.7530   23.6970   47.4570 O   0  0  0  0  0  0  0  0  0  0  0  0
   55.8150   24.6750   46.7350 N   0  0  0  0  0  0  0  0  0  0  0  0
   55.5920   25.9080   46.2480 C   0  0  0  0  0  0  0  0  0  0  0  0
   54.3500   26.3410   45.8020 O   0  0  0  0  0  0  0  0  0  0  0  0
   59.2235   27.3648   44.3637 H   0  0  0  0  0  0  0  0  0  0  0  0
   61.4433   28.4903   44.4983 H   0  0  0  0  0  0  0  0  0  0  0  0
   61.7767   30.4323   46.0278 H   0  0  0  0  0  0  0  0  0  0  0  0
   59.9466   34.9472   46.2100 H   0  0  0  0  0  0  0  0  0  0  0  0
   60.2642   33.5656   45.0700 H   0  0  0  0  0  0  0  0  0  0  0  0
   58.0891   32.9343   46.8975 H   0  0  0  0  0  0  0  0  0  0  0  0
   57.7767   34.4750   45.9852 H   0  0  0  0  0  0  0  0  0  0  0  0
   59.2075   33.9076   43.4410 H   0  0  0  0  0  0  0  0  0  0  0  0
   58.5401   32.6328   41.4033 H   0  0  0  0  0  0  0  0  0  0  0  0
   56.9124   30.7497   41.5808 H   0  0  0  0  0  0  0  0  0  0  0  0
   55.9478   30.1366   43.8012 H   0  0  0  0  0  0  0  0  0  0  0  0
   56.6087   31.4075   45.8466 H   0  0  0  0  0  0  0  0  0  0  0  0
   57.6512   30.1256   47.3061 H   0  0  0  0  0  0  0  0  0  0  0  0
  1  2  2  0
  2  3  1  0
  3  4  2  0
  4  5  1  0
  5  6  2  0
  6  7  1  0
  7  8  1  0
  8  9  1  0
  9 10  2  0
  9 11  2  0
  9 12  1  0
 12 13  1  0
 13 14  1  0
 14 15  2  0
 15 16  1  0
 16 17  2  0
 17 18  1  0
 18 19  2  0
  7 20  2  0
  2 21  1  0
 21 22  1  0
 22 23  1  0
 23 24  2  0
 23 25  1  0
 25 26  1  0
 26 27  1  0
 20  3  1  0
 26 21  2  0
 19 14  1  0
  4 28  1  0
  5 29  1  0
  6 30  1  0
 12 31  1  0
 12 32  1  0
 13 33  1  0
 13 34  1  0
 15 35  1  0
 16 36  1  0
 17 37  1  0
 18 38  1  0
 19 39  1  0
 20 40  1  0
M  CHG  4   8  -1  22  -1  25  -1  27  -1
M  END
>  <UniqueID>  (88) 
83

>  <SMILES>  (88) 
O=C(c1cccc([N-]S(=O)(=O)CCc2ccccc2)c1)c1[n-]c(=O)[n-]c1[O-]

>  <Energy>  (88) 
73.78994305986862

>  <Genealogy>  (88) 
O=C(c1cccc([N-]S(=O)(=O)CCc2ccccc2)c1)c1[n-]c(=O)[n-]c1[O-] (protonated)
O=C(c1cccc([N-]S(=O)(=O)CCc2ccccc2)c1)c1[n-]c(=O)[n-]c1[O-] (3D coordinates assigned)
O=C(c1cccc([N-]S(=O)(=O)CCc2ccccc2)c1)c1[n-]c(=O)[n-]c1[O-] (optimized conformer: 73.78994305986862 kcal/mol)

>  <smiles>  (88) 
O=C(c1cccc(NS(=O)(=O)CCc2ccccc2)c1)c1[nH]c(=O)[nH]c1O

>  <score_type>  (88) 
oracle

>  <origin>  (88) 
adg

>  <m_score__min__energy>  (88) 
-18.649999999999999

>  <m_primary>  (88) 
energy

$$$$
88:0
     RDKit          3D

 52 54  0  0  0  0  0  0  0  0999 V2000
   58.2720   29.5010   47.0550 C   0  0  0  0  0  0  0  0  0  0  0  0
   57.9550   29.3510   45.7580 C   0  0  0  0  0  0  0  0  0  0  0  0
   57.8700   28.1430   45.0460 C   0  0  0  0  0  0  0  0  0  0  0  0
   58.2580   26.8950   45.3720 C   0  0  0  0  0  0  0  0  0  0  0  0
   57.5070   25.9610   46.2260 C   0  0  0  0  0  0  0  0  0  0  0  0
   58.0560   24.9400   46.9110 N   0  0  0  0  0  0  0  0  0  0  0  0
   56.9850   24.2890   47.4130 C   0  0  0  0  0  0  0  0  0  0  0  0
   57.0930   23.2660   48.1370 O   0  0  0  0  0  0  0  0  0  0  0  0
   55.7900   24.8130   47.0670 N   0  0  0  0  0  0  0  0  0  0  0  0
   56.1390   25.8620   46.3040 C   0  0  0  0  0  0  0  0  0  0  0  0
   55.2280   26.7120   45.6860 O   0  0  0  0  0  0  0  0  0  0  0  0
   57.3130   28.4550   43.8180 C   0  0  0  0  0  0  0  0  0  0  0  0
   57.1520   29.8250   43.7880 C   0  0  0  0  0  0  0  0  0  0  0  0
   56.6230   30.5900   42.6130 C   0  0  0  0  0  0  0  0  0  0  0  0
   57.5300   30.3730   44.9660 N   0  0  0  0  0  0  0  0  0  0  0  0
   57.5090   31.8060   45.2940 C   0  0  0  0  0  0  0  0  0  0  0  0
   58.9130   32.2790   45.6730 C   0  0  0  0  0  0  0  0  0  0  0  0
   58.8690   33.6440   46.2010 N   0  0  0  0  0  0  0  0  0  0  0  0
   59.8220   33.7900   47.6510 S   0  0  0  0  0  0  0  0  0  0  0  0
   61.2340   34.1300   47.2710 O   0  0  0  0  0  0  0  0  0  0  0  0
   59.2610   34.8950   48.5000 O   0  0  0  0  0  0  0  0  0  0  0  0
   59.8260   32.2720   48.5560 C   0  0  0  0  0  0  0  0  0  0  0  0
   58.7300   31.9500   49.3720 C   0  0  0  0  0  0  0  0  0  0  0  0
   58.7120   30.7550   50.1110 C   0  0  0  0  0  0  0  0  0  0  0  0
   57.6440   30.4040   50.9520 O   0  0  0  0  0  0  0  0  0  0  0  0
   57.0530   31.2780   51.9080 C   0  0  0  0  0  0  0  0  0  0  0  0
   59.7930   29.8750   50.0110 C   0  0  0  0  0  0  0  0  0  0  0  0
   60.8790   30.1760   49.1880 C   0  0  0  0  0  0  0  0  0  0  0  0
   60.9050   31.3730   48.4470 C   0  0  0  0  0  0  0  0  0  0  0  0
   61.9760   31.6920   47.5960 O   0  0  0  0  0  0  0  0  0  0  0  0
   63.2730   32.0810   48.0380 C   0  0  0  0  0  0  0  0  0  0  0  0
   58.3054   30.5063   47.5003 H   0  0  0  0  0  0  0  0  0  0  0  0
   58.4981   28.6185   47.6715 H   0  0  0  0  0  0  0  0  0  0  0  0
   59.2179   26.5441   44.9653 H   0  0  0  0  0  0  0  0  0  0  0  0
   54.2630   26.7430   45.9910 H   0  0  0  0  0  0  0  0  0  0  0  0
   57.0492   27.7465   43.0190 H   0  0  0  0  0  0  0  0  0  0  0  0
   56.0311   31.4460   42.9692 H   0  0  0  0  0  0  0  0  0  0  0  0
   57.4635   30.9536   42.0037 H   0  0  0  0  0  0  0  0  0  0  0  0
   55.9861   29.9319   42.0037 H   0  0  0  0  0  0  0  0  0  0  0  0
   57.1572   32.3741   44.4202 H   0  0  0  0  0  0  0  0  0  0  0  0
   56.8317   31.9707   46.1450 H   0  0  0  0  0  0  0  0  0  0  0  0
   59.3266   31.6074   46.4398 H   0  0  0  0  0  0  0  0  0  0  0  0
   59.5477   32.2653   44.7747 H   0  0  0  0  0  0  0  0  0  0  0  0
   57.8761   32.6406   49.4335 H   0  0  0  0  0  0  0  0  0  0  0  0
   57.2909   30.9262   52.9227 H   0  0  0  0  0  0  0  0  0  0  0  0
   57.4498   32.2946   51.7699 H   0  0  0  0  0  0  0  0  0  0  0  0
   55.9617   31.2884   51.7699 H   0  0  0  0  0  0  0  0  0  0  0  0
   59.7878   28.9372   50.5859 H   0  0  0  0  0  0  0  0  0  0  0  0
   61.7216   29.4724   49.1176 H   0  0  0  0  0  0  0  0  0  0  0  0
   63.2986   32.0887   49.1377 H   0  0  0  0  0  0  0  0  0  0  0  0
   64.0190   31.3671   47.6588 H   0  0  0  0  0  0  0  0  0  0  0  0
   63.5030   33.0876   47.6588 H   0  0  0  0  0  0  0  0  0  0  0  0
  1  2  2  0
  2  3  1  0
  3  4  2  3
  4  5  1  0
  5  6  1  0
  6  7  1  0
  7  8  2  0
  7  9  1  0
  9 10  1  0
 10 11  1  0
  3 12  1  0
 12 13  2  0
 13 14  1  0
 13 15  1  0
 15 16  1  0
 16 17  1  0
 17 18  1  0
 18 19  1  0
 19 20  2  0
 19 21  2  0
 19 22  1  0
 22 23  2  0
 23 24  1  0
 24 25  1  0
 25 26  1  0
 24 27  2  0
 27 28  1  0
 28 29  2  0
 29 30  1  0
 30 31  1  0
 15  2  1  0
 29 22  1  0
 10  5  2  0
  1 32  1  0
  1 33  1  0
  4 34  1  0
 11 35  1  0
 12 36  1  0
 14 37  1  0
 14 38  1  0
 14 39  1  0
 16 40  1  0
 16 41  1  0
 17 42  1  0
 17 43  1  0
 23 44  1  0
 26 45  1  0
 26 46  1  0
 26 47  1  0
 27 48  1  0
 28 49  1  0
 31 50  1  0
 31 51  1  0
 31 52  1  0
M  CHG  3   6  -1   9  -1  18  -1
M  END
>  <UniqueID>  (89) 
84

>  <SMILES>  (89) 
C=c1c(=Cc2[n-]c(=O)[n-]c2O)cc(C)n1CC[N-]S(=O)(=O)c1cc(OC)ccc1OC

>  <Energy>  (89) 
117.76814066634878

>  <Genealogy>  (89) 
C=c1c(=Cc2[n-]c(=O)[n-]c2O)cc(C)n1CC[N-]S(=O)(=O)c1cc(OC)ccc1OC (protonated)
C=c1c(=Cc2[n-]c(=O)[n-]c2O)cc(C)n1CC[N-]S(=O)(=O)c1cc(OC)ccc1OC (3D coordinates assigned)
C=c1c(=Cc2[n-]c(=O)[n-]c2O)cc(C)n1CC[N-]S(=O)(=O)c1cc(OC)ccc1OC (optimized conformer: 117.76814066634878 kcal/mol)

>  <smiles>  (89) 
C=c1c(=Cc2[nH]c(=O)[nH]c2O)cc(C)n1CCNS(=O)(=O)c1cc(OC)ccc1OC

>  <score_type>  (89) 
oracle

>  <origin>  (89) 
adg

>  <m_score__min__energy>  (89) 
-13.630000000000001

>  <m_primary>  (89) 
energy

$$$$
89:0
     RDKit          3D

 39 41  0  0  0  0  0  0  0  0999 V2000
   52.2596   28.4820   53.1494 H   0  0  0  0  0  0  0  0  0  0  0  0
   53.3080   28.2850   53.4180 C   0  0  0  0  0  0  0  0  0  0  0  0
   53.5557   27.4532   54.0939 H   0  0  0  0  0  0  0  0  0  0  0  0
   54.2830   29.0580   52.9220 C   0  0  0  0  0  0  0  0  0  0  0  0
   55.5540   28.7520   53.3000 N   0  0  0  0  0  0  0  0  0  0  0  0
   56.6260   29.5420   53.0360 C   0  0  0  0  0  0  0  0  0  0  0  0
   57.9740   29.1200   53.5430 C   0  0  0  0  0  0  0  0  0  0  0  0
   57.9690   29.1216   54.6430 H   0  0  0  0  0  0  0  0  0  0  0  0
   58.2022   28.1074   53.1788 H   0  0  0  0  0  0  0  0  0  0  0  0
   58.7389   29.8217   53.1788 H   0  0  0  0  0  0  0  0  0  0  0  0
   56.4320   30.7640   52.3730 C   0  0  0  0  0  0  0  0  0  0  0  0
   57.5520   31.6810   52.0800 C   0  0  0  0  0  0  0  0  0  0  0  0
   57.8390   32.5760   52.9200 O   0  0  0  0  0  0  0  0  0  0  0  0
   58.3050   31.5760   50.8540 N   0  0  0  0  0  0  0  0  0  0  0  0
   58.5840   30.2370   50.3190 C   0  0  0  0  0  0  0  0  0  0  0  0
   57.6650   29.6349   50.3732 H   0  0  0  0  0  0  0  0  0  0  0  0
   59.3890   29.7922   50.9225 H   0  0  0  0  0  0  0  0  0  0  0  0
   59.0480   30.2840   48.8930 C   0  0  0  0  0  0  0  0  0  0  0  0
   59.1220   29.2150   48.2310 O   0  0  0  0  0  0  0  0  0  0  0  0
   59.4680   31.5150   48.2940 N   0  0  0  0  0  0  0  0  0  0  0  0
   59.8340   31.5020   47.3150 H   0  0  0  0  0  0  0  0  0  0  0  0
   59.1600   32.8050   48.9010 C   0  0  0  0  0  0  0  0  0  0  0  0
   58.1710   33.1390   48.5543 H   0  0  0  0  0  0  0  0  0  0  0  0
   59.9354   33.5267   48.6045 H   0  0  0  0  0  0  0  0  0  0  0  0
   59.1470   32.7020   50.4240 C   0  0  0  0  0  0  0  0  0  0  0  0
   58.7477   33.6356   50.8471 H   0  0  0  0  0  0  0  0  0  0  0  0
   60.1746   32.5354   50.7793 H   0  0  0  0  0  0  0  0  0  0  0  0
   55.1420   31.1160   51.9660 C   0  0  0  0  0  0  0  0  0  0  0  0
   54.9732   32.0959   51.4955 H   0  0  0  0  0  0  0  0  0  0  0  0
   54.0530   30.2390   52.1470 C   0  0  0  0  0  0  0  0  0  0  0  0
   52.8820   30.5790   51.5500 C   0  0  0  0  0  0  0  0  0  0  0  0
   52.7159   30.1987   50.5313 H   0  0  0  0  0  0  0  0  0  0  0  0
   51.8110   31.4080   52.1330 C   0  0  0  0  0  0  0  0  0  0  0  0
   51.5520   31.4630   53.4500 N   0  0  0  0  0  0  0  0  0  0  0  0
   50.5910   32.4080   53.5410 C   0  0  0  0  0  0  0  0  0  0  0  0
   50.0680   32.7400   54.6370 O   0  0  0  0  0  0  0  0  0  0  0  0
   50.2440   32.9790   52.3670 N   0  0  0  0  0  0  0  0  0  0  0  0
   51.0350   32.3450   51.4870 C   0  0  0  0  0  0  0  0  0  0  0  0
   51.0680   32.6410   50.1300 O   0  0  0  0  0  0  0  0  0  0  0  0
  1  2  1  0
  2  3  1  0
  2  4  2  0
  4  5  1  0
  5  6  2  0
  6  7  1  0
  7  8  1  0
  7  9  1  0
  7 10  1  0
  6 11  1  0
 11 12  1  0
 12 13  2  0
 12 14  1  0
 14 15  1  0
 15 16  1  0
 15 17  1  0
 15 18  1  0
 18 19  2  0
 18 20  1  0
 20 21  1  0
 20 22  1  0
 22 23  1  0
 22 24  1  0
 22 25  1  0
 25 26  1  0
 25 27  1  0
 11 28  2  0
 28 29  1  0
 28 30  1  0
 30 31  2  0
 31 32  1  0
 31 33  1  0
 33 34  1  0
 34 35  1  0
 35 36  2  0
 35 37  1  0
 37 38  1  0
 38 39  1  0
 30  4  1  0
 38 33  2  0
 25 14  1  0
M  CHG  3  34  -1  37  -1  39  -1
M  END
>  <UniqueID>  (90) 
85

>  <SMILES>  (90) 
C=c1nc(C)c(C(=O)N2CCNC(=O)C2)c/c1=C/c1[n-]c(=O)[n-]c1[O-]

>  <Energy>  (90) 
96.19599413125758

>  <Genealogy>  (90) 
C=c1nc(C)c(C(=O)N2CCNC(=O)C2)cc1=Cc1[n-]c(=O)[n-]c1[O-] (protonated)
C=c1nc(C)c(C(=O)N2CCNC(=O)C2)c/c1=C/c1[n-]c(=O)[n-]c1[O-] (cis-trans isomerization)
C=c1nc(C)c(C(=O)N2CCNC(=O)C2)c/c1=C/c1[n-]c(=O)[n-]c1[O-] (3D coordinates assigned)
C=c1nc(C)c(C(=O)N2CCNC(=O)C2)c/c1=C/c1[n-]c(=O)[n-]c1[O-] (nonaromatic ring conformer: 96.19599413125758 kcal/mol)

>  <smiles>  (90) 
C=c1nc(C)c(C(=O)N2CCNC(=O)C2)cc1=Cc1[nH]c(=O)[nH]c1O

>  <score_type>  (90) 
oracle

>  <origin>  (90) 
adg

>  <m_score__min__energy>  (90) 
-16.32

>  <m_primary>  (90) 
energy

$$$$
90:0
     RDKit          3D

 56 59  0  0  0  0  0  0  0  0999 V2000
   56.2650   29.5320   52.3670 O   0  0  0  0  0  0  0  0  0  0  0  0
   55.9910   30.7530   52.2060 C   0  0  0  0  0  0  0  0  0  0  0  0
   54.6160   31.1790   52.1590 N   0  0  0  0  0  0  0  0  0  0  0  0
   53.5090   30.2780   52.3340 C   0  0  0  0  0  0  0  0  0  0  0  0
   53.7400   28.9880   52.8480 C   0  0  0  0  0  0  0  0  0  0  0  0
   52.6740   28.1280   53.1190 C   0  0  0  0  0  0  0  0  0  0  0  0
   51.3650   28.5480   52.8950 C   0  0  0  0  0  0  0  0  0  0  0  0
   51.1150   29.8260   52.3930 C   0  0  0  0  0  0  0  0  0  0  0  0
   52.1760   30.7060   52.1000 C   0  0  0  0  0  0  0  0  0  0  0  0
   51.8600   32.0360   51.5240 C   0  0  0  0  0  0  0  0  0  0  0  0
   52.6640   32.6170   50.7490 O   0  0  0  0  0  0  0  0  0  0  0  0
   50.6420   32.6470   51.8070 O   0  0  0  0  0  0  0  0  0  0  0  0
   57.1000   31.7280   52.0670 C   0  0  0  0  0  0  0  0  0  0  0  0
   57.6970   32.2720   53.2160 C   0  0  0  0  0  0  0  0  0  0  0  0
   58.7350   33.1980   53.1020 C   0  0  0  0  0  0  0  0  0  0  0  0
   59.1980   33.5850   51.8440 C   0  0  0  0  0  0  0  0  0  0  0  0
   58.6300   33.0370   50.6780 C   0  0  0  0  0  0  0  0  0  0  0  0
   59.0900   33.4030   49.3620 N   0  0  0  0  0  0  0  0  0  0  0  0
   59.6700   32.4670   48.3950 C   0  0  0  0  0  0  0  0  0  0  0  0
   59.0560   32.6530   47.0320 C   0  0  0  0  0  0  0  0  0  0  0  0
   59.4540   33.7270   46.2180 C   0  0  0  0  0  0  0  0  0  0  0  0
   58.8910   33.8970   44.9520 C   0  0  0  0  0  0  0  0  0  0  0  0
   57.9390   32.9910   44.4790 C   0  0  0  0  0  0  0  0  0  0  0  0
   57.5560   31.8930   45.2680 C   0  0  0  0  0  0  0  0  0  0  0  0
   56.5700   30.9500   44.8210 N   0  0  0  0  0  0  0  0  0  0  0  0
   56.6610   29.5230   44.9170 C   0  0  0  0  0  0  0  0  0  0  0  0
   55.5970   28.8490   44.8820 O   0  0  0  0  0  0  0  0  0  0  0  0
   57.9580   28.8370   45.1420 C   0  0  0  0  0  0  0  0  0  0  0  0
   59.1450   29.4540   44.7020 C   0  0  0  0  0  0  0  0  0  0  0  0
   60.3830   28.8430   44.9100 C   0  0  0  0  0  0  0  0  0  0  0  0
   60.4540   27.6120   45.5630 C   0  0  0  0  0  0  0  0  0  0  0  0
   59.2870   26.9860   46.0050 C   0  0  0  0  0  0  0  0  0  0  0  0
   58.0390   27.5880   45.8010 C   0  0  0  0  0  0  0  0  0  0  0  0
   56.6060   26.7140   46.3360 Cl  0  0  0  0  0  0  0  0  0  0  0  0
   58.1070   31.7380   46.5470 C   0  0  0  0  0  0  0  0  0  0  0  0
   57.5830   32.1090   50.8020 C   0  0  0  0  0  0  0  0  0  0  0  0
   54.3940   32.1890   52.0250 H   0  0  0  0  0  0  0  0  0  0  0  0
   54.7707   28.6542   53.0381 H   0  0  0  0  0  0  0  0  0  0  0  0
   52.8680   27.1182   53.5096 H   0  0  0  0  0  0  0  0  0  0  0  0
   50.5263   27.8708   53.1143 H   0  0  0  0  0  0  0  0  0  0  0  0
   50.0775   30.1502   52.2241 H   0  0  0  0  0  0  0  0  0  0  0  0
   57.3442   31.9663   54.2121 H   0  0  0  0  0  0  0  0  0  0  0  0
   59.1901   33.6246   54.0080 H   0  0  0  0  0  0  0  0  0  0  0  0
   60.0107   34.3218   51.7627 H   0  0  0  0  0  0  0  0  0  0  0  0
   59.0040   34.4010   49.0630 H   0  0  0  0  0  0  0  0  0  0  0  0
   60.7538   32.6431   48.3288 H   0  0  0  0  0  0  0  0  0  0  0  0
   59.4675   31.4405   48.7346 H   0  0  0  0  0  0  0  0  0  0  0  0
   60.2124   34.4368   46.5799 H   0  0  0  0  0  0  0  0  0  0  0  0
   59.1980   34.7471   44.3250 H   0  0  0  0  0  0  0  0  0  0  0  0
   57.4879   33.1373   43.4865 H   0  0  0  0  0  0  0  0  0  0  0  0
   59.0963   30.4262   44.1898 H   0  0  0  0  0  0  0  0  0  0  0  0
   61.3033   29.3326   44.5587 H   0  0  0  0  0  0  0  0  0  0  0  0
   61.4307   27.1342   45.7298 H   0  0  0  0  0  0  0  0  0  0  0  0
   59.3481   26.0141   46.5166 H   0  0  0  0  0  0  0  0  0  0  0  0
   57.7936   30.8923   47.1768 H   0  0  0  0  0  0  0  0  0  0  0  0
   57.1343   31.6739   49.8968 H   0  0  0  0  0  0  0  0  0  0  0  0
  1  2  2  0
  2  3  1  0
  3  4  1  0
  4  5  2  0
  5  6  1  0
  6  7  2  0
  7  8  1  0
  8  9  2  0
  9 10  1  0
 10 11  2  0
 10 12  1  0
  2 13  1  0
 13 14  2  0
 14 15  1  0
 15 16  2  0
 16 17  1  0
 17 18  1  0
 18 19  1  0
 19 20  1  0
 20 21  2  0
 21 22  1  0
 22 23  2  0
 23 24  1  0
 24 25  1  0
 25 26  1  0
 26 27  2  0
 26 28  1  0
 28 29  2  0
 29 30  1  0
 30 31  2  0
 31 32  1  0
 32 33  2  0
 33 34  1  0
 24 35  2  0
 17 36  2  0
  9  4  1  0
 36 13  1  0
 35 20  1  0
 33 28  1  0
  3 37  1  0
  5 38  1  0
  6 39  1  0
  7 40  1  0
  8 41  1  0
 14 42  1  0
 15 43  1  0
 16 44  1  0
 18 45  1  0
 19 46  1  0
 19 47  1  0
 21 48  1  0
 22 49  1  0
 23 50  1  0
 29 51  1  0
 30 52  1  0
 31 53  1  0
 32 54  1  0
 35 55  1  0
 36 56  1  0
M  CHG  2  12  -1  25  -1
M  END
>  <UniqueID>  (91) 
86

>  <SMILES>  (91) 
O=C(Nc1ccccc1C(=O)[O-])c1cccc(NCc2cccc([N-]C(=O)c3ccccc3Cl)c2)c1

>  <Energy>  (91) 
80.15572613655766

>  <Genealogy>  (91) 
O=C(Nc1ccccc1C(=O)[O-])c1cccc(NCc2cccc([N-]C(=O)c3ccccc3Cl)c2)c1 (protonated)
O=C(Nc1ccccc1C(=O)[O-])c1cccc(NCc2cccc([N-]C(=O)c3ccccc3Cl)c2)c1 (3D coordinates assigned)
O=C(Nc1ccccc1C(=O)[O-])c1cccc(NCc2cccc([N-]C(=O)c3ccccc3Cl)c2)c1 (optimized conformer: 80.15572613655766 kcal/mol)

>  <smiles>  (91) 
O=C(Nc1ccccc1C(=O)O)c1cccc(NCc2cccc(NC(=O)c3ccccc3Cl)c2)c1

>  <score_type>  (91) 
oracle

>  <origin>  (91) 
adg

>  <m_score__min__energy>  (91) 
-15.359999999999999

>  <m_primary>  (91) 
energy

$$$$
91:0
     RDKit          3D

 37 39  0  0  0  0  0  0  0  0999 V2000
   55.5420   29.6600   44.9530 N   0  0  0  0  0  0  0  0  0  0  0  0
   56.2680   30.4890   44.2870 C   0  0  0  0  0  0  0  0  0  0  0  0
   56.9830   31.3750   44.9690 N   0  0  0  0  0  0  0  0  0  0  0  0
   57.7950   32.3090   44.3690 C   0  0  0  0  0  0  0  0  0  0  0  0
   58.4980   33.2450   45.1890 C   0  0  0  0  0  0  0  0  0  0  0  0
   58.8550   34.4710   44.5840 C   0  0  0  0  0  0  0  0  0  0  0  0
   59.5920   35.4140   45.2460 C   0  0  0  0  0  0  0  0  0  0  0  0
   60.0260   35.2270   46.5280 C   0  0  0  0  0  0  0  0  0  0  0  0
   59.6940   34.0470   47.1470 C   0  0  0  0  0  0  0  0  0  0  0  0
   58.9370   33.0870   46.4620 C   0  0  0  0  0  0  0  0  0  0  0  0
   58.5850   31.9470   47.2210 N   0  0  0  0  0  0  0  0  0  0  0  0
   59.5980   30.5540   47.3620 S   0  0  0  0  0  0  0  0  0  0  0  0
   61.0190   30.8800   46.9880 O   0  0  0  0  0  0  0  0  0  0  0  0
   59.5950   30.0360   48.7650 O   0  0  0  0  0  0  0  0  0  0  0  0
   59.0710   29.3000   46.2470 C   0  0  0  0  0  0  0  0  0  0  0  0
   58.1280   28.3710   46.6350 C   0  0  0  0  0  0  0  0  0  0  0  0
   57.6760   27.3660   45.8050 C   0  0  0  0  0  0  0  0  0  0  0  0
   58.2100   27.3090   44.5350 C   0  0  0  0  0  0  0  0  0  0  0  0
   59.1590   28.2330   44.1250 C   0  0  0  0  0  0  0  0  0  0  0  0
   59.5960   29.2300   44.9720 C   0  0  0  0  0  0  0  0  0  0  0  0
   57.7960   32.2410   42.9980 C   0  0  0  0  0  0  0  0  0  0  0  0
   57.0370   31.3000   42.2920 C   0  0  0  0  0  0  0  0  0  0  0  0
   56.2630   30.4150   42.9440 N   0  0  0  0  0  0  0  0  0  0  0  0
   55.5030   29.6820   45.9890 H   0  0  0  0  0  0  0  0  0  0  0  0
   58.5313   34.6726   43.5522 H   0  0  0  0  0  0  0  0  0  0  0  0
   59.8432   36.3525   44.7301 H   0  0  0  0  0  0  0  0  0  0  0  0
   60.6202   35.9943   47.0458 H   0  0  0  0  0  0  0  0  0  0  0  0
   60.0219   33.8555   48.1794 H   0  0  0  0  0  0  0  0  0  0  0  0
   57.6530   32.0180   47.7390 H   0  0  0  0  0  0  0  0  0  0  0  0
   57.7174   28.4345   47.6535 H   0  0  0  0  0  0  0  0  0  0  0  0
   56.9211   26.6404   46.1423 H   0  0  0  0  0  0  0  0  0  0  0  0
   57.8798   26.5227   43.8402 H   0  0  0  0  0  0  0  0  0  0  0  0
   59.5704   28.1698   43.1068 H   0  0  0  0  0  0  0  0  0  0  0  0
   60.3503   29.9573   44.6372 H   0  0  0  0  0  0  0  0  0  0  0  0
   58.4163   32.9524   42.4330 H   0  0  0  0  0  0  0  0  0  0  0  0
   57.0743   31.2846   41.1927 H   0  0  0  0  0  0  0  0  0  0  0  0
   55.6760   29.6920   42.4770 H   0  0  0  0  0  0  0  0  0  0  0  0
  1  2  2  3
  2  3  1  0
  3  4  2  0
  4  5  1  0
  5  6  2  0
  6  7  1  0
  7  8  2  0
  8  9  1  0
  9 10  2  0
 10 11  1  0
 11 12  1  0
 12 13  2  0
 12 14  2  0
 12 15  1  0
 15 16  2  0
 16 17  1  0
 17 18  2  0
 18 19  1  0
 19 20  2  0
  4 21  1  0
 21 22  2  0
 22 23  1  0
 23  2  1  0
 10  5  1  0
 20 15  1  0
  1 24  1  0
  6 25  1  0
  7 26  1  0
  8 27  1  0
  9 28  1  0
 11 29  1  0
 16 30  1  0
 17 31  1  0
 18 32  1  0
 19 33  1  0
 20 34  1  0
 21 35  1  0
 22 36  1  0
 23 37  1  0
M  END
>  <smiles>  (92) 
N=c1nc(-c2ccccc2NS(=O)(=O)c2ccccc2)cc[nH]1

>  <score_type>  (92) 
oracle

>  <origin>  (92) 
adg

>  <m_score__min__energy>  (92) 
-9.0600000000000005

>  <m_primary>  (92) 
energy

$$$$
92:0
     RDKit          3D

 58 61  0  0  0  0  0  0  0  0999 V2000
   62.6170   32.2190   48.8490 C   0  0  0  0  0  0  0  0  0  0  0  0
   61.1740   32.1330   48.6300 N   0  0  0  0  0  0  0  0  0  0  0  0
   60.5630   30.8550   48.3790 C   0  0  0  0  0  0  0  0  0  0  0  0
   59.5700   30.3580   49.2420 C   0  0  0  0  0  0  0  0  0  0  0  0
   58.9630   29.1250   48.9840 C   0  0  0  0  0  0  0  0  0  0  0  0
   59.3360   28.3820   47.8620 C   0  0  0  0  0  0  0  0  0  0  0  0
   60.3160   28.8720   46.9940 C   0  0  0  0  0  0  0  0  0  0  0  0
   60.9240   30.1030   47.2470 C   0  0  0  0  0  0  0  0  0  0  0  0
   60.2300   33.5950   48.6030 S   0  0  0  0  0  0  0  0  0  0  0  0
   59.2770   33.5990   49.7660 O   0  0  0  0  0  0  0  0  0  0  0  0
   61.1250   34.8000   48.7160 O   0  0  0  0  0  0  0  0  0  0  0  0
   59.3330   33.6970   47.0890 C   0  0  0  0  0  0  0  0  0  0  0  0
   59.5550   34.7620   46.2060 C   0  0  0  0  0  0  0  0  0  0  0  0
   58.8200   34.8550   45.0210 C   0  0  0  0  0  0  0  0  0  0  0  0
   57.8870   33.8680   44.6930 C   0  0  0  0  0  0  0  0  0  0  0  0
   57.6790   32.7800   45.5510 C   0  0  0  0  0  0  0  0  0  0  0  0
   56.6940   31.7970   45.2010 N   0  0  0  0  0  0  0  0  0  0  0  0
   56.8380   30.7920   44.1890 C   0  0  0  0  0  0  0  0  0  0  0  0
   56.6390   31.1090   42.9880 O   0  0  0  0  0  0  0  0  0  0  0  0
   57.2590   29.4120   44.5170 C   0  0  0  0  0  0  0  0  0  0  0  0
   58.5280   28.9550   44.1280 C   0  0  0  0  0  0  0  0  0  0  0  0
   58.9310   27.6520   44.4320 C   0  0  0  0  0  0  0  0  0  0  0  0
   58.0840   26.8060   45.1500 C   0  0  0  0  0  0  0  0  0  0  0  0
   56.8270   27.2530   45.5710 C   0  0  0  0  0  0  0  0  0  0  0  0
   56.0100   26.3630   46.3430 N   0  0  0  0  0  0  0  0  0  0  0  0
   56.5150   24.8270   46.9690 S   0  0  0  0  0  0  0  0  0  0  0  0
   57.8790   24.9710   47.5790 O   0  0  0  0  0  0  0  0  0  0  0  0
   55.5580   24.3910   48.0450 O   0  0  0  0  0  0  0  0  0  0  0  0
   56.5870   23.6370   45.6740 C   0  0  0  0  0  0  0  0  0  0  0  0
   56.2070   23.9770   44.3680 C   0  0  0  0  0  0  0  0  0  0  0  0
   56.2210   23.0090   43.3600 C   0  0  0  0  0  0  0  0  0  0  0  0
   56.6260   21.7000   43.6440 C   0  0  0  0  0  0  0  0  0  0  0  0
   56.6440   20.7480   42.6270 O   0  0  0  0  0  0  0  0  0  0  0  0
   57.0140   21.3620   44.9480 C   0  0  0  0  0  0  0  0  0  0  0  0
   56.9860   22.3250   45.9590 C   0  0  0  0  0  0  0  0  0  0  0  0
   56.4090   28.5540   45.2370 C   0  0  0  0  0  0  0  0  0  0  0  0
   58.3870   32.7140   46.7650 C   0  0  0  0  0  0  0  0  0  0  0  0
   62.8238   32.2313   49.9293 H   0  0  0  0  0  0  0  0  0  0  0  0
   63.1099   31.3486   48.3912 H   0  0  0  0  0  0  0  0  0  0  0  0
   63.0030   33.1417   48.3912 H   0  0  0  0  0  0  0  0  0  0  0  0
   59.2693   30.9421   50.1243 H   0  0  0  0  0  0  0  0  0  0  0  0
   58.1906   28.7398   49.6659 H   0  0  0  0  0  0  0  0  0  0  0  0
   58.8588   27.4114   47.6613 H   0  0  0  0  0  0  0  0  0  0  0  0
   60.6087   28.2866   46.1099 H   0  0  0  0  0  0  0  0  0  0  0  0
   61.6898   30.4868   46.5569 H   0  0  0  0  0  0  0  0  0  0  0  0
   60.3090   35.5261   46.4459 H   0  0  0  0  0  0  0  0  0  0  0  0
   58.9765   35.7080   44.3443 H   0  0  0  0  0  0  0  0  0  0  0  0
   57.3135   33.9454   43.7575 H   0  0  0  0  0  0  0  0  0  0  0  0
   59.2079   29.6253   43.5817 H   0  0  0  0  0  0  0  0  0  0  0  0
   59.9177   27.2922   44.1049 H   0  0  0  0  0  0  0  0  0  0  0  0
   58.4070   25.7814   45.3863 H   0  0  0  0  0  0  0  0  0  0  0  0
   55.8975   25.0068   44.1364 H   0  0  0  0  0  0  0  0  0  0  0  0
   55.9123   23.2773   42.3389 H   0  0  0  0  0  0  0  0  0  0  0  0
   57.0670   19.8380   42.7620 H   0  0  0  0  0  0  0  0  0  0  0  0
   57.3410   20.3366   45.1752 H   0  0  0  0  0  0  0  0  0  0  0  0
   57.2786   22.0519   46.9836 H   0  0  0  0  0  0  0  0  0  0  0  0
   55.4109   28.9023   45.5410 H   0  0  0  0  0  0  0  0  0  0  0  0
   58.1973   31.8863   47.4642 H   0  0  0  0  0  0  0  0  0  0  0  0
  1  2  1  0
  2  3  1  0
  3  4  2  0
  4  5  1  0
  5  6  2  0
  6  7  1  0
  7  8  2  0
  2  9  1  0
  9 10  2  0
  9 11  2  0
  9 12  1  0
 12 13  2  0
 13 14  1  0
 14 15  2  0
 15 16  1  0
 16 17  1  0
 17 18  1  0
 18 19  2  0
 18 20  1  0
 20 21  2  0
 21 22  1  0
 22 23  2  0
 23 24  1  0
 24 25  1  0
 25 26  1  0
 26 27  2  0
 26 28  2  0
 26 29  1  0
 29 30  2  0
 30 31  1  0
 31 32  2  0
 32 33  1  0
 32 34  1  0
 34 35  2  0
 24 36  2  0
 16 37  2  0
  8  3  1  0
 37 12  1  0
 36 20  1  0
 35 29  1  0
  1 38  1  0
  1 39  1  0
  1 40  1  0
  4 41  1  0
  5 42  1  0
  6 43  1  0
  7 44  1  0
  8 45  1  0
 13 46  1  0
 14 47  1  0
 15 48  1  0
 21 49  1  0
 22 50  1  0
 23 51  1  0
 30 52  1  0
 31 53  1  0
 33 54  1  0
 34 55  1  0
 35 56  1  0
 36 57  1  0
 37 58  1  0
M  CHG  2  17  -1  25  -1
M  END
>  <UniqueID>  (93) 
87

>  <SMILES>  (93) 
CN(c1ccccc1)S(=O)(=O)c1cccc([N-]C(=O)c2cccc([N-]S(=O)(=O)c3ccc(O)cc3)c2)c1

>  <Energy>  (93) 
69.28003763610016

>  <Genealogy>  (93) 
CN(c1ccccc1)S(=O)(=O)c1cccc([N-]C(=O)c2cccc([N-]S(=O)(=O)c3ccc(O)cc3)c2)c1 (protonated)
CN(c1ccccc1)S(=O)(=O)c1cccc([N-]C(=O)c2cccc([N-]S(=O)(=O)c3ccc(O)cc3)c2)c1 (3D coordinates assigned)
CN(c1ccccc1)S(=O)(=O)c1cccc([N-]C(=O)c2cccc([N-]S(=O)(=O)c3ccc(O)cc3)c2)c1 (optimized conformer: 69.28003763610016 kcal/mol)

>  <smiles>  (93) 
CN(c1ccccc1)S(=O)(=O)c1cccc(NC(=O)c2cccc(NS(=O)(=O)c3ccc(O)cc3)c2)c1

>  <score_type>  (93) 
oracle

>  <origin>  (93) 
adg

>  <m_score__min__energy>  (93) 
-15.02

>  <m_primary>  (93) 
energy

$$$$
93:0
     RDKit          3D

 51 54  0  0  0  0  0  0  0  0999 V2000
   55.3840   26.0880   46.0350 O   0  0  0  0  0  0  0  0  0  0  0  0
   56.5780   25.9750   45.6440 C   0  0  0  0  0  0  0  0  0  0  0  0
   57.0360   24.6670   45.1150 C   0  0  0  0  0  0  0  0  0  0  0  0
   56.3200   24.0360   44.0830 C   0  0  0  0  0  0  0  0  0  0  0  0
   56.7540   22.8110   43.5670 C   0  0  0  0  0  0  0  0  0  0  0  0
   57.9110   22.2100   44.0670 C   0  0  0  0  0  0  0  0  0  0  0  0
   58.6400   22.8350   45.0810 C   0  0  0  0  0  0  0  0  0  0  0  0
   58.2110   24.0610   45.6010 C   0  0  0  0  0  0  0  0  0  0  0  0
   57.4720   27.1540   45.7290 C   0  0  0  0  0  0  0  0  0  0  0  0
   58.0600   27.7020   44.5750 C   0  0  0  0  0  0  0  0  0  0  0  0
   58.9160   28.8030   44.6700 C   0  0  0  0  0  0  0  0  0  0  0  0
   59.2090   29.3730   45.9200 C   0  0  0  0  0  0  0  0  0  0  0  0
   60.1040   30.5010   46.0230 N   0  0  0  0  0  0  0  0  0  0  0  0
   59.3600   31.7440   46.0090 C   0  0  0  0  0  0  0  0  0  0  0  0
   58.0870   31.7840   45.4040 C   0  0  0  0  0  0  0  0  0  0  0  0
   57.3600   32.9740   45.3470 C   0  0  0  0  0  0  0  0  0  0  0  0
   57.8810   34.1380   45.9070 C   0  0  0  0  0  0  0  0  0  0  0  0
   59.1240   34.1140   46.5390 C   0  0  0  0  0  0  0  0  0  0  0  0
   59.8680   32.9260   46.6070 C   0  0  0  0  0  0  0  0  0  0  0  0
   61.1020   32.9280   47.3420 N   0  0  0  0  0  0  0  0  0  0  0  0
   62.2020   33.8050   46.9290 C   0  0  0  0  0  0  0  0  0  0  0  0
   63.5110   33.0050   46.7530 C   0  0  0  0  0  0  0  0  0  0  0  0
   63.5550   31.7560   47.5400 N   0  0  0  0  0  0  0  0  0  0  0  0
   62.7840   31.8510   48.7830 C   0  0  0  0  0  0  0  0  0  0  0  0
   61.2980   31.9730   48.4400 C   0  0  0  0  0  0  0  0  0  0  0  0
   58.6350   28.8140   47.0750 C   0  0  0  0  0  0  0  0  0  0  0  0
   57.7800   27.7140   46.9810 C   0  0  0  0  0  0  0  0  0  0  0  0
   55.4127   24.5088   43.6788 H   0  0  0  0  0  0  0  0  0  0  0  0
   56.1828   22.3197   42.7655 H   0  0  0  0  0  0  0  0  0  0  0  0
   58.2482   21.2444   43.6622 H   0  0  0  0  0  0  0  0  0  0  0  0
   59.5533   22.3625   45.4716 H   0  0  0  0  0  0  0  0  0  0  0  0
   58.7940   24.5539   46.3930 H   0  0  0  0  0  0  0  0  0  0  0  0
   57.8448   27.2610   43.5905 H   0  0  0  0  0  0  0  0  0  0  0  0
   59.3637   29.2264   43.7588 H   0  0  0  0  0  0  0  0  0  0  0  0
   60.7830   30.4420   45.2330 H   0  0  0  0  0  0  0  0  0  0  0  0
   60.6600   30.4560   46.9080 H   0  0  0  0  0  0  0  0  0  0  0  0
   57.6618   30.8662   44.9717 H   0  0  0  0  0  0  0  0  0  0  0  0
   56.3743   32.9926   44.8592 H   0  0  0  0  0  0  0  0  0  0  0  0
   57.3114   35.0774   45.8507 H   0  0  0  0  0  0  0  0  0  0  0  0
   59.5249   35.0346   46.9883 H   0  0  0  0  0  0  0  0  0  0  0  0
   61.9414   34.2833   45.9733 H   0  0  0  0  0  0  0  0  0  0  0  0
   62.3573   34.5640   47.7099 H   0  0  0  0  0  0  0  0  0  0  0  0
   63.6208   32.7488   45.6889 H   0  0  0  0  0  0  0  0  0  0  0  0
   64.3290   33.6435   47.1181 H   0  0  0  0  0  0  0  0  0  0  0  0
   64.5520   31.5580   47.7890 H   0  0  0  0  0  0  0  0  0  0  0  0
   62.9495   30.9483   49.3894 H   0  0  0  0  0  0  0  0  0  0  0  0
   63.1071   32.7340   49.3539 H   0  0  0  0  0  0  0  0  0  0  0  0
   60.9142   30.9879   48.1362 H   0  0  0  0  0  0  0  0  0  0  0  0
   60.7559   32.3332   49.3268 H   0  0  0  0  0  0  0  0  0  0  0  0
   58.8612   29.2466   48.0608 H   0  0  0  0  0  0  0  0  0  0  0  0
   57.3440   27.2822   47.8940 H   0  0  0  0  0  0  0  0  0  0  0  0
  1  2  2  0
  2  3  1  0
  3  4  2  0
  4  5  1  0
  5  6  2  0
  6  7  1  0
  7  8  2  0
  2  9  1  0
  9 10  2  0
 10 11  1  0
 11 12  2  0
 12 13  1  0
 13 14  1  0
 14 15  2  0
 15 16  1  0
 16 17  2  0
 17 18  1  0
 18 19  2  0
 19 20  1  0
 20 21  1  0
 21 22  1  0
 22 23  1  0
 23 24  1  0
 24 25  1  0
 12 26  1  0
 26 27  2  0
  8  3  1  0
 27  9  1  0
 19 14  1  0
 25 20  1  0
  4 28  1  0
  5 29  1  0
  6 30  1  0
  7 31  1  0
  8 32  1  0
 10 33  1  0
 11 34  1  0
 13 35  1  0
 13 36  1  0
 15 37  1  0
 16 38  1  0
 17 39  1  0
 18 40  1  0
 21 41  1  0
 21 42  1  0
 22 43  1  0
 22 44  1  0
 23 45  1  0
 24 46  1  0
 24 47  1  0
 25 48  1  0
 25 49  1  0
 26 50  1  0
 27 51  1  0
M  CHG  1  13   1
M  END
>  <UniqueID>  (94) 
88

>  <SMILES>  (94) 
O=C(c1ccccc1)c1ccc([NH2+]c2ccccc2N2CCNCC2)cc1

>  <Energy>  (94) 
74.03270915966246

>  <Genealogy>  (94) 
O=C(c1ccccc1)c1ccc([NH2+]c2ccccc2N2CCNCC2)cc1 (protonated)
O=C(c1ccccc1)c1ccc([NH2+]c2ccccc2N2CCNCC2)cc1 (3D coordinates assigned)
O=C(c1ccccc1)c1ccc([NH2+]c2ccccc2N2CCNCC2)cc1 (nonaromatic ring conformer: 74.03270915966246 kcal/mol)

>  <smiles>  (94) 
O=C(c1ccccc1)c1ccc(Nc2ccccc2N2CCNCC2)cc1

>  <score_type>  (94) 
oracle

>  <origin>  (94) 
adg

>  <m_score__min__energy>  (94) 
-7.8799999999999999

>  <m_primary>  (94) 
energy

$$$$
