0:0
     RDKit          3D

 52 54  0  0  0  0  0  0  0  0999 V2000
   59.2810   34.5830   48.2130 C   0  0  0  0  0  0  0  0  0  0  0  0
   59.3680   33.8600   46.5860 S   0  0  0  0  0  0  0  0  0  0  0  0
   58.9550   34.8620   45.5460 O   0  0  0  0  0  0  0  0  0  0  0  0
   58.4260   32.6900   46.5310 O   0  0  0  0  0  0  0  0  0  0  0  0
   60.9770   33.2980   46.2690 N   0  0  0  0  0  0  0  0  0  0  0  0
   62.0010   33.0800   47.2490 C   0  0  0  0  0  0  0  0  0  0  0  0
   63.2640   33.6930   47.1580 C   0  0  0  0  0  0  0  0  0  0  0  0
   64.2320   33.4590   48.1360 C   0  0  0  0  0  0  0  0  0  0  0  0
   63.9560   32.6070   49.2070 C   0  0  0  0  0  0  0  0  0  0  0  0
   62.7070   31.9750   49.3060 C   0  0  0  0  0  0  0  0  0  0  0  0
   62.4080   31.1060   50.4990 C   0  0  0  0  0  0  0  0  0  0  0  0
   60.9810   31.1510   50.8140 N   0  0  0  0  0  0  0  0  0  0  0  0
   60.5120   31.1980   52.1690 C   0  0  0  0  0  0  0  0  0  0  0  0
   61.3250   31.0140   53.1190 O   0  0  0  0  0  0  0  0  0  0  0  0
   59.1190   31.4160   52.4600 N   0  0  0  0  0  0  0  0  0  0  0  0
   58.5570   30.8990   53.7180 C   0  0  0  0  0  0  0  0  0  0  0  0
   57.0210   30.9810   53.7230 C   0  0  0  0  0  0  0  0  0  0  0  0
   56.4510   30.5960   52.3340 C   0  0  0  0  0  0  0  0  0  0  0  0
   56.8870   29.2970   52.0010 O   0  0  0  0  0  0  0  0  0  0  0  0
   54.9760   30.6290   52.3520 N   0  0  0  0  0  0  0  0  0  0  0  0
   54.1880   31.0820   51.3560 C   0  0  0  0  0  0  0  0  0  0  0  0
   52.8820   31.0610   51.8010 C   0  0  0  0  0  0  0  0  0  0  0  0
   51.6830   31.4780   51.0630 C   0  0  0  0  0  0  0  0  0  0  0  0
   51.0190   32.6950   51.4000 N   0  0  0  0  0  0  0  0  0  0  0  0
   51.2350   30.7600   50.1290 O   0  0  0  0  0  0  0  0  0  0  0  0
   52.9480   30.5990   53.1000 C   0  0  0  0  0  0  0  0  0  0  0  0
   54.2340   30.3560   53.4170 N   0  0  0  0  0  0  0  0  0  0  0  0
   56.9640   31.5800   51.2450 C   0  0  0  0  0  0  0  0  0  0  0  0
   58.2860   32.2790   51.6100 C   0  0  0  0  0  0  0  0  0  0  0  0
   61.7280   32.2270   48.3280 C   0  0  0  0  0  0  0  0  0  0  0  0
   60.5030   31.6480   48.4260 F   0  0  0  0  0  0  0  0  0  0  0  0
   59.3762   33.7919   48.9714 H   0  0  0  0  0  0  0  0  0  0  0  0
   60.0983   35.3089   48.3358 H   0  0  0  0  0  0  0  0  0  0  0  0
   58.3148   35.0943   48.3358 H   0  0  0  0  0  0  0  0  0  0  0  0
   63.4896   34.3595   46.3125 H   0  0  0  0  0  0  0  0  0  0  0  0
   65.2150   33.9472   48.0627 H   0  0  0  0  0  0  0  0  0  0  0  0
   64.7214   32.4302   49.9770 H   0  0  0  0  0  0  0  0  0  0  0  0
   62.6976   30.0689   50.2743 H   0  0  0  0  0  0  0  0  0  0  0  0
   62.9775   31.4770   51.3639 H   0  0  0  0  0  0  0  0  0  0  0  0
   60.2870   31.0290   50.0410 H   0  0  0  0  0  0  0  0  0  0  0  0
   58.8596   29.8485   53.8399 H   0  0  0  0  0  0  0  0  0  0  0  0
   58.9389   31.5143   54.5460 H   0  0  0  0  0  0  0  0  0  0  0  0
   56.6243   30.2897   54.4811 H   0  0  0  0  0  0  0  0  0  0  0  0
   56.7212   32.0133   53.9563 H   0  0  0  0  0  0  0  0  0  0  0  0
   57.8640   29.3440   51.8270 H   0  0  0  0  0  0  0  0  0  0  0  0
   54.5270   31.4108   50.3625 H   0  0  0  0  0  0  0  0  0  0  0  0
   50.0090   32.7010   51.6660 H   0  0  0  0  0  0  0  0  0  0  0  0
   52.0875   30.4527   53.7694 H   0  0  0  0  0  0  0  0  0  0  0  0
   57.1160   31.0164   50.3126 H   0  0  0  0  0  0  0  0  0  0  0  0
   56.2034   32.3681   51.1424 H   0  0  0  0  0  0  0  0  0  0  0  0
   58.8360   32.5139   50.6868 H   0  0  0  0  0  0  0  0  0  0  0  0
   58.0547   33.2003   52.1646 H   0  0  0  0  0  0  0  0  0  0  0  0
  1  2  1  0
  2  3  2  0
  2  4  2  0
  2  5  1  0
  5  6  1  0
  6  7  2  0
  7  8  1  0
  8  9  2  0
  9 10  1  0
 10 11  1  0
 11 12  1  0
 12 13  1  0
 13 14  2  0
 13 15  1  0
 15 16  1  0
 16 17  1  0
 17 18  1  0
 18 19  1  0
 18 20  1  0
 20 21  1  0
 21 22  2  0
 22 23  1  0
 23 24  1  0
 23 25  2  0
 22 26  1  0
 26 27  2  0
 18 28  1  0
 28 29  1  0
 10 30  2  0
 30 31  1  0
 30  6  1  0
 29 15  1  0
 27 20  1  0
  1 32  1  0
  1 33  1  0
  1 34  1  0
  7 35  1  0
  8 36  1  0
  9 37  1  0
 11 38  1  0
 11 39  1  0
 12 40  1  0
 16 41  1  0
 16 42  1  0
 17 43  1  0
 17 44  1  0
 19 45  1  0
 21 46  1  0
 24 47  1  0
 26 48  1  0
 28 49  1  0
 28 50  1  0
 29 51  1  0
 29 52  1  0
M  CHG  2   5  -1  24  -1
M  END
>  <UniqueID>  (1) 
1

>  <SMILES>  (1) 
CS(=O)(=O)[N-]c1cccc(CNC(=O)N2CCC(O)(n3cc(C([NH-])=O)cn3)CC2)c1F

>  <Energy>  (1) 
85.89135997497607

>  <Genealogy>  (1) 
CS(=O)(=O)[N-]c1cccc(CNC(=O)N2CCC(O)(n3cc(C([NH-])=O)cn3)CC2)c1F (protonated)
CS(=O)(=O)[N-]c1cccc(CNC(=O)N2CCC(O)(n3cc(C([NH-])=O)cn3)CC2)c1F (3D coordinates assigned)
CS(=O)(=O)[N-]c1cccc(CNC(=O)N2CCC(O)(n3cc(C([NH-])=O)cn3)CC2)c1F (nonaromatic ring conformer: 85.89135997497607 kcal/mol)

>  <smiles>  (1) 
CS(=O)(=O)Nc1cccc(CNC(=O)N2CCC(O)(n3cc(C(N)=O)cn3)CC2)c1F

>  <score_type>  (1) 
oracle

>  <origin>  (1) 
adg

>  <m_score__min__energy>  (1) 
-12.31

>  <m_primary>  (1) 
energy

$$$$
1:0
     RDKit          3D

 47 50  0  0  0  0  0  0  0  0999 V2000
   64.4440   32.0930   49.5620 C   0  0  0  0  0  0  0  0  0  0  0  0
   63.4030   32.5920   48.6030 C   0  0  0  0  0  0  0  0  0  0  0  0
   62.0670   32.1880   48.7380 C   0  0  0  0  0  0  0  0  0  0  0  0
   61.1070   32.6150   47.8160 C   0  0  0  0  0  0  0  0  0  0  0  0
   61.4720   33.4280   46.7310 C   0  0  0  0  0  0  0  0  0  0  0  0
   60.4150   33.9060   45.7700 C   0  0  0  0  0  0  0  0  0  0  0  0
   59.1380   34.0770   46.4530 N   0  0  0  0  0  0  0  0  0  0  0  0
   58.0350   33.1840   46.2780 C   0  0  0  0  0  0  0  0  0  0  0  0
   57.2580   32.9480   47.2430 O   0  0  0  0  0  0  0  0  0  0  0  0
   57.8150   32.5360   44.9670 C   0  0  0  0  0  0  0  0  0  0  0  0
   57.9810   33.2860   43.7890 C   0  0  0  0  0  0  0  0  0  0  0  0
   57.7700   32.6990   42.5390 C   0  0  0  0  0  0  0  0  0  0  0  0
   57.3990   31.3580   42.4480 C   0  0  0  0  0  0  0  0  0  0  0  0
   57.2480   30.5960   43.6070 C   0  0  0  0  0  0  0  0  0  0  0  0
   57.4580   31.1720   44.8660 C   0  0  0  0  0  0  0  0  0  0  0  0
   57.4050   30.3400   46.0250 N   0  0  0  0  0  0  0  0  0  0  0  0
   58.5680   29.0770   46.2410 S   0  0  0  0  0  0  0  0  0  0  0  0
   59.3190   29.2930   47.5260 O   0  0  0  0  0  0  0  0  0  0  0  0
   59.5470   29.1080   45.1000 O   0  0  0  0  0  0  0  0  0  0  0  0
   57.7510   27.5160   46.2790 C   0  0  0  0  0  0  0  0  0  0  0  0
   58.4520   26.3690   46.7260 C   0  0  0  0  0  0  0  0  0  0  0  0
   57.8060   25.1240   46.8130 C   0  0  0  0  0  0  0  0  0  0  0  0
   56.4660   25.0620   46.4390 C   0  0  0  0  0  0  0  0  0  0  0  0
   55.6670   23.9860   46.4300 N   0  0  0  0  0  0  0  0  0  0  0  0
   54.4990   24.5050   45.9730 C   0  0  0  0  0  0  0  0  0  0  0  0
   53.4680   23.8030   45.8090 O   0  0  0  0  0  0  0  0  0  0  0  0
   54.5230   25.8360   45.7020 N   0  0  0  0  0  0  0  0  0  0  0  0
   55.7870   26.1600   46.0070 C   0  0  0  0  0  0  0  0  0  0  0  0
   56.3900   27.4120   45.9160 C   0  0  0  0  0  0  0  0  0  0  0  0
   62.8090   33.8460   46.6100 C   0  0  0  0  0  0  0  0  0  0  0  0
   63.7710   33.4140   47.5280 C   0  0  0  0  0  0  0  0  0  0  0  0
   64.1007   32.2575   50.5940 H   0  0  0  0  0  0  0  0  0  0  0  0
   64.6089   31.0180   49.3974 H   0  0  0  0  0  0  0  0  0  0  0  0
   65.3854   32.6378   49.3974 H   0  0  0  0  0  0  0  0  0  0  0  0
   61.7736   31.5332   49.5718 H   0  0  0  0  0  0  0  0  0  0  0  0
   60.0571   32.3116   47.9415 H   0  0  0  0  0  0  0  0  0  0  0  0
   60.7266   34.8694   45.3402 H   0  0  0  0  0  0  0  0  0  0  0  0
   60.2936   33.1553   44.9752 H   0  0  0  0  0  0  0  0  0  0  0  0
   58.2793   34.3429   43.8523 H   0  0  0  0  0  0  0  0  0  0  0  0
   57.8969   33.2963   41.6241 H   0  0  0  0  0  0  0  0  0  0  0  0
   57.2254   30.9009   41.4626 H   0  0  0  0  0  0  0  0  0  0  0  0
   56.9623   29.5365   43.5313 H   0  0  0  0  0  0  0  0  0  0  0  0
   59.5120   26.4537   47.0077 H   0  0  0  0  0  0  0  0  0  0  0  0
   58.3405   24.2291   47.1645 H   0  0  0  0  0  0  0  0  0  0  0  0
   55.8249   28.2911   45.5727 H   0  0  0  0  0  0  0  0  0  0  0  0
   63.0999   34.5169   45.7882 H   0  0  0  0  0  0  0  0  0  0  0  0
   64.8206   33.7201   47.4066 H   0  0  0  0  0  0  0  0  0  0  0  0
  1  2  1  0
  2  3  2  0
  3  4  1  0
  4  5  2  0
  5  6  1  0
  6  7  1  0
  7  8  1  0
  8  9  2  0
  8 10  1  0
 10 11  2  0
 11 12  1  0
 12 13  2  0
 13 14  1  0
 14 15  2  0
 15 16  1  0
 16 17  1  0
 17 18  2  0
 17 19  2  0
 17 20  1  0
 20 21  2  0
 21 22  1  0
 22 23  2  0
 23 24  1  0
 24 25  1  0
 25 26  2  0
 25 27  1  0
 27 28  1  0
 28 29  2  0
  5 30  1  0
 30 31  2  0
 31  2  1  0
 15 10  1  0
 29 20  1  0
 28 23  1  0
  1 32  1  0
  1 33  1  0
  1 34  1  0
  3 35  1  0
  4 36  1  0
  6 37  1  0
  6 38  1  0
 11 39  1  0
 12 40  1  0
 13 41  1  0
 14 42  1  0
 21 43  1  0
 22 44  1  0
 29 45  1  0
 30 46  1  0
 31 47  1  0
M  CHG  4   7  -1  16  -1  24  -1  27  -1
M  END
>  <UniqueID>  (2) 
2

>  <SMILES>  (2) 
Cc1ccc(C[N-]C(=O)c2ccccc2[N-]S(=O)(=O)c2ccc3[n-]c(=O)[n-]c3c2)cc1

>  <Energy>  (2) 
91.87091659019048

>  <Genealogy>  (2) 
Cc1ccc(C[N-]C(=O)c2ccccc2[N-]S(=O)(=O)c2ccc3[n-]c(=O)[n-]c3c2)cc1 (protonated)
Cc1ccc(C[N-]C(=O)c2ccccc2[N-]S(=O)(=O)c2ccc3[n-]c(=O)[n-]c3c2)cc1 (3D coordinates assigned)
Cc1ccc(C[N-]C(=O)c2ccccc2[N-]S(=O)(=O)c2ccc3[n-]c(=O)[n-]c3c2)cc1 (optimized conformer: 91.87091659019048 kcal/mol)

>  <smiles>  (2) 
Cc1ccc(CNC(=O)c2ccccc2NS(=O)(=O)c2ccc3[nH]c(=O)[nH]c3c2)cc1

>  <score_type>  (2) 
oracle

>  <origin>  (2) 
adg

>  <m_score__min__energy>  (2) 
-15.08

>  <m_primary>  (2) 
energy

$$$$
2:0
     RDKit          3D

 52 55  0  0  0  0  0  0  0  0999 V2000
   54.9290   23.8780   43.8700 O   0  0  0  0  0  0  0  0  0  0  0  0
   55.4550   23.7950   45.0110 C   0  0  0  0  0  0  0  0  0  0  0  0
   55.2130   22.6190   45.7960 N   0  0  0  0  0  0  0  0  0  0  0  0
   54.2720   22.4960   46.8730 C   0  0  0  0  0  0  0  0  0  0  0  0
   54.6740   22.5950   48.2190 C   0  0  0  0  0  0  0  0  0  0  0  0
   53.7320   22.4830   49.2450 C   0  0  0  0  0  0  0  0  0  0  0  0
   52.3830   22.2880   48.9400 C   0  0  0  0  0  0  0  0  0  0  0  0
   51.9730   22.2110   47.6080 C   0  0  0  0  0  0  0  0  0  0  0  0
   52.9110   22.3220   46.5750 C   0  0  0  0  0  0  0  0  0  0  0  0
   52.4890   22.2490   45.2530 O   0  0  0  0  0  0  0  0  0  0  0  0
   56.3280   24.8940   45.4870 C   0  0  0  0  0  0  0  0  0  0  0  0
   57.7160   24.6970   45.5410 C   0  0  0  0  0  0  0  0  0  0  0  0
   58.5630   25.7230   45.9670 C   0  0  0  0  0  0  0  0  0  0  0  0
   58.0370   26.9660   46.3520 C   0  0  0  0  0  0  0  0  0  0  0  0
   58.9090   28.0220   46.7960 N   0  0  0  0  0  0  0  0  0  0  0  0
   59.6080   27.8930   48.0850 C   0  0  0  0  0  0  0  0  0  0  0  0
   60.2990   29.2020   48.4830 C   0  0  0  0  0  0  0  0  0  0  0  0
   59.4080   30.3410   48.2210 N   0  0  0  0  0  0  0  0  0  0  0  0
   59.0480   31.2380   49.2880 C   0  0  0  0  0  0  0  0  0  0  0  0
   58.8590   30.7850   50.4480 O   0  0  0  0  0  0  0  0  0  0  0  0
   58.8380   32.6340   49.0500 N   0  0  0  0  0  0  0  0  0  0  0  0
   58.9310   33.2880   47.7770 C   0  0  0  0  0  0  0  0  0  0  0  0
   60.1940   33.6550   47.2940 C   0  0  0  0  0  0  0  0  0  0  0  0
   60.3210   34.2780   46.0480 C   0  0  0  0  0  0  0  0  0  0  0  0
   59.1860   34.5240   45.2710 C   0  0  0  0  0  0  0  0  0  0  0  0
   57.9240   34.1420   45.7350 C   0  0  0  0  0  0  0  0  0  0  0  0
   57.7940   33.5180   46.9790 C   0  0  0  0  0  0  0  0  0  0  0  0
   58.7460   30.4680   46.9120 C   0  0  0  0  0  0  0  0  0  0  0  0
   59.0430   29.2610   46.0170 C   0  0  0  0  0  0  0  0  0  0  0  0
   56.6460   27.1560   46.3260 C   0  0  0  0  0  0  0  0  0  0  0  0
   55.7930   26.1290   45.9070 C   0  0  0  0  0  0  0  0  0  0  0  0
   54.4200   26.3400   45.9380 O   0  0  0  0  0  0  0  0  0  0  0  0
   55.7335   22.7611   48.4636 H   0  0  0  0  0  0  0  0  0  0  0  0
   54.0535   22.5485   50.2949 H   0  0  0  0  0  0  0  0  0  0  0  0
   51.6439   22.1951   49.7493 H   0  0  0  0  0  0  0  0  0  0  0  0
   50.9095   22.0626   47.3693 H   0  0  0  0  0  0  0  0  0  0  0  0
   58.1409   23.7264   45.2454 H   0  0  0  0  0  0  0  0  0  0  0  0
   59.6497   25.5556   46.0009 H   0  0  0  0  0  0  0  0  0  0  0  0
   58.8777   27.6237   48.8622 H   0  0  0  0  0  0  0  0  0  0  0  0
   60.3775   27.1135   47.9837 H   0  0  0  0  0  0  0  0  0  0  0  0
   60.5464   29.1721   49.5544 H   0  0  0  0  0  0  0  0  0  0  0  0
   61.2185   29.3193   47.8907 H   0  0  0  0  0  0  0  0  0  0  0  0
   61.0907   33.4521   47.8980 H   0  0  0  0  0  0  0  0  0  0  0  0
   61.3143   34.5742   45.6799 H   0  0  0  0  0  0  0  0  0  0  0  0
   59.2857   35.0186   44.2935 H   0  0  0  0  0  0  0  0  0  0  0  0
   57.0319   34.3327   45.1203 H   0  0  0  0  0  0  0  0  0  0  0  0
   56.8012   33.2059   47.3353 H   0  0  0  0  0  0  0  0  0  0  0  0
   57.6593   30.5408   47.0659 H   0  0  0  0  0  0  0  0  0  0  0  0
   59.1308   31.3708   46.4152 H   0  0  0  0  0  0  0  0  0  0  0  0
   58.3319   29.2441   45.1780 H   0  0  0  0  0  0  0  0  0  0  0  0
   60.0696   29.3385   45.6295 H   0  0  0  0  0  0  0  0  0  0  0  0
   56.2226   28.1220   46.6382 H   0  0  0  0  0  0  0  0  0  0  0  0
  1  2  2  0
  2  3  1  0
  3  4  1  0
  4  5  2  0
  5  6  1  0
  6  7  2  0
  7  8  1  0
  8  9  2  0
  9 10  1  0
  2 11  1  0
 11 12  2  0
 12 13  1  0
 13 14  2  0
 14 15  1  0
 15 16  1  0
 16 17  1  0
 17 18  1  0
 18 19  1  0
 19 20  2  0
 19 21  1  0
 21 22  1  0
 22 23  2  0
 23 24  1  0
 24 25  2  0
 25 26  1  0
 26 27  2  0
 18 28  1  0
 28 29  1  0
 14 30  1  0
 30 31  2  0
 31 32  1  0
  9  4  1  0
 31 11  1  0
 29 15  1  0
 27 22  1  0
  5 33  1  0
  6 34  1  0
  7 35  1  0
  8 36  1  0
 12 37  1  0
 13 38  1  0
 16 39  1  0
 16 40  1  0
 17 41  1  0
 17 42  1  0
 23 43  1  0
 24 44  1  0
 25 45  1  0
 26 46  1  0
 27 47  1  0
 28 48  1  0
 28 49  1  0
 29 50  1  0
 29 51  1  0
 30 52  1  0
M  CHG  4   3  -1  10  -1  21  -1  32  -1
M  END
>  <UniqueID>  (3) 
3

>  <SMILES>  (3) 
O=C([N-]c1ccccc1[O-])c1ccc(N2CCN(C(=O)[N-]c3ccccc3)CC2)cc1[O-]

>  <Energy>  (3) 
75.62594756327272

>  <Genealogy>  (3) 
O=C([N-]c1ccccc1[O-])c1ccc(N2CCN(C(=O)[N-]c3ccccc3)CC2)cc1[O-] (protonated)
O=C([N-]c1ccccc1[O-])c1ccc(N2CCN(C(=O)[N-]c3ccccc3)CC2)cc1[O-] (3D coordinates assigned)
O=C([N-]c1ccccc1[O-])c1ccc(N2CCN(C(=O)[N-]c3ccccc3)CC2)cc1[O-] (nonaromatic ring conformer: 75.62594756327272 kcal/mol)

>  <smiles>  (3) 
O=C(Nc1ccccc1O)c1ccc(N2CCN(C(=O)Nc3ccccc3)CC2)cc1O

>  <score_type>  (3) 
oracle

>  <origin>  (3) 
adg

>  <m_score__min__energy>  (3) 
-16.530000000000001

>  <m_primary>  (3) 
energy

$$$$
3:0
     RDKit          3D

 57 60  0  0  0  0  0  0  0  0999 V2000
   60.7520   30.0440   45.9350 O   0  0  0  0  0  0  0  0  0  0  0  0
   59.5540   29.6530   45.8720 C   0  0  0  0  0  0  0  0  0  0  0  0
   59.1380   28.7270   44.7710 C   0  0  0  0  0  0  0  0  0  0  0  0
   57.9430   27.9280   45.1920 C   0  0  0  0  0  0  0  0  0  0  0  0
   57.9600   26.2890   45.5810 S   0  0  0  0  0  0  0  0  0  0  0  0
   56.2960   26.2500   45.8350 C   0  0  0  0  0  0  0  0  0  0  0  0
   55.6580   25.2250   46.1910 O   0  0  0  0  0  0  0  0  0  0  0  0
   55.7070   27.4460   45.6200 N   0  0  0  0  0  0  0  0  0  0  0  0
   56.6240   28.3810   45.2550 C   0  0  0  0  0  0  0  0  0  0  0  0
   56.2570   29.6870   44.9640 O   0  0  0  0  0  0  0  0  0  0  0  0
   58.6000   30.0820   46.8500 N   0  0  0  0  0  0  0  0  0  0  0  0
   58.9630   30.9870   47.9010 C   0  0  0  0  0  0  0  0  0  0  0  0
   59.4100   30.4920   49.1490 C   0  0  0  0  0  0  0  0  0  0  0  0
   59.5820   29.0140   49.4130 C   0  0  0  0  0  0  0  0  0  0  0  0
   60.9120   28.7360   49.8490 O   0  0  0  0  0  0  0  0  0  0  0  0
   61.2900   28.7290   51.1960 C   0  0  0  0  0  0  0  0  0  0  0  0
   60.4780   28.3640   52.0880 O   0  0  0  0  0  0  0  0  0  0  0  0
   62.6820   29.1270   51.5770 C   0  0  0  0  0  0  0  0  0  0  0  0
   62.8670   30.5680   51.4140 N   0  0  0  0  0  0  0  0  0  0  0  0
   63.7680   31.2430   50.5170 C   0  0  0  0  0  0  0  0  0  0  0  0
   65.0010   31.2100   50.7790 O   0  0  0  0  0  0  0  0  0  0  0  0
   63.3230   31.9760   49.3110 C   0  0  0  0  0  0  0  0  0  0  0  0
   63.4530   33.3500   49.1200 C   0  0  0  0  0  0  0  0  0  0  0  0
   62.9070   33.8030   47.9120 C   0  0  0  0  0  0  0  0  0  0  0  0
   62.3290   32.8000   47.1500 C   0  0  0  0  0  0  0  0  0  0  0  0
   62.4990   31.3510   47.9810 S   0  0  0  0  0  0  0  0  0  0  0  0
   59.6790   31.3970   50.1930 C   0  0  0  0  0  0  0  0  0  0  0  0
   59.5280   32.7700   50.0000 C   0  0  0  0  0  0  0  0  0  0  0  0
   59.1090   33.2600   48.7660 C   0  0  0  0  0  0  0  0  0  0  0  0
   58.8350   32.3820   47.7050 C   0  0  0  0  0  0  0  0  0  0  0  0
   58.4740   32.9250   46.4240 N   0  0  0  0  0  0  0  0  0  0  0  0
   57.4020   32.3120   45.6300 C   0  0  0  0  0  0  0  0  0  0  0  0
   57.6920   32.4810   44.1330 C   0  0  0  0  0  0  0  0  0  0  0  0
   58.0010   33.8260   43.8250 O   0  0  0  0  0  0  0  0  0  0  0  0
   59.2060   34.1930   44.4680 C   0  0  0  0  0  0  0  0  0  0  0  0
   59.0210   34.2090   45.9890 C   0  0  0  0  0  0  0  0  0  0  0  0
   58.8850   29.3158   43.8770 H   0  0  0  0  0  0  0  0  0  0  0  0
   59.9678   28.0409   44.5459 H   0  0  0  0  0  0  0  0  0  0  0  0
   57.5910   29.8490   46.7170 H   0  0  0  0  0  0  0  0  0  0  0  0
   58.8724   28.7005   50.1928 H   0  0  0  0  0  0  0  0  0  0  0  0
   59.3900   28.4614   48.4815 H   0  0  0  0  0  0  0  0  0  0  0  0
   62.8608   28.8560   52.6280 H   0  0  0  0  0  0  0  0  0  0  0  0
   63.3932   28.6015   50.9227 H   0  0  0  0  0  0  0  0  0  0  0  0
   63.9383   34.0160   49.8487 H   0  0  0  0  0  0  0  0  0  0  0  0
   62.9345   34.8567   47.5975 H   0  0  0  0  0  0  0  0  0  0  0  0
   61.8436   32.9305   46.1716 H   0  0  0  0  0  0  0  0  0  0  0  0
   60.0115   31.0177   51.1705 H   0  0  0  0  0  0  0  0  0  0  0  0
   59.7403   33.4669   50.8241 H   0  0  0  0  0  0  0  0  0  0  0  0
   58.9916   34.3441   48.6210 H   0  0  0  0  0  0  0  0  0  0  0  0
   57.3391   31.2403   45.8697 H   0  0  0  0  0  0  0  0  0  0  0  0
   56.4488   32.8058   45.8700 H   0  0  0  0  0  0  0  0  0  0  0  0
   58.5454   31.8438   43.8578 H   0  0  0  0  0  0  0  0  0  0  0  0
   56.7948   32.1893   43.5673 H   0  0  0  0  0  0  0  0  0  0  0  0
   59.9908   33.4679   44.2067 H   0  0  0  0  0  0  0  0  0  0  0  0
   59.4938   35.2010   44.1346 H   0  0  0  0  0  0  0  0  0  0  0  0
   59.9931   34.3777   46.4754 H   0  0  0  0  0  0  0  0  0  0  0  0
   58.3284   35.0171   46.2669 H   0  0  0  0  0  0  0  0  0  0  0  0
  1  2  2  0
  2  3  1  0
  3  4  1  0
  4  5  1  0
  5  6  1  0
  6  7  2  0
  6  8  1  0
  8  9  1  0
  9 10  1  0
  2 11  1  0
 11 12  1  0
 12 13  1  0
 13 14  1  0
 14 15  1  0
 15 16  1  0
 16 17  2  0
 16 18  1  0
 18 19  1  0
 19 20  1  0
 20 21  2  0
 20 22  1  0
 22 23  2  0
 23 24  1  0
 24 25  2  0
 25 26  1  0
 13 27  2  0
 27 28  1  0
 28 29  2  0
 29 30  1  0
 30 31  1  0
 31 32  1  0
 32 33  1  0
 33 34  1  0
 34 35  1  0
 35 36  1  0
  9  4  2  0
 30 12  2  0
 36 31  1  0
 26 22  1  0
  3 37  1  0
  3 38  1  0
 11 39  1  0
 14 40  1  0
 14 41  1  0
 18 42  1  0
 18 43  1  0
 23 44  1  0
 24 45  1  0
 25 46  1  0
 27 47  1  0
 28 48  1  0
 29 49  1  0
 32 50  1  0
 32 51  1  0
 33 52  1  0
 33 53  1  0
 35 54  1  0
 35 55  1  0
 36 56  1  0
 36 57  1  0
M  CHG  3   8  -1  10  -1  19  -1
M  END
>  <UniqueID>  (4) 
4

>  <SMILES>  (4) 
O=C(Cc1sc(=O)[n-]c1[O-])Nc1c(COC(=O)C[N-]C(=O)c2cccs2)cccc1N1CCOCC1

>  <Energy>  (4) 
122.85387078679827

>  <Genealogy>  (4) 
O=C(Cc1sc(=O)[n-]c1[O-])Nc1c(COC(=O)C[N-]C(=O)c2cccs2)cccc1N1CCOCC1 (protonated)
O=C(Cc1sc(=O)[n-]c1[O-])Nc1c(COC(=O)C[N-]C(=O)c2cccs2)cccc1N1CCOCC1 (3D coordinates assigned)
O=C(Cc1sc(=O)[n-]c1[O-])Nc1c(COC(=O)C[N-]C(=O)c2cccs2)cccc1N1CCOCC1 (nonaromatic ring conformer: 122.85387078679827 kcal/mol)

>  <smiles>  (4) 
O=C(Cc1sc(=O)[nH]c1O)Nc1c(COC(=O)CNC(=O)c2cccs2)cccc1N1CCOCC1

>  <score_type>  (4) 
oracle

>  <origin>  (4) 
adg

>  <m_score__min__energy>  (4) 
-15.609999999999999

>  <m_primary>  (4) 
energy

$$$$
4:0
     RDKit          3D

 61 64  0  0  0  0  0  0  0  0999 V2000
   57.0259   31.9515   42.5727 H   0  0  0  0  0  0  0  0  0  0  0  0
   57.0390   31.1220   43.2950 C   0  0  0  0  0  0  0  0  0  0  0  0
   57.0910   31.3810   44.6700 C   0  0  0  0  0  0  0  0  0  0  0  0
   57.1010   32.7860   45.1800 C   0  0  0  0  0  0  0  0  0  0  0  0
   57.1009   32.7768   46.2800 H   0  0  0  0  0  0  0  0  0  0  0  0
   58.0028   33.3012   44.8177 H   0  0  0  0  0  0  0  0  0  0  0  0
   56.2066   33.3140   44.8177 H   0  0  0  0  0  0  0  0  0  0  0  0
   57.0850   30.3440   45.5510 N   0  0  0  0  0  0  0  0  0  0  0  0
   57.0620   29.0420   45.1450 C   0  0  0  0  0  0  0  0  0  0  0  0
   57.0540   28.0640   46.0060 N   0  0  0  0  0  0  0  0  0  0  0  0
   56.4120   26.7870   45.8490 C   0  0  0  0  0  0  0  0  0  0  0  0
   55.1640   26.7180   46.0040 O   0  0  0  0  0  0  0  0  0  0  0  0
   57.1560   25.5580   45.4830 C   0  0  0  0  0  0  0  0  0  0  0  0
   56.7050   24.7860   44.3990 C   0  0  0  0  0  0  0  0  0  0  0  0
   55.8192   25.1071   43.8313 H   0  0  0  0  0  0  0  0  0  0  0  0
   57.3730   23.6140   44.0370 C   0  0  0  0  0  0  0  0  0  0  0  0
   57.0087   23.0130   43.1908 H   0  0  0  0  0  0  0  0  0  0  0  0
   58.5010   23.2050   44.7470 C   0  0  0  0  0  0  0  0  0  0  0  0
   59.0184   22.2752   44.4679 H   0  0  0  0  0  0  0  0  0  0  0  0
   58.9750   23.9740   45.8120 C   0  0  0  0  0  0  0  0  0  0  0  0
   59.8626   23.6439   46.3716 H   0  0  0  0  0  0  0  0  0  0  0  0
   58.3250   25.1680   46.1740 C   0  0  0  0  0  0  0  0  0  0  0  0
   58.8230   25.9780   47.2520 N   0  0  0  0  0  0  0  0  0  0  0  0
   59.9460   26.8670   47.1940 C   0  0  0  0  0  0  0  0  0  0  0  0
   61.1010   26.3710   47.1130 O   0  0  0  0  0  0  0  0  0  0  0  0
   59.7890   28.3380   47.2830 C   0  0  0  0  0  0  0  0  0  0  0  0
   59.0660   28.9080   48.3440 C   0  0  0  0  0  0  0  0  0  0  0  0
   58.6232   28.2588   49.1137 H   0  0  0  0  0  0  0  0  0  0  0  0
   58.9050   30.2940   48.4290 C   0  0  0  0  0  0  0  0  0  0  0  0
   58.3408   30.7286   49.2673 H   0  0  0  0  0  0  0  0  0  0  0  0
   59.4590   31.1340   47.4510 C   0  0  0  0  0  0  0  0  0  0  0  0
   59.2610   32.6320   47.5220 C   0  0  0  0  0  0  0  0  0  0  0  0
   59.1876   33.0290   46.4988 H   0  0  0  0  0  0  0  0  0  0  0  0
   58.3403   32.8255   48.0920 H   0  0  0  0  0  0  0  0  0  0  0  0
   60.3810   33.3100   48.2190 N   0  0  0  0  0  0  0  0  0  0  0  0
   60.0360   34.2480   48.5350 H   0  0  0  0  0  0  0  0  0  0  0  0
   61.5100   33.5640   47.2790 C   0  0  0  0  0  0  0  0  0  0  0  0
   61.1184   33.5737   46.2511 H   0  0  0  0  0  0  0  0  0  0  0  0
   61.9595   34.5312   47.5483 H   0  0  0  0  0  0  0  0  0  0  0  0
   62.6100   32.4910   47.3790 C   0  0  0  0  0  0  0  0  0  0  0  0
   62.1788   31.5160   47.1081 H   0  0  0  0  0  0  0  0  0  0  0  0
   63.4214   32.7758   46.6931 H   0  0  0  0  0  0  0  0  0  0  0  0
   63.1820   32.3970   48.7450 N   0  0  0  0  0  0  0  0  0  0  0  0
   64.4640   33.1120   48.8410 C   0  0  0  0  0  0  0  0  0  0  0  0
   64.7244   33.2572   49.8998 H   0  0  0  0  0  0  0  0  0  0  0  0
   65.2506   32.5223   48.3475 H   0  0  0  0  0  0  0  0  0  0  0  0
   64.3756   34.0911   48.3475 H   0  0  0  0  0  0  0  0  0  0  0  0
   62.2560   32.8540   49.8070 C   0  0  0  0  0  0  0  0  0  0  0  0
   62.4999   32.3341   50.7452 H   0  0  0  0  0  0  0  0  0  0  0  0
   62.3706   33.9413   49.9280 H   0  0  0  0  0  0  0  0  0  0  0  0
   60.8000   32.5550   49.4320 C   0  0  0  0  0  0  0  0  0  0  0  0
   60.6958   31.4777   49.2358 H   0  0  0  0  0  0  0  0  0  0  0  0
   60.1580   32.8653   50.2696 H   0  0  0  0  0  0  0  0  0  0  0  0
   60.1680   30.5670   46.3820 C   0  0  0  0  0  0  0  0  0  0  0  0
   60.6014   31.2168   45.6075 H   0  0  0  0  0  0  0  0  0  0  0  0
   60.3270   29.1820   46.2950 C   0  0  0  0  0  0  0  0  0  0  0  0
   60.8773   28.7481   45.4471 H   0  0  0  0  0  0  0  0  0  0  0  0
   57.0140   28.7510   43.7760 C   0  0  0  0  0  0  0  0  0  0  0  0
   56.9844   27.7067   43.4318 H   0  0  0  0  0  0  0  0  0  0  0  0
   57.0040   29.7980   42.8510 C   0  0  0  0  0  0  0  0  0  0  0  0
   56.9686   29.5798   41.7734 H   0  0  0  0  0  0  0  0  0  0  0  0
  1  2  1  0
  2  3  2  0
  3  4  1  0
  4  5  1  0
  4  6  1  0
  4  7  1  0
  3  8  1  0
  8  9  1  0
  9 10  2  0
 10 11  1  0
 11 12  2  0
 11 13  1  0
 13 14  2  0
 14 15  1  0
 14 16  1  0
 16 17  1  0
 16 18  2  0
 18 19  1  0
 18 20  1  0
 20 21  1  0
 20 22  2  0
 22 23  1  0
 23 24  1  0
 24 25  2  0
 24 26  1  0
 26 27  2  0
 27 28  1  0
 27 29  1  0
 29 30  1  0
 29 31  2  0
 31 32  1  0
 32 33  1  0
 32 34  1  0
 32 35  1  0
 35 36  1  0
 35 37  1  0
 37 38  1  0
 37 39  1  0
 37 40  1  0
 40 41  1  0
 40 42  1  0
 40 43  1  0
 43 44  1  0
 44 45  1  0
 44 46  1  0
 44 47  1  0
 43 48  1  0
 48 49  1  0
 48 50  1  0
 48 51  1  0
 51 52  1  0
 51 53  1  0
 31 54  1  0
 54 55  1  0
 54 56  2  0
 56 57  1  0
  9 58  1  0
 58 59  1  0
 58 60  2  0
 60 61  1  0
 60  2  1  0
 22 13  1  0
 56 26  1  0
 51 35  1  0
M  CHG  3   8  -1  23  -1  35   1
M  END
>  <UniqueID>  (5) 
5

>  <SMILES>  (5) 
Cc1ccc/c(=N/C(=O)c2ccccc2[N-]C(=O)c2ccc(C[NH+]3CCN(C)CC3)cc2)[n-]1

>  <Energy>  (5) 
91.82360366073536

>  <Genealogy>  (5) 
Cc1cccc(=NC(=O)c2ccccc2[N-]C(=O)c2ccc(C[NH+]3CCN(C)CC3)cc2)[n-]1 (protonated)
Cc1ccc/c(=N/C(=O)c2ccccc2[N-]C(=O)c2ccc(C[NH+]3CCN(C)CC3)cc2)[n-]1 (cis-trans isomerization)
Cc1ccc/c(=N/C(=O)c2ccccc2[N-]C(=O)c2ccc(C[NH+]3CCN(C)CC3)cc2)[n-]1 (3D coordinates assigned)
Cc1ccc/c(=N/C(=O)c2ccccc2[N-]C(=O)c2ccc(C[NH+]3CCN(C)CC3)cc2)[n-]1 (nonaromatic ring conformer: 91.82360366073536 kcal/mol)

>  <smiles>  (5) 
Cc1cccc(=NC(=O)c2ccccc2NC(=O)c2ccc(CN3CCN(C)CC3)cc2)[nH]1

>  <score_type>  (5) 
oracle

>  <origin>  (5) 
adg

>  <m_score__min__energy>  (5) 
-11.199999999999999

>  <m_primary>  (5) 
energy

$$$$
5:0
     RDKit          3D

 45 47  0  0  0  0  0  0  0  0999 V2000
   56.5250   30.9870   52.3500 C   0  0  0  0  0  0  0  0  0  0  0  0
   57.2850   30.0210   51.6320 O   0  0  0  0  0  0  0  0  0  0  0  0
   58.3370   30.3300   50.7550 C   0  0  0  0  0  0  0  0  0  0  0  0
   59.2720   29.3330   50.4660 C   0  0  0  0  0  0  0  0  0  0  0  0
   60.3330   29.5890   49.5970 C   0  0  0  0  0  0  0  0  0  0  0  0
   60.4710   30.8470   49.0080 C   0  0  0  0  0  0  0  0  0  0  0  0
   59.5490   31.8740   49.2890 C   0  0  0  0  0  0  0  0  0  0  0  0
   59.6550   33.2240   48.6670 C   0  0  0  0  0  0  0  0  0  0  0  0
   59.6650   34.2340   49.4240 O   0  0  0  0  0  0  0  0  0  0  0  0
   59.7510   33.4670   47.1730 C   0  0  2  0  0  0  0  0  0  0  0  0
   60.3110   34.8740   46.8370 C   0  0  0  0  0  0  0  0  0  0  0  0
   59.6090   35.5390   45.6430 C   0  0  0  0  0  0  0  0  0  0  0  0
   59.3540   34.5380   44.5100 C   0  0  0  0  0  0  0  0  0  0  0  0
   58.6190   33.3570   44.9880 N   0  0  0  0  0  0  0  0  0  0  0  0
   58.1600   32.3890   44.0260 C   0  0  0  0  0  0  0  0  0  0  0  0
   58.2390   32.6550   42.7950 O   0  0  0  0  0  0  0  0  0  0  0  0
   57.5890   31.0860   44.4410 C   0  0  0  0  0  0  0  0  0  0  0  0
   58.3870   30.1050   45.0510 C   0  0  0  0  0  0  0  0  0  0  0  0
   57.8250   28.8890   45.4450 C   0  0  0  0  0  0  0  0  0  0  0  0
   56.4630   28.6650   45.2360 C   0  0  0  0  0  0  0  0  0  0  0  0
   55.8910   27.4580   45.6250 O   0  0  0  0  0  0  0  0  0  0  0  0
   55.6970   29.6290   44.6580 N   0  0  0  0  0  0  0  0  0  0  0  0
   56.2210   30.8220   44.2670 C   0  0  0  0  0  0  0  0  0  0  0  0
   58.4420   33.1320   46.4310 C   0  0  0  0  0  0  0  0  0  0  0  0
   58.4790   31.6010   50.1630 C   0  0  0  0  0  0  0  0  0  0  0  0
   56.6527   30.8247   53.4304 H   0  0  0  0  0  0  0  0  0  0  0  0
   56.8734   31.9967   52.0872 H   0  0  0  0  0  0  0  0  0  0  0  0
   55.4616   30.8860   52.0872 H   0  0  0  0  0  0  0  0  0  0  0  0
   59.1709   28.3393   50.9268 H   0  0  0  0  0  0  0  0  0  0  0  0
   61.0633   28.7968   49.3752 H   0  0  0  0  0  0  0  0  0  0  0  0
   61.3067   31.0378   48.3187 H   0  0  0  0  0  0  0  0  0  0  0  0
   60.4938   32.7537   46.7863 H   0  0  0  0  0  0  0  0  0  0  0  0
   60.1859   35.5192   47.7191 H   0  0  0  0  0  0  0  0  0  0  0  0
   61.3687   34.7465   46.5630 H   0  0  0  0  0  0  0  0  0  0  0  0
   58.6460   35.9509   45.9791 H   0  0  0  0  0  0  0  0  0  0  0  0
   60.2636   36.3350   45.2584 H   0  0  0  0  0  0  0  0  0  0  0  0
   58.7644   35.0315   43.7233 H   0  0  0  0  0  0  0  0  0  0  0  0
   60.3267   34.2040   44.1198 H   0  0  0  0  0  0  0  0  0  0  0  0
   59.4574   30.2948   45.2189 H   0  0  0  0  0  0  0  0  0  0  0  0
   58.4493   28.1151   45.9155 H   0  0  0  0  0  0  0  0  0  0  0  0
   55.9650   26.6350   45.0370 H   0  0  0  0  0  0  0  0  0  0  0  0
   55.5700   31.5833   43.8124 H   0  0  0  0  0  0  0  0  0  0  0  0
   57.6339   33.7776   46.8054 H   0  0  0  0  0  0  0  0  0  0  0  0
   58.1833   32.0773   46.6064 H   0  0  0  0  0  0  0  0  0  0  0  0
   57.7452   32.3894   50.3863 H   0  0  0  0  0  0  0  0  0  0  0  0
  1  2  1  0
  2  3  1  0
  3  4  2  0
  4  5  1  0
  5  6  2  0
  6  7  1  0
  7  8  1  0
  8  9  2  0
  8 10  1  0
 10 11  1  0
 11 12  1  0
 12 13  1  0
 13 14  1  0
 14 15  1  0
 15 16  2  0
 15 17  1  0
 17 18  2  0
 18 19  1  0
 19 20  2  0
 20 21  1  0
 20 22  1  0
 22 23  2  0
 14 24  1  0
  7 25  2  0
 25  3  1  0
 24 10  1  0
 23 17  1  0
  1 26  1  0
  1 27  1  0
  1 28  1  0
  4 29  1  0
  5 30  1  0
  6 31  1  0
 10 32  1  6
 11 33  1  0
 11 34  1  0
 12 35  1  0
 12 36  1  0
 13 37  1  0
 13 38  1  0
 18 39  1  0
 19 40  1  0
 21 41  1  0
 23 42  1  0
 24 43  1  0
 24 44  1  0
 25 45  1  0
M  END
>  <UniqueID>  (6) 
6

>  <SMILES>  (6) 
COc1cccc(C(=O)[C@@H]2CCCN(C(=O)c3ccc(O)nc3)C2)c1

>  <Energy>  (6) 
56.5270985556668

>  <Genealogy>  (6) 
COc1cccc(C(=O)[C@@H]2CCCN(C(=O)c3ccc(O)nc3)C2)c1 (chirality)
COc1cccc(C(=O)[C@@H]2CCCN(C(=O)c3ccc(O)nc3)C2)c1 (3D coordinates assigned)
COc1cccc(C(=O)[C@@H]2CCCN(C(=O)c3ccc(O)nc3)C2)c1 (nonaromatic ring conformer: 56.5270985556668 kcal/mol)

>  <smiles>  (6) 
COc1cccc(C(=O)C2CCCN(C(=O)c3ccc(O)nc3)C2)c1

>  <score_type>  (6) 
oracle

>  <origin>  (6) 
adg

>  <m_score__min__energy>  (6) 
-9.0700000000000003

>  <m_primary>  (6) 
energy

$$$$
6:0
     RDKit          3D

 32 34  0  0  0  0  0  0  0  0999 V2000
   57.7730   26.4540   44.3270 O   0  0  0  0  0  0  0  0  0  0  0  0
   57.2410   26.1640   45.4330 C   0  0  0  0  0  0  0  0  0  0  0  0
   57.4980   27.0610   46.6150 C   0  0  0  0  0  0  0  0  0  0  0  0
   57.6480   28.4550   46.1890 N   0  0  0  0  0  0  0  0  0  0  0  0
   58.7070   29.2650   46.4080 C   0  0  0  0  0  0  0  0  0  0  0  0
   59.8540   28.8900   47.0990 O   0  0  0  0  0  0  0  0  0  0  0  0
   58.4900   30.5040   45.8400 C   0  0  0  0  0  0  0  0  0  0  0  0
   57.2580   30.4500   45.2380 C   0  0  0  0  0  0  0  0  0  0  0  0
   56.7690   29.1790   45.4620 C   0  0  0  0  0  0  0  0  0  0  0  0
   55.5470   28.6970   45.0050 O   0  0  0  0  0  0  0  0  0  0  0  0
   56.6410   31.5820   44.4850 C   0  0  0  0  0  0  0  0  0  0  0  0
   57.5170   32.8190   44.5130 C   0  0  0  0  0  0  0  0  0  0  0  0
   58.7320   32.8730   45.1050 C   0  0  0  0  0  0  0  0  0  0  0  0
   59.3810   31.7050   45.8190 C   0  0  0  0  0  0  0  0  0  0  0  0
   56.3460   24.9840   45.5150 C   0  0  0  0  0  0  0  0  0  0  0  0
   56.8910   23.7010   45.3610 C   0  0  0  0  0  0  0  0  0  0  0  0
   56.0680   22.5730   45.3990 C   0  0  0  0  0  0  0  0  0  0  0  0
   56.7670   20.9750   45.1830 Cl  0  0  0  0  0  0  0  0  0  0  0  0
   54.6940   22.7400   45.6030 C   0  0  0  0  0  0  0  0  0  0  0  0
   53.9270   21.7420   45.6370 O   0  0  0  0  0  0  0  0  0  0  0  0
   54.1810   23.9860   45.7720 N   0  0  0  0  0  0  0  0  0  0  0  0
   54.9590   25.1000   45.7390 C   0  0  0  0  0  0  0  0  0  0  0  0
   54.3690   26.3370   45.9600 O   0  0  0  0  0  0  0  0  0  0  0  0
   56.6522   26.9869   47.3143 H   0  0  0  0  0  0  0  0  0  0  0  0
   58.4295   26.7403   47.1044 H   0  0  0  0  0  0  0  0  0  0  0  0
   56.4915   31.2749   43.4394 H   0  0  0  0  0  0  0  0  0  0  0  0
   55.6826   31.8302   44.9644 H   0  0  0  0  0  0  0  0  0  0  0  0
   57.1414   33.7287   44.0216 H   0  0  0  0  0  0  0  0  0  0  0  0
   59.2831   33.8241   45.0656 H   0  0  0  0  0  0  0  0  0  0  0  0
   60.3162   31.4458   45.3010 H   0  0  0  0  0  0  0  0  0  0  0  0
   59.5760   32.0050   46.8592 H   0  0  0  0  0  0  0  0  0  0  0  0
   57.9740   23.5822   45.2092 H   0  0  0  0  0  0  0  0  0  0  0  0
  1  2  2  0
  2  3  1  0
  3  4  1  0
  4  5  1  0
  5  6  1  0
  5  7  2  0
  7  8  1  0
  8  9  2  0
  9 10  1  0
  8 11  1  0
 11 12  1  0
 12 13  2  0
 13 14  1  0
  2 15  1  0
 15 16  1  0
 16 17  2  0
 17 18  1  0
 17 19  1  0
 19 20  2  0
 19 21  1  0
 21 22  1  0
 22 23  1  0
  9  4  1  0
 22 15  2  0
 14  7  1  0
  3 24  1  0
  3 25  1  0
 11 26  1  0
 11 27  1  0
 12 28  1  0
 13 29  1  0
 14 30  1  0
 14 31  1  0
 16 32  1  0
M  CHG  4   6  -1  10  -1  21  -1  23  -1
M  END
>  <UniqueID>  (7) 
7

>  <SMILES>  (7) 
O=C(Cn1c([O-])c2c(c1[O-])CC=CC2)c1cc(Cl)c(=O)[n-]c1[O-]

>  <Energy>  (7) 
71.80383999268905

>  <Genealogy>  (7) 
O=C(Cn1c([O-])c2c(c1[O-])CC=CC2)c1cc(Cl)c(=O)[n-]c1[O-] (protonated)
O=C(Cn1c([O-])c2c(c1[O-])CC=CC2)c1cc(Cl)c(=O)[n-]c1[O-] (3D coordinates assigned)
O=C(Cn1c([O-])c2c(c1[O-])CC=CC2)c1cc(Cl)c(=O)[n-]c1[O-] (nonaromatic ring conformer: 71.80383999268905 kcal/mol)

>  <smiles>  (7) 
O=C(Cn1c(O)c2c(c1O)CC=CC2)c1cc(Cl)c(=O)[nH]c1O

>  <score_type>  (7) 
oracle

>  <origin>  (7) 
adg

>  <m_score__min__energy>  (7) 
-16.370000000000001

>  <m_primary>  (7) 
energy

$$$$
7:0
     RDKit          3D

 59 63  0  0  0  0  0  0  0  0999 V2000
   56.2770   28.2700   44.3340 H   0  0  0  0  0  0  0  0  0  0  0  0
   56.2400   28.2210   45.3460 O   0  0  0  0  0  0  0  0  0  0  0  0
   56.3330   26.9960   45.9990 C   0  0  0  0  0  0  0  0  0  0  0  0
   55.3510   26.0800   46.0170 N   0  0  0  0  0  0  0  0  0  0  0  0
   55.8950   25.0810   46.7450 C   0  0  0  0  0  0  0  0  0  0  0  0
   55.2800   24.0120   46.9950 O   0  0  0  0  0  0  0  0  0  0  0  0
   57.1510   25.3160   47.1780 N   0  0  0  0  0  0  0  0  0  0  0  0
   57.4220   26.5480   46.7090 C   0  0  0  0  0  0  0  0  0  0  0  0
   58.7140   27.2580   46.8410 C   0  0  0  0  0  0  0  0  0  0  0  0
   59.6321   26.6633   46.7252 H   0  0  0  0  0  0  0  0  0  0  0  0
   58.8560   28.5760   47.0920 C   0  0  0  0  0  0  0  0  0  0  0  0
   58.5330   29.2430   48.2660 C   0  0  0  0  0  0  0  0  0  0  0  0
   58.0796   28.8013   49.1656 H   0  0  0  0  0  0  0  0  0  0  0  0
   58.8880   30.5640   48.0910 C   0  0  0  0  0  0  0  0  0  0  0  0
   58.7650   31.6100   49.1240 C   0  0  0  0  0  0  0  0  0  0  0  0
   58.4010   32.7700   48.7950 O   0  0  0  0  0  0  0  0  0  0  0  0
   59.1760   31.3550   50.4750 N   0  0  0  0  0  0  0  0  0  0  0  0
   58.4880   30.3650   51.3050 C   0  0  0  0  0  0  0  0  0  0  0  0
   58.3108   30.7829   52.3070 H   0  0  0  0  0  0  0  0  0  0  0  0
   57.5227   30.1027   50.8474 H   0  0  0  0  0  0  0  0  0  0  0  0
   59.3640   29.1140   51.4180 C   0  0  0  0  0  0  0  0  0  0  0  0
   59.0781   28.5581   52.3231 H   0  0  0  0  0  0  0  0  0  0  0  0
   59.2093   28.5021   50.5171 H   0  0  0  0  0  0  0  0  0  0  0  0
   60.7940   29.4610   51.5010 N   0  0  0  0  0  0  0  0  0  0  0  0
   61.7950   28.4220   51.3950 C   0  0  0  0  0  0  0  0  0  0  0  0
   62.9890   28.6600   51.7240 O   0  0  0  0  0  0  0  0  0  0  0  0
   61.4300   27.0280   50.9570 C   0  0  0  0  0  0  0  0  0  0  0  0
   61.1787   27.3002   49.9213 H   0  0  0  0  0  0  0  0  0  0  0  0
   60.7890   26.1560   52.0300 C   0  0  0  0  0  0  0  0  0  0  0  0
   60.5603   26.5802   53.0188 H   0  0  0  0  0  0  0  0  0  0  0  0
   59.8838   25.5336   52.0871 H   0  0  0  0  0  0  0  0  0  0  0  0
   62.2310   25.9160   51.6230 C   0  0  0  0  0  0  0  0  0  0  0  0
   63.0469   26.1663   52.3170 H   0  0  0  0  0  0  0  0  0  0  0  0
   62.8026   25.0477   51.2633 H   0  0  0  0  0  0  0  0  0  0  0  0
   61.1810   30.8440   51.8430 C   0  0  0  0  0  0  0  0  0  0  0  0
   60.8943   31.0510   52.8846 H   0  0  0  0  0  0  0  0  0  0  0  0
   62.2689   30.9458   51.7161 H   0  0  0  0  0  0  0  0  0  0  0  0
   60.4820   31.8550   50.9180 C   0  0  0  0  0  0  0  0  0  0  0  0
   60.3384   32.7998   51.4627 H   0  0  0  0  0  0  0  0  0  0  0  0
   61.1142   32.0103   50.0313 H   0  0  0  0  0  0  0  0  0  0  0  0
   59.3980   30.7550   46.8510 N   0  0  0  0  0  0  0  0  0  0  0  0
   59.9980   31.9990   46.3380 C   0  0  0  0  0  0  0  0  0  0  0  0
   60.1375   31.9077   45.2507 H   0  0  0  0  0  0  0  0  0  0  0  0
   59.3221   32.8338   46.5751 H   0  0  0  0  0  0  0  0  0  0  0  0
   61.3370   32.2710   46.9850 C   0  0  0  0  0  0  0  0  0  0  0  0
   61.9460   33.5280   46.8310 C   0  0  0  0  0  0  0  0  0  0  0  0
   61.4585   34.3014   46.2193 H   0  0  0  0  0  0  0  0  0  0  0  0
   63.1690   33.8000   47.4520 C   0  0  0  0  0  0  0  0  0  0  0  0
   63.6440   34.7835   47.3212 H   0  0  0  0  0  0  0  0  0  0  0  0
   63.7890   32.8260   48.2380 C   0  0  0  0  0  0  0  0  0  0  0  0
   64.7538   33.0404   48.7210 H   0  0  0  0  0  0  0  0  0  0  0  0
   63.1830   31.5800   48.4100 C   0  0  0  0  0  0  0  0  0  0  0  0
   63.6685   30.8145   49.0331 H   0  0  0  0  0  0  0  0  0  0  0  0
   61.9610   31.3040   47.7920 C   0  0  0  0  0  0  0  0  0  0  0  0
   61.4840   30.3236   47.9378 H   0  0  0  0  0  0  0  0  0  0  0  0
   59.3710   29.5480   46.2260 C   0  0  0  0  0  0  0  0  0  0  0  0
   59.8070   29.3440   44.9720 C   0  0  0  0  0  0  0  0  0  0  0  0
   60.1933   30.1868   44.3801 H   0  0  0  0  0  0  0  0  0  0  0  0
   59.7777   28.3341   44.5370 H   0  0  0  0  0  0  0  0  0  0  0  0
  1  2  1  0
  2  3  1  0
  3  4  1  0
  4  5  1  0
  5  6  2  0
  5  7  1  0
  7  8  1  0
  8  9  1  0
  9 10  1  0
  9 11  2  0
 11 12  1  0
 12 13  1  0
 12 14  2  0
 14 15  1  0
 15 16  2  0
 15 17  1  0
 17 18  1  0
 18 19  1  0
 18 20  1  0
 18 21  1  0
 21 22  1  0
 21 23  1  0
 21 24  1  0
 24 25  1  0
 25 26  2  0
 25 27  1  0
 27 28  1  0
 27 29  1  0
 29 30  1  0
 29 31  1  0
 29 32  1  0
 32 33  1  0
 32 34  1  0
 24 35  1  0
 35 36  1  0
 35 37  1  0
 35 38  1  0
 38 39  1  0
 38 40  1  0
 14 41  1  0
 41 42  1  0
 42 43  1  0
 42 44  1  0
 42 45  1  0
 45 46  2  0
 46 47  1  0
 46 48  1  0
 48 49  1  0
 48 50  2  0
 50 51  1  0
 50 52  1  0
 52 53  1  0
 52 54  2  0
 54 55  1  0
 41 56  1  0
 56 57  2  0
 57 58  1  0
 57 59  1  0
  8  3  2  0
 56 11  1  0
 38 17  1  0
 54 45  1  0
 32 27  1  0
M  CHG  2   4  -1   7  -1
M  END
>  <UniqueID>  (8) 
8

>  <SMILES>  (8) 
C=c1/c(=C/c2[n-]c(=O)[n-]c2O)cc(C(=O)N2CCN(C(=O)C3CC3)CC2)n1Cc1ccccc1

>  <Energy>  (8) 
396.6254477210485

>  <Genealogy>  (8) 
C=c1c(=Cc2[n-]c(=O)[n-]c2O)cc(C(=O)N2CCN(C(=O)C3CC3)CC2)n1Cc1ccccc1 (protonated)
C=c1/c(=C/c2[n-]c(=O)[n-]c2O)cc(C(=O)N2CCN(C(=O)C3CC3)CC2)n1Cc1ccccc1 (cis-trans isomerization)
C=c1/c(=C/c2[n-]c(=O)[n-]c2O)cc(C(=O)N2CCN(C(=O)C3CC3)CC2)n1Cc1ccccc1 (3D coordinates assigned)
C=c1/c(=C/c2[n-]c(=O)[n-]c2O)cc(C(=O)N2CCN(C(=O)C3CC3)CC2)n1Cc1ccccc1 (nonaromatic ring conformer: 396.6254477210485 kcal/mol)

>  <smiles>  (8) 
C=c1c(=Cc2[nH]c(=O)[nH]c2O)cc(C(=O)N2CCN(C(=O)C3CC3)CC2)n1Cc1ccccc1

>  <score_type>  (8) 
oracle

>  <origin>  (8) 
adg

>  <m_score__min__energy>  (8) 
-13.210000000000001

>  <m_primary>  (8) 
energy

$$$$
8:0
     RDKit          3D

 44 46  0  0  0  0  0  0  0  0999 V2000
   56.0021   33.0500   45.3367 H   0  0  0  0  0  0  0  0  0  0  0  0
   58.2140   29.5930   44.7480 C   0  0  0  0  0  0  0  0  0  0  0  0
   58.4540   30.8790   44.4660 C   0  0  0  0  0  0  0  0  0  0  0  0
   59.4977   31.2113   44.3647 H   0  0  0  0  0  0  0  0  0  0  0  0
   58.0500   33.5830   45.9820 C   0  0  0  0  0  0  0  0  0  0  0  0
   58.3120   33.2640   47.3250 C   0  0  0  0  0  0  0  0  0  0  0  0
   57.7570   32.4536   47.8201 H   0  0  0  0  0  0  0  0  0  0  0  0
   59.2820   33.9830   48.0270 C   0  0  0  0  0  0  0  0  0  0  0  0
   59.4797   33.7507   49.0838 H   0  0  0  0  0  0  0  0  0  0  0  0
   59.9820   34.9690   47.4070 N   0  0  0  0  0  0  0  0  0  0  0  0
   59.7690   35.2800   46.1010 C   0  0  0  0  0  0  0  0  0  0  0  0
   60.3548   36.0799   45.6246 H   0  0  0  0  0  0  0  0  0  0  0  0
   58.8080   34.5860   45.3630 C   0  0  0  0  0  0  0  0  0  0  0  0
   58.6468   34.8253   44.3015 H   0  0  0  0  0  0  0  0  0  0  0  0
   58.1720   27.1430   45.3270 C   0  0  0  0  0  0  0  0  0  0  0  0
   56.7818   31.8295   43.3577 H   0  0  0  0  0  0  0  0  0  0  0  0
   57.0670   32.8210   45.1830 C   0  0  0  0  0  0  0  0  0  0  0  0
   59.4880   28.3560   45.0610 S   0  0  0  0  0  0  0  0  0  0  0  0
   57.3720   31.8720   44.2850 C   0  0  0  0  0  0  0  0  0  0  0  0
   58.3660   25.8830   45.5950 N   0  0  0  0  0  0  0  0  0  0  0  0
   57.5730   24.7130   45.1810 C   0  0  0  0  0  0  0  0  0  0  0  0
   56.1910   24.7670   45.8770 C   0  0  0  0  0  0  0  0  0  0  0  0
   56.3296   24.7616   46.9682 H   0  0  0  0  0  0  0  0  0  0  0  0
   55.6659   25.6864   45.5786 H   0  0  0  0  0  0  0  0  0  0  0  0
   55.5957   23.8914   45.5786 H   0  0  0  0  0  0  0  0  0  0  0  0
   58.3350   23.3860   45.5200 C   0  0  0  0  0  0  0  0  0  0  0  0
   59.3750   23.6429   45.7699 H   0  0  0  0  0  0  0  0  0  0  0  0
   57.7903   22.9207   46.3547 H   0  0  0  0  0  0  0  0  0  0  0  0
   58.3580   22.3470   44.3850 C   0  0  0  0  0  0  0  0  0  0  0  0
   59.1432   22.6211   43.6650 H   0  0  0  0  0  0  0  0  0  0  0  0
   58.5586   21.3589   44.8249 H   0  0  0  0  0  0  0  0  0  0  0  0
   57.0160   22.2850   43.6570 C   0  0  0  0  0  0  0  0  0  0  0  0
   57.0755   21.5216   42.8673 H   0  0  0  0  0  0  0  0  0  0  0  0
   56.2405   22.0345   44.3958 H   0  0  0  0  0  0  0  0  0  0  0  0
   56.6430   23.6350   43.0160 C   0  0  0  0  0  0  0  0  0  0  0  0
   56.9018   23.5960   41.9476 H   0  0  0  0  0  0  0  0  0  0  0  0
   55.5655   23.7834   43.1802 H   0  0  0  0  0  0  0  0  0  0  0  0
   57.3680   24.8410   43.6500 C   0  0  0  0  0  0  0  0  0  0  0  0
   58.3551   24.9412   43.1750 H   0  0  0  0  0  0  0  0  0  0  0  0
   56.7300   25.7217   43.4846 H   0  0  0  0  0  0  0  0  0  0  0  0
   56.8530   27.6530   45.1900 N   0  0  0  0  0  0  0  0  0  0  0  0
   55.9830   27.0870   45.3060 H   0  0  0  0  0  0  0  0  0  0  0  0
   56.8710   29.0300   44.8650 C   0  0  0  0  0  0  0  0  0  0  0  0
   55.8120   29.6930   44.6970 O   0  0  0  0  0  0  0  0  0  0  0  0
  1  2  1  0
  2  3  2  0
  3  4  1  0
  3  5  1  0
  5  6  2  0
  6  7  1  0
  6  8  1  0
  8  9  1  0
  8 10  2  0
 10 11  1  0
 11 12  1  0
 11 13  2  0
 13 14  1  0
  2 15  1  0
 15 16  1  0
 15 17  2  0
 17 18  1  0
 18 19  1  0
 19 20  2  0
 20 21  1  0
 21 22  1  0
 22 23  1  0
 22 24  1  0
 22 25  1  0
 21 26  1  0
 26 27  1  0
 26 28  1  0
 26 29  1  0
 29 30  1  0
 29 31  1  0
 29 32  1  0
 32 33  1  0
 32 34  1  0
 32 35  1  0
 35 36  1  0
 35 37  1  0
 35 38  1  0
 38 39  1  0
 38 40  1  0
 19 41  1  0
 41 42  1  0
 41 43  1  0
 43 44  2  0
 13  5  1  0
 43 17  1  0
 38 21  1  0
M  END
>  <UniqueID>  (9) 
9

>  <SMILES>  (9) 
CC1(/N=C2/NC(=O)/C(=C/C=Cc3ccncc3)S2)CCCCC1

>  <Energy>  (9) 
76.14232139305095

>  <Genealogy>  (9) 
CC1(/N=C2/NC(=O)/C(=C/C=Cc3ccncc3)S2)CCCCC1 (cis-trans isomerization)
CC1(/N=C2/NC(=O)/C(=C/C=Cc3ccncc3)S2)CCCCC1 (3D coordinates assigned)
CC1(/N=C2/NC(=O)/C(=C/C=Cc3ccncc3)S2)CCCCC1 (nonaromatic ring conformer: 76.14232139305095 kcal/mol)

>  <smiles>  (9) 
CC1(N=C2NC(=O)C(=CC=Cc3ccncc3)S2)CCCCC1

>  <score_type>  (9) 
oracle

>  <origin>  (9) 
adg

>  <m_score__min__energy>  (9) 
-8.9600000000000009

>  <m_primary>  (9) 
energy

$$$$
9:0
     RDKit          3D

 45 47  0  0  0  0  0  0  0  0999 V2000
   56.6620   22.3910   42.9840 C   0  0  0  0  0  0  0  0  0  0  0  0
   55.8950   22.2760   44.2950 C   0  0  0  0  0  0  0  0  0  0  0  0
   55.9990   23.5210   45.0510 N   0  0  0  0  0  0  0  0  0  0  0  0
   55.1130   24.5030   44.9800 N   0  0  0  0  0  0  0  0  0  0  0  0
   55.5080   25.4580   45.8470 C   0  0  0  0  0  0  0  0  0  0  0  0
   54.8510   26.6740   45.9960 O   0  0  0  0  0  0  0  0  0  0  0  0
   56.6600   25.0670   46.5130 C   0  0  0  0  0  0  0  0  0  0  0  0
   57.4850   25.8170   47.4820 C   0  0  0  0  0  0  0  0  0  0  0  0
   58.6780   26.2730   47.2270 N   0  0  0  0  0  0  0  0  0  0  0  0
   59.0250   27.3320   46.3210 C   0  0  0  0  0  0  0  0  0  0  0  0
   60.3430   27.5010   45.8630 C   0  0  0  0  0  0  0  0  0  0  0  0
   60.6480   28.5280   44.9650 C   0  0  0  0  0  0  0  0  0  0  0  0
   59.6400   29.3780   44.5040 C   0  0  0  0  0  0  0  0  0  0  0  0
   58.3160   29.1930   44.9270 C   0  0  0  0  0  0  0  0  0  0  0  0
   57.0390   30.2750   44.3780 S   0  0  0  0  0  0  0  0  0  0  0  0
   55.7080   29.6570   44.7040 O   0  0  0  0  0  0  0  0  0  0  0  0
   57.1290   30.4620   42.8880 O   0  0  0  0  0  0  0  0  0  0  0  0
   57.1880   31.8150   45.1860 N   0  0  0  0  0  0  0  0  0  0  0  0
   57.5060   32.8730   44.2090 C   0  0  0  0  0  0  0  0  0  0  0  0
   57.9320   34.1800   44.9120 C   0  0  0  0  0  0  0  0  0  0  0  0
   57.6440   34.1350   46.2960 O   0  0  0  0  0  0  0  0  0  0  0  0
   58.4170   33.1190   46.9100 C   0  0  0  0  0  0  0  0  0  0  0  0
   58.2230   31.7430   46.2340 C   0  0  0  0  0  0  0  0  0  0  0  0
   58.0120   28.1620   45.8260 C   0  0  0  0  0  0  0  0  0  0  0  0
   56.9430   23.8390   45.9600 C   0  0  0  0  0  0  0  0  0  0  0  0
   57.9260   23.1050   46.2540 O   0  0  0  0  0  0  0  0  0  0  0  0
   57.7294   22.5510   43.1965 H   0  0  0  0  0  0  0  0  0  0  0  0
   56.5384   21.4643   42.4044 H   0  0  0  0  0  0  0  0  0  0  0  0
   56.2721   23.2407   42.4044 H   0  0  0  0  0  0  0  0  0  0  0  0
   54.8363   22.0690   44.0796 H   0  0  0  0  0  0  0  0  0  0  0  0
   56.3240   21.4572   44.8912 H   0  0  0  0  0  0  0  0  0  0  0  0
   57.0653   26.0020   48.4818 H   0  0  0  0  0  0  0  0  0  0  0  0
   61.1363   26.8236   46.2120 H   0  0  0  0  0  0  0  0  0  0  0  0
   61.6835   28.6670   44.6209 H   0  0  0  0  0  0  0  0  0  0  0  0
   59.8852   30.1938   43.8080 H   0  0  0  0  0  0  0  0  0  0  0  0
   56.2640   32.0260   45.6330 H   0  0  0  0  0  0  0  0  0  0  0  0
   58.3282   32.5292   43.5641 H   0  0  0  0  0  0  0  0  0  0  0  0
   56.6032   33.0780   43.6149 H   0  0  0  0  0  0  0  0  0  0  0  0
   59.0139   34.3245   44.7754 H   0  0  0  0  0  0  0  0  0  0  0  0
   57.3695   35.0138   44.4666 H   0  0  0  0  0  0  0  0  0  0  0  0
   59.4795   33.3968   46.8476 H   0  0  0  0  0  0  0  0  0  0  0  0
   58.0850   33.0296   47.9549 H   0  0  0  0  0  0  0  0  0  0  0  0
   59.1740   31.4269   45.7804 H   0  0  0  0  0  0  0  0  0  0  0  0
   57.9024   31.0179   46.9965 H   0  0  0  0  0  0  0  0  0  0  0  0
   56.9711   28.0038   46.1447 H   0  0  0  0  0  0  0  0  0  0  0  0
  1  2  1  0
  2  3  1  0
  3  4  1  0
  4  5  1  0
  5  6  1  0
  5  7  2  0
  7  8  1  0
  8  9  2  3
  9 10  1  0
 10 11  2  0
 11 12  1  0
 12 13  2  0
 13 14  1  0
 14 15  1  0
 15 16  2  0
 15 17  2  0
 15 18  1  0
 18 19  1  0
 19 20  1  0
 20 21  1  0
 21 22  1  0
 22 23  1  0
 14 24  2  0
  7 25  1  0
 25 26  2  0
 25  3  1  0
 24 10  1  0
 23 18  1  0
  1 27  1  0
  1 28  1  0
  1 29  1  0
  2 30  1  0
  2 31  1  0
  8 32  1  0
 11 33  1  0
 12 34  1  0
 13 35  1  0
 18 36  1  0
 19 37  1  0
 19 38  1  0
 20 39  1  0
 20 40  1  0
 22 41  1  0
 22 42  1  0
 23 43  1  0
 23 44  1  0
 24 45  1  0
M  CHG  3   4  -1   6  -1  18   1
M  END
>  <UniqueID>  (10) 
10

>  <SMILES>  (10) 
CCn1[n-]c([O-])c(C=Nc2cccc(S(=O)(=O)[NH+]3CCOCC3)c2)c1=O

>  <Energy>  (10) 
93.86716159252234

>  <Genealogy>  (10) 
CCn1[n-]c([O-])c(C=Nc2cccc(S(=O)(=O)[NH+]3CCOCC3)c2)c1=O (protonated)
CCn1[n-]c([O-])c(C=Nc2cccc(S(=O)(=O)[NH+]3CCOCC3)c2)c1=O (3D coordinates assigned)
CCn1[n-]c([O-])c(C=Nc2cccc(S(=O)(=O)[NH+]3CCOCC3)c2)c1=O (nonaromatic ring conformer: 93.86716159252234 kcal/mol)

>  <smiles>  (10) 
CCn1[nH]c(O)c(C=Nc2cccc(S(=O)(=O)N3CCOCC3)c2)c1=O

>  <score_type>  (10) 
oracle

>  <origin>  (10) 
adg

>  <m_score__min__energy>  (10) 
-12.35

>  <m_primary>  (10) 
energy

$$$$
10:0
     RDKit          3D

 47 50  0  0  0  0  0  0  0  0999 V2000
   53.5930   25.2400   45.5480 O   0  0  0  0  0  0  0  0  0  0  0  0
   54.7810   25.3800   45.9390 C   0  0  0  0  0  0  0  0  0  0  0  0
   55.5630   24.2400   46.3210 N   0  0  0  0  0  0  0  0  0  0  0  0
   56.2610   23.3380   45.4500 C   0  0  0  0  0  0  0  0  0  0  0  0
   55.6860   22.8320   44.2710 C   0  0  0  0  0  0  0  0  0  0  0  0
   56.3990   21.9980   43.4680 N   0  0  0  0  0  0  0  0  0  0  0  0
   57.6750   21.6340   43.7660 C   0  0  0  0  0  0  0  0  0  0  0  0
   58.2950   22.1320   44.9160 C   0  0  0  0  0  0  0  0  0  0  0  0
   59.6050   21.7820   45.2340 O   0  0  0  0  0  0  0  0  0  0  0  0
   57.5820   22.9940   45.7530 C   0  0  0  0  0  0  0  0  0  0  0  0
   55.3420   26.6960   45.9910 N   0  0  0  0  0  0  0  0  0  0  0  0
   56.7120   27.0260   46.2640 C   0  0  0  0  0  0  0  0  0  0  0  0
   57.4380   26.2140   47.1430 C   0  0  0  0  0  0  0  0  0  0  0  0
   58.7770   26.4930   47.4220 C   0  0  0  0  0  0  0  0  0  0  0  0
   59.4110   27.5760   46.8080 C   0  0  0  0  0  0  0  0  0  0  0  0
   58.7130   28.3770   45.8900 C   0  0  0  0  0  0  0  0  0  0  0  0
   59.3970   29.5410   45.2160 C   0  0  0  0  0  0  0  0  0  0  0  0
   58.6280   30.8230   45.4180 C   0  0  0  0  0  0  0  0  0  0  0  0
   57.3910   30.9190   44.8600 N   0  0  0  0  0  0  0  0  0  0  0  0
   56.6620   32.0320   44.9380 N   0  0  0  0  0  0  0  0  0  0  0  0
   57.1200   33.1380   45.5730 C   0  0  0  0  0  0  0  0  0  0  0  0
   56.4060   34.1760   45.6030 O   0  0  0  0  0  0  0  0  0  0  0  0
   58.3830   33.1120   46.1820 C   0  0  0  0  0  0  0  0  0  0  0  0
   59.1510   31.9380   46.1130 C   0  0  0  0  0  0  0  0  0  0  0  0
   60.5300   31.9660   46.7340 C   0  0  0  0  0  0  0  0  0  0  0  0
   60.4930   32.6430   48.1140 C   0  0  0  0  0  0  0  0  0  0  0  0
   59.6780   33.9600   48.1610 C   0  0  0  0  0  0  0  0  0  0  0  0
   58.9830   34.3300   46.8410 C   0  0  0  0  0  0  0  0  0  0  0  0
   57.3610   28.0980   45.6240 C   0  0  0  0  0  0  0  0  0  0  0  0
   54.6577   23.1113   43.9978 H   0  0  0  0  0  0  0  0  0  0  0  0
   58.2198   20.9471   43.1017 H   0  0  0  0  0  0  0  0  0  0  0  0
   59.9090   20.8150   45.2330 H   0  0  0  0  0  0  0  0  0  0  0  0
   58.0618   23.4037   46.6541 H   0  0  0  0  0  0  0  0  0  0  0  0
   56.9499   25.3498   47.6173 H   0  0  0  0  0  0  0  0  0  0  0  0
   59.3343   25.8586   48.1270 H   0  0  0  0  0  0  0  0  0  0  0  0
   60.4612   27.8021   47.0447 H   0  0  0  0  0  0  0  0  0  0  0  0
   60.4053   29.6579   45.6398 H   0  0  0  0  0  0  0  0  0  0  0  0
   59.4488   29.3346   44.1368 H   0  0  0  0  0  0  0  0  0  0  0  0
   60.8954   30.9347   46.8478 H   0  0  0  0  0  0  0  0  0  0  0  0
   61.2010   32.5394   46.0775 H   0  0  0  0  0  0  0  0  0  0  0  0
   60.0479   31.9376   48.8311 H   0  0  0  0  0  0  0  0  0  0  0  0
   61.5316   32.9084   48.3606 H   0  0  0  0  0  0  0  0  0  0  0  0
   58.9063   33.8583   48.9383 H   0  0  0  0  0  0  0  0  0  0  0  0
   60.3980   34.7648   48.3704 H   0  0  0  0  0  0  0  0  0  0  0  0
   58.1837   35.0570   47.0475 H   0  0  0  0  0  0  0  0  0  0  0  0
   59.7323   34.7614   46.1609 H   0  0  0  0  0  0  0  0  0  0  0  0
   56.8057   28.7232   44.9093 H   0  0  0  0  0  0  0  0  0  0  0  0
  1  2  2  0
  2  3  1  0
  3  4  1  0
  4  5  2  0
  5  6  1  0
  6  7  2  0
  7  8  1  0
  8  9  1  0
  8 10  2  0
  2 11  1  0
 11 12  1  0
 12 13  2  0
 13 14  1  0
 14 15  2  0
 15 16  1  0
 16 17  1  0
 17 18  1  0
 18 19  2  0
 19 20  1  0
 20 21  1  0
 21 22  2  0
 21 23  1  0
 23 24  2  0
 24 25  1  0
 25 26  1  0
 26 27  1  0
 27 28  1  0
 16 29  2  0
 10  4  1  0
 29 12  1  0
 24 18  1  0
 28 23  1  0
  5 30  1  0
  7 31  1  0
  9 32  1  0
 10 33  1  0
 13 34  1  0
 14 35  1  0
 15 36  1  0
 17 37  1  0
 17 38  1  0
 25 39  1  0
 25 40  1  0
 26 41  1  0
 26 42  1  0
 27 43  1  0
 27 44  1  0
 28 45  1  0
 28 46  1  0
 29 47  1  0
M  CHG  3   3  -1  11  -1  20  -1
M  END
>  <UniqueID>  (11) 
11

>  <SMILES>  (11) 
O=C([N-]c1cncc(O)c1)[N-]c1cccc(Cc2n[n-]c(=O)c3c2CCCC3)c1

>  <Energy>  (11) 
65.26818278166375

>  <Genealogy>  (11) 
O=C([N-]c1cncc(O)c1)[N-]c1cccc(Cc2n[n-]c(=O)c3c2CCCC3)c1 (protonated)
O=C([N-]c1cncc(O)c1)[N-]c1cccc(Cc2n[n-]c(=O)c3c2CCCC3)c1 (3D coordinates assigned)
O=C([N-]c1cncc(O)c1)[N-]c1cccc(Cc2n[n-]c(=O)c3c2CCCC3)c1 (nonaromatic ring conformer: 65.26818278166375 kcal/mol)

>  <smiles>  (11) 
O=C(Nc1cncc(O)c1)Nc1cccc(Cc2n[nH]c(=O)c3c2CCCC3)c1

>  <score_type>  (11) 
oracle

>  <origin>  (11) 
adg

>  <m_score__min__energy>  (11) 
-14.84

>  <m_primary>  (11) 
energy

$$$$
11:0
     RDKit          3D

 52 54  0  0  0  0  0  0  0  0999 V2000
   63.3990   33.1340   47.2560 C   0  0  0  0  0  0  0  0  0  0  0  0
   61.9720   33.5420   47.4760 C   0  0  0  0  0  0  0  0  0  0  0  0
   61.4100   33.5120   48.7610 C   0  0  0  0  0  0  0  0  0  0  0  0
   60.0710   33.8570   48.9510 C   0  0  0  0  0  0  0  0  0  0  0  0
   59.2780   34.2240   47.8600 C   0  0  0  0  0  0  0  0  0  0  0  0
   59.8220   34.2480   46.5660 C   0  0  0  0  0  0  0  0  0  0  0  0
   58.9570   34.5930   45.3810 C   0  0  0  0  0  0  0  0  0  0  0  0
   58.5530   33.3390   44.5940 C   0  0  0  0  0  0  0  0  0  0  0  0
   58.7680   32.1290   45.3850 N   0  0  0  0  0  0  0  0  0  0  0  0
   57.7920   31.0780   45.4770 C   0  0  0  0  0  0  0  0  0  0  0  0
   56.7130   31.1660   44.8310 O   0  0  0  0  0  0  0  0  0  0  0  0
   57.9990   29.8880   46.3760 C   0  0  0  0  0  0  0  0  0  0  0  0
   59.3460   29.8770   46.9740 N   0  0  0  0  0  0  0  0  0  0  0  0
   60.5330   29.9140   46.1490 C   0  0  0  0  0  0  0  0  0  0  0  0
   61.4140   30.7900   46.3720 O   0  0  0  0  0  0  0  0  0  0  0  0
   60.7540   28.9440   45.0180 C   0  0  0  0  0  0  0  0  0  0  0  0
   59.7490   27.8320   45.0550 C   0  0  0  0  0  0  0  0  0  0  0  0
   58.7260   27.6330   44.1370 C   0  0  0  0  0  0  0  0  0  0  0  0
   57.8870   26.5640   44.4710 C   0  0  0  0  0  0  0  0  0  0  0  0
   58.2380   25.9260   45.6540 C   0  0  0  0  0  0  0  0  0  0  0  0
   59.5910   26.6970   46.2870 S   0  0  0  0  0  0  0  0  0  0  0  0
   59.4900   29.7690   48.4060 C   0  0  0  0  0  0  0  0  0  0  0  0
   58.8900   30.7060   49.2660 C   0  0  0  0  0  0  0  0  0  0  0  0
   59.0280   30.5850   50.6520 C   0  0  0  0  0  0  0  0  0  0  0  0
   59.7690   29.5310   51.1930 C   0  0  0  0  0  0  0  0  0  0  0  0
   59.9010   29.4150   52.5370 F   0  0  0  0  0  0  0  0  0  0  0  0
   60.3760   28.5990   50.3480 C   0  0  0  0  0  0  0  0  0  0  0  0
   60.2400   28.7170   48.9610 C   0  0  0  0  0  0  0  0  0  0  0  0
   61.1700   33.8990   46.3800 C   0  0  0  0  0  0  0  0  0  0  0  0
   63.8939   32.9925   48.2281 H   0  0  0  0  0  0  0  0  0  0  0  0
   63.4277   32.1917   46.6893 H   0  0  0  0  0  0  0  0  0  0  0  0
   63.9215   33.9187   46.6893 H   0  0  0  0  0  0  0  0  0  0  0  0
   62.0269   33.2155   49.6221 H   0  0  0  0  0  0  0  0  0  0  0  0
   59.6385   33.8400   49.9623 H   0  0  0  0  0  0  0  0  0  0  0  0
   58.2234   34.4951   48.0160 H   0  0  0  0  0  0  0  0  0  0  0  0
   58.0479   35.0992   45.7377 H   0  0  0  0  0  0  0  0  0  0  0  0
   59.5341   35.2485   44.7123 H   0  0  0  0  0  0  0  0  0  0  0  0
   57.4880   33.4096   44.3278 H   0  0  0  0  0  0  0  0  0  0  0  0
   59.1749   33.2795   43.6886 H   0  0  0  0  0  0  0  0  0  0  0  0
   59.6900   32.0240   45.8620 H   0  0  0  0  0  0  0  0  0  0  0  0
   57.2521   29.9181   47.1830 H   0  0  0  0  0  0  0  0  0  0  0  0
   57.8895   28.9784   45.7672 H   0  0  0  0  0  0  0  0  0  0  0  0
   60.6613   29.4801   44.0619 H   0  0  0  0  0  0  0  0  0  0  0  0
   61.7591   28.5095   45.1224 H   0  0  0  0  0  0  0  0  0  0  0  0
   58.5892   28.2528   43.2386 H   0  0  0  0  0  0  0  0  0  0  0  0
   57.0294   26.2574   43.8542 H   0  0  0  0  0  0  0  0  0  0  0  0
   57.7196   25.0643   46.0999 H   0  0  0  0  0  0  0  0  0  0  0  0
   58.3083   31.5396   48.8455 H   0  0  0  0  0  0  0  0  0  0  0  0
   58.5526   31.3205   51.3176 H   0  0  0  0  0  0  0  0  0  0  0  0
   60.9618   27.7711   50.7740 H   0  0  0  0  0  0  0  0  0  0  0  0
   60.7229   27.9821   48.3001 H   0  0  0  0  0  0  0  0  0  0  0  0
   61.6007   33.9054   45.3678 H   0  0  0  0  0  0  0  0  0  0  0  0
  1  2  1  0
  2  3  2  0
  3  4  1  0
  4  5  2  0
  5  6  1  0
  6  7  1  0
  7  8  1  0
  8  9  1  0
  9 10  1  0
 10 11  2  0
 10 12  1  0
 12 13  1  0
 13 14  1  0
 14 15  2  0
 14 16  1  0
 16 17  1  0
 17 18  2  0
 18 19  1  0
 19 20  2  0
 20 21  1  0
 13 22  1  0
 22 23  2  0
 23 24  1  0
 24 25  2  0
 25 26  1  0
 25 27  1  0
 27 28  2  0
  6 29  2  0
 29  2  1  0
 21 17  1  0
 28 22  1  0
  1 30  1  0
  1 31  1  0
  1 32  1  0
  3 33  1  0
  4 34  1  0
  5 35  1  0
  7 36  1  0
  7 37  1  0
  8 38  1  0
  8 39  1  0
  9 40  1  0
 12 41  1  0
 12 42  1  0
 16 43  1  0
 16 44  1  0
 18 45  1  0
 19 46  1  0
 20 47  1  0
 23 48  1  0
 24 49  1  0
 27 50  1  0
 28 51  1  0
 29 52  1  0
M  END
>  <UniqueID>  (12) 
12

>  <SMILES>  (12) 
Cc1cccc(CCNC(=O)CN(C(=O)Cc2cccs2)c2ccc(F)cc2)c1

>  <Energy>  (12) 
73.279016013058

>  <Genealogy>  (12) 
Cc1cccc(CCNC(=O)CN(C(=O)Cc2cccs2)c2ccc(F)cc2)c1 (3D coordinates assigned)
Cc1cccc(CCNC(=O)CN(C(=O)Cc2cccs2)c2ccc(F)cc2)c1 (optimized conformer: 73.279016013058 kcal/mol)

>  <smiles>  (12) 
Cc1cccc(CCNC(=O)CN(C(=O)Cc2cccs2)c2ccc(F)cc2)c1

>  <score_type>  (12) 
oracle

>  <origin>  (12) 
adg

>  <m_score__min__energy>  (12) 
-9.3900000000000006

>  <m_primary>  (12) 
energy

$$$$
12:0
     RDKit          3D

 60 63  0  0  0  0  0  0  0  0999 V2000
   54.1060   28.1130   53.7340 C   0  0  0  0  0  0  0  0  0  0  0  0
   54.6200   29.1470   53.0610 C   0  0  0  0  0  0  0  0  0  0  0  0
   55.9520   29.3190   52.9330 N   0  0  0  0  0  0  0  0  0  0  0  0
   56.1420   30.3160   52.0470 C   0  0  0  0  0  0  0  0  0  0  0  0
   57.4630   30.8370   51.6490 C   0  0  0  0  0  0  0  0  0  0  0  0
   57.5550   32.0190   51.2230 O   0  0  0  0  0  0  0  0  0  0  0  0
   58.6540   30.0560   51.7800 N   0  0  0  0  0  0  0  0  0  0  0  0
   59.3130   29.3460   50.6810 C   0  0  2  0  0  0  0  0  0  0  0  0
   60.8320   29.3100   50.9190 C   0  0  0  0  0  0  0  0  0  0  0  0
   61.4550   30.7100   50.8260 C   0  0  0  0  0  0  0  0  0  0  0  0
   61.1230   31.3650   49.4740 C   0  0  2  0  0  0  0  0  0  0  0  0
   61.7690   32.7250   49.3340 C   0  0  0  0  0  0  0  0  0  0  0  0
   62.6420   33.0680   50.1790 O   0  0  0  0  0  0  0  0  0  0  0  0
   61.4630   33.6190   48.2460 N   0  0  0  0  0  0  0  0  0  0  0  0
   62.2360   33.5640   47.0000 C   0  0  0  0  0  0  0  0  0  0  0  0
   60.2780   34.4810   48.3510 C   0  0  0  0  0  0  0  0  0  0  0  0
   59.3850   34.2630   47.1620 C   0  0  0  0  0  0  0  0  0  0  0  0
   59.6460   34.9360   45.9560 C   0  0  0  0  0  0  0  0  0  0  0  0
   58.7870   34.7790   44.8650 C   0  0  0  0  0  0  0  0  0  0  0  0
   57.6600   33.9570   44.9710 C   0  0  0  0  0  0  0  0  0  0  0  0
   57.3860   33.2970   46.1740 C   0  0  0  0  0  0  0  0  0  0  0  0
   58.2400   33.4540   47.2700 C   0  0  0  0  0  0  0  0  0  0  0  0
   59.6020   31.4210   49.2320 C   0  0  0  0  0  0  0  0  0  0  0  0
   58.9790   30.0210   49.3390 C   0  0  0  0  0  0  0  0  0  0  0  0
   54.9280   30.8200   51.6230 C   0  0  0  0  0  0  0  0  0  0  0  0
   53.9440   30.1020   52.2870 C   0  0  0  0  0  0  0  0  0  0  0  0
   52.6310   30.3750   52.1670 C   0  0  0  0  0  0  0  0  0  0  0  0
   51.9590   30.8270   50.9370 C   0  0  0  0  0  0  0  0  0  0  0  0
   51.7900   30.0660   49.8390 N   0  0  0  0  0  0  0  0  0  0  0  0
   51.0140   30.8320   49.0420 C   0  0  0  0  0  0  0  0  0  0  0  0
   50.6510   30.4640   47.8950 O   0  0  0  0  0  0  0  0  0  0  0  0
   50.6540   32.0190   49.5750 N   0  0  0  0  0  0  0  0  0  0  0  0
   51.2480   31.9960   50.7800 C   0  0  0  0  0  0  0  0  0  0  0  0
   51.1370   33.0280   51.7080 O   0  0  0  0  0  0  0  0  0  0  0  0
   53.0152   28.0006   53.8205 H   0  0  0  0  0  0  0  0  0  0  0  0
   54.7738   27.3744   54.2014 H   0  0  0  0  0  0  0  0  0  0  0  0
   56.6960   28.7720   53.4220 H   0  0  0  0  0  0  0  0  0  0  0  0
   58.9438   28.3105   50.6432 H   0  0  0  0  0  0  0  0  0  0  0  0
   61.2963   28.6622   50.1609 H   0  0  0  0  0  0  0  0  0  0  0  0
   61.0110   28.9218   51.9325 H   0  0  0  0  0  0  0  0  0  0  0  0
   62.5471   30.6266   50.9282 H   0  0  0  0  0  0  0  0  0  0  0  0
   61.0425   31.3346   51.6320 H   0  0  0  0  0  0  0  0  0  0  0  0
   61.5530   30.7274   48.6875 H   0  0  0  0  0  0  0  0  0  0  0  0
   63.3076   33.4878   47.2364 H   0  0  0  0  0  0  0  0  0  0  0  0
   61.9262   32.6856   46.4148 H   0  0  0  0  0  0  0  0  0  0  0  0
   62.0537   34.4774   46.4148 H   0  0  0  0  0  0  0  0  0  0  0  0
   59.7278   34.2354   49.2713 H   0  0  0  0  0  0  0  0  0  0  0  0
   60.5953   35.5339   48.3797 H   0  0  0  0  0  0  0  0  0  0  0  0
   60.5282   35.5876   45.8708 H   0  0  0  0  0  0  0  0  0  0  0  0
   58.9974   35.3028   43.9209 H   0  0  0  0  0  0  0  0  0  0  0  0
   56.9892   33.8295   44.1086 H   0  0  0  0  0  0  0  0  0  0  0  0
   56.4976   32.6538   46.2576 H   0  0  0  0  0  0  0  0  0  0  0  0
   58.0157   32.9437   48.2183 H   0  0  0  0  0  0  0  0  0  0  0  0
   59.4118   31.8241   48.2264 H   0  0  0  0  0  0  0  0  0  0  0  0
   59.1476   32.0677   49.9970 H   0  0  0  0  0  0  0  0  0  0  0  0
   59.3657   29.3961   48.5205 H   0  0  0  0  0  0  0  0  0  0  0  0
   57.8862   30.1280   49.2736 H   0  0  0  0  0  0  0  0  0  0  0  0
   54.7716   31.6332   50.8990 H   0  0  0  0  0  0  0  0  0  0  0  0
   52.0070   30.2497   53.0642 H   0  0  0  0  0  0  0  0  0  0  0  0
   51.6250   32.9930   52.5960 H   0  0  0  0  0  0  0  0  0  0  0  0
  1  2  2  0
  2  3  1  0
  3  4  1  0
  4  5  1  0
  5  6  2  0
  5  7  1  0
  7  8  1  0
  8  9  1  0
  9 10  1  0
 10 11  1  0
 11 12  1  0
 12 13  2  0
 12 14  1  0
 14 15  1  0
 14 16  1  0
 16 17  1  0
 17 18  2  0
 18 19  1  0
 19 20  2  0
 20 21  1  0
 21 22  2  0
 11 23  1  0
 23 24  1  0
  4 25  2  0
 25 26  1  0
 26 27  2  3
 27 28  1  0
 28 29  1  0
 29 30  1  0
 30 31  2  0
 30 32  1  0
 32 33  1  0
 33 34  1  0
 26  2  1  0
 33 28  2  0
 24  8  1  0
 22 17  1  0
  1 35  1  0
  1 36  1  0
  3 37  1  0
  8 38  1  6
  9 39  1  0
  9 40  1  0
 10 41  1  0
 10 42  1  0
 11 43  1  6
 15 44  1  0
 15 45  1  0
 15 46  1  0
 16 47  1  0
 16 48  1  0
 18 49  1  0
 19 50  1  0
 20 51  1  0
 21 52  1  0
 22 53  1  0
 23 54  1  0
 23 55  1  0
 24 56  1  0
 24 57  1  0
 25 58  1  0
 27 59  1  0
 34 60  1  0
M  CHG  3   7  -1  29  -1  32  -1
M  END
>  <UniqueID>  (13) 
13

>  <SMILES>  (13) 
C=c1[nH]c(C(=O)[N-]C2CCC(C(=O)N(C)Cc3ccccc3)CC2)cc1=Cc1[n-]c(=O)[n-]c1O

>  <Energy>  (13) 
127.56694782314116

>  <Genealogy>  (13) 
C=c1[nH]c(C(=O)[N-]C2CCC(C(=O)N(C)Cc3ccccc3)CC2)cc1=Cc1[n-]c(=O)[n-]c1O (protonated)
C=c1[nH]c(C(=O)[N-]C2CCC(C(=O)N(C)Cc3ccccc3)CC2)cc1=Cc1[n-]c(=O)[n-]c1O (3D coordinates assigned)
C=c1[nH]c(C(=O)[N-]C2CCC(C(=O)N(C)Cc3ccccc3)CC2)cc1=Cc1[n-]c(=O)[n-]c1O (nonaromatic ring conformer: 127.56694782314116 kcal/mol)

>  <smiles>  (13) 
C=c1[nH]c(C(=O)NC2CCC(C(=O)N(C)Cc3ccccc3)CC2)cc1=Cc1[nH]c(=O)[nH]c1O

>  <score_type>  (13) 
oracle

>  <origin>  (13) 
adg

>  <m_score__min__energy>  (13) 
-16.140000000000001

>  <m_primary>  (13) 
energy

$$$$
13:0
     RDKit          3D

 60 63  0  0  0  0  0  0  0  0999 V2000
   60.7100   32.9630   46.3470 C   0  0  0  0  0  0  0  0  0  0  0  0
   59.5870   33.7410   45.7160 C   0  0  0  0  0  0  0  0  0  0  0  0
   59.8000   34.9060   45.4080 O   0  0  0  0  0  0  0  0  0  0  0  0
   58.2610   33.1740   45.5110 N   0  0  0  0  0  0  0  0  0  0  0  0
   58.2000   32.4220   44.2330 C   0  0  0  0  0  0  0  0  0  0  0  0
   57.0310   31.4370   44.2080 C   0  0  0  0  0  0  0  0  0  0  0  0
   57.1810   30.4800   45.3040 N   0  0  0  0  0  0  0  0  0  0  0  0
   56.5950   29.1690   45.1880 C   0  0  0  0  0  0  0  0  0  0  0  0
   55.5470   29.0200   44.4990 O   0  0  0  0  0  0  0  0  0  0  0  0
   57.2190   27.9830   45.8200 C   0  0  0  0  0  0  0  0  0  0  0  0
   58.5700   28.0230   46.1950 C   0  0  0  0  0  0  0  0  0  0  0  0
   59.1940   26.8900   46.7250 C   0  0  0  0  0  0  0  0  0  0  0  0
   60.9060   26.9740   47.2580 S   0  0  0  0  0  0  0  0  0  0  0  0
   60.6700   28.4720   48.2100 C   0  0  0  0  0  0  0  0  0  0  0  0
   61.0950   29.7400   47.8390 C   0  0  0  0  0  0  0  0  0  0  0  0
   60.7100   30.7350   48.6770 N   0  0  0  0  0  0  0  0  0  0  0  0
   59.9900   30.2650   49.7180 C   0  0  0  0  0  0  0  0  0  0  0  0
   59.5270   31.0610   50.6370 N   0  0  0  0  0  0  0  0  0  0  0  0
   58.3640   30.9040   51.4700 C   0  0  0  0  0  0  0  0  0  0  0  0
   57.6970   29.8420   51.3670 O   0  0  0  0  0  0  0  0  0  0  0  0
   57.8070   32.0300   52.3130 C   0  0  0  0  0  0  0  0  0  0  0  0
   57.0090   31.5080   53.5190 C   0  0  0  0  0  0  0  0  0  0  0  0
   55.7680   30.7670   53.0960 C   0  0  0  0  0  0  0  0  0  0  0  0
   55.3740   29.5930   53.7630 C   0  0  0  0  0  0  0  0  0  0  0  0
   54.2070   28.9200   53.3800 C   0  0  0  0  0  0  0  0  0  0  0  0
   53.4260   29.4130   52.3320 C   0  0  0  0  0  0  0  0  0  0  0  0
   53.8130   30.5790   51.6640 C   0  0  0  0  0  0  0  0  0  0  0  0
   54.9830   31.2490   52.0340 C   0  0  0  0  0  0  0  0  0  0  0  0
   59.7630   28.5950   49.6160 S   0  0  0  0  0  0  0  0  0  0  0  0
   58.4700   25.7060   46.8900 C   0  0  0  0  0  0  0  0  0  0  0  0
   57.1160   25.6580   46.5440 C   0  0  0  0  0  0  0  0  0  0  0  0
   56.2190   24.1650   46.7720 Cl  0  0  0  0  0  0  0  0  0  0  0  0
   56.4880   26.7930   46.0060 C   0  0  0  0  0  0  0  0  0  0  0  0
   55.1380   26.7340   45.6690 O   0  0  0  0  0  0  0  0  0  0  0  0
   57.8300   30.8950   46.5550 C   0  0  0  0  0  0  0  0  0  0  0  0
   57.7990   32.4230   46.7140 C   0  0  0  0  0  0  0  0  0  0  0  0
   60.6262   33.0211   47.4423 H   0  0  0  0  0  0  0  0  0  0  0  0
   60.6509   31.9113   46.0300 H   0  0  0  0  0  0  0  0  0  0  0  0
   61.6738   33.3879   46.0300 H   0  0  0  0  0  0  0  0  0  0  0  0
   57.5980   33.9790   45.4050 H   0  0  0  0  0  0  0  0  0  0  0  0
   58.0812   33.1364   43.4050 H   0  0  0  0  0  0  0  0  0  0  0  0
   59.1326   31.8479   44.1297 H   0  0  0  0  0  0  0  0  0  0  0  0
   56.0853   31.9862   44.3267 H   0  0  0  0  0  0  0  0  0  0  0  0
   57.0228   30.8995   43.2483 H   0  0  0  0  0  0  0  0  0  0  0  0
   59.1432   28.9536   46.0710 H   0  0  0  0  0  0  0  0  0  0  0  0
   61.6966   29.9238   46.9366 H   0  0  0  0  0  0  0  0  0  0  0  0
   58.6418   32.6455   52.6794 H   0  0  0  0  0  0  0  0  0  0  0  0
   57.1238   32.6190   51.6835 H   0  0  0  0  0  0  0  0  0  0  0  0
   57.6484   30.8273   54.1002 H   0  0  0  0  0  0  0  0  0  0  0  0
   56.6988   32.3742   54.1219 H   0  0  0  0  0  0  0  0  0  0  0  0
   55.9854   29.2016   54.5894 H   0  0  0  0  0  0  0  0  0  0  0  0
   53.9050   28.0019   53.9052 H   0  0  0  0  0  0  0  0  0  0  0  0
   52.5085   28.8851   52.0328 H   0  0  0  0  0  0  0  0  0  0  0  0
   53.1939   30.9709   50.8435 H   0  0  0  0  0  0  0  0  0  0  0  0
   55.2902   32.1559   51.4926 H   0  0  0  0  0  0  0  0  0  0  0  0
   58.9660   24.8105   47.2926 H   0  0  0  0  0  0  0  0  0  0  0  0
   57.3023   30.4348   47.4033 H   0  0  0  0  0  0  0  0  0  0  0  0
   58.8799   30.5677   46.5291 H   0  0  0  0  0  0  0  0  0  0  0  0
   56.7644   32.7258   46.9330 H   0  0  0  0  0  0  0  0  0  0  0  0
   58.4975   32.6697   47.5272 H   0  0  0  0  0  0  0  0  0  0  0  0
  1  2  1  0
  2  3  2  0
  2  4  1  0
  4  5  1  0
  5  6  1  0
  6  7  1  0
  7  8  1  0
  8  9  2  0
  8 10  1  0
 10 11  2  0
 11 12  1  0
 12 13  1  0
 13 14  1  0
 14 15  2  0
 15 16  1  0
 16 17  1  0
 17 18  2  3
 18 19  1  0
 19 20  2  0
 19 21  1  0
 21 22  1  0
 22 23  1  0
 23 24  2  0
 24 25  1  0
 25 26  2  0
 26 27  1  0
 27 28  2  0
 17 29  1  0
 12 30  2  0
 30 31  1  0
 31 32  1  0
 31 33  2  0
 33 34  1  0
  7 35  1  0
 35 36  1  0
 36  4  1  0
 33 10  1  0
 29 14  1  0
 28 23  1  0
  1 37  1  0
  1 38  1  0
  1 39  1  0
  4 40  1  0
  5 41  1  0
  5 42  1  0
  6 43  1  0
  6 44  1  0
 11 45  1  0
 15 46  1  0
 21 47  1  0
 21 48  1  0
 22 49  1  0
 22 50  1  0
 24 51  1  0
 25 52  1  0
 26 53  1  0
 27 54  1  0
 28 55  1  0
 30 56  1  0
 35 57  1  0
 35 58  1  0
 36 59  1  0
 36 60  1  0
M  CHG  3   4   1  16  -1  34  -1
M  END
>  <UniqueID>  (14) 
14

>  <SMILES>  (14) 
CC(=O)[NH+]1CCN(C(=O)c2cc(Sc3c[n-]c(=NC(=O)CCc4ccccc4)s3)cc(Cl)c2[O-])CC1

>  <Energy>  (14) 
103.60209407343974

>  <Genealogy>  (14) 
CC(=O)[NH+]1CCN(C(=O)c2cc(Sc3c[n-]c(=NC(=O)CCc4ccccc4)s3)cc(Cl)c2[O-])CC1 (protonated)
CC(=O)[NH+]1CCN(C(=O)c2cc(Sc3c[n-]c(=NC(=O)CCc4ccccc4)s3)cc(Cl)c2[O-])CC1 (3D coordinates assigned)
CC(=O)[NH+]1CCN(C(=O)c2cc(Sc3c[n-]c(=NC(=O)CCc4ccccc4)s3)cc(Cl)c2[O-])CC1 (nonaromatic ring conformer: 103.60209407343974 kcal/mol)

>  <smiles>  (14) 
CC(=O)N1CCN(C(=O)c2cc(Sc3c[nH]c(=NC(=O)CCc4ccccc4)s3)cc(Cl)c2O)CC1

>  <score_type>  (14) 
oracle

>  <origin>  (14) 
adg

>  <m_score__min__energy>  (14) 
-11.83

>  <m_primary>  (14) 
energy

$$$$
14:0
     RDKit          3D

 54 57  0  0  0  0  0  0  0  0999 V2000
   55.6970   30.1410   45.6180 H   0  0  0  0  0  0  0  0  0  0  0  0
   55.9130   29.2340   45.2060 O   0  0  0  0  0  0  0  0  0  0  0  0
   57.1710   28.6460   45.3290 C   0  0  0  0  0  0  0  0  0  0  0  0
   57.3980   27.3990   44.7250 C   0  0  0  0  0  0  0  0  0  0  0  0
   56.6039   26.9282   44.1269 H   0  0  0  0  0  0  0  0  0  0  0  0
   58.6230   26.7550   44.8790 C   0  0  0  0  0  0  0  0  0  0  0  0
   58.8015   25.7777   44.4066 H   0  0  0  0  0  0  0  0  0  0  0  0
   59.6190   27.3630   45.6380 C   0  0  0  0  0  0  0  0  0  0  0  0
   60.5891   26.8625   45.7736 H   0  0  0  0  0  0  0  0  0  0  0  0
   59.3940   28.5750   46.2120 N   0  0  0  0  0  0  0  0  0  0  0  0
   58.2180   29.2500   46.0750 C   0  0  0  0  0  0  0  0  0  0  0  0
   58.1140   30.4070   46.6770 N   0  0  0  0  0  0  0  0  0  0  0  0
   57.7650   31.6780   46.1270 C   0  0  0  0  0  0  0  0  0  0  0  0
   57.0290   31.7560   45.0980 O   0  0  0  0  0  0  0  0  0  0  0  0
   58.3090   32.9300   46.7560 C   0  0  1  0  0  0  0  0  0  0  0  0
   57.7029   33.1123   47.6557 H   0  0  0  0  0  0  0  0  0  0  0  0
   59.7230   32.7680   47.0720 N   0  0  0  0  0  0  0  0  0  0  0  0
   60.1950   31.9670   48.1760 C   0  0  0  0  0  0  0  0  0  0  0  0
   61.0840   31.0920   47.9780 O   0  0  0  0  0  0  0  0  0  0  0  0
   59.6500   32.1420   49.5400 C   0  0  0  0  0  0  0  0  0  0  0  0
   59.9850   33.2750   50.2980 C   0  0  0  0  0  0  0  0  0  0  0  0
   60.6885   34.0172   49.8928 H   0  0  0  0  0  0  0  0  0  0  0  0
   59.4280   33.4630   51.5650 C   0  0  0  0  0  0  0  0  0  0  0  0
   59.6870   34.3568   52.1516 H   0  0  0  0  0  0  0  0  0  0  0  0
   58.5400   32.5150   52.0900 C   0  0  0  0  0  0  0  0  0  0  0  0
   58.0944   32.6748   53.0829 H   0  0  0  0  0  0  0  0  0  0  0  0
   58.2150   31.3620   51.3570 C   0  0  0  0  0  0  0  0  0  0  0  0
   57.2670   30.3380   51.9310 C   0  0  0  0  0  0  0  0  0  0  0  0
   57.5578   30.1243   52.9701 H   0  0  0  0  0  0  0  0  0  0  0  0
   57.3250   29.4293   51.3139 H   0  0  0  0  0  0  0  0  0  0  0  0
   55.8860   30.8180   51.9130 N   0  0  0  0  0  0  0  0  0  0  0  0
   54.7240   29.9730   51.8780 C   0  0  0  0  0  0  0  0  0  0  0  0
   54.7820   28.8090   52.3700 O   0  0  0  0  0  0  0  0  0  0  0  0
   53.4630   30.4330   51.2790 C   0  0  0  0  0  0  0  0  0  0  0  0
   52.9070   29.7550   50.1800 C   0  0  0  0  0  0  0  0  0  0  0  0
   53.3932   28.8477   49.7920 H   0  0  0  0  0  0  0  0  0  0  0  0
   51.7670   30.2190   49.5940 N   0  0  0  0  0  0  0  0  0  0  0  0
   51.1360   31.3340   50.0510 C   0  0  0  0  0  0  0  0  0  0  0  0
   50.2183   31.6868   49.5577 H   0  0  0  0  0  0  0  0  0  0  0  0
   51.6540   32.0350   51.1510 C   0  0  0  0  0  0  0  0  0  0  0  0
   51.0100   33.1710   51.6270 O   0  0  0  0  0  0  0  0  0  0  0  0
   52.8240   31.5810   51.7670 C   0  0  0  0  0  0  0  0  0  0  0  0
   53.2406   32.1216   52.6296 H   0  0  0  0  0  0  0  0  0  0  0  0
   58.7970   31.1670   50.0930 C   0  0  0  0  0  0  0  0  0  0  0  0
   58.5848   30.2456   49.5309 H   0  0  0  0  0  0  0  0  0  0  0  0
   60.5730   33.6840   46.3220 C   0  0  0  0  0  0  0  0  0  0  0  0
   61.0202   34.4296   46.9959 H   0  0  0  0  0  0  0  0  0  0  0  0
   61.4008   33.1540   45.8283 H   0  0  0  0  0  0  0  0  0  0  0  0
   59.6600   34.3660   45.3070 C   0  0  0  0  0  0  0  0  0  0  0  0
   59.8701   35.4451   45.2688 H   0  0  0  0  0  0  0  0  0  0  0  0
   59.8156   33.9667   44.2939 H   0  0  0  0  0  0  0  0  0  0  0  0
   58.2350   34.1210   45.7900 C   0  0  0  0  0  0  0  0  0  0  0  0
   57.8504   35.0106   46.3103 H   0  0  0  0  0  0  0  0  0  0  0  0
   57.5568   33.9136   44.9491 H   0  0  0  0  0  0  0  0  0  0  0  0
  1  2  1  0
  2  3  1  0
  3  4  2  0
  4  5  1  0
  4  6  1  0
  6  7  1  0
  6  8  2  0
  8  9  1  0
  8 10  1  0
 10 11  1  0
 11 12  2  0
 12 13  1  0
 13 14  2  0
 13 15  1  0
 15 16  1  1
 15 17  1  0
 17 18  1  0
 18 19  2  0
 18 20  1  0
 20 21  2  0
 21 22  1  0
 21 23  1  0
 23 24  1  0
 23 25  2  0
 25 26  1  0
 25 27  1  0
 27 28  1  0
 28 29  1  0
 28 30  1  0
 28 31  1  0
 31 32  1  0
 32 33  2  0
 32 34  1  0
 34 35  2  0
 35 36  1  0
 35 37  1  0
 37 38  2  0
 38 39  1  0
 38 40  1  0
 40 41  1  0
 40 42  2  0
 42 43  1  0
 27 44  2  0
 44 45  1  0
 17 46  1  0
 46 47  1  0
 46 48  1  0
 46 49  1  0
 49 50  1  0
 49 51  1  0
 49 52  1  0
 52 53  1  0
 52 54  1  0
 11  3  1  0
 52 15  1  0
 44 20  1  0
 42 34  1  0
M  CHG  3  10  -1  31  -1  41  -1
M  END
>  <UniqueID>  (15) 
15

>  <SMILES>  (15) 
O=C([N-]Cc1cccc(C(=O)N2CCC[C@H]2C(=O)/N=c2/[n-]cccc2O)c1)c1cncc([O-])c1

>  <Energy>  (15) 
78.65357823344988

>  <Genealogy>  (15) 
O=C([N-]Cc1cccc(C(=O)N2CCCC2C(=O)N=c2[n-]cccc2O)c1)c1cncc([O-])c1 (protonated)
O=C([N-]Cc1cccc(C(=O)N2CCC[C@H]2C(=O)N=c2[n-]cccc2O)c1)c1cncc([O-])c1 (chirality)
O=C([N-]Cc1cccc(C(=O)N2CCC[C@H]2C(=O)/N=c2/[n-]cccc2O)c1)c1cncc([O-])c1 (cis-trans isomerization)
O=C([N-]Cc1cccc(C(=O)N2CCC[C@H]2C(=O)/N=c2/[n-]cccc2O)c1)c1cncc([O-])c1 (3D coordinates assigned)
O=C([N-]Cc1cccc(C(=O)N2CCC[C@H]2C(=O)/N=c2/[n-]cccc2O)c1)c1cncc([O-])c1 (nonaromatic ring conformer: 78.65357823344988 kcal/mol)

>  <smiles>  (15) 
O=C(NCc1cccc(C(=O)N2CCCC2C(=O)N=c2[nH]cccc2O)c1)c1cncc(O)c1

>  <score_type>  (15) 
oracle

>  <origin>  (15) 
adg

>  <m_score__min__energy>  (15) 
-16.84

>  <m_primary>  (15) 
energy

$$$$
15:0
     RDKit          3D

 54 58  0  0  0  0  0  0  0  0999 V2000
   54.5247   25.3812   44.9322 H   0  0  0  0  0  0  0  0  0  0  0  0
   54.7910   24.5780   45.6350 C   0  0  0  0  0  0  0  0  0  0  0  0
   55.8600   24.6070   46.4140 C   0  0  0  0  0  0  0  0  0  0  0  0
   56.8700   25.6870   46.4420 C   0  0  0  0  0  0  0  0  0  0  0  0
   58.1340   25.4830   46.8730 N   0  0  0  0  0  0  0  0  0  0  0  0
   58.7660   26.6720   46.7720 C   0  0  0  0  0  0  0  0  0  0  0  0
   59.8175   26.8453   47.0448 H   0  0  0  0  0  0  0  0  0  0  0  0
   57.9140   27.6410   46.2800 C   0  0  0  0  0  0  0  0  0  0  0  0
   58.2280   29.0610   46.0690 C   0  0  0  0  0  0  0  0  0  0  0  0
   57.7340   29.6740   45.0840 O   0  0  0  0  0  0  0  0  0  0  0  0
   59.1480   29.7260   46.9420 N   0  0  0  0  0  0  0  0  0  0  0  0
   58.8690   30.4250   48.0080 C   0  0  0  0  0  0  0  0  0  0  0  0
   58.7010   29.8660   49.2560 C   0  0  0  0  0  0  0  0  0  0  0  0
   58.7102   28.8005   49.5292 H   0  0  0  0  0  0  0  0  0  0  0  0
   58.5180   30.9580   50.0850 C   0  0  0  0  0  0  0  0  0  0  0  0
   58.3540   30.9240   51.5470 C   0  0  0  0  0  0  0  0  0  0  0  0
   59.3430   31.1930   52.2830 O   0  0  0  0  0  0  0  0  0  0  0  0
   57.1020   30.5620   52.1480 N   0  0  0  0  0  0  0  0  0  0  0  0
   55.9950   31.5320   52.1620 C   0  0  0  0  0  0  0  0  0  0  0  0
   56.0676   32.1823   51.2778 H   0  0  0  0  0  0  0  0  0  0  0  0
   56.0568   32.1419   53.0754 H   0  0  0  0  0  0  0  0  0  0  0  0
   54.6880   30.8060   52.1390 C   0  0  0  0  0  0  0  0  0  0  0  0
   53.6930   31.2830   51.5310 O   0  0  0  0  0  0  0  0  0  0  0  0
   54.5800   29.5690   52.8350 N   0  0  0  0  0  0  0  0  0  0  0  0
   55.7030   29.1170   53.6440 C   0  0  0  0  0  0  0  0  0  0  0  0
   55.5599   28.0576   53.9032 H   0  0  0  0  0  0  0  0  0  0  0  0
   55.7524   29.7263   54.5585 H   0  0  0  0  0  0  0  0  0  0  0  0
   57.0190   29.2750   52.8680 C   0  0  0  0  0  0  0  0  0  0  0  0
   57.0977   28.4566   52.1372 H   0  0  0  0  0  0  0  0  0  0  0  0
   57.8417   29.2474   53.5976 H   0  0  0  0  0  0  0  0  0  0  0  0
   58.5500   32.0980   49.3650 N   0  0  0  0  0  0  0  0  0  0  0  0
   58.7540   31.7750   48.0960 N   0  0  0  0  0  0  0  0  0  0  0  0
   58.6170   32.7440   47.0450 C   0  0  0  0  0  0  0  0  0  0  0  0
   59.5310   33.8050   46.9290 C   0  0  0  0  0  0  0  0  0  0  0  0
   60.3500   33.9050   47.6565 H   0  0  0  0  0  0  0  0  0  0  0  0
   59.4030   34.7340   45.8920 C   0  0  0  0  0  0  0  0  0  0  0  0
   60.1108   35.5724   45.8140 H   0  0  0  0  0  0  0  0  0  0  0  0
   58.3750   34.5970   44.9540 C   0  0  0  0  0  0  0  0  0  0  0  0
   58.2688   35.3329   44.1434 H   0  0  0  0  0  0  0  0  0  0  0  0
   57.4820   33.5250   45.0460 C   0  0  0  0  0  0  0  0  0  0  0  0
   56.6807   33.4122   44.3008 H   0  0  0  0  0  0  0  0  0  0  0  0
   57.6060   32.5960   46.0840 C   0  0  0  0  0  0  0  0  0  0  0  0
   56.9091   31.7473   46.1470 H   0  0  0  0  0  0  0  0  0  0  0  0
   56.7060   27.0120   46.0780 C   0  0  0  0  0  0  0  0  0  0  0  0
   55.5410   27.6170   45.6210 O   0  0  0  0  0  0  0  0  0  0  0  0
   55.9730   23.3820   47.2500 C   0  0  0  0  0  0  0  0  0  0  0  0
   56.0256   23.6431   48.3173 H   0  0  0  0  0  0  0  0  0  0  0  0
   56.8833   22.8060   47.0273 H   0  0  0  0  0  0  0  0  0  0  0  0
   54.6960   22.5930   46.9480 C   0  0  0  0  0  0  0  0  0  0  0  0
   54.0514   22.5547   47.8385 H   0  0  0  0  0  0  0  0  0  0  0  0
   54.9230   21.5551   46.6632 H   0  0  0  0  0  0  0  0  0  0  0  0
   53.9920   23.3420   45.8150 C   0  0  0  0  0  0  0  0  0  0  0  0
   52.9564   23.5856   46.0945 H   0  0  0  0  0  0  0  0  0  0  0  0
   53.9312   22.7450   44.8931 H   0  0  0  0  0  0  0  0  0  0  0  0
  1  2  1  0
  2  3  2  0
  3  4  1  0
  4  5  1  0
  5  6  1  0
  6  7  1  0
  6  8  2  0
  8  9  1  0
  9 10  2  0
  9 11  1  0
 11 12  2  0
 12 13  1  0
 13 14  1  0
 13 15  2  0
 15 16  1  0
 16 17  2  0
 16 18  1  0
 18 19  1  0
 19 20  1  0
 19 21  1  0
 19 22  1  0
 22 23  2  0
 22 24  1  0
 24 25  1  0
 25 26  1  0
 25 27  1  0
 25 28  1  0
 28 29  1  0
 28 30  1  0
 15 31  1  0
 31 32  1  0
 32 33  1  0
 33 34  2  0
 34 35  1  0
 34 36  1  0
 36 37  1  0
 36 38  2  0
 38 39  1  0
 38 40  1  0
 40 41  1  0
 40 42  2  0
 42 43  1  0
  8 44  1  0
 44 45  1  0
  3 46  1  0
 46 47  1  0
 46 48  1  0
 46 49  1  0
 49 50  1  0
 49 51  1  0
 49 52  1  0
 52 53  1  0
 52 54  1  0
 52  2  1  0
 44  4  2  0
 32 12  1  0
 42 33  1  0
 28 18  1  0
M  CHG  4   5  -1  24  -1  31  -1  45  -1
M  END
>  <UniqueID>  (16) 
16

>  <SMILES>  (16) 
O=C1CN(C(=O)c2c/c(=N/C(=O)c3c[n-]c(C4=CCCC4)c3[O-])n(-c3ccccc3)[n-]2)CC[N-]1

>  <Energy>  (16) 
139.7374435372388

>  <Genealogy>  (16) 
O=C1CN(C(=O)c2cc(=NC(=O)c3c[n-]c(C4=CCCC4)c3[O-])n(-c3ccccc3)[n-]2)CC[N-]1 (protonated)
O=C1CN(C(=O)c2c/c(=N/C(=O)c3c[n-]c(C4=CCCC4)c3[O-])n(-c3ccccc3)[n-]2)CC[N-]1 (cis-trans isomerization)
O=C1CN(C(=O)c2c/c(=N/C(=O)c3c[n-]c(C4=CCCC4)c3[O-])n(-c3ccccc3)[n-]2)CC[N-]1 (3D coordinates assigned)
O=C1CN(C(=O)c2c/c(=N/C(=O)c3c[n-]c(C4=CCCC4)c3[O-])n(-c3ccccc3)[n-]2)CC[N-]1 (nonaromatic ring conformer: 139.7374435372388 kcal/mol)

>  <smiles>  (16) 
O=C1CN(C(=O)c2cc(=NC(=O)c3c[nH]c(C4=CCCC4)c3O)n(-c3ccccc3)[nH]2)CCN1

>  <score_type>  (16) 
oracle

>  <origin>  (16) 
adg

>  <m_score__min__energy>  (16) 
-15.359999999999999

>  <m_primary>  (16) 
energy

$$$$
16:0
     RDKit          3D

 44 46  0  0  0  0  0  0  0  0999 V2000
   58.9270   29.2000   48.0370 C   0  0  0  0  0  0  0  0  0  0  0  0
   58.5710   30.0070   47.0250 C   0  0  0  0  0  0  0  0  0  0  0  0
   58.3080   29.6340   45.7010 C   0  0  0  0  0  0  0  0  0  0  0  0
   58.3780   28.3900   45.1840 C   0  0  0  0  0  0  0  0  0  0  0  0
   57.5010   27.2760   45.5840 C   0  0  0  0  0  0  0  0  0  0  0  0
   56.1090   27.4370   45.6140 C   0  0  0  0  0  0  0  0  0  0  0  0
   55.5270   28.6390   45.2290 O   0  0  0  0  0  0  0  0  0  0  0  0
   55.3170   26.4110   46.0200 N   0  0  0  0  0  0  0  0  0  0  0  0
   55.8520   25.2250   46.4120 C   0  0  0  0  0  0  0  0  0  0  0  0
   55.0990   24.2880   46.7810 O   0  0  0  0  0  0  0  0  0  0  0  0
   57.1990   25.0520   46.4070 N   0  0  0  0  0  0  0  0  0  0  0  0
   58.0330   26.0490   46.0100 C   0  0  0  0  0  0  0  0  0  0  0  0
   59.2790   25.8590   46.0260 O   0  0  0  0  0  0  0  0  0  0  0  0
   57.9570   30.8350   45.0700 C   0  0  0  0  0  0  0  0  0  0  0  0
   57.5510   31.0580   43.6440 C   0  0  0  0  0  0  0  0  0  0  0  0
   58.0160   31.8340   45.9710 N   0  0  0  0  0  0  0  0  0  0  0  0
   58.3900   31.3460   47.1420 N   0  0  0  0  0  0  0  0  0  0  0  0
   58.5120   32.1660   48.3530 C   0  0  0  0  0  0  0  0  0  0  0  0
   59.5360   33.2510   48.1620 C   0  0  0  0  0  0  0  0  0  0  0  0
   59.1910   34.3260   47.5970 O   0  0  0  0  0  0  0  0  0  0  0  0
   60.9070   33.0720   48.5730 N   0  0  0  0  0  0  0  0  0  0  0  0
   61.6640   34.2170   49.1030 C   0  0  0  0  0  0  0  0  0  0  0  0
   63.0760   34.2460   48.5130 C   0  0  0  0  0  0  0  0  0  0  0  0
   63.7000   32.8840   48.6100 C   0  0  0  0  0  0  0  0  0  0  0  0
   64.8570   32.7570   48.9850 O   0  0  0  0  0  0  0  0  0  0  0  0
   62.9150   31.6900   48.1510 C   0  0  0  0  0  0  0  0  0  0  0  0
   61.4930   31.7300   48.7250 C   0  0  0  0  0  0  0  0  0  0  0  0
   59.1063   29.6194   49.0380 H   0  0  0  0  0  0  0  0  0  0  0  0
   59.0394   28.1193   47.8653 H   0  0  0  0  0  0  0  0  0  0  0  0
   59.1390   28.1948   44.4141 H   0  0  0  0  0  0  0  0  0  0  0  0
   56.5872   31.5874   43.6157 H   0  0  0  0  0  0  0  0  0  0  0  0
   58.3164   31.6623   43.1351 H   0  0  0  0  0  0  0  0  0  0  0  0
   57.4516   30.0879   43.1351 H   0  0  0  0  0  0  0  0  0  0  0  0
   57.7940   32.8390   45.7900 H   0  0  0  0  0  0  0  0  0  0  0  0
   57.5378   32.6249   48.5775 H   0  0  0  0  0  0  0  0  0  0  0  0
   58.8322   31.5213   49.1848 H   0  0  0  0  0  0  0  0  0  0  0  0
   61.1424   35.1489   48.8394 H   0  0  0  0  0  0  0  0  0  0  0  0
   61.7374   34.1194   50.1962 H   0  0  0  0  0  0  0  0  0  0  0  0
   63.0235   34.5484   47.4567 H   0  0  0  0  0  0  0  0  0  0  0  0
   63.6885   34.9652   49.0765 H   0  0  0  0  0  0  0  0  0  0  0  0
   62.8622   31.6919   47.0523 H   0  0  0  0  0  0  0  0  0  0  0  0
   63.4162   30.7769   48.5046 H   0  0  0  0  0  0  0  0  0  0  0  0
   60.8673   31.0003   48.1902 H   0  0  0  0  0  0  0  0  0  0  0  0
   61.5373   31.4832   49.7960 H   0  0  0  0  0  0  0  0  0  0  0  0
  1  2  2  0
  2  3  1  0
  3  4  2  3
  4  5  1  0
  5  6  2  0
  6  7  1  0
  6  8  1  0
  8  9  1  0
  9 10  2  0
  9 11  1  0
 11 12  1  0
 12 13  2  0
  3 14  1  0
 14 15  1  0
 14 16  2  0
 16 17  1  0
 17 18  1  0
 18 19  1  0
 19 20  2  0
 19 21  1  0
 21 22  1  0
 22 23  1  0
 23 24  1  0
 24 25  2  0
 24 26  1  0
 26 27  1  0
 17  2  1  0
 27 21  1  0
 12  5  1  0
  1 28  1  0
  1 29  1  0
  4 30  1  0
 15 31  1  0
 15 32  1  0
 15 33  1  0
 16 34  1  0
 18 35  1  0
 18 36  1  0
 22 37  1  0
 22 38  1  0
 23 39  1  0
 23 40  1  0
 26 41  1  0
 26 42  1  0
 27 43  1  0
 27 44  1  0
M  CHG  4   7  -1   8  -1  11  -1  16   1
M  END
>  <UniqueID>  (17) 
17

>  <SMILES>  (17) 
C=c1c(=Cc2c([O-])[n-]c(=O)[n-]c2=O)c(C)[nH+]n1CC(=O)N1CCC(=O)CC1

>  <Energy>  (17) 
90.54765682211244

>  <Genealogy>  (17) 
C=c1c(=Cc2c([O-])[n-]c(=O)[n-]c2=O)c(C)[nH+]n1CC(=O)N1CCC(=O)CC1 (protonated)
C=c1c(=Cc2c([O-])[n-]c(=O)[n-]c2=O)c(C)[nH+]n1CC(=O)N1CCC(=O)CC1 (3D coordinates assigned)
C=c1c(=Cc2c([O-])[n-]c(=O)[n-]c2=O)c(C)[nH+]n1CC(=O)N1CCC(=O)CC1 (nonaromatic ring conformer: 90.54765682211244 kcal/mol)

>  <smiles>  (17) 
C=c1c(=Cc2c(O)[nH]c(=O)[nH]c2=O)c(C)nn1CC(=O)N1CCC(=O)CC1

>  <score_type>  (17) 
oracle

>  <origin>  (17) 
adg

>  <m_score__min__energy>  (17) 
-14.869999999999999

>  <m_primary>  (17) 
energy

$$$$
17:0
     RDKit          3D

 44 47  0  0  0  0  0  0  0  0999 V2000
   53.6130   28.8990   54.4680 C   0  0  0  0  0  0  0  0  0  0  0  0
   54.3830   29.3980   53.4880 C   0  0  0  0  0  0  0  0  0  0  0  0
   54.1050   30.5190   52.6910 C   0  0  0  0  0  0  0  0  0  0  0  0
   52.9700   31.2240   52.5200 C   0  0  0  0  0  0  0  0  0  0  0  0
   52.1360   31.2260   51.3070 C   0  0  0  0  0  0  0  0  0  0  0  0
   52.2020   30.3020   50.3290 N   0  0  0  0  0  0  0  0  0  0  0  0
   51.3690   30.7900   49.3850 C   0  0  0  0  0  0  0  0  0  0  0  0
   51.1460   30.1890   48.3010 O   0  0  0  0  0  0  0  0  0  0  0  0
   50.8000   31.9770   49.6880 N   0  0  0  0  0  0  0  0  0  0  0  0
   51.3080   32.2440   50.9010 C   0  0  0  0  0  0  0  0  0  0  0  0
   51.0250   33.3970   51.6210 O   0  0  0  0  0  0  0  0  0  0  0  0
   55.2830   30.8270   52.0340 C   0  0  0  0  0  0  0  0  0  0  0  0
   56.2060   29.8630   52.3860 C   0  0  0  0  0  0  0  0  0  0  0  0
   57.6150   29.8660   51.9430 C   0  0  0  0  0  0  0  0  0  0  0  0
   58.4030   28.9720   52.3500 O   0  0  0  0  0  0  0  0  0  0  0  0
   58.1100   30.8910   51.0780 N   0  0  0  0  0  0  0  0  0  0  0  0
   58.3450   32.2870   51.1910 C   0  0  0  0  0  0  0  0  0  0  0  0
   58.8640   32.4700   49.8650 C   0  0  0  0  0  0  0  0  0  0  0  0
   59.2770   33.4490   49.0570 C   0  0  0  0  0  0  0  0  0  0  0  0
   60.6580   33.5620   48.5290 C   0  0  0  0  0  0  0  0  0  0  0  0
   60.9310   33.5000   47.1490 C   0  0  0  0  0  0  0  0  0  0  0  0
   62.2400   33.6250   46.6780 C   0  0  0  0  0  0  0  0  0  0  0  0
   63.2910   33.8260   47.5740 C   0  0  0  0  0  0  0  0  0  0  0  0
   63.0340   33.9090   48.9440 C   0  0  0  0  0  0  0  0  0  0  0  0
   61.7250   33.7830   49.4240 C   0  0  0  0  0  0  0  0  0  0  0  0
   61.4970   33.8680   50.7930 O   0  0  0  0  0  0  0  0  0  0  0  0
   58.6790   30.9830   49.7340 C   0  0  0  0  0  0  0  0  0  0  0  0
   58.9260   30.1520   48.8210 O   0  0  0  0  0  0  0  0  0  0  0  0
   55.6540   28.9770   53.2490 N   0  0  0  0  0  0  0  0  0  0  0  0
   56.3340   27.8330   53.8680 C   0  0  0  0  0  0  0  0  0  0  0  0
   53.9406   28.0093   55.0258 H   0  0  0  0  0  0  0  0  0  0  0  0
   52.6545   29.3799   54.7132 H   0  0  0  0  0  0  0  0  0  0  0  0
   52.6376   31.8525   53.3593 H   0  0  0  0  0  0  0  0  0  0  0  0
   55.4520   31.6789   51.3589 H   0  0  0  0  0  0  0  0  0  0  0  0
   57.4219   32.8588   51.3669 H   0  0  0  0  0  0  0  0  0  0  0  0
   58.9810   32.6190   52.0249 H   0  0  0  0  0  0  0  0  0  0  0  0
   58.5481   34.2193   48.7649 H   0  0  0  0  0  0  0  0  0  0  0  0
   60.1066   33.3519   46.4360 H   0  0  0  0  0  0  0  0  0  0  0  0
   62.4430   33.5649   45.5986 H   0  0  0  0  0  0  0  0  0  0  0  0
   64.3217   33.9190   47.2010 H   0  0  0  0  0  0  0  0  0  0  0  0
   63.8627   34.0739   49.6483 H   0  0  0  0  0  0  0  0  0  0  0  0
   56.2804   27.9232   54.9630 H   0  0  0  0  0  0  0  0  0  0  0  0
   55.8436   26.9003   53.5525 H   0  0  0  0  0  0  0  0  0  0  0  0
   57.3877   27.8181   53.5525 H   0  0  0  0  0  0  0  0  0  0  0  0
  1  2  2  0
  2  3  1  0
  3  4  2  3
  4  5  1  0
  5  6  1  0
  6  7  1  0
  7  8  2  0
  7  9  1  0
  9 10  1  0
 10 11  1  0
  3 12  1  0
 12 13  2  0
 13 14  1  0
 14 15  2  0
 14 16  1  0
 16 17  1  0
 17 18  1  0
 18 19  2  3
 19 20  1  0
 20 21  2  0
 21 22  1  0
 22 23  2  0
 23 24  1  0
 24 25  2  0
 25 26  1  0
 18 27  1  0
 27 28  2  0
 13 29  1  0
 29 30  1  0
 29  2  1  0
 10  5  2  0
 27 16  1  0
 25 20  1  0
  1 31  1  0
  1 32  1  0
  4 33  1  0
 12 34  1  0
 17 35  1  0
 17 36  1  0
 19 37  1  0
 21 38  1  0
 22 39  1  0
 23 40  1  0
 24 41  1  0
 30 42  1  0
 30 43  1  0
 30 44  1  0
M  CHG  4   6  -1   9  -1  11  -1  26  -1
M  END
>  <UniqueID>  (18) 
18

>  <SMILES>  (18) 
C=c1c(=Cc2[n-]c(=O)[n-]c2[O-])cc(C(=O)N2CC(=Cc3ccccc3[O-])C2=O)n1C

>  <Energy>  (18) 
131.91046105913674

>  <Genealogy>  (18) 
C=c1c(=Cc2[n-]c(=O)[n-]c2[O-])cc(C(=O)N2CC(=Cc3ccccc3[O-])C2=O)n1C (protonated)
C=c1c(=Cc2[n-]c(=O)[n-]c2[O-])cc(C(=O)N2CC(=Cc3ccccc3[O-])C2=O)n1C (3D coordinates assigned)
C=c1c(=Cc2[n-]c(=O)[n-]c2[O-])cc(C(=O)N2CC(=Cc3ccccc3[O-])C2=O)n1C (nonaromatic ring conformer: 131.91046105913674 kcal/mol)

>  <smiles>  (18) 
C=c1c(=Cc2[nH]c(=O)[nH]c2O)cc(C(=O)N2CC(=Cc3ccccc3O)C2=O)n1C

>  <score_type>  (18) 
oracle

>  <origin>  (18) 
adg

>  <m_score__min__energy>  (18) 
-19.449999999999999

>  <m_primary>  (18) 
energy

$$$$
18:0
     RDKit          3D

 36 38  0  0  0  0  0  0  0  0999 V2000
   61.1617   30.2335   47.2386 H   0  0  0  0  0  0  0  0  0  0  0  0
   60.3620   29.9490   46.5390 C   0  0  0  0  0  0  0  0  0  0  0  0
   60.1816   28.8879   46.3120 H   0  0  0  0  0  0  0  0  0  0  0  0
   59.6060   30.8970   45.9620 C   0  0  0  0  0  0  0  0  0  0  0  0
   58.5490   30.7180   45.0510 C   0  0  0  0  0  0  0  0  0  0  0  0
   58.0990   29.6160   44.4200 C   0  0  0  0  0  0  0  0  0  0  0  0
   58.1141   29.6250   43.3201 H   0  0  0  0  0  0  0  0  0  0  0  0
   57.5880   28.3990   45.0770 C   0  0  0  0  0  0  0  0  0  0  0  0
   56.2110   28.2260   45.2730 C   0  0  0  0  0  0  0  0  0  0  0  0
   55.3160   29.2240   44.8970 O   0  0  0  0  0  0  0  0  0  0  0  0
   55.7430   27.0830   45.8430 N   0  0  0  0  0  0  0  0  0  0  0  0
   54.7140   26.9700   45.9960 H   0  0  0  0  0  0  0  0  0  0  0  0
   56.5930   26.0880   46.2130 C   0  0  0  0  0  0  0  0  0  0  0  0
   56.1460   25.0360   46.7420 O   0  0  0  0  0  0  0  0  0  0  0  0
   57.9280   26.2230   46.0070 N   0  0  0  0  0  0  0  0  0  0  0  0
   58.4430   27.3450   45.4420 C   0  0  0  0  0  0  0  0  0  0  0  0
   59.6850   27.4270   45.2490 O   0  0  0  0  0  0  0  0  0  0  0  0
   57.9830   31.9710   44.8660 C   0  0  0  0  0  0  0  0  0  0  0  0
   57.1081   32.2083   44.2430 H   0  0  0  0  0  0  0  0  0  0  0  0
   58.7250   32.8620   45.6110 C   0  0  0  0  0  0  0  0  0  0  0  0
   58.4520   34.3300   45.7210 C   0  0  0  0  0  0  0  0  0  0  0  0
   58.3991   34.6146   46.7822 H   0  0  0  0  0  0  0  0  0  0  0  0
   59.2612   34.8912   45.2308 H   0  0  0  0  0  0  0  0  0  0  0  0
   57.4952   34.5628   45.2308 H   0  0  0  0  0  0  0  0  0  0  0  0
   59.7040   32.2130   46.2760 N   0  0  0  0  0  0  0  0  0  0  0  0
   60.6360   32.8190   47.1850 C   0  0  0  0  0  0  0  0  0  0  0  0
   61.8760   33.2640   46.7080 C   0  0  0  0  0  0  0  0  0  0  0  0
   62.1289   33.1458   45.6440 H   0  0  0  0  0  0  0  0  0  0  0  0
   62.7930   33.8580   47.5810 C   0  0  0  0  0  0  0  0  0  0  0  0
   63.7653   34.2071   47.2033 H   0  0  0  0  0  0  0  0  0  0  0  0
   62.4740   34.0080   48.9330 C   0  0  0  0  0  0  0  0  0  0  0  0
   63.1957   34.4754   49.6190 H   0  0  0  0  0  0  0  0  0  0  0  0
   61.2390   33.5650   49.4150 C   0  0  0  0  0  0  0  0  0  0  0  0
   60.9910   33.6852   50.4799 H   0  0  0  0  0  0  0  0  0  0  0  0
   60.3170   32.9690   48.5470 C   0  0  0  0  0  0  0  0  0  0  0  0
   58.6390   32.3620   49.2430 Br  0  0  0  0  0  0  0  0  0  0  0  0
  1  2  1  0
  2  3  1  0
  2  4  2  0
  4  5  1  0
  5  6  2  0
  6  7  1  0
  6  8  1  0
  8  9  2  0
  9 10  1  0
  9 11  1  0
 11 12  1  0
 11 13  1  0
 13 14  2  0
 13 15  1  0
 15 16  1  0
 16 17  2  0
  5 18  1  0
 18 19  1  0
 18 20  2  0
 20 21  1  0
 21 22  1  0
 21 23  1  0
 21 24  1  0
 20 25  1  0
 25 26  1  0
 26 27  2  0
 27 28  1  0
 27 29  1  0
 29 30  1  0
 29 31  2  0
 31 32  1  0
 31 33  1  0
 33 34  1  0
 33 35  2  0
 35 36  1  0
 25  4  1  0
 35 26  1  0
 16  8  1  0
M  CHG  2  10  -1  15  -1
M  END
>  <UniqueID>  (19) 
19

>  <SMILES>  (19) 
C=c1/c(=C\c2c([O-])[nH]c(=O)[n-]c2=O)cc(C)n1-c1ccccc1Br

>  <Energy>  (19) 
87.82112095373729

>  <Genealogy>  (19) 
C=c1c(=Cc2c([O-])[nH]c(=O)[n-]c2=O)cc(C)n1-c1ccccc1Br (protonated)
C=c1/c(=C\c2c([O-])[nH]c(=O)[n-]c2=O)cc(C)n1-c1ccccc1Br (cis-trans isomerization)
C=c1/c(=C\c2c([O-])[nH]c(=O)[n-]c2=O)cc(C)n1-c1ccccc1Br (3D coordinates assigned)
C=c1/c(=C\c2c([O-])[nH]c(=O)[n-]c2=O)cc(C)n1-c1ccccc1Br (optimized conformer: 87.82112095373729 kcal/mol)

>  <smiles>  (19) 
C=c1c(=Cc2c(O)[nH]c(=O)[nH]c2=O)cc(C)n1-c1ccccc1Br

>  <score_type>  (19) 
oracle

>  <origin>  (19) 
adg

>  <m_score__min__energy>  (19) 
-13.58

>  <m_primary>  (19) 
energy

$$$$
19:0
     RDKit          3D

 54 57  0  0  0  0  0  0  0  0999 V2000
   63.8676   34.9419   51.1507 H   0  0  0  0  0  0  0  0  0  0  0  0
   63.6940   34.1230   50.4370 C   0  0  0  0  0  0  0  0  0  0  0  0
   64.5630   33.1020   50.3530 C   0  0  0  0  0  0  0  0  0  0  0  0
   65.8200   33.1080   51.1760 C   0  0  0  0  0  0  0  0  0  0  0  0
   65.5587   33.1068   52.2445 H   0  0  0  0  0  0  0  0  0  0  0  0
   66.4151   32.2127   50.9430 H   0  0  0  0  0  0  0  0  0  0  0  0
   66.4065   34.0090   50.9430 H   0  0  0  0  0  0  0  0  0  0  0  0
   64.2540   31.9650   49.4030 C   0  0  0  0  0  0  0  0  0  0  0  0
   65.1646   31.3656   49.2562 H   0  0  0  0  0  0  0  0  0  0  0  0
   63.4497   31.3582   49.8444 H   0  0  0  0  0  0  0  0  0  0  0  0
   63.7690   32.4830   48.0310 C   0  0  0  0  0  0  0  0  0  0  0  0
   64.6521   32.6943   47.4101 H   0  0  0  0  0  0  0  0  0  0  0  0
   63.1271   31.6977   47.6052 H   0  0  0  0  0  0  0  0  0  0  0  0
   62.9030   33.7780   48.1070 C   0  0  1  0  0  0  0  0  0  0  0  0
   63.5423   34.5987   47.7497 H   0  0  0  0  0  0  0  0  0  0  0  0
   61.6970   33.6780   47.2090 C   0  0  0  0  0  0  0  0  0  0  0  0
   61.7920   34.0150   45.9960 O   0  0  0  0  0  0  0  0  0  0  0  0
   60.4290   33.2720   47.7470 N   0  0  0  0  0  0  0  0  0  0  0  0
   60.2950   33.3250   48.7830 H   0  0  0  0  0  0  0  0  0  0  0  0
   59.2840   32.9720   46.9340 C   0  0  0  0  0  0  0  0  0  0  0  0
   58.2800   33.9380   46.7820 C   0  0  0  0  0  0  0  0  0  0  0  0
   58.3803   34.9134   47.2805 H   0  0  0  0  0  0  0  0  0  0  0  0
   57.1520   33.6700   46.0010 C   0  0  0  0  0  0  0  0  0  0  0  0
   56.3756   34.4390   45.8751 H   0  0  0  0  0  0  0  0  0  0  0  0
   57.0100   32.4280   45.3810 C   0  0  0  0  0  0  0  0  0  0  0  0
   56.1271   32.2250   44.7570 H   0  0  0  0  0  0  0  0  0  0  0  0
   57.9870   31.4390   45.5500 C   0  0  0  0  0  0  0  0  0  0  0  0
   57.8240   30.1550   44.9220 N   0  0  0  0  0  0  0  0  0  0  0  0
   57.3970   29.9470   43.6570 C   0  0  0  0  0  0  0  0  0  0  0  0
   57.0140   31.0300   42.6960 C   0  0  0  0  0  0  0  0  0  0  0  0
   56.6984   31.9225   43.2562 H   0  0  0  0  0  0  0  0  0  0  0  0
   57.8779   31.2809   42.0630 H   0  0  0  0  0  0  0  0  0  0  0  0
   56.1844   30.6820   42.0630 H   0  0  0  0  0  0  0  0  0  0  0  0
   57.3620   28.5950   43.3760 C   0  0  0  0  0  0  0  0  0  0  0  0
   57.0546   28.1281   42.4286 H   0  0  0  0  0  0  0  0  0  0  0  0
   57.7910   27.9400   44.5240 C   0  0  0  0  0  0  0  0  0  0  0  0
   57.9480   26.6100   44.6730 C   0  0  0  0  0  0  0  0  0  0  0  0
   58.5777   26.0792   43.9438 H   0  0  0  0  0  0  0  0  0  0  0  0
   57.3270   25.8230   45.7540 C   0  0  0  0  0  0  0  0  0  0  0  0
   57.9790   24.8660   46.4370 N   0  0  0  0  0  0  0  0  0  0  0  0
   57.0820   24.4780   47.3690 C   0  0  0  0  0  0  0  0  0  0  0  0
   57.3240   23.5700   48.2070 O   0  0  0  0  0  0  0  0  0  0  0  0
   55.9080   25.1450   47.3400 N   0  0  0  0  0  0  0  0  0  0  0  0
   56.0840   26.0030   46.3210 C   0  0  0  0  0  0  0  0  0  0  0  0
   55.1440   26.9580   45.9520 O   0  0  0  0  0  0  0  0  0  0  0  0
   58.0730   28.9360   45.4640 C   0  0  0  0  0  0  0  0  0  0  0  0
   58.4850   28.7480   46.7260 C   0  0  0  0  0  0  0  0  0  0  0  0
   58.6764   29.6139   47.3769 H   0  0  0  0  0  0  0  0  0  0  0  0
   58.6316   27.7279   47.1105 H   0  0  0  0  0  0  0  0  0  0  0  0
   59.1240   31.7090   46.3300 C   0  0  0  0  0  0  0  0  0  0  0  0
   60.0470   30.7320   46.5220 F   0  0  0  0  0  0  0  0  0  0  0  0
   62.4830   34.1370   49.5480 C   0  0  0  0  0  0  0  0  0  0  0  0
   62.0303   35.1395   49.5597 H   0  0  0  0  0  0  0  0  0  0  0  0
   61.7505   33.4015   49.9120 H   0  0  0  0  0  0  0  0  0  0  0  0
  1  2  1  0
  2  3  2  0
  3  4  1  0
  4  5  1  0
  4  6  1  0
  4  7  1  0
  3  8  1  0
  8  9  1  0
  8 10  1  0
  8 11  1  0
 11 12  1  0
 11 13  1  0
 11 14  1  0
 14 15  1  6
 14 16  1  0
 16 17  2  0
 16 18  1  0
 18 19  1  0
 18 20  1  0
 20 21  2  0
 21 22  1  0
 21 23  1  0
 23 24  1  0
 23 25  2  0
 25 26  1  0
 25 27  1  0
 27 28  1  0
 28 29  1  0
 29 30  1  0
 30 31  1  0
 30 32  1  0
 30 33  1  0
 29 34  2  0
 34 35  1  0
 34 36  1  0
 36 37  2  0
 37 38  1  0
 37 39  1  0
 39 40  1  0
 40 41  1  0
 41 42  2  0
 41 43  1  0
 43 44  1  0
 44 45  1  0
 36 46  1  0
 46 47  2  0
 47 48  1  0
 47 49  1  0
 27 50  2  0
 50 51  1  0
 14 52  1  0
 52 53  1  0
 52 54  1  0
 52  2  1  0
 50 20  1  0
 46 28  1  0
 44 39  2  0
M  CHG  3  40  -1  43  -1  45  -1
M  END
>  <UniqueID>  (20) 
20

>  <SMILES>  (20) 
C=c1/c(=C/c2[n-]c(=O)[n-]c2[O-])cc(C)n1-c1cccc(NC(=O)[C@H]2CC=C(C)CC2)c1F

>  <Energy>  (20) 
132.7633038639619

>  <Genealogy>  (20) 
C=c1c(=Cc2[n-]c(=O)[n-]c2[O-])cc(C)n1-c1cccc(NC(=O)C2CC=C(C)CC2)c1F (protonated)
C=c1c(=Cc2[n-]c(=O)[n-]c2[O-])cc(C)n1-c1cccc(NC(=O)[C@H]2CC=C(C)CC2)c1F (chirality)
C=c1/c(=C/c2[n-]c(=O)[n-]c2[O-])cc(C)n1-c1cccc(NC(=O)[C@H]2CC=C(C)CC2)c1F (cis-trans isomerization)
C=c1/c(=C/c2[n-]c(=O)[n-]c2[O-])cc(C)n1-c1cccc(NC(=O)[C@H]2CC=C(C)CC2)c1F (3D coordinates assigned)
C=c1/c(=C/c2[n-]c(=O)[n-]c2[O-])cc(C)n1-c1cccc(NC(=O)[C@H]2CC=C(C)CC2)c1F (nonaromatic ring conformer: 132.7633038639619 kcal/mol)

>  <smiles>  (20) 
C=c1c(=Cc2[nH]c(=O)[nH]c2O)cc(C)n1-c1cccc(NC(=O)C2CC=C(C)CC2)c1F

>  <score_type>  (20) 
oracle

>  <origin>  (20) 
adg

>  <m_score__min__energy>  (20) 
-17.579999999999998

>  <m_primary>  (20) 
energy

$$$$
20:0
     RDKit          3D

 40 41  0  0  0  0  0  0  0  0999 V2000
   59.7970   34.5550   48.9390 C   0  0  0  0  0  0  0  0  0  0  0  0
   59.7620   34.7370   47.5270 O   0  0  0  0  0  0  0  0  0  0  0  0
   59.0930   33.8860   46.6340 C   0  0  0  0  0  0  0  0  0  0  0  0
   58.0580   34.3450   45.7970 C   0  0  0  0  0  0  0  0  0  0  0  0
   57.4310   33.4730   44.9070 C   0  0  0  0  0  0  0  0  0  0  0  0
   57.8060   32.1240   44.8540 C   0  0  0  0  0  0  0  0  0  0  0  0
   57.1320   31.1940   43.8830 C   0  0  0  0  0  0  0  0  0  0  0  0
   57.3450   29.8080   44.2840 N   0  0  0  0  0  0  0  0  0  0  0  0
   56.3460   29.0040   44.9190 C   0  0  0  0  0  0  0  0  0  0  0  0
   55.1400   29.3710   44.9270 O   0  0  0  0  0  0  0  0  0  0  0  0
   56.7300   27.6840   45.5120 C   0  0  0  0  0  0  0  0  0  0  0  0
   55.5510   26.9410   45.9500 N   0  0  0  0  0  0  0  0  0  0  0  0
   55.3400   25.5300   45.8050 C   0  0  0  0  0  0  0  0  0  0  0  0
   54.1580   25.1020   45.7270 O   0  0  0  0  0  0  0  0  0  0  0  0
   56.4580   24.5620   45.7630 C   0  0  0  0  0  0  0  0  0  0  0  0
   57.2220   24.4000   44.5990 C   0  0  0  0  0  0  0  0  0  0  0  0
   58.2140   23.4730   44.5570 N   0  0  0  0  0  0  0  0  0  0  0  0
   58.4760   22.6830   45.6290 C   0  0  0  0  0  0  0  0  0  0  0  0
   59.4000   21.8320   45.5700 O   0  0  0  0  0  0  0  0  0  0  0  0
   57.7390   22.8060   46.7620 N   0  0  0  0  0  0  0  0  0  0  0  0
   56.7390   23.7210   46.8540 C   0  0  0  0  0  0  0  0  0  0  0  0
   56.0800   23.8100   47.9230 O   0  0  0  0  0  0  0  0  0  0  0  0
   58.8360   31.6620   45.6840 C   0  0  0  0  0  0  0  0  0  0  0  0
   59.4860   32.5400   46.5750 C   0  0  0  0  0  0  0  0  0  0  0  0
   60.5310   32.1140   47.4100 O   0  0  0  0  0  0  0  0  0  0  0  0
   61.9060   32.4190   47.2000 C   0  0  0  0  0  0  0  0  0  0  0  0
   59.6118   35.5179   49.4375 H   0  0  0  0  0  0  0  0  0  0  0  0
   59.0211   33.8336   49.2351 H   0  0  0  0  0  0  0  0  0  0  0  0
   60.7851   34.1729   49.2351 H   0  0  0  0  0  0  0  0  0  0  0  0
   57.7420   35.3975   45.8453 H   0  0  0  0  0  0  0  0  0  0  0  0
   56.6376   33.8465   44.2429 H   0  0  0  0  0  0  0  0  0  0  0  0
   56.0527   31.4058   43.8662 H   0  0  0  0  0  0  0  0  0  0  0  0
   57.5601   31.3482   42.8815 H   0  0  0  0  0  0  0  0  0  0  0  0
   57.2666   27.0928   44.7553 H   0  0  0  0  0  0  0  0  0  0  0  0
   57.3720   27.8674   46.3862 H   0  0  0  0  0  0  0  0  0  0  0  0
   57.0177   25.0252   43.7173 H   0  0  0  0  0  0  0  0  0  0  0  0
   59.1399   30.6057   45.6400 H   0  0  0  0  0  0  0  0  0  0  0  0
   62.4094   32.5307   48.1717 H   0  0  0  0  0  0  0  0  0  0  0  0
   62.3799   31.6041   46.6331 H   0  0  0  0  0  0  0  0  0  0  0  0
   61.9909   33.3578   46.6331 H   0  0  0  0  0  0  0  0  0  0  0  0
  1  2  1  0
  2  3  1  0
  3  4  2  0
  4  5  1  0
  5  6  2  0
  6  7  1  0
  7  8  1  0
  8  9  1  0
  9 10  2  0
  9 11  1  0
 11 12  1  0
 12 13  1  0
 13 14  2  0
 13 15  1  0
 15 16  2  0
 16 17  1  0
 17 18  1  0
 18 19  2  0
 18 20  1  0
 20 21  1  0
 21 22  2  0
  6 23  1  0
 23 24  2  0
 24 25  1  0
 25 26  1  0
 24  3  1  0
 21 15  1  0
  1 27  1  0
  1 28  1  0
  1 29  1  0
  4 30  1  0
  5 31  1  0
  7 32  1  0
  7 33  1  0
 11 34  1  0
 11 35  1  0
 16 36  1  0
 23 37  1  0
 26 38  1  0
 26 39  1  0
 26 40  1  0
M  CHG  4   8  -1  12  -1  17  -1  20  -1
M  END
>  <UniqueID>  (21) 
21

>  <SMILES>  (21) 
COc1ccc(C[N-]C(=O)C[N-]C(=O)c2c[n-]c(=O)[n-]c2=O)cc1OC

>  <Energy>  (21) 
37.78116487520134

>  <Genealogy>  (21) 
COc1ccc(C[N-]C(=O)C[N-]C(=O)c2c[n-]c(=O)[n-]c2=O)cc1OC (protonated)
COc1ccc(C[N-]C(=O)C[N-]C(=O)c2c[n-]c(=O)[n-]c2=O)cc1OC (3D coordinates assigned)
COc1ccc(C[N-]C(=O)C[N-]C(=O)c2c[n-]c(=O)[n-]c2=O)cc1OC (optimized conformer: 37.78116487520134 kcal/mol)

>  <smiles>  (21) 
COc1ccc(CNC(=O)CNC(=O)c2c[nH]c(=O)[nH]c2=O)cc1OC

>  <score_type>  (21) 
oracle

>  <origin>  (21) 
adg

>  <m_score__min__energy>  (21) 
-14.140000000000001

>  <m_primary>  (21) 
energy

$$$$
21:0
     RDKit          3D

 49 51  0  0  0  0  0  0  0  0999 V2000
   56.6700   19.0990   50.4290 C   0  0  0  0  0  0  0  0  0  0  0  0
   56.8340   20.7520   49.7880 S   0  0  0  0  0  0  0  0  0  0  0  0
   57.6860   20.7080   48.5520 O   0  0  0  0  0  0  0  0  0  0  0  0
   57.4910   21.6520   50.8010 O   0  0  0  0  0  0  0  0  0  0  0  0
   55.2710   21.3720   49.3590 N   0  0  0  0  0  0  0  0  0  0  0  0
   54.9700   22.1800   48.2120 C   0  0  0  0  0  0  0  0  0  0  0  0
   53.8320   21.9550   47.4170 C   0  0  0  0  0  0  0  0  0  0  0  0
   53.5640   22.7850   46.3240 C   0  0  0  0  0  0  0  0  0  0  0  0
   54.4350   23.8320   46.0020 C   0  0  0  0  0  0  0  0  0  0  0  0
   55.5900   24.0500   46.7670 C   0  0  0  0  0  0  0  0  0  0  0  0
   56.5560   25.0990   46.3660 C   0  0  0  0  0  0  0  0  0  0  0  0
   57.9250   24.8090   46.3530 C   0  0  0  0  0  0  0  0  0  0  0  0
   58.8420   25.7820   45.9500 C   0  0  0  0  0  0  0  0  0  0  0  0
   60.0710   25.4980   45.9460 O   0  0  0  0  0  0  0  0  0  0  0  0
   58.4080   27.0260   45.5630 N   0  0  0  0  0  0  0  0  0  0  0  0
   59.3710   28.0670   45.1720 C   0  0  0  0  0  0  0  0  0  0  0  0
   58.9370   29.3950   45.7180 C   0  0  0  0  0  0  0  0  0  0  0  0
   57.9840   30.0090   45.1660 O   0  0  0  0  0  0  0  0  0  0  0  0
   59.6130   29.9610   46.8540 N   0  0  0  0  0  0  0  0  0  0  0  0
   59.4870   31.3330   47.2600 C   0  0  0  0  0  0  0  0  0  0  0  0
   59.3380   31.6410   48.6190 C   0  0  0  0  0  0  0  0  0  0  0  0
   59.2160   32.9670   49.0340 C   0  0  0  0  0  0  0  0  0  0  0  0
   59.2580   34.0020   48.0980 C   0  0  0  0  0  0  0  0  0  0  0  0
   59.4390   33.7210   46.7320 C   0  0  0  0  0  0  0  0  0  0  0  0
   59.4990   34.8170   45.7360 C   0  0  0  0  0  0  0  0  0  0  0  0
   59.7150   36.1630   46.1490 N   0  0  0  0  0  0  0  0  0  0  0  0
   59.3510   34.5680   44.5100 O   0  0  0  0  0  0  0  0  0  0  0  0
   59.5620   32.3800   46.3240 C   0  0  0  0  0  0  0  0  0  0  0  0
   57.0730   27.3290   45.5850 C   0  0  0  0  0  0  0  0  0  0  0  0
   56.1280   26.3760   45.9780 C   0  0  0  0  0  0  0  0  0  0  0  0
   54.7790   26.7140   45.9950 O   0  0  0  0  0  0  0  0  0  0  0  0
   55.8490   23.2240   47.8770 C   0  0  0  0  0  0  0  0  0  0  0  0
   56.9520   23.4370   48.6400 F   0  0  0  0  0  0  0  0  0  0  0  0
   56.6731   19.1301   51.5286 H   0  0  0  0  0  0  0  0  0  0  0  0
   55.7240   18.6615   50.0772 H   0  0  0  0  0  0  0  0  0  0  0  0
   57.5116   18.4841   50.0772 H   0  0  0  0  0  0  0  0  0  0  0  0
   53.1513   21.1244   47.6554 H   0  0  0  0  0  0  0  0  0  0  0  0
   52.6644   22.6142   45.7145 H   0  0  0  0  0  0  0  0  0  0  0  0
   54.2129   24.4862   45.1460 H   0  0  0  0  0  0  0  0  0  0  0  0
   58.2790   23.8139   46.6604 H   0  0  0  0  0  0  0  0  0  0  0  0
   60.3638   27.8146   45.5729 H   0  0  0  0  0  0  0  0  0  0  0  0
   59.4168   28.1242   44.0744 H   0  0  0  0  0  0  0  0  0  0  0  0
   60.1720   29.3170   47.4570 H   0  0  0  0  0  0  0  0  0  0  0  0
   59.3171   30.8315   49.3635 H   0  0  0  0  0  0  0  0  0  0  0  0
   59.0863   33.1979   50.1017 H   0  0  0  0  0  0  0  0  0  0  0  0
   59.1488   35.0446   48.4313 H   0  0  0  0  0  0  0  0  0  0  0  0
   59.3610   36.5070   47.0720 H   0  0  0  0  0  0  0  0  0  0  0  0
   59.7187   32.1478   45.2603 H   0  0  0  0  0  0  0  0  0  0  0  0
   56.7395   28.3348   45.2898 H   0  0  0  0  0  0  0  0  0  0  0  0
  1  2  1  0
  2  3  2  0
  2  4  2  0
  2  5  1  0
  5  6  1  0
  6  7  2  0
  7  8  1  0
  8  9  2  0
  9 10  1  0
 10 11  1  0
 11 12  2  0
 12 13  1  0
 13 14  2  0
 13 15  1  0
 15 16  1  0
 16 17  1  0
 17 18  2  0
 17 19  1  0
 19 20  1  0
 20 21  2  0
 21 22  1  0
 22 23  2  0
 23 24  1  0
 24 25  1  0
 25 26  1  0
 25 27  2  0
 24 28  2  0
 15 29  1  0
 29 30  2  0
 30 31  1  0
 10 32  2  0
 32 33  1  0
 32  6  1  0
 30 11  1  0
 28 20  1  0
  1 34  1  0
  1 35  1  0
  1 36  1  0
  7 37  1  0
  8 38  1  0
  9 39  1  0
 12 40  1  0
 16 41  1  0
 16 42  1  0
 19 43  1  0
 21 44  1  0
 22 45  1  0
 23 46  1  0
 26 47  1  0
 28 48  1  0
 29 49  1  0
M  CHG  3   5  -1  26  -1  31  -1
M  END
>  <UniqueID>  (22) 
22

>  <SMILES>  (22) 
CS(=O)(=O)[N-]c1cccc(-c2cc(=O)n(CC(=O)Nc3cccc(C([NH-])=O)c3)cc2[O-])c1F

>  <Energy>  (22) 
62.86381544985938

>  <Genealogy>  (22) 
CS(=O)(=O)[N-]c1cccc(-c2cc(=O)n(CC(=O)Nc3cccc(C([NH-])=O)c3)cc2[O-])c1F (protonated)
CS(=O)(=O)[N-]c1cccc(-c2cc(=O)n(CC(=O)Nc3cccc(C([NH-])=O)c3)cc2[O-])c1F (3D coordinates assigned)
CS(=O)(=O)[N-]c1cccc(-c2cc(=O)n(CC(=O)Nc3cccc(C([NH-])=O)c3)cc2[O-])c1F (optimized conformer: 62.86381544985938 kcal/mol)

>  <smiles>  (22) 
CS(=O)(=O)Nc1cccc(-c2cc(=O)n(CC(=O)Nc3cccc(C(N)=O)c3)cc2O)c1F

>  <score_type>  (22) 
oracle

>  <origin>  (22) 
adg

>  <m_score__min__energy>  (22) 
-15.029999999999999

>  <m_primary>  (22) 
energy

$$$$
22:0
     RDKit          3D

 40 42  0  0  0  0  0  0  0  0999 V2000
   55.5370   29.3930   44.9040 O   0  0  0  0  0  0  0  0  0  0  0  0
   56.7710   29.4990   44.6720 C   0  0  0  0  0  0  0  0  0  0  0  0
   57.5440   28.3070   44.4820 N   0  0  0  0  0  0  0  0  0  0  0  0
   57.8330   27.3930   45.3690 C   0  0  0  0  0  0  0  0  0  0  0  0
   59.1460   27.0820   45.5480 N   0  0  0  0  0  0  0  0  0  0  0  0
   59.5640   26.1470   46.4400 C   0  0  0  0  0  0  0  0  0  0  0  0
   58.6340   25.4570   47.2140 C   0  0  0  0  0  0  0  0  0  0  0  0
   57.2780   25.7310   47.0540 C   0  0  0  0  0  0  0  0  0  0  0  0
   56.8550   26.6950   46.1270 C   0  0  0  0  0  0  0  0  0  0  0  0
   55.4900   26.9200   45.9590 O   0  0  0  0  0  0  0  0  0  0  0  0
   57.3900   30.8390   44.5280 C   0  0  0  0  0  0  0  0  0  0  0  0
   57.9090   31.4990   45.6570 C   0  0  0  0  0  0  0  0  0  0  0  0
   58.4810   32.7740   45.5390 C   0  0  0  0  0  0  0  0  0  0  0  0
   59.1440   33.5910   46.9590 S   0  0  0  0  0  0  0  0  0  0  0  0
   58.5810   32.9570   48.2000 O   0  0  0  0  0  0  0  0  0  0  0  0
   58.7160   35.0330   46.9430 O   0  0  0  0  0  0  0  0  0  0  0  0
   60.8920   33.4850   47.0300 N   0  0  0  0  0  0  0  0  0  0  0  0
   61.3530   32.0880   47.0960 C   0  0  0  0  0  0  0  0  0  0  0  0
   62.1270   31.8970   48.3920 C   0  0  0  0  0  0  0  0  0  0  0  0
   61.7950   33.1060   49.2310 C   0  0  0  0  0  0  0  0  0  0  0  0
   61.4180   34.1680   48.2180 C   0  0  0  0  0  0  0  0  0  0  0  0
   58.5300   33.3940   44.2840 C   0  0  0  0  0  0  0  0  0  0  0  0
   58.0240   32.7440   43.1570 C   0  0  0  0  0  0  0  0  0  0  0  0
   57.4600   31.4710   43.2720 C   0  0  0  0  0  0  0  0  0  0  0  0
   56.9570   30.8750   42.1610 F   0  0  0  0  0  0  0  0  0  0  0  0
   60.6375   25.9345   46.5512 H   0  0  0  0  0  0  0  0  0  0  0  0
   58.9669   24.7040   47.9435 H   0  0  0  0  0  0  0  0  0  0  0  0
   56.5351   25.1889   47.6575 H   0  0  0  0  0  0  0  0  0  0  0  0
   55.1390   27.6300   45.3270 H   0  0  0  0  0  0  0  0  0  0  0  0
   57.8657   31.0103   46.6415 H   0  0  0  0  0  0  0  0  0  0  0  0
   60.4870   31.4100   47.0774 H   0  0  0  0  0  0  0  0  0  0  0  0
   61.9984   31.8624   46.2342 H   0  0  0  0  0  0  0  0  0  0  0  0
   61.8077   30.9751   48.9000 H   0  0  0  0  0  0  0  0  0  0  0  0
   63.2086   31.8027   48.2155 H   0  0  0  0  0  0  0  0  0  0  0  0
   60.9525   32.8935   49.9056 H   0  0  0  0  0  0  0  0  0  0  0  0
   62.6316   33.4153   49.8747 H   0  0  0  0  0  0  0  0  0  0  0  0
   60.6489   34.8318   48.6398 H   0  0  0  0  0  0  0  0  0  0  0  0
   62.2948   34.7780   47.9550 H   0  0  0  0  0  0  0  0  0  0  0  0
   58.9692   34.3977   44.1860 H   0  0  0  0  0  0  0  0  0  0  0  0
   58.0695   33.2362   42.1743 H   0  0  0  0  0  0  0  0  0  0  0  0
  1  2  2  0
  2  3  1  0
  3  4  2  3
  4  5  1  0
  5  6  1  0
  6  7  2  0
  7  8  1  0
  8  9  2  0
  9 10  1  0
  2 11  1  0
 11 12  2  0
 12 13  1  0
 13 14  1  0
 14 15  2  0
 14 16  2  0
 14 17  1  0
 17 18  1  0
 18 19  1  0
 19 20  1  0
 20 21  1  0
 13 22  2  0
 22 23  1  0
 23 24  2  0
 24 25  1  0
  9  4  1  0
 24 11  1  0
 21 17  1  0
  6 26  1  0
  7 27  1  0
  8 28  1  0
 10 29  1  0
 12 30  1  0
 18 31  1  0
 18 32  1  0
 19 33  1  0
 19 34  1  0
 20 35  1  0
 20 36  1  0
 21 37  1  0
 21 38  1  0
 22 39  1  0
 23 40  1  0
M  CHG  1   5  -1
M  END
>  <UniqueID>  (23) 
23

>  <SMILES>  (23) 
O=C(N=c1[n-]cccc1O)c1cc(S(=O)(=O)N2CCCC2)ccc1F

>  <Energy>  (23) 
55.07869872946605

>  <Genealogy>  (23) 
O=C(N=c1[n-]cccc1O)c1cc(S(=O)(=O)N2CCCC2)ccc1F (protonated)
O=C(N=c1[n-]cccc1O)c1cc(S(=O)(=O)N2CCCC2)ccc1F (3D coordinates assigned)
O=C(N=c1[n-]cccc1O)c1cc(S(=O)(=O)N2CCCC2)ccc1F (nonaromatic ring conformer: 55.07869872946605 kcal/mol)

>  <smiles>  (23) 
O=C(N=c1[nH]cccc1O)c1cc(S(=O)(=O)N2CCCC2)ccc1F

>  <score_type>  (23) 
oracle

>  <origin>  (23) 
adg

>  <m_score__min__energy>  (23) 
-11.26

>  <m_primary>  (23) 
energy

$$$$
23:0
     RDKit          3D

 63 67  0  0  0  0  0  0  0  0999 V2000
   57.0130   29.4890   43.7840 C   0  0  0  0  0  0  0  0  0  0  0  0
   57.7480   29.1640   44.8580 C   0  0  0  0  0  0  0  0  0  0  0  0
   57.9710   27.8780   45.3760 C   0  0  0  0  0  0  0  0  0  0  0  0
   57.7070   26.6610   44.8620 C   0  0  0  0  0  0  0  0  0  0  0  0
   57.0360   25.5590   45.5740 C   0  0  0  0  0  0  0  0  0  0  0  0
   57.6320   24.4110   45.9470 N   0  0  0  0  0  0  0  0  0  0  0  0
   56.6830   23.7900   46.6790 C   0  0  0  0  0  0  0  0  0  0  0  0
   56.8630   22.6600   47.2040 O   0  0  0  0  0  0  0  0  0  0  0  0
   55.5310   24.4810   46.8180 N   0  0  0  0  0  0  0  0  0  0  0  0
   55.7780   25.6030   46.1230 C   0  0  0  0  0  0  0  0  0  0  0  0
   54.8720   26.6500   45.9970 O   0  0  0  0  0  0  0  0  0  0  0  0
   58.6020   28.0560   46.5970 C   0  0  0  0  0  0  0  0  0  0  0  0
   58.8000   29.4120   46.7520 C   0  0  0  0  0  0  0  0  0  0  0  0
   59.5090   30.0460   47.9090 C   0  0  0  0  0  0  0  0  0  0  0  0
   58.2970   30.0850   45.6930 N   0  0  0  0  0  0  0  0  0  0  0  0
   58.2860   31.5140   45.5440 C   0  0  0  0  0  0  0  0  0  0  0  0
   57.4120   32.1170   44.6300 C   0  0  0  0  0  0  0  0  0  0  0  0
   57.3940   33.5080   44.4910 C   0  0  0  0  0  0  0  0  0  0  0  0
   58.2570   34.3020   45.2510 C   0  0  0  0  0  0  0  0  0  0  0  0
   59.1640   33.7050   46.1430 C   0  0  0  0  0  0  0  0  0  0  0  0
   60.0730   34.5160   46.9770 C   0  0  0  0  0  0  0  0  0  0  0  0
   59.7140   35.6800   47.2960 O   0  0  0  0  0  0  0  0  0  0  0  0
   61.3020   33.9770   47.5080 N   0  0  0  0  0  0  0  0  0  0  0  0
   61.7690   34.4150   48.8310 C   0  0  0  0  0  0  0  0  0  0  0  0
   62.2410   33.2030   49.6470 C   0  0  0  0  0  0  0  0  0  0  0  0
   63.2280   32.2810   48.8700 C   0  0  0  0  0  0  0  0  0  0  0  0
   64.4840   32.0990   49.6450 N   0  0  0  0  0  0  0  0  0  0  0  0
   65.2470   33.3530   49.8300 C   0  0  0  0  0  0  0  0  0  0  0  0
   66.3940   33.1520   50.8420 C   0  0  0  0  0  0  0  0  0  0  0  0
   66.7800   31.7920   50.8890 O   0  0  0  0  0  0  0  0  0  0  0  0
   65.7410   30.9960   51.4450 C   0  0  0  0  0  0  0  0  0  0  0  0
   64.3400   31.3760   50.9230 C   0  0  0  0  0  0  0  0  0  0  0  0
   63.4610   32.7470   47.4060 C   0  0  0  0  0  0  0  0  0  0  0  0
   62.1250   33.0480   46.7150 C   0  0  0  0  0  0  0  0  0  0  0  0
   59.1640   32.3110   46.2940 C   0  0  0  0  0  0  0  0  0  0  0  0
   56.9176   30.5421   43.4810 H   0  0  0  0  0  0  0  0  0  0  0  0
   56.5056   28.7024   43.2062 H   0  0  0  0  0  0  0  0  0  0  0  0
   58.0185   26.4742   43.8237 H   0  0  0  0  0  0  0  0  0  0  0  0
   58.8899   27.2666   47.3069 H   0  0  0  0  0  0  0  0  0  0  0  0
   59.0854   29.6672   48.8508 H   0  0  0  0  0  0  0  0  0  0  0  0
   60.5799   29.7987   47.8630 H   0  0  0  0  0  0  0  0  0  0  0  0
   59.3825   31.1377   47.8630 H   0  0  0  0  0  0  0  0  0  0  0  0
   56.7392   31.4953   44.0211 H   0  0  0  0  0  0  0  0  0  0  0  0
   56.6982   33.9790   43.7810 H   0  0  0  0  0  0  0  0  0  0  0  0
   58.2263   35.3970   45.1508 H   0  0  0  0  0  0  0  0  0  0  0  0
   62.6048   35.1195   48.7078 H   0  0  0  0  0  0  0  0  0  0  0  0
   60.9415   34.9085   49.3617 H   0  0  0  0  0  0  0  0  0  0  0  0
   62.7453   33.5681   50.5538 H   0  0  0  0  0  0  0  0  0  0  0  0
   61.3501   32.6016   49.8806 H   0  0  0  0  0  0  0  0  0  0  0  0
   62.7624   31.2894   48.7698 H   0  0  0  0  0  0  0  0  0  0  0  0
   65.6695   33.6641   48.8632 H   0  0  0  0  0  0  0  0  0  0  0  0
   64.5667   34.1259   50.2170 H   0  0  0  0  0  0  0  0  0  0  0  0
   67.2566   33.7629   50.5376 H   0  0  0  0  0  0  0  0  0  0  0  0
   66.0461   33.4579   51.8397 H   0  0  0  0  0  0  0  0  0  0  0  0
   65.9343   29.9428   51.1931 H   0  0  0  0  0  0  0  0  0  0  0  0
   65.7431   31.1676   52.5315 H   0  0  0  0  0  0  0  0  0  0  0  0
   63.7450   30.4642   50.7660 H   0  0  0  0  0  0  0  0  0  0  0  0
   63.8307   32.0171   51.6576 H   0  0  0  0  0  0  0  0  0  0  0  0
   64.0786   33.6573   47.4105 H   0  0  0  0  0  0  0  0  0  0  0  0
   63.9713   31.9430   46.8554 H   0  0  0  0  0  0  0  0  0  0  0  0
   62.3252   33.4986   45.7317 H   0  0  0  0  0  0  0  0  0  0  0  0
   61.5719   32.1031   46.6087 H   0  0  0  0  0  0  0  0  0  0  0  0
   59.8573   31.8388   47.0056 H   0  0  0  0  0  0  0  0  0  0  0  0
  1  2  2  0
  2  3  1  0
  3  4  2  3
  4  5  1  0
  5  6  1  0
  6  7  1  0
  7  8  2  0
  7  9  1  0
  9 10  1  0
 10 11  1  0
  3 12  1  0
 12 13  2  0
 13 14  1  0
 13 15  1  0
 15 16  1  0
 16 17  2  0
 17 18  1  0
 18 19  2  0
 19 20  1  0
 20 21  1  0
 21 22  2  0
 21 23  1  0
 23 24  1  0
 24 25  1  0
 25 26  1  0
 26 27  1  0
 27 28  1  0
 28 29  1  0
 29 30  1  0
 30 31  1  0
 31 32  1  0
 26 33  1  0
 33 34  1  0
 20 35  2  0
 15  2  1  0
 35 16  1  0
 10  5  2  0
 34 23  1  0
 32 27  1  0
  1 36  1  0
  1 37  1  0
  4 38  1  0
 12 39  1  0
 14 40  1  0
 14 41  1  0
 14 42  1  0
 17 43  1  0
 18 44  1  0
 19 45  1  0
 24 46  1  0
 24 47  1  0
 25 48  1  0
 25 49  1  0
 26 50  1  0
 28 51  1  0
 28 52  1  0
 29 53  1  0
 29 54  1  0
 31 55  1  0
 31 56  1  0
 32 57  1  0
 32 58  1  0
 33 59  1  0
 33 60  1  0
 34 61  1  0
 34 62  1  0
 35 63  1  0
M  CHG  3   6  -1   9  -1  11  -1
M  END
>  <UniqueID>  (24) 
24

>  <SMILES>  (24) 
C=c1c(=Cc2[n-]c(=O)[n-]c2[O-])cc(C)n1-c1cccc(C(=O)N2CCC(N3CCOCC3)CC2)c1

>  <Energy>  (24) 
167.63671292928908

>  <Genealogy>  (24) 
C=c1c(=Cc2[n-]c(=O)[n-]c2[O-])cc(C)n1-c1cccc(C(=O)N2CCC(N3CCOCC3)CC2)c1 (protonated)
C=c1c(=Cc2[n-]c(=O)[n-]c2[O-])cc(C)n1-c1cccc(C(=O)N2CCC(N3CCOCC3)CC2)c1 (3D coordinates assigned)
C=c1c(=Cc2[n-]c(=O)[n-]c2[O-])cc(C)n1-c1cccc(C(=O)N2CCC(N3CCOCC3)CC2)c1 (nonaromatic ring conformer: 167.63671292928908 kcal/mol)

>  <smiles>  (24) 
C=c1c(=Cc2[nH]c(=O)[nH]c2O)cc(C)n1-c1cccc(C(=O)N2CCC(N3CCOCC3)CC2)c1

>  <score_type>  (24) 
oracle

>  <origin>  (24) 
adg

>  <m_score__min__energy>  (24) 
-18.370000000000001

>  <m_primary>  (24) 
energy

$$$$
24:0
     RDKit          3D

 70 73  0  0  0  0  0  0  0  0999 V2000
   66.1590   33.0390   50.1090 C   0  0  0  0  0  0  0  0  0  0  0  0
   64.8690   32.3150   49.7480 C   0  0  0  0  0  0  0  0  0  0  0  0
   63.7840   33.2680   49.4500 N   0  0  0  0  0  0  0  0  0  0  0  0
   62.9820   33.8070   50.5630 C   0  0  0  0  0  0  0  0  0  0  0  0
   61.8700   32.8500   51.0160 C   0  0  0  0  0  0  0  0  0  0  0  0
   60.5580   33.5410   51.0480 N   0  0  0  0  0  0  0  0  0  0  0  0
   59.6240   33.0520   50.0020 C   0  0  0  0  0  0  0  0  0  0  0  0
   58.5310   32.1410   50.5870 C   0  0  0  0  0  0  0  0  0  0  0  0
   57.7350   32.7830   51.5750 O   0  0  0  0  0  0  0  0  0  0  0  0
   58.4430   33.7530   52.3400 C   0  0  0  0  0  0  0  0  0  0  0  0
   59.9600   33.5090   52.4020 C   0  0  0  0  0  0  0  0  0  0  0  0
   63.3740   33.5240   48.0840 C   0  0  0  0  0  0  0  0  0  0  0  0
   64.1200   34.1870   47.3150 O   0  0  0  0  0  0  0  0  0  0  0  0
   62.0960   33.0320   47.5450 C   0  0  0  0  0  0  0  0  0  0  0  0
   61.8780   31.6540   47.4070 C   0  0  0  0  0  0  0  0  0  0  0  0
   60.6830   31.1830   46.8570 C   0  0  0  0  0  0  0  0  0  0  0  0
   59.6930   32.0800   46.4370 C   0  0  0  0  0  0  0  0  0  0  0  0
   58.5140   31.5720   45.8720 O   0  0  0  0  0  0  0  0  0  0  0  0
   58.1610   30.2160   45.8270 C   0  0  0  0  0  0  0  0  0  0  0  0
   58.3520   29.3670   46.9300 C   0  0  0  0  0  0  0  0  0  0  0  0
   58.0020   28.0170   46.8490 C   0  0  0  0  0  0  0  0  0  0  0  0
   57.4780   27.4870   45.6620 C   0  0  0  0  0  0  0  0  0  0  0  0
   57.0940   26.1010   45.6220 N   0  0  0  0  0  0  0  0  0  0  0  0
   55.8020   25.5990   45.9900 C   0  0  0  0  0  0  0  0  0  0  0  0
   54.8110   26.3760   46.0710 O   0  0  0  0  0  0  0  0  0  0  0  0
   55.6300   24.1900   46.1800 N   0  0  0  0  0  0  0  0  0  0  0  0
   56.3050   23.1510   45.4540 C   0  0  0  0  0  0  0  0  0  0  0  0
   55.5990   22.1240   44.8020 C   0  0  0  0  0  0  0  0  0  0  0  0
   56.2900   21.1070   44.1440 C   0  0  0  0  0  0  0  0  0  0  0  0
   57.6880   21.0930   44.1440 C   0  0  0  0  0  0  0  0  0  0  0  0
   58.4070   22.0860   44.8310 C   0  0  0  0  0  0  0  0  0  0  0  0
   59.9150   22.0910   44.8060 C   0  0  0  0  0  0  0  0  0  0  0  0
   60.3850   21.8770   43.5230 F   0  0  0  0  0  0  0  0  0  0  0  0
   60.4190   21.0940   45.6230 F   0  0  0  0  0  0  0  0  0  0  0  0
   60.3730   23.3150   45.2540 F   0  0  0  0  0  0  0  0  0  0  0  0
   57.7040   23.1210   45.4710 C   0  0  0  0  0  0  0  0  0  0  0  0
   57.2870   28.3410   44.5590 C   0  0  0  0  0  0  0  0  0  0  0  0
   57.6410   29.6900   44.6400 C   0  0  0  0  0  0  0  0  0  0  0  0
   59.9280   33.4630   46.5460 C   0  0  0  0  0  0  0  0  0  0  0  0
   61.1240   33.9340   47.0920 C   0  0  0  0  0  0  0  0  0  0  0  0
   66.2552   33.0930   51.2035 H   0  0  0  0  0  0  0  0  0  0  0  0
   67.0164   32.4903   49.6922 H   0  0  0  0  0  0  0  0  0  0  0  0
   66.1373   34.0567   49.6922 H   0  0  0  0  0  0  0  0  0  0  0  0
   65.0467   31.6864   48.8629 H   0  0  0  0  0  0  0  0  0  0  0  0
   64.5641   31.7002   50.6077 H   0  0  0  0  0  0  0  0  0  0  0  0
   63.6495   33.9985   51.4161 H   0  0  0  0  0  0  0  0  0  0  0  0
   62.4993   34.7288   50.2061 H   0  0  0  0  0  0  0  0  0  0  0  0
   61.8147   32.0043   50.3147 H   0  0  0  0  0  0  0  0  0  0  0  0
   62.1044   32.4934   52.0299 H   0  0  0  0  0  0  0  0  0  0  0  0
   59.1451   33.9174   49.5205 H   0  0  0  0  0  0  0  0  0  0  0  0
   60.2043   32.4639   49.2758 H   0  0  0  0  0  0  0  0  0  0  0  0
   57.8741   31.8131   49.7679 H   0  0  0  0  0  0  0  0  0  0  0  0
   59.0376   31.2952   51.0749 H   0  0  0  0  0  0  0  0  0  0  0  0
   58.2690   34.7423   51.8918 H   0  0  0  0  0  0  0  0  0  0  0  0
   58.0655   33.6852   53.3710 H   0  0  0  0  0  0  0  0  0  0  0  0
   60.4253   34.2915   53.0194 H   0  0  0  0  0  0  0  0  0  0  0  0
   60.1377   32.5159   52.8404 H   0  0  0  0  0  0  0  0  0  0  0  0
   62.6501   30.9414   47.7327 H   0  0  0  0  0  0  0  0  0  0  0  0
   60.5188   30.1003   46.7532 H   0  0  0  0  0  0  0  0  0  0  0  0
   58.7790   29.7670   47.8615 H   0  0  0  0  0  0  0  0  0  0  0  0
   58.1388   27.3646   47.7240 H   0  0  0  0  0  0  0  0  0  0  0  0
   57.7870   25.4080   45.2620 H   0  0  0  0  0  0  0  0  0  0  0  0
   54.4990   22.1230   44.8111 H   0  0  0  0  0  0  0  0  0  0  0  0
   55.7336   20.3136   43.6235 H   0  0  0  0  0  0  0  0  0  0  0  0
   58.2276   20.3011   43.6038 H   0  0  0  0  0  0  0  0  0  0  0  0
   58.2592   23.9158   45.9907 H   0  0  0  0  0  0  0  0  0  0  0  0
   56.8565   27.9437   43.6280 H   0  0  0  0  0  0  0  0  0  0  0  0
   57.5099   30.3428   43.7644 H   0  0  0  0  0  0  0  0  0  0  0  0
   59.1660   34.1767   46.1995 H   0  0  0  0  0  0  0  0  0  0  0  0
   61.3036   35.0167   47.1667 H   0  0  0  0  0  0  0  0  0  0  0  0
  1  2  1  0
  2  3  1  0
  3  4  1  0
  4  5  1  0
  5  6  1  0
  6  7  1  0
  7  8  1  0
  8  9  1  0
  9 10  1  0
 10 11  1  0
  3 12  1  0
 12 13  2  0
 12 14  1  0
 14 15  2  0
 15 16  1  0
 16 17  2  0
 17 18  1  0
 18 19  1  0
 19 20  2  0
 20 21  1  0
 21 22  2  0
 22 23  1  0
 23 24  1  0
 24 25  2  0
 24 26  1  0
 26 27  1  0
 27 28  2  0
 28 29  1  0
 29 30  2  0
 30 31  1  0
 31 32  1  0
 32 33  1  0
 32 34  1  0
 32 35  1  0
 31 36  2  0
 22 37  1  0
 37 38  2  0
 17 39  1  0
 39 40  2  0
 11  6  1  0
 40 14  1  0
 38 19  1  0
 36 27  1  0
  1 41  1  0
  1 42  1  0
  1 43  1  0
  2 44  1  0
  2 45  1  0
  4 46  1  0
  4 47  1  0
  5 48  1  0
  5 49  1  0
  7 50  1  0
  7 51  1  0
  8 52  1  0
  8 53  1  0
 10 54  1  0
 10 55  1  0
 11 56  1  0
 11 57  1  0
 15 58  1  0
 16 59  1  0
 20 60  1  0
 21 61  1  0
 23 62  1  0
 28 63  1  0
 29 64  1  0
 30 65  1  0
 36 66  1  0
 37 67  1  0
 38 68  1  0
 39 69  1  0
 40 70  1  0
M  CHG  1  26  -1
M  END
>  <UniqueID>  (25) 
25

>  <SMILES>  (25) 
CCN(CCN1CCOCC1)C(=O)c1ccc(Oc2ccc(NC(=O)[N-]c3cccc(C(F)(F)F)c3)cc2)cc1

>  <Energy>  (25) 
104.4860598801444

>  <Genealogy>  (25) 
CCN(CCN1CCOCC1)C(=O)c1ccc(Oc2ccc(NC(=O)[N-]c3cccc(C(F)(F)F)c3)cc2)cc1 (protonated)
CCN(CCN1CCOCC1)C(=O)c1ccc(Oc2ccc(NC(=O)[N-]c3cccc(C(F)(F)F)c3)cc2)cc1 (3D coordinates assigned)
CCN(CCN1CCOCC1)C(=O)c1ccc(Oc2ccc(NC(=O)[N-]c3cccc(C(F)(F)F)c3)cc2)cc1 (nonaromatic ring conformer: 104.4860598801444 kcal/mol)

>  <smiles>  (25) 
CCN(CCN1CCOCC1)C(=O)c1ccc(Oc2ccc(NC(=O)Nc3cccc(C(F)(F)F)c3)cc2)cc1

>  <score_type>  (25) 
oracle

>  <origin>  (25) 
adg

>  <m_score__min__energy>  (25) 
-10.41

>  <m_primary>  (25) 
energy

$$$$
25:0
     RDKit          3D

 34 36  0  0  0  0  0  0  0  0999 V2000
   58.2520   30.1650   44.3340 C   0  0  0  0  0  0  0  0  0  0  0  0
   58.4720   29.6450   45.5520 C   0  0  0  0  0  0  0  0  0  0  0  0
   58.1370   28.3570   45.9990 C   0  0  0  0  0  0  0  0  0  0  0  0
   57.7250   27.2670   45.3240 C   0  0  0  0  0  0  0  0  0  0  0  0
   57.1630   26.0500   45.9320 C   0  0  0  0  0  0  0  0  0  0  0  0
   57.8800   25.0190   46.4130 N   0  0  0  0  0  0  0  0  0  0  0  0
   56.9710   24.2170   47.0000 C   0  0  0  0  0  0  0  0  0  0  0  0
   57.2740   23.1330   47.5640 O   0  0  0  0  0  0  0  0  0  0  0  0
   55.7040   24.6840   46.9440 N   0  0  0  0  0  0  0  0  0  0  0  0
   55.8460   25.8480   46.2810 C   0  0  0  0  0  0  0  0  0  0  0  0
   54.7940   26.7140   46.0070 O   0  0  0  0  0  0  0  0  0  0  0  0
   58.3200   28.3640   47.3730 C   0  0  0  0  0  0  0  0  0  0  0  0
   58.8220   29.6060   47.7030 C   0  0  0  0  0  0  0  0  0  0  0  0
   59.1600   30.0500   49.0930 C   0  0  0  0  0  0  0  0  0  0  0  0
   58.9200   30.3800   46.6020 N   0  0  0  0  0  0  0  0  0  0  0  0
   59.3370   31.7560   46.5820 C   0  0  0  0  0  0  0  0  0  0  0  0
   58.3920   32.7630   46.3440 C   0  0  0  0  0  0  0  0  0  0  0  0
   58.7800   34.1030   46.3170 C   0  0  0  0  0  0  0  0  0  0  0  0
   60.1160   34.4480   46.5290 C   0  0  0  0  0  0  0  0  0  0  0  0
   61.0710   33.4560   46.7720 C   0  0  0  0  0  0  0  0  0  0  0  0
   62.7410   33.9350   47.0420 Cl  0  0  0  0  0  0  0  0  0  0  0  0
   60.6850   32.1020   46.8020 C   0  0  0  0  0  0  0  0  0  0  0  0
   61.8750   30.8460   47.1410 Cl  0  0  0  0  0  0  0  0  0  0  0  0
   58.5660   31.1953   44.1109 H   0  0  0  0  0  0  0  0  0  0  0  0
   57.7577   29.5607   43.5591 H   0  0  0  0  0  0  0  0  0  0  0  0
   57.8159   27.2878   44.2280 H   0  0  0  0  0  0  0  0  0  0  0  0
   58.9150   24.8860   46.3770 H   0  0  0  0  0  0  0  0  0  0  0  0
   58.1060   27.5379   48.0671 H   0  0  0  0  0  0  0  0  0  0  0  0
   58.6598   29.3929   49.8196 H   0  0  0  0  0  0  0  0  0  0  0  0
   60.2489   29.9976   49.2401 H   0  0  0  0  0  0  0  0  0  0  0  0
   58.8196   31.0856   49.2401 H   0  0  0  0  0  0  0  0  0  0  0  0
   57.3381   32.4955   46.1775 H   0  0  0  0  0  0  0  0  0  0  0  0
   58.0328   34.8880   46.1286 H   0  0  0  0  0  0  0  0  0  0  0  0
   60.4188   35.5052   46.5048 H   0  0  0  0  0  0  0  0  0  0  0  0
  1  2  2  0
  2  3  1  0
  3  4  2  3
  4  5  1  0
  5  6  1  0
  6  7  1  0
  7  8  2  0
  7  9  1  0
  9 10  1  0
 10 11  1  0
  3 12  1  0
 12 13  2  0
 13 14  1  0
 13 15  1  0
 15 16  1  0
 16 17  2  0
 17 18  1  0
 18 19  2  0
 19 20  1  0
 20 21  1  0
 20 22  2  0
 22 23  1  0
 15  2  1  0
 22 16  1  0
 10  5  2  0
  1 24  1  0
  1 25  1  0
  4 26  1  0
  6 27  1  0
 12 28  1  0
 14 29  1  0
 14 30  1  0
 14 31  1  0
 17 32  1  0
 18 33  1  0
 19 34  1  0
M  CHG  2   9  -1  11  -1
M  END
>  <UniqueID>  (26) 
26

>  <SMILES>  (26) 
C=c1c(=Cc2[nH]c(=O)[n-]c2[O-])cc(C)n1-c1cccc(Cl)c1Cl

>  <Energy>  (26) 
113.74888926777335

>  <Genealogy>  (26) 
C=c1c(=Cc2[nH]c(=O)[n-]c2[O-])cc(C)n1-c1cccc(Cl)c1Cl (protonated)
C=c1c(=Cc2[nH]c(=O)[n-]c2[O-])cc(C)n1-c1cccc(Cl)c1Cl (3D coordinates assigned)
C=c1c(=Cc2[nH]c(=O)[n-]c2[O-])cc(C)n1-c1cccc(Cl)c1Cl (optimized conformer: 113.74888926777335 kcal/mol)

>  <smiles>  (26) 
C=c1c(=Cc2[nH]c(=O)[nH]c2O)cc(C)n1-c1cccc(Cl)c1Cl

>  <score_type>  (26) 
oracle

>  <origin>  (26) 
adg

>  <m_score__min__energy>  (26) 
-13.869999999999999

>  <m_primary>  (26) 
energy

$$$$
26:0
     RDKit          3D

 50 53  0  0  0  0  0  0  0  0999 V2000
   54.0450   26.3370   46.3920 H   0  0  0  0  0  0  0  0  0  0  0  0
   54.9930   26.4210   46.0470 O   0  0  0  0  0  0  0  0  0  0  0  0
   55.9990   25.5410   46.4400 C   0  0  0  0  0  0  0  0  0  0  0  0
   55.7530   24.3880   47.0870 N   0  0  0  0  0  0  0  0  0  0  0  0
   56.9890   23.8760   47.2650 C   0  0  0  0  0  0  0  0  0  0  0  0
   57.1910   22.7790   47.8470 O   0  0  0  0  0  0  0  0  0  0  0  0
   57.9910   24.6360   46.7730 N   0  0  0  0  0  0  0  0  0  0  0  0
   57.3550   25.6930   46.2360 C   0  0  0  0  0  0  0  0  0  0  0  0
   58.0200   26.8650   45.6210 C   0  0  0  0  0  0  0  0  0  0  0  0
   58.1694   26.8509   44.5313 H   0  0  0  0  0  0  0  0  0  0  0  0
   58.4570   27.9500   46.2970 C   0  0  0  0  0  0  0  0  0  0  0  0
   58.4010   28.1470   47.6670 C   0  0  0  0  0  0  0  0  0  0  0  0
   57.9740   27.4566   48.4093 H   0  0  0  0  0  0  0  0  0  0  0  0
   58.9820   29.3730   47.9260 C   0  0  0  0  0  0  0  0  0  0  0  0
   59.0880   29.9390   49.2910 C   0  0  0  0  0  0  0  0  0  0  0  0
   58.3630   29.5140   50.2270 O   0  0  0  0  0  0  0  0  0  0  0  0
   60.0470   30.9730   49.5510 N   0  0  0  0  0  0  0  0  0  0  0  0
   61.4860   30.7410   49.6220 C   0  0  0  0  0  0  0  0  0  0  0  0
   61.7966   30.7049   50.6766 H   0  0  0  0  0  0  0  0  0  0  0  0
   61.7203   29.7862   49.1285 H   0  0  0  0  0  0  0  0  0  0  0  0
   62.2270   31.8500   48.9230 C   0  0  0  0  0  0  0  0  0  0  0  0
   62.0970   33.1740   49.3720 C   0  0  0  0  0  0  0  0  0  0  0  0
   61.4697   33.3969   50.2477 H   0  0  0  0  0  0  0  0  0  0  0  0
   62.7630   34.2110   48.7090 C   0  0  0  0  0  0  0  0  0  0  0  0
   62.6623   35.2461   49.0673 H   0  0  0  0  0  0  0  0  0  0  0  0
   63.5560   33.9330   47.5920 C   0  0  0  0  0  0  0  0  0  0  0  0
   64.0795   34.7491   47.0724 H   0  0  0  0  0  0  0  0  0  0  0  0
   63.6840   32.6180   47.1350 C   0  0  0  0  0  0  0  0  0  0  0  0
   64.3058   32.4008   46.2540 H   0  0  0  0  0  0  0  0  0  0  0  0
   63.0230   31.5790   47.7960 C   0  0  0  0  0  0  0  0  0  0  0  0
   63.1258   30.5456   47.4333 H   0  0  0  0  0  0  0  0  0  0  0  0
   59.4120   29.9490   46.7700 N   0  0  0  0  0  0  0  0  0  0  0  0
   60.0980   31.2520   46.6490 C   0  0  0  0  0  0  0  0  0  0  0  0
   60.4553   31.5602   47.6427 H   0  0  0  0  0  0  0  0  0  0  0  0
   60.9367   31.1336   45.9471 H   0  0  0  0  0  0  0  0  0  0  0  0
   59.1770   32.3220   46.1060 C   0  0  0  0  0  0  0  0  0  0  0  0
   57.8520   31.9950   45.7640 C   0  0  0  0  0  0  0  0  0  0  0  0
   57.4895   30.9667   45.9095 H   0  0  0  0  0  0  0  0  0  0  0  0
   56.9920   32.9650   45.2410 C   0  0  0  0  0  0  0  0  0  0  0  0
   55.9537   32.7013   44.9914 H   0  0  0  0  0  0  0  0  0  0  0  0
   57.4490   34.2680   45.0350 C   0  0  0  0  0  0  0  0  0  0  0  0
   56.6160   35.2060   44.5220 F   0  0  0  0  0  0  0  0  0  0  0  0
   58.7710   34.6000   45.3420 C   0  0  0  0  0  0  0  0  0  0  0  0
   59.1333   35.6241   45.1689 H   0  0  0  0  0  0  0  0  0  0  0  0
   59.6360   33.6340   45.8690 C   0  0  0  0  0  0  0  0  0  0  0  0
   60.9200   33.9830   46.1310 F   0  0  0  0  0  0  0  0  0  0  0  0
   59.0930   29.0810   45.7660 C   0  0  0  0  0  0  0  0  0  0  0  0
   59.3570   29.2860   44.4630 C   0  0  0  0  0  0  0  0  0  0  0  0
   59.8622   30.2092   44.1428 H   0  0  0  0  0  0  0  0  0  0  0  0
   59.0677   28.5305   43.7177 H   0  0  0  0  0  0  0  0  0  0  0  0
  1  2  1  0
  2  3  1  0
  3  4  1  0
  4  5  1  0
  5  6  2  0
  5  7  1  0
  7  8  1  0
  8  9  1  0
  9 10  1  0
  9 11  2  0
 11 12  1  0
 12 13  1  0
 12 14  2  0
 14 15  1  0
 15 16  2  0
 15 17  1  0
 17 18  1  0
 18 19  1  0
 18 20  1  0
 18 21  1  0
 21 22  2  0
 22 23  1  0
 22 24  1  0
 24 25  1  0
 24 26  2  0
 26 27  1  0
 26 28  1  0
 28 29  1  0
 28 30  2  0
 30 31  1  0
 14 32  1  0
 32 33  1  0
 33 34  1  0
 33 35  1  0
 33 36  1  0
 36 37  2  0
 37 38  1  0
 37 39  1  0
 39 40  1  0
 39 41  2  0
 41 42  1  0
 41 43  1  0
 43 44  1  0
 43 45  2  0
 45 46  1  0
 32 47  1  0
 47 48  2  0
 48 49  1  0
 48 50  1  0
  8  3  2  0
 47 11  1  0
 30 21  1  0
 45 36  1  0
M  CHG  3   4  -1   7  -1  17  -1
M  END
>  <UniqueID>  (27) 
27

>  <SMILES>  (27) 
C=c1/c(=C/c2[n-]c(=O)[n-]c2O)cc(C(=O)[N-]Cc2ccccc2)n1Cc1ccc(F)cc1F

>  <Energy>  (27) 
118.62736268729235

>  <Genealogy>  (27) 
C=c1c(=Cc2[n-]c(=O)[n-]c2O)cc(C(=O)[N-]Cc2ccccc2)n1Cc1ccc(F)cc1F (protonated)
C=c1/c(=C/c2[n-]c(=O)[n-]c2O)cc(C(=O)[N-]Cc2ccccc2)n1Cc1ccc(F)cc1F (cis-trans isomerization)
C=c1/c(=C/c2[n-]c(=O)[n-]c2O)cc(C(=O)[N-]Cc2ccccc2)n1Cc1ccc(F)cc1F (3D coordinates assigned)
C=c1/c(=C/c2[n-]c(=O)[n-]c2O)cc(C(=O)[N-]Cc2ccccc2)n1Cc1ccc(F)cc1F (optimized conformer: 118.62736268729235 kcal/mol)

>  <smiles>  (27) 
C=c1c(=Cc2[nH]c(=O)[nH]c2O)cc(C(=O)NCc2ccccc2)n1Cc1ccc(F)cc1F

>  <score_type>  (27) 
oracle

>  <origin>  (27) 
adg

>  <m_score__min__energy>  (27) 
-14.789999999999999

>  <m_primary>  (27) 
energy

$$$$
27:0
     RDKit          3D

 55 60  0  0  0  0  0  0  0  0999 V2000
   57.7524   32.5134   42.1489 H   0  0  0  0  0  0  0  0  0  0  0  0
   57.7560   32.3520   43.2370 C   0  0  0  0  0  0  0  0  0  0  0  0
   58.0030   33.3910   44.0770 N   0  0  0  0  0  0  0  0  0  0  0  0
   58.0270   33.2470   45.4310 C   0  0  0  0  0  0  0  0  0  0  0  0
   58.2800   34.3050   46.1530 N   0  0  0  0  0  0  0  0  0  0  0  0
   59.5290   34.9660   46.4170 C   0  0  0  0  0  0  0  0  0  0  0  0
   59.6610   36.2030   46.2010 O   0  0  0  0  0  0  0  0  0  0  0  0
   60.6290   34.2160   47.0650 C   0  0  0  0  0  0  0  0  0  0  0  0
   61.1940   33.0950   46.4370 C   0  0  0  0  0  0  0  0  0  0  0  0
   60.8632   32.8110   45.4271 H   0  0  0  0  0  0  0  0  0  0  0  0
   62.1730   32.3370   47.0840 C   0  0  0  0  0  0  0  0  0  0  0  0
   62.6073   31.4638   46.5751 H   0  0  0  0  0  0  0  0  0  0  0  0
   62.6110   32.6750   48.3770 C   0  0  0  0  0  0  0  0  0  0  0  0
   63.6170   31.7460   49.0540 C   0  0  2  0  0  0  0  0  0  0  0  0
   64.1308   31.5216   48.1076 H   0  0  0  0  0  0  0  0  0  0  0  0
   63.0930   30.6180   49.8570 N   0  0  0  0  0  0  0  0  0  0  0  0
   61.3920   30.6510   50.3000 S   0  0  0  0  0  0  0  0  0  0  0  0
   61.2220   29.9320   51.6090 O   0  0  0  0  0  0  0  0  0  0  0  0
   60.9080   32.0650   50.4710 O   0  0  0  0  0  0  0  0  0  0  0  0
   60.4080   29.8220   49.0960 C   0  0  0  0  0  0  0  0  0  0  0  0
   59.2750   29.0870   49.5060 C   0  0  0  0  0  0  0  0  0  0  0  0
   58.9812   29.0850   50.5660 H   0  0  0  0  0  0  0  0  0  0  0  0
   58.5190   28.3580   48.5730 C   0  0  0  0  0  0  0  0  0  0  0  0
   57.6406   27.7772   48.8910 H   0  0  0  0  0  0  0  0  0  0  0  0
   58.9100   28.3880   47.2280 C   0  0  0  0  0  0  0  0  0  0  0  0
   60.0150   29.1260   46.8230 C   0  0  0  0  0  0  0  0  0  0  0  0
   60.7710   29.8570   47.7360 C   0  0  0  0  0  0  0  0  0  0  0  0
   61.6348   30.4501   47.4012 H   0  0  0  0  0  0  0  0  0  0  0  0
   60.2680   29.0410   45.5560 N   0  0  0  0  0  0  0  0  0  0  0  0
   59.2470   28.1770   45.0760 C   0  0  0  0  0  0  0  0  0  0  0  0
   59.1100   27.8670   43.8640 O   0  0  0  0  0  0  0  0  0  0  0  0
   58.3830   27.7630   46.1780 C   0  0  0  0  0  0  0  0  0  0  0  0
   57.1750   26.9110   46.1270 C   0  0  0  0  0  0  0  0  0  0  0  0
   57.1430   25.6270   46.5290 N   0  0  0  0  0  0  0  0  0  0  0  0
   55.8550   25.2660   46.3430 C   0  0  0  0  0  0  0  0  0  0  0  0
   55.4280   24.1130   46.6140 O   0  0  0  0  0  0  0  0  0  0  0  0
   55.0630   26.2360   45.8440 N   0  0  0  0  0  0  0  0  0  0  0  0
   55.9090   27.2710   45.7130 C   0  0  0  0  0  0  0  0  0  0  0  0
   55.5330   28.5060   45.2030 O   0  0  0  0  0  0  0  0  0  0  0  0
   63.9280   31.0860   50.9760 C   0  0  0  0  0  0  0  0  0  0  0  0
   63.3459   31.3601   51.8682 H   0  0  0  0  0  0  0  0  0  0  0  0
   64.6553   30.3878   51.4159 H   0  0  0  0  0  0  0  0  0  0  0  0
   64.4510   32.2890   50.2060 C   0  0  0  0  0  0  0  0  0  0  0  0
   64.1326   33.2678   50.5940 H   0  0  0  0  0  0  0  0  0  0  0  0
   65.5219   32.5227   50.1134 H   0  0  0  0  0  0  0  0  0  0  0  0
   62.0760   33.8270   48.9870 C   0  0  0  0  0  0  0  0  0  0  0  0
   62.4321   34.1323   49.9820 H   0  0  0  0  0  0  0  0  0  0  0  0
   61.0970   34.5850   48.3390 C   0  0  0  0  0  0  0  0  0  0  0  0
   60.6880   35.4800   48.8306 H   0  0  0  0  0  0  0  0  0  0  0  0
   57.7580   31.9770   45.9850 C   0  0  0  0  0  0  0  0  0  0  0  0
   57.7492   31.8381   47.0762 H   0  0  0  0  0  0  0  0  0  0  0  0
   57.5030   30.8980   45.1350 C   0  0  0  0  0  0  0  0  0  0  0  0
   57.2988   29.9028   45.5567 H   0  0  0  0  0  0  0  0  0  0  0  0
   57.5070   31.0810   43.7540 C   0  0  0  0  0  0  0  0  0  0  0  0
   57.2640   30.0390   42.9230 F   0  0  0  0  0  0  0  0  0  0  0  0
  1  2  1  0
  2  3  1  0
  3  4  1  0
  4  5  2  0
  5  6  1  0
  6  7  2  0
  6  8  1  0
  8  9  2  0
  9 10  1  0
  9 11  1  0
 11 12  1  0
 11 13  2  0
 13 14  1  0
 14 15  1  6
 14 16  1  0
 16 17  1  0
 17 18  2  0
 17 19  2  0
 17 20  1  0
 20 21  1  0
 21 22  1  0
 21 23  2  0
 23 24  1  0
 23 25  1  0
 25 26  1  0
 26 27  1  0
 27 28  1  0
 26 29  2  0
 29 30  1  0
 30 31  2  0
 30 32  1  0
 32 33  1  0
 33 34  1  0
 34 35  1  0
 35 36  2  0
 35 37  1  0
 37 38  1  0
 38 39  1  0
 16 40  1  0
 40 41  1  0
 40 42  1  0
 40 43  1  0
 43 44  1  0
 43 45  1  0
 13 46  1  0
 46 47  1  0
 46 48  2  0
 48 49  1  0
  4 50  1  0
 50 51  1  0
 50 52  2  0
 52 53  1  0
 52 54  1  0
 54 55  1  0
 54  2  2  0
 48  8  1  0
 43 14  1  0
 27 20  2  0
 38 33  2  0
 32 25  2  0
M  CHG  4   3  -1  34  -1  37  -1  39  -1
M  END
>  <UniqueID>  (28) 
28

>  <SMILES>  (28) 
O=C1N=c2cc(S(=O)(=O)N3CC[C@@H]3c3ccc(C(=O)/N=c4\ccc(F)c[n-]4)cc3)ccc2=C1c1[n-]c(=O)[n-]c1[O-]

>  <Energy>  (28) 
211.43558077803397

>  <Genealogy>  (28) 
O=C1N=c2cc(S(=O)(=O)N3CCC3c3ccc(C(=O)N=c4ccc(F)c[n-]4)cc3)ccc2=C1c1[n-]c(=O)[n-]c1[O-] (protonated)
O=C1N=c2cc(S(=O)(=O)N3CC[C@@H]3c3ccc(C(=O)N=c4ccc(F)c[n-]4)cc3)ccc2=C1c1[n-]c(=O)[n-]c1[O-] (chirality)
O=C1N=c2cc(S(=O)(=O)N3CC[C@@H]3c3ccc(C(=O)/N=c4\ccc(F)c[n-]4)cc3)ccc2=C1c1[n-]c(=O)[n-]c1[O-] (cis-trans isomerization)
O=C1N=c2cc(S(=O)(=O)N3CC[C@@H]3c3ccc(C(=O)/N=c4\ccc(F)c[n-]4)cc3)ccc2=C1c1[n-]c(=O)[n-]c1[O-] (3D coordinates assigned)
O=C1N=c2cc(S(=O)(=O)N3CC[C@@H]3c3ccc(C(=O)/N=c4\ccc(F)c[n-]4)cc3)ccc2=C1c1[n-]c(=O)[n-]c1[O-] (nonaromatic ring conformer: 211.43558077803397 kcal/mol)

>  <smiles>  (28) 
O=C1N=c2cc(S(=O)(=O)N3CCC3c3ccc(C(=O)N=c4ccc(F)c[nH]4)cc3)ccc2=C1c1[nH]c(=O)[nH]c1O

>  <score_type>  (28) 
oracle

>  <origin>  (28) 
adg

>  <m_score__min__energy>  (28) 
-19.539999999999999

>  <m_primary>  (28) 
energy

$$$$
28:0
     RDKit          3D

 47 50  0  0  0  0  0  0  0  0999 V2000
   56.0402   29.5318   44.6158 H   0  0  0  0  0  0  0  0  0  0  0  0
   56.2370   28.6520   45.2460 C   0  0  0  0  0  0  0  0  0  0  0  0
   55.4511   27.8975   45.3980 H   0  0  0  0  0  0  0  0  0  0  0  0
   57.4370   28.4990   45.8300 C   0  0  0  0  0  0  0  0  0  0  0  0
   57.8540   27.4430   46.6600 C   0  0  0  0  0  0  0  0  0  0  0  0
   57.2700   26.2650   46.9550 C   0  0  0  0  0  0  0  0  0  0  0  0
   57.1632   26.0099   48.0197 H   0  0  0  0  0  0  0  0  0  0  0  0
   56.7610   25.2870   45.9730 C   0  0  0  0  0  0  0  0  0  0  0  0
   55.4390   25.3460   45.5040 C   0  0  0  0  0  0  0  0  0  0  0  0
   54.5620   26.3150   45.9830 O   0  0  0  0  0  0  0  0  0  0  0  0
   55.0090   24.4550   44.5690 N   0  0  0  0  0  0  0  0  0  0  0  0
   54.0190   24.5010   44.2340 H   0  0  0  0  0  0  0  0  0  0  0  0
   55.8500   23.5160   44.0610 C   0  0  0  0  0  0  0  0  0  0  0  0
   55.4380   22.6970   43.1970 O   0  0  0  0  0  0  0  0  0  0  0  0
   57.1400   23.4610   44.4800 N   0  0  0  0  0  0  0  0  0  0  0  0
   57.6150   24.3250   45.4130 C   0  0  0  0  0  0  0  0  0  0  0  0
   58.8200   24.2480   45.7740 O   0  0  0  0  0  0  0  0  0  0  0  0
   59.0830   27.8180   47.1760 C   0  0  0  0  0  0  0  0  0  0  0  0
   59.6900   27.2525   47.8984 H   0  0  0  0  0  0  0  0  0  0  0  0
   59.4010   29.0350   46.6120 C   0  0  0  0  0  0  0  0  0  0  0  0
   60.6610   29.7980   46.8910 C   0  0  0  0  0  0  0  0  0  0  0  0
   60.8041   29.8846   47.9782 H   0  0  0  0  0  0  0  0  0  0  0  0
   61.5169   29.2663   46.4497 H   0  0  0  0  0  0  0  0  0  0  0  0
   60.5865   30.8029   46.4497 H   0  0  0  0  0  0  0  0  0  0  0  0
   58.4060   29.4510   45.7970 N   0  0  0  0  0  0  0  0  0  0  0  0
   58.3880   30.6870   45.0590 C   0  0  0  0  0  0  0  0  0  0  0  0
   57.8420   30.7270   43.7680 C   0  0  0  0  0  0  0  0  0  0  0  0
   57.4260   29.8126   43.3199 H   0  0  0  0  0  0  0  0  0  0  0  0
   57.8250   31.9240   43.0500 C   0  0  0  0  0  0  0  0  0  0  0  0
   57.3888   31.9525   42.0406 H   0  0  0  0  0  0  0  0  0  0  0  0
   58.3610   33.0860   43.6110 C   0  0  0  0  0  0  0  0  0  0  0  0
   58.3376   34.0290   43.0452 H   0  0  0  0  0  0  0  0  0  0  0  0
   58.9300   33.0540   44.8960 C   0  0  0  0  0  0  0  0  0  0  0  0
   59.4620   34.2020   45.5010 O   0  0  0  0  0  0  0  0  0  0  0  0
   60.3150   34.2130   46.6140 C   0  0  0  0  0  0  0  0  0  0  0  0
   61.6660   33.8300   46.5210 C   0  0  0  0  0  0  0  0  0  0  0  0
   62.0834   33.5234   45.5505 H   0  0  0  0  0  0  0  0  0  0  0  0
   62.4800   33.8380   47.6590 C   0  0  0  0  0  0  0  0  0  0  0  0
   63.5375   33.5457   47.5801 H   0  0  0  0  0  0  0  0  0  0  0  0
   61.9510   34.2170   48.8960 C   0  0  0  0  0  0  0  0  0  0  0  0
   62.5932   34.2296   49.7890 H   0  0  0  0  0  0  0  0  0  0  0  0
   60.6050   34.5800   48.9970 C   0  0  0  0  0  0  0  0  0  0  0  0
   60.1867   34.8724   49.9714 H   0  0  0  0  0  0  0  0  0  0  0  0
   59.7900   34.5720   47.8620 C   0  0  0  0  0  0  0  0  0  0  0  0
   58.7291   34.8495   47.9491 H   0  0  0  0  0  0  0  0  0  0  0  0
   58.9240   31.8550   45.6200 C   0  0  0  0  0  0  0  0  0  0  0  0
   59.3431   31.8294   46.6367 H   0  0  0  0  0  0  0  0  0  0  0  0
  1  2  1  0
  2  3  1  0
  2  4  2  0
  4  5  1  0
  5  6  2  0
  6  7  1  0
  6  8  1  0
  8  9  2  0
  9 10  1  0
  9 11  1  0
 11 12  1  0
 11 13  1  0
 13 14  2  0
 13 15  1  0
 15 16  1  0
 16 17  2  0
  5 18  1  0
 18 19  1  0
 18 20  2  0
 20 21  1  0
 21 22  1  0
 21 23  1  0
 21 24  1  0
 20 25  1  0
 25 26  1  0
 26 27  2  0
 27 28  1  0
 27 29  1  0
 29 30  1  0
 29 31  2  0
 31 32  1  0
 31 33  1  0
 33 34  1  0
 34 35  1  0
 35 36  2  0
 36 37  1  0
 36 38  1  0
 38 39  1  0
 38 40  2  0
 40 41  1  0
 40 42  1  0
 42 43  1  0
 42 44  2  0
 44 45  1  0
 33 46  2  0
 46 47  1  0
 25  4  1  0
 46 26  1  0
 16  8  1  0
 44 35  1  0
M  CHG  2  10  -1  15  -1
M  END
>  <UniqueID>  (29) 
29

>  <SMILES>  (29) 
C=c1/c(=C\c2c([O-])[nH]c(=O)[n-]c2=O)cc(C)n1-c1cccc(Oc2ccccc2)c1

>  <Energy>  (29) 
106.75322874742

>  <Genealogy>  (29) 
C=c1c(=Cc2c([O-])[nH]c(=O)[n-]c2=O)cc(C)n1-c1cccc(Oc2ccccc2)c1 (protonated)
C=c1/c(=C\c2c([O-])[nH]c(=O)[n-]c2=O)cc(C)n1-c1cccc(Oc2ccccc2)c1 (cis-trans isomerization)
C=c1/c(=C\c2c([O-])[nH]c(=O)[n-]c2=O)cc(C)n1-c1cccc(Oc2ccccc2)c1 (3D coordinates assigned)
C=c1/c(=C\c2c([O-])[nH]c(=O)[n-]c2=O)cc(C)n1-c1cccc(Oc2ccccc2)c1 (optimized conformer: 106.75322874742 kcal/mol)

>  <smiles>  (29) 
C=c1c(=Cc2c(O)[nH]c(=O)[nH]c2=O)cc(C)n1-c1cccc(Oc2ccccc2)c1

>  <score_type>  (29) 
oracle

>  <origin>  (29) 
adg

>  <m_score__min__energy>  (29) 
-14.949999999999999

>  <m_primary>  (29) 
energy

$$$$
29:0
     RDKit          3D

 57 60  0  0  0  0  0  0  0  0999 V2000
   50.9850   30.4400   48.0920 O   0  0  0  0  0  0  0  0  0  0  0  0
   51.3250   30.7630   49.2590 C   0  0  0  0  0  0  0  0  0  0  0  0
   50.9190   31.9040   49.8550 N   0  0  0  0  0  0  0  0  0  0  0  0
   51.4320   32.0080   51.1100 C   0  0  0  0  0  0  0  0  0  0  0  0
   51.1700   33.1050   51.9230 O   0  0  0  0  0  0  0  0  0  0  0  0
   52.2340   30.9420   51.5140 C   0  0  0  0  0  0  0  0  0  0  0  0
   52.9800   30.8310   52.8070 C   0  0  0  0  0  0  0  0  0  0  0  0
   54.4410   30.5940   52.5430 C   0  0  0  0  0  0  0  0  0  0  0  0
   54.9820   29.3040   52.6510 C   0  0  0  0  0  0  0  0  0  0  0  0
   56.3470   29.0920   52.4410 C   0  0  0  0  0  0  0  0  0  0  0  0
   57.1950   30.1610   52.1280 C   0  0  0  0  0  0  0  0  0  0  0  0
   58.5580   29.8880   51.9310 O   0  0  0  0  0  0  0  0  0  0  0  0
   59.4510   30.6530   51.1180 C   0  0  0  0  0  0  0  0  0  0  0  0
   59.0350   30.6060   49.6340 C   0  0  0  0  0  0  0  0  0  0  0  0
   59.3370   29.2260   48.9970 C   0  0  0  0  0  0  0  0  0  0  0  0
   60.6800   29.2270   48.2530 C   0  0  0  0  0  0  0  0  0  0  0  0
   60.7370   30.2410   47.1640 N   0  0  0  0  0  0  0  0  0  0  0  0
   60.5140   29.6420   45.8330 C   0  0  0  0  0  0  0  0  0  0  0  0
   59.3950   28.6350   45.8880 C   0  0  0  0  0  0  0  0  0  0  0  0
   58.0560   29.0430   45.7830 C   0  0  0  0  0  0  0  0  0  0  0  0
   57.0240   28.1030   45.8470 C   0  0  0  0  0  0  0  0  0  0  0  0
   57.3140   26.7360   45.9980 C   0  0  0  0  0  0  0  0  0  0  0  0
   56.1990   25.7260   46.1200 C   0  0  0  0  0  0  0  0  0  0  0  0
   54.9710   26.3260   45.8980 F   0  0  0  0  0  0  0  0  0  0  0  0
   56.3880   24.7260   45.1860 F   0  0  0  0  0  0  0  0  0  0  0  0
   56.1830   25.1660   47.3850 F   0  0  0  0  0  0  0  0  0  0  0  0
   58.6540   26.3330   46.1290 C   0  0  0  0  0  0  0  0  0  0  0  0
   59.6860   27.2740   46.0640 C   0  0  0  0  0  0  0  0  0  0  0  0
   59.8390   31.4040   47.3690 C   0  0  0  0  0  0  0  0  0  0  0  0
   59.7080   31.7580   48.8540 C   0  0  0  0  0  0  0  0  0  0  0  0
   56.6540   31.4590   52.0340 C   0  0  0  0  0  0  0  0  0  0  0  0
   55.2880   31.6710   52.2430 C   0  0  0  0  0  0  0  0  0  0  0  0
   52.3280   29.8390   50.2430 S   0  0  0  0  0  0  0  0  0  0  0  0
   50.5370   33.8350   51.6180 H   0  0  0  0  0  0  0  0  0  0  0  0
   52.8602   31.7640   53.3772 H   0  0  0  0  0  0  0  0  0  0  0  0
   52.5769   29.9852   53.3833 H   0  0  0  0  0  0  0  0  0  0  0  0
   54.3285   28.4556   52.9022 H   0  0  0  0  0  0  0  0  0  0  0  0
   56.7592   28.0754   52.5224 H   0  0  0  0  0  0  0  0  0  0  0  0
   59.4411   31.6984   51.4602 H   0  0  0  0  0  0  0  0  0  0  0  0
   60.4595   30.2236   51.2102 H   0  0  0  0  0  0  0  0  0  0  0  0
   57.9453   30.7448   49.5775 H   0  0  0  0  0  0  0  0  0  0  0  0
   59.3699   28.4659   49.7915 H   0  0  0  0  0  0  0  0  0  0  0  0
   58.5421   29.0018   48.2705 H   0  0  0  0  0  0  0  0  0  0  0  0
   61.4814   29.4418   48.9752 H   0  0  0  0  0  0  0  0  0  0  0  0
   60.8020   28.2369   47.7896 H   0  0  0  0  0  0  0  0  0  0  0  0
   60.2517   30.4359   45.1182 H   0  0  0  0  0  0  0  0  0  0  0  0
   61.4352   29.1329   45.5133 H   0  0  0  0  0  0  0  0  0  0  0  0
   57.8178   30.1086   45.6496 H   0  0  0  0  0  0  0  0  0  0  0  0
   55.9776   28.4351   45.7787 H   0  0  0  0  0  0  0  0  0  0  0  0
   58.8924   25.2703   46.2837 H   0  0  0  0  0  0  0  0  0  0  0  0
   60.7321   26.9453   46.1514 H   0  0  0  0  0  0  0  0  0  0  0  0
   60.2483   32.2710   46.8297 H   0  0  0  0  0  0  0  0  0  0  0  0
   58.8413   31.1408   46.9878 H   0  0  0  0  0  0  0  0  0  0  0  0
   60.7094   31.9397   49.2714 H   0  0  0  0  0  0  0  0  0  0  0  0
   59.0851   32.6597   48.9485 H   0  0  0  0  0  0  0  0  0  0  0  0
   57.3096   32.3093   51.7951 H   0  0  0  0  0  0  0  0  0  0  0  0
   54.8752   32.6881   52.1718 H   0  0  0  0  0  0  0  0  0  0  0  0
  1  2  2  0
  2  3  1  0
  3  4  1  0
  4  5  1  0
  4  6  2  0
  6  7  1  0
  7  8  1  0
  8  9  2  0
  9 10  1  0
 10 11  2  0
 11 12  1  0
 12 13  1  0
 13 14  1  0
 14 15  1  0
 15 16  1  0
 16 17  1  0
 17 18  1  0
 18 19  1  0
 19 20  2  0
 20 21  1  0
 21 22  2  0
 22 23  1  0
 23 24  1  0
 23 25  1  0
 23 26  1  0
 22 27  1  0
 27 28  2  0
 17 29  1  0
 29 30  1  0
 11 31  1  0
 31 32  2  0
  6 33  1  0
 33  2  1  0
 32  8  1  0
 30 14  1  0
 28 19  1  0
  5 34  1  0
  7 35  1  0
  7 36  1  0
  9 37  1  0
 10 38  1  0
 13 39  1  0
 13 40  1  0
 14 41  1  0
 15 42  1  0
 15 43  1  0
 16 44  1  0
 16 45  1  0
 18 46  1  0
 18 47  1  0
 20 48  1  0
 21 49  1  0
 27 50  1  0
 28 51  1  0
 29 52  1  0
 29 53  1  0
 30 54  1  0
 30 55  1  0
 31 56  1  0
 32 57  1  0
M  CHG  1   3  -1
M  END
>  <UniqueID>  (30) 
30

>  <SMILES>  (30) 
O=c1[n-]c(O)c(Cc2ccc(OCC3CCN(Cc4ccc(C(F)(F)F)cc4)CC3)cc2)s1

>  <Energy>  (30) 
96.12779867796246

>  <Genealogy>  (30) 
O=c1[n-]c(O)c(Cc2ccc(OCC3CCN(Cc4ccc(C(F)(F)F)cc4)CC3)cc2)s1 (protonated)
O=c1[n-]c(O)c(Cc2ccc(OCC3CCN(Cc4ccc(C(F)(F)F)cc4)CC3)cc2)s1 (3D coordinates assigned)
O=c1[n-]c(O)c(Cc2ccc(OCC3CCN(Cc4ccc(C(F)(F)F)cc4)CC3)cc2)s1 (nonaromatic ring conformer: 96.12779867796246 kcal/mol)

>  <smiles>  (30) 
O=c1[nH]c(O)c(Cc2ccc(OCC3CCN(Cc4ccc(C(F)(F)F)cc4)CC3)cc2)s1

>  <score_type>  (30) 
oracle

>  <origin>  (30) 
adg

>  <m_score__min__energy>  (30) 
-11.49

>  <m_primary>  (30) 
energy

$$$$
30:0
     RDKit          3D

 34 35  0  0  0  0  0  0  0  0999 V2000
   60.1640   33.2210   46.3850 C   0  0  0  0  0  0  0  0  0  0  0  0
   58.4830   33.3610   45.8230 S   0  0  0  0  0  0  0  0  0  0  0  0
   58.3460   34.5750   44.9470 O   0  0  0  0  0  0  0  0  0  0  0  0
   57.5680   33.5150   47.0060 O   0  0  0  0  0  0  0  0  0  0  0  0
   58.0480   31.9160   44.9170 C   0  0  0  0  0  0  0  0  0  0  0  0
   57.3500   32.0240   43.7070 C   0  0  0  0  0  0  0  0  0  0  0  0
   57.0130   30.8770   42.9850 C   0  0  0  0  0  0  0  0  0  0  0  0
   57.3770   29.6150   43.4640 C   0  0  0  0  0  0  0  0  0  0  0  0
   58.0880   29.4940   44.6680 C   0  0  0  0  0  0  0  0  0  0  0  0
   58.4710   28.1400   45.2000 C   0  0  0  0  0  0  0  0  0  0  0  0
   57.3280   27.2310   45.1420 N   0  0  0  0  0  0  0  0  0  0  0  0
   57.4710   25.8070   45.2730 C   0  0  0  0  0  0  0  0  0  0  0  0
   58.6220   25.2970   45.3460 O   0  0  0  0  0  0  0  0  0  0  0  0
   56.2860   24.9220   45.2850 C   0  0  0  0  0  0  0  0  0  0  0  0
   56.4340   23.5600   44.9760 C   0  0  0  0  0  0  0  0  0  0  0  0
   55.3250   22.7130   44.9720 C   0  0  0  0  0  0  0  0  0  0  0  0
   54.0690   23.2310   45.2910 C   0  0  0  0  0  0  0  0  0  0  0  0
   53.0560   22.4840   45.2890 O   0  0  0  0  0  0  0  0  0  0  0  0
   53.9380   24.5450   45.6110 N   0  0  0  0  0  0  0  0  0  0  0  0
   55.0010   25.3950   45.6230 C   0  0  0  0  0  0  0  0  0  0  0  0
   54.8010   26.7170   46.0030 O   0  0  0  0  0  0  0  0  0  0  0  0
   58.4210   30.6500   45.3920 C   0  0  0  0  0  0  0  0  0  0  0  0
   60.1840   33.2193   47.4848 H   0  0  0  0  0  0  0  0  0  0  0  0
   60.5995   32.2835   46.0089 H   0  0  0  0  0  0  0  0  0  0  0  0
   60.7486   34.0736   46.0089 H   0  0  0  0  0  0  0  0  0  0  0  0
   57.0665   33.0156   43.3244 H   0  0  0  0  0  0  0  0  0  0  0  0
   56.4604   30.9667   42.0381 H   0  0  0  0  0  0  0  0  0  0  0  0
   57.1051   28.7136   42.8952 H   0  0  0  0  0  0  0  0  0  0  0  0
   59.2917   27.7303   44.5929 H   0  0  0  0  0  0  0  0  0  0  0  0
   58.7927   28.2444   46.2467 H   0  0  0  0  0  0  0  0  0  0  0  0
   56.3910   27.6370   44.9240 H   0  0  0  0  0  0  0  0  0  0  0  0
   57.4296   23.1587   44.7358 H   0  0  0  0  0  0  0  0  0  0  0  0
   55.4396   21.6484   44.7201 H   0  0  0  0  0  0  0  0  0  0  0  0
   58.9774   30.5624   46.3368 H   0  0  0  0  0  0  0  0  0  0  0  0
  1  2  1  0
  2  3  2  0
  2  4  2  0
  2  5  1  0
  5  6  2  0
  6  7  1  0
  7  8  2  0
  8  9  1  0
  9 10  1  0
 10 11  1  0
 11 12  1  0
 12 13  2  0
 12 14  1  0
 14 15  1  0
 15 16  2  0
 16 17  1  0
 17 18  2  0
 17 19  1  0
 19 20  1  0
 20 21  1  0
  9 22  2  0
 22  5  1  0
 20 14  2  0
  1 23  1  0
  1 24  1  0
  1 25  1  0
  6 26  1  0
  7 27  1  0
  8 28  1  0
 10 29  1  0
 10 30  1  0
 11 31  1  0
 15 32  1  0
 16 33  1  0
 22 34  1  0
M  CHG  2  19  -1  21  -1
M  END
>  <UniqueID>  (31) 
31

>  <SMILES>  (31) 
CS(=O)(=O)c1cccc(CNC(=O)c2ccc(=O)[n-]c2[O-])c1

>  <Energy>  (31) 
34.65699628675859

>  <Genealogy>  (31) 
CS(=O)(=O)c1cccc(CNC(=O)c2ccc(=O)[n-]c2[O-])c1 (protonated)
CS(=O)(=O)c1cccc(CNC(=O)c2ccc(=O)[n-]c2[O-])c1 (3D coordinates assigned)
CS(=O)(=O)c1cccc(CNC(=O)c2ccc(=O)[n-]c2[O-])c1 (optimized conformer: 34.65699628675859 kcal/mol)

>  <smiles>  (31) 
CS(=O)(=O)c1cccc(CNC(=O)c2ccc(=O)[nH]c2O)c1

>  <score_type>  (31) 
oracle

>  <origin>  (31) 
adg

>  <m_score__min__energy>  (31) 
-13.52

>  <m_primary>  (31) 
energy

$$$$
31:0
     RDKit          3D

 55 59  0  0  0  0  0  0  0  0999 V2000
   59.2760   35.1700   47.0460 C   0  0  0  0  0  0  0  0  0  0  0  0
   58.3870   34.1570   46.4550 N   0  0  0  0  0  0  0  0  0  0  0  0
   57.5780   33.3730   47.4060 C   0  0  0  0  0  0  0  0  0  0  0  0
   58.3800   32.5890   48.4680 C   0  0  0  0  0  0  0  0  0  0  0  0
   59.8550   32.3540   48.2030 C   0  0  0  0  0  0  0  0  0  0  0  0
   60.7190   32.3690   49.3160 C   0  0  0  0  0  0  0  0  0  0  0  0
   62.0800   32.1010   49.1740 C   0  0  0  0  0  0  0  0  0  0  0  0
   62.9080   32.1220   50.2900 O   0  0  0  0  0  0  0  0  0  0  0  0
   62.6050   31.8090   47.9170 C   0  0  0  0  0  0  0  0  0  0  0  0
   63.9610   31.5430   47.7710 O   0  0  0  0  0  0  0  0  0  0  0  0
   61.7690   31.7850   46.8020 C   0  0  0  0  0  0  0  0  0  0  0  0
   60.3880   32.0480   46.9200 C   0  0  0  0  0  0  0  0  0  0  0  0
   59.5380   32.0100   45.6580 C   0  0  1  0  0  0  0  0  0  0  0  0
   58.5030   30.8940   45.6140 C   0  0  0  0  0  0  0  0  0  0  0  0
   58.5110   29.8030   46.5060 C   0  0  0  0  0  0  0  0  0  0  0  0
   57.5410   28.7880   46.4040 C   0  0  0  0  0  0  0  0  0  0  0  0
   57.4830   27.7090   47.3030 O   0  0  0  0  0  0  0  0  0  0  0  0
   58.1400   26.4520   47.1310 C   0  0  0  0  0  0  0  0  0  0  0  0
   57.4730   25.6210   46.0670 C   0  0  0  0  0  0  0  0  0  0  0  0
   58.0140   25.5530   44.7710 C   0  0  0  0  0  0  0  0  0  0  0  0
   57.4040   24.7600   43.7940 C   0  0  0  0  0  0  0  0  0  0  0  0
   56.2660   24.0150   44.1060 C   0  0  0  0  0  0  0  0  0  0  0  0
   55.7360   24.0570   45.3990 C   0  0  0  0  0  0  0  0  0  0  0  0
   56.3350   24.8570   46.3760 C   0  0  0  0  0  0  0  0  0  0  0  0
   56.5970   28.8430   45.3710 C   0  0  0  0  0  0  0  0  0  0  0  0
   55.6340   27.8480   45.2550 O   0  0  0  0  0  0  0  0  0  0  0  0
   56.6230   29.8880   44.4440 C   0  0  0  0  0  0  0  0  0  0  0  0
   57.5750   30.9100   44.5590 C   0  0  0  0  0  0  0  0  0  0  0  0
   57.6770   31.9900   43.5170 C   0  0  0  0  0  0  0  0  0  0  0  0
   57.8490   33.3610   44.1810 C   0  0  0  0  0  0  0  0  0  0  0  0
   58.9380   33.4130   45.2960 C   0  0  1  0  0  0  0  0  0  0  0  0
   59.2228   35.1094   48.1430 H   0  0  0  0  0  0  0  0  0  0  0  0
   60.3099   34.9865   46.7184 H   0  0  0  0  0  0  0  0  0  0  0  0
   58.9598   36.1713   46.7184 H   0  0  0  0  0  0  0  0  0  0  0  0
   56.9056   34.0666   47.9321 H   0  0  0  0  0  0  0  0  0  0  0  0
   57.0509   32.6174   46.8050 H   0  0  0  0  0  0  0  0  0  0  0  0
   58.3000   33.1424   49.4153 H   0  0  0  0  0  0  0  0  0  0  0  0
   57.9331   31.5839   48.4693 H   0  0  0  0  0  0  0  0  0  0  0  0
   60.3133   32.5958   50.3130 H   0  0  0  0  0  0  0  0  0  0  0  0
   62.1933   31.5571   45.8130 H   0  0  0  0  0  0  0  0  0  0  0  0
   60.2459   31.7477   44.8579 H   0  0  0  0  0  0  0  0  0  0  0  0
   59.2818   29.7441   47.2886 H   0  0  0  0  0  0  0  0  0  0  0  0
   59.1856   26.6321   46.8406 H   0  0  0  0  0  0  0  0  0  0  0  0
   58.0866   25.9020   48.0821 H   0  0  0  0  0  0  0  0  0  0  0  0
   58.9203   26.1256   44.5247 H   0  0  0  0  0  0  0  0  0  0  0  0
   57.8221   24.7234   42.7772 H   0  0  0  0  0  0  0  0  0  0  0  0
   55.7860   23.3948   43.3347 H   0  0  0  0  0  0  0  0  0  0  0  0
   54.8464   23.4597   45.6477 H   0  0  0  0  0  0  0  0  0  0  0  0
   55.9136   24.8887   47.3916 H   0  0  0  0  0  0  0  0  0  0  0  0
   55.8936   29.9086   43.6209 H   0  0  0  0  0  0  0  0  0  0  0  0
   58.5443   31.7891   42.8709 H   0  0  0  0  0  0  0  0  0  0  0  0
   56.7533   31.9970   42.9197 H   0  0  0  0  0  0  0  0  0  0  0  0
   58.1219   34.0875   43.4014 H   0  0  0  0  0  0  0  0  0  0  0  0
   56.8914   33.5912   44.6710 H   0  0  0  0  0  0  0  0  0  0  0  0
   59.8153   33.9574   44.9166 H   0  0  0  0  0  0  0  0  0  0  0  0
  1  2  1  0
  2  3  1  0
  3  4  1  0
  4  5  1  0
  5  6  2  0
  6  7  1  0
  7  8  1  0
  7  9  2  0
  9 10  1  0
  9 11  1  0
 11 12  2  0
 12 13  1  0
 13 14  1  0
 14 15  2  0
 15 16  1  0
 16 17  1  0
 17 18  1  0
 18 19  1  0
 19 20  2  0
 20 21  1  0
 21 22  2  0
 22 23  1  0
 23 24  2  0
 16 25  2  0
 25 26  1  0
 25 27  1  0
 27 28  2  0
 28 29  1  0
 29 30  1  0
 30 31  1  0
 31  2  1  0
 12  5  1  0
 31 13  1  0
 28 14  1  0
 24 19  1  0
  1 32  1  0
  1 33  1  0
  1 34  1  0
  3 35  1  0
  3 36  1  0
  4 37  1  0
  4 38  1  0
  6 39  1  0
 11 40  1  0
 13 41  1  6
 15 42  1  0
 18 43  1  0
 18 44  1  0
 20 45  1  0
 21 46  1  0
 22 47  1  0
 23 48  1  0
 24 49  1  0
 27 50  1  0
 29 51  1  0
 29 52  1  0
 30 53  1  0
 30 54  1  0
 31 55  1  6
M  CHG  3   8  -1  10  -1  26  -1
M  END
>  <UniqueID>  (32) 
32

>  <SMILES>  (32) 
CN1CCc2cc([O-])c([O-])cc2[C@H]2c3cc(OCc4ccccc4)c([O-])cc3CC[C@H]21

>  <Energy>  (32) 
86.9565518459799

>  <Genealogy>  (32) 
CN1CCc2cc([O-])c([O-])cc2C2c3cc(OCc4ccccc4)c([O-])cc3CCC21 (protonated)
CN1CCc2cc([O-])c([O-])cc2[C@H]2c3cc(OCc4ccccc4)c([O-])cc3CC[C@H]21 (chirality)
CN1CCc2cc([O-])c([O-])cc2[C@H]2c3cc(OCc4ccccc4)c([O-])cc3CC[C@H]21 (3D coordinates assigned)
CN1CCc2cc([O-])c([O-])cc2[C@H]2c3cc(OCc4ccccc4)c([O-])cc3CC[C@H]21 (nonaromatic ring conformer: 86.9565518459799 kcal/mol)

>  <smiles>  (32) 
CN1CCc2cc(O)c(O)cc2C2c3cc(OCc4ccccc4)c(O)cc3CCC21

>  <score_type>  (32) 
oracle

>  <origin>  (32) 
adg

>  <m_score__min__energy>  (32) 
-14.6

>  <m_primary>  (32) 
energy

$$$$
32:0
     RDKit          3D

 56 58  0  0  0  0  0  0  0  0999 V2000
   63.7420   33.5360   47.8290 C   0  0  0  0  0  0  0  0  0  0  0  0
   62.9020   34.1850   48.8780 C   0  0  0  0  0  0  0  0  0  0  0  0
   63.3530   34.3040   50.0490 O   0  0  0  0  0  0  0  0  0  0  0  0
   61.5580   34.5690   48.5670 N   0  0  0  0  0  0  0  0  0  0  0  0
   60.6850   33.9230   47.6290 C   0  0  0  0  0  0  0  0  0  0  0  0
   59.8240   34.7110   46.8580 C   0  0  0  0  0  0  0  0  0  0  0  0
   58.9460   34.1200   45.9450 C   0  0  0  0  0  0  0  0  0  0  0  0
   58.9140   32.7230   45.7950 C   0  0  0  0  0  0  0  0  0  0  0  0
   57.9980   32.0890   44.8880 N   0  0  0  0  0  0  0  0  0  0  0  0
   57.4500   30.7790   45.0940 C   0  0  0  0  0  0  0  0  0  0  0  0
   57.3870   30.2860   46.2520 O   0  0  0  0  0  0  0  0  0  0  0  0
   56.9450   29.9900   43.9260 C   0  0  0  0  0  0  0  0  0  0  0  0
   57.0690   28.5580   44.1980 N   0  0  0  0  0  0  0  0  0  0  0  0
   58.1530   27.9830   44.9570 C   0  0  0  0  0  0  0  0  0  0  0  0
   59.4840   28.3720   44.7090 C   0  0  0  0  0  0  0  0  0  0  0  0
   60.5340   27.8330   45.4550 C   0  0  0  0  0  0  0  0  0  0  0  0
   60.2730   26.8990   46.4580 C   0  0  0  0  0  0  0  0  0  0  0  0
   58.9600   26.5000   46.7160 C   0  0  0  0  0  0  0  0  0  0  0  0
   57.8940   27.0390   45.9790 C   0  0  0  0  0  0  0  0  0  0  0  0
   56.5270   26.5390   46.2340 C   0  0  0  0  0  0  0  0  0  0  0  0
   55.5550   27.0790   45.6430 O   0  0  0  0  0  0  0  0  0  0  0  0
   56.2740   25.4570   47.1370 N   0  0  0  0  0  0  0  0  0  0  0  0
   55.5420   24.2470   46.7830 C   0  0  0  0  0  0  0  0  0  0  0  0
   55.2650   24.2400   45.2810 C   0  0  0  0  0  0  0  0  0  0  0  0
   56.1540   23.2470   44.5810 C   0  0  0  0  0  0  0  0  0  0  0  0
   57.3160   22.7690   45.2110 C   0  0  0  0  0  0  0  0  0  0  0  0
   58.1580   21.8700   44.5460 C   0  0  0  0  0  0  0  0  0  0  0  0
   57.8480   21.4500   43.2480 C   0  0  0  0  0  0  0  0  0  0  0  0
   56.7000   21.9320   42.6110 C   0  0  0  0  0  0  0  0  0  0  0  0
   55.8580   22.8320   43.2710 C   0  0  0  0  0  0  0  0  0  0  0  0
   59.7420   31.9300   46.6030 C   0  0  0  0  0  0  0  0  0  0  0  0
   60.6240   32.5220   47.5110 C   0  0  0  0  0  0  0  0  0  0  0  0
   64.5252   32.9309   48.3089 H   0  0  0  0  0  0  0  0  0  0  0  0
   63.1108   32.8887   47.2024 H   0  0  0  0  0  0  0  0  0  0  0  0
   64.2091   34.3101   47.2024 H   0  0  0  0  0  0  0  0  0  0  0  0
   59.8380   35.8051   46.9712 H   0  0  0  0  0  0  0  0  0  0  0  0
   58.2772   34.7511   45.3413 H   0  0  0  0  0  0  0  0  0  0  0  0
   57.7040   32.6120   44.0320 H   0  0  0  0  0  0  0  0  0  0  0  0
   55.8877   30.2370   43.7494 H   0  0  0  0  0  0  0  0  0  0  0  0
   57.5407   30.2413   43.0360 H   0  0  0  0  0  0  0  0  0  0  0  0
   56.3760   27.9260   43.7390 H   0  0  0  0  0  0  0  0  0  0  0  0
   59.6983   29.1077   43.9198 H   0  0  0  0  0  0  0  0  0  0  0  0
   61.5689   28.1453   45.2515 H   0  0  0  0  0  0  0  0  0  0  0  0
   61.1016   26.4769   47.0456 H   0  0  0  0  0  0  0  0  0  0  0  0
   58.7596   25.7577   47.5027 H   0  0  0  0  0  0  0  0  0  0  0  0
   56.1421   23.3644   47.0492 H   0  0  0  0  0  0  0  0  0  0  0  0
   54.5889   24.2216   47.3315 H   0  0  0  0  0  0  0  0  0  0  0  0
   54.2133   23.9673   45.1090 H   0  0  0  0  0  0  0  0  0  0  0  0
   55.4696   25.2432   44.8788 H   0  0  0  0  0  0  0  0  0  0  0  0
   57.5644   23.1023   46.2294 H   0  0  0  0  0  0  0  0  0  0  0  0
   59.0637   21.4937   45.0441 H   0  0  0  0  0  0  0  0  0  0  0  0
   58.5078   20.7400   42.7279 H   0  0  0  0  0  0  0  0  0  0  0  0
   56.4593   21.6026   41.5895 H   0  0  0  0  0  0  0  0  0  0  0  0
   54.9610   23.2166   42.7635 H   0  0  0  0  0  0  0  0  0  0  0  0
   59.6968   30.8340   46.5213 H   0  0  0  0  0  0  0  0  0  0  0  0
   61.2729   31.8906   48.1357 H   0  0  0  0  0  0  0  0  0  0  0  0
  1  2  1  0
  2  3  2  0
  2  4  1  0
  4  5  1  0
  5  6  2  0
  6  7  1  0
  7  8  2  0
  8  9  1  0
  9 10  1  0
 10 11  2  0
 10 12  1  0
 12 13  1  0
 13 14  1  0
 14 15  2  0
 15 16  1  0
 16 17  2  0
 17 18  1  0
 18 19  2  0
 19 20  1  0
 20 21  2  0
 20 22  1  0
 22 23  1  0
 23 24  1  0
 24 25  1  0
 25 26  2  0
 26 27  1  0
 27 28  2  0
 28 29  1  0
 29 30  2  0
  8 31  1  0
 31 32  2  0
 32  5  1  0
 19 14  1  0
 30 25  1  0
  1 33  1  0
  1 34  1  0
  1 35  1  0
  6 36  1  0
  7 37  1  0
  9 38  1  0
 12 39  1  0
 12 40  1  0
 13 41  1  0
 15 42  1  0
 16 43  1  0
 17 44  1  0
 18 45  1  0
 23 46  1  0
 23 47  1  0
 24 48  1  0
 24 49  1  0
 26 50  1  0
 27 51  1  0
 28 52  1  0
 29 53  1  0
 30 54  1  0
 31 55  1  0
 32 56  1  0
M  CHG  2   4  -1  22  -1
M  END
>  <UniqueID>  (33) 
33

>  <SMILES>  (33) 
CC(=O)[N-]c1ccc(NC(=O)CNc2ccccc2C(=O)[N-]CCc2ccccc2)cc1

>  <Energy>  (33) 
63.854702045029626

>  <Genealogy>  (33) 
CC(=O)[N-]c1ccc(NC(=O)CNc2ccccc2C(=O)[N-]CCc2ccccc2)cc1 (protonated)
CC(=O)[N-]c1ccc(NC(=O)CNc2ccccc2C(=O)[N-]CCc2ccccc2)cc1 (3D coordinates assigned)
CC(=O)[N-]c1ccc(NC(=O)CNc2ccccc2C(=O)[N-]CCc2ccccc2)cc1 (optimized conformer: 63.854702045029626 kcal/mol)

>  <smiles>  (33) 
CC(=O)Nc1ccc(NC(=O)CNc2ccccc2C(=O)NCCc2ccccc2)cc1

>  <score_type>  (33) 
oracle

>  <origin>  (33) 
adg

>  <m_score__min__energy>  (33) 
-11.49

>  <m_primary>  (33) 
energy

$$$$
33:0
     RDKit          3D

 50 53  0  0  0  0  0  0  0  0999 V2000
   65.8720   33.7402   48.9699 H   0  0  0  0  0  0  0  0  0  0  0  0
   65.0820   33.0530   49.3070 C   0  0  0  0  0  0  0  0  0  0  0  0
   63.8800   32.9790   48.5980 C   0  0  0  0  0  0  0  0  0  0  0  0
   63.7266   33.6156   47.7141 H   0  0  0  0  0  0  0  0  0  0  0  0
   62.8670   32.0970   49.0070 C   0  0  0  0  0  0  0  0  0  0  0  0
   61.6230   32.0440   48.2830 N   0  0  0  0  0  0  0  0  0  0  0  0
   61.0970   30.8420   48.0320 N   0  0  0  0  0  0  0  0  0  0  0  0
   59.9300   30.6670   47.3610 C   0  0  0  0  0  0  0  0  0  0  0  0
   59.4360   29.2870   47.2000 C   0  0  0  0  0  0  0  0  0  0  0  0
   58.5550   28.8550   47.9910 O   0  0  0  0  0  0  0  0  0  0  0  0
   59.8860   28.4690   46.1120 N   0  0  0  0  0  0  0  0  0  0  0  0
   60.4590   28.9140   45.3590 H   0  0  0  0  0  0  0  0  0  0  0  0
   59.4570   27.0750   45.9770 C   0  0  0  0  0  0  0  0  0  0  0  0
   60.0957   26.5761   45.2333 H   0  0  0  0  0  0  0  0  0  0  0  0
   59.5464   26.5924   46.9614 H   0  0  0  0  0  0  0  0  0  0  0  0
   58.0190   26.9730   45.5330 C   0  0  0  0  0  0  0  0  0  0  0  0
   57.6310   25.9380   44.9280 O   0  0  0  0  0  0  0  0  0  0  0  0
   57.0590   28.0110   45.7900 N   0  0  0  0  0  0  0  0  0  0  0  0
   56.7020   28.9660   44.9810 C   0  0  0  0  0  0  0  0  0  0  0  0
   55.5040   29.5840   44.9900 N   0  0  0  0  0  0  0  0  0  0  0  0
   55.5300   30.4450   44.0140 O   0  0  0  0  0  0  0  0  0  0  0  0
   56.6770   30.4010   43.3740 C   0  0  0  0  0  0  0  0  0  0  0  0
   57.0350   31.2730   42.2190 C   0  0  0  0  0  0  0  0  0  0  0  0
   57.4282   32.2307   42.5907 H   0  0  0  0  0  0  0  0  0  0  0  0
   57.8013   30.7747   41.6071 H   0  0  0  0  0  0  0  0  0  0  0  0
   56.1396   31.4569   41.6071 H   0  0  0  0  0  0  0  0  0  0  0  0
   57.4890   29.4520   43.9610 C   0  0  0  0  0  0  0  0  0  0  0  0
   58.5116   29.1569   43.6829 H   0  0  0  0  0  0  0  0  0  0  0  0
   59.2500   31.8000   46.8650 C   0  0  0  0  0  0  0  0  0  0  0  0
   58.0900   31.7010   46.0660 C   0  0  0  0  0  0  0  0  0  0  0  0
   57.6949   30.7101   45.7978 H   0  0  0  0  0  0  0  0  0  0  0  0
   57.4410   32.8510   45.6140 C   0  0  0  0  0  0  0  0  0  0  0  0
   56.5315   32.7611   45.0019 H   0  0  0  0  0  0  0  0  0  0  0  0
   57.9390   34.1120   45.9340 C   0  0  0  0  0  0  0  0  0  0  0  0
   57.4146   35.0145   45.5868 H   0  0  0  0  0  0  0  0  0  0  0  0
   59.1030   34.2310   46.6950 C   0  0  0  0  0  0  0  0  0  0  0  0
   59.4969   35.2289   46.9381 H   0  0  0  0  0  0  0  0  0  0  0  0
   59.7770   33.0820   47.1540 C   0  0  0  0  0  0  0  0  0  0  0  0
   60.9720   33.1820   47.8870 C   0  0  0  0  0  0  0  0  0  0  0  0
   61.4370   34.3190   48.1880 O   0  0  0  0  0  0  0  0  0  0  0  0
   63.0670   31.3120   50.1550 C   0  0  0  0  0  0  0  0  0  0  0  0
   62.2723   30.6331   50.4978 H   0  0  0  0  0  0  0  0  0  0  0  0
   64.2700   31.3880   50.8650 C   0  0  0  0  0  0  0  0  0  0  0  0
   64.4195   30.7629   51.7577 H   0  0  0  0  0  0  0  0  0  0  0  0
   65.2900   32.2610   50.4420 C   0  0  0  0  0  0  0  0  0  0  0  0
   66.5140   32.3720   51.1170 O   0  0  0  0  0  0  0  0  0  0  0  0
   67.5490   33.2810   50.7600 C   0  0  0  0  0  0  0  0  0  0  0  0
   68.0112   33.6869   51.6719 H   0  0  0  0  0  0  0  0  0  0  0  0
   68.3106   32.7545   50.1660 H   0  0  0  0  0  0  0  0  0  0  0  0
   67.1253   34.1042   50.1660 H   0  0  0  0  0  0  0  0  0  0  0  0
  1  2  1  0
  2  3  2  0
  3  4  1  0
  3  5  1  0
  5  6  1  0
  6  7  1  0
  7  8  2  0
  8  9  1  0
  9 10  2  0
  9 11  1  0
 11 12  1  0
 11 13  1  0
 13 14  1  0
 13 15  1  0
 13 16  1  0
 16 17  2  0
 16 18  1  0
 18 19  2  0
 19 20  1  0
 20 21  1  0
 21 22  1  0
 22 23  1  0
 23 24  1  0
 23 25  1  0
 23 26  1  0
 22 27  2  0
 27 28  1  0
  8 29  1  0
 29 30  2  0
 30 31  1  0
 30 32  1  0
 32 33  1  0
 32 34  2  0
 34 35  1  0
 34 36  1  0
 36 37  1  0
 36 38  2  0
 38 39  1  0
 39 40  2  0
  5 41  2  0
 41 42  1  0
 41 43  1  0
 43 44  1  0
 43 45  2  0
 45 46  1  0
 46 47  1  0
 47 48  1  0
 47 49  1  0
 47 50  1  0
 45  2  1  0
 39  6  1  0
 27 19  1  0
 38 29  1  0
M  CHG  1  20  -1
M  END
>  <UniqueID>  (34) 
34

>  <SMILES>  (34) 
COc1ccc(-n2nc(C(=O)NCC(=O)/N=c3/cc(C)o[n-]3)c3ccccc3c2=O)cc1

>  <Energy>  (34) 
105.12981695241439

>  <Genealogy>  (34) 
COc1ccc(-n2nc(C(=O)NCC(=O)N=c3cc(C)o[n-]3)c3ccccc3c2=O)cc1 (protonated)
COc1ccc(-n2nc(C(=O)NCC(=O)/N=c3/cc(C)o[n-]3)c3ccccc3c2=O)cc1 (cis-trans isomerization)
COc1ccc(-n2nc(C(=O)NCC(=O)/N=c3/cc(C)o[n-]3)c3ccccc3c2=O)cc1 (3D coordinates assigned)
COc1ccc(-n2nc(C(=O)NCC(=O)/N=c3/cc(C)o[n-]3)c3ccccc3c2=O)cc1 (optimized conformer: 105.12981695241439 kcal/mol)

>  <smiles>  (34) 
COc1ccc(-n2nc(C(=O)NCC(=O)N=c3cc(C)o[nH]3)c3ccccc3c2=O)cc1

>  <score_type>  (34) 
oracle

>  <origin>  (34) 
adg

>  <m_score__min__energy>  (34) 
-10.970000000000001

>  <m_primary>  (34) 
energy

$$$$
34:0
     RDKit          3D

 36 37  0  0  0  0  0  0  0  0999 V2000
   57.0200   31.2450   41.9200 O   0  0  0  0  0  0  0  0  0  0  0  0
   56.8800   30.9130   43.1280 C   0  0  0  0  0  0  0  0  0  0  0  0
   56.0480   29.7130   43.4660 C   0  0  0  0  0  0  0  0  0  0  0  0
   56.0110   29.5210   44.8770 O   0  0  0  0  0  0  0  0  0  0  0  0
   57.0070   28.8390   45.5880 C   0  0  0  0  0  0  0  0  0  0  0  0
   58.0890   29.4160   45.8850 O   0  0  0  0  0  0  0  0  0  0  0  0
   56.7980   27.4380   45.9910 C   0  0  0  0  0  0  0  0  0  0  0  0
   57.8720   26.6220   46.3670 C   0  0  0  0  0  0  0  0  0  0  0  0
   57.6270   25.3010   46.7380 C   0  0  0  0  0  0  0  0  0  0  0  0
   56.3160   24.8240   46.7250 C   0  0  0  0  0  0  0  0  0  0  0  0
   56.0670   23.6360   47.0560 O   0  0  0  0  0  0  0  0  0  0  0  0
   55.3060   25.6520   46.3530 N   0  0  0  0  0  0  0  0  0  0  0  0
   55.5400   26.9170   45.9970 N   0  0  0  0  0  0  0  0  0  0  0  0
   57.4770   31.6970   44.1690 N   0  0  0  0  0  0  0  0  0  0  0  0
   58.1610   32.9610   43.9060 C   0  0  0  0  0  0  0  0  0  0  0  0
   57.6630   34.0450   44.8660 C   0  0  0  0  0  0  0  0  0  0  0  0
   58.3280   33.9100   46.2100 C   0  0  0  0  0  0  0  0  0  0  0  0
   57.9060   32.9210   47.1140 C   0  0  0  0  0  0  0  0  0  0  0  0
   58.5460   32.7760   48.3490 C   0  0  0  0  0  0  0  0  0  0  0  0
   59.6170   33.6100   48.6840 C   0  0  0  0  0  0  0  0  0  0  0  0
   60.0510   34.5880   47.7850 C   0  0  0  0  0  0  0  0  0  0  0  0
   59.4130   34.7340   46.5490 C   0  0  0  0  0  0  0  0  0  0  0  0
   55.0243   29.8640   43.0930 H   0  0  0  0  0  0  0  0  0  0  0  0
   56.4924   28.8241   42.9946 H   0  0  0  0  0  0  0  0  0  0  0  0
   58.8978   27.0192   46.3696 H   0  0  0  0  0  0  0  0  0  0  0  0
   58.4564   24.6432   47.0371 H   0  0  0  0  0  0  0  0  0  0  0  0
   57.4400   31.3490   45.1540 H   0  0  0  0  0  0  0  0  0  0  0  0
   59.2435   32.8233   44.0443 H   0  0  0  0  0  0  0  0  0  0  0  0
   57.9497   33.2738   42.8728 H   0  0  0  0  0  0  0  0  0  0  0  0
   57.8955   35.0345   44.4456 H   0  0  0  0  0  0  0  0  0  0  0  0
   56.5765   33.9317   44.9954 H   0  0  0  0  0  0  0  0  0  0  0  0
   57.0690   32.2581   46.8495 H   0  0  0  0  0  0  0  0  0  0  0  0
   58.2067   32.0056   49.0570 H   0  0  0  0  0  0  0  0  0  0  0  0
   60.1186   33.4962   49.6563 H   0  0  0  0  0  0  0  0  0  0  0  0
   60.8943   35.2429   48.0495 H   0  0  0  0  0  0  0  0  0  0  0  0
   59.7629   35.4980   45.8392 H   0  0  0  0  0  0  0  0  0  0  0  0
  1  2  2  0
  2  3  1  0
  3  4  1  0
  4  5  1  0
  5  6  2  0
  5  7  1  0
  7  8  1  0
  8  9  2  0
  9 10  1  0
 10 11  2  0
 10 12  1  0
 12 13  1  0
  2 14  1  0
 14 15  1  0
 15 16  1  0
 16 17  1  0
 17 18  2  0
 18 19  1  0
 19 20  2  0
 20 21  1  0
 21 22  2  0
 13  7  2  0
 22 17  1  0
  3 23  1  0
  3 24  1  0
  8 25  1  0
  9 26  1  0
 14 27  1  0
 15 28  1  0
 15 29  1  0
 16 30  1  0
 16 31  1  0
 18 32  1  0
 19 33  1  0
 20 34  1  0
 21 35  1  0
 22 36  1  0
M  CHG  1  12  -1
M  END
>  <UniqueID>  (35) 
35

>  <SMILES>  (35) 
O=C(COC(=O)c1ccc(=O)[n-]n1)NCCc1ccccc1

>  <Energy>  (35) 
29.548936813785335

>  <Genealogy>  (35) 
O=C(COC(=O)c1ccc(=O)[n-]n1)NCCc1ccccc1 (protonated)
O=C(COC(=O)c1ccc(=O)[n-]n1)NCCc1ccccc1 (3D coordinates assigned)
O=C(COC(=O)c1ccc(=O)[n-]n1)NCCc1ccccc1 (optimized conformer: 29.548936813785335 kcal/mol)

>  <smiles>  (35) 
O=C(COC(=O)c1ccc(=O)[nH]n1)NCCc1ccccc1

>  <score_type>  (35) 
oracle

>  <origin>  (35) 
adg

>  <m_score__min__energy>  (35) 
-10.699999999999999

>  <m_primary>  (35) 
energy

$$$$
35:0
     RDKit          3D

 65 68  0  0  0  0  0  0  0  0999 V2000
   57.3940   32.9830   44.6370 C   0  0  0  0  0  0  0  0  0  0  0  0
   58.1350   32.7050   43.3390 C   0  0  0  0  0  0  0  0  0  0  0  0
   57.4020   31.7200   42.5520 N   0  0  0  0  0  0  0  0  0  0  0  0
   56.9800   30.4450   43.0480 C   0  0  0  0  0  0  0  0  0  0  0  0
   56.1950   29.7520   42.3480 O   0  0  0  0  0  0  0  0  0  0  0  0
   57.4570   29.9290   44.3000 N   0  0  0  0  0  0  0  0  0  0  0  0
   58.8820   30.0810   44.6270 C   0  0  0  0  0  0  0  0  0  0  0  0
   59.1770   29.6120   46.0560 C   0  0  0  0  0  0  0  0  0  0  0  0
   58.5340   28.2700   46.3040 C   0  0  0  0  0  0  0  0  0  0  0  0
   59.3430   27.2430   46.9700 C   0  0  0  0  0  0  0  0  0  0  0  0
   59.9530   26.3900   46.2700 O   0  0  0  0  0  0  0  0  0  0  0  0
   59.5280   27.3010   48.3890 N   0  0  0  0  0  0  0  0  0  0  0  0
   59.6620   28.4920   49.1760 C   0  0  0  0  0  0  0  0  0  0  0  0
   58.6180   29.4250   49.2980 C   0  0  0  0  0  0  0  0  0  0  0  0
   58.7750   30.5620   50.0940 C   0  0  0  0  0  0  0  0  0  0  0  0
   59.9850   30.7910   50.7780 C   0  0  0  0  0  0  0  0  0  0  0  0
   60.1830   31.8900   51.6300 O   0  0  0  0  0  0  0  0  0  0  0  0
   60.4220   33.2350   51.2150 C   0  0  0  0  0  0  0  0  0  0  0  0
   61.4550   33.2670   50.1100 C   0  0  0  0  0  0  0  0  0  0  0  0
   62.7960   32.9990   50.4250 C   0  0  0  0  0  0  0  0  0  0  0  0
   63.7700   33.0430   49.4260 C   0  0  0  0  0  0  0  0  0  0  0  0
   65.2030   32.7650   49.7550 C   0  0  0  0  0  0  0  0  0  0  0  0
   63.4110   33.3140   48.1460 N   0  0  0  0  0  0  0  0  0  0  0  0
   62.1240   33.5590   47.7850 C   0  0  0  0  0  0  0  0  0  0  0  0
   61.1060   33.5770   48.7720 C   0  0  0  0  0  0  0  0  0  0  0  0
   59.6540   33.8040   48.3830 C   0  0  0  0  0  0  0  0  0  0  0  0
   59.4890   34.4280   46.9940 C   0  0  0  0  0  0  0  0  0  0  0  0
   60.3730   33.7150   45.9760 C   0  0  0  0  0  0  0  0  0  0  0  0
   61.8460   33.8970   46.3440 C   0  0  0  0  0  0  0  0  0  0  0  0
   61.0360   29.8790   50.6200 C   0  0  0  0  0  0  0  0  0  0  0  0
   60.8810   28.7450   49.8140 C   0  0  0  0  0  0  0  0  0  0  0  0
   57.2650   28.0560   45.8780 C   0  0  0  0  0  0  0  0  0  0  0  0
   56.5490   26.7590   46.0410 C   0  0  0  0  0  0  0  0  0  0  0  0
   57.1770   25.6730   46.1840 O   0  0  0  0  0  0  0  0  0  0  0  0
   55.1600   26.7250   46.0360 O   0  0  0  0  0  0  0  0  0  0  0  0
   56.5450   29.2070   45.2030 C   0  0  0  0  0  0  0  0  0  0  0  0
   58.0443   32.7390   45.4900 H   0  0  0  0  0  0  0  0  0  0  0  0
   57.1162   34.0465   44.6801 H   0  0  0  0  0  0  0  0  0  0  0  0
   56.4853   32.3647   44.6801 H   0  0  0  0  0  0  0  0  0  0  0  0
   58.2256   33.6380   42.7634 H   0  0  0  0  0  0  0  0  0  0  0  0
   59.1364   32.3127   43.5697 H   0  0  0  0  0  0  0  0  0  0  0  0
   59.4775   29.4815   43.9227 H   0  0  0  0  0  0  0  0  0  0  0  0
   59.1450   31.1463   44.5493 H   0  0  0  0  0  0  0  0  0  0  0  0
   60.2649   29.5251   46.1932 H   0  0  0  0  0  0  0  0  0  0  0  0
   58.7675   30.3445   46.7672 H   0  0  0  0  0  0  0  0  0  0  0  0
   57.6712   29.2588   48.7632 H   0  0  0  0  0  0  0  0  0  0  0  0
   57.9492   31.2826   50.1873 H   0  0  0  0  0  0  0  0  0  0  0  0
   59.4828   33.6736   50.8468 H   0  0  0  0  0  0  0  0  0  0  0  0
   60.7967   33.8132   52.0725 H   0  0  0  0  0  0  0  0  0  0  0  0
   63.0797   32.7542   51.4592 H   0  0  0  0  0  0  0  0  0  0  0  0
   65.3303   32.7403   50.8473 H   0  0  0  0  0  0  0  0  0  0  0  0
   65.4950   31.7935   49.3298 H   0  0  0  0  0  0  0  0  0  0  0  0
   65.8371   33.5569   49.3298 H   0  0  0  0  0  0  0  0  0  0  0  0
   59.1340   32.8348   48.3943 H   0  0  0  0  0  0  0  0  0  0  0  0
   59.2288   34.5112   49.1103 H   0  0  0  0  0  0  0  0  0  0  0  0
   58.4376   34.3428   46.6821 H   0  0  0  0  0  0  0  0  0  0  0  0
   59.7872   35.4857   47.0430 H   0  0  0  0  0  0  0  0  0  0  0  0
   60.1290   32.6424   45.9696 H   0  0  0  0  0  0  0  0  0  0  0  0
   60.1942   34.1443   44.9791 H   0  0  0  0  0  0  0  0  0  0  0  0
   62.4537   33.2407   45.7037 H   0  0  0  0  0  0  0  0  0  0  0  0
   62.1009   34.9563   46.1929 H   0  0  0  0  0  0  0  0  0  0  0  0
   61.9923   30.0554   51.1341 H   0  0  0  0  0  0  0  0  0  0  0  0
   61.7224   28.0490   49.6816 H   0  0  0  0  0  0  0  0  0  0  0  0
   55.6978   28.8131   44.6224 H   0  0  0  0  0  0  0  0  0  0  0  0
   56.1853   29.9028   45.9753 H   0  0  0  0  0  0  0  0  0  0  0  0
  1  2  1  0
  2  3  1  0
  3  4  1  0
  4  5  2  0
  4  6  1  0
  6  7  1  0
  7  8  1  0
  8  9  1  0
  9 10  1  0
 10 11  2  0
 10 12  1  0
 12 13  1  0
 13 14  2  0
 14 15  1  0
 15 16  2  0
 16 17  1  0
 17 18  1  0
 18 19  1  0
 19 20  2  0
 20 21  1  0
 21 22  1  0
 21 23  2  0
 23 24  1  0
 24 25  2  0
 25 26  1  0
 26 27  1  0
 27 28  1  0
 28 29  1  0
 16 30  1  0
 30 31  2  0
  9 32  2  0
 32 33  1  0
 33 34  2  0
 33 35  1  0
 32 36  1  0
 36  6  1  0
 31 13  1  0
 25 19  1  0
 29 24  1  0
  1 37  1  0
  1 38  1  0
  1 39  1  0
  2 40  1  0
  2 41  1  0
  7 42  1  0
  7 43  1  0
  8 44  1  0
  8 45  1  0
 14 46  1  0
 15 47  1  0
 18 48  1  0
 18 49  1  0
 20 50  1  0
 22 51  1  0
 22 52  1  0
 22 53  1  0
 26 54  1  0
 26 55  1  0
 27 56  1  0
 27 57  1  0
 28 58  1  0
 28 59  1  0
 29 60  1  0
 29 61  1  0
 30 62  1  0
 31 63  1  0
 36 64  1  0
 36 65  1  0
M  CHG  3   3  -1  12  -1  35  -1
M  END
>  <UniqueID>  (36) 
36

>  <SMILES>  (36) 
CC[N-]C(=O)N1CCC(C(=O)[N-]c2ccc(OCc3cc(C)nc4c3CCCC4)cc2)=C(C(=O)[O-])C1

>  <Energy>  (36) 
83.20942051736954

>  <Genealogy>  (36) 
CC[N-]C(=O)N1CCC(C(=O)[N-]c2ccc(OCc3cc(C)nc4c3CCCC4)cc2)=C(C(=O)[O-])C1 (protonated)
CC[N-]C(=O)N1CCC(C(=O)[N-]c2ccc(OCc3cc(C)nc4c3CCCC4)cc2)=C(C(=O)[O-])C1 (3D coordinates assigned)
CC[N-]C(=O)N1CCC(C(=O)[N-]c2ccc(OCc3cc(C)nc4c3CCCC4)cc2)=C(C(=O)[O-])C1 (nonaromatic ring conformer: 83.20942051736954 kcal/mol)

>  <smiles>  (36) 
CCNC(=O)N1CCC(C(=O)Nc2ccc(OCc3cc(C)nc4c3CCCC4)cc2)=C(C(=O)O)C1

>  <score_type>  (36) 
oracle

>  <origin>  (36) 
adg

>  <m_score__min__energy>  (36) 
-14.609999999999999

>  <m_primary>  (36) 
energy

$$$$
36:0
     RDKit          3D

 48 50  0  0  0  0  0  0  0  0999 V2000
   58.3477   28.3176   48.9522 H   0  0  0  0  0  0  0  0  0  0  0  0
   58.9080   29.2140   48.6480 C   0  0  0  0  0  0  0  0  0  0  0  0
   59.2770   29.3790   47.2240 C   0  0  0  0  0  0  0  0  0  0  0  0
   60.4900   29.4030   46.8840 O   0  0  0  0  0  0  0  0  0  0  0  0
   58.2790   29.5120   46.2040 N   0  0  0  0  0  0  0  0  0  0  0  0
   57.9270   28.4690   45.2470 C   0  0  0  0  0  0  0  0  0  0  0  0
   58.1390   28.8274   44.2289 H   0  0  0  0  0  0  0  0  0  0  0  0
   58.5228   27.5714   45.4691 H   0  0  0  0  0  0  0  0  0  0  0  0
   56.4680   28.1170   45.3520 C   0  0  0  0  0  0  0  0  0  0  0  0
   56.1160   27.0240   45.8700 O   0  0  0  0  0  0  0  0  0  0  0  0
   55.4580   29.0080   44.8700 N   0  0  0  0  0  0  0  0  0  0  0  0
   55.5350   29.7130   43.5970 C   0  0  0  0  0  0  0  0  0  0  0  0
   55.8575   29.0156   42.8098 H   0  0  0  0  0  0  0  0  0  0  0  0
   54.5456   30.1200   43.3410 H   0  0  0  0  0  0  0  0  0  0  0  0
   56.5200   30.8280   43.7090 C   0  0  0  0  0  0  0  0  0  0  0  0
   56.7160   31.5280   44.8030 O   0  0  0  0  0  0  0  0  0  0  0  0
   57.6660   32.4010   44.5620 C   0  0  0  0  0  0  0  0  0  0  0  0
   58.2650   33.5450   45.7470 S   0  0  0  0  0  0  0  0  0  0  0  0
   59.0720   34.6020   45.0470 O   0  0  0  0  0  0  0  0  0  0  0  0
   57.0820   34.2020   46.4020 O   0  0  0  0  0  0  0  0  0  0  0  0
   59.2220   32.7100   46.9520 N   0  0  0  0  0  0  0  0  0  0  0  0
   60.6260   32.5280   46.5380 C   0  0  0  0  0  0  0  0  0  0  0  0
   61.0534   31.6838   47.0990 H   0  0  0  0  0  0  0  0  0  0  0  0
   60.6349   32.3368   45.4548 H   0  0  0  0  0  0  0  0  0  0  0  0
   61.4790   33.7780   46.8010 C   0  0  0  0  0  0  0  0  0  0  0  0
   62.5296   33.5535   46.5647 H   0  0  0  0  0  0  0  0  0  0  0  0
   61.1090   34.5963   46.1658 H   0  0  0  0  0  0  0  0  0  0  0  0
   61.3840   34.1770   48.1520 O   0  0  0  0  0  0  0  0  0  0  0  0
   60.0500   34.5370   48.4440 C   0  0  0  0  0  0  0  0  0  0  0  0
   59.9942   34.9032   49.4798 H   0  0  0  0  0  0  0  0  0  0  0  0
   59.7361   35.3230   47.7414 H   0  0  0  0  0  0  0  0  0  0  0  0
   59.1100   33.3320   48.2850 C   0  0  0  0  0  0  0  0  0  0  0  0
   59.3636   32.5818   49.0484 H   0  0  0  0  0  0  0  0  0  0  0  0
   58.0772   33.6913   48.4043 H   0  0  0  0  0  0  0  0  0  0  0  0
   58.1200   32.2730   43.2640 C   0  0  0  0  0  0  0  0  0  0  0  0
   58.9078   32.8636   42.7734 H   0  0  0  0  0  0  0  0  0  0  0  0
   57.3790   31.2500   42.7120 C   0  0  0  0  0  0  0  0  0  0  0  0
   57.4556   30.8519   41.6894 H   0  0  0  0  0  0  0  0  0  0  0  0
   59.2340   30.1200   49.5770 C   0  0  0  0  0  0  0  0  0  0  0  0
   60.2527   30.5349   49.5883 H   0  0  0  0  0  0  0  0  0  0  0  0
   58.2630   30.5740   50.5830 C   0  0  0  0  0  0  0  0  0  0  0  0
   57.4530   29.7860   51.2530 O   0  0  0  0  0  0  0  0  0  0  0  0
   56.7270   30.5230   52.0630 C   0  0  0  0  0  0  0  0  0  0  0  0
   55.9589   30.1401   52.7511 H   0  0  0  0  0  0  0  0  0  0  0  0
   57.0750   31.8510   51.9190 C   0  0  0  0  0  0  0  0  0  0  0  0
   56.6466   32.7083   52.4589 H   0  0  0  0  0  0  0  0  0  0  0  0
   58.0670   31.8870   50.9630 C   0  0  0  0  0  0  0  0  0  0  0  0
   58.5924   32.7753   50.5825 H   0  0  0  0  0  0  0  0  0  0  0  0
  1  2  1  0
  2  3  1  0
  3  4  2  0
  3  5  1  0
  5  6  1  0
  6  7  1  0
  6  8  1  0
  6  9  1  0
  9 10  2  0
  9 11  1  0
 11 12  1  0
 12 13  1  0
 12 14  1  0
 12 15  1  0
 15 16  1  0
 16 17  1  0
 17 18  1  0
 18 19  2  0
 18 20  2  0
 18 21  1  0
 21 22  1  0
 22 23  1  0
 22 24  1  0
 22 25  1  0
 25 26  1  0
 25 27  1  0
 25 28  1  0
 28 29  1  0
 29 30  1  0
 29 31  1  0
 29 32  1  0
 32 33  1  0
 32 34  1  0
 17 35  2  0
 35 36  1  0
 35 37  1  0
 37 38  1  0
  2 39  2  0
 39 40  1  0
 39 41  1  0
 41 42  1  0
 42 43  1  0
 43 44  1  0
 43 45  2  0
 45 46  1  0
 45 47  1  0
 47 48  1  0
 37 15  2  0
 47 41  2  0
 32 21  1  0
M  CHG  2   5  -1  11  -1
M  END
>  <UniqueID>  (37) 
37

>  <SMILES>  (37) 
O=C(/C=C/c1ccco1)[N-]CC(=O)[N-]Cc1ccc(S(=O)(=O)N2CCOCC2)o1

>  <Energy>  (37) 
98.08739947541564

>  <Genealogy>  (37) 
O=C(C=Cc1ccco1)[N-]CC(=O)[N-]Cc1ccc(S(=O)(=O)N2CCOCC2)o1 (protonated)
O=C(/C=C/c1ccco1)[N-]CC(=O)[N-]Cc1ccc(S(=O)(=O)N2CCOCC2)o1 (cis-trans isomerization)
O=C(/C=C/c1ccco1)[N-]CC(=O)[N-]Cc1ccc(S(=O)(=O)N2CCOCC2)o1 (3D coordinates assigned)
O=C(/C=C/c1ccco1)[N-]CC(=O)[N-]Cc1ccc(S(=O)(=O)N2CCOCC2)o1 (nonaromatic ring conformer: 98.08739947541564 kcal/mol)

>  <smiles>  (37) 
O=C(C=Cc1ccco1)NCC(=O)NCc1ccc(S(=O)(=O)N2CCOCC2)o1

>  <score_type>  (37) 
oracle

>  <origin>  (37) 
adg

>  <m_score__min__energy>  (37) 
-13.630000000000001

>  <m_primary>  (37) 
energy

$$$$
37:0
     RDKit          3D

 58 61  0  0  0  0  0  0  0  0999 V2000
   57.1940   33.6890   47.3510 O   0  0  0  0  0  0  0  0  0  0  0  0
   58.2660   33.0620   47.1200 C   0  0  0  0  0  0  0  0  0  0  0  0
   58.2870   32.0230   46.0670 C   0  0  0  0  0  0  0  0  0  0  0  0
   58.6740   30.7110   46.3890 C   0  0  0  0  0  0  0  0  0  0  0  0
   58.7130   29.7130   45.4020 C   0  0  0  0  0  0  0  0  0  0  0  0
   59.1230   28.3110   45.7650 C   0  0  0  0  0  0  0  0  0  0  0  0
   57.9160   27.4090   45.8430 C   0  0  0  0  0  0  0  0  0  0  0  0
   56.6340   27.9120   45.5810 C   0  0  0  0  0  0  0  0  0  0  0  0
   55.5530   27.0930   45.6410 N   0  0  0  0  0  0  0  0  0  0  0  0
   55.6910   25.7770   45.9430 C   0  0  0  0  0  0  0  0  0  0  0  0
   54.6770   25.0350   45.9940 O   0  0  0  0  0  0  0  0  0  0  0  0
   56.9240   25.2590   46.1870 N   0  0  0  0  0  0  0  0  0  0  0  0
   58.0350   26.0400   46.1430 C   0  0  0  0  0  0  0  0  0  0  0  0
   59.1630   25.5250   46.3720 O   0  0  0  0  0  0  0  0  0  0  0  0
   58.3300   30.0290   44.0890 C   0  0  0  0  0  0  0  0  0  0  0  0
   57.9240   31.3250   43.7680 C   0  0  0  0  0  0  0  0  0  0  0  0
   57.8980   32.3210   44.7480 C   0  0  0  0  0  0  0  0  0  0  0  0
   57.5180   33.5780   44.4040 F   0  0  0  0  0  0  0  0  0  0  0  0
   59.4390   33.3500   47.9010 N   0  0  0  0  0  0  0  0  0  0  0  0
   60.7360   33.4420   47.2110 C   0  0  0  0  0  0  0  0  0  0  0  0
   61.8470   34.0040   48.0980 C   0  0  0  0  0  0  0  0  0  0  0  0
   61.8100   33.4410   49.4560 N   0  0  0  0  0  0  0  0  0  0  0  0
   62.0640   32.0050   49.4640 C   0  0  0  0  0  0  0  0  0  0  0  0
   61.1610   31.2030   49.2570 O   0  0  0  0  0  0  0  0  0  0  0  0
   63.4500   31.4780   49.7310 C   0  0  0  0  0  0  0  0  0  0  0  0
   64.5140   32.3830   49.0940 C   0  0  0  0  0  0  0  0  0  0  0  0
   65.4480   32.9310   50.1440 C   0  0  0  0  0  0  0  0  0  0  0  0
   66.7990   32.5440   50.1500 C   0  0  0  0  0  0  0  0  0  0  0  0
   67.6830   33.0680   51.1000 C   0  0  0  0  0  0  0  0  0  0  0  0
   67.2250   33.9910   52.0450 C   0  0  0  0  0  0  0  0  0  0  0  0
   65.8860   34.3920   52.0420 C   0  0  0  0  0  0  0  0  0  0  0  0
   64.9930   33.8680   51.0980 C   0  0  0  0  0  0  0  0  0  0  0  0
   63.6650   34.2860   51.1050 O   0  0  0  0  0  0  0  0  0  0  0  0
   60.5550   33.8350   50.1270 C   0  0  0  0  0  0  0  0  0  0  0  0
   59.2810   33.4170   49.3650 C   0  0  0  0  0  0  0  0  0  0  0  0
   58.9492   30.4633   47.4248 H   0  0  0  0  0  0  0  0  0  0  0  0
   59.8131   27.9264   44.9996 H   0  0  0  0  0  0  0  0  0  0  0  0
   59.6170   28.3288   46.7477 H   0  0  0  0  0  0  0  0  0  0  0  0
   56.5035   28.9740   45.3259 H   0  0  0  0  0  0  0  0  0  0  0  0
   58.3500   29.2523   43.3103 H   0  0  0  0  0  0  0  0  0  0  0  0
   57.6226   31.5640   42.7374 H   0  0  0  0  0  0  0  0  0  0  0  0
   61.0284   32.4349   46.8790 H   0  0  0  0  0  0  0  0  0  0  0  0
   60.6097   34.1333   46.3648 H   0  0  0  0  0  0  0  0  0  0  0  0
   62.8193   33.7660   47.6419 H   0  0  0  0  0  0  0  0  0  0  0  0
   61.6986   35.0910   48.1782 H   0  0  0  0  0  0  0  0  0  0  0  0
   62.5870   33.8890   49.9980 H   0  0  0  0  0  0  0  0  0  0  0  0
   63.6162   31.4369   50.8176 H   0  0  0  0  0  0  0  0  0  0  0  0
   63.5343   30.4736   49.2904 H   0  0  0  0  0  0  0  0  0  0  0  0
   65.0942   31.7992   48.3642 H   0  0  0  0  0  0  0  0  0  0  0  0
   64.0097   33.2244   48.5964 H   0  0  0  0  0  0  0  0  0  0  0  0
   67.1642   31.8241   49.4027 H   0  0  0  0  0  0  0  0  0  0  0  0
   68.7372   32.7540   51.1032 H   0  0  0  0  0  0  0  0  0  0  0  0
   67.9196   34.4023   52.7922 H   0  0  0  0  0  0  0  0  0  0  0  0
   65.5317   35.1224   52.7843 H   0  0  0  0  0  0  0  0  0  0  0  0
   60.5326   33.3669   51.1222 H   0  0  0  0  0  0  0  0  0  0  0  0
   60.5511   34.9339   50.1770 H   0  0  0  0  0  0  0  0  0  0  0  0
   58.9768   32.4226   49.7237 H   0  0  0  0  0  0  0  0  0  0  0  0
   58.5285   34.1944   49.5633 H   0  0  0  0  0  0  0  0  0  0  0  0
  1  2  2  0
  2  3  1  0
  3  4  2  0
  4  5  1  0
  5  6  1  0
  6  7  1  0
  7  8  2  0
  8  9  1  0
  9 10  1  0
 10 11  2  0
 10 12  1  0
 12 13  1  0
 13 14  2  0
  5 15  2  0
 15 16  1  0
 16 17  2  0
 17 18  1  0
  2 19  1  0
 19 20  1  0
 20 21  1  0
 21 22  1  0
 22 23  1  0
 23 24  2  0
 23 25  1  0
 25 26  1  0
 26 27  1  0
 27 28  2  0
 28 29  1  0
 29 30  2  0
 30 31  1  0
 31 32  2  0
 32 33  1  0
 22 34  1  0
 34 35  1  0
 17  3  1  0
 35 19  1  0
 13  7  1  0
 32 27  1  0
  4 36  1  0
  6 37  1  0
  6 38  1  0
  8 39  1  0
 15 40  1  0
 16 41  1  0
 20 42  1  0
 20 43  1  0
 21 44  1  0
 21 45  1  0
 22 46  1  0
 25 47  1  0
 25 48  1  0
 26 49  1  0
 26 50  1  0
 28 51  1  0
 29 52  1  0
 30 53  1  0
 31 54  1  0
 34 55  1  0
 34 56  1  0
 35 57  1  0
 35 58  1  0
M  CHG  4   9  -1  12  -1  22   1  33  -1
M  END
>  <UniqueID>  (38) 
38

>  <SMILES>  (38) 
O=C(c1cc(Cc2c[n-]c(=O)[n-]c2=O)ccc1F)N1CC[NH+](C(=O)CCc2ccccc2[O-])CC1

>  <Energy>  (38) 
71.70523066749756

>  <Genealogy>  (38) 
O=C(c1cc(Cc2c[n-]c(=O)[n-]c2=O)ccc1F)N1CC[NH+](C(=O)CCc2ccccc2[O-])CC1 (protonated)
O=C(c1cc(Cc2c[n-]c(=O)[n-]c2=O)ccc1F)N1CC[NH+](C(=O)CCc2ccccc2[O-])CC1 (3D coordinates assigned)
O=C(c1cc(Cc2c[n-]c(=O)[n-]c2=O)ccc1F)N1CC[NH+](C(=O)CCc2ccccc2[O-])CC1 (nonaromatic ring conformer: 71.70523066749756 kcal/mol)

>  <smiles>  (38) 
O=C(CCc1ccccc1O)N1CCN(C(=O)c2cc(Cc3c[nH]c(=O)[nH]c3=O)ccc2F)CC1

>  <score_type>  (38) 
oracle

>  <origin>  (38) 
adg

>  <m_score__min__energy>  (38) 
-16.899999999999999

>  <m_primary>  (38) 
energy

$$$$
38:0
     RDKit          3D

 40 42  0  0  0  0  0  0  0  0999 V2000
   55.5320   30.4570   43.9080 C   0  0  0  0  0  0  0  0  0  0  0  0
   56.3670   29.7240   44.6500 C   0  0  0  0  0  0  0  0  0  0  0  0
   56.0460   28.5120   45.1390 N   0  0  0  0  0  0  0  0  0  0  0  0
   57.1030   28.0830   45.8650 C   0  0  0  0  0  0  0  0  0  0  0  0
   57.1490   26.8990   46.5030 C   0  0  0  0  0  0  0  0  0  0  0  0
   56.6950   25.6270   45.8990 C   0  0  0  0  0  0  0  0  0  0  0  0
   55.3350   25.3770   45.6450 C   0  0  0  0  0  0  0  0  0  0  0  0
   54.3700   26.3310   45.9520 O   0  0  0  0  0  0  0  0  0  0  0  0
   54.9500   24.1850   45.1150 N   0  0  0  0  0  0  0  0  0  0  0  0
   55.8620   23.2110   44.8510 C   0  0  0  0  0  0  0  0  0  0  0  0
   55.4900   22.1110   44.3630 O   0  0  0  0  0  0  0  0  0  0  0  0
   57.1760   23.4180   45.1210 N   0  0  0  0  0  0  0  0  0  0  0  0
   57.6110   24.5940   45.6420 C   0  0  0  0  0  0  0  0  0  0  0  0
   58.8380   24.7470   45.8860 O   0  0  0  0  0  0  0  0  0  0  0  0
   58.1290   29.0290   45.8200 C   0  0  0  0  0  0  0  0  0  0  0  0
   59.4260   28.9980   46.5950 C   0  0  0  0  0  0  0  0  0  0  0  0
   59.4220   30.0510   47.6730 C   0  0  0  0  0  0  0  0  0  0  0  0
   58.8920   29.7720   48.9440 C   0  0  0  0  0  0  0  0  0  0  0  0
   58.8510   30.7640   49.9270 C   0  0  0  0  0  0  0  0  0  0  0  0
   59.3400   32.0480   49.6510 C   0  0  0  0  0  0  0  0  0  0  0  0
   59.2960   33.0710   50.6620 C   0  0  0  0  0  0  0  0  0  0  0  0
   59.2620   33.8940   51.4760 N   0  0  0  0  0  0  0  0  0  0  0  0
   59.8720   32.3330   48.3870 C   0  0  0  0  0  0  0  0  0  0  0  0
   59.9110   31.3410   47.4030 C   0  0  0  0  0  0  0  0  0  0  0  0
   57.6520   30.0810   45.0390 C   0  0  0  0  0  0  0  0  0  0  0  0
   58.3350   31.3890   44.7510 C   0  0  0  0  0  0  0  0  0  0  0  0
   55.8485   31.4421   43.5347 H   0  0  0  0  0  0  0  0  0  0  0  0
   54.5280   30.0754   43.6705 H   0  0  0  0  0  0  0  0  0  0  0  0
   55.1480   28.0050   44.9690 H   0  0  0  0  0  0  0  0  0  0  0  0
   57.5455   26.8757   47.5288 H   0  0  0  0  0  0  0  0  0  0  0  0
   53.9370   24.0130   44.9200 H   0  0  0  0  0  0  0  0  0  0  0  0
   59.5479   28.0073   47.0572 H   0  0  0  0  0  0  0  0  0  0  0  0
   60.2581   29.1992   45.9042 H   0  0  0  0  0  0  0  0  0  0  0  0
   58.5068   28.7660   49.1666 H   0  0  0  0  0  0  0  0  0  0  0  0
   58.4342   30.5368   50.9193 H   0  0  0  0  0  0  0  0  0  0  0  0
   60.2597   33.3389   48.1684 H   0  0  0  0  0  0  0  0  0  0  0  0
   60.3270   31.5712   46.4111 H   0  0  0  0  0  0  0  0  0  0  0  0
   58.5935   31.8841   45.6986 H   0  0  0  0  0  0  0  0  0  0  0  0
   59.2517   31.2042   44.1718 H   0  0  0  0  0  0  0  0  0  0  0  0
   57.6595   32.0357   44.1718 H   0  0  0  0  0  0  0  0  0  0  0  0
  1  2  2  0
  2  3  1  0
  3  4  1  0
  4  5  2  3
  5  6  1  0
  6  7  2  0
  7  8  1  0
  7  9  1  0
  9 10  1  0
 10 11  2  0
 10 12  1  0
 12 13  1  0
 13 14  2  0
  4 15  1  0
 15 16  1  0
 16 17  1  0
 17 18  2  0
 18 19  1  0
 19 20  2  0
 20 21  1  0
 21 22  3  0
 20 23  1  0
 23 24  2  0
 15 25  2  0
 25 26  1  0
 25  2  1  0
 13  6  1  0
 24 17  1  0
  1 27  1  0
  1 28  1  0
  3 29  1  0
  5 30  1  0
  9 31  1  0
 16 32  1  0
 16 33  1  0
 18 34  1  0
 19 35  1  0
 23 36  1  0
 24 37  1  0
 26 38  1  0
 26 39  1  0
 26 40  1  0
M  CHG  2   8  -1  12  -1
M  END
>  <UniqueID>  (39) 
39

>  <SMILES>  (39) 
C=c1[nH]c(=Cc2c([O-])[nH]c(=O)[n-]c2=O)c(Cc2ccc(C#N)cc2)c1C

>  <Energy>  (39) 
76.054796361415

>  <Genealogy>  (39) 
C=c1[nH]c(=Cc2c([O-])[nH]c(=O)[n-]c2=O)c(Cc2ccc(C#N)cc2)c1C (protonated)
C=c1[nH]c(=Cc2c([O-])[nH]c(=O)[n-]c2=O)c(Cc2ccc(C#N)cc2)c1C (3D coordinates assigned)
C=c1[nH]c(=Cc2c([O-])[nH]c(=O)[n-]c2=O)c(Cc2ccc(C#N)cc2)c1C (optimized conformer: 76.054796361415 kcal/mol)

>  <smiles>  (39) 
C=c1[nH]c(=Cc2c(O)[nH]c(=O)[nH]c2=O)c(Cc2ccc(C#N)cc2)c1C

>  <score_type>  (39) 
oracle

>  <origin>  (39) 
adg

>  <m_score__min__energy>  (39) 
-13.4

>  <m_primary>  (39) 
energy

$$$$
39:0
     RDKit          3D

 62 66  0  0  0  0  0  0  0  0999 V2000
   56.2970   23.4150   43.2720 C   0  0  0  0  0  0  0  0  0  0  0  0
   57.5170   23.7560   44.1230 C   0  0  0  0  0  0  0  0  0  0  0  0
   57.4510   25.1460   44.5960 N   0  0  0  0  0  0  0  0  0  0  0  0
   57.2230   25.3990   46.0280 C   0  0  0  0  0  0  0  0  0  0  0  0
   56.6210   24.2010   46.6980 C   0  0  0  0  0  0  0  0  0  0  0  0
   57.3360   23.2010   46.9710 O   0  0  0  0  0  0  0  0  0  0  0  0
   55.2190   24.1650   46.9610 N   0  0  0  0  0  0  0  0  0  0  0  0
   54.2660   23.7310   46.1840 C   0  0  0  0  0  0  0  0  0  0  0  0
   53.6420   24.5310   45.2540 C   0  0  0  0  0  0  0  0  0  0  0  0
   52.6880   23.7080   44.6920 C   0  0  0  0  0  0  0  0  0  0  0  0
   51.7750   24.0650   43.5690 C   0  0  0  0  0  0  0  0  0  0  0  0
   52.7410   22.4850   45.2550 N   0  0  0  0  0  0  0  0  0  0  0  0
   53.6980   22.4920   46.1730 N   0  0  0  0  0  0  0  0  0  0  0  0
   53.9280   21.3280   47.0360 C   0  0  0  0  0  0  0  0  0  0  0  0
   55.3480   20.8240   46.9470 C   0  0  0  0  0  0  0  0  0  0  0  0
   56.0650   20.4470   48.1000 C   0  0  0  0  0  0  0  0  0  0  0  0
   57.3890   20.0090   47.9960 C   0  0  0  0  0  0  0  0  0  0  0  0
   58.0150   19.9600   46.7470 C   0  0  0  0  0  0  0  0  0  0  0  0
   57.3250   20.3650   45.6020 C   0  0  0  0  0  0  0  0  0  0  0  0
   56.0020   20.8050   45.7010 C   0  0  0  0  0  0  0  0  0  0  0  0
   57.7680   26.2300   43.6940 C   0  0  0  0  0  0  0  0  0  0  0  0
   57.7960   26.0280   42.4490 O   0  0  0  0  0  0  0  0  0  0  0  0
   58.0750   27.5810   44.1940 C   0  0  0  0  0  0  0  0  0  0  0  0
   59.0980   27.7650   45.1530 C   0  0  0  0  0  0  0  0  0  0  0  0
   59.3770   29.0440   45.6590 C   0  0  0  0  0  0  0  0  0  0  0  0
   58.6280   30.1190   45.1820 C   0  0  0  0  0  0  0  0  0  0  0  0
   57.6410   29.9540   44.2320 C   0  0  0  0  0  0  0  0  0  0  0  0
   57.3580   28.6930   43.7120 C   0  0  0  0  0  0  0  0  0  0  0  0
   56.9790   31.2570   43.8890 C   0  0  0  0  0  0  0  0  0  0  0  0
   57.7410   32.1940   44.7800 C   0  0  0  0  0  0  0  0  0  0  0  0
   57.5840   33.5760   44.9030 C   0  0  0  0  0  0  0  0  0  0  0  0
   58.4170   34.2710   45.7970 C   0  0  0  0  0  0  0  0  0  0  0  0
   59.3880   33.5820   46.5500 C   0  0  0  0  0  0  0  0  0  0  0  0
   59.5320   32.1910   46.4200 C   0  0  0  0  0  0  0  0  0  0  0  0
   58.6930   31.5230   45.5250 C   0  0  0  0  0  0  0  0  0  0  0  0
   55.4469   23.1774   43.9284 H   0  0  0  0  0  0  0  0  0  0  0  0
   56.0406   24.2759   42.6371 H   0  0  0  0  0  0  0  0  0  0  0  0
   56.5241   22.5459   42.6371 H   0  0  0  0  0  0  0  0  0  0  0  0
   57.5515   23.0809   44.9908 H   0  0  0  0  0  0  0  0  0  0  0  0
   58.4210   23.6352   43.5080 H   0  0  0  0  0  0  0  0  0  0  0  0
   58.1839   25.6346   46.5087 H   0  0  0  0  0  0  0  0  0  0  0  0
   56.5243   26.2428   46.1270 H   0  0  0  0  0  0  0  0  0  0  0  0
   53.8547   25.5833   45.0143 H   0  0  0  0  0  0  0  0  0  0  0  0
   50.8228   24.4373   43.9748 H   0  0  0  0  0  0  0  0  0  0  0  0
   52.2413   24.8470   42.9518 H   0  0  0  0  0  0  0  0  0  0  0  0
   51.5872   23.1741   42.9518 H   0  0  0  0  0  0  0  0  0  0  0  0
   53.7176   21.6122   48.0776 H   0  0  0  0  0  0  0  0  0  0  0  0
   53.2613   20.5206   46.6988 H   0  0  0  0  0  0  0  0  0  0  0  0
   55.5810   20.4975   49.0865 H   0  0  0  0  0  0  0  0  0  0  0  0
   57.9386   19.7026   48.8982 H   0  0  0  0  0  0  0  0  0  0  0  0
   59.0520   19.6021   46.6658 H   0  0  0  0  0  0  0  0  0  0  0  0
   57.8232   20.3376   44.6217 H   0  0  0  0  0  0  0  0  0  0  0  0
   55.4684   21.1387   44.7988 H   0  0  0  0  0  0  0  0  0  0  0  0
   59.6790   26.8997   45.5047 H   0  0  0  0  0  0  0  0  0  0  0  0
   60.1652   29.1943   46.4115 H   0  0  0  0  0  0  0  0  0  0  0  0
   56.5870   28.5680   42.9375 H   0  0  0  0  0  0  0  0  0  0  0  0
   57.1088   31.5112   42.8267 H   0  0  0  0  0  0  0  0  0  0  0  0
   55.8889   31.2698   44.0358 H   0  0  0  0  0  0  0  0  0  0  0  0
   56.8245   34.1096   44.3128 H   0  0  0  0  0  0  0  0  0  0  0  0
   58.3099   35.3600   45.9093 H   0  0  0  0  0  0  0  0  0  0  0  0
   60.0370   34.1366   47.2437 H   0  0  0  0  0  0  0  0  0  0  0  0
   60.2842   31.6431   47.0064 H   0  0  0  0  0  0  0  0  0  0  0  0
  1  2  1  0
  2  3  1  0
  3  4  1  0
  4  5  1  0
  5  6  2  0
  5  7  1  0
  7  8  2  3
  8  9  1  0
  9 10  2  0
 10 11  1  0
 10 12  1  0
 12 13  1  0
 13 14  1  0
 14 15  1  0
 15 16  2  0
 16 17  1  0
 17 18  2  0
 18 19  1  0
 19 20  2  0
  3 21  1  0
 21 22  2  0
 21 23  1  0
 23 24  2  0
 24 25  1  0
 25 26  2  0
 26 27  1  0
 27 28  2  0
 27 29  1  0
 29 30  1  0
 30 31  2  0
 31 32  1  0
 32 33  2  0
 33 34  1  0
 34 35  2  0
 13  8  1  0
 20 15  1  0
 28 23  1  0
 35 30  1  0
 35 26  1  0
  1 36  1  0
  1 37  1  0
  1 38  1  0
  2 39  1  0
  2 40  1  0
  4 41  1  0
  4 42  1  0
  9 43  1  0
 11 44  1  0
 11 45  1  0
 11 46  1  0
 14 47  1  0
 14 48  1  0
 16 49  1  0
 17 50  1  0
 18 51  1  0
 19 52  1  0
 20 53  1  0
 24 54  1  0
 25 55  1  0
 28 56  1  0
 29 57  1  0
 29 58  1  0
 31 59  1  0
 32 60  1  0
 33 61  1  0
 34 62  1  0
M  CHG  1  12  -1
M  END
>  <UniqueID>  (40) 
40

>  <SMILES>  (40) 
CCN(CC(=O)N=c1cc(C)[n-]n1Cc1ccccc1)C(=O)c1ccc2c(c1)Cc1ccccc1-2

>  <Energy>  (40) 
132.8780340722396

>  <Genealogy>  (40) 
CCN(CC(=O)N=c1cc(C)[n-]n1Cc1ccccc1)C(=O)c1ccc2c(c1)Cc1ccccc1-2 (protonated)
CCN(CC(=O)N=c1cc(C)[n-]n1Cc1ccccc1)C(=O)c1ccc2c(c1)Cc1ccccc1-2 (3D coordinates assigned)
CCN(CC(=O)N=c1cc(C)[n-]n1Cc1ccccc1)C(=O)c1ccc2c(c1)Cc1ccccc1-2 (nonaromatic ring conformer: 132.8780340722396 kcal/mol)

>  <smiles>  (40) 
CCN(CC(=O)N=c1cc(C)[nH]n1Cc1ccccc1)C(=O)c1ccc2c(c1)Cc1ccccc1-2

>  <score_type>  (40) 
oracle

>  <origin>  (40) 
adg

>  <m_score__min__energy>  (40) 
-11.48

>  <m_primary>  (40) 
energy

$$$$
40:0
     RDKit          3D

 42 45  0  0  0  0  0  0  0  0999 V2000
   59.7690   28.6768   47.4207 H   0  0  0  0  0  0  0  0  0  0  0  0
   59.2800   28.0190   46.6870 C   0  0  0  0  0  0  0  0  0  0  0  0
   59.3847   26.9272   46.7714 H   0  0  0  0  0  0  0  0  0  0  0  0
   58.5550   28.5490   45.6880 C   0  0  0  0  0  0  0  0  0  0  0  0
   57.8710   27.8550   44.6750 C   0  0  0  0  0  0  0  0  0  0  0  0
   57.6300   26.5400   44.5070 C   0  0  0  0  0  0  0  0  0  0  0  0
   57.8284   26.1155   43.5118 H   0  0  0  0  0  0  0  0  0  0  0  0
   57.1240   25.6230   45.5410 C   0  0  0  0  0  0  0  0  0  0  0  0
   55.9500   25.7570   46.2440 C   0  0  0  0  0  0  0  0  0  0  0  0
   54.9720   26.7160   46.0110 O   0  0  0  0  0  0  0  0  0  0  0  0
   55.8700   24.8270   47.2150 N   0  0  0  0  0  0  0  0  0  0  0  0
   57.0350   24.1560   47.0830 C   0  0  0  0  0  0  0  0  0  0  0  0
   57.3590   23.1960   47.8290 O   0  0  0  0  0  0  0  0  0  0  0  0
   57.8250   24.6170   46.0930 N   0  0  0  0  0  0  0  0  0  0  0  0
   58.7850   24.2890   45.8400 H   0  0  0  0  0  0  0  0  0  0  0  0
   57.4120   28.8160   43.7900 C   0  0  0  0  0  0  0  0  0  0  0  0
   56.8640   28.6357   42.8534 H   0  0  0  0  0  0  0  0  0  0  0  0
   57.7730   30.0420   44.3070 C   0  0  0  0  0  0  0  0  0  0  0  0
   57.4470   31.3600   43.6710 C   0  0  0  0  0  0  0  0  0  0  0  0
   57.2616   32.1094   44.4546 H   0  0  0  0  0  0  0  0  0  0  0  0
   58.2920   31.6845   43.0459 H   0  0  0  0  0  0  0  0  0  0  0  0
   56.5482   31.2531   43.0459 H   0  0  0  0  0  0  0  0  0  0  0  0
   58.4570   29.8850   45.4610 N   0  0  0  0  0  0  0  0  0  0  0  0
   59.0390   30.9500   46.2320 C   0  0  0  0  0  0  0  0  0  0  0  0
   60.6340   30.9950   46.7650 S   0  0  0  0  0  0  0  0  0  0  0  0
   60.4760   32.4490   47.6040 C   0  0  0  0  0  0  0  0  0  0  0  0
   61.5350   33.0730   48.3540 N   0  0  0  0  0  0  0  0  0  0  0  0
   62.9150   33.0970   48.0290 C   0  0  0  0  0  0  0  0  0  0  0  0
   63.4070   32.5190   47.0250 O   0  0  0  0  0  0  0  0  0  0  0  0
   63.7300   33.8310   49.0160 C   0  0  0  0  0  0  0  0  0  0  0  0
   64.2563   34.6733   48.5431 H   0  0  0  0  0  0  0  0  0  0  0  0
   64.5135   33.2087   49.4730 H   0  0  0  0  0  0  0  0  0  0  0  0
   62.6940   34.3320   50.0330 C   0  0  0  0  0  0  0  0  0  0  0  0
   62.6550   35.4312   50.0195 H   0  0  0  0  0  0  0  0  0  0  0  0
   62.9623   34.0115   51.0505 H   0  0  0  0  0  0  0  0  0  0  0  0
   61.3280   33.7520   49.6230 C   0  0  0  0  0  0  0  0  0  0  0  0
   60.5910   34.5602   49.5063 H   0  0  0  0  0  0  0  0  0  0  0  0
   60.9424   33.0609   50.3870 H   0  0  0  0  0  0  0  0  0  0  0  0
   59.1610   32.9020   47.4910 C   0  0  0  0  0  0  0  0  0  0  0  0
   58.7954   33.8276   47.9596 H   0  0  0  0  0  0  0  0  0  0  0  0
   58.3560   32.0570   46.7200 C   0  0  0  0  0  0  0  0  0  0  0  0
   57.2915   32.2492   46.5205 H   0  0  0  0  0  0  0  0  0  0  0  0
  1  2  1  0
  2  3  1  0
  2  4  2  0
  4  5  1  0
  5  6  2  0
  6  7  1  0
  6  8  1  0
  8  9  2  0
  9 10  1  0
  9 11  1  0
 11 12  1  0
 12 13  2  0
 12 14  1  0
 14 15  1  0
  5 16  1  0
 16 17  1  0
 16 18  2  0
 18 19  1  0
 19 20  1  0
 19 21  1  0
 19 22  1  0
 18 23  1  0
 23 24  1  0
 24 25  1  0
 25 26  1  0
 26 27  1  0
 27 28  1  0
 28 29  2  0
 28 30  1  0
 30 31  1  0
 30 32  1  0
 30 33  1  0
 33 34  1  0
 33 35  1  0
 33 36  1  0
 36 37  1  0
 36 38  1  0
 26 39  2  0
 39 40  1  0
 39 41  1  0
 41 42  1  0
 23  4  1  0
 41 24  2  0
 14  8  1  0
 36 27  1  0
M  CHG  2  10  -1  11  -1
M  END
>  <UniqueID>  (41) 
41

>  <SMILES>  (41) 
C=c1/c(=C\c2[nH]c(=O)[n-]c2[O-])cc(C)n1-c1ccc(N2CCCC2=O)s1

>  <Energy>  (41) 
156.46489737244926

>  <Genealogy>  (41) 
C=c1c(=Cc2[nH]c(=O)[n-]c2[O-])cc(C)n1-c1ccc(N2CCCC2=O)s1 (protonated)
C=c1/c(=C\c2[nH]c(=O)[n-]c2[O-])cc(C)n1-c1ccc(N2CCCC2=O)s1 (cis-trans isomerization)
C=c1/c(=C\c2[nH]c(=O)[n-]c2[O-])cc(C)n1-c1ccc(N2CCCC2=O)s1 (3D coordinates assigned)
C=c1/c(=C\c2[nH]c(=O)[n-]c2[O-])cc(C)n1-c1ccc(N2CCCC2=O)s1 (nonaromatic ring conformer: 156.46489737244926 kcal/mol)

>  <smiles>  (41) 
C=c1c(=Cc2[nH]c(=O)[nH]c2O)cc(C)n1-c1ccc(N2CCCC2=O)s1

>  <score_type>  (41) 
oracle

>  <origin>  (41) 
adg

>  <m_score__min__energy>  (41) 
-14.029999999999999

>  <m_primary>  (41) 
energy

$$$$
41:0
     RDKit          3D

 39 41  0  0  0  0  0  0  0  0999 V2000
   56.0940   22.9080   41.7020 H   0  0  0  0  0  0  0  0  0  0  0  0
   55.8930   22.7970   42.6890 O   0  0  0  0  0  0  0  0  0  0  0  0
   56.8750   22.9870   43.6580 C   0  0  0  0  0  0  0  0  0  0  0  0
   57.4800   21.8910   44.2870 C   0  0  0  0  0  0  0  0  0  0  0  0
   57.1715   20.8684   44.0242 H   0  0  0  0  0  0  0  0  0  0  0  0
   58.4740   22.0940   45.2470 C   0  0  0  0  0  0  0  0  0  0  0  0
   58.9524   21.2310   45.7332 H   0  0  0  0  0  0  0  0  0  0  0  0
   58.8620   23.3930   45.5910 C   0  0  0  0  0  0  0  0  0  0  0  0
   59.6572   23.5482   46.3350 H   0  0  0  0  0  0  0  0  0  0  0  0
   58.2410   24.4990   44.9910 C   0  0  0  0  0  0  0  0  0  0  0  0
   58.6990   25.8620   45.3330 C   0  0  0  0  0  0  0  0  0  0  0  0
   59.7397   25.9649   45.6740 H   0  0  0  0  0  0  0  0  0  0  0  0
   57.9570   27.0050   45.2670 C   0  0  0  0  0  0  0  0  0  0  0  0
   56.5770   27.0980   45.6210 C   0  0  0  0  0  0  0  0  0  0  0  0
   55.9210   26.1870   46.3530 C   0  0  0  0  0  0  0  0  0  0  0  0
   56.4170   25.2460   46.6334 H   0  0  0  0  0  0  0  0  0  0  0  0
   54.8866   26.3802   46.6735 H   0  0  0  0  0  0  0  0  0  0  0  0
   55.8970   28.2310   45.3170 N   0  0  0  0  0  0  0  0  0  0  0  0
   56.4880   29.3150   44.7700 C   0  0  0  0  0  0  0  0  0  0  0  0
   55.7790   30.3240   44.5050 O   0  0  0  0  0  0  0  0  0  0  0  0
   57.8360   29.3210   44.5350 N   0  0  0  0  0  0  0  0  0  0  0  0
   58.4980   30.5440   44.0310 C   0  0  0  0  0  0  0  0  0  0  0  0
   59.5793   30.3613   43.9445 H   0  0  0  0  0  0  0  0  0  0  0  0
   58.0773   30.7974   43.0467 H   0  0  0  0  0  0  0  0  0  0  0  0
   58.2630   31.6960   44.9740 C   0  0  0  0  0  0  0  0  0  0  0  0
   58.5120   31.5540   46.3490 C   0  0  0  0  0  0  0  0  0  0  0  0
   58.9038   30.6031   46.7392 H   0  0  0  0  0  0  0  0  0  0  0  0
   58.2640   32.6160   47.2240 C   0  0  0  0  0  0  0  0  0  0  0  0
   58.4653   32.5001   48.2992 H   0  0  0  0  0  0  0  0  0  0  0  0
   57.7610   33.8240   46.7350 C   0  0  0  0  0  0  0  0  0  0  0  0
   57.5657   34.6583   47.4248 H   0  0  0  0  0  0  0  0  0  0  0  0
   57.5060   33.9720   45.3690 C   0  0  0  0  0  0  0  0  0  0  0  0
   57.1096   34.9232   44.9842 H   0  0  0  0  0  0  0  0  0  0  0  0
   57.7540   32.9130   44.4910 C   0  0  0  0  0  0  0  0  0  0  0  0
   57.5496   33.0331   43.4168 H   0  0  0  0  0  0  0  0  0  0  0  0
   58.5760   28.1930   44.7900 C   0  0  0  0  0  0  0  0  0  0  0  0
   59.8200   28.2030   44.5620 O   0  0  0  0  0  0  0  0  0  0  0  0
   57.2630   24.2870   44.0010 C   0  0  0  0  0  0  0  0  0  0  0  0
   56.8015   25.1475   43.4945 H   0  0  0  0  0  0  0  0  0  0  0  0
  1  2  1  0
  2  3  1  0
  3  4  2  0
  4  5  1  0
  4  6  1  0
  6  7  1  0
  6  8  2  0
  8  9  1  0
  8 10  1  0
 10 11  1  0
 11 12  1  0
 11 13  2  0
 13 14  1  0
 14 15  2  0
 15 16  1  0
 15 17  1  0
 14 18  1  0
 18 19  1  0
 19 20  2  0
 19 21  1  0
 21 22  1  0
 22 23  1  0
 22 24  1  0
 22 25  1  0
 25 26  2  0
 26 27  1  0
 26 28  1  0
 28 29  1  0
 28 30  2  0
 30 31  1  0
 30 32  1  0
 32 33  1  0
 32 34  2  0
 34 35  1  0
 21 36  1  0
 36 37  2  0
 10 38  2  0
 38 39  1  0
 38  3  1  0
 36 13  1  0
 34 25  1  0
M  CHG  1  18  -1
M  END
>  <UniqueID>  (42) 
42

>  <SMILES>  (42) 
C=c1[n-]c(=O)n(Cc2ccccc2)c(=O)/c1=C/c1cccc(O)c1

>  <Energy>  (42) 
67.99340644680464

>  <Genealogy>  (42) 
C=c1[n-]c(=O)n(Cc2ccccc2)c(=O)c1=Cc1cccc(O)c1 (protonated)
C=c1[n-]c(=O)n(Cc2ccccc2)c(=O)/c1=C/c1cccc(O)c1 (cis-trans isomerization)
C=c1[n-]c(=O)n(Cc2ccccc2)c(=O)/c1=C/c1cccc(O)c1 (3D coordinates assigned)
C=c1[n-]c(=O)n(Cc2ccccc2)c(=O)/c1=C/c1cccc(O)c1 (optimized conformer: 67.99340644680464 kcal/mol)

>  <smiles>  (42) 
C=c1[nH]c(=O)n(Cc2ccccc2)c(=O)c1=Cc1cccc(O)c1

>  <score_type>  (42) 
oracle

>  <origin>  (42) 
adg

>  <m_score__min__energy>  (42) 
-10.77

>  <m_primary>  (42) 
energy

$$$$
42:0
     RDKit          3D

 71 76  0  0  0  0  0  0  0  0999 V2000
   60.8740   26.6120   46.3590 O   0  0  0  0  0  0  0  0  0  0  0  0
   60.1370   27.6160   46.1770 C   0  0  0  0  0  0  0  0  0  0  0  0
   59.3440   27.6850   44.9780 N   0  0  0  0  0  0  0  0  0  0  0  0
   57.9110   27.9750   44.8240 C   0  0  1  0  0  0  0  0  0  0  0  0
   57.0250   26.8950   45.4850 C   0  0  0  0  0  0  0  0  0  0  0  0
   57.4640   25.4980   45.1210 C   0  0  0  0  0  0  0  0  0  0  0  0
   56.8840   24.8360   44.0260 C   0  0  0  0  0  0  0  0  0  0  0  0
   57.2570   23.5220   43.7180 C   0  0  0  0  0  0  0  0  0  0  0  0
   58.2050   22.8610   44.5050 C   0  0  0  0  0  0  0  0  0  0  0  0
   58.7890   23.5140   45.5940 C   0  0  0  0  0  0  0  0  0  0  0  0
   58.4240   24.8290   45.9000 C   0  0  0  0  0  0  0  0  0  0  0  0
   57.5690   29.3620   45.3110 C   0  0  0  0  0  0  0  0  0  0  0  0
   56.3790   29.6630   45.6030 O   0  0  0  0  0  0  0  0  0  0  0  0
   58.6070   30.3430   45.4560 N   0  0  0  0  0  0  0  0  0  0  0  0
   58.3420   31.7550   45.4710 C   0  0  0  0  0  0  0  0  0  0  0  0
   58.5820   32.4870   46.6500 C   0  0  0  0  0  0  0  0  0  0  0  0
   58.2320   33.8330   46.7360 C   0  0  0  0  0  0  0  0  0  0  0  0
   57.6390   34.4700   45.6480 C   0  0  0  0  0  0  0  0  0  0  0  0
   57.3980   33.7630   44.4690 C   0  0  0  0  0  0  0  0  0  0  0  0
   57.7450   32.4020   44.3570 C   0  0  0  0  0  0  0  0  0  0  0  0
   57.5040   31.7040   43.0670 C   0  0  0  0  0  0  0  0  0  0  0  0
   58.1790   32.0070   42.0460 O   0  0  0  0  0  0  0  0  0  0  0  0
   56.5580   30.6880   42.9650 O   0  0  0  0  0  0  0  0  0  0  0  0
   60.0940   28.6520   47.2210 C   0  0  0  0  0  0  0  0  0  0  0  0
   61.0200   29.7060   47.2130 C   0  0  0  0  0  0  0  0  0  0  0  0
   60.9780   30.6910   48.2070 C   0  0  0  0  0  0  0  0  0  0  0  0
   60.0200   30.6140   49.2230 C   0  0  0  0  0  0  0  0  0  0  0  0
   59.9650   31.5570   50.1970 N   0  0  0  0  0  0  0  0  0  0  0  0
   59.0470   31.5020   51.2010 C   0  0  0  0  0  0  0  0  0  0  0  0
   59.1170   32.5330   52.2620 C   0  0  0  0  0  0  0  0  0  0  0  0
   58.5050   33.7880   52.0940 C   0  0  0  0  0  0  0  0  0  0  0  0
   58.5680   34.7450   53.1110 C   0  0  0  0  0  0  0  0  0  0  0  0
   59.2210   34.4530   54.3100 C   0  0  0  0  0  0  0  0  0  0  0  0
   59.8090   33.2000   54.4970 C   0  0  0  0  0  0  0  0  0  0  0  0
   59.7510   32.2400   53.4810 C   0  0  0  0  0  0  0  0  0  0  0  0
   58.1040   30.4380   51.2080 C   0  0  0  0  0  0  0  0  0  0  0  0
   56.9990   30.3380   52.1900 C   0  0  0  0  0  0  0  0  0  0  0  0
   55.7220   30.8160   51.8540 C   0  0  0  0  0  0  0  0  0  0  0  0
   54.6770   30.7520   52.7810 C   0  0  0  0  0  0  0  0  0  0  0  0
   54.9010   30.2210   54.0530 C   0  0  0  0  0  0  0  0  0  0  0  0
   56.1720   29.7610   54.4030 C   0  0  0  0  0  0  0  0  0  0  0  0
   57.2210   29.8280   53.4820 C   0  0  0  0  0  0  0  0  0  0  0  0
   58.1840   29.4850   50.2400 N   0  0  0  0  0  0  0  0  0  0  0  0
   59.1150   29.5390   49.2550 C   0  0  0  0  0  0  0  0  0  0  0  0
   59.1640   28.5510   48.2670 C   0  0  0  0  0  0  0  0  0  0  0  0
   57.6907   27.9462   43.7467 H   0  0  0  0  0  0  0  0  0  0  0  0
   57.0808   27.0107   46.5775 H   0  0  0  0  0  0  0  0  0  0  0  0
   55.9962   27.0320   45.1205 H   0  0  0  0  0  0  0  0  0  0  0  0
   56.1341   25.3518   43.4083 H   0  0  0  0  0  0  0  0  0  0  0  0
   56.8040   23.0095   42.8565 H   0  0  0  0  0  0  0  0  0  0  0  0
   58.4915   21.8260   44.2668 H   0  0  0  0  0  0  0  0  0  0  0  0
   59.5362   22.9933   46.2109 H   0  0  0  0  0  0  0  0  0  0  0  0
   58.8902   25.3420   46.7541 H   0  0  0  0  0  0  0  0  0  0  0  0
   59.5990   30.0210   45.4800 H   0  0  0  0  0  0  0  0  0  0  0  0
   59.0509   31.9907   47.5125 H   0  0  0  0  0  0  0  0  0  0  0  0
   58.4239   34.3928   47.6632 H   0  0  0  0  0  0  0  0  0  0  0  0
   57.3603   35.5318   45.7183 H   0  0  0  0  0  0  0  0  0  0  0  0
   56.9306   34.2755   43.6153 H   0  0  0  0  0  0  0  0  0  0  0  0
   61.7826   29.7587   46.4220 H   0  0  0  0  0  0  0  0  0  0  0  0
   61.6968   31.5235   48.1889 H   0  0  0  0  0  0  0  0  0  0  0  0
   57.9744   34.0176   51.1582 H   0  0  0  0  0  0  0  0  0  0  0  0
   58.1018   35.7308   52.9662 H   0  0  0  0  0  0  0  0  0  0  0  0
   59.2724   35.2094   55.1070 H   0  0  0  0  0  0  0  0  0  0  0  0
   60.3182   32.9678   55.4440 H   0  0  0  0  0  0  0  0  0  0  0  0
   60.2044   31.2501   53.6375 H   0  0  0  0  0  0  0  0  0  0  0  0
   55.5428   31.2431   50.8562 H   0  0  0  0  0  0  0  0  0  0  0  0
   53.6772   31.1204   52.5079 H   0  0  0  0  0  0  0  0  0  0  0  0
   54.0764   30.1652   54.7789 H   0  0  0  0  0  0  0  0  0  0  0  0
   56.3481   29.3449   55.4059 H   0  0  0  0  0  0  0  0  0  0  0  0
   58.2245   29.4804   53.7686 H   0  0  0  0  0  0  0  0  0  0  0  0
   58.4742   27.6952   48.3096 H   0  0  0  0  0  0  0  0  0  0  0  0
  1  2  2  0
  2  3  1  0
  3  4  1  0
  4  5  1  0
  5  6  1  0
  6  7  2  0
  7  8  1  0
  8  9  2  0
  9 10  1  0
 10 11  2  0
  4 12  1  0
 12 13  2  0
 12 14  1  0
 14 15  1  0
 15 16  2  0
 16 17  1  0
 17 18  2  0
 18 19  1  0
 19 20  2  0
 20 21  1  0
 21 22  2  0
 21 23  1  0
  2 24  1  0
 24 25  2  0
 25 26  1  0
 26 27  2  0
 27 28  1  0
 28 29  2  0
 29 30  1  0
 30 31  2  0
 31 32  1  0
 32 33  2  0
 33 34  1  0
 34 35  2  0
 29 36  1  0
 36 37  1  0
 37 38  2  0
 38 39  1  0
 39 40  2  0
 40 41  1  0
 41 42  2  0
 36 43  2  0
 43 44  1  0
 44 45  2  0
 11  6  1  0
 20 15  1  0
 45 24  1  0
 44 27  1  0
 35 30  1  0
 42 37  1  0
  4 46  1  6
  5 47  1  0
  5 48  1  0
  7 49  1  0
  8 50  1  0
  9 51  1  0
 10 52  1  0
 11 53  1  0
 14 54  1  0
 16 55  1  0
 17 56  1  0
 18 57  1  0
 19 58  1  0
 25 59  1  0
 26 60  1  0
 31 61  1  0
 32 62  1  0
 33 63  1  0
 34 64  1  0
 35 65  1  0
 38 66  1  0
 39 67  1  0
 40 68  1  0
 41 69  1  0
 42 70  1  0
 45 71  1  0
M  CHG  2   3  -1  23  -1
M  END
>  <UniqueID>  (43) 
43

>  <SMILES>  (43) 
O=C([N-][C@@H](Cc1ccccc1)C(=O)Nc1ccccc1C(=O)[O-])c1ccc2nc(-c3ccccc3)c(-c3ccccc3)nc2c1

>  <Energy>  (43) 
108.65666045642593

>  <Genealogy>  (43) 
O=C([N-]C(Cc1ccccc1)C(=O)Nc1ccccc1C(=O)[O-])c1ccc2nc(-c3ccccc3)c(-c3ccccc3)nc2c1 (protonated)
O=C([N-][C@@H](Cc1ccccc1)C(=O)Nc1ccccc1C(=O)[O-])c1ccc2nc(-c3ccccc3)c(-c3ccccc3)nc2c1 (chirality)
O=C([N-][C@@H](Cc1ccccc1)C(=O)Nc1ccccc1C(=O)[O-])c1ccc2nc(-c3ccccc3)c(-c3ccccc3)nc2c1 (3D coordinates assigned)
O=C([N-][C@@H](Cc1ccccc1)C(=O)Nc1ccccc1C(=O)[O-])c1ccc2nc(-c3ccccc3)c(-c3ccccc3)nc2c1 (optimized conformer: 108.65666045642593 kcal/mol)

>  <smiles>  (43) 
O=C(NC(Cc1ccccc1)C(=O)Nc1ccccc1C(=O)O)c1ccc2nc(-c3ccccc3)c(-c3ccccc3)nc2c1

>  <score_type>  (43) 
oracle

>  <origin>  (43) 
adg

>  <m_score__min__energy>  (43) 
-13.92

>  <m_primary>  (43) 
energy

$$$$
43:0
     RDKit          3D

 50 54  0  0  0  0  0  0  0  0999 V2000
   55.4030   29.5040   44.8850 O   0  0  0  0  0  0  0  0  0  0  0  0
   56.3880   28.7210   44.9340 C   0  0  0  0  0  0  0  0  0  0  0  0
   57.6000   29.0120   44.0900 C   0  0  0  0  0  0  0  0  0  0  0  0
   58.6950   29.7020   44.9160 C   0  0  0  0  0  0  0  0  0  0  0  0
   58.3270   31.1270   45.2090 C   0  0  0  0  0  0  0  0  0  0  0  0
   57.0670   31.5890   45.3360 N   0  0  0  0  0  0  0  0  0  0  0  0
   57.1420   32.8710   45.6490 N   0  0  0  0  0  0  0  0  0  0  0  0
   58.4610   33.1510   45.6900 C   0  0  0  0  0  0  0  0  0  0  0  0
   59.0180   34.4950   46.0410 C   0  0  0  0  0  0  0  0  0  0  0  0
   59.8720   34.3990   47.2690 C   0  0  0  0  0  0  0  0  0  0  0  0
   59.4320   34.4760   48.5870 C   0  0  0  0  0  0  0  0  0  0  0  0
   60.4530   34.2250   49.4400 N   0  0  0  0  0  0  0  0  0  0  0  0
   61.5290   33.9760   48.6710 C   0  0  0  0  0  0  0  0  0  0  0  0
   62.8110   33.6270   49.0980 C   0  0  0  0  0  0  0  0  0  0  0  0
   63.7860   33.3730   48.1150 C   0  0  0  0  0  0  0  0  0  0  0  0
   63.4610   33.4690   46.7420 C   0  0  0  0  0  0  0  0  0  0  0  0
   62.1570   33.8170   46.3400 C   0  0  0  0  0  0  0  0  0  0  0  0
   61.2130   34.0690   47.3390 C   0  0  0  0  0  0  0  0  0  0  0  0
   59.1920   32.0860   45.4300 O   0  0  0  0  0  0  0  0  0  0  0  0
   56.2680   27.4990   45.6740 N   0  0  0  0  0  0  0  0  0  0  0  0
   57.1150   26.3540   45.5240 C   0  0  0  0  0  0  0  0  0  0  0  0
   58.3930   26.3140   46.1310 C   0  0  0  0  0  0  0  0  0  0  0  0
   59.1840   25.1590   46.0490 C   0  0  0  0  0  0  0  0  0  0  0  0
   58.6550   24.0400   45.4030 C   0  0  0  0  0  0  0  0  0  0  0  0
   57.4080   24.0570   44.8310 C   0  0  0  0  0  0  0  0  0  0  0  0
   56.6170   25.2110   44.8740 C   0  0  0  0  0  0  0  0  0  0  0  0
   57.0690   22.7450   44.1910 C   0  0  0  0  0  0  0  0  0  0  0  0
   58.3110   21.8550   44.4460 C   0  0  0  0  0  0  0  0  0  0  0  0
   59.2410   22.7330   45.2160 C   0  0  0  0  0  0  0  0  0  0  0  0
   60.3880   22.3940   45.6140 O   0  0  0  0  0  0  0  0  0  0  0  0
   57.9942   28.0666   43.6891 H   0  0  0  0  0  0  0  0  0  0  0  0
   57.3031   29.6845   43.2717 H   0  0  0  0  0  0  0  0  0  0  0  0
   58.8249   29.1612   45.8650 H   0  0  0  0  0  0  0  0  0  0  0  0
   59.6304   29.6925   44.3372 H   0  0  0  0  0  0  0  0  0  0  0  0
   56.1790   31.0460   45.2450 H   0  0  0  0  0  0  0  0  0  0  0  0
   59.6271   34.8655   45.2033 H   0  0  0  0  0  0  0  0  0  0  0  0
   58.1860   35.1874   46.2367 H   0  0  0  0  0  0  0  0  0  0  0  0
   58.4010   34.7079   48.8924 H   0  0  0  0  0  0  0  0  0  0  0  0
   60.4070   34.2070   50.4840 H   0  0  0  0  0  0  0  0  0  0  0  0
   63.0519   33.5528   50.1687 H   0  0  0  0  0  0  0  0  0  0  0  0
   64.8074   33.0980   48.4168 H   0  0  0  0  0  0  0  0  0  0  0  0
   64.2320   33.2705   45.9829 H   0  0  0  0  0  0  0  0  0  0  0  0
   61.8904   33.8881   45.2752 H   0  0  0  0  0  0  0  0  0  0  0  0
   58.7686   27.1956   46.6711 H   0  0  0  0  0  0  0  0  0  0  0  0
   60.1948   25.1352   46.4823 H   0  0  0  0  0  0  0  0  0  0  0  0
   55.6213   25.2235   44.4066 H   0  0  0  0  0  0  0  0  0  0  0  0
   56.1741   22.3056   44.6558 H   0  0  0  0  0  0  0  0  0  0  0  0
   56.8425   22.8490   43.1196 H   0  0  0  0  0  0  0  0  0  0  0  0
   58.0392   20.9653   45.0330 H   0  0  0  0  0  0  0  0  0  0  0  0
   58.7599   21.4821   43.5135 H   0  0  0  0  0  0  0  0  0  0  0  0
  1  2  2  0
  2  3  1  0
  3  4  1  0
  4  5  1  0
  5  6  2  0
  6  7  1  0
  7  8  2  0
  8  9  1  0
  9 10  1  0
 10 11  2  0
 11 12  1  0
 12 13  1  0
 13 14  2  0
 14 15  1  0
 15 16  2  0
 16 17  1  0
 17 18  2  0
  8 19  1  0
  2 20  1  0
 20 21  1  0
 21 22  2  0
 22 23  1  0
 23 24  2  0
 24 25  1  0
 25 26  2  0
 25 27  1  0
 27 28  1  0
 28 29  1  0
 29 30  2  0
 19  5  1  0
 26 21  1  0
 18 10  1  0
 29 24  1  0
 18 13  1  0
  3 31  1  0
  3 32  1  0
  4 33  1  0
  4 34  1  0
  6 35  1  0
  9 36  1  0
  9 37  1  0
 11 38  1  0
 12 39  1  0
 14 40  1  0
 15 41  1  0
 16 42  1  0
 17 43  1  0
 22 44  1  0
 23 45  1  0
 26 46  1  0
 27 47  1  0
 27 48  1  0
 28 49  1  0
 28 50  1  0
M  CHG  2   6   1  20  -1
M  END
>  <UniqueID>  (44) 
44

>  <SMILES>  (44) 
O=C(CCc1[nH+]nc(Cc2c[nH]c3ccccc23)o1)[N-]c1ccc2c(c1)CCC2=O

>  <Energy>  (44) 
134.80488991624406

>  <Genealogy>  (44) 
O=C(CCc1[nH+]nc(Cc2c[nH]c3ccccc23)o1)[N-]c1ccc2c(c1)CCC2=O (protonated)
O=C(CCc1[nH+]nc(Cc2c[nH]c3ccccc23)o1)[N-]c1ccc2c(c1)CCC2=O (3D coordinates assigned)
O=C(CCc1[nH+]nc(Cc2c[nH]c3ccccc23)o1)[N-]c1ccc2c(c1)CCC2=O (nonaromatic ring conformer: 134.80488991624406 kcal/mol)

>  <smiles>  (44) 
O=C(CCc1nnc(Cc2c[nH]c3ccccc23)o1)Nc1ccc2c(c1)CCC2=O

>  <score_type>  (44) 
oracle

>  <origin>  (44) 
adg

>  <m_score__min__energy>  (44) 
-10.68

>  <m_primary>  (44) 
energy

$$$$
44:0
     RDKit          3D

 60 63  0  0  0  0  0  0  0  0999 V2000
   59.3440   34.2140   48.9120 O   0  0  0  0  0  0  0  0  0  0  0  0
   59.9330   33.6580   47.9440 C   0  0  0  0  0  0  0  0  0  0  0  0
   59.1940   33.4550   46.6790 C   0  0  0  0  0  0  0  0  0  0  0  0
   58.9910   34.5220   45.7900 C   0  0  0  0  0  0  0  0  0  0  0  0
   58.2880   34.3230   44.6000 C   0  0  0  0  0  0  0  0  0  0  0  0
   57.7870   33.0590   44.2830 C   0  0  0  0  0  0  0  0  0  0  0  0
   58.0000   31.9730   45.1490 C   0  0  0  0  0  0  0  0  0  0  0  0
   57.4430   30.6410   44.8260 C   0  0  0  0  0  0  0  0  0  0  0  0
   56.1960   30.4590   44.8720 O   0  0  0  0  0  0  0  0  0  0  0  0
   58.3000   29.5400   44.4810 N   0  0  0  0  0  0  0  0  0  0  0  0
   57.7640   28.3950   43.7310 C   0  0  0  0  0  0  0  0  0  0  0  0
   57.5700   27.2110   44.6430 C   0  0  0  0  0  0  0  0  0  0  0  0
   57.0190   27.3820   45.9240 C   0  0  0  0  0  0  0  0  0  0  0  0
   56.8000   26.2760   46.7500 C   0  0  0  0  0  0  0  0  0  0  0  0
   57.1240   24.9930   46.3020 C   0  0  0  0  0  0  0  0  0  0  0  0
   57.6670   24.8130   45.0280 C   0  0  0  0  0  0  0  0  0  0  0  0
   57.8880   25.9160   44.1990 C   0  0  0  0  0  0  0  0  0  0  0  0
   59.7160   29.5820   44.8620 C   0  0  0  0  0  0  0  0  0  0  0  0
   59.9590   28.7860   46.1160 C   0  0  0  0  0  0  0  0  0  0  0  0
   60.4860   27.4860   46.0440 C   0  0  0  0  0  0  0  0  0  0  0  0
   60.6830   26.7380   47.2100 C   0  0  0  0  0  0  0  0  0  0  0  0
   60.3520   27.2790   48.4570 C   0  0  0  0  0  0  0  0  0  0  0  0
   60.5500   26.5220   49.6090 O   0  0  0  0  0  0  0  0  0  0  0  0
   59.8260   28.5750   48.5340 C   0  0  0  0  0  0  0  0  0  0  0  0
   59.6320   29.3250   47.3700 C   0  0  0  0  0  0  0  0  0  0  0  0
   58.7080   32.1800   46.3450 C   0  0  0  0  0  0  0  0  0  0  0  0
   61.3020   33.2330   48.0980 N   0  0  0  0  0  0  0  0  0  0  0  0
   61.7910   32.8740   49.4380 C   0  0  0  0  0  0  0  0  0  0  0  0
   63.1770   32.2240   49.3710 C   0  0  0  0  0  0  0  0  0  0  0  0
   64.1830   33.1000   48.6070 C   0  0  0  0  0  0  0  0  0  0  0  0
   63.5810   33.8190   47.3820 C   0  0  0  0  0  0  0  0  0  0  0  0
   62.2300   33.2360   46.9550 C   0  0  0  0  0  0  0  0  0  0  0  0
   59.3874   35.5192   46.0317 H   0  0  0  0  0  0  0  0  0  0  0  0
   58.1284   35.1648   43.9101 H   0  0  0  0  0  0  0  0  0  0  0  0
   57.2225   32.9124   43.3503 H   0  0  0  0  0  0  0  0  0  0  0  0
   56.7963   28.6733   43.2882 H   0  0  0  0  0  0  0  0  0  0  0  0
   58.4782   28.1218   42.9403 H   0  0  0  0  0  0  0  0  0  0  0  0
   56.7589   28.3904   46.2783 H   0  0  0  0  0  0  0  0  0  0  0  0
   56.3722   26.4159   47.7537 H   0  0  0  0  0  0  0  0  0  0  0  0
   56.9512   24.1236   46.9534 H   0  0  0  0  0  0  0  0  0  0  0  0
   57.9210   23.8020   44.6768 H   0  0  0  0  0  0  0  0  0  0  0  0
   58.3126   25.7701   43.1948 H   0  0  0  0  0  0  0  0  0  0  0  0
   60.3212   29.1613   44.0455 H   0  0  0  0  0  0  0  0  0  0  0  0
   59.9983   30.6284   45.0499 H   0  0  0  0  0  0  0  0  0  0  0  0
   60.7451   27.0538   45.0662 H   0  0  0  0  0  0  0  0  0  0  0  0
   61.0993   25.7218   47.1460 H   0  0  0  0  0  0  0  0  0  0  0  0
   60.7250   26.9620   50.5070 H   0  0  0  0  0  0  0  0  0  0  0  0
   59.5649   29.0038   49.5128 H   0  0  0  0  0  0  0  0  0  0  0  0
   59.2208   30.3430   47.4374 H   0  0  0  0  0  0  0  0  0  0  0  0
   58.8835   31.3348   47.0268 H   0  0  0  0  0  0  0  0  0  0  0  0
   61.8518   33.7842   50.0527 H   0  0  0  0  0  0  0  0  0  0  0  0
   61.0901   32.1508   49.8804 H   0  0  0  0  0  0  0  0  0  0  0  0
   63.5468   32.0680   50.3952 H   0  0  0  0  0  0  0  0  0  0  0  0
   63.0804   31.2682   48.8351 H   0  0  0  0  0  0  0  0  0  0  0  0
   64.5742   33.8613   49.2979 H   0  0  0  0  0  0  0  0  0  0  0  0
   64.9687   32.4291   48.2295 H   0  0  0  0  0  0  0  0  0  0  0  0
   63.4422   34.8813   47.6313 H   0  0  0  0  0  0  0  0  0  0  0  0
   64.2795   33.6842   46.5430 H   0  0  0  0  0  0  0  0  0  0  0  0
   61.8083   33.8484   46.1444 H   0  0  0  0  0  0  0  0  0  0  0  0
   62.3756   32.2038   46.6039 H   0  0  0  0  0  0  0  0  0  0  0  0
  1  2  2  0
  2  3  1  0
  3  4  2  0
  4  5  1  0
  5  6  2  0
  6  7  1  0
  7  8  1  0
  8  9  2  0
  8 10  1  0
 10 11  1  0
 11 12  1  0
 12 13  2  0
 13 14  1  0
 14 15  2  0
 15 16  1  0
 16 17  2  0
 10 18  1  0
 18 19  1  0
 19 20  2  0
 20 21  1  0
 21 22  2  0
 22 23  1  0
 22 24  1  0
 24 25  2  0
  7 26  2  0
  2 27  1  0
 27 28  1  0
 28 29  1  0
 29 30  1  0
 30 31  1  0
 31 32  1  0
 26  3  1  0
 32 27  1  0
 17 12  1  0
 25 19  1  0
  4 33  1  0
  5 34  1  0
  6 35  1  0
 11 36  1  0
 11 37  1  0
 13 38  1  0
 14 39  1  0
 15 40  1  0
 16 41  1  0
 17 42  1  0
 18 43  1  0
 18 44  1  0
 20 45  1  0
 21 46  1  0
 23 47  1  0
 24 48  1  0
 25 49  1  0
 26 50  1  0
 28 51  1  0
 28 52  1  0
 29 53  1  0
 29 54  1  0
 30 55  1  0
 30 56  1  0
 31 57  1  0
 31 58  1  0
 32 59  1  0
 32 60  1  0
M  END
>  <UniqueID>  (45) 
45

>  <SMILES>  (45) 
O=C(c1cccc(C(=O)N(Cc2ccccc2)Cc2ccc(O)cc2)c1)N1CCCCC1

>  <Energy>  (45) 
69.55616119956001

>  <Genealogy>  (45) 
O=C(c1cccc(C(=O)N(Cc2ccccc2)Cc2ccc(O)cc2)c1)N1CCCCC1 (3D coordinates assigned)
O=C(c1cccc(C(=O)N(Cc2ccccc2)Cc2ccc(O)cc2)c1)N1CCCCC1 (nonaromatic ring conformer: 69.55616119956001 kcal/mol)

>  <smiles>  (45) 
O=C(c1cccc(C(=O)N(Cc2ccccc2)Cc2ccc(O)cc2)c1)N1CCCCC1

>  <score_type>  (45) 
oracle

>  <origin>  (45) 
adg

>  <m_score__min__energy>  (45) 
-10.15

>  <m_primary>  (45) 
energy

$$$$
45:0
     RDKit          3D

 44 46  0  0  0  0  0  0  0  0999 V2000
   63.3770   33.7610   46.7720 C   0  0  0  0  0  0  0  0  0  0  0  0
   63.6740   33.2990   47.9890 C   0  0  0  0  0  0  0  0  0  0  0  0
   62.6100   33.0800   49.0280 C   0  0  0  0  0  0  0  0  0  0  0  0
   62.6840   31.7260   49.5770 N   0  0  0  0  0  0  0  0  0  0  0  0
   61.5900   30.8040   49.6790 C   0  0  0  0  0  0  0  0  0  0  0  0
   61.2840   30.3490   50.8120 O   0  0  0  0  0  0  0  0  0  0  0  0
   60.8420   30.3400   48.4960 C   0  0  0  0  0  0  0  0  0  0  0  0
   59.5860   29.7370   48.6560 C   0  0  0  0  0  0  0  0  0  0  0  0
   58.8780   29.2760   47.5430 C   0  0  0  0  0  0  0  0  0  0  0  0
   59.4060   29.4340   46.2530 C   0  0  0  0  0  0  0  0  0  0  0  0
   58.6740   28.8790   45.0620 C   0  0  0  0  0  0  0  0  0  0  0  0
   57.7800   27.7570   45.4910 C   0  0  0  0  0  0  0  0  0  0  0  0
   58.1730   26.4680   45.8140 C   0  0  0  0  0  0  0  0  0  0  0  0
   57.0870   25.6990   46.0580 N   0  0  0  0  0  0  0  0  0  0  0  0
   57.1000   24.3030   46.4100 C   0  0  0  0  0  0  0  0  0  0  0  0
   57.6370   23.3460   45.5290 C   0  0  0  0  0  0  0  0  0  0  0  0
   57.6410   21.9910   45.8740 C   0  0  0  0  0  0  0  0  0  0  0  0
   57.1070   21.5770   47.0970 C   0  0  0  0  0  0  0  0  0  0  0  0
   57.1130   20.2300   47.4390 O   0  0  0  0  0  0  0  0  0  0  0  0
   56.5660   22.5190   47.9770 C   0  0  0  0  0  0  0  0  0  0  0  0
   56.5580   23.8740   47.6350 C   0  0  0  0  0  0  0  0  0  0  0  0
   56.0050   26.4870   45.8680 C   0  0  0  0  0  0  0  0  0  0  0  0
   54.6860   26.0530   45.9760 O   0  0  0  0  0  0  0  0  0  0  0  0
   56.4010   27.7560   45.5140 C   0  0  0  0  0  0  0  0  0  0  0  0
   55.5680   28.8270   45.2140 O   0  0  0  0  0  0  0  0  0  0  0  0
   60.6560   30.0520   46.0920 C   0  0  0  0  0  0  0  0  0  0  0  0
   61.3640   30.5110   47.2050 C   0  0  0  0  0  0  0  0  0  0  0  0
   64.1758   33.9119   46.0309 H   0  0  0  0  0  0  0  0  0  0  0  0
   62.3335   33.9907   46.5104 H   0  0  0  0  0  0  0  0  0  0  0  0
   64.7216   33.0734   48.2371 H   0  0  0  0  0  0  0  0  0  0  0  0
   62.7477   33.8064   49.8425 H   0  0  0  0  0  0  0  0  0  0  0  0
   61.6258   33.2131   48.5551 H   0  0  0  0  0  0  0  0  0  0  0  0
   59.1561   29.6264   49.6625 H   0  0  0  0  0  0  0  0  0  0  0  0
   57.9021   28.7869   47.6790 H   0  0  0  0  0  0  0  0  0  0  0  0
   58.0674   29.6740   44.6037 H   0  0  0  0  0  0  0  0  0  0  0  0
   59.4046   28.5011   44.3316 H   0  0  0  0  0  0  0  0  0  0  0  0
   59.2155   26.1208   45.8646 H   0  0  0  0  0  0  0  0  0  0  0  0
   58.0560   23.6657   44.5635 H   0  0  0  0  0  0  0  0  0  0  0  0
   58.0654   21.2494   45.1812 H   0  0  0  0  0  0  0  0  0  0  0  0
   56.1460   22.1932   48.9400 H   0  0  0  0  0  0  0  0  0  0  0  0
   56.1249   24.6099   48.3284 H   0  0  0  0  0  0  0  0  0  0  0  0
   53.9180   26.7140   45.9910 H   0  0  0  0  0  0  0  0  0  0  0  0
   61.0799   30.1754   45.0845 H   0  0  0  0  0  0  0  0  0  0  0  0
   62.3354   31.0089   47.0688 H   0  0  0  0  0  0  0  0  0  0  0  0
  1  2  2  0
  2  3  1  0
  3  4  1  0
  4  5  1  0
  5  6  2  0
  5  7  1  0
  7  8  2  0
  8  9  1  0
  9 10  2  0
 10 11  1  0
 11 12  1  0
 12 13  2  0
 13 14  1  0
 14 15  1  0
 15 16  2  0
 16 17  1  0
 17 18  2  0
 18 19  1  0
 18 20  1  0
 20 21  2  0
 14 22  1  0
 22 23  1  0
 22 24  2  0
 24 25  1  0
 10 26  1  0
 26 27  2  0
 27  7  1  0
 24 12  1  0
 21 15  1  0
  1 28  1  0
  1 29  1  0
  2 30  1  0
  3 31  1  0
  3 32  1  0
  8 33  1  0
  9 34  1  0
 11 35  1  0
 11 36  1  0
 13 37  1  0
 16 38  1  0
 17 39  1  0
 20 40  1  0
 21 41  1  0
 23 42  1  0
 26 43  1  0
 27 44  1  0
M  CHG  3   4  -1  19  -1  25  -1
M  END
>  <UniqueID>  (46) 
46

>  <SMILES>  (46) 
C=CC[N-]C(=O)c1ccc(Cc2cn(-c3ccc([O-])cc3)c(O)c2[O-])cc1

>  <Energy>  (46) 
78.1983288453038

>  <Genealogy>  (46) 
C=CC[N-]C(=O)c1ccc(Cc2cn(-c3ccc([O-])cc3)c(O)c2[O-])cc1 (protonated)
C=CC[N-]C(=O)c1ccc(Cc2cn(-c3ccc([O-])cc3)c(O)c2[O-])cc1 (3D coordinates assigned)
C=CC[N-]C(=O)c1ccc(Cc2cn(-c3ccc([O-])cc3)c(O)c2[O-])cc1 (optimized conformer: 78.1983288453038 kcal/mol)

>  <smiles>  (46) 
C=CCNC(=O)c1ccc(Cc2cn(-c3ccc(O)cc3)c(O)c2O)cc1

>  <score_type>  (46) 
oracle

>  <origin>  (46) 
adg

>  <m_score__min__energy>  (46) 
-13.449999999999999

>  <m_primary>  (46) 
energy

$$$$
46:0
     RDKit          3D

 29 30  0  0  0  0  0  0  0  0999 V2000
   55.8435   31.7406   44.7666 H   0  0  0  0  0  0  0  0  0  0  0  0
   56.7910   31.3420   44.3750 C   0  0  0  0  0  0  0  0  0  0  0  0
   57.8190   32.1950   44.2380 C   0  0  0  0  0  0  0  0  0  0  0  0
   58.3055   32.2525   43.2531 H   0  0  0  0  0  0  0  0  0  0  0  0
   58.3460   33.0640   45.3150 C   0  0  0  0  0  0  0  0  0  0  0  0
   59.0880   34.2050   44.9670 C   0  0  0  0  0  0  0  0  0  0  0  0
   59.2662   34.4393   43.9071 H   0  0  0  0  0  0  0  0  0  0  0  0
   59.6010   35.0440   45.9600 C   0  0  0  0  0  0  0  0  0  0  0  0
   60.1671   35.9444   45.6794 H   0  0  0  0  0  0  0  0  0  0  0  0
   59.3960   34.7410   47.3090 C   0  0  0  0  0  0  0  0  0  0  0  0
   59.7944   35.4063   48.0891 H   0  0  0  0  0  0  0  0  0  0  0  0
   58.6850   33.5930   47.6660 C   0  0  0  0  0  0  0  0  0  0  0  0
   58.5299   33.3508   48.7277 H   0  0  0  0  0  0  0  0  0  0  0  0
   58.1700   32.7510   46.6750 C   0  0  0  0  0  0  0  0  0  0  0  0
   57.6246   31.8394   46.9606 H   0  0  0  0  0  0  0  0  0  0  0  0
   56.8450   29.9050   44.0360 C   0  0  0  0  0  0  0  0  0  0  0  0
   56.6327   29.6321   42.9918 H   0  0  0  0  0  0  0  0  0  0  0  0
   57.1310   28.8910   44.8880 C   0  0  0  0  0  0  0  0  0  0  0  0
   58.4220   28.6650   45.4370 C   0  0  0  0  0  0  0  0  0  0  0  0
   59.3770   29.4640   45.2250 O   0  0  0  0  0  0  0  0  0  0  0  0
   58.6180   27.5430   46.2670 C   0  0  0  0  0  0  0  0  0  0  0  0
   59.8120   27.2510   46.7940 C   0  0  0  0  0  0  0  0  0  0  0  0
   60.6798   27.8916   46.5785 H   0  0  0  0  0  0  0  0  0  0  0  0
   59.9262   26.3702   47.4430 H   0  0  0  0  0  0  0  0  0  0  0  0
   57.5670   26.7330   46.5520 N   0  0  0  0  0  0  0  0  0  0  0  0
   56.3310   26.9770   46.0580 C   0  0  0  0  0  0  0  0  0  0  0  0
   55.3790   26.2070   46.3540 O   0  0  0  0  0  0  0  0  0  0  0  0
   56.1160   28.0460   45.2460 N   0  0  0  0  0  0  0  0  0  0  0  0
   55.1480   28.1940   44.8750 H   0  0  0  0  0  0  0  0  0  0  0  0
  1  2  1  0
  2  3  2  0
  3  4  1  0
  3  5  1  0
  5  6  2  0
  6  7  1  0
  6  8  1  0
  8  9  1  0
  8 10  2  0
 10 11  1  0
 10 12  1  0
 12 13  1  0
 12 14  2  0
 14 15  1  0
  2 16  1  0
 16 17  1  0
 16 18  2  0
 18 19  1  0
 19 20  2  0
 19 21  1  0
 21 22  2  0
 22 23  1  0
 22 24  1  0
 21 25  1  0
 25 26  1  0
 26 27  2  0
 26 28  1  0
 28 29  1  0
 14  5  1  0
 28 18  1  0
M  CHG  1  25  -1
M  END
>  <UniqueID>  (47) 
47

>  <SMILES>  (47) 
C=c1[n-]c(=O)[nH]/c(=C/C=Cc2ccccc2)c1=O

>  <Energy>  (47) 
49.44181370832655

>  <Genealogy>  (47) 
C=c1[n-]c(=O)[nH]c(=CC=Cc2ccccc2)c1=O (protonated)
C=c1[n-]c(=O)[nH]/c(=C/C=Cc2ccccc2)c1=O (cis-trans isomerization)
C=c1[n-]c(=O)[nH]/c(=C/C=Cc2ccccc2)c1=O (3D coordinates assigned)
C=c1[n-]c(=O)[nH]/c(=C/C=Cc2ccccc2)c1=O (optimized conformer: 49.44181370832655 kcal/mol)

>  <smiles>  (47) 
C=c1[nH]c(=O)[nH]c(=CC=Cc2ccccc2)c1=O

>  <score_type>  (47) 
oracle

>  <origin>  (47) 
adg

>  <m_score__min__energy>  (47) 
-9.4499999999999993

>  <m_primary>  (47) 
energy

$$$$
47:0
     RDKit          3D

 38 40  0  0  0  0  0  0  0  0999 V2000
   56.3650   29.3946   44.7755 H   0  0  0  0  0  0  0  0  0  0  0  0
   56.7870   28.6570   45.4740 C   0  0  0  0  0  0  0  0  0  0  0  0
   56.1710   27.4580   45.6450 N   0  0  0  0  0  0  0  0  0  0  0  0
   56.6490   26.5110   46.5020 C   0  0  0  0  0  0  0  0  0  0  0  0
   56.0480   25.3660   46.6420 N   0  0  0  0  0  0  0  0  0  0  0  0
   55.2850   24.6890   45.6310 C   0  0  0  0  0  0  0  0  0  0  0  0
   54.0600   24.9560   45.5190 O   0  0  0  0  0  0  0  0  0  0  0  0
   55.9040   23.7440   44.6820 C   0  0  0  0  0  0  0  0  0  0  0  0
   55.2950   23.3690   43.1590 S   0  0  0  0  0  0  0  0  0  0  0  0
   56.5370   22.3290   42.7100 C   0  0  0  0  0  0  0  0  0  0  0  0
   56.6102   21.7862   41.7560 H   0  0  0  0  0  0  0  0  0  0  0  0
   57.4550   22.2730   43.7510 C   0  0  0  0  0  0  0  0  0  0  0  0
   58.3684   21.6611   43.7156 H   0  0  0  0  0  0  0  0  0  0  0  0
   57.1080   23.0690   44.8500 C   0  0  0  0  0  0  0  0  0  0  0  0
   57.7264   23.1519   45.7559 H   0  0  0  0  0  0  0  0  0  0  0  0
   57.8270   26.7600   47.2100 C   0  0  0  0  0  0  0  0  0  0  0  0
   58.2362   25.9977   47.8893 H   0  0  0  0  0  0  0  0  0  0  0  0
   58.4820   27.9830   47.0500 C   0  0  0  0  0  0  0  0  0  0  0  0
   59.4111   28.1830   47.6039 H   0  0  0  0  0  0  0  0  0  0  0  0
   57.9600   28.9590   46.1850 C   0  0  0  0  0  0  0  0  0  0  0  0
   58.6610   30.2550   46.0180 C   0  0  0  0  0  0  0  0  0  0  0  0
   59.8430   30.2570   45.5800 O   0  0  0  0  0  0  0  0  0  0  0  0
   58.0120   31.4980   46.3410 N   0  0  0  0  0  0  0  0  0  0  0  0
   57.0230   31.4880   46.6740 H   0  0  0  0  0  0  0  0  0  0  0  0
   58.6480   32.7810   46.1960 C   0  0  0  0  0  0  0  0  0  0  0  0
   59.2970   33.3780   47.2920 C   0  0  0  0  0  0  0  0  0  0  0  0
   59.3438   32.8469   48.2541 H   0  0  0  0  0  0  0  0  0  0  0  0
   59.8820   34.6390   47.1680 C   0  0  0  0  0  0  0  0  0  0  0  0
   60.3970   35.0921   48.0279 H   0  0  0  0  0  0  0  0  0  0  0  0
   59.8150   35.3260   45.9560 C   0  0  0  0  0  0  0  0  0  0  0  0
   60.2778   36.3194   45.8611 H   0  0  0  0  0  0  0  0  0  0  0  0
   59.1610   34.7540   44.8630 C   0  0  0  0  0  0  0  0  0  0  0  0
   59.1024   35.3047   43.9126 H   0  0  0  0  0  0  0  0  0  0  0  0
   58.5770   33.4800   44.9680 C   0  0  0  0  0  0  0  0  0  0  0  0
   57.8710   32.8860   43.7790 C   0  0  0  0  0  0  0  0  0  0  0  0
   57.0720   32.2138   44.1251 H   0  0  0  0  0  0  0  0  0  0  0  0
   57.4342   33.6923   43.1714 H   0  0  0  0  0  0  0  0  0  0  0  0
   58.5907   32.3178   43.1714 H   0  0  0  0  0  0  0  0  0  0  0  0
  1  2  1  0
  2  3  1  0
  3  4  1  0
  4  5  2  0
  5  6  1  0
  6  7  2  0
  6  8  1  0
  8  9  1  0
  9 10  1  0
 10 11  1  0
 10 12  2  0
 12 13  1  0
 12 14  1  0
 14 15  1  0
  4 16  1  0
 16 17  1  0
 16 18  2  0
 18 19  1  0
 18 20  1  0
 20 21  1  0
 21 22  2  0
 21 23  1  0
 23 24  1  0
 23 25  1  0
 25 26  2  0
 26 27  1  0
 26 28  1  0
 28 29  1  0
 28 30  2  0
 30 31  1  0
 30 32  1  0
 32 33  1  0
 32 34  2  0
 34 35  1  0
 35 36  1  0
 35 37  1  0
 35 38  1  0
 20  2  2  0
 34 25  1  0
 14  8  2  0
M  CHG  1   3  -1
M  END
>  <UniqueID>  (48) 
48

>  <SMILES>  (48) 
Cc1ccccc1NC(=O)c1cc/c(=N/C(=O)c2cccs2)[n-]c1

>  <Energy>  (48) 
80.76957457615072

>  <Genealogy>  (48) 
Cc1ccccc1NC(=O)c1ccc(=NC(=O)c2cccs2)[n-]c1 (protonated)
Cc1ccccc1NC(=O)c1cc/c(=N/C(=O)c2cccs2)[n-]c1 (cis-trans isomerization)
Cc1ccccc1NC(=O)c1cc/c(=N/C(=O)c2cccs2)[n-]c1 (3D coordinates assigned)
Cc1ccccc1NC(=O)c1cc/c(=N/C(=O)c2cccs2)[n-]c1 (optimized conformer: 80.76957457615072 kcal/mol)

>  <smiles>  (48) 
Cc1ccccc1NC(=O)c1ccc(=NC(=O)c2cccs2)[nH]c1

>  <score_type>  (48) 
oracle

>  <origin>  (48) 
adg

>  <m_score__min__energy>  (48) 
-9.8100000000000005

>  <m_primary>  (48) 
energy

$$$$
48:0
     RDKit          3D

 40 41  0  0  0  0  0  0  0  0999 V2000
   55.1430   26.6250   46.0000 O   0  0  0  0  0  0  0  0  0  0  0  0
   55.9740   25.8060   46.4780 C   0  0  0  0  0  0  0  0  0  0  0  0
   57.4120   26.1940   46.5880 C   0  0  0  0  0  0  0  0  0  0  0  0
   57.6580   27.3990   45.8000 N   0  0  0  0  0  0  0  0  0  0  0  0
   58.9670   27.7380   45.3240 C   0  0  0  0  0  0  0  0  0  0  0  0
   59.9880   27.2130   45.8420 O   0  0  0  0  0  0  0  0  0  0  0  0
   59.1280   28.6510   44.1500 C   0  0  0  0  0  0  0  0  0  0  0  0
   57.8340   29.1970   43.7720 N   0  0  0  0  0  0  0  0  0  0  0  0
   57.0950   30.1170   44.5830 C   0  0  0  0  0  0  0  0  0  0  0  0
   55.9100   29.8450   44.9170 O   0  0  0  0  0  0  0  0  0  0  0  0
   57.7140   31.3910   45.0190 C   0  0  0  0  0  0  0  0  0  0  0  0
   58.2890   31.5090   46.2970 C   0  0  0  0  0  0  0  0  0  0  0  0
   58.8710   32.7140   46.7030 C   0  0  0  0  0  0  0  0  0  0  0  0
   58.8880   33.8120   45.8400 C   0  0  0  0  0  0  0  0  0  0  0  0
   59.6200   35.3210   46.3500 Cl  0  0  0  0  0  0  0  0  0  0  0  0
   58.3200   33.7050   44.5680 C   0  0  0  0  0  0  0  0  0  0  0  0
   57.7360   32.5030   44.1570 C   0  0  0  0  0  0  0  0  0  0  0  0
   55.5630   24.4880   46.8530 N   0  0  0  0  0  0  0  0  0  0  0  0
   56.4100   23.3090   46.7190 C   0  0  0  0  0  0  0  0  0  0  0  0
   56.4840   22.8860   45.2800 C   0  0  0  0  0  0  0  0  0  0  0  0
   57.3750   21.8850   44.8660 C   0  0  0  0  0  0  0  0  0  0  0  0
   57.4420   21.5460   43.5140 C   0  0  0  0  0  0  0  0  0  0  0  0
   56.6260   22.2050   42.5910 C   0  0  0  0  0  0  0  0  0  0  0  0
   55.7590   23.2030   43.0370 C   0  0  0  0  0  0  0  0  0  0  0  0
   55.7060   23.5200   44.3590 N   0  0  0  0  0  0  0  0  0  0  0  0
   57.6584   26.3897   47.6420 H   0  0  0  0  0  0  0  0  0  0  0  0
   58.0405   25.3752   46.2078 H   0  0  0  0  0  0  0  0  0  0  0  0
   56.8340   27.9340   45.4430 H   0  0  0  0  0  0  0  0  0  0  0  0
   59.8079   29.4734   44.4170 H   0  0  0  0  0  0  0  0  0  0  0  0
   59.5460   28.0859   43.3039 H   0  0  0  0  0  0  0  0  0  0  0  0
   58.2809   30.6480   46.9816 H   0  0  0  0  0  0  0  0  0  0  0  0
   59.3168   32.7973   47.7052 H   0  0  0  0  0  0  0  0  0  0  0  0
   58.3323   34.5693   43.8877 H   0  0  0  0  0  0  0  0  0  0  0  0
   57.2911   32.4261   43.1539 H   0  0  0  0  0  0  0  0  0  0  0  0
   57.4215   23.5450   47.0811 H   0  0  0  0  0  0  0  0  0  0  0  0
   55.9809   22.4887   47.3132 H   0  0  0  0  0  0  0  0  0  0  0  0
   58.0145   21.3724   45.5996 H   0  0  0  0  0  0  0  0  0  0  0  0
   58.1355   20.7620   43.1758 H   0  0  0  0  0  0  0  0  0  0  0  0
   56.6667   21.9399   41.5242 H   0  0  0  0  0  0  0  0  0  0  0  0
   55.1173   23.7343   42.3187 H   0  0  0  0  0  0  0  0  0  0  0  0
  1  2  2  0
  2  3  1  0
  3  4  1  0
  4  5  1  0
  5  6  2  0
  5  7  1  0
  7  8  1  0
  8  9  1  0
  9 10  2  0
  9 11  1  0
 11 12  2  0
 12 13  1  0
 13 14  2  0
 14 15  1  0
 14 16  1  0
 16 17  2  0
  2 18  1  0
 18 19  1  0
 19 20  1  0
 20 21  2  0
 21 22  1  0
 22 23  2  0
 23 24  1  0
 24 25  2  0
 17 11  1  0
 25 20  1  0
  3 26  1  0
  3 27  1  0
  4 28  1  0
  7 29  1  0
  7 30  1  0
 12 31  1  0
 13 32  1  0
 16 33  1  0
 17 34  1  0
 19 35  1  0
 19 36  1  0
 21 37  1  0
 22 38  1  0
 23 39  1  0
 24 40  1  0
M  CHG  2   8  -1  18  -1
M  END
>  <UniqueID>  (49) 
49

>  <SMILES>  (49) 
O=C(CNC(=O)C[N-]C(=O)c1ccc(Cl)cc1)[N-]Cc1ccccn1

>  <Energy>  (49) 
31.803433518726308

>  <Genealogy>  (49) 
O=C(CNC(=O)C[N-]C(=O)c1ccc(Cl)cc1)[N-]Cc1ccccn1 (protonated)
O=C(CNC(=O)C[N-]C(=O)c1ccc(Cl)cc1)[N-]Cc1ccccn1 (3D coordinates assigned)
O=C(CNC(=O)C[N-]C(=O)c1ccc(Cl)cc1)[N-]Cc1ccccn1 (optimized conformer: 31.803433518726308 kcal/mol)

>  <smiles>  (49) 
O=C(CNC(=O)CNC(=O)c1ccc(Cl)cc1)NCc1ccccn1

>  <score_type>  (49) 
oracle

>  <origin>  (49) 
adg

>  <m_score__min__energy>  (49) 
-11.619999999999999

>  <m_primary>  (49) 
energy

$$$$
49:0
     RDKit          3D

 67 71  0  0  0  0  0  0  0  0999 V2000
   64.0118   30.4653   51.7752 H   0  0  0  0  0  0  0  0  0  0  0  0
   63.0550   30.9530   51.5370 C   0  0  0  0  0  0  0  0  0  0  0  0
   61.8160   30.1910   51.8160 C   0  0  0  0  0  0  0  0  0  0  0  0
   61.4210   30.1230   53.0100 O   0  0  0  0  0  0  0  0  0  0  0  0
   61.0430   29.4990   50.7530 C   0  0  0  0  0  0  0  0  0  0  0  0
   60.0960   30.2090   49.9970 C   0  0  0  0  0  0  0  0  0  0  0  0
   59.8843   31.2620   50.2345 H   0  0  0  0  0  0  0  0  0  0  0  0
   59.4210   29.5840   48.9440 C   0  0  0  0  0  0  0  0  0  0  0  0
   58.6841   30.1506   48.3559 H   0  0  0  0  0  0  0  0  0  0  0  0
   59.6760   28.2390   48.6310 C   0  0  0  0  0  0  0  0  0  0  0  0
   59.0060   27.5940   47.4800 C   0  0  0  0  0  0  0  0  0  0  0  0
   58.6920   26.2250   47.5170 C   0  0  0  0  0  0  0  0  0  0  0  0
   58.9285   25.6326   48.4131 H   0  0  0  0  0  0  0  0  0  0  0  0
   58.0800   25.6130   46.4190 C   0  0  0  0  0  0  0  0  0  0  0  0
   57.8537   24.5369   46.4470 H   0  0  0  0  0  0  0  0  0  0  0  0
   57.7550   26.3630   45.2870 C   0  0  0  0  0  0  0  0  0  0  0  0
   57.2839   25.8727   44.4223 H   0  0  0  0  0  0  0  0  0  0  0  0
   58.0270   27.7420   45.2470 C   0  0  0  0  0  0  0  0  0  0  0  0
   57.6790   28.5480   44.1070 N   0  0  0  0  0  0  0  0  0  0  0  0
   58.4230   28.7300   43.4000 H   0  0  0  0  0  0  0  0  0  0  0  0
   56.4490   29.2890   43.9880 C   0  0  0  0  0  0  0  0  0  0  0  0
   55.5410   29.1680   44.8540 O   0  0  0  0  0  0  0  0  0  0  0  0
   56.2740   30.2380   42.8270 C   0  0  0  0  0  0  0  0  0  0  0  0
   55.2597   30.6610   42.8750 H   0  0  0  0  0  0  0  0  0  0  0  0
   56.4452   29.6558   41.9095 H   0  0  0  0  0  0  0  0  0  0  0  0
   57.2640   31.3770   42.8150 C   0  0  0  0  0  0  0  0  0  0  0  0
   57.7530   32.0560   41.6980 C   0  0  0  0  0  0  0  0  0  0  0  0
   57.5380   31.7860   40.6536 H   0  0  0  0  0  0  0  0  0  0  0  0
   58.5100   33.0680   42.0750 O   0  0  0  0  0  0  0  0  0  0  0  0
   58.5150   33.0970   43.3860 C   0  0  0  0  0  0  0  0  0  0  0  0
   59.1410   34.0290   44.2070 C   0  0  0  0  0  0  0  0  0  0  0  0
   59.7660   34.8281   43.7817 H   0  0  0  0  0  0  0  0  0  0  0  0
   58.9510   33.9200   45.6050 C   0  0  0  0  0  0  0  0  0  0  0  0
   59.5030   34.9440   46.5170 C   0  0  0  0  0  0  0  0  0  0  0  0
   59.9980   35.9940   46.0340 O   0  0  0  0  0  0  0  0  0  0  0  0
   59.4710   34.7930   47.9430 N   0  0  0  0  0  0  0  0  0  0  0  0
   59.9460   33.6070   48.6520 C   0  0  0  0  0  0  0  0  0  0  0  0
   61.0277   33.4909   48.4897 H   0  0  0  0  0  0  0  0  0  0  0  0
   59.4219   32.7173   48.2727 H   0  0  0  0  0  0  0  0  0  0  0  0
   59.6700   33.7640   50.1390 C   0  0  0  0  0  0  0  0  0  0  0  0
   60.4850   33.3004   50.7142 H   0  0  0  0  0  0  0  0  0  0  0  0
   59.6067   34.8333   50.3893 H   0  0  0  0  0  0  0  0  0  0  0  0
   58.7186   33.2719   50.3893 H   0  0  0  0  0  0  0  0  0  0  0  0
   58.1290   32.8860   46.1250 C   0  0  0  0  0  0  0  0  0  0  0  0
   57.9579   32.8199   47.2096 H   0  0  0  0  0  0  0  0  0  0  0  0
   57.5310   31.9450   45.2670 C   0  0  0  0  0  0  0  0  0  0  0  0
   56.9115   31.1275   45.6644 H   0  0  0  0  0  0  0  0  0  0  0  0
   57.7490   32.0820   43.8960 C   0  0  0  0  0  0  0  0  0  0  0  0
   58.6820   28.3420   46.3330 C   0  0  0  0  0  0  0  0  0  0  0  0
   58.9452   29.4091   46.2873 H   0  0  0  0  0  0  0  0  0  0  0  0
   60.5820   27.5150   49.4200 C   0  0  0  0  0  0  0  0  0  0  0  0
   60.7668   26.4523   49.2042 H   0  0  0  0  0  0  0  0  0  0  0  0
   61.2510   28.1350   50.4780 C   0  0  0  0  0  0  0  0  0  0  0  0
   61.9457   27.5524   51.1008 H   0  0  0  0  0  0  0  0  0  0  0  0
   63.1070   32.1930   51.0160 C   0  0  0  0  0  0  0  0  0  0  0  0
   63.1789   33.0360   51.7190 H   0  0  0  0  0  0  0  0  0  0  0  0
   63.0750   32.5100   49.5720 C   0  0  0  0  0  0  0  0  0  0  0  0
   63.3890   33.8080   49.1470 C   0  0  0  0  0  0  0  0  0  0  0  0
   63.6316   34.5838   49.8882 H   0  0  0  0  0  0  0  0  0  0  0  0
   63.3950   34.1210   47.7810 C   0  0  0  0  0  0  0  0  0  0  0  0
   63.6692   35.1342   47.4521 H   0  0  0  0  0  0  0  0  0  0  0  0
   63.0530   33.1480   46.8330 C   0  0  0  0  0  0  0  0  0  0  0  0
   63.0559   33.3966   45.7615 H   0  0  0  0  0  0  0  0  0  0  0  0
   62.7080   31.8600   47.2530 C   0  0  0  0  0  0  0  0  0  0  0  0
   62.4302   31.0972   46.5107 H   0  0  0  0  0  0  0  0  0  0  0  0
   62.7150   31.5380   48.6160 C   0  0  0  0  0  0  0  0  0  0  0  0
   62.4389   30.5242   48.9416 H   0  0  0  0  0  0  0  0  0  0  0  0
  1  2  1  0
  2  3  1  0
  3  4  2  0
  3  5  1  0
  5  6  2  0
  6  7  1  0
  6  8  1  0
  8  9  1  0
  8 10  2  0
 10 11  1  0
 11 12  2  0
 12 13  1  0
 12 14  1  0
 14 15  1  0
 14 16  2  0
 16 17  1  0
 16 18  1  0
 18 19  1  0
 19 20  1  0
 19 21  1  0
 21 22  2  0
 21 23  1  0
 23 24  1  0
 23 25  1  0
 23 26  1  0
 26 27  2  0
 27 28  1  0
 27 29  1  0
 29 30  1  0
 30 31  2  0
 31 32  1  0
 31 33  1  0
 33 34  1  0
 34 35  2  0
 34 36  1  0
 36 37  1  0
 37 38  1  0
 37 39  1  0
 37 40  1  0
 40 41  1  0
 40 42  1  0
 40 43  1  0
 33 44  2  0
 44 45  1  0
 44 46  1  0
 46 47  1  0
 46 48  2  0
 18 49  2  0
 49 50  1  0
 10 51  1  0
 51 52  1  0
 51 53  2  0
 53 54  1  0
  2 55  2  0
 55 56  1  0
 55 57  1  0
 57 58  2  0
 58 59  1  0
 58 60  1  0
 60 61  1  0
 60 62  2  0
 62 63  1  0
 62 64  1  0
 64 65  1  0
 64 66  2  0
 66 67  1  0
 53  5  1  0
 66 57  1  0
 49 11  1  0
 48 26  1  0
 48 30  1  0
M  CHG  1  36  -1
M  END
>  <UniqueID>  (50) 
50

>  <SMILES>  (50) 
CC[N-]C(=O)c1ccc2c(CC(=O)Nc3cccc(-c4ccc(C(=O)/C=C\c5ccccc5)cc4)c3)coc2c1

>  <Energy>  (50) 
129.33912829146635

>  <Genealogy>  (50) 
CC[N-]C(=O)c1ccc2c(CC(=O)Nc3cccc(-c4ccc(C(=O)C=Cc5ccccc5)cc4)c3)coc2c1 (protonated)
CC[N-]C(=O)c1ccc2c(CC(=O)Nc3cccc(-c4ccc(C(=O)/C=C\c5ccccc5)cc4)c3)coc2c1 (cis-trans isomerization)
CC[N-]C(=O)c1ccc2c(CC(=O)Nc3cccc(-c4ccc(C(=O)/C=C\c5ccccc5)cc4)c3)coc2c1 (3D coordinates assigned)
CC[N-]C(=O)c1ccc2c(CC(=O)Nc3cccc(-c4ccc(C(=O)/C=C\c5ccccc5)cc4)c3)coc2c1 (optimized conformer: 129.33912829146635 kcal/mol)

>  <smiles>  (50) 
CCNC(=O)c1ccc2c(CC(=O)Nc3cccc(-c4ccc(C(=O)C=Cc5ccccc5)cc4)c3)coc2c1

>  <score_type>  (50) 
oracle

>  <origin>  (50) 
adg

>  <m_score__min__energy>  (50) 
-13.960000000000001

>  <m_primary>  (50) 
energy

$$$$
50:0
     RDKit          3D

 41 44  0  0  0  0  0  0  0  0999 V2000
   57.5310   22.9590   46.9440 O   0  0  0  0  0  0  0  0  0  0  0  0
   57.2620   24.1600   46.6790 C   0  0  0  0  0  0  0  0  0  0  0  0
   55.9390   24.5580   46.4830 C   0  0  0  0  0  0  0  0  0  0  0  0
   55.6850   25.8990   46.1920 C   0  0  0  0  0  0  0  0  0  0  0  0
   54.3820   26.3360   45.9930 O   0  0  0  0  0  0  0  0  0  0  0  0
   56.7160   26.7800   46.1050 N   0  0  0  0  0  0  0  0  0  0  0  0
   57.9980   26.3730   46.2960 C   0  0  0  0  0  0  0  0  0  0  0  0
   59.3400   27.5490   46.1730 S   0  0  0  0  0  0  0  0  0  0  0  0
   58.2890   28.9920   46.5540 C   0  0  0  0  0  0  0  0  0  0  0  0
   57.7450   29.5800   45.2780 C   0  0  0  0  0  0  0  0  0  0  0  0
   57.4690   28.7220   44.1990 C   0  0  0  0  0  0  0  0  0  0  0  0
   56.9990   29.2330   42.9870 C   0  0  0  0  0  0  0  0  0  0  0  0
   56.8060   30.6070   42.8350 C   0  0  0  0  0  0  0  0  0  0  0  0
   57.0710   31.4720   43.8970 C   0  0  0  0  0  0  0  0  0  0  0  0
   57.5210   30.9710   45.1260 C   0  0  0  0  0  0  0  0  0  0  0  0
   57.7710   31.8800   46.1620 O   0  0  0  0  0  0  0  0  0  0  0  0
   59.0300   32.4320   46.4430 C   0  0  0  0  0  0  0  0  0  0  0  0
   59.2380   33.7900   46.1800 C   0  0  0  0  0  0  0  0  0  0  0  0
   60.4810   34.3810   46.4190 C   0  0  0  0  0  0  0  0  0  0  0  0
   61.5370   33.6130   46.9300 C   0  0  0  0  0  0  0  0  0  0  0  0
   62.7980   34.1890   47.1510 C   0  0  0  0  0  0  0  0  0  0  0  0
   63.8450   33.4110   47.6540 C   0  0  0  0  0  0  0  0  0  0  0  0
   63.6420   32.0580   47.9400 C   0  0  0  0  0  0  0  0  0  0  0  0
   62.3910   31.4740   47.7240 C   0  0  0  0  0  0  0  0  0  0  0  0
   61.3320   32.2420   47.2190 C   0  0  0  0  0  0  0  0  0  0  0  0
   60.0760   31.6630   46.9860 C   0  0  0  0  0  0  0  0  0  0  0  0
   58.2640   25.0710   46.5810 N   0  0  0  0  0  0  0  0  0  0  0  0
   55.1159   23.8320   46.5561 H   0  0  0  0  0  0  0  0  0  0  0  0
   57.4532   28.6756   47.1954 H   0  0  0  0  0  0  0  0  0  0  0  0
   58.8905   29.7511   47.0755 H   0  0  0  0  0  0  0  0  0  0  0  0
   57.6246   27.6388   44.3102 H   0  0  0  0  0  0  0  0  0  0  0  0
   56.7807   28.5518   42.1513 H   0  0  0  0  0  0  0  0  0  0  0  0
   56.4445   31.0083   41.8767 H   0  0  0  0  0  0  0  0  0  0  0  0
   56.9257   32.5548   43.7688 H   0  0  0  0  0  0  0  0  0  0  0  0
   58.4138   34.3992   45.7806 H   0  0  0  0  0  0  0  0  0  0  0  0
   60.6315   35.4497   46.2062 H   0  0  0  0  0  0  0  0  0  0  0  0
   62.9625   35.2536   46.9282 H   0  0  0  0  0  0  0  0  0  0  0  0
   64.8321   33.8653   47.8253 H   0  0  0  0  0  0  0  0  0  0  0  0
   64.4694   31.4511   48.3363 H   0  0  0  0  0  0  0  0  0  0  0  0
   62.2365   30.4088   47.9508 H   0  0  0  0  0  0  0  0  0  0  0  0
   59.9078   30.6034   47.2287 H   0  0  0  0  0  0  0  0  0  0  0  0
  1  2  2  0
  2  3  1  0
  3  4  2  0
  4  5  1  0
  4  6  1  0
  6  7  1  0
  7  8  1  0
  8  9  1  0
  9 10  1  0
 10 11  2  0
 11 12  1  0
 12 13  2  0
 13 14  1  0
 14 15  2  0
 15 16  1  0
 16 17  1  0
 17 18  2  0
 18 19  1  0
 19 20  2  0
 20 21  1  0
 21 22  2  0
 22 23  1  0
 23 24  2  0
 24 25  1  0
 25 26  2  0
  7 27  2  0
 27  2  1  0
 15 10  1  0
 26 17  1  0
 25 20  1  0
  3 28  1  0
  9 29  1  0
  9 30  1  0
 11 31  1  0
 12 32  1  0
 13 33  1  0
 14 34  1  0
 18 35  1  0
 19 36  1  0
 21 37  1  0
 22 38  1  0
 23 39  1  0
 24 40  1  0
 26 41  1  0
M  CHG  2   5  -1   6  -1
M  END
>  <UniqueID>  (51) 
51

>  <SMILES>  (51) 
O=c1cc([O-])[n-]c(SCc2ccccc2Oc2ccc3ccccc3c2)n1

>  <Energy>  (51) 
51.967928534841974

>  <Genealogy>  (51) 
O=c1cc([O-])[n-]c(SCc2ccccc2Oc2ccc3ccccc3c2)n1 (protonated)
O=c1cc([O-])[n-]c(SCc2ccccc2Oc2ccc3ccccc3c2)n1 (3D coordinates assigned)
O=c1cc([O-])[n-]c(SCc2ccccc2Oc2ccc3ccccc3c2)n1 (optimized conformer: 51.967928534841974 kcal/mol)

>  <smiles>  (51) 
O=c1cc(O)[nH]c(SCc2ccccc2Oc2ccc3ccccc3c2)n1

>  <score_type>  (51) 
oracle

>  <origin>  (51) 
adg

>  <m_score__min__energy>  (51) 
-14.56

>  <m_primary>  (51) 
energy

$$$$
51:0
     RDKit          3D

 42 44  0  0  0  0  0  0  0  0999 V2000
   60.1390   29.6980   46.3290 C   0  0  0  0  0  0  0  0  0  0  0  0
   59.2690   30.6080   45.8630 C   0  0  0  0  0  0  0  0  0  0  0  0
   58.2600   30.3870   44.9210 C   0  0  0  0  0  0  0  0  0  0  0  0
   57.9650   29.2330   44.2910 C   0  0  0  0  0  0  0  0  0  0  0  0
   57.3920   28.0530   44.9780 C   0  0  0  0  0  0  0  0  0  0  0  0
   56.0180   27.9580   45.2560 C   0  0  0  0  0  0  0  0  0  0  0  0
   55.1490   28.9810   44.8900 O   0  0  0  0  0  0  0  0  0  0  0  0
   55.5290   26.8660   45.9050 N   0  0  0  0  0  0  0  0  0  0  0  0
   56.3590   25.8700   46.3170 C   0  0  0  0  0  0  0  0  0  0  0  0
   55.8920   24.8670   46.9200 O   0  0  0  0  0  0  0  0  0  0  0  0
   57.6930   25.9560   46.0860 N   0  0  0  0  0  0  0  0  0  0  0  0
   58.2280   27.0220   45.4360 C   0  0  0  0  0  0  0  0  0  0  0  0
   59.4710   27.0690   45.2420 O   0  0  0  0  0  0  0  0  0  0  0  0
   57.6400   31.6130   44.7170 C   0  0  0  0  0  0  0  0  0  0  0  0
   58.2730   32.5190   45.5450 C   0  0  0  0  0  0  0  0  0  0  0  0
   57.9370   33.9770   45.6300 C   0  0  0  0  0  0  0  0  0  0  0  0
   59.2640   31.9130   46.2360 N   0  0  0  0  0  0  0  0  0  0  0  0
   60.1310   32.5500   47.1900 C   0  0  0  0  0  0  0  0  0  0  0  0
   61.2790   33.2230   46.7460 C   0  0  0  0  0  0  0  0  0  0  0  0
   62.1270   33.8480   47.6620 C   0  0  0  0  0  0  0  0  0  0  0  0
   61.8300   33.8130   49.0270 C   0  0  0  0  0  0  0  0  0  0  0  0
   60.6870   33.1490   49.4780 C   0  0  0  0  0  0  0  0  0  0  0  0
   59.8320   32.5020   48.5650 C   0  0  0  0  0  0  0  0  0  0  0  0
   58.6610   31.8490   48.9800 O   0  0  0  0  0  0  0  0  0  0  0  0
   58.6180   30.6590   49.7150 C   0  0  0  0  0  0  0  0  0  0  0  0
   59.6940   29.6460   49.5240 C   0  0  0  0  0  0  0  0  0  0  0  0
   57.7430   30.4740   50.6040 O   0  0  0  0  0  0  0  0  0  0  0  0
   60.8941   29.9899   47.0737 H   0  0  0  0  0  0  0  0  0  0  0  0
   60.0968   28.6604   45.9661 H   0  0  0  0  0  0  0  0  0  0  0  0
   58.1599   29.1639   43.2106 H   0  0  0  0  0  0  0  0  0  0  0  0
   54.5040   26.8010   46.0990 H   0  0  0  0  0  0  0  0  0  0  0  0
   56.8069   31.8217   44.0297 H   0  0  0  0  0  0  0  0  0  0  0  0
   57.8680   34.2764   46.6862 H   0  0  0  0  0  0  0  0  0  0  0  0
   58.7234   34.5641   45.1331 H   0  0  0  0  0  0  0  0  0  0  0  0
   56.9730   34.1607   45.1331 H   0  0  0  0  0  0  0  0  0  0  0  0
   61.5120   33.2584   45.6715 H   0  0  0  0  0  0  0  0  0  0  0  0
   63.0296   34.3684   47.3090 H   0  0  0  0  0  0  0  0  0  0  0  0
   62.4973   34.3090   49.7472 H   0  0  0  0  0  0  0  0  0  0  0  0
   60.4533   33.1313   50.5527 H   0  0  0  0  0  0  0  0  0  0  0  0
   60.0556   29.3056   50.5055 H   0  0  0  0  0  0  0  0  0  0  0  0
   59.2947   28.7884   48.9627 H   0  0  0  0  0  0  0  0  0  0  0  0
   60.5260   30.0962   48.9627 H   0  0  0  0  0  0  0  0  0  0  0  0
  1  2  2  0
  2  3  1  0
  3  4  2  3
  4  5  1  0
  5  6  2  0
  6  7  1  0
  6  8  1  0
  8  9  1  0
  9 10  2  0
  9 11  1  0
 11 12  1  0
 12 13  2  0
  3 14  1  0
 14 15  2  0
 15 16  1  0
 15 17  1  0
 17 18  1  0
 18 19  2  0
 19 20  1  0
 20 21  2  0
 21 22  1  0
 22 23  2  0
 23 24  1  0
 24 25  1  0
 25 26  1  0
 25 27  2  0
 17  2  1  0
 23 18  1  0
 12  5  1  0
  1 28  1  0
  1 29  1  0
  4 30  1  0
  8 31  1  0
 14 32  1  0
 16 33  1  0
 16 34  1  0
 16 35  1  0
 19 36  1  0
 20 37  1  0
 21 38  1  0
 22 39  1  0
 26 40  1  0
 26 41  1  0
 26 42  1  0
M  CHG  2   7  -1  11  -1
M  END
>  <UniqueID>  (52) 
52

>  <SMILES>  (52) 
C=c1c(=Cc2c([O-])[nH]c(=O)[n-]c2=O)cc(C)n1-c1ccccc1OC(C)=O

>  <Energy>  (52) 
91.24522806128377

>  <Genealogy>  (52) 
C=c1c(=Cc2c([O-])[nH]c(=O)[n-]c2=O)cc(C)n1-c1ccccc1OC(C)=O (protonated)
C=c1c(=Cc2c([O-])[nH]c(=O)[n-]c2=O)cc(C)n1-c1ccccc1OC(C)=O (3D coordinates assigned)
C=c1c(=Cc2c([O-])[nH]c(=O)[n-]c2=O)cc(C)n1-c1ccccc1OC(C)=O (optimized conformer: 91.24522806128377 kcal/mol)

>  <smiles>  (52) 
C=c1c(=Cc2c(O)[nH]c(=O)[nH]c2=O)cc(C)n1-c1ccccc1OC(C)=O

>  <score_type>  (52) 
oracle

>  <origin>  (52) 
adg

>  <m_score__min__energy>  (52) 
-13.6

>  <m_primary>  (52) 
energy

$$$$
52:0
     RDKit          3D

 48 51  0  0  0  0  0  0  0  0999 V2000
   58.3402   22.5014   50.4680 H   0  0  0  0  0  0  0  0  0  0  0  0
   57.4460   21.9590   50.1270 C   0  0  0  0  0  0  0  0  0  0  0  0
   57.3200   21.4520   48.8820 N   0  0  0  0  0  0  0  0  0  0  0  0
   56.1080   20.8720   48.8970 C   0  0  0  0  0  0  0  0  0  0  0  0
   55.4760   20.2180   47.7100 C   0  0  0  0  0  0  0  0  0  0  0  0
   54.9975   19.2785   48.0234 H   0  0  0  0  0  0  0  0  0  0  0  0
   56.2507   20.0089   46.9576 H   0  0  0  0  0  0  0  0  0  0  0  0
   54.4450   21.1250   47.1150 C   0  0  0  0  0  0  0  0  0  0  0  0
   54.7450   22.4000   46.7420 N   0  0  0  0  0  0  0  0  0  0  0  0
   53.6590   23.0510   46.2720 C   0  0  0  0  0  0  0  0  0  0  0  0
   53.7100   24.2940   45.8970 N   0  0  0  0  0  0  0  0  0  0  0  0
   54.8970   25.0200   45.5510 C   0  0  0  0  0  0  0  0  0  0  0  0
   55.7260   24.4870   44.7670 O   0  0  0  0  0  0  0  0  0  0  0  0
   55.1170   26.3520   46.0440 N   0  0  0  0  0  0  0  0  0  0  0  0
   54.4080   26.7840   46.6760 H   0  0  0  0  0  0  0  0  0  0  0  0
   56.3430   27.0670   45.8320 C   0  0  0  0  0  0  0  0  0  0  0  0
   57.5440   26.4930   46.2560 C   0  0  0  0  0  0  0  0  0  0  0  0
   57.5362   25.5130   46.7556 H   0  0  0  0  0  0  0  0  0  0  0  0
   58.7510   27.1560   46.0490 C   0  0  0  0  0  0  0  0  0  0  0  0
   59.6926   26.6851   46.3679 H   0  0  0  0  0  0  0  0  0  0  0  0
   58.7780   28.4140   45.4400 C   0  0  0  0  0  0  0  0  0  0  0  0
   60.3610   29.1330   45.1610 Cl  0  0  0  0  0  0  0  0  0  0  0  0
   57.5660   29.0390   45.0570 C   0  0  0  0  0  0  0  0  0  0  0  0
   57.5280   30.6480   44.2990 S   0  0  0  0  0  0  0  0  0  0  0  0
   58.7740   30.8270   43.4760 O   0  0  0  0  0  0  0  0  0  0  0  0
   56.3510   30.7910   43.3750 O   0  0  0  0  0  0  0  0  0  0  0  0
   57.4750   31.8760   45.5400 N   0  0  0  0  0  0  0  0  0  0  0  0
   57.8580   33.1800   44.9790 C   0  0  0  0  0  0  0  0  0  0  0  0
   58.8574   33.1007   44.5264 H   0  0  0  0  0  0  0  0  0  0  0  0
   57.1205   33.4715   44.2167 H   0  0  0  0  0  0  0  0  0  0  0  0
   57.8850   34.2540   46.0870 C   0  0  0  0  0  0  0  0  0  0  0  0
   58.8869   34.7069   46.1184 H   0  0  0  0  0  0  0  0  0  0  0  0
   57.1165   35.0049   45.8515 H   0  0  0  0  0  0  0  0  0  0  0  0
   57.5890   33.7090   47.3610 O   0  0  0  0  0  0  0  0  0  0  0  0
   58.4990   32.6690   47.6560 C   0  0  0  0  0  0  0  0  0  0  0  0
   59.5231   33.0690   47.6213 H   0  0  0  0  0  0  0  0  0  0  0  0
   58.2659   32.2790   48.6578 H   0  0  0  0  0  0  0  0  0  0  0  0
   58.3780   31.5110   46.6440 C   0  0  0  0  0  0  0  0  0  0  0  0
   59.3736   31.2830   46.2356 H   0  0  0  0  0  0  0  0  0  0  0  0
   57.9666   30.6315   47.1609 H   0  0  0  0  0  0  0  0  0  0  0  0
   56.3510   28.3480   45.2510 C   0  0  0  0  0  0  0  0  0  0  0  0
   55.1450   28.9390   44.8830 O   0  0  0  0  0  0  0  0  0  0  0  0
   52.2780   22.0820   46.3370 S   0  0  0  0  0  0  0  0  0  0  0  0
   53.1070   20.7630   46.9710 C   0  0  0  0  0  0  0  0  0  0  0  0
   52.6700   19.7865   47.2269 H   0  0  0  0  0  0  0  0  0  0  0  0
   55.5240   21.0530   50.1290 C   0  0  0  0  0  0  0  0  0  0  0  0
   54.5262   20.6955   50.4233 H   0  0  0  0  0  0  0  0  0  0  0  0
   56.3720   21.7380   50.9140 N   0  0  0  0  0  0  0  0  0  0  0  0
  1  2  1  0
  2  3  2  0
  3  4  1  0
  4  5  1  0
  5  6  1  0
  5  7  1  0
  5  8  1  0
  8  9  1  0
  9 10  1  0
 10 11  2  0
 11 12  1  0
 12 13  2  0
 12 14  1  0
 14 15  1  0
 14 16  1  0
 16 17  2  0
 17 18  1  0
 17 19  1  0
 19 20  1  0
 19 21  2  0
 21 22  1  0
 21 23  1  0
 23 24  1  0
 24 25  2  0
 24 26  2  0
 24 27  1  0
 27 28  1  0
 28 29  1  0
 28 30  1  0
 28 31  1  0
 31 32  1  0
 31 33  1  0
 31 34  1  0
 34 35  1  0
 35 36  1  0
 35 37  1  0
 35 38  1  0
 38 39  1  0
 38 40  1  0
 23 41  2  0
 41 42  1  0
 10 43  1  0
 43 44  1  0
 44 45  1  0
  4 46  2  0
 46 47  1  0
 46 48  1  0
 48  2  1  0
 44  8  2  0
 41 16  1  0
 38 27  1  0
M  CHG  3   9  -1  42  -1  48  -1
M  END
>  <UniqueID>  (53) 
53

>  <SMILES>  (53) 
O=C(/N=c1/[n-]c(Cc2c[n-]cn2)cs1)Nc1ccc(Cl)c(S(=O)(=O)N2CCOCC2)c1[O-]

>  <Energy>  (53) 
129.32181790336585

>  <Genealogy>  (53) 
O=C(N=c1[n-]c(Cc2c[n-]cn2)cs1)Nc1ccc(Cl)c(S(=O)(=O)N2CCOCC2)c1[O-] (protonated)
O=C(/N=c1/[n-]c(Cc2c[n-]cn2)cs1)Nc1ccc(Cl)c(S(=O)(=O)N2CCOCC2)c1[O-] (cis-trans isomerization)
O=C(/N=c1/[n-]c(Cc2c[n-]cn2)cs1)Nc1ccc(Cl)c(S(=O)(=O)N2CCOCC2)c1[O-] (3D coordinates assigned)
O=C(/N=c1/[n-]c(Cc2c[n-]cn2)cs1)Nc1ccc(Cl)c(S(=O)(=O)N2CCOCC2)c1[O-] (nonaromatic ring conformer: 129.32181790336585 kcal/mol)

>  <smiles>  (53) 
O=C(N=c1[nH]c(Cc2c[nH]cn2)cs1)Nc1ccc(Cl)c(S(=O)(=O)N2CCOCC2)c1O

>  <score_type>  (53) 
oracle

>  <origin>  (53) 
adg

>  <m_score__min__energy>  (53) 
-15.210000000000001

>  <m_primary>  (53) 
energy

$$$$
53:0
     RDKit          3D

 31 32  0  0  0  0  0  0  0  0999 V2000
   54.7230   26.3410   45.7730 O   0  0  0  0  0  0  0  0  0  0  0  0
   55.5520   25.4230   46.0110 C   0  0  0  0  0  0  0  0  0  0  0  0
   55.1020   24.1940   46.4780 O   0  0  0  0  0  0  0  0  0  0  0  0
   57.0170   25.6730   45.8500 C   0  0  0  0  0  0  0  0  0  0  0  0
   57.2510   26.9440   45.1670 N   0  0  0  0  0  0  0  0  0  0  0  0
   58.5770   27.4530   44.9660 C   0  0  0  0  0  0  0  0  0  0  0  0
   59.5740   26.8180   45.4030 O   0  0  0  0  0  0  0  0  0  0  0  0
   58.7790   28.7620   44.2770 C   0  0  0  0  0  0  0  0  0  0  0  0
   57.4890   29.2720   43.8280 N   0  0  0  0  0  0  0  0  0  0  0  0
   56.7710   30.3700   44.4050 C   0  0  0  0  0  0  0  0  0  0  0  0
   55.5180   30.2860   44.4940 O   0  0  0  0  0  0  0  0  0  0  0  0
   57.4400   31.5720   44.9430 C   0  0  0  0  0  0  0  0  0  0  0  0
   57.8210   32.6670   44.1700 C   0  0  0  0  0  0  0  0  0  0  0  0
   58.4510   33.5230   45.0470 C   0  0  0  0  0  0  0  0  0  0  0  0
   59.0400   34.7680   44.8340 C   0  0  0  0  0  0  0  0  0  0  0  0
   59.6350   35.4080   45.9380 C   0  0  0  0  0  0  0  0  0  0  0  0
   59.6300   34.7920   47.2100 C   0  0  0  0  0  0  0  0  0  0  0  0
   59.0300   33.5320   47.3900 C   0  0  0  0  0  0  0  0  0  0  0  0
   58.4420   32.9260   46.2800 C   0  0  0  0  0  0  0  0  0  0  0  0
   57.8340   31.7300   46.2310 N   0  0  0  0  0  0  0  0  0  0  0  0
   57.4895   25.7040   46.8429 H   0  0  0  0  0  0  0  0  0  0  0  0
   57.4506   24.8617   45.2468 H   0  0  0  0  0  0  0  0  0  0  0  0
   56.4420   27.5060   44.8150 H   0  0  0  0  0  0  0  0  0  0  0  0
   59.2350   29.4789   44.9757 H   0  0  0  0  0  0  0  0  0  0  0  0
   59.4437   28.6251   43.4113 H   0  0  0  0  0  0  0  0  0  0  0  0
   57.6548   32.8158   43.0929 H   0  0  0  0  0  0  0  0  0  0  0  0
   59.0400   35.2345   43.8378 H   0  0  0  0  0  0  0  0  0  0  0  0
   60.1066   36.3935   45.8097 H   0  0  0  0  0  0  0  0  0  0  0  0
   60.0984   35.3011   48.0652 H   0  0  0  0  0  0  0  0  0  0  0  0
   59.0249   33.0409   48.3743 H   0  0  0  0  0  0  0  0  0  0  0  0
   57.7490   31.0500   47.0170 H   0  0  0  0  0  0  0  0  0  0  0  0
  1  2  2  0
  2  3  1  0
  2  4  1  0
  4  5  1  0
  5  6  1  0
  6  7  2  0
  6  8  1  0
  8  9  1  0
  9 10  1  0
 10 11  2  0
 10 12  1  0
 12 13  2  0
 13 14  1  0
 14 15  2  0
 15 16  1  0
 16 17  2  0
 17 18  1  0
 18 19  2  0
 19 20  1  0
 20 12  1  0
 19 14  1  0
  4 21  1  0
  4 22  1  0
  5 23  1  0
  8 24  1  0
  8 25  1  0
 13 26  1  0
 15 27  1  0
 16 28  1  0
 17 29  1  0
 18 30  1  0
 20 31  1  0
M  CHG  2   3  -1   9  -1
M  END
>  <UniqueID>  (54) 
54

>  <SMILES>  (54) 
O=C([O-])CNC(=O)C[N-]C(=O)c1cc2ccccc2[nH]1

>  <Energy>  (54) 
61.573580408589606

>  <Genealogy>  (54) 
O=C([O-])CNC(=O)C[N-]C(=O)c1cc2ccccc2[nH]1 (protonated)
O=C([O-])CNC(=O)C[N-]C(=O)c1cc2ccccc2[nH]1 (3D coordinates assigned)
O=C([O-])CNC(=O)C[N-]C(=O)c1cc2ccccc2[nH]1 (optimized conformer: 61.573580408589606 kcal/mol)

>  <smiles>  (54) 
O=C(O)CNC(=O)CNC(=O)c1cc2ccccc2[nH]1

>  <score_type>  (54) 
oracle

>  <origin>  (54) 
adg

>  <m_score__min__energy>  (54) 
-11.470000000000001

>  <m_primary>  (54) 
energy

$$$$
54:0
     RDKit          3D

 49 51  0  0  1  0  0  0  0  0999 V2000
   62.1870   34.2200   49.6930 C   0  0  0  0  0  0  0  0  0  0  0  0
   61.0220   33.8910   48.7890 C   0  0  0  0  0  0  0  0  0  0  0  0
   61.3840   33.5100   47.4840 N   0  0  0  0  0  0  0  0  0  0  0  0
   62.7360   33.0530   47.3220 C   0  0  0  0  0  0  0  0  0  0  0  0
   60.8560   34.2310   46.3910 C   0  0  0  0  0  0  0  0  0  0  0  0
   59.5400   33.6640   46.0030 C   0  0  0  0  0  0  0  0  0  0  0  0
   58.5420   34.6020   45.7100 C   0  0  0  0  0  0  0  0  0  0  0  0
   57.3110   34.1120   45.3370 C   0  0  0  0  0  0  0  0  0  0  0  0
   57.0560   32.7730   45.2500 C   0  0  0  0  0  0  0  0  0  0  0  0
   58.0460   31.8440   45.5390 C   0  0  0  0  0  0  0  0  0  0  0  0
   57.7860   30.4020   45.4410 C   0  0  0  0  0  0  0  0  0  0  0  0
   58.5950   29.4370   46.0140 C   0  0  0  0  0  0  0  0  0  0  0  0
   58.0030   28.2360   45.6970 C   0  0  0  0  0  0  0  0  0  0  0  0
   58.4350   27.0950   46.0410 N   0  0  0  0  0  0  0  0  0  0  0  0
   57.7790   26.1140   46.8540 C   0  0  0  0  0  0  0  0  0  0  0  0
   57.0380   25.0980   46.0640 C   0  0  0  0  0  0  0  0  0  0  0  0
   57.5680   23.9100   45.6410 C   0  0  0  0  0  0  0  0  0  0  0  0
   56.8690   22.9670   44.9100 C   0  0  0  0  0  0  0  0  0  0  0  0
   55.5480   23.2870   44.6110 C   0  0  0  0  0  0  0  0  0  0  0  0
   55.0210   24.4620   45.0290 C   0  0  0  0  0  0  0  0  0  0  0  0
   55.7100   25.4170   45.7610 C   0  0  0  0  0  0  0  0  0  0  0  0
   55.1310   26.6030   46.1680 O   0  0  0  0  0  0  0  0  0  0  0  0
   56.8990   28.4450   44.9740 N   0  0  0  0  0  0  0  0  0  0  0  0
   56.7890   29.7530   44.8330 N   0  0  0  0  0  0  0  0  0  0  0  0
   59.2890   32.3110   45.9160 C   0  0  0  0  0  0  0  0  0  0  0  0
   61.8726   34.1312   50.7434 H   0  0  0  0  0  0  0  0  0  0  0  0
   63.0124   33.5198   49.4969 H   0  0  0  0  0  0  0  0  0  0  0  0
   62.5242   35.2485   49.4969 H   0  0  0  0  0  0  0  0  0  0  0  0
   60.4573   33.0639   49.2440 H   0  0  0  0  0  0  0  0  0  0  0  0
   60.4314   34.8140   48.6923 H   0  0  0  0  0  0  0  0  0  0  0  0
   63.1920   32.8989   48.3111 H   0  0  0  0  0  0  0  0  0  0  0  0
   62.7381   32.1042   46.7654 H   0  0  0  0  0  0  0  0  0  0  0  0
   63.3133   33.8059   46.7654 H   0  0  0  0  0  0  0  0  0  0  0  0
   60.7294   35.2858   46.6763 H   0  0  0  0  0  0  0  0  0  0  0  0
   61.5483   34.1579   45.5393 H   0  0  0  0  0  0  0  0  0  0  0  0
   58.7336   35.6832   45.7751 H   0  0  0  0  0  0  0  0  0  0  0  0
   56.5054   34.8228   45.1010 H   0  0  0  0  0  0  0  0  0  0  0  0
   56.0563   32.4275   44.9480 H   0  0  0  0  0  0  0  0  0  0  0  0
   59.5139   29.5957   46.5975 H   0  0  0  0  0  0  0  0  0  0  0  0
   58.5382   25.5990   47.4609 H   0  0  0  0  0  0  0  0  0  0  0  0
   57.0426   26.6448   47.4753 H   0  0  0  0  0  0  0  0  0  0  0  0
   58.6149   23.6913   45.8982 H   0  0  0  0  0  0  0  0  0  0  0  0
   57.3288   22.0221   44.5848 H   0  0  0  0  0  0  0  0  0  0  0  0
   54.9304   22.5834   44.0335 H   0  0  0  0  0  0  0  0  0  0  0  0
   53.9732   24.6738   44.7698 H   0  0  0  0  0  0  0  0  0  0  0  0
   54.1490   26.7150   45.9200 H   0  0  0  0  0  0  0  0  0  0  0  0
   56.2770   27.6940   44.6120 H   0  0  0  0  0  0  0  0  0  0  0  0
   56.0080   30.2050   44.3060 H   0  0  0  0  0  0  0  0  0  0  0  0
   60.0899   31.5943   46.1501 H   0  0  0  0  0  0  0  0  0  0  0  0
  1  2  1  0
  2  3  1  0
  3  4  1  0
  3  5  1  0
  5  6  1  0
  6  7  2  0
  7  8  1  0
  8  9  2  0
  9 10  1  0
 10 11  1  0
 11 12  2  0
 12 13  1  0
 13 14  2  0
 14 15  1  0
 15 16  1  0
 16 17  2  0
 17 18  1  0
 18 19  2  0
 19 20  1  0
 20 21  2  0
 21 22  1  0
 13 23  1  0
 23 24  1  0
 10 25  2  0
 25  6  1  0
 24 11  1  0
 21 16  1  0
  1 26  1  0
  1 27  1  0
  1 28  1  0
  2 29  1  0
  2 30  1  0
  4 31  1  0
  4 32  1  0
  4 33  1  0
  5 34  1  0
  5 35  1  0
  7 36  1  0
  8 37  1  0
  9 38  1  0
 12 39  1  0
 15 40  1  0
 15 41  1  0
 17 42  1  0
 18 43  1  0
 19 44  1  0
 20 45  1  0
 22 46  1  0
 23 47  1  0
 24 48  1  0
 25 49  1  0
M  END
>  <smiles>  (55) 
CCN(C)Cc1cccc(-c2cc(=NCc3ccccc3O)[nH][nH]2)c1

>  <score_type>  (55) 
oracle

>  <origin>  (55) 
adg

>  <m_score__min__energy>  (55) 
-9.3499999999999996

>  <m_primary>  (55) 
energy

$$$$
55:0
     RDKit          3D

 73 77  0  0  0  0  0  0  0  0999 V2000
   54.7180   28.9610   45.3360 H   0  0  0  0  0  0  0  0  0  0  0  0
   55.5640   28.5370   44.9750 O   0  0  0  0  0  0  0  0  0  0  0  0
   56.1780   27.4680   45.6230 C   0  0  0  0  0  0  0  0  0  0  0  0
   55.5090   26.3860   46.0570 N   0  0  0  0  0  0  0  0  0  0  0  0
   56.4930   25.6080   46.5570 C   0  0  0  0  0  0  0  0  0  0  0  0
   56.2700   24.4780   47.0680 O   0  0  0  0  0  0  0  0  0  0  0  0
   57.7340   26.1330   46.4650 N   0  0  0  0  0  0  0  0  0  0  0  0
   57.5260   27.3260   45.8850 C   0  0  0  0  0  0  0  0  0  0  0  0
   58.6100   28.2750   45.5730 C   0  0  0  0  0  0  0  0  0  0  0  0
   59.4620   27.9181   44.9758 H   0  0  0  0  0  0  0  0  0  0  0  0
   58.6080   29.5590   45.9840 C   0  0  0  0  0  0  0  0  0  0  0  0
   59.1780   30.0410   47.1520 C   0  0  0  0  0  0  0  0  0  0  0  0
   59.6753   29.4495   47.9349 H   0  0  0  0  0  0  0  0  0  0  0  0
   58.9990   31.4060   47.1390 C   0  0  0  0  0  0  0  0  0  0  0  0
   59.5110   32.3090   48.1830 C   0  0  0  0  0  0  0  0  0  0  0  0
   58.6840   32.8410   48.9730 O   0  0  0  0  0  0  0  0  0  0  0  0
   60.9240   32.5670   48.3330 N   0  0  0  0  0  0  0  0  0  0  0  0
   61.3600   33.5770   49.3110 C   0  0  0  0  0  0  0  0  0  0  0  0
   60.8676   34.5321   49.0758 H   0  0  0  0  0  0  0  0  0  0  0  0
   61.0822   33.2161   50.3123 H   0  0  0  0  0  0  0  0  0  0  0  0
   62.8800   33.7890   49.2950 C   0  0  0  0  0  0  0  0  0  0  0  0
   63.1536   34.3705   48.4022 H   0  0  0  0  0  0  0  0  0  0  0  0
   63.1701   34.3296   50.2080 H   0  0  0  0  0  0  0  0  0  0  0  0
   63.5870   32.5000   49.2660 N   0  0  0  0  0  0  0  0  0  0  0  0
   64.8310   32.3140   49.9680 C   0  0  0  0  0  0  0  0  0  0  0  0
   65.1220   31.1720   50.4210 O   0  0  0  0  0  0  0  0  0  0  0  0
   65.8410   33.4240   50.1030 C   0  0  0  0  0  0  0  0  0  0  0  0
   66.6708   33.2416   49.4043 H   0  0  0  0  0  0  0  0  0  0  0  0
   65.3443   34.3781   49.8728 H   0  0  0  0  0  0  0  0  0  0  0  0
   66.3980   33.4960   51.5380 C   0  0  2  0  0  0  0  0  0  0  0  0
   66.7647   32.4856   51.7718 H   0  0  0  0  0  0  0  0  0  0  0  0
   65.3560   33.9390   52.4630 N   0  0  0  0  0  0  0  0  0  0  0  0
   64.1320   33.2270   52.7410 C   0  0  0  0  0  0  0  0  0  0  0  0
   62.8850   33.8300   52.4970 C   0  0  0  0  0  0  0  0  0  0  0  0
   62.8417   34.8562   52.1032 H   0  0  0  0  0  0  0  0  0  0  0  0
   61.7000   33.1330   52.7520 C   0  0  0  0  0  0  0  0  0  0  0  0
   60.7288   33.6145   52.5649 H   0  0  0  0  0  0  0  0  0  0  0  0
   61.7470   31.8260   53.2440 C   0  0  0  0  0  0  0  0  0  0  0  0
   60.8139   31.2790   53.4444 H   0  0  0  0  0  0  0  0  0  0  0  0
   62.9810   31.2150   53.4810 C   0  0  0  0  0  0  0  0  0  0  0  0
   63.0180   30.1860   53.8680 H   0  0  0  0  0  0  0  0  0  0  0  0
   64.1680   31.9070   53.2280 C   0  0  0  0  0  0  0  0  0  0  0  0
   65.1360   31.4175   53.4104 H   0  0  0  0  0  0  0  0  0  0  0  0
   65.7360   35.1750   53.0430 C   0  0  0  0  0  0  0  0  0  0  0  0
   65.0780   35.7460   53.9520 O   0  0  0  0  0  0  0  0  0  0  0  0
   67.0170   35.6920   52.5260 C   0  0  0  0  0  0  0  0  0  0  0  0
   67.7105   35.9207   53.3487 H   0  0  0  0  0  0  0  0  0  0  0  0
   66.9066   36.6300   51.9620 H   0  0  0  0  0  0  0  0  0  0  0  0
   67.5440   34.5350   51.6690 C   0  0  0  0  0  0  0  0  0  0  0  0
   68.4162   34.0737   52.1552 H   0  0  0  0  0  0  0  0  0  0  0  0
   67.8564   34.8962   50.6781 H   0  0  0  0  0  0  0  0  0  0  0  0
   63.0780   31.3930   48.4440 C   0  0  0  0  0  0  0  0  0  0  0  0
   63.8960   31.0086   47.8171 H   0  0  0  0  0  0  0  0  0  0  0  0
   62.6982   30.6109   49.1178 H   0  0  0  0  0  0  0  0  0  0  0  0
   61.9300   31.8440   47.5400 C   0  0  0  0  0  0  0  0  0  0  0  0
   62.3224   32.5079   46.7556 H   0  0  0  0  0  0  0  0  0  0  0  0
   61.4627   30.9610   47.0796 H   0  0  0  0  0  0  0  0  0  0  0  0
   58.3520   31.8010   46.0180 N   0  0  0  0  0  0  0  0  0  0  0  0
   57.9390   33.1810   45.7160 C   0  0  0  0  0  0  0  0  0  0  0  0
   56.9735   33.1621   45.1893 H   0  0  0  0  0  0  0  0  0  0  0  0
   57.8473   33.7378   46.6602 H   0  0  0  0  0  0  0  0  0  0  0  0
   58.9790   33.8750   44.8340 C   0  0  0  0  0  0  0  0  0  0  0  0
   59.3356   33.1718   44.0669 H   0  0  0  0  0  0  0  0  0  0  0  0
   58.5202   34.7493   44.3491 H   0  0  0  0  0  0  0  0  0  0  0  0
   60.0690   34.2980   45.6260 O   0  0  0  0  0  0  0  0  0  0  0  0
   59.6150   35.2250   46.5860 C   0  0  0  0  0  0  0  0  0  0  0  0
   59.8076   34.8318   47.5951 H   0  0  0  0  0  0  0  0  0  0  0  0
   60.1482   36.1783   46.4560 H   0  0  0  0  0  0  0  0  0  0  0  0
   58.5350   35.3882   46.4560 H   0  0  0  0  0  0  0  0  0  0  0  0
   58.0920   30.6710   45.3050 C   0  0  0  0  0  0  0  0  0  0  0  0
   57.4270   30.6450   44.1400 C   0  0  0  0  0  0  0  0  0  0  0  0
   57.0639   31.5822   43.6929 H   0  0  0  0  0  0  0  0  0  0  0  0
   57.2449   29.6865   43.6319 H   0  0  0  0  0  0  0  0  0  0  0  0
  1  2  1  0
  2  3  1  0
  3  4  1  0
  4  5  1  0
  5  6  2  0
  5  7  1  0
  7  8  1  0
  8  9  1  0
  9 10  1  0
  9 11  2  0
 11 12  1  0
 12 13  1  0
 12 14  2  0
 14 15  1  0
 15 16  2  0
 15 17  1  0
 17 18  1  0
 18 19  1  0
 18 20  1  0
 18 21  1  0
 21 22  1  0
 21 23  1  0
 21 24  1  0
 24 25  1  0
 25 26  2  0
 25 27  1  0
 27 28  1  0
 27 29  1  0
 27 30  1  0
 30 31  1  1
 30 32  1  0
 32 33  1  0
 33 34  2  0
 34 35  1  0
 34 36  1  0
 36 37  1  0
 36 38  2  0
 38 39  1  0
 38 40  1  0
 40 41  1  0
 40 42  2  0
 42 43  1  0
 32 44  1  0
 44 45  2  0
 44 46  1  0
 46 47  1  0
 46 48  1  0
 46 49  1  0
 49 50  1  0
 49 51  1  0
 24 52  1  0
 52 53  1  0
 52 54  1  0
 52 55  1  0
 55 56  1  0
 55 57  1  0
 14 58  1  0
 58 59  1  0
 59 60  1  0
 59 61  1  0
 59 62  1  0
 62 63  1  0
 62 64  1  0
 62 65  1  0
 65 66  1  0
 66 67  1  0
 66 68  1  0
 66 69  1  0
 58 70  1  0
 70 71  2  0
 71 72  1  0
 71 73  1  0
  8  3  2  0
 70 11  1  0
 55 17  1  0
 49 30  1  0
 42 33  1  0
M  CHG  2   4  -1   7  -1
M  END
>  <UniqueID>  (56) 
55

>  <SMILES>  (56) 
C=c1/c(=C/c2[n-]c(=O)[n-]c2O)cc(C(=O)N2CCN(C(=O)C[C@H]3CCC(=O)N3c3ccccc3)CC2)n1CCOC

>  <Energy>  (56) 
157.86758418050584

>  <Genealogy>  (56) 
C=c1c(=Cc2[n-]c(=O)[n-]c2O)cc(C(=O)N2CCN(C(=O)CC3CCC(=O)N3c3ccccc3)CC2)n1CCOC (protonated)
C=c1c(=Cc2[n-]c(=O)[n-]c2O)cc(C(=O)N2CCN(C(=O)C[C@H]3CCC(=O)N3c3ccccc3)CC2)n1CCOC (chirality)
C=c1/c(=C/c2[n-]c(=O)[n-]c2O)cc(C(=O)N2CCN(C(=O)C[C@H]3CCC(=O)N3c3ccccc3)CC2)n1CCOC (cis-trans isomerization)
C=c1/c(=C/c2[n-]c(=O)[n-]c2O)cc(C(=O)N2CCN(C(=O)C[C@H]3CCC(=O)N3c3ccccc3)CC2)n1CCOC (3D coordinates assigned)
C=c1/c(=C/c2[n-]c(=O)[n-]c2O)cc(C(=O)N2CCN(C(=O)C[C@H]3CCC(=O)N3c3ccccc3)CC2)n1CCOC (nonaromatic ring conformer: 157.86758418050584 kcal/mol)

>  <smiles>  (56) 
C=c1c(=Cc2[nH]c(=O)[nH]c2O)cc(C(=O)N2CCN(C(=O)CC3CCC(=O)N3c3ccccc3)CC2)n1CCOC

>  <score_type>  (56) 
oracle

>  <origin>  (56) 
adg

>  <m_score__min__energy>  (56) 
-13.890000000000001

>  <m_primary>  (56) 
energy

$$$$
56:0
     RDKit          3D

 41 43  0  0  0  0  0  0  0  0999 V2000
   54.7770   29.8120   43.6490 O   0  0  0  0  0  0  0  0  0  0  0  0
   55.8390   29.6740   44.3100 C   0  0  0  0  0  0  0  0  0  0  0  0
   56.9600   30.6530   44.0890 C   0  0  0  0  0  0  0  0  0  0  0  0
   56.9280   31.6520   45.0960 O   0  0  0  0  0  0  0  0  0  0  0  0
   57.3770   32.9040   44.6060 C   0  0  0  0  0  0  0  0  0  0  0  0
   58.4710   33.4710   45.4610 C   0  0  0  0  0  0  0  0  0  0  0  0
   59.5200   32.7660   46.0120 C   0  0  0  0  0  0  0  0  0  0  0  0
   60.2350   33.7320   46.6960 C   0  0  0  0  0  0  0  0  0  0  0  0
   61.4840   33.5480   47.4700 C   0  0  0  0  0  0  0  0  0  0  0  0
   61.5700   33.9030   48.8270 C   0  0  0  0  0  0  0  0  0  0  0  0
   62.7620   33.7070   49.5260 C   0  0  0  0  0  0  0  0  0  0  0  0
   63.8620   33.1590   48.8660 C   0  0  0  0  0  0  0  0  0  0  0  0
   63.7700   32.8200   47.5520 N   0  0  0  0  0  0  0  0  0  0  0  0
   62.6170   32.9990   46.8490 C   0  0  0  0  0  0  0  0  0  0  0  0
   59.6220   34.8850   46.5510 O   0  0  0  0  0  0  0  0  0  0  0  0
   58.5550   34.7670   45.8160 N   0  0  0  0  0  0  0  0  0  0  0  0
   55.9270   28.5890   45.2440 N   0  0  0  0  0  0  0  0  0  0  0  0
   57.0340   27.6430   45.3670 C   0  0  0  0  0  0  0  0  0  0  0  0
   58.3070   28.3550   45.7400 C   0  0  0  0  0  0  0  0  0  0  0  0
   59.4110   28.3320   44.8700 C   0  0  0  0  0  0  0  0  0  0  0  0
   60.5970   28.9870   45.2160 C   0  0  0  0  0  0  0  0  0  0  0  0
   60.6940   29.6630   46.4350 C   0  0  0  0  0  0  0  0  0  0  0  0
   59.6060   29.6810   47.3140 C   0  0  0  0  0  0  0  0  0  0  0  0
   59.7430   30.6010   48.9820 Br  0  0  0  0  0  0  0  0  0  0  0  0
   58.4180   29.0240   46.9710 C   0  0  0  0  0  0  0  0  0  0  0  0
   57.9226   30.1222   44.1310 H   0  0  0  0  0  0  0  0  0  0  0  0
   56.8416   31.1259   43.1029 H   0  0  0  0  0  0  0  0  0  0  0  0
   57.7565   32.7714   43.5821 H   0  0  0  0  0  0  0  0  0  0  0  0
   56.5290   33.6044   44.6229 H   0  0  0  0  0  0  0  0  0  0  0  0
   59.7366   31.6908   45.9276 H   0  0  0  0  0  0  0  0  0  0  0  0
   60.6975   34.3355   49.3385 H   0  0  0  0  0  0  0  0  0  0  0  0
   62.8335   33.9824   50.5886 H   0  0  0  0  0  0  0  0  0  0  0  0
   64.8054   33.0008   49.4091 H   0  0  0  0  0  0  0  0  0  0  0  0
   64.6020   32.4100   47.0720 H   0  0  0  0  0  0  0  0  0  0  0  0
   62.5735   32.7116   45.7881 H   0  0  0  0  0  0  0  0  0  0  0  0
   56.7924   26.9045   46.1456 H   0  0  0  0  0  0  0  0  0  0  0  0
   57.1803   27.1437   44.3978 H   0  0  0  0  0  0  0  0  0  0  0  0
   59.3415   27.7959   43.9120 H   0  0  0  0  0  0  0  0  0  0  0  0
   61.4548   28.9700   44.5276 H   0  0  0  0  0  0  0  0  0  0  0  0
   61.6264   30.1813   46.7036 H   0  0  0  0  0  0  0  0  0  0  0  0
   57.5674   29.0315   47.6685 H   0  0  0  0  0  0  0  0  0  0  0  0
  1  2  2  0
  2  3  1  0
  3  4  1  0
  4  5  1  0
  5  6  1  0
  6  7  1  0
  7  8  2  0
  8  9  1  0
  9 10  2  0
 10 11  1  0
 11 12  2  0
 12 13  1  0
 13 14  2  0
  8 15  1  0
 15 16  1  0
  2 17  1  0
 17 18  1  0
 18 19  1  0
 19 20  2  0
 20 21  1  0
 21 22  2  0
 22 23  1  0
 23 24  1  0
 23 25  2  0
 16  6  2  0
 25 19  1  0
 14  9  1  0
  3 26  1  0
  3 27  1  0
  5 28  1  0
  5 29  1  0
  7 30  1  0
 10 31  1  0
 11 32  1  0
 12 33  1  0
 13 34  1  0
 14 35  1  0
 18 36  1  0
 18 37  1  0
 20 38  1  0
 21 39  1  0
 22 40  1  0
 25 41  1  0
M  CHG  2  13   1  17  -1
M  END
>  <UniqueID>  (57) 
56

>  <SMILES>  (57) 
O=C(COCc1cc(-c2ccc[nH+]c2)on1)[N-]Cc1cccc(Br)c1

>  <Energy>  (57) 
73.98226030693618

>  <Genealogy>  (57) 
O=C(COCc1cc(-c2ccc[nH+]c2)on1)[N-]Cc1cccc(Br)c1 (protonated)
O=C(COCc1cc(-c2ccc[nH+]c2)on1)[N-]Cc1cccc(Br)c1 (3D coordinates assigned)
O=C(COCc1cc(-c2ccc[nH+]c2)on1)[N-]Cc1cccc(Br)c1 (optimized conformer: 73.98226030693618 kcal/mol)

>  <smiles>  (57) 
O=C(COCc1cc(-c2cccnc2)on1)NCc1cccc(Br)c1

>  <score_type>  (57) 
oracle

>  <origin>  (57) 
adg

>  <m_score__min__energy>  (57) 
-10.25

>  <m_primary>  (57) 
energy

$$$$
57:0
     RDKit          3D

 29 31  0  0  0  0  0  0  0  0999 V2000
   55.1440   27.9560   44.9310 H   0  0  0  0  0  0  0  0  0  0  0  0
   55.1650   28.9660   44.8420 O   0  0  0  0  0  0  0  0  0  0  0  0
   56.3670   29.6660   44.7790 C   0  0  0  0  0  0  0  0  0  0  0  0
   56.4700   30.8390   44.0210 C   0  0  0  0  0  0  0  0  0  0  0  0
   55.5987   31.2098   43.4613 H   0  0  0  0  0  0  0  0  0  0  0  0
   57.6790   31.5390   43.9750 C   0  0  0  0  0  0  0  0  0  0  0  0
   57.7560   32.4632   43.3835 H   0  0  0  0  0  0  0  0  0  0  0  0
   58.7900   31.0670   44.6790 C   0  0  0  0  0  0  0  0  0  0  0  0
   59.7355   31.6284   44.6491 H   0  0  0  0  0  0  0  0  0  0  0  0
   58.7060   29.8790   45.4250 C   0  0  0  0  0  0  0  0  0  0  0  0
   59.9000   29.3770   46.1990 C   0  0  0  0  0  0  0  0  0  0  0  0
   59.9633   29.9246   47.1509 H   0  0  0  0  0  0  0  0  0  0  0  0
   60.7990   29.5432   45.5872 H   0  0  0  0  0  0  0  0  0  0  0  0
   59.7970   27.8990   46.4910 C   0  0  0  0  0  0  0  0  0  0  0  0
   60.6200   27.1230   45.9360 O   0  0  0  0  0  0  0  0  0  0  0  0
   58.8610   27.3390   47.4310 N   0  0  0  0  0  0  0  0  0  0  0  0
   57.9580   26.4230   47.2350 C   0  0  0  0  0  0  0  0  0  0  0  0
   56.8090   26.7580   46.5620 N   0  0  0  0  0  0  0  0  0  0  0  0
   55.8230   25.8430   46.3330 C   0  0  0  0  0  0  0  0  0  0  0  0
   54.7790   26.1670   45.7090 O   0  0  0  0  0  0  0  0  0  0  0  0
   56.0120   24.5540   46.8080 C   0  0  0  0  0  0  0  0  0  0  0  0
   55.2100   23.4840   46.7140 N   0  0  0  0  0  0  0  0  0  0  0  0
   55.9380   22.5380   47.3660 C   0  0  0  0  0  0  0  0  0  0  0  0
   55.5310   21.3550   47.5070 O   0  0  0  0  0  0  0  0  0  0  0  0
   57.1370   22.9550   47.8540 N   0  0  0  0  0  0  0  0  0  0  0  0
   57.1420   24.2410   47.4770 C   0  0  0  0  0  0  0  0  0  0  0  0
   58.1210   25.1470   47.7070 N   0  0  0  0  0  0  0  0  0  0  0  0
   57.4790   29.1930   45.4840 C   0  0  0  0  0  0  0  0  0  0  0  0
   57.3934   28.2782   46.0888 H   0  0  0  0  0  0  0  0  0  0  0  0
  1  2  1  0
  2  3  1  0
  3  4  2  0
  4  5  1  0
  4  6  1  0
  6  7  1  0
  6  8  2  0
  8  9  1  0
  8 10  1  0
 10 11  1  0
 11 12  1  0
 11 13  1  0
 11 14  1  0
 14 15  2  0
 14 16  1  0
 16 17  2  0
 17 18  1  0
 18 19  1  0
 19 20  2  0
 19 21  1  0
 21 22  1  0
 22 23  1  0
 23 24  2  0
 23 25  1  0
 25 26  1  0
 26 27  1  0
 10 28  2  0
 28 29  1  0
 28  3  1  0
 27 17  1  0
 26 21  2  0
M  CHG  4  18  -1  22  -1  25  -1  27  -1
M  END
>  <UniqueID>  (58) 
57

>  <SMILES>  (58) 
O=C(Cc1cccc(O)c1)/N=c1/[n-]c(=O)c2[n-]c(=O)[n-]c2[n-]1

>  <Energy>  (58) 
74.05837020617665

>  <Genealogy>  (58) 
O=C(Cc1cccc(O)c1)N=c1[n-]c(=O)c2[n-]c(=O)[n-]c2[n-]1 (protonated)
O=C(Cc1cccc(O)c1)/N=c1/[n-]c(=O)c2[n-]c(=O)[n-]c2[n-]1 (cis-trans isomerization)
O=C(Cc1cccc(O)c1)/N=c1/[n-]c(=O)c2[n-]c(=O)[n-]c2[n-]1 (3D coordinates assigned)
O=C(Cc1cccc(O)c1)/N=c1/[n-]c(=O)c2[n-]c(=O)[n-]c2[n-]1 (optimized conformer: 74.05837020617665 kcal/mol)

>  <smiles>  (58) 
O=C(Cc1cccc(O)c1)N=c1[nH]c(=O)c2[nH]c(=O)[nH]c2[nH]1

>  <score_type>  (58) 
oracle

>  <origin>  (58) 
adg

>  <m_score__min__energy>  (58) 
-14.6

>  <m_primary>  (58) 
energy

$$$$
58:0
     RDKit          3D

 46 49  0  0  0  0  0  0  0  0999 V2000
   59.8287   25.6137   45.2851 H   0  0  0  0  0  0  0  0  0  0  0  0
   58.8550   26.0040   45.6160 C   0  0  0  0  0  0  0  0  0  0  0  0
   58.8490   27.0990   46.3890 C   0  0  0  0  0  0  0  0  0  0  0  0
   59.3960   27.0270   48.1010 S   0  0  0  0  0  0  0  0  0  0  0  0
   59.0580   28.7860   48.2200 C   0  0  0  0  0  0  0  0  0  0  0  0
   59.2410   29.4260   49.2890 O   0  0  0  0  0  0  0  0  0  0  0  0
   58.5740   29.4110   47.0340 N   0  0  0  0  0  0  0  0  0  0  0  0
   58.4180   30.8570   46.8610 C   0  0  0  0  0  0  0  0  0  0  0  0
   58.0141   31.0621   45.8586 H   0  0  0  0  0  0  0  0  0  0  0  0
   57.7280   31.2392   47.6277 H   0  0  0  0  0  0  0  0  0  0  0  0
   59.7500   31.5420   47.0110 C   0  0  0  0  0  0  0  0  0  0  0  0
   59.8120   32.9200   47.2790 C   0  0  0  0  0  0  0  0  0  0  0  0
   58.8840   33.5066   47.3483 H   0  0  0  0  0  0  0  0  0  0  0  0
   61.0480   33.5490   47.4580 C   0  0  0  0  0  0  0  0  0  0  0  0
   61.0901   34.6289   47.6628 H   0  0  0  0  0  0  0  0  0  0  0  0
   62.2310   32.8070   47.3770 C   0  0  0  0  0  0  0  0  0  0  0  0
   63.7800   33.5970   47.6050 Cl  0  0  0  0  0  0  0  0  0  0  0  0
   62.1760   31.4340   47.1200 C   0  0  0  0  0  0  0  0  0  0  0  0
   63.1059   30.8495   47.0593 H   0  0  0  0  0  0  0  0  0  0  0  0
   60.9420   30.8020   46.9400 C   0  0  0  0  0  0  0  0  0  0  0  0
   60.9043   29.7206   46.7419 H   0  0  0  0  0  0  0  0  0  0  0  0
   58.4830   28.4620   45.9820 C   0  0  0  0  0  0  0  0  0  0  0  0
   58.1630   28.7890   44.8070 O   0  0  0  0  0  0  0  0  0  0  0  0
   57.6410   25.2880   45.1800 C   0  0  0  0  0  0  0  0  0  0  0  0
   57.7530   24.2190   44.2630 C   0  0  0  0  0  0  0  0  0  0  0  0
   58.7423   23.9465   43.8667 H   0  0  0  0  0  0  0  0  0  0  0  0
   56.6450   23.5150   43.8590 N   0  0  0  0  0  0  0  0  0  0  0  0
   56.7680   22.4420   42.8660 C   0  0  0  0  0  0  0  0  0  0  0  0
   57.1052   22.8694   41.9102 H   0  0  0  0  0  0  0  0  0  0  0  0
   55.7879   21.9590   42.7388 H   0  0  0  0  0  0  0  0  0  0  0  0
   57.7770   21.3990   43.3340 C   0  0  0  0  0  0  0  0  0  0  0  0
   57.7983   21.3770   44.4336 H   0  0  0  0  0  0  0  0  0  0  0  0
   57.4848   20.4093   42.9530 H   0  0  0  0  0  0  0  0  0  0  0  0
   58.7758   21.6583   42.9530 H   0  0  0  0  0  0  0  0  0  0  0  0
   55.4330   23.8790   44.3690 C   0  0  0  0  0  0  0  0  0  0  0  0
   54.2460   23.3150   44.0740 N   0  0  0  0  0  0  0  0  0  0  0  0
   53.4080   24.0490   44.8550 C   0  0  0  0  0  0  0  0  0  0  0  0
   51.9560   23.8340   44.9090 C   0  0  0  0  0  0  0  0  0  0  0  0
   51.5040   22.6800   45.1330 O   0  0  0  0  0  0  0  0  0  0  0  0
   51.0480   24.9190   44.7110 N   0  0  0  0  0  0  0  0  0  0  0  0
   51.3940   25.8860   44.5240 H   0  0  0  0  0  0  0  0  0  0  0  0
   50.0170   24.7550   44.7520 H   0  0  0  0  0  0  0  0  0  0  0  0
   54.0450   25.0010   45.5810 N   0  0  0  0  0  0  0  0  0  0  0  0
   55.3150   24.8700   45.2520 N   0  0  0  0  0  0  0  0  0  0  0  0
   56.3690   25.5940   45.6990 C   0  0  0  0  0  0  0  0  0  0  0  0
   56.2060   26.5050   46.5560 O   0  0  0  0  0  0  0  0  0  0  0  0
  1  2  1  0
  2  3  2  0
  3  4  1  0
  4  5  1  0
  5  6  2  0
  5  7  1  0
  7  8  1  0
  8  9  1  0
  8 10  1  0
  8 11  1  0
 11 12  2  0
 12 13  1  0
 12 14  1  0
 14 15  1  0
 14 16  2  0
 16 17  1  0
 16 18  1  0
 18 19  1  0
 18 20  2  0
 20 21  1  0
  7 22  1  0
 22 23  2  0
  2 24  1  0
 24 25  2  0
 25 26  1  0
 25 27  1  0
 27 28  1  0
 28 29  1  0
 28 30  1  0
 28 31  1  0
 31 32  1  0
 31 33  1  0
 31 34  1  0
 27 35  1  0
 35 36  2  0
 36 37  1  0
 37 38  1  0
 38 39  2  0
 38 40  1  0
 40 41  1  0
 40 42  1  0
 37 43  2  0
 43 44  1  0
 44 45  1  0
 45 46  2  0
 22  3  1  0
 45 24  1  0
 20 11  1  0
 44 35  1  0
M  END
>  <UniqueID>  (59) 
58

>  <SMILES>  (59) 
CCn1cc(/C=C2/SC(=O)N(Cc3ccc(Cl)cc3)C2=O)c(=O)n2nc(C(N)=O)nc12

>  <Energy>  (59) 
110.76861108056127

>  <Genealogy>  (59) 
CCn1cc(/C=C2/SC(=O)N(Cc3ccc(Cl)cc3)C2=O)c(=O)n2nc(C(N)=O)nc12 (cis-trans isomerization)
CCn1cc(/C=C2/SC(=O)N(Cc3ccc(Cl)cc3)C2=O)c(=O)n2nc(C(N)=O)nc12 (3D coordinates assigned)
CCn1cc(/C=C2/SC(=O)N(Cc3ccc(Cl)cc3)C2=O)c(=O)n2nc(C(N)=O)nc12 (nonaromatic ring conformer: 110.76861108056127 kcal/mol)

>  <smiles>  (59) 
CCn1cc(C=C2SC(=O)N(Cc3ccc(Cl)cc3)C2=O)c(=O)n2nc(C(N)=O)nc12

>  <score_type>  (59) 
oracle

>  <origin>  (59) 
adg

>  <m_score__min__energy>  (59) 
-9.8100000000000005

>  <m_primary>  (59) 
energy

$$$$
59:0
     RDKit          3D

 57 60  0  0  0  0  0  0  0  0999 V2000
   57.4060   27.2200   44.2000 O   0  0  0  0  0  0  0  0  0  0  0  0
   56.8410   27.7580   45.4850 S   0  0  0  0  0  0  0  0  0  0  0  0
   55.8420   26.7660   46.0110 O   0  0  0  0  0  0  0  0  0  0  0  0
   56.0580   29.2740   45.1670 N   0  0  0  0  0  0  0  0  0  0  0  0
   56.6540   30.3980   44.5040 C   0  0  0  0  0  0  0  0  0  0  0  0
   57.0600   31.5440   45.2110 C   0  0  0  0  0  0  0  0  0  0  0  0
   57.6240   32.6390   44.5460 C   0  0  0  0  0  0  0  0  0  0  0  0
   58.0060   33.8690   45.3240 C   0  0  0  0  0  0  0  0  0  0  0  0
   59.4710   33.8680   45.5520 N   0  0  0  0  0  0  0  0  0  0  0  0
   59.9320   35.0380   46.3250 C   0  0  0  0  0  0  0  0  0  0  0  0
   59.4710   34.9920   47.7930 C   0  0  0  0  0  0  0  0  0  0  0  0
   59.4250   33.5530   48.3680 C   0  0  0  0  0  0  0  0  0  0  0  0
   59.7720   33.5230   49.8720 C   0  0  0  0  0  0  0  0  0  0  0  0
   58.9010   32.5540   50.6310 C   0  0  0  0  0  0  0  0  0  0  0  0
   58.1510   32.9820   51.7360 C   0  0  0  0  0  0  0  0  0  0  0  0
   57.3240   32.0840   52.4170 C   0  0  0  0  0  0  0  0  0  0  0  0
   57.2370   30.7540   51.9980 C   0  0  0  0  0  0  0  0  0  0  0  0
   57.9820   30.3180   50.8990 C   0  0  0  0  0  0  0  0  0  0  0  0
   58.8100   31.2130   50.2150 C   0  0  0  0  0  0  0  0  0  0  0  0
   60.3630   32.6230   47.5800 C   0  0  0  0  0  0  0  0  0  0  0  0
   59.9790   32.5740   46.0870 C   0  0  0  0  0  0  0  0  0  0  0  0
   57.7770   32.5930   43.1520 C   0  0  0  0  0  0  0  0  0  0  0  0
   57.3850   31.4590   42.4360 C   0  0  0  0  0  0  0  0  0  0  0  0
   56.8200   30.3640   43.1010 C   0  0  0  0  0  0  0  0  0  0  0  0
   56.4410   29.2500   42.3510 O   0  0  0  0  0  0  0  0  0  0  0  0
   58.1600   28.0110   46.6250 C   0  0  0  0  0  0  0  0  0  0  0  0
   58.8600   29.2280   46.6760 C   0  0  0  0  0  0  0  0  0  0  0  0
   59.9190   29.3810   47.5760 C   0  0  0  0  0  0  0  0  0  0  0  0
   60.2640   28.3110   48.4170 C   0  0  0  0  0  0  0  0  0  0  0  0
   59.5710   27.1360   48.3570 N   0  0  0  0  0  0  0  0  0  0  0  0
   58.5380   26.9670   47.4880 C   0  0  0  0  0  0  0  0  0  0  0  0
   56.9324   31.5804   46.3030 H   0  0  0  0  0  0  0  0  0  0  0  0
   57.7232   34.7667   44.7547 H   0  0  0  0  0  0  0  0  0  0  0  0
   57.4821   33.8712   46.2912 H   0  0  0  0  0  0  0  0  0  0  0  0
   61.0314   35.0660   46.3010 H   0  0  0  0  0  0  0  0  0  0  0  0
   59.4950   35.9365   45.8649 H   0  0  0  0  0  0  0  0  0  0  0  0
   60.1685   35.5894   48.3985 H   0  0  0  0  0  0  0  0  0  0  0  0
   58.4478   35.3941   47.8296 H   0  0  0  0  0  0  0  0  0  0  0  0
   58.3924   33.1897   48.2593 H   0  0  0  0  0  0  0  0  0  0  0  0
   60.8236   33.2222   49.9884 H   0  0  0  0  0  0  0  0  0  0  0  0
   59.5996   34.5292   50.2817 H   0  0  0  0  0  0  0  0  0  0  0  0
   58.2138   34.0287   52.0682 H   0  0  0  0  0  0  0  0  0  0  0  0
   56.7404   32.4253   53.2847 H   0  0  0  0  0  0  0  0  0  0  0  0
   56.5823   30.0503   52.5330 H   0  0  0  0  0  0  0  0  0  0  0  0
   57.9169   29.2698   50.5719 H   0  0  0  0  0  0  0  0  0  0  0  0
   59.3926   30.8675   49.3483 H   0  0  0  0  0  0  0  0  0  0  0  0
   61.3949   32.9926   47.6727 H   0  0  0  0  0  0  0  0  0  0  0  0
   60.2745   31.6080   47.9948 H   0  0  0  0  0  0  0  0  0  0  0  0
   60.8699   32.2862   45.5095 H   0  0  0  0  0  0  0  0  0  0  0  0
   59.1604   31.8454   45.9915 H   0  0  0  0  0  0  0  0  0  0  0  0
   58.2078   33.4541   42.6201 H   0  0  0  0  0  0  0  0  0  0  0  0
   57.5209   31.4263   41.3449 H   0  0  0  0  0  0  0  0  0  0  0  0
   56.2650   28.3460   42.7700 H   0  0  0  0  0  0  0  0  0  0  0  0
   58.5762   30.0568   46.0108 H   0  0  0  0  0  0  0  0  0  0  0  0
   60.4754   30.3287   47.6246 H   0  0  0  0  0  0  0  0  0  0  0  0
   61.0966   28.4198   49.1276 H   0  0  0  0  0  0  0  0  0  0  0  0
   57.9963   26.0100   47.4603 H   0  0  0  0  0  0  0  0  0  0  0  0
  1  2  2  0
  2  3  2  0
  2  4  1  0
  4  5  1  0
  5  6  2  0
  6  7  1  0
  7  8  1  0
  8  9  1  0
  9 10  1  0
 10 11  1  0
 11 12  1  0
 12 13  1  0
 13 14  1  0
 14 15  2  0
 15 16  1  0
 16 17  2  0
 17 18  1  0
 18 19  2  0
 12 20  1  0
 20 21  1  0
  7 22  2  0
 22 23  1  0
 23 24  2  0
 24 25  1  0
  2 26  1  0
 26 27  2  0
 27 28  1  0
 28 29  2  0
 29 30  1  0
 30 31  2  0
 24  5  1  0
 31 26  1  0
 21  9  1  0
 19 14  1  0
  6 32  1  0
  8 33  1  0
  8 34  1  0
 10 35  1  0
 10 36  1  0
 11 37  1  0
 11 38  1  0
 12 39  1  0
 13 40  1  0
 13 41  1  0
 15 42  1  0
 16 43  1  0
 17 44  1  0
 18 45  1  0
 19 46  1  0
 20 47  1  0
 20 48  1  0
 21 49  1  0
 21 50  1  0
 22 51  1  0
 23 52  1  0
 25 53  1  0
 27 54  1  0
 28 55  1  0
 29 56  1  0
 31 57  1  0
M  CHG  1   4  -1
M  END
>  <UniqueID>  (60) 
59

>  <SMILES>  (60) 
O=S(=O)([N-]c1cc(CN2CCC(Cc3ccccc3)CC2)ccc1O)c1cccnc1

>  <Energy>  (60) 
71.90097075550958

>  <Genealogy>  (60) 
O=S(=O)([N-]c1cc(CN2CCC(Cc3ccccc3)CC2)ccc1O)c1cccnc1 (protonated)
O=S(=O)([N-]c1cc(CN2CCC(Cc3ccccc3)CC2)ccc1O)c1cccnc1 (3D coordinates assigned)
O=S(=O)([N-]c1cc(CN2CCC(Cc3ccccc3)CC2)ccc1O)c1cccnc1 (nonaromatic ring conformer: 71.90097075550958 kcal/mol)

>  <smiles>  (60) 
O=S(=O)(Nc1cc(CN2CCC(Cc3ccccc3)CC2)ccc1O)c1cccnc1

>  <score_type>  (60) 
oracle

>  <origin>  (60) 
adg

>  <m_score__min__energy>  (60) 
-11.56

>  <m_primary>  (60) 
energy

$$$$
60:0
     RDKit          3D

 59 63  0  0  0  0  0  0  0  0999 V2000
   62.4880   29.2270   52.3830 O   0  0  0  0  0  0  0  0  0  0  0  0
   62.1620   29.7500   51.2830 C   0  0  0  0  0  0  0  0  0  0  0  0
   62.5590   31.0940   50.9790 N   0  0  0  0  0  0  0  0  0  0  0  0
   61.8090   32.0700   50.2390 C   0  0  0  0  0  0  0  0  0  0  0  0
   60.5700   32.5680   50.6890 C   0  0  0  0  0  0  0  0  0  0  0  0
   59.8540   33.4870   49.9120 C   0  0  0  0  0  0  0  0  0  0  0  0
   60.3530   33.9000   48.6670 C   0  0  0  0  0  0  0  0  0  0  0  0
   59.5930   34.8970   47.8290 C   0  0  0  0  0  0  0  0  0  0  0  0
   58.6580   34.1970   46.8290 C   0  0  0  0  0  0  0  0  0  0  0  0
   59.4400   33.5190   45.7740 N   0  0  0  0  0  0  0  0  0  0  0  0
   58.9230   33.7970   44.4200 C   0  0  0  0  0  0  0  0  0  0  0  0
   57.5170   33.2170   44.2030 C   0  0  0  0  0  0  0  0  0  0  0  0
   57.3970   31.8050   44.7210 C   0  0  0  0  0  0  0  0  0  0  0  0
   56.2800   31.0330   44.3590 C   0  0  0  0  0  0  0  0  0  0  0  0
   56.1190   29.7400   44.8670 C   0  0  0  0  0  0  0  0  0  0  0  0
   55.0110   28.9820   44.5030 O   0  0  0  0  0  0  0  0  0  0  0  0
   57.0710   29.2110   45.7420 C   0  0  0  0  0  0  0  0  0  0  0  0
   58.1830   29.9720   46.1160 C   0  0  0  0  0  0  0  0  0  0  0  0
   58.3430   31.2790   45.6280 C   0  0  0  0  0  0  0  0  0  0  0  0
   59.5830   32.0650   45.9990 C   0  0  0  0  0  0  0  0  0  0  0  0
   61.5870   33.4000   48.2200 C   0  0  0  0  0  0  0  0  0  0  0  0
   62.3010   32.4840   48.9960 C   0  0  0  0  0  0  0  0  0  0  0  0
   61.4100   28.9590   50.2810 C   0  0  0  0  0  0  0  0  0  0  0  0
   60.9250   29.5530   49.1070 C   0  0  0  0  0  0  0  0  0  0  0  0
   60.1940   28.8010   48.1840 C   0  0  0  0  0  0  0  0  0  0  0  0
   59.9520   27.4390   48.4300 C   0  0  0  0  0  0  0  0  0  0  0  0
   59.1670   26.5940   47.4920 C   0  0  0  0  0  0  0  0  0  0  0  0
   57.7590   26.6530   47.4440 C   0  0  0  0  0  0  0  0  0  0  0  0
   57.0450   25.8420   46.5560 C   0  0  0  0  0  0  0  0  0  0  0  0
   57.7240   24.9690   45.7010 C   0  0  0  0  0  0  0  0  0  0  0  0
   59.1190   24.9090   45.7260 C   0  0  0  0  0  0  0  0  0  0  0  0
   59.8390   25.7150   46.6130 C   0  0  0  0  0  0  0  0  0  0  0  0
   60.4310   26.8860   49.5820 N   0  0  0  0  0  0  0  0  0  0  0  0
   61.1400   27.5990   50.4950 C   0  0  0  0  0  0  0  0  0  0  0  0
   60.1635   32.2334   51.6548 H   0  0  0  0  0  0  0  0  0  0  0  0
   58.8970   33.8866   50.2788 H   0  0  0  0  0  0  0  0  0  0  0  0
   58.9923   35.5369   48.4921 H   0  0  0  0  0  0  0  0  0  0  0  0
   60.3203   35.4952   47.2605 H   0  0  0  0  0  0  0  0  0  0  0  0
   58.0494   33.4524   47.3631 H   0  0  0  0  0  0  0  0  0  0  0  0
   58.0098   34.9522   46.3605 H   0  0  0  0  0  0  0  0  0  0  0  0
   58.8829   34.8864   44.2733 H   0  0  0  0  0  0  0  0  0  0  0  0
   59.5998   33.3192   43.6964 H   0  0  0  0  0  0  0  0  0  0  0  0
   56.7874   33.8505   44.7288 H   0  0  0  0  0  0  0  0  0  0  0  0
   57.3231   33.1973   43.1204 H   0  0  0  0  0  0  0  0  0  0  0  0
   55.5278   31.4481   43.6720 H   0  0  0  0  0  0  0  0  0  0  0  0
   56.9454   28.1925   46.1381 H   0  0  0  0  0  0  0  0  0  0  0  0
   58.9355   29.5450   46.7953 H   0  0  0  0  0  0  0  0  0  0  0  0
   59.7985   31.8956   47.0643 H   0  0  0  0  0  0  0  0  0  0  0  0
   60.3992   31.7128   45.3511 H   0  0  0  0  0  0  0  0  0  0  0  0
   61.9935   33.7317   47.2532 H   0  0  0  0  0  0  0  0  0  0  0  0
   63.2574   32.0849   48.6272 H   0  0  0  0  0  0  0  0  0  0  0  0
   61.1213   30.6176   48.9116 H   0  0  0  0  0  0  0  0  0  0  0  0
   59.8093   29.2734   47.2681 H   0  0  0  0  0  0  0  0  0  0  0  0
   57.2183   27.3418   48.1097 H   0  0  0  0  0  0  0  0  0  0  0  0
   55.9464   25.8912   46.5303 H   0  0  0  0  0  0  0  0  0  0  0  0
   57.1589   24.3286   45.0078 H   0  0  0  0  0  0  0  0  0  0  0  0
   59.6519   24.2269   45.0472 H   0  0  0  0  0  0  0  0  0  0  0  0
   60.9378   25.6645   46.6267 H   0  0  0  0  0  0  0  0  0  0  0  0
   61.5050   27.1068   51.4085 H   0  0  0  0  0  0  0  0  0  0  0  0
  1  2  2  0
  2  3  1  0
  3  4  1  0
  4  5  2  0
  5  6  1  0
  6  7  2  0
  7  8  1  0
  8  9  1  0
  9 10  1  0
 10 11  1  0
 11 12  1  0
 12 13  1  0
 13 14  2  0
 14 15  1  0
 15 16  1  0
 15 17  2  0
 17 18  1  0
 18 19  2  0
 19 20  1  0
  7 21  1  0
 21 22  2  0
  2 23  1  0
 23 24  2  0
 24 25  1  0
 25 26  2  0
 26 27  1  0
 27 28  2  0
 28 29  1  0
 29 30  2  0
 30 31  1  0
 31 32  2  0
 26 33  1  0
 33 34  2  0
 22  4  1  0
 34 23  1  0
 20 10  1  0
 32 27  1  0
 19 13  1  0
  5 35  1  0
  6 36  1  0
  8 37  1  0
  8 38  1  0
  9 39  1  0
  9 40  1  0
 11 41  1  0
 11 42  1  0
 12 43  1  0
 12 44  1  0
 14 45  1  0
 17 46  1  0
 18 47  1  0
 20 48  1  0
 20 49  1  0
 21 50  1  0
 22 51  1  0
 24 52  1  0
 25 53  1  0
 28 54  1  0
 29 55  1  0
 30 56  1  0
 31 57  1  0
 32 58  1  0
 34 59  1  0
M  CHG  2   3  -1  16  -1
M  END
>  <UniqueID>  (61) 
60

>  <SMILES>  (61) 
O=C([N-]c1ccc(CCN2CCc3cc([O-])ccc3C2)cc1)c1ccc(-c2ccccc2)nc1

>  <Energy>  (61) 
79.77066709722983

>  <Genealogy>  (61) 
O=C([N-]c1ccc(CCN2CCc3cc([O-])ccc3C2)cc1)c1ccc(-c2ccccc2)nc1 (protonated)
O=C([N-]c1ccc(CCN2CCc3cc([O-])ccc3C2)cc1)c1ccc(-c2ccccc2)nc1 (3D coordinates assigned)
O=C([N-]c1ccc(CCN2CCc3cc([O-])ccc3C2)cc1)c1ccc(-c2ccccc2)nc1 (nonaromatic ring conformer: 79.77066709722983 kcal/mol)

>  <smiles>  (61) 
O=C(Nc1ccc(CCN2CCc3cc(O)ccc3C2)cc1)c1ccc(-c2ccccc2)nc1

>  <score_type>  (61) 
oracle

>  <origin>  (61) 
adg

>  <m_score__min__energy>  (61) 
-14.85

>  <m_primary>  (61) 
energy

$$$$
61:0
     RDKit          3D

 36 38  0  0  0  0  0  0  0  0999 V2000
   54.8370   24.4340   47.6280 H   0  0  0  0  0  0  0  0  0  0  0  0
   55.8460   24.4720   47.5390 O   0  0  0  0  0  0  0  0  0  0  0  0
   56.4940   25.5230   46.8930 C   0  0  0  0  0  0  0  0  0  0  0  0
   57.8820   25.6460   47.0140 C   0  0  0  0  0  0  0  0  0  0  0  0
   58.4463   24.9162   47.6132 H   0  0  0  0  0  0  0  0  0  0  0  0
   58.5550   26.6920   46.3770 C   0  0  0  0  0  0  0  0  0  0  0  0
   59.6489   26.7713   46.4614 H   0  0  0  0  0  0  0  0  0  0  0  0
   57.8400   27.6430   45.6290 C   0  0  0  0  0  0  0  0  0  0  0  0
   58.5390   28.7290   44.9080 C   0  0  0  0  0  0  0  0  0  0  0  0
   59.3275   28.4284   44.2024 H   0  0  0  0  0  0  0  0  0  0  0  0
   58.3020   30.0670   45.0320 C   0  0  0  0  0  0  0  0  0  0  0  0
   57.1470   30.7370   44.5260 C   0  0  0  0  0  0  0  0  0  0  0  0
   56.3160   30.2220   43.6070 C   0  0  0  0  0  0  0  0  0  0  0  0
   56.4422   29.1816   43.2730 H   0  0  0  0  0  0  0  0  0  0  0  0
   55.5086   30.8402   43.1876 H   0  0  0  0  0  0  0  0  0  0  0  0
   56.9250   32.0250   44.8840 N   0  0  0  0  0  0  0  0  0  0  0  0
   57.7920   32.7340   45.6400 C   0  0  0  0  0  0  0  0  0  0  0  0
   57.5090   33.9270   45.9320 O   0  0  0  0  0  0  0  0  0  0  0  0
   58.9690   32.1710   46.0500 N   0  0  0  0  0  0  0  0  0  0  0  0
   59.9560   32.9780   46.7960 C   0  0  0  0  0  0  0  0  0  0  0  0
   60.9576   32.5435   46.6621 H   0  0  0  0  0  0  0  0  0  0  0  0
   59.9424   34.0092   46.4133 H   0  0  0  0  0  0  0  0  0  0  0  0
   59.6120   32.9900   48.2510 C   0  0  0  0  0  0  0  0  0  0  0  0
   58.8170   32.1180   48.8250 O   0  0  0  0  0  0  0  0  0  0  0  0
   58.7540   32.3930   50.1080 C   0  0  0  0  0  0  0  0  0  0  0  0
   58.1612   31.8334   50.8466 H   0  0  0  0  0  0  0  0  0  0  0  0
   59.5430   33.4890   50.3900 C   0  0  0  0  0  0  0  0  0  0  0  0
   59.6954   33.9590   51.3728 H   0  0  0  0  0  0  0  0  0  0  0  0
   60.1020   33.8760   49.1900 C   0  0  0  0  0  0  0  0  0  0  0  0
   60.7930   34.7143   49.0172 H   0  0  0  0  0  0  0  0  0  0  0  0
   59.2460   30.8630   45.7330 C   0  0  0  0  0  0  0  0  0  0  0  0
   60.3460   30.3580   46.1000 O   0  0  0  0  0  0  0  0  0  0  0  0
   56.4530   27.5000   45.4840 C   0  0  0  0  0  0  0  0  0  0  0  0
   55.8917   28.2161   44.8658 H   0  0  0  0  0  0  0  0  0  0  0  0
   55.7780   26.4530   46.1200 C   0  0  0  0  0  0  0  0  0  0  0  0
   54.4000   26.3410   45.9790 O   0  0  0  0  0  0  0  0  0  0  0  0
  1  2  1  0
  2  3  1  0
  3  4  2  0
  4  5  1  0
  4  6  1  0
  6  7  1  0
  6  8  2  0
  8  9  1  0
  9 10  1  0
  9 11  2  0
 11 12  1  0
 12 13  2  0
 13 14  1  0
 13 15  1  0
 12 16  1  0
 16 17  1  0
 17 18  2  0
 17 19  1  0
 19 20  1  0
 20 21  1  0
 20 22  1  0
 20 23  1  0
 23 24  1  0
 24 25  1  0
 25 26  1  0
 25 27  2  0
 27 28  1  0
 27 29  1  0
 29 30  1  0
 19 31  1  0
 31 32  2  0
  8 33  1  0
 33 34  1  0
 33 35  2  0
 35 36  1  0
 35  3  1  0
 31 11  1  0
 29 23  2  0
M  CHG  2  16  -1  36  -1
M  END
>  <UniqueID>  (62) 
61

>  <SMILES>  (62) 
C=c1[n-]c(=O)n(Cc2ccco2)c(=O)/c1=C/c1ccc(O)c([O-])c1

>  <Energy>  (62) 
90.55771607626316

>  <Genealogy>  (62) 
C=c1[n-]c(=O)n(Cc2ccco2)c(=O)c1=Cc1ccc(O)c([O-])c1 (protonated)
C=c1[n-]c(=O)n(Cc2ccco2)c(=O)/c1=C/c1ccc(O)c([O-])c1 (cis-trans isomerization)
C=c1[n-]c(=O)n(Cc2ccco2)c(=O)/c1=C/c1ccc(O)c([O-])c1 (3D coordinates assigned)
C=c1[n-]c(=O)n(Cc2ccco2)c(=O)/c1=C/c1ccc(O)c([O-])c1 (optimized conformer: 90.55771607626316 kcal/mol)

>  <smiles>  (62) 
C=c1[nH]c(=O)n(Cc2ccco2)c(=O)c1=Cc1ccc(O)c(O)c1

>  <score_type>  (62) 
oracle

>  <origin>  (62) 
adg

>  <m_score__min__energy>  (62) 
-12.449999999999999

>  <m_primary>  (62) 
energy

$$$$
62:0
     RDKit          3D

 63 67  0  0  0  0  0  0  0  0999 V2000
   55.2058   28.9490   43.5467 H   0  0  0  0  0  0  0  0  0  0  0  0
   55.9850   29.7110   43.6960 C   0  0  0  0  0  0  0  0  0  0  0  0
   56.4190   30.0010   44.9500 N   0  0  0  0  0  0  0  0  0  0  0  0
   57.3800   30.9320   45.1950 C   0  0  0  0  0  0  0  0  0  0  0  0
   57.7710   31.0940   46.4290 N   0  0  0  0  0  0  0  0  0  0  0  0
   59.3530   31.4620   47.0630 S   0  0  0  0  0  0  0  0  0  0  0  0
   60.4360   31.3220   46.0290 O   0  0  0  0  0  0  0  0  0  0  0  0
   59.3550   32.8930   47.5240 O   0  0  0  0  0  0  0  0  0  0  0  0
   59.6510   30.4020   48.4480 C   0  0  0  0  0  0  0  0  0  0  0  0
   59.2470   30.8200   49.7260 C   0  0  0  0  0  0  0  0  0  0  0  0
   58.8751   31.8447   49.8728 H   0  0  0  0  0  0  0  0  0  0  0  0
   59.3140   29.9410   50.8170 C   0  0  0  0  0  0  0  0  0  0  0  0
   58.9050   30.3940   52.1480 C   0  0  0  0  0  0  0  0  0  0  0  0
   59.6180   30.1000   53.1470 O   0  0  0  0  0  0  0  0  0  0  0  0
   57.6530   31.0860   52.2920 N   0  0  0  0  0  0  0  0  0  0  0  0
   56.4400   30.6100   52.4080 C   0  0  0  0  0  0  0  0  0  0  0  0
   56.0920   29.6080   53.3410 C   0  0  0  0  0  0  0  0  0  0  0  0
   56.8546   29.1896   54.0143 H   0  0  0  0  0  0  0  0  0  0  0  0
   54.7730   29.1520   53.4030 C   0  0  0  0  0  0  0  0  0  0  0  0
   54.4966   28.3648   54.1199 H   0  0  0  0  0  0  0  0  0  0  0  0
   53.8070   29.6940   52.5570 C   0  0  0  0  0  0  0  0  0  0  0  0
   52.1520   29.1220   52.6200 Cl  0  0  0  0  0  0  0  0  0  0  0  0
   54.1750   30.6960   51.6580 C   0  0  0  0  0  0  0  0  0  0  0  0
   53.4211   31.1355   50.9884 H   0  0  0  0  0  0  0  0  0  0  0  0
   55.4630   31.1310   51.6070 N   0  0  0  0  0  0  0  0  0  0  0  0
   55.7040   31.8840   50.9230 H   0  0  0  0  0  0  0  0  0  0  0  0
   59.7990   28.6430   50.6360 C   0  0  0  0  0  0  0  0  0  0  0  0
   59.8389   27.9472   51.4871 H   0  0  0  0  0  0  0  0  0  0  0  0
   60.2320   28.2300   49.3780 C   0  0  0  0  0  0  0  0  0  0  0  0
   60.6374   27.2159   49.2463 H   0  0  0  0  0  0  0  0  0  0  0  0
   60.1550   29.0990   48.2750 C   0  0  0  0  0  0  0  0  0  0  0  0
   60.6050   28.6820   47.0170 O   0  0  0  0  0  0  0  0  0  0  0  0
   59.8150   27.9950   46.0860 C   0  0  0  0  0  0  0  0  0  0  0  0
   59.6270   28.5480   44.8150 C   0  0  0  0  0  0  0  0  0  0  0  0
   60.1183   29.4964   44.5523 H   0  0  0  0  0  0  0  0  0  0  0  0
   58.8180   27.9010   43.8780 C   0  0  0  0  0  0  0  0  0  0  0  0
   58.6852   28.3337   42.8754 H   0  0  0  0  0  0  0  0  0  0  0  0
   58.1770   26.7050   44.2120 C   0  0  0  0  0  0  0  0  0  0  0  0
   57.5427   26.1979   43.4700 H   0  0  0  0  0  0  0  0  0  0  0  0
   58.3390   26.1480   45.4900 C   0  0  0  0  0  0  0  0  0  0  0  0
   57.6470   24.9380   45.8450 N   0  0  0  0  0  0  0  0  0  0  0  0
   56.3860   25.0080   46.5950 C   0  0  0  0  0  0  0  0  0  0  0  0
   56.3276   25.9811   47.1046 H   0  0  0  0  0  0  0  0  0  0  0  0
   55.5559   24.8859   45.8836 H   0  0  0  0  0  0  0  0  0  0  0  0
   56.2870   23.8840   47.6490 C   0  0  0  0  0  0  0  0  0  0  0  0
   56.5311   24.3107   48.6330 H   0  0  0  0  0  0  0  0  0  0  0  0
   55.2606   23.4916   47.5988 H   0  0  0  0  0  0  0  0  0  0  0  0
   57.1910   22.7440   47.4010 N   0  0  0  0  0  0  0  0  0  0  0  0
   58.1260   22.9650   47.8190 H   0  0  0  0  0  0  0  0  0  0  0  0
   57.3670   22.4870   45.9670 C   0  0  0  0  0  0  0  0  0  0  0  0
   57.9511   21.5646   45.8330 H   0  0  0  0  0  0  0  0  0  0  0  0
   56.3771   22.3786   45.4997 H   0  0  0  0  0  0  0  0  0  0  0  0
   58.1060   23.6540   45.3020 C   0  0  0  0  0  0  0  0  0  0  0  0
   59.1854   23.5495   45.4865 H   0  0  0  0  0  0  0  0  0  0  0  0
   57.8987   23.6333   44.2219 H   0  0  0  0  0  0  0  0  0  0  0  0
   59.1600   26.7970   46.4230 C   0  0  0  0  0  0  0  0  0  0  0  0
   59.2928   26.3659   47.4262 H   0  0  0  0  0  0  0  0  0  0  0  0
   57.9290   31.6350   44.1060 C   0  0  0  0  0  0  0  0  0  0  0  0
   58.6956   32.4053   44.2761 H   0  0  0  0  0  0  0  0  0  0  0  0
   57.4970   31.3510   42.8100 C   0  0  0  0  0  0  0  0  0  0  0  0
   57.9244   31.8967   41.9559 H   0  0  0  0  0  0  0  0  0  0  0  0
   56.5260   30.3780   42.5980 C   0  0  0  0  0  0  0  0  0  0  0  0
   56.1898   30.1382   41.5785 H   0  0  0  0  0  0  0  0  0  0  0  0
  1  2  1  0
  2  3  1  0
  3  4  1  0
  4  5  2  0
  5  6  1  0
  6  7  2  0
  6  8  2  0
  6  9  1  0
  9 10  2  0
 10 11  1  0
 10 12  1  0
 12 13  1  0
 13 14  2  0
 13 15  1  0
 15 16  2  3
 16 17  1  0
 17 18  1  0
 17 19  2  0
 19 20  1  0
 19 21  1  0
 21 22  1  0
 21 23  2  0
 23 24  1  0
 23 25  1  0
 25 26  1  0
 12 27  2  0
 27 28  1  0
 27 29  1  0
 29 30  1  0
 29 31  2  0
 31 32  1  0
 32 33  1  0
 33 34  2  0
 34 35  1  0
 34 36  1  0
 36 37  1  0
 36 38  2  0
 38 39  1  0
 38 40  1  0
 40 41  1  0
 41 42  1  0
 42 43  1  0
 42 44  1  0
 42 45  1  0
 45 46  1  0
 45 47  1  0
 45 48  1  0
 48 49  1  0
 48 50  1  0
 50 51  1  0
 50 52  1  0
 50 53  1  0
 53 54  1  0
 53 55  1  0
 40 56  2  0
 56 57  1  0
  4 58  1  0
 58 59  1  0
 58 60  2  0
 60 61  1  0
 60 62  1  0
 62 63  1  0
 62  2  2  0
 31  9  1  0
 56 33  1  0
 25 16  1  0
 53 41  1  0
M  CHG  1   3  -1
M  END
>  <UniqueID>  (63) 
62

>  <SMILES>  (63) 
O=C(N=c1ccc(Cl)c[nH]1)c1ccc(Oc2cccc(N3CCNCC3)c2)c(S(=O)(=O)/N=c2\cccc[n-]2)c1

>  <Energy>  (63) 
106.12673686651085

>  <Genealogy>  (63) 
O=C(N=c1ccc(Cl)c[nH]1)c1ccc(Oc2cccc(N3CCNCC3)c2)c(S(=O)(=O)N=c2cccc[n-]2)c1 (protonated)
O=C(N=c1ccc(Cl)c[nH]1)c1ccc(Oc2cccc(N3CCNCC3)c2)c(S(=O)(=O)/N=c2\cccc[n-]2)c1 (cis-trans isomerization)
O=C(N=c1ccc(Cl)c[nH]1)c1ccc(Oc2cccc(N3CCNCC3)c2)c(S(=O)(=O)/N=c2\cccc[n-]2)c1 (3D coordinates assigned)
O=C(N=c1ccc(Cl)c[nH]1)c1ccc(Oc2cccc(N3CCNCC3)c2)c(S(=O)(=O)/N=c2\cccc[n-]2)c1 (nonaromatic ring conformer: 106.12673686651085 kcal/mol)

>  <smiles>  (63) 
O=C(N=c1ccc(Cl)c[nH]1)c1ccc(Oc2cccc(N3CCNCC3)c2)c(S(=O)(=O)N=c2cccc[nH]2)c1

>  <score_type>  (63) 
oracle

>  <origin>  (63) 
adg

>  <m_score__min__energy>  (63) 
-11.44

>  <m_primary>  (63) 
energy

$$$$
63:0
     RDKit          3D

 35 36  0  0  0  0  0  0  0  0999 V2000
   59.2195   26.6575   44.3455 H   0  0  0  0  0  0  0  0  0  0  0  0
   58.8590   26.4190   45.3570 C   0  0  0  0  0  0  0  0  0  0  0  0
   59.7520   26.2620   46.3390 C   0  0  0  0  0  0  0  0  0  0  0  0
   60.0978   25.2494   46.5940 H   0  0  0  0  0  0  0  0  0  0  0  0
   60.2940   27.4360   47.1020 C   0  0  0  0  0  0  0  0  0  0  0  0
   60.7556   28.1404   46.3943 H   0  0  0  0  0  0  0  0  0  0  0  0
   61.0359   27.0660   47.8250 H   0  0  0  0  0  0  0  0  0  0  0  0
   59.1920   28.1570   47.8720 C   0  0  0  0  0  0  0  0  0  0  0  0
   59.3652   28.0437   48.9524 H   0  0  0  0  0  0  0  0  0  0  0  0
   59.1998   29.2252   47.6094 H   0  0  0  0  0  0  0  0  0  0  0  0
   58.2164   27.7220   47.6094 H   0  0  0  0  0  0  0  0  0  0  0  0
   57.4090   26.2840   45.5810 C   0  0  0  0  0  0  0  0  0  0  0  0
   56.8310   25.0930   45.8190 N   0  0  0  0  0  0  0  0  0  0  0  0
   55.5350   25.4040   46.0120 C   0  0  0  0  0  0  0  0  0  0  0  0
   54.6590   24.5380   46.2730 O   0  0  0  0  0  0  0  0  0  0  0  0
   55.2480   26.7150   45.9000 N   0  0  0  0  0  0  0  0  0  0  0  0
   56.4380   27.2780   45.6190 C   0  0  0  0  0  0  0  0  0  0  0  0
   56.5810   28.7100   45.2880 C   0  0  0  0  0  0  0  0  0  0  0  0
   55.5580   29.4080   45.0570 O   0  0  0  0  0  0  0  0  0  0  0  0
   57.8890   29.3010   45.2380 N   0  0  0  0  0  0  0  0  0  0  0  0
   58.7110   28.6630   45.1420 H   0  0  0  0  0  0  0  0  0  0  0  0
   58.1290   30.7180   45.1750 C   0  0  0  0  0  0  0  0  0  0  0  0
   58.6650   31.4210   46.2690 C   0  0  0  0  0  0  0  0  0  0  0  0
   58.8919   30.8875   47.2038 H   0  0  0  0  0  0  0  0  0  0  0  0
   58.9110   32.7940   46.1750 C   0  0  0  0  0  0  0  0  0  0  0  0
   59.3097   33.3392   47.0432 H   0  0  0  0  0  0  0  0  0  0  0  0
   58.6520   33.4800   44.9790 C   0  0  0  0  0  0  0  0  0  0  0  0
   58.8800   34.9600   44.8920 C   0  0  0  0  0  0  0  0  0  0  0  0
   58.9449   35.3812   45.9061 H   0  0  0  0  0  0  0  0  0  0  0  0
   59.8188   35.1553   44.3531 H   0  0  0  0  0  0  0  0  0  0  0  0
   58.0435   35.4288   44.3531 H   0  0  0  0  0  0  0  0  0  0  0  0
   58.1230   32.7790   43.8850 C   0  0  0  0  0  0  0  0  0  0  0  0
   57.9007   33.3121   42.9489 H   0  0  0  0  0  0  0  0  0  0  0  0
   57.8770   31.4060   43.9790 C   0  0  0  0  0  0  0  0  0  0  0  0
   57.4829   30.8612   43.1085 H   0  0  0  0  0  0  0  0  0  0  0  0
  1  2  1  0
  2  3  2  0
  3  4  1  0
  3  5  1  0
  5  6  1  0
  5  7  1  0
  5  8  1  0
  8  9  1  0
  8 10  1  0
  8 11  1  0
  2 12  1  0
 12 13  1  0
 13 14  1  0
 14 15  2  0
 14 16  1  0
 16 17  1  0
 17 18  1  0
 18 19  2  0
 18 20  1  0
 20 21  1  0
 20 22  1  0
 22 23  2  0
 23 24  1  0
 23 25  1  0
 25 26  1  0
 25 27  2  0
 27 28  1  0
 28 29  1  0
 28 30  1  0
 28 31  1  0
 27 32  1  0
 32 33  1  0
 32 34  2  0
 34 35  1  0
 17 12  2  0
 34 22  1  0
M  CHG  2  13  -1  16  -1
M  END
>  <UniqueID>  (64) 
63

>  <SMILES>  (64) 
CC/C=C/c1[n-]c(=O)[n-]c1C(=O)Nc1ccc(C)cc1

>  <Energy>  (64) 
65.94244251295284

>  <Genealogy>  (64) 
CCC=Cc1[n-]c(=O)[n-]c1C(=O)Nc1ccc(C)cc1 (protonated)
CC/C=C/c1[n-]c(=O)[n-]c1C(=O)Nc1ccc(C)cc1 (cis-trans isomerization)
CC/C=C/c1[n-]c(=O)[n-]c1C(=O)Nc1ccc(C)cc1 (3D coordinates assigned)
CC/C=C/c1[n-]c(=O)[n-]c1C(=O)Nc1ccc(C)cc1 (optimized conformer: 65.94244251295284 kcal/mol)

>  <smiles>  (64) 
CCC=Cc1[nH]c(=O)[nH]c1C(=O)Nc1ccc(C)cc1

>  <score_type>  (64) 
oracle

>  <origin>  (64) 
adg

>  <m_score__min__energy>  (64) 
-10.91

>  <m_primary>  (64) 
energy

$$$$
64:0
     RDKit          3D

 42 44  0  0  0  0  0  0  0  0999 V2000
   57.5570   26.0330   44.3030 O   0  0  0  0  0  0  0  0  0  0  0  0
   57.4200   25.9240   45.5510 C   0  0  0  0  0  0  0  0  0  0  0  0
   57.2260   24.5700   46.1570 C   0  0  0  0  0  0  0  0  0  0  0  0
   55.7980   24.1420   46.0160 C   0  0  0  0  0  0  0  0  0  0  0  0
   55.2790   22.5360   46.0300 S   0  0  0  0  0  0  0  0  0  0  0  0
   53.6840   22.9590   45.7220 C   0  0  0  0  0  0  0  0  0  0  0  0
   52.7400   22.1340   45.6180 O   0  0  0  0  0  0  0  0  0  0  0  0
   53.5160   24.2900   45.5870 N   0  0  0  0  0  0  0  0  0  0  0  0
   54.6910   24.9540   45.7450 C   0  0  0  0  0  0  0  0  0  0  0  0
   54.7530   26.3410   45.6240 O   0  0  0  0  0  0  0  0  0  0  0  0
   57.3620   27.0850   46.3880 N   0  0  0  0  0  0  0  0  0  0  0  0
   57.6750   28.4320   46.0030 C   0  0  0  0  0  0  0  0  0  0  0  0
   58.8790   29.0490   46.3850 C   0  0  0  0  0  0  0  0  0  0  0  0
   59.1600   30.3700   45.9930 C   0  0  0  0  0  0  0  0  0  0  0  0
   60.4300   31.0190   46.3950 C   0  0  0  0  0  0  0  0  0  0  0  0
   61.5030   30.3570   46.3670 O   0  0  0  0  0  0  0  0  0  0  0  0
   60.4600   32.3910   46.8280 N   0  0  0  0  0  0  0  0  0  0  0  0
   61.3070   32.7570   47.9730 C   0  0  0  0  0  0  0  0  0  0  0  0
   61.0910   34.2190   48.3910 C   0  0  0  0  0  0  0  0  0  0  0  0
   59.6030   34.5770   48.3030 C   0  0  0  0  0  0  0  0  0  0  0  0
   59.0610   34.4410   46.8660 C   0  0  0  0  0  0  0  0  0  0  0  0
   59.8520   33.4430   46.0010 C   0  0  0  0  0  0  0  0  0  0  0  0
   58.2040   31.0800   45.2450 C   0  0  0  0  0  0  0  0  0  0  0  0
   56.9980   30.4770   44.8870 C   0  0  0  0  0  0  0  0  0  0  0  0
   56.7290   29.1610   45.2690 C   0  0  0  0  0  0  0  0  0  0  0  0
   55.5180   28.5760   44.9090 O   0  0  0  0  0  0  0  0  0  0  0  0
   57.8752   23.8454   45.6437 H   0  0  0  0  0  0  0  0  0  0  0  0
   57.4846   24.6137   47.2253 H   0  0  0  0  0  0  0  0  0  0  0  0
   55.5430   26.8120   45.2030 H   0  0  0  0  0  0  0  0  0  0  0  0
   59.6069   28.4942   46.9952 H   0  0  0  0  0  0  0  0  0  0  0  0
   61.0613   32.1027   48.8225 H   0  0  0  0  0  0  0  0  0  0  0  0
   62.3591   32.6358   47.6756 H   0  0  0  0  0  0  0  0  0  0  0  0
   61.4379   34.3567   49.4257 H   0  0  0  0  0  0  0  0  0  0  0  0
   61.6599   34.8747   47.7155 H   0  0  0  0  0  0  0  0  0  0  0  0
   59.0359   33.9030   48.9619 H   0  0  0  0  0  0  0  0  0  0  0  0
   59.4867   35.6262   48.6125 H   0  0  0  0  0  0  0  0  0  0  0  0
   58.0156   34.1028   46.9191 H   0  0  0  0  0  0  0  0  0  0  0  0
   59.1577   35.4279   46.3900 H   0  0  0  0  0  0  0  0  0  0  0  0
   59.1698   32.9787   45.2736 H   0  0  0  0  0  0  0  0  0  0  0  0
   60.6552   33.9889   45.4844 H   0  0  0  0  0  0  0  0  0  0  0  0
   58.4083   32.1170   44.9404 H   0  0  0  0  0  0  0  0  0  0  0  0
   56.2563   31.0402   44.3017 H   0  0  0  0  0  0  0  0  0  0  0  0
  1  2  2  0
  2  3  1  0
  3  4  1  0
  4  5  1  0
  5  6  1  0
  6  7  2  0
  6  8  1  0
  8  9  1  0
  9 10  1  0
  2 11  1  0
 11 12  1  0
 12 13  2  0
 13 14  1  0
 14 15  1  0
 15 16  2  0
 15 17  1  0
 17 18  1  0
 18 19  1  0
 19 20  1  0
 20 21  1  0
 21 22  1  0
 14 23  2  0
 23 24  1  0
 24 25  2  0
 25 26  1  0
  9  4  2  0
 25 12  1  0
 22 17  1  0
  3 27  1  0
  3 28  1  0
 10 29  1  0
 13 30  1  0
 18 31  1  0
 18 32  1  0
 19 33  1  0
 19 34  1  0
 20 35  1  0
 20 36  1  0
 21 37  1  0
 21 38  1  0
 22 39  1  0
 22 40  1  0
 23 41  1  0
 24 42  1  0
M  CHG  3   8  -1  11  -1  26  -1
M  END
>  <UniqueID>  (65) 
64

>  <SMILES>  (65) 
O=C(Cc1sc(=O)[n-]c1O)[N-]c1cc(C(=O)N2CCCCC2)ccc1[O-]

>  <Energy>  (65) 
80.94660276549469

>  <Genealogy>  (65) 
O=C(Cc1sc(=O)[n-]c1O)[N-]c1cc(C(=O)N2CCCCC2)ccc1[O-] (protonated)
O=C(Cc1sc(=O)[n-]c1O)[N-]c1cc(C(=O)N2CCCCC2)ccc1[O-] (3D coordinates assigned)
O=C(Cc1sc(=O)[n-]c1O)[N-]c1cc(C(=O)N2CCCCC2)ccc1[O-] (nonaromatic ring conformer: 80.94660276549469 kcal/mol)

>  <smiles>  (65) 
O=C(Cc1sc(=O)[nH]c1O)Nc1cc(C(=O)N2CCCCC2)ccc1O

>  <score_type>  (65) 
oracle

>  <origin>  (65) 
adg

>  <m_score__min__energy>  (65) 
-15.73

>  <m_primary>  (65) 
energy

$$$$
65:0
     RDKit          3D

 44 46  0  0  0  0  0  0  0  0999 V2000
   54.7840   26.2960   46.0210 N   0  0  0  0  0  0  0  0  0  0  0  0
   55.8930   24.9690   46.0150 S   0  0  0  0  0  0  0  0  0  0  0  0
   55.5620   24.0520   44.8720 O   0  0  0  0  0  0  0  0  0  0  0  0
   55.7790   24.2130   47.3100 O   0  0  0  0  0  0  0  0  0  0  0  0
   57.5610   25.5690   45.8210 C   0  0  0  0  0  0  0  0  0  0  0  0
   57.5600   27.0060   45.3730 C   0  0  0  0  0  0  0  0  0  0  0  0
   57.4270   28.0420   46.3100 C   0  0  0  0  0  0  0  0  0  0  0  0
   57.4410   29.3770   45.8950 C   0  0  0  0  0  0  0  0  0  0  0  0
   57.6000   29.7000   44.5350 C   0  0  0  0  0  0  0  0  0  0  0  0
   57.5990   31.1140   44.0930 C   0  0  0  0  0  0  0  0  0  0  0  0
   57.6710   31.3900   42.8640 O   0  0  0  0  0  0  0  0  0  0  0  0
   57.4600   32.1680   45.0570 N   0  0  0  0  0  0  0  0  0  0  0  0
   58.4880   33.0640   45.4970 C   0  0  0  0  0  0  0  0  0  0  0  0
   58.3360   34.4310   45.2480 C   0  0  0  0  0  0  0  0  0  0  0  0
   59.3060   35.3380   45.6730 C   0  0  0  0  0  0  0  0  0  0  0  0
   60.4290   34.8900   46.3700 C   0  0  0  0  0  0  0  0  0  0  0  0
   60.5910   33.5230   46.6660 C   0  0  0  0  0  0  0  0  0  0  0  0
   61.7370   33.0630   47.4250 N   0  0  0  0  0  0  0  0  0  0  0  0
   61.6470   32.1420   48.5490 C   0  0  0  0  0  0  0  0  0  0  0  0
   63.0790   31.7950   48.9270 C   0  0  0  0  0  0  0  0  0  0  0  0
   63.9590   32.8460   48.2530 C   0  0  0  0  0  0  0  0  0  0  0  0
   63.1110   33.4590   47.1470 C   0  0  0  0  0  0  0  0  0  0  0  0
   59.6060   32.6140   46.2260 C   0  0  0  0  0  0  0  0  0  0  0  0
   57.7510   28.6580   43.6020 C   0  0  0  0  0  0  0  0  0  0  0  0
   57.7330   27.3230   44.0180 C   0  0  0  0  0  0  0  0  0  0  0  0
   54.7940   26.7060   45.0620 H   0  0  0  0  0  0  0  0  0  0  0  0
   58.0872   25.4912   46.7839 H   0  0  0  0  0  0  0  0  0  0  0  0
   58.0695   24.9608   45.0584 H   0  0  0  0  0  0  0  0  0  0  0  0
   57.3110   27.8024   47.3773 H   0  0  0  0  0  0  0  0  0  0  0  0
   57.3269   30.1807   46.6373 H   0  0  0  0  0  0  0  0  0  0  0  0
   57.4456   34.7935   44.7134 H   0  0  0  0  0  0  0  0  0  0  0  0
   59.1857   36.4101   45.4582 H   0  0  0  0  0  0  0  0  0  0  0  0
   61.1947   35.6115   46.6911 H   0  0  0  0  0  0  0  0  0  0  0  0
   61.1345   32.6221   49.3957 H   0  0  0  0  0  0  0  0  0  0  0  0
   61.0720   31.2420   48.2856 H   0  0  0  0  0  0  0  0  0  0  0  0
   63.2060   31.8334   50.0190 H   0  0  0  0  0  0  0  0  0  0  0  0
   63.3460   30.7782   48.6031 H   0  0  0  0  0  0  0  0  0  0  0  0
   64.2562   33.6175   48.9785 H   0  0  0  0  0  0  0  0  0  0  0  0
   64.8819   32.4011   47.8526 H   0  0  0  0  0  0  0  0  0  0  0  0
   63.2023   34.5551   47.1590 H   0  0  0  0  0  0  0  0  0  0  0  0
   63.4355   33.1145   46.1540 H   0  0  0  0  0  0  0  0  0  0  0  0
   59.7121   31.5432   46.4545 H   0  0  0  0  0  0  0  0  0  0  0  0
   57.8844   28.8954   42.5362 H   0  0  0  0  0  0  0  0  0  0  0  0
   57.8551   26.5177   43.2787 H   0  0  0  0  0  0  0  0  0  0  0  0
  1  2  1  0
  2  3  2  0
  2  4  2  0
  2  5  1  0
  5  6  1  0
  6  7  2  0
  7  8  1  0
  8  9  2  0
  9 10  1  0
 10 11  2  0
 10 12  1  0
 12 13  1  0
 13 14  2  0
 14 15  1  0
 15 16  2  0
 16 17  1  0
 17 18  1  0
 18 19  1  0
 19 20  1  0
 20 21  1  0
 21 22  1  0
 17 23  2  0
  9 24  1  0
 24 25  2  0
 25  6  1  0
 23 13  1  0
 22 18  1  0
  1 26  1  0
  5 27  1  0
  5 28  1  0
  7 29  1  0
  8 30  1  0
 14 31  1  0
 15 32  1  0
 16 33  1  0
 19 34  1  0
 19 35  1  0
 20 36  1  0
 20 37  1  0
 21 38  1  0
 21 39  1  0
 22 40  1  0
 22 41  1  0
 23 42  1  0
 24 43  1  0
 25 44  1  0
M  CHG  2   1  -1  12  -1
M  END
>  <UniqueID>  (66) 
65

>  <SMILES>  (66) 
[NH-]S(=O)(=O)Cc1ccc(C(=O)[N-]c2cccc(N3CCCC3)c2)cc1

>  <Energy>  (66) 
45.39328479392816

>  <Genealogy>  (66) 
[NH-]S(=O)(=O)Cc1ccc(C(=O)[N-]c2cccc(N3CCCC3)c2)cc1 (protonated)
[NH-]S(=O)(=O)Cc1ccc(C(=O)[N-]c2cccc(N3CCCC3)c2)cc1 (3D coordinates assigned)
[NH-]S(=O)(=O)Cc1ccc(C(=O)[N-]c2cccc(N3CCCC3)c2)cc1 (nonaromatic ring conformer: 45.39328479392816 kcal/mol)

>  <smiles>  (66) 
NS(=O)(=O)Cc1ccc(C(=O)Nc2cccc(N3CCCC3)c2)cc1

>  <score_type>  (66) 
oracle

>  <origin>  (66) 
adg

>  <m_score__min__energy>  (66) 
-12.43

>  <m_primary>  (66) 
energy

$$$$
66:0
     RDKit          3D

 53 56  0  0  0  0  0  0  0  0999 V2000
   59.0141   30.5887   44.0774 H   0  0  0  0  0  0  0  0  0  0  0  0
   58.8730   29.5550   44.4260 C   0  0  0  0  0  0  0  0  0  0  0  0
   58.6013   28.7654   43.7100 H   0  0  0  0  0  0  0  0  0  0  0  0
   59.0330   29.2560   45.7300 C   0  0  0  0  0  0  0  0  0  0  0  0
   58.8690   27.9560   46.2490 C   0  0  0  0  0  0  0  0  0  0  0  0
   58.4720   26.8470   45.5820 C   0  0  0  0  0  0  0  0  0  0  0  0
   59.0703   26.5469   44.7091 H   0  0  0  0  0  0  0  0  0  0  0  0
   57.3040   26.0010   45.9220 C   0  0  0  0  0  0  0  0  0  0  0  0
   57.3440   24.7160   46.3220 N   0  0  0  0  0  0  0  0  0  0  0  0
   56.0510   24.4170   46.5630 C   0  0  0  0  0  0  0  0  0  0  0  0
   55.6800   23.2820   46.9590 O   0  0  0  0  0  0  0  0  0  0  0  0
   55.1870   25.4320   46.3510 N   0  0  0  0  0  0  0  0  0  0  0  0
   55.9970   26.4260   45.9510 C   0  0  0  0  0  0  0  0  0  0  0  0
   55.5480   27.6990   45.6220 O   0  0  0  0  0  0  0  0  0  0  0  0
   59.2060   28.0310   47.5830 C   0  0  0  0  0  0  0  0  0  0  0  0
   59.2118   27.2001   48.3039 H   0  0  0  0  0  0  0  0  0  0  0  0
   59.5330   29.3380   47.8420 C   0  0  0  0  0  0  0  0  0  0  0  0
   59.9780   29.8020   49.2030 C   0  0  0  0  0  0  0  0  0  0  0  0
   59.4373   29.2382   49.9775 H   0  0  0  0  0  0  0  0  0  0  0  0
   61.0592   29.6318   49.3131 H   0  0  0  0  0  0  0  0  0  0  0  0
   59.7627   30.8751   49.3131 H   0  0  0  0  0  0  0  0  0  0  0  0
   59.4130   30.1200   46.7330 N   0  0  0  0  0  0  0  0  0  0  0  0
   59.6990   31.5870   46.7860 C   0  0  2  0  0  0  0  0  0  0  0  0
   59.4205   31.9133   45.7731 H   0  0  0  0  0  0  0  0  0  0  0  0
   61.1660   31.8640   47.0120 C   0  0  0  0  0  0  0  0  0  0  0  0
   61.9600   30.8990   47.1890 O   0  0  0  0  0  0  0  0  0  0  0  0
   61.6790   33.2000   47.0150 N   0  0  0  0  0  0  0  0  0  0  0  0
   63.0310   33.4560   47.5320 C   0  0  0  0  0  0  0  0  0  0  0  0
   63.7301   32.7333   47.0859 H   0  0  0  0  0  0  0  0  0  0  0  0
   63.3200   34.4837   47.2670 H   0  0  0  0  0  0  0  0  0  0  0  0
   63.0680   33.3170   49.0310 C   0  0  0  0  0  0  0  0  0  0  0  0
   61.9490   33.6630   49.8070 C   0  0  0  0  0  0  0  0  0  0  0  0
   61.0513   34.0727   49.3209 H   0  0  0  0  0  0  0  0  0  0  0  0
   61.9710   33.4890   51.1950 C   0  0  0  0  0  0  0  0  0  0  0  0
   61.0944   33.7690   51.7976 H   0  0  0  0  0  0  0  0  0  0  0  0
   63.1050   32.9600   51.8170 C   0  0  0  0  0  0  0  0  0  0  0  0
   63.1211   32.8240   52.9084 H   0  0  0  0  0  0  0  0  0  0  0  0
   64.2180   32.6040   51.0520 C   0  0  0  0  0  0  0  0  0  0  0  0
   65.1111   32.1891   51.5421 H   0  0  0  0  0  0  0  0  0  0  0  0
   64.1990   32.7740   49.6650 C   0  0  0  0  0  0  0  0  0  0  0  0
   65.0740   32.4813   49.0661 H   0  0  0  0  0  0  0  0  0  0  0  0
   60.9940   34.2070   46.2060 C   0  0  0  0  0  0  0  0  0  0  0  0
   60.5921   33.7298   45.3001 H   0  0  0  0  0  0  0  0  0  0  0  0
   61.7145   34.9932   45.9363 H   0  0  0  0  0  0  0  0  0  0  0  0
   59.8470   34.8410   46.9890 C   0  0  0  0  0  0  0  0  0  0  0  0
   59.0455   35.1064   46.2839 H   0  0  0  0  0  0  0  0  0  0  0  0
   60.2492   35.7256   47.5045 H   0  0  0  0  0  0  0  0  0  0  0  0
   59.2640   33.9040   48.0660 C   0  0  0  0  0  0  0  0  0  0  0  0
   58.4051   34.4228   48.5167 H   0  0  0  0  0  0  0  0  0  0  0  0
   60.1141   33.7013   48.7340 H   0  0  0  0  0  0  0  0  0  0  0  0
   58.7730   32.4910   47.6370 C   0  0  0  0  0  0  0  0  0  0  0  0
   57.8482   32.6356   47.0592 H   0  0  0  0  0  0  0  0  0  0  0  0
   58.6864   31.9477   48.5895 H   0  0  0  0  0  0  0  0  0  0  0  0
  1  2  1  0
  2  3  1  0
  2  4  2  0
  4  5  1  0
  5  6  2  0
  6  7  1  0
  6  8  1  0
  8  9  1  0
  9 10  1  0
 10 11  2  0
 10 12  1  0
 12 13  1  0
 13 14  1  0
  5 15  1  0
 15 16  1  0
 15 17  2  0
 17 18  1  0
 18 19  1  0
 18 20  1  0
 18 21  1  0
 17 22  1  0
 22 23  1  0
 23 24  1  6
 23 25  1  0
 25 26  2  0
 25 27  1  0
 27 28  1  0
 28 29  1  0
 28 30  1  0
 28 31  1  0
 31 32  2  0
 32 33  1  0
 32 34  1  0
 34 35  1  0
 34 36  2  0
 36 37  1  0
 36 38  1  0
 38 39  1  0
 38 40  2  0
 40 41  1  0
 27 42  1  0
 42 43  1  0
 42 44  1  0
 42 45  1  0
 45 46  1  0
 45 47  1  0
 45 48  1  0
 48 49  1  0
 48 50  1  0
 48 51  1  0
 51 52  1  0
 51 53  1  0
 22  4  1  0
 51 23  1  0
 13  8  2  0
 40 31  1  0
M  CHG  3   9  -1  12  -1  14  -1
M  END
>  <UniqueID>  (67) 
66

>  <SMILES>  (67) 
C=c1/c(=C/c2[n-]c(=O)[n-]c2[O-])cc(C)n1[C@H]1CCCCN(Cc2ccccc2)C1=O

>  <Energy>  (67) 
140.4690480980398

>  <Genealogy>  (67) 
C=c1c(=Cc2[n-]c(=O)[n-]c2[O-])cc(C)n1C1CCCCN(Cc2ccccc2)C1=O (protonated)
C=c1c(=Cc2[n-]c(=O)[n-]c2[O-])cc(C)n1[C@H]1CCCCN(Cc2ccccc2)C1=O (chirality)
C=c1/c(=C/c2[n-]c(=O)[n-]c2[O-])cc(C)n1[C@H]1CCCCN(Cc2ccccc2)C1=O (cis-trans isomerization)
C=c1/c(=C/c2[n-]c(=O)[n-]c2[O-])cc(C)n1[C@H]1CCCCN(Cc2ccccc2)C1=O (3D coordinates assigned)
C=c1/c(=C/c2[n-]c(=O)[n-]c2[O-])cc(C)n1[C@H]1CCCCN(Cc2ccccc2)C1=O (nonaromatic ring conformer: 140.4690480980398 kcal/mol)

>  <smiles>  (67) 
C=c1c(=Cc2[nH]c(=O)[nH]c2O)cc(C)n1C1CCCCN(Cc2ccccc2)C1=O

>  <score_type>  (67) 
oracle

>  <origin>  (67) 
adg

>  <m_score__min__energy>  (67) 
-14.75

>  <m_primary>  (67) 
energy

$$$$
67:0
     RDKit          3D

 37 38  0  0  0  0  0  0  0  0999 V2000
   58.7320   27.0950   42.9570 O   0  0  0  0  0  0  0  0  0  0  0  0
   58.4600   27.3150   44.1710 C   0  0  0  0  0  0  0  0  0  0  0  0
   58.5090   28.6830   44.6950 C   0  0  0  0  0  0  0  0  0  0  0  0
   57.4560   29.2160   45.2360 N   0  0  0  0  0  0  0  0  0  0  0  0
   56.2930   29.6160   44.4990 C   0  0  0  0  0  0  0  0  0  0  0  0
   55.1500   29.1780   44.8050 O   0  0  0  0  0  0  0  0  0  0  0  0
   56.4370   30.5950   43.3730 C   0  0  0  0  0  0  0  0  0  0  0  0
   57.8300   31.2380   43.3620 C   0  0  0  0  0  0  0  0  0  0  0  0
   57.9660   32.2940   44.4220 C   0  0  0  0  0  0  0  0  0  0  0  0
   58.6700   33.4800   44.1650 C   0  0  0  0  0  0  0  0  0  0  0  0
   58.7510   34.4570   45.1610 C   0  0  0  0  0  0  0  0  0  0  0  0
   58.1280   34.2480   46.3920 C   0  0  0  0  0  0  0  0  0  0  0  0
   57.4290   33.0590   46.6120 C   0  0  0  0  0  0  0  0  0  0  0  0
   57.3600   32.1190   45.6310 N   0  0  0  0  0  0  0  0  0  0  0  0
   58.1050   26.2420   45.0500 N   0  0  0  0  0  0  0  0  0  0  0  0
   57.6450   25.0960   44.6480 C   0  0  0  0  0  0  0  0  0  0  0  0
   56.3140   24.6020   45.0710 C   0  0  0  0  0  0  0  0  0  0  0  0
   56.0310   23.2330   44.9350 C   0  0  0  0  0  0  0  0  0  0  0  0
   54.7930   22.7250   45.3280 C   0  0  0  0  0  0  0  0  0  0  0  0
   53.8390   23.5900   45.8600 C   0  0  0  0  0  0  0  0  0  0  0  0
   54.1180   24.9140   45.9910 N   0  0  0  0  0  0  0  0  0  0  0  0
   55.3160   25.4410   45.6160 C   0  0  0  0  0  0  0  0  0  0  0  0
   55.5340   26.8080   45.7800 O   0  0  0  0  0  0  0  0  0  0  0  0
   59.4426   29.2610   44.6295 H   0  0  0  0  0  0  0  0  0  0  0  0
   56.2783   30.0694   42.4198 H   0  0  0  0  0  0  0  0  0  0  0  0
   55.6904   31.3911   43.5101 H   0  0  0  0  0  0  0  0  0  0  0  0
   58.5840   30.4569   43.5389 H   0  0  0  0  0  0  0  0  0  0  0  0
   57.9779   31.7161   42.3824 H   0  0  0  0  0  0  0  0  0  0  0  0
   59.1532   33.6392   43.1897 H   0  0  0  0  0  0  0  0  0  0  0  0
   59.3048   35.3890   44.9749 H   0  0  0  0  0  0  0  0  0  0  0  0
   58.1868   35.0120   47.1812 H   0  0  0  0  0  0  0  0  0  0  0  0
   56.9343   32.8826   47.5785 H   0  0  0  0  0  0  0  0  0  0  0  0
   58.2587   24.4770   43.9770 H   0  0  0  0  0  0  0  0  0  0  0  0
   56.7908   22.5570   44.5158 H   0  0  0  0  0  0  0  0  0  0  0  0
   54.5721   21.6529   45.2191 H   0  0  0  0  0  0  0  0  0  0  0  0
   52.8592   23.2012   46.1743 H   0  0  0  0  0  0  0  0  0  0  0  0
   56.2060   27.3030   45.2040 H   0  0  0  0  0  0  0  0  0  0  0  0
  1  2  2  0
  2  3  1  0
  3  4  2  3
  4  5  1  0
  5  6  2  0
  5  7  1  0
  7  8  1  0
  8  9  1  0
  9 10  2  0
 10 11  1  0
 11 12  2  0
 12 13  1  0
 13 14  2  0
  2 15  1  0
 15 16  2  3
 16 17  1  0
 17 18  2  0
 18 19  1  0
 19 20  2  0
 20 21  1  0
 21 22  2  0
 22 23  1  0
 14  9  1  0
 22 17  1  0
  3 24  1  0
  7 25  1  0
  7 26  1  0
  8 27  1  0
  8 28  1  0
 10 29  1  0
 11 30  1  0
 12 31  1  0
 13 32  1  0
 16 33  1  0
 18 34  1  0
 19 35  1  0
 20 36  1  0
 23 37  1  0
M  END
>  <UniqueID>  (68) 
67

>  <SMILES>  (68) 
O=C(C=NC(=O)CCc1ccccn1)N=Cc1cccnc1O

>  <Energy>  (68) 
33.89471008152397

>  <Genealogy>  (68) 
O=C(C=NC(=O)CCc1ccccn1)N=Cc1cccnc1O (3D coordinates assigned)
O=C(C=NC(=O)CCc1ccccn1)N=Cc1cccnc1O (optimized conformer: 33.89471008152397 kcal/mol)

>  <smiles>  (68) 
O=C(C=NC(=O)CCc1ccccn1)N=Cc1cccnc1O

>  <score_type>  (68) 
oracle

>  <origin>  (68) 
adg

>  <m_score__min__energy>  (68) 
-8.7599999999999998

>  <m_primary>  (68) 
energy

$$$$
68:0
     RDKit          3D

 29 30  0  0  1  0  0  0  0  0999 V2000
   59.3250   35.3550   46.8160 O   0  0  0  0  0  0  0  0  0  0  0  0
   59.6420   34.5390   45.8970 C   0  0  0  0  0  0  0  0  0  0  0  0
   58.7870   34.4690   44.6680 C   0  0  0  0  0  0  0  0  0  0  0  0
   57.2000   33.6570   45.0490 S   0  0  0  0  0  0  0  0  0  0  0  0
   57.4850   31.8970   45.0370 C   0  0  0  0  0  0  0  0  0  0  0  0
   56.4660   31.0350   44.8790 N   0  0  0  0  0  0  0  0  0  0  0  0
   56.6470   29.6850   44.8670 C   0  0  0  0  0  0  0  0  0  0  0  0
   55.5100   28.9090   44.6950 O   0  0  0  0  0  0  0  0  0  0  0  0
   57.9110   29.1770   45.0200 C   0  0  0  0  0  0  0  0  0  0  0  0
   58.9610   30.0670   45.1840 C   0  0  0  0  0  0  0  0  0  0  0  0
   60.1120   29.5670   45.3220 O   0  0  0  0  0  0  0  0  0  0  0  0
   58.7290   31.3930   45.1890 N   0  0  0  0  0  0  0  0  0  0  0  0
   60.7760   33.6850   45.9860 N   0  0  0  0  0  0  0  0  0  0  0  0
   61.5660   33.6250   46.9960 C   0  0  0  0  0  0  0  0  0  0  0  0
   62.8960   33.3810   46.7540 C   0  0  0  0  0  0  0  0  0  0  0  0
   63.7870   33.3090   47.8330 C   0  0  0  0  0  0  0  0  0  0  0  0
   63.2300   33.4950   49.0810 C   0  0  0  0  0  0  0  0  0  0  0  0
   64.3420   33.4080   50.4570 Cl  0  0  0  0  0  0  0  0  0  0  0  0
   61.8890   33.7380   49.2860 C   0  0  0  0  0  0  0  0  0  0  0  0
   61.0510   33.8030   48.2260 N   0  0  0  0  0  0  0  0  0  0  0  0
   58.5947   35.4879   44.3009 H   0  0  0  0  0  0  0  0  0  0  0  0
   59.3128   33.8850   43.8983 H   0  0  0  0  0  0  0  0  0  0  0  0
   54.7650   28.9550   45.3840 H   0  0  0  0  0  0  0  0  0  0  0  0
   58.0875   28.0913   45.0128 H   0  0  0  0  0  0  0  0  0  0  0  0
   59.5730   32.0210   45.3170 H   0  0  0  0  0  0  0  0  0  0  0  0
   63.2576   33.2436   45.7243 H   0  0  0  0  0  0  0  0  0  0  0  0
   64.8611   33.1166   47.6938 H   0  0  0  0  0  0  0  0  0  0  0  0
   61.5021   33.8784   50.3061 H   0  0  0  0  0  0  0  0  0  0  0  0
   60.0270   33.9850   48.3390 H   0  0  0  0  0  0  0  0  0  0  0  0
  1  2  2  0
  2  3  1  0
  3  4  1  0
  4  5  1  0
  5  6  2  0
  6  7  1  0
  7  8  1  0
  7  9  2  0
  9 10  1  0
 10 11  2  0
 10 12  1  0
  2 13  1  0
 13 14  2  0
 14 15  1  0
 15 16  2  0
 16 17  1  0
 17 18  1  0
 17 19  2  0
 19 20  1  0
 12  5  1  0
 20 14  1  0
  3 21  1  0
  3 22  1  0
  8 23  1  0
  9 24  1  0
 12 25  1  0
 15 26  1  0
 16 27  1  0
 19 28  1  0
 20 29  1  0
M  END
>  <smiles>  (69) 
O=C(CSc1nc(O)cc(=O)[nH]1)N=c1ccc(Cl)c[nH]1

>  <score_type>  (69) 
oracle

>  <origin>  (69) 
adg

>  <m_score__min__energy>  (69) 
-7.5999999999999996

>  <m_primary>  (69) 
energy

$$$$
69:0
     RDKit          3D

 50 53  0  0  0  0  0  0  0  0999 V2000
   55.9200   24.7500   47.6030 O   0  0  0  0  0  0  0  0  0  0  0  0
   56.7830   24.4670   46.7300 C   0  0  0  0  0  0  0  0  0  0  0  0
   56.3220   23.8160   45.4530 C   0  0  0  0  0  0  0  0  0  0  0  0
   54.8370   23.9420   45.2760 C   0  0  0  0  0  0  0  0  0  0  0  0
   54.0280   22.9340   44.8970 N   0  0  0  0  0  0  0  0  0  0  0  0
   52.7990   23.4910   44.9360 C   0  0  0  0  0  0  0  0  0  0  0  0
   51.7570   22.8530   44.6330 O   0  0  0  0  0  0  0  0  0  0  0  0
   52.7720   24.7820   45.3290 N   0  0  0  0  0  0  0  0  0  0  0  0
   54.0700   25.0500   45.5490 C   0  0  0  0  0  0  0  0  0  0  0  0
   54.5460   26.2790   45.9930 O   0  0  0  0  0  0  0  0  0  0  0  0
   58.1680   24.7030   47.0410 N   0  0  0  0  0  0  0  0  0  0  0  0
   58.8590   25.7970   46.9040 C   0  0  0  0  0  0  0  0  0  0  0  0
   59.4910   26.3720   47.9500 N   0  0  0  0  0  0  0  0  0  0  0  0
   60.1040   27.5340   47.6000 C   0  0  0  0  0  0  0  0  0  0  0  0
   59.9610   27.8880   46.2630 C   0  0  0  0  0  0  0  0  0  0  0  0
   60.4110   29.1730   45.6430 C   0  0  0  0  0  0  0  0  0  0  0  0
   59.2130   30.0090   45.2860 C   0  0  0  0  0  0  0  0  0  0  0  0
   58.2580   29.5290   44.3760 C   0  0  0  0  0  0  0  0  0  0  0  0
   57.1780   30.3330   44.0030 C   0  0  0  0  0  0  0  0  0  0  0  0
   57.0560   31.6290   44.5130 C   0  0  0  0  0  0  0  0  0  0  0  0
   58.0240   32.1340   45.3920 C   0  0  0  0  0  0  0  0  0  0  0  0
   57.9220   33.5200   45.8800 C   0  0  0  0  0  0  0  0  0  0  0  0
   57.0710   33.7950   46.7670 O   0  0  0  0  0  0  0  0  0  0  0  0
   58.7330   34.5770   45.3480 N   0  0  0  0  0  0  0  0  0  0  0  0
   59.7170   35.3600   46.0960 C   0  0  0  0  0  0  0  0  0  0  0  0
   60.5960   34.4640   46.9300 C   0  0  0  0  0  0  0  0  0  0  0  0
   61.6860   33.7940   46.3470 C   0  0  0  0  0  0  0  0  0  0  0  0
   62.5170   32.9850   47.1240 C   0  0  0  0  0  0  0  0  0  0  0  0
   62.2640   32.8290   48.4890 C   0  0  0  0  0  0  0  0  0  0  0  0
   61.1780   33.4820   49.0770 C   0  0  0  0  0  0  0  0  0  0  0  0
   60.3430   34.2960   48.3050 C   0  0  0  0  0  0  0  0  0  0  0  0
   59.2950   34.9240   48.8940 F   0  0  0  0  0  0  0  0  0  0  0  0
   59.0870   31.3110   45.7950 C   0  0  0  0  0  0  0  0  0  0  0  0
   59.0120   26.7260   45.5030 S   0  0  0  0  0  0  0  0  0  0  0  0
   56.8255   24.2999   44.6031 H   0  0  0  0  0  0  0  0  0  0  0  0
   56.5743   22.7464   45.5004 H   0  0  0  0  0  0  0  0  0  0  0  0
   55.1200   26.3400   46.8240 H   0  0  0  0  0  0  0  0  0  0  0  0
   60.6689   28.1462   48.3184 H   0  0  0  0  0  0  0  0  0  0  0  0
   61.0412   29.7230   46.3574 H   0  0  0  0  0  0  0  0  0  0  0  0
   60.9888   28.9560   44.7325 H   0  0  0  0  0  0  0  0  0  0  0  0
   58.3602   28.5176   43.9557 H   0  0  0  0  0  0  0  0  0  0  0  0
   56.4210   29.9450   43.3056 H   0  0  0  0  0  0  0  0  0  0  0  0
   56.1982   32.2539   44.2237 H   0  0  0  0  0  0  0  0  0  0  0  0
   60.3440   35.9215   45.3878 H   0  0  0  0  0  0  0  0  0  0  0  0
   59.1818   36.0493   46.7657 H   0  0  0  0  0  0  0  0  0  0  0  0
   61.8853   33.9081   45.2712 H   0  0  0  0  0  0  0  0  0  0  0  0
   63.3717   32.4700   46.6611 H   0  0  0  0  0  0  0  0  0  0  0  0
   62.9198   32.1921   49.1007 H   0  0  0  0  0  0  0  0  0  0  0  0
   60.9789   33.3554   50.1514 H   0  0  0  0  0  0  0  0  0  0  0  0
   59.8272   31.6893   46.5154 H   0  0  0  0  0  0  0  0  0  0  0  0
  1  2  2  0
  2  3  1  0
  3  4  1  0
  4  5  1  0
  5  6  1  0
  6  7  2  0
  6  8  1  0
  8  9  1  0
  9 10  1  0
  2 11  1  0
 11 12  2  3
 12 13  1  0
 13 14  1  0
 14 15  2  0
 15 16  1  0
 16 17  1  0
 17 18  2  0
 18 19  1  0
 19 20  2  0
 20 21  1  0
 21 22  1  0
 22 23  2  0
 22 24  1  0
 24 25  1  0
 25 26  1  0
 26 27  2  0
 27 28  1  0
 28 29  2  0
 29 30  1  0
 30 31  2  0
 31 32  1  0
 21 33  2  0
 15 34  1  0
  9  4  2  0
 34 12  1  0
 33 17  1  0
 31 26  1  0
  3 35  1  0
  3 36  1  0
 10 37  1  0
 14 38  1  0
 16 39  1  0
 16 40  1  0
 18 41  1  0
 19 42  1  0
 20 43  1  0
 25 44  1  0
 25 45  1  0
 27 46  1  0
 28 47  1  0
 29 48  1  0
 30 49  1  0
 33 50  1  0
M  CHG  4   5  -1   8  -1  13  -1  24  -1
M  END
>  <UniqueID>  (70) 
68

>  <SMILES>  (70) 
O=C(Cc1[n-]c(=O)[n-]c1O)N=c1[n-]cc(Cc2cccc(C(=O)[N-]Cc3ccccc3F)c2)s1

>  <Energy>  (70) 
115.83637655881245

>  <Genealogy>  (70) 
O=C(Cc1[n-]c(=O)[n-]c1O)N=c1[n-]cc(Cc2cccc(C(=O)[N-]Cc3ccccc3F)c2)s1 (protonated)
O=C(Cc1[n-]c(=O)[n-]c1O)N=c1[n-]cc(Cc2cccc(C(=O)[N-]Cc3ccccc3F)c2)s1 (3D coordinates assigned)
O=C(Cc1[n-]c(=O)[n-]c1O)N=c1[n-]cc(Cc2cccc(C(=O)[N-]Cc3ccccc3F)c2)s1 (optimized conformer: 115.83637655881245 kcal/mol)

>  <smiles>  (70) 
O=C(Cc1[nH]c(=O)[nH]c1O)N=c1[nH]cc(Cc2cccc(C(=O)NCc3ccccc3F)c2)s1

>  <score_type>  (70) 
oracle

>  <origin>  (70) 
adg

>  <m_score__min__energy>  (70) 
-16.719999999999999

>  <m_primary>  (70) 
energy

$$$$
70:0
     RDKit          3D

 51 53  0  0  0  0  0  0  0  0999 V2000
   57.3750   30.4030   43.6550 C   0  0  0  0  0  0  0  0  0  0  0  0
   58.3820   29.9840   44.4210 C   0  0  0  0  0  0  0  0  0  0  0  0
   58.2620   28.8500   45.3680 C   0  0  0  0  0  0  0  0  0  0  0  0
   57.1760   27.9610   45.2690 C   0  0  0  0  0  0  0  0  0  0  0  0
   57.1070   26.8180   46.0780 C   0  0  0  0  0  0  0  0  0  0  0  0
   55.9610   25.8930   45.9950 C   0  0  0  0  0  0  0  0  0  0  0  0
   54.7760   26.3210   45.9970 O   0  0  0  0  0  0  0  0  0  0  0  0
   58.1510   26.5420   46.9670 C   0  0  0  0  0  0  0  0  0  0  0  0
   59.2460   27.4080   47.0770 C   0  0  0  0  0  0  0  0  0  0  0  0
   60.3310   27.0960   48.0770 C   0  0  0  0  0  0  0  0  0  0  0  0
   60.4630   28.1500   48.9910 O   0  0  0  0  0  0  0  0  0  0  0  0
   59.2840   28.5920   46.3120 C   0  0  0  0  0  0  0  0  0  0  0  0
   60.3450   29.4900   46.5180 O   0  0  0  0  0  0  0  0  0  0  0  0
   60.1960   30.7970   47.0800 C   0  0  0  0  0  0  0  0  0  0  0  0
   59.0600   30.8450   48.1090 C   0  0  0  0  0  0  0  0  0  0  0  0
   58.2550   32.0140   47.9440 O   0  0  0  0  0  0  0  0  0  0  0  0
   58.3570   32.9420   46.8920 C   0  0  0  0  0  0  0  0  0  0  0  0
   57.5840   32.8310   45.7190 C   0  0  0  0  0  0  0  0  0  0  0  0
   57.6600   33.8110   44.7270 C   0  0  0  0  0  0  0  0  0  0  0  0
   58.5050   34.9080   44.8900 C   0  0  0  0  0  0  0  0  0  0  0  0
   59.2910   35.0190   46.0360 C   0  0  0  0  0  0  0  0  0  0  0  0
   59.2460   34.0310   47.0270 C   0  0  0  0  0  0  0  0  0  0  0  0
   60.0640   34.1900   48.1560 O   0  0  0  0  0  0  0  0  0  0  0  0
   61.4210   33.8400   48.2380 C   0  0  0  0  0  0  0  0  0  0  0  0
   62.0970   33.5080   47.0570 C   0  0  0  0  0  0  0  0  0  0  0  0
   63.4470   33.1490   47.0900 C   0  0  0  0  0  0  0  0  0  0  0  0
   64.1300   33.1090   48.3080 C   0  0  0  0  0  0  0  0  0  0  0  0
   63.4600   33.4140   49.4960 C   0  0  0  0  0  0  0  0  0  0  0  0
   62.1080   33.7690   49.4660 C   0  0  0  0  0  0  0  0  0  0  0  0
   57.5213   31.2507   42.9695 H   0  0  0  0  0  0  0  0  0  0  0  0
   56.3976   29.9011   43.7083 H   0  0  0  0  0  0  0  0  0  0  0  0
   59.3482   30.5045   44.3469 H   0  0  0  0  0  0  0  0  0  0  0  0
   56.3709   28.1653   44.5478 H   0  0  0  0  0  0  0  0  0  0  0  0
   56.1442   24.8103   45.9302 H   0  0  0  0  0  0  0  0  0  0  0  0
   58.1115   25.6342   47.5869 H   0  0  0  0  0  0  0  0  0  0  0  0
   60.0716   26.1748   48.6194 H   0  0  0  0  0  0  0  0  0  0  0  0
   61.2835   26.9615   47.5435 H   0  0  0  0  0  0  0  0  0  0  0  0
   60.9150   28.8890   48.5070 H   0  0  0  0  0  0  0  0  0  0  0  0
   61.1367   31.0823   47.5737 H   0  0  0  0  0  0  0  0  0  0  0  0
   59.9512   31.4949   46.2657 H   0  0  0  0  0  0  0  0  0  0  0  0
   58.4268   29.9542   47.9846 H   0  0  0  0  0  0  0  0  0  0  0  0
   59.5051   30.8708   49.1146 H   0  0  0  0  0  0  0  0  0  0  0  0
   56.9166   31.9671   45.5839 H   0  0  0  0  0  0  0  0  0  0  0  0
   57.0519   33.7173   43.8151 H   0  0  0  0  0  0  0  0  0  0  0  0
   58.5515   35.6862   44.1140 H   0  0  0  0  0  0  0  0  0  0  0  0
   59.9516   35.8894   46.1626 H   0  0  0  0  0  0  0  0  0  0  0  0
   61.5612   33.5300   46.0966 H   0  0  0  0  0  0  0  0  0  0  0  0
   63.9721   32.8978   46.1566 H   0  0  0  0  0  0  0  0  0  0  0  0
   65.1956   32.8373   48.3320 H   0  0  0  0  0  0  0  0  0  0  0  0
   63.9968   33.3747   50.4553 H   0  0  0  0  0  0  0  0  0  0  0  0
   61.5791   33.9935   50.4040 H   0  0  0  0  0  0  0  0  0  0  0  0
  1  2  2  0
  2  3  1  0
  3  4  2  0
  4  5  1  0
  5  6  1  0
  6  7  2  0
  5  8  2  0
  8  9  1  0
  9 10  1  0
 10 11  1  0
  9 12  2  0
 12 13  1  0
 13 14  1  0
 14 15  1  0
 15 16  1  0
 16 17  1  0
 17 18  2  0
 18 19  1  0
 19 20  2  0
 20 21  1  0
 21 22  2  0
 22 23  1  0
 23 24  1  0
 24 25  2  0
 25 26  1  0
 26 27  2  0
 27 28  1  0
 28 29  2  0
 12  3  1  0
 22 17  1  0
 29 24  1  0
  1 30  1  0
  1 31  1  0
  2 32  1  0
  4 33  1  0
  6 34  1  0
  8 35  1  0
 10 36  1  0
 10 37  1  0
 11 38  1  0
 14 39  1  0
 14 40  1  0
 15 41  1  0
 15 42  1  0
 18 43  1  0
 19 44  1  0
 20 45  1  0
 21 46  1  0
 25 47  1  0
 26 48  1  0
 27 49  1  0
 28 50  1  0
 29 51  1  0
M  END
>  <UniqueID>  (71) 
69

>  <SMILES>  (71) 
C=Cc1cc(C=O)cc(CO)c1OCCOc1ccccc1Oc1ccccc1

>  <Energy>  (71) 
60.218350818027396

>  <Genealogy>  (71) 
C=Cc1cc(C=O)cc(CO)c1OCCOc1ccccc1Oc1ccccc1 (3D coordinates assigned)
C=Cc1cc(C=O)cc(CO)c1OCCOc1ccccc1Oc1ccccc1 (optimized conformer: 60.218350818027396 kcal/mol)

>  <smiles>  (71) 
C=Cc1cc(C=O)cc(CO)c1OCCOc1ccccc1Oc1ccccc1

>  <score_type>  (71) 
oracle

>  <origin>  (71) 
adg

>  <m_score__min__energy>  (71) 
-8.4600000000000009

>  <m_primary>  (71) 
energy

$$$$
71:0
     RDKit          3D

 39 42  0  0  0  0  0  0  0  0999 V2000
   56.4164   20.9450   42.8533 H   0  0  0  0  0  0  0  0  0  0  0  0
   56.6510   21.7910   43.5160 C   0  0  0  0  0  0  0  0  0  0  0  0
   56.0120   23.3420   43.3980 S   0  0  0  0  0  0  0  0  0  0  0  0
   56.8380   23.9870   44.7170 C   0  0  0  0  0  0  0  0  0  0  0  0
   56.7490   25.3770   45.1970 C   0  0  0  0  0  0  0  0  0  0  0  0
   56.0720   25.6280   46.2320 O   0  0  0  0  0  0  0  0  0  0  0  0
   57.3900   26.4420   44.4770 N   0  0  0  0  0  0  0  0  0  0  0  0
   57.6420   26.2800   43.4750 H   0  0  0  0  0  0  0  0  0  0  0  0
   57.5940   27.7620   45.0110 C   0  0  0  0  0  0  0  0  0  0  0  0
   58.2320   27.9610   46.2610 C   0  0  0  0  0  0  0  0  0  0  0  0
   58.5633   27.0911   46.8470 H   0  0  0  0  0  0  0  0  0  0  0  0
   58.4460   29.2570   46.7600 C   0  0  0  0  0  0  0  0  0  0  0  0
   58.9310   29.4080   47.7357 H   0  0  0  0  0  0  0  0  0  0  0  0
   58.0330   30.3480   45.9970 C   0  0  0  0  0  0  0  0  0  0  0  0
   58.1850   31.6450   46.3660 N   0  0  0  0  0  0  0  0  0  0  0  0
   57.6940   32.4730   45.4110 C   0  0  0  0  0  0  0  0  0  0  0  0
   57.7010   33.7710   45.4960 N   0  0  0  0  0  0  0  0  0  0  0  0
   58.8180   34.5920   45.8720 C   0  0  0  0  0  0  0  0  0  0  0  0
   59.3190   35.4140   45.0590 O   0  0  0  0  0  0  0  0  0  0  0  0
   59.3440   34.5320   47.2030 N   0  0  0  0  0  0  0  0  0  0  0  0
   60.6950   34.2130   47.5650 C   0  0  0  0  0  0  0  0  0  0  0  0
   61.1260   34.2110   48.9050 C   0  0  0  0  0  0  0  0  0  0  0  0
   60.4231   34.4790   49.7076 H   0  0  0  0  0  0  0  0  0  0  0  0
   62.4460   33.8690   49.2190 C   0  0  0  0  0  0  0  0  0  0  0  0
   62.7818   33.8797   50.2664 H   0  0  0  0  0  0  0  0  0  0  0  0
   63.3380   33.5140   48.2040 C   0  0  0  0  0  0  0  0  0  0  0  0
   64.6160   33.1810   48.5100 F   0  0  0  0  0  0  0  0  0  0  0  0
   62.9090   33.4870   46.8740 C   0  0  0  0  0  0  0  0  0  0  0  0
   63.6089   33.1975   46.0763 H   0  0  0  0  0  0  0  0  0  0  0  0
   61.5900   33.8280   46.5570 C   0  0  0  0  0  0  0  0  0  0  0  0
   61.2530   33.7939   45.5105 H   0  0  0  0  0  0  0  0  0  0  0  0
   57.0560   31.6410   44.0850 S   0  0  0  0  0  0  0  0  0  0  0  0
   57.4280   30.1510   44.7660 C   0  0  0  0  0  0  0  0  0  0  0  0
   57.2040   28.8790   44.2470 C   0  0  0  0  0  0  0  0  0  0  0  0
   56.7327   28.7491   43.2616 H   0  0  0  0  0  0  0  0  0  0  0  0
   57.6330   22.9860   45.2650 C   0  0  0  0  0  0  0  0  0  0  0  0
   58.2822   23.1404   46.1395 H   0  0  0  0  0  0  0  0  0  0  0  0
   57.5250   21.7620   44.5930 C   0  0  0  0  0  0  0  0  0  0  0  0
   58.0815   20.8613   44.8914 H   0  0  0  0  0  0  0  0  0  0  0  0
  1  2  1  0
  2  3  1  0
  3  4  1  0
  4  5  1  0
  5  6  2  0
  5  7  1  0
  7  8  1  0
  7  9  1  0
  9 10  2  0
 10 11  1  0
 10 12  1  0
 12 13  1  0
 12 14  2  0
 14 15  1  0
 15 16  1  0
 16 17  2  0
 17 18  1  0
 18 19  2  0
 18 20  1  0
 20 21  1  0
 21 22  2  0
 22 23  1  0
 22 24  1  0
 24 25  1  0
 24 26  2  0
 26 27  1  0
 26 28  1  0
 28 29  1  0
 28 30  2  0
 30 31  1  0
 16 32  1  0
 32 33  1  0
 33 34  2  0
 34 35  1  0
  4 36  2  0
 36 37  1  0
 36 38  1  0
 38 39  1  0
 38  2  2  0
 34  9  1  0
 33 14  1  0
 30 21  1  0
M  CHG  2  15  -1  20  -1
M  END
>  <UniqueID>  (72) 
70

>  <SMILES>  (72) 
O=C(/N=c1\[n-]c2ccc(NC(=O)c3cccs3)cc2s1)[N-]c1ccc(F)cc1

>  <Energy>  (72) 
112.76051839264761

>  <Genealogy>  (72) 
O=C(N=c1[n-]c2ccc(NC(=O)c3cccs3)cc2s1)[N-]c1ccc(F)cc1 (protonated)
O=C(/N=c1\[n-]c2ccc(NC(=O)c3cccs3)cc2s1)[N-]c1ccc(F)cc1 (cis-trans isomerization)
O=C(/N=c1\[n-]c2ccc(NC(=O)c3cccs3)cc2s1)[N-]c1ccc(F)cc1 (3D coordinates assigned)
O=C(/N=c1\[n-]c2ccc(NC(=O)c3cccs3)cc2s1)[N-]c1ccc(F)cc1 (optimized conformer: 112.76051839264761 kcal/mol)

>  <smiles>  (72) 
O=C(N=c1[nH]c2ccc(NC(=O)c3cccs3)cc2s1)Nc1ccc(F)cc1

>  <score_type>  (72) 
oracle

>  <origin>  (72) 
adg

>  <m_score__min__energy>  (72) 
-10.539999999999999

>  <m_primary>  (72) 
energy

$$$$
72:0
     RDKit          3D

 64 68  0  0  0  0  0  0  0  0999 V2000
   64.5220   33.1970   48.6580 C   0  0  0  0  0  0  0  0  0  0  0  0
   63.0550   33.3910   48.4090 C   0  0  0  0  0  0  0  0  0  0  0  0
   62.2770   34.1310   49.3160 C   0  0  0  0  0  0  0  0  0  0  0  0
   60.8980   34.2640   49.1150 C   0  0  0  0  0  0  0  0  0  0  0  0
   60.2790   33.6310   48.0250 C   0  0  0  0  0  0  0  0  0  0  0  0
   58.8260   33.7450   47.8200 C   0  0  0  0  0  0  0  0  0  0  0  0
   58.2470   34.2250   46.7080 C   0  0  0  0  0  0  0  0  0  0  0  0
   58.9250   34.4970   45.4220 C   0  0  0  0  0  0  0  0  0  0  0  0
   59.6070   35.5530   45.3080 O   0  0  0  0  0  0  0  0  0  0  0  0
   58.7540   33.6380   44.2910 N   0  0  0  0  0  0  0  0  0  0  0  0
   58.3840   32.2550   44.3440 C   0  0  0  0  0  0  0  0  0  0  0  0
   58.8720   31.4070   45.3510 C   0  0  0  0  0  0  0  0  0  0  0  0
   58.4550   30.0710   45.4050 C   0  0  0  0  0  0  0  0  0  0  0  0
   57.5780   29.5650   44.4350 C   0  0  0  0  0  0  0  0  0  0  0  0
   57.1630   28.1940   44.4890 N   0  0  0  0  0  0  0  0  0  0  0  0
   58.0900   27.1260   44.7320 C   0  0  0  0  0  0  0  0  0  0  0  0
   59.2490   27.3860   45.1590 O   0  0  0  0  0  0  0  0  0  0  0  0
   57.6820   25.7190   44.5440 C   0  0  0  0  0  0  0  0  0  0  0  0
   57.3800   25.2240   43.2470 C   0  0  0  0  0  0  0  0  0  0  0  0
   57.0050   23.8810   43.0590 C   0  0  0  0  0  0  0  0  0  0  0  0
   56.9310   23.0580   44.1800 C   0  0  0  0  0  0  0  0  0  0  0  0
   57.2120   23.5320   45.4430 C   0  0  0  0  0  0  0  0  0  0  0  0
   57.5990   24.8530   45.6590 C   0  0  0  0  0  0  0  0  0  0  0  0
   57.0010   22.4380   46.3850 C   0  0  0  0  0  0  0  0  0  0  0  0
   57.1360   22.5100   47.6360 O   0  0  0  0  0  0  0  0  0  0  0  0
   56.6070   21.2560   45.6840 N   0  0  0  0  0  0  0  0  0  0  0  0
   56.0250   20.0510   46.2770 C   0  0  0  0  0  0  0  0  0  0  0  0
   54.5960   20.3190   46.7750 C   0  0  1  0  0  0  0  0  0  0  0  0
   54.5650   20.8360   48.2050 C   0  0  0  0  0  0  0  0  0  0  0  0
   53.3290   21.6780   48.2220 C   0  0  0  0  0  0  0  0  0  0  0  0
   53.1700   22.0920   46.7690 C   0  0  0  0  0  0  0  0  0  0  0  0
   53.9710   21.2730   45.9460 O   0  0  0  0  0  0  0  0  0  0  0  0
   56.5520   21.6540   44.3100 C   0  0  0  0  0  0  0  0  0  0  0  0
   56.2210   20.8940   43.3620 O   0  0  0  0  0  0  0  0  0  0  0  0
   57.0850   30.4190   43.4360 C   0  0  0  0  0  0  0  0  0  0  0  0
   57.4690   31.7630   43.4070 C   0  0  0  0  0  0  0  0  0  0  0  0
   61.0550   32.8960   47.1170 C   0  0  0  0  0  0  0  0  0  0  0  0
   62.4330   32.7660   47.3140 C   0  0  0  0  0  0  0  0  0  0  0  0
   64.7099   33.1722   49.7416 H   0  0  0  0  0  0  0  0  0  0  0  0
   64.8480   32.2479   48.2075 H   0  0  0  0  0  0  0  0  0  0  0  0
   65.0835   34.0287   48.2075 H   0  0  0  0  0  0  0  0  0  0  0  0
   62.7529   34.6069   50.1861 H   0  0  0  0  0  0  0  0  0  0  0  0
   60.2976   34.8661   49.8129 H   0  0  0  0  0  0  0  0  0  0  0  0
   58.1675   33.4132   48.6362 H   0  0  0  0  0  0  0  0  0  0  0  0
   57.1685   34.4355   46.7579 H   0  0  0  0  0  0  0  0  0  0  0  0
   59.5820   31.7920   46.0977 H   0  0  0  0  0  0  0  0  0  0  0  0
   58.8169   29.4162   46.2114 H   0  0  0  0  0  0  0  0  0  0  0  0
   56.1390   27.9880   44.5040 H   0  0  0  0  0  0  0  0  0  0  0  0
   57.4400   25.8983   42.3800 H   0  0  0  0  0  0  0  0  0  0  0  0
   56.7769   23.4923   42.0556 H   0  0  0  0  0  0  0  0  0  0  0  0
   57.8341   25.2133   46.6714 H   0  0  0  0  0  0  0  0  0  0  0  0
   55.9987   19.2537   45.5196 H   0  0  0  0  0  0  0  0  0  0  0  0
   56.6442   19.7472   47.1339 H   0  0  0  0  0  0  0  0  0  0  0  0
   54.0635   19.3570   46.7428 H   0  0  0  0  0  0  0  0  0  0  0  0
   54.4909   20.0077   48.9250 H   0  0  0  0  0  0  0  0  0  0  0  0
   55.4732   21.3871   48.4903 H   0  0  0  0  0  0  0  0  0  0  0  0
   52.4602   21.0962   48.5636 H   0  0  0  0  0  0  0  0  0  0  0  0
   53.4001   22.5342   48.9089 H   0  0  0  0  0  0  0  0  0  0  0  0
   52.1158   21.9866   46.4730 H   0  0  0  0  0  0  0  0  0  0  0  0
   53.4855   23.1395   46.6543 H   0  0  0  0  0  0  0  0  0  0  0  0
   56.3944   30.0296   42.6735 H   0  0  0  0  0  0  0  0  0  0  0  0
   57.0501   32.4362   42.6445 H   0  0  0  0  0  0  0  0  0  0  0  0
   60.5781   32.4204   46.2473 H   0  0  0  0  0  0  0  0  0  0  0  0
   63.0332   32.1720   46.6091 H   0  0  0  0  0  0  0  0  0  0  0  0
  1  2  1  0
  2  3  2  0
  3  4  1  0
  4  5  2  0
  5  6  1  0
  6  7  2  3
  7  8  1  0
  8  9  2  0
  8 10  1  0
 10 11  1  0
 11 12  2  0
 12 13  1  0
 13 14  2  0
 14 15  1  0
 15 16  1  0
 16 17  2  0
 16 18  1  0
 18 19  2  0
 19 20  1  0
 20 21  2  0
 21 22  1  0
 22 23  2  0
 22 24  1  0
 24 25  2  0
 24 26  1  0
 26 27  1  0
 27 28  1  0
 28 29  1  0
 29 30  1  0
 30 31  1  0
 31 32  1  0
 26 33  1  0
 33 34  2  0
 14 35  1  0
 35 36  2  0
  5 37  1  0
 37 38  2  0
 38  2  1  0
 36 11  1  0
 23 18  1  0
 32 28  1  0
 33 21  1  0
  1 39  1  0
  1 40  1  0
  1 41  1  0
  3 42  1  0
  4 43  1  0
  6 44  1  0
  7 45  1  0
 12 46  1  0
 13 47  1  0
 15 48  1  0
 19 49  1  0
 20 50  1  0
 23 51  1  0
 27 52  1  0
 27 53  1  0
 28 54  1  1
 29 55  1  0
 29 56  1  0
 30 57  1  0
 30 58  1  0
 31 59  1  0
 31 60  1  0
 35 61  1  0
 36 62  1  0
 37 63  1  0
 38 64  1  0
M  CHG  1  10  -1
M  END
>  <UniqueID>  (73) 
71

>  <SMILES>  (73) 
Cc1ccc(C=CC(=O)[N-]c2ccc(NC(=O)c3ccc4c(c3)C(=O)N(C[C@H]3CCCO3)C4=O)cc2)cc1

>  <Energy>  (73) 
117.04809315279795

>  <Genealogy>  (73) 
Cc1ccc(C=CC(=O)[N-]c2ccc(NC(=O)c3ccc4c(c3)C(=O)N(CC3CCCO3)C4=O)cc2)cc1 (protonated)
Cc1ccc(C=CC(=O)[N-]c2ccc(NC(=O)c3ccc4c(c3)C(=O)N(C[C@H]3CCCO3)C4=O)cc2)cc1 (chirality)
Cc1ccc(C=CC(=O)[N-]c2ccc(NC(=O)c3ccc4c(c3)C(=O)N(C[C@H]3CCCO3)C4=O)cc2)cc1 (3D coordinates assigned)
Cc1ccc(C=CC(=O)[N-]c2ccc(NC(=O)c3ccc4c(c3)C(=O)N(C[C@H]3CCCO3)C4=O)cc2)cc1 (nonaromatic ring conformer: 117.04809315279795 kcal/mol)

>  <smiles>  (73) 
Cc1ccc(C=CC(=O)Nc2ccc(NC(=O)c3ccc4c(c3)C(=O)N(CC3CCCO3)C4=O)cc2)cc1

>  <score_type>  (73) 
oracle

>  <origin>  (73) 
adg

>  <m_score__min__energy>  (73) 
-10.779999999999999

>  <m_primary>  (73) 
energy

$$$$
73:0
     RDKit          3D

 41 44  0  0  0  0  0  0  0  0999 V2000
   59.5660   28.6470   48.5110 O   0  0  0  0  0  0  0  0  0  0  0  0
   58.7210   28.3780   47.6150 C   0  0  0  0  0  0  0  0  0  0  0  0
   58.1940   27.0890   47.5310 C   0  0  0  0  0  0  0  0  0  0  0  0
   57.2550   26.7940   46.5300 C   0  0  0  0  0  0  0  0  0  0  0  0
   56.6570   25.4440   46.4020 C   0  0  0  0  0  0  0  0  0  0  0  0
   57.4370   24.3230   46.7340 C   0  0  0  0  0  0  0  0  0  0  0  0
   56.9100   23.0320   46.6230 C   0  0  0  0  0  0  0  0  0  0  0  0
   57.6940   21.9310   46.9420 O   0  0  0  0  0  0  0  0  0  0  0  0
   55.5940   22.8500   46.1920 C   0  0  0  0  0  0  0  0  0  0  0  0
   54.8010   23.9560   45.8790 C   0  0  0  0  0  0  0  0  0  0  0  0
   55.3190   25.2520   45.9920 C   0  0  0  0  0  0  0  0  0  0  0  0
   54.4870   26.3330   45.7240 O   0  0  0  0  0  0  0  0  0  0  0  0
   56.8640   27.7500   45.6880 O   0  0  0  0  0  0  0  0  0  0  0  0
   57.3380   28.9910   45.7320 C   0  0  0  0  0  0  0  0  0  0  0  0
   56.8820   29.9370   44.8120 C   0  0  0  0  0  0  0  0  0  0  0  0
   57.3720   31.2450   44.8440 C   0  0  0  0  0  0  0  0  0  0  0  0
   58.3310   31.6290   45.8010 C   0  0  0  0  0  0  0  0  0  0  0  0
   58.8350   32.9830   45.8290 N   0  0  0  0  0  0  0  0  0  0  0  0
   59.1720   33.6330   47.1020 C   0  0  0  0  0  0  0  0  0  0  0  0
   60.2860   34.6650   46.8870 C   0  0  0  0  0  0  0  0  0  0  0  0
   59.9700   35.6650   45.8460 N   0  0  0  0  0  0  0  0  0  0  0  0
   58.9330   35.2550   44.8820 C   0  0  0  0  0  0  0  0  0  0  0  0
   58.9750   33.7510   44.5850 C   0  0  0  0  0  0  0  0  0  0  0  0
   58.7880   30.6750   46.7300 C   0  0  0  0  0  0  0  0  0  0  0  0
   58.2970   29.3560   46.7010 C   0  0  0  0  0  0  0  0  0  0  0  0
   58.5110   26.3117   48.2419 H   0  0  0  0  0  0  0  0  0  0  0  0
   58.4705   24.4620   47.0841 H   0  0  0  0  0  0  0  0  0  0  0  0
   55.1818   21.8344   46.0990 H   0  0  0  0  0  0  0  0  0  0  0  0
   53.7643   23.8084   45.5420 H   0  0  0  0  0  0  0  0  0  0  0  0
   56.1334   29.6512   44.0584 H   0  0  0  0  0  0  0  0  0  0  0  0
   57.0051   31.9821   44.1145 H   0  0  0  0  0  0  0  0  0  0  0  0
   58.2797   34.1382   47.5002 H   0  0  0  0  0  0  0  0  0  0  0  0
   59.5194   32.8708   47.8150 H   0  0  0  0  0  0  0  0  0  0  0  0
   60.4592   35.1933   47.8362 H   0  0  0  0  0  0  0  0  0  0  0  0
   61.1759   34.1146   46.5476 H   0  0  0  0  0  0  0  0  0  0  0  0
   59.6440   36.5440   46.3130 H   0  0  0  0  0  0  0  0  0  0  0  0
   57.9456   35.5060   45.2968 H   0  0  0  0  0  0  0  0  0  0  0  0
   59.1208   35.7892   43.9389 H   0  0  0  0  0  0  0  0  0  0  0  0
   58.1510   33.4922   43.9038 H   0  0  0  0  0  0  0  0  0  0  0  0
   59.9402   33.5046   44.1184 H   0  0  0  0  0  0  0  0  0  0  0  0
   59.5348   30.9626   47.4847 H   0  0  0  0  0  0  0  0  0  0  0  0
  1  2  2  0
  2  3  1  0
  3  4  2  0
  4  5  1  0
  5  6  2  0
  6  7  1  0
  7  8  1  0
  7  9  2  0
  9 10  1  0
 10 11  2  0
 11 12  1  0
  4 13  1  0
 13 14  1  0
 14 15  2  0
 15 16  1  0
 16 17  2  0
 17 18  1  0
 18 19  1  0
 19 20  1  0
 20 21  1  0
 21 22  1  0
 22 23  1  0
 17 24  1  0
 24 25  2  0
 25  2  1  0
 11  5  1  0
 25 14  1  0
 23 18  1  0
  3 26  1  0
  6 27  1  0
  9 28  1  0
 10 29  1  0
 15 30  1  0
 16 31  1  0
 19 32  1  0
 19 33  1  0
 20 34  1  0
 20 35  1  0
 21 36  1  0
 22 37  1  0
 22 38  1  0
 23 39  1  0
 23 40  1  0
 24 41  1  0
M  CHG  2   8  -1  12  -1
M  END
>  <UniqueID>  (74) 
72

>  <SMILES>  (74) 
O=c1cc(-c2cc([O-])ccc2[O-])oc2ccc(N3CCNCC3)cc12

>  <Energy>  (74) 
63.37764336201826

>  <Genealogy>  (74) 
O=c1cc(-c2cc([O-])ccc2[O-])oc2ccc(N3CCNCC3)cc12 (protonated)
O=c1cc(-c2cc([O-])ccc2[O-])oc2ccc(N3CCNCC3)cc12 (3D coordinates assigned)
O=c1cc(-c2cc([O-])ccc2[O-])oc2ccc(N3CCNCC3)cc12 (nonaromatic ring conformer: 63.37764336201826 kcal/mol)

>  <smiles>  (74) 
O=c1cc(-c2cc(O)ccc2O)oc2ccc(N3CCNCC3)cc12

>  <score_type>  (74) 
oracle

>  <origin>  (74) 
adg

>  <m_score__min__energy>  (74) 
-13.289999999999999

>  <m_primary>  (74) 
energy

$$$$
74:0
     RDKit          3D

 62 65  0  0  0  0  0  0  0  0999 V2000
   64.6260   32.3270   46.3150 H   0  0  0  0  0  0  0  0  0  0  0  0
   63.7440   32.6050   46.7310 O   0  0  0  0  0  0  0  0  0  0  0  0
   63.4710   32.3730   48.0770 C   0  0  0  0  0  0  0  0  0  0  0  0
   63.9440   33.2500   49.0610 C   0  0  0  0  0  0  0  0  0  0  0  0
   64.5284   34.1362   48.7726 H   0  0  0  0  0  0  0  0  0  0  0  0
   63.6740   33.0000   50.4090 C   0  0  0  0  0  0  0  0  0  0  0  0
   64.0514   33.6867   51.1810 H   0  0  0  0  0  0  0  0  0  0  0  0
   62.9260   31.8800   50.7780 C   0  0  0  0  0  0  0  0  0  0  0  0
   62.7237   31.6859   51.8417 H   0  0  0  0  0  0  0  0  0  0  0  0
   62.4290   30.9980   49.8020 C   0  0  0  0  0  0  0  0  0  0  0  0
   61.6470   29.8200   50.2490 C   0  0  0  0  0  0  0  0  0  0  0  0
   61.8887   29.3806   51.2280 H   0  0  0  0  0  0  0  0  0  0  0  0
   60.6630   29.2580   49.5320 C   0  0  0  0  0  0  0  0  0  0  0  0
   60.9206   28.4890   48.7888 H   0  0  0  0  0  0  0  0  0  0  0  0
   59.2460   29.6350   49.7050 C   0  0  0  0  0  0  0  0  0  0  0  0
   58.5540   29.0110   50.5500 O   0  0  0  0  0  0  0  0  0  0  0  0
   58.6400   30.7060   48.9700 N   0  0  0  0  0  0  0  0  0  0  0  0
   59.1820   32.0240   48.8010 C   0  0  0  0  0  0  0  0  0  0  0  0
   59.6310   32.4720   47.5450 C   0  0  0  0  0  0  0  0  0  0  0  0
   59.5552   31.8117   46.6685 H   0  0  0  0  0  0  0  0  0  0  0  0
   60.1730   33.7530   47.4070 C   0  0  0  0  0  0  0  0  0  0  0  0
   60.5278   34.0958   46.4238 H   0  0  0  0  0  0  0  0  0  0  0  0
   60.2650   34.5980   48.5140 C   0  0  0  0  0  0  0  0  0  0  0  0
   60.6977   35.6033   48.4036 H   0  0  0  0  0  0  0  0  0  0  0  0
   59.8080   34.1680   49.7620 C   0  0  0  0  0  0  0  0  0  0  0  0
   59.8832   34.8355   50.6331 H   0  0  0  0  0  0  0  0  0  0  0  0
   59.2540   32.8890   49.9080 C   0  0  0  0  0  0  0  0  0  0  0  0
   58.8210   32.4470   51.2000 N   0  0  0  0  0  0  0  0  0  0  0  0
   57.3880   32.4520   51.5250 C   0  0  0  0  0  0  0  0  0  0  0  0
   57.0231   33.4897   51.5269 H   0  0  0  0  0  0  0  0  0  0  0  0
   56.8547   31.8577   50.7685 H   0  0  0  0  0  0  0  0  0  0  0  0
   57.1360   31.8300   52.9010 C   0  0  0  0  0  0  0  0  0  0  0  0
   57.4253   32.5450   53.6853 H   0  0  0  0  0  0  0  0  0  0  0  0
   56.0683   31.5860   53.0036 H   0  0  0  0  0  0  0  0  0  0  0  0
   57.9350   30.6030   53.0370 N   0  0  0  0  0  0  0  0  0  0  0  0
   57.3380   29.3490   53.4160 C   0  0  0  0  0  0  0  0  0  0  0  0
   57.9990   28.5390   54.1230 O   0  0  0  0  0  0  0  0  0  0  0  0
   55.9360   28.9930   52.9940 C   0  0  0  0  0  0  0  0  0  0  0  0
   55.7457   29.4188   51.9978 H   0  0  0  0  0  0  0  0  0  0  0  0
   55.8529   27.8962   52.9795 H   0  0  0  0  0  0  0  0  0  0  0  0
   54.8870   29.5360   53.9740 C   0  0  0  0  0  0  0  0  0  0  0  0
   54.3960   28.6931   54.4822 H   0  0  0  0  0  0  0  0  0  0  0  0
   55.3884   30.1824   54.7094 H   0  0  0  0  0  0  0  0  0  0  0  0
   53.8500   30.3450   53.2420 C   0  0  0  0  0  0  0  0  0  0  0  0
   52.6700   30.7410   53.8920 C   0  0  0  0  0  0  0  0  0  0  0  0
   52.4904   30.4371   54.9338 H   0  0  0  0  0  0  0  0  0  0  0  0
   51.7220   31.5200   53.2210 C   0  0  0  0  0  0  0  0  0  0  0  0
   50.7944   31.8182   53.7316 H   0  0  0  0  0  0  0  0  0  0  0  0
   51.9530   31.9200   51.9010 C   0  0  0  0  0  0  0  0  0  0  0  0
   51.0110   32.6960   51.2360 O   0  0  0  0  0  0  0  0  0  0  0  0
   53.1320   31.5420   51.2520 C   0  0  0  0  0  0  0  0  0  0  0  0
   53.3135   31.8586   50.2143 H   0  0  0  0  0  0  0  0  0  0  0  0
   54.0810   30.7620   51.9200 C   0  0  0  0  0  0  0  0  0  0  0  0
   55.0115   30.4738   51.4090 H   0  0  0  0  0  0  0  0  0  0  0  0
   59.3820   30.6460   52.7710 C   0  0  0  0  0  0  0  0  0  0  0  0
   59.9230   30.4783   53.7140 H   0  0  0  0  0  0  0  0  0  0  0  0
   59.6192   29.8627   52.0360 H   0  0  0  0  0  0  0  0  0  0  0  0
   59.8110   31.9980   52.1850 C   0  0  0  0  0  0  0  0  0  0  0  0
   59.8847   32.7401   52.9936 H   0  0  0  0  0  0  0  0  0  0  0  0
   60.7892   31.8881   51.6940 H   0  0  0  0  0  0  0  0  0  0  0  0
   62.7200   31.2500   48.4460 C   0  0  0  0  0  0  0  0  0  0  0  0
   62.3544   30.5594   47.6718 H   0  0  0  0  0  0  0  0  0  0  0  0
  1  2  1  0
  2  3  1  0
  3  4  2  0
  4  5  1  0
  4  6  1  0
  6  7  1  0
  6  8  2  0
  8  9  1  0
  8 10  1  0
 10 11  1  0
 11 12  1  0
 11 13  2  0
 13 14  1  0
 13 15  1  0
 15 16  2  0
 15 17  1  0
 17 18  1  0
 18 19  2  0
 19 20  1  0
 19 21  1  0
 21 22  1  0
 21 23  2  0
 23 24  1  0
 23 25  1  0
 25 26  1  0
 25 27  2  0
 27 28  1  0
 28 29  1  0
 29 30  1  0
 29 31  1  0
 29 32  1  0
 32 33  1  0
 32 34  1  0
 32 35  1  0
 35 36  1  0
 36 37  2  0
 36 38  1  0
 38 39  1  0
 38 40  1  0
 38 41  1  0
 41 42  1  0
 41 43  1  0
 41 44  1  0
 44 45  2  0
 45 46  1  0
 45 47  1  0
 47 48  1  0
 47 49  2  0
 49 50  1  0
 49 51  1  0
 51 52  1  0
 51 53  2  0
 53 54  1  0
 35 55  1  0
 55 56  1  0
 55 57  1  0
 55 58  1  0
 58 59  1  0
 58 60  1  0
 10 61  2  0
 61 62  1  0
 61  3  1  0
 27 18  1  0
 58 28  1  0
 53 44  1  0
M  CHG  2  17  -1  50  -1
M  END
>  <UniqueID>  (75) 
73

>  <SMILES>  (75) 
O=C(/C=C/c1cccc(O)c1)[N-]c1ccccc1N1CCN(C(=O)CCc2ccc([O-])cc2)CC1

>  <Energy>  (75) 
77.04292005975746

>  <Genealogy>  (75) 
O=C(C=Cc1cccc(O)c1)[N-]c1ccccc1N1CCN(C(=O)CCc2ccc([O-])cc2)CC1 (protonated)
O=C(/C=C/c1cccc(O)c1)[N-]c1ccccc1N1CCN(C(=O)CCc2ccc([O-])cc2)CC1 (cis-trans isomerization)
O=C(/C=C/c1cccc(O)c1)[N-]c1ccccc1N1CCN(C(=O)CCc2ccc([O-])cc2)CC1 (3D coordinates assigned)
O=C(/C=C/c1cccc(O)c1)[N-]c1ccccc1N1CCN(C(=O)CCc2ccc([O-])cc2)CC1 (nonaromatic ring conformer: 77.04292005975746 kcal/mol)

>  <smiles>  (75) 
O=C(C=Cc1cccc(O)c1)Nc1ccccc1N1CCN(C(=O)CCc2ccc(O)cc2)CC1

>  <score_type>  (75) 
oracle

>  <origin>  (75) 
adg

>  <m_score__min__energy>  (75) 
-15.92

>  <m_primary>  (75) 
energy

$$$$
75:0
     RDKit          3D

 51 55  0  0  0  0  0  0  0  0999 V2000
   54.7670   27.1310   44.9470 H   0  0  0  0  0  0  0  0  0  0  0  0
   55.1700   26.6820   45.7610 O   0  0  0  0  0  0  0  0  0  0  0  0
   56.5410   26.7130   46.0120 C   0  0  0  0  0  0  0  0  0  0  0  0
   57.0800   25.8290   46.9580 C   0  0  0  0  0  0  0  0  0  0  0  0
   56.4332   25.0784   47.4357 H   0  0  0  0  0  0  0  0  0  0  0  0
   58.4290   25.8960   47.2960 C   0  0  0  0  0  0  0  0  0  0  0  0
   58.8528   25.2004   48.0353 H   0  0  0  0  0  0  0  0  0  0  0  0
   59.2350   26.8540   46.6870 C   0  0  0  0  0  0  0  0  0  0  0  0
   60.2983   26.9303   46.9581 H   0  0  0  0  0  0  0  0  0  0  0  0
   58.7100   27.6940   45.7590 N   0  0  0  0  0  0  0  0  0  0  0  0
   57.4030   27.6470   45.3780 C   0  0  0  0  0  0  0  0  0  0  0  0
   57.0100   28.4990   44.4710 N   0  0  0  0  0  0  0  0  0  0  0  0
   56.0770   29.5820   44.5900 C   0  0  0  0  0  0  0  0  0  0  0  0
   54.8560   29.3470   44.7890 O   0  0  0  0  0  0  0  0  0  0  0  0
   56.4860   30.9250   44.3080 N   0  0  0  0  0  0  0  0  0  0  0  0
   57.4140   31.7020   45.0790 C   0  0  0  0  0  0  0  0  0  0  0  0
   57.5530   33.0890   44.8950 C   0  0  0  0  0  0  0  0  0  0  0  0
   56.9274   33.6093   44.1548 H   0  0  0  0  0  0  0  0  0  0  0  0
   58.4840   33.8090   45.6500 C   0  0  0  0  0  0  0  0  0  0  0  0
   58.5665   34.8982   45.5200 H   0  0  0  0  0  0  0  0  0  0  0  0
   59.3120   33.1550   46.5700 C   0  0  0  0  0  0  0  0  0  0  0  0
   60.2330   33.9390   47.3480 N   0  0  0  0  0  0  0  0  0  0  0  0
   61.4830   33.6670   47.5850 C   0  0  0  0  0  0  0  0  0  0  0  0
   61.8470   32.8590   48.6200 N   0  0  0  0  0  0  0  0  0  0  0  0
   63.1510   32.5620   48.8660 C   0  0  0  0  0  0  0  0  0  0  0  0
   63.4790   31.6660   49.9900 C   0  0  0  0  0  0  0  0  0  0  0  0
   64.7110   31.6030   50.5310 N   0  0  0  0  0  0  0  0  0  0  0  0
   64.6510   30.7750   51.5350 O   0  0  0  0  0  0  0  0  0  0  0  0
   63.4420   30.2840   51.6810 C   0  0  0  0  0  0  0  0  0  0  0  0
   63.1271   29.5670   52.4535 H   0  0  0  0  0  0  0  0  0  0  0  0
   62.6340   30.8210   50.7000 C   0  0  0  0  0  0  0  0  0  0  0  0
   61.2300   30.4460   50.4300 C   0  0  0  0  0  0  0  0  0  0  0  0
   60.9250   29.2890   49.6910 C   0  0  0  0  0  0  0  0  0  0  0  0
   61.7373   28.6609   49.2964 H   0  0  0  0  0  0  0  0  0  0  0  0
   59.5930   28.9340   49.4560 C   0  0  0  0  0  0  0  0  0  0  0  0
   59.3607   28.0334   48.8687 H   0  0  0  0  0  0  0  0  0  0  0  0
   58.5570   29.7200   49.9650 C   0  0  0  0  0  0  0  0  0  0  0  0
   57.5101   29.4413   49.7742 H   0  0  0  0  0  0  0  0  0  0  0  0
   58.8510   30.8610   50.7170 C   0  0  0  0  0  0  0  0  0  0  0  0
   57.5480   31.8430   51.3650 Cl  0  0  0  0  0  0  0  0  0  0  0  0
   60.1820   31.2200   50.9560 C   0  0  0  0  0  0  0  0  0  0  0  0
   60.4089   32.1120   51.5583 H   0  0  0  0  0  0  0  0  0  0  0  0
   64.1390   33.0630   48.0090 C   0  0  0  0  0  0  0  0  0  0  0  0
   65.1989   32.8159   48.1686 H   0  0  0  0  0  0  0  0  0  0  0  0
   63.7510   33.8810   46.9500 C   0  0  0  0  0  0  0  0  0  0  0  0
   64.5091   34.2974   46.2703 H   0  0  0  0  0  0  0  0  0  0  0  0
   62.4380   34.1640   46.7570 N   0  0  0  0  0  0  0  0  0  0  0  0
   59.1660   31.7680   46.7590 C   0  0  0  0  0  0  0  0  0  0  0  0
   59.7860   31.2484   47.5044 H   0  0  0  0  0  0  0  0  0  0  0  0
   58.2360   31.0480   46.0030 C   0  0  0  0  0  0  0  0  0  0  0  0
   58.1500   29.9594   46.1357 H   0  0  0  0  0  0  0  0  0  0  0  0
  1  2  1  0
  2  3  1  0
  3  4  2  0
  4  5  1  0
  4  6  1  0
  6  7  1  0
  6  8  2  0
  8  9  1  0
  8 10  1  0
 10 11  1  0
 11 12  2  0
 12 13  1  0
 13 14  2  0
 13 15  1  0
 15 16  1  0
 16 17  2  0
 17 18  1  0
 17 19  1  0
 19 20  1  0
 19 21  2  0
 21 22  1  0
 22 23  2  3
 23 24  1  0
 24 25  2  0
 25 26  1  0
 26 27  2  0
 27 28  1  0
 28 29  1  0
 29 30  1  0
 29 31  2  0
 31 32  1  0
 32 33  2  0
 33 34  1  0
 33 35  1  0
 35 36  1  0
 35 37  2  0
 37 38  1  0
 37 39  1  0
 39 40  1  0
 39 41  2  0
 41 42  1  0
 25 43  1  0
 43 44  1  0
 43 45  2  0
 45 46  1  0
 45 47  1  0
 21 48  1  0
 48 49  1  0
 48 50  2  0
 50 51  1  0
 11  3  1  0
 50 16  1  0
 47 23  1  0
 31 26  1  0
 41 32  1  0
M  CHG  3  10  -1  15  -1  47  -1
M  END
>  <UniqueID>  (76) 
74

>  <SMILES>  (76) 
O=C(/N=c1/[n-]cccc1O)[N-]c1ccc(N=c2nc(-c3nocc3-c3cccc(Cl)c3)cc[n-]2)cc1

>  <Energy>  (76) 
118.41356915385694

>  <Genealogy>  (76) 
O=C(N=c1[n-]cccc1O)[N-]c1ccc(N=c2nc(-c3nocc3-c3cccc(Cl)c3)cc[n-]2)cc1 (protonated)
O=C(/N=c1/[n-]cccc1O)[N-]c1ccc(N=c2nc(-c3nocc3-c3cccc(Cl)c3)cc[n-]2)cc1 (cis-trans isomerization)
O=C(/N=c1/[n-]cccc1O)[N-]c1ccc(N=c2nc(-c3nocc3-c3cccc(Cl)c3)cc[n-]2)cc1 (3D coordinates assigned)
O=C(/N=c1/[n-]cccc1O)[N-]c1ccc(N=c2nc(-c3nocc3-c3cccc(Cl)c3)cc[n-]2)cc1 (optimized conformer: 118.41356915385694 kcal/mol)

>  <smiles>  (76) 
O=C(N=c1[nH]cccc1O)Nc1ccc(N=c2nc(-c3nocc3-c3cccc(Cl)c3)cc[nH]2)cc1

>  <score_type>  (76) 
oracle

>  <origin>  (76) 
adg

>  <m_score__min__energy>  (76) 
-14.31

>  <m_primary>  (76) 
energy

$$$$
76:0
     RDKit          3D

 41 43  0  0  0  0  0  0  0  0999 V2000
   58.8040   32.6350   49.2520 C   0  0  0  0  0  0  0  0  0  0  0  0
   59.1030   33.6930   48.2320 C   0  0  0  0  0  0  0  0  0  0  0  0
   59.6960   34.7390   48.6120 O   0  0  0  0  0  0  0  0  0  0  0  0
   58.7200   33.5380   46.8030 C   0  0  0  0  0  0  0  0  0  0  0  0
   59.3160   34.3540   45.8220 C   0  0  0  0  0  0  0  0  0  0  0  0
   58.9740   34.2140   44.4760 C   0  0  0  0  0  0  0  0  0  0  0  0
   58.0270   33.2640   44.0880 C   0  0  0  0  0  0  0  0  0  0  0  0
   57.4020   32.4570   45.0510 C   0  0  0  0  0  0  0  0  0  0  0  0
   56.4360   31.4610   44.6850 N   0  0  0  0  0  0  0  0  0  0  0  0
   56.5660   30.0450   44.8770 C   0  0  0  0  0  0  0  0  0  0  0  0
   55.5390   29.3250   44.7590 O   0  0  0  0  0  0  0  0  0  0  0  0
   57.8740   29.4060   45.1540 C   0  0  0  0  0  0  0  0  0  0  0  0
   58.4310   28.4830   44.2510 C   0  0  0  0  0  0  0  0  0  0  0  0
   59.6680   27.8940   44.5180 C   0  0  0  0  0  0  0  0  0  0  0  0
   60.3540   28.2040   45.6940 C   0  0  0  0  0  0  0  0  0  0  0  0
   59.8010   29.0920   46.6220 C   0  0  0  0  0  0  0  0  0  0  0  0
   60.5240   29.3840   47.7880 O   0  0  0  0  0  0  0  0  0  0  0  0
   61.2760   30.5470   48.0090 C   0  0  0  0  0  0  0  0  0  0  0  0
   61.8590   30.8310   49.2590 C   0  0  0  0  0  0  0  0  0  0  0  0
   62.6150   31.9950   49.4340 C   0  0  0  0  0  0  0  0  0  0  0  0
   62.8070   32.8740   48.3640 C   0  0  0  0  0  0  0  0  0  0  0  0
   62.2480   32.5870   47.1160 C   0  0  0  0  0  0  0  0  0  0  0  0
   61.4900   31.4240   46.9390 C   0  0  0  0  0  0  0  0  0  0  0  0
   58.5640   29.7020   46.3420 C   0  0  0  0  0  0  0  0  0  0  0  0
   57.7650   32.5840   46.3980 C   0  0  0  0  0  0  0  0  0  0  0  0
   58.9227   33.0551   50.2617 H   0  0  0  0  0  0  0  0  0  0  0  0
   57.7707   32.2812   49.1212 H   0  0  0  0  0  0  0  0  0  0  0  0
   59.4993   31.7927   49.1212 H   0  0  0  0  0  0  0  0  0  0  0  0
   60.0584   35.1092   46.1195 H   0  0  0  0  0  0  0  0  0  0  0  0
   59.4516   34.8535   43.7191 H   0  0  0  0  0  0  0  0  0  0  0  0
   57.7702   33.1479   43.0247 H   0  0  0  0  0  0  0  0  0  0  0  0
   57.8891   28.2238   43.3295 H   0  0  0  0  0  0  0  0  0  0  0  0
   60.1036   27.1836   43.8000 H   0  0  0  0  0  0  0  0  0  0  0  0
   61.3349   27.7471   45.8916 H   0  0  0  0  0  0  0  0  0  0  0  0
   61.7196   30.1358   50.1000 H   0  0  0  0  0  0  0  0  0  0  0  0
   63.0591   32.2190   50.4151 H   0  0  0  0  0  0  0  0  0  0  0  0
   63.3979   33.7911   48.5045 H   0  0  0  0  0  0  0  0  0  0  0  0
   62.4038   33.2755   46.2723 H   0  0  0  0  0  0  0  0  0  0  0  0
   61.0594   31.1974   45.9525 H   0  0  0  0  0  0  0  0  0  0  0  0
   58.1336   30.4165   47.0591 H   0  0  0  0  0  0  0  0  0  0  0  0
   57.2984   31.9304   47.1497 H   0  0  0  0  0  0  0  0  0  0  0  0
  1  2  1  0
  2  3  2  0
  2  4  1  0
  4  5  2  0
  5  6  1  0
  6  7  2  0
  7  8  1  0
  8  9  1  0
  9 10  1  0
 10 11  2  0
 10 12  1  0
 12 13  2  0
 13 14  1  0
 14 15  2  0
 15 16  1  0
 16 17  1  0
 17 18  1  0
 18 19  2  0
 19 20  1  0
 20 21  2  0
 21 22  1  0
 22 23  2  0
 16 24  2  0
  8 25  2  0
 25  4  1  0
 24 12  1  0
 23 18  1  0
  1 26  1  0
  1 27  1  0
  1 28  1  0
  5 29  1  0
  6 30  1  0
  7 31  1  0
 13 32  1  0
 14 33  1  0
 15 34  1  0
 19 35  1  0
 20 36  1  0
 21 37  1  0
 22 38  1  0
 23 39  1  0
 24 40  1  0
 25 41  1  0
M  CHG  1   9  -1
M  END
>  <UniqueID>  (77) 
75

>  <SMILES>  (77) 
CC(=O)c1cccc([N-]C(=O)c2cccc(Oc3ccccc3)c2)c1

>  <Energy>  (77) 
57.402684372021305

>  <Genealogy>  (77) 
CC(=O)c1cccc([N-]C(=O)c2cccc(Oc3ccccc3)c2)c1 (protonated)
CC(=O)c1cccc([N-]C(=O)c2cccc(Oc3ccccc3)c2)c1 (3D coordinates assigned)
CC(=O)c1cccc([N-]C(=O)c2cccc(Oc3ccccc3)c2)c1 (optimized conformer: 57.402684372021305 kcal/mol)

>  <smiles>  (77) 
CC(=O)c1cccc(NC(=O)c2cccc(Oc3ccccc3)c2)c1

>  <score_type>  (77) 
oracle

>  <origin>  (77) 
adg

>  <m_score__min__energy>  (77) 
-10.34

>  <m_primary>  (77) 
energy

$$$$
77:0
     RDKit          3D

 47 49  0  0  0  0  0  0  0  0999 V2000
   55.9230   27.4670   45.6070 O   0  0  0  0  0  0  0  0  0  0  0  0
   56.9860   28.1300   45.4520 C   0  0  0  0  0  0  0  0  0  0  0  0
   57.3940   28.5960   44.0920 C   0  0  0  0  0  0  0  0  0  0  0  0
   58.2370   29.7850   44.2010 N   0  0  0  0  0  0  0  0  0  0  0  0
   57.2640   31.2140   44.0280 S   0  0  0  0  0  0  0  0  0  0  0  0
   57.2200   31.6090   42.5790 O   0  0  0  0  0  0  0  0  0  0  0  0
   55.8650   30.9300   44.5000 O   0  0  0  0  0  0  0  0  0  0  0  0
   57.9640   32.5350   44.9590 C   0  0  0  0  0  0  0  0  0  0  0  0
   58.6800   33.5460   44.3040 C   0  0  0  0  0  0  0  0  0  0  0  0
   59.2220   34.6090   45.0320 C   0  0  0  0  0  0  0  0  0  0  0  0
   59.0540   34.6650   46.4190 C   0  0  0  0  0  0  0  0  0  0  0  0
   58.3400   33.6600   47.0770 C   0  0  0  0  0  0  0  0  0  0  0  0
   57.7940   32.5970   46.3500 C   0  0  0  0  0  0  0  0  0  0  0  0
   57.7750   28.5020   46.5860 N   0  0  0  0  0  0  0  0  0  0  0  0
   59.0450   27.8640   46.9290 C   0  0  1  0  0  0  0  0  0  0  0  0
   60.0610   28.0710   45.8220 C   0  0  0  0  0  0  0  0  0  0  0  0
   60.7560   29.3770   46.1740 C   0  0  0  0  0  0  0  0  0  0  0  0
   60.5650   29.6090   47.6150 N   0  0  0  0  0  0  0  0  0  0  0  0
   60.1950   30.9980   47.9850 C   0  0  0  0  0  0  0  0  0  0  0  0
   61.3460   31.9910   47.9910 C   0  0  0  0  0  0  0  0  0  0  0  0
   62.4730   31.7920   47.1720 C   0  0  0  0  0  0  0  0  0  0  0  0
   63.5170   32.7230   47.1620 C   0  0  0  0  0  0  0  0  0  0  0  0
   63.4340   33.8760   47.9460 C   0  0  0  0  0  0  0  0  0  0  0  0
   62.3030   34.1050   48.7310 C   0  0  0  0  0  0  0  0  0  0  0  0
   61.2600   33.1740   48.7480 C   0  0  0  0  0  0  0  0  0  0  0  0
   59.6670   28.5660   48.1260 C   0  0  0  0  0  0  0  0  0  0  0  0
   57.9559   27.7966   43.5868 H   0  0  0  0  0  0  0  0  0  0  0  0
   56.4935   28.8448   43.5112 H   0  0  0  0  0  0  0  0  0  0  0  0
   58.8159   33.5029   43.2133 H   0  0  0  0  0  0  0  0  0  0  0  0
   59.7810   35.4019   44.5135 H   0  0  0  0  0  0  0  0  0  0  0  0
   59.4837   35.4999   46.9920 H   0  0  0  0  0  0  0  0  0  0  0  0
   58.2072   33.7049   48.1680 H   0  0  0  0  0  0  0  0  0  0  0  0
   57.2304   31.8084   46.8700 H   0  0  0  0  0  0  0  0  0  0  0  0
   58.8290   26.8009   47.1112 H   0  0  0  0  0  0  0  0  0  0  0  0
   60.7831   27.2416   45.7984 H   0  0  0  0  0  0  0  0  0  0  0  0
   59.5916   28.1045   44.8277 H   0  0  0  0  0  0  0  0  0  0  0  0
   61.8294   29.3042   45.9449 H   0  0  0  0  0  0  0  0  0  0  0  0
   60.3345   30.2083   45.5899 H   0  0  0  0  0  0  0  0  0  0  0  0
   59.4420   31.3532   47.2662 H   0  0  0  0  0  0  0  0  0  0  0  0
   59.8245   30.9515   49.0197 H   0  0  0  0  0  0  0  0  0  0  0  0
   62.5334   30.8974   46.5348 H   0  0  0  0  0  0  0  0  0  0  0  0
   64.4042   32.5469   46.5361 H   0  0  0  0  0  0  0  0  0  0  0  0
   64.2595   34.6030   47.9447 H   0  0  0  0  0  0  0  0  0  0  0  0
   62.2320   35.0199   49.3376 H   0  0  0  0  0  0  0  0  0  0  0  0
   60.3653   33.3679   49.3579 H   0  0  0  0  0  0  0  0  0  0  0  0
   60.2366   27.8439   48.7294 H   0  0  0  0  0  0  0  0  0  0  0  0
   58.8859   29.0080   48.7620 H   0  0  0  0  0  0  0  0  0  0  0  0
  1  2  2  0
  2  3  1  0
  3  4  1  0
  4  5  1  0
  5  6  2  0
  5  7  2  0
  5  8  1  0
  8  9  2  0
  9 10  1  0
 10 11  2  0
 11 12  1  0
 12 13  2  0
  2 14  1  0
 14 15  1  0
 15 16  1  0
 16 17  1  0
 17 18  1  0
 18 19  1  0
 19 20  1  0
 20 21  2  0
 21 22  1  0
 22 23  2  0
 23 24  1  0
 24 25  2  0
 18 26  1  0
 13  8  1  0
 26 15  1  0
 25 20  1  0
  3 27  1  0
  3 28  1  0
  9 29  1  0
 10 30  1  0
 11 31  1  0
 12 32  1  0
 13 33  1  0
 15 34  1  1
 16 35  1  0
 16 36  1  0
 17 37  1  0
 17 38  1  0
 19 39  1  0
 19 40  1  0
 21 41  1  0
 22 42  1  0
 23 43  1  0
 24 44  1  0
 25 45  1  0
 26 46  1  0
 26 47  1  0
M  CHG  2   4  -1  14  -1
M  END
>  <UniqueID>  (78) 
76

>  <SMILES>  (78) 
O=C(C[N-]S(=O)(=O)c1ccccc1)[N-][C@H]1CCN(Cc2ccccc2)C1

>  <Energy>  (78) 
47.375688568044346

>  <Genealogy>  (78) 
O=C(C[N-]S(=O)(=O)c1ccccc1)[N-]C1CCN(Cc2ccccc2)C1 (protonated)
O=C(C[N-]S(=O)(=O)c1ccccc1)[N-][C@H]1CCN(Cc2ccccc2)C1 (chirality)
O=C(C[N-]S(=O)(=O)c1ccccc1)[N-][C@H]1CCN(Cc2ccccc2)C1 (3D coordinates assigned)
O=C(C[N-]S(=O)(=O)c1ccccc1)[N-][C@H]1CCN(Cc2ccccc2)C1 (nonaromatic ring conformer: 47.375688568044346 kcal/mol)

>  <smiles>  (78) 
O=C(CNS(=O)(=O)c1ccccc1)NC1CCN(Cc2ccccc2)C1

>  <score_type>  (78) 
oracle

>  <origin>  (78) 
adg

>  <m_score__min__energy>  (78) 
-12.68

>  <m_primary>  (78) 
energy

$$$$
78:0
     RDKit          3D

 59 62  0  0  0  0  0  0  0  0999 V2000
   64.0060   31.5070   52.0060 C   0  0  0  0  0  0  0  0  0  0  0  0
   64.9150   32.4330   51.3030 N   0  0  0  0  0  0  0  0  0  0  0  0
   64.5590   33.8470   51.5430 C   0  0  0  0  0  0  0  0  0  0  0  0
   63.2150   34.2070   50.8940 C   0  0  0  0  0  0  0  0  0  0  0  0
   63.1080   33.6350   49.5450 N   0  0  0  0  0  0  0  0  0  0  0  0
   61.8580   33.7720   48.8320 C   0  0  0  0  0  0  0  0  0  0  0  0
   60.7780   33.8210   49.4840 O   0  0  0  0  0  0  0  0  0  0  0  0
   61.8100   33.8080   47.3220 C   0  0  0  0  0  0  0  0  0  0  0  0
   60.7560   32.8720   46.7740 C   0  0  0  0  0  0  0  0  0  0  0  0
   60.9650   31.4830   46.7710 C   0  0  0  0  0  0  0  0  0  0  0  0
   59.9720   30.6210   46.2940 C   0  0  0  0  0  0  0  0  0  0  0  0
   58.7340   31.1300   45.8500 C   0  0  0  0  0  0  0  0  0  0  0  0
   57.7000   30.2990   45.3800 O   0  0  0  0  0  0  0  0  0  0  0  0
   57.8440   29.0330   44.7880 C   0  0  0  0  0  0  0  0  0  0  0  0
   57.6170   28.9220   43.4430 N   0  0  0  0  0  0  0  0  0  0  0  0
   57.7520   27.7440   42.7830 C   0  0  0  0  0  0  0  0  0  0  0  0
   58.1100   26.5900   43.4770 C   0  0  0  0  0  0  0  0  0  0  0  0
   58.3070   26.6540   44.8560 C   0  0  0  0  0  0  0  0  0  0  0  0
   58.1410   27.8720   45.5390 C   0  0  0  0  0  0  0  0  0  0  0  0
   58.2230   27.9500   46.9720 N   0  0  0  0  0  0  0  0  0  0  0  0
   59.6180   27.5450   47.9170 S   0  0  0  0  0  0  0  0  0  0  0  0
   60.8060   27.4030   47.0100 O   0  0  0  0  0  0  0  0  0  0  0  0
   59.3730   26.2320   48.6080 O   0  0  0  0  0  0  0  0  0  0  0  0
   59.9400   28.8190   49.0940 C   0  0  0  0  0  0  0  0  0  0  0  0
   61.1500   28.8290   49.7990 C   0  0  0  0  0  0  0  0  0  0  0  0
   61.4360   29.8690   50.6880 C   0  0  0  0  0  0  0  0  0  0  0  0
   60.5150   30.9060   50.8740 C   0  0  0  0  0  0  0  0  0  0  0  0
   59.3050   30.9030   50.1720 C   0  0  0  0  0  0  0  0  0  0  0  0
   58.1560   32.2120   50.3930 Cl  0  0  0  0  0  0  0  0  0  0  0  0
   59.0150   29.8570   49.2880 C   0  0  0  0  0  0  0  0  0  0  0  0
   58.5360   32.5230   45.8420 C   0  0  0  0  0  0  0  0  0  0  0  0
   57.0220   33.2000   45.2530 Cl  0  0  0  0  0  0  0  0  0  0  0  0
   59.5380   33.3850   46.3010 C   0  0  0  0  0  0  0  0  0  0  0  0
   64.3050   33.0650   48.9090 C   0  0  0  0  0  0  0  0  0  0  0  0
   65.0430   32.0980   49.8610 C   0  0  0  0  0  0  0  0  0  0  0  0
   64.1262   31.6295   53.0925 H   0  0  0  0  0  0  0  0  0  0  0  0
   62.9662   31.7298   51.7247 H   0  0  0  0  0  0  0  0  0  0  0  0
   64.2481   30.4715   51.7247 H   0  0  0  0  0  0  0  0  0  0  0  0
   64.4898   34.0191   52.6273 H   0  0  0  0  0  0  0  0  0  0  0  0
   65.3391   34.4800   51.0950 H   0  0  0  0  0  0  0  0  0  0  0  0
   62.3985   33.8130   51.5169 H   0  0  0  0  0  0  0  0  0  0  0  0
   63.1478   35.3021   50.8151 H   0  0  0  0  0  0  0  0  0  0  0  0
   61.5801   34.8334   46.9969 H   0  0  0  0  0  0  0  0  0  0  0  0
   62.7891   33.4837   46.9397 H   0  0  0  0  0  0  0  0  0  0  0  0
   61.9138   31.0713   47.1454 H   0  0  0  0  0  0  0  0  0  0  0  0
   60.1583   29.5373   46.2650 H   0  0  0  0  0  0  0  0  0  0  0  0
   57.3630   29.7780   42.9010 H   0  0  0  0  0  0  0  0  0  0  0  0
   57.5784   27.7000   41.6977 H   0  0  0  0  0  0  0  0  0  0  0  0
   58.2361   25.6372   42.9420 H   0  0  0  0  0  0  0  0  0  0  0  0
   58.5932   25.7487   45.4114 H   0  0  0  0  0  0  0  0  0  0  0  0
   61.8770   28.0165   49.6528 H   0  0  0  0  0  0  0  0  0  0  0  0
   62.3862   29.8723   51.2421 H   0  0  0  0  0  0  0  0  0  0  0  0
   60.7427   31.7243   51.5729 H   0  0  0  0  0  0  0  0  0  0  0  0
   58.0592   29.8484   48.7436 H   0  0  0  0  0  0  0  0  0  0  0  0
   59.3701   34.4721   46.2911 H   0  0  0  0  0  0  0  0  0  0  0  0
   64.0028   32.5160   48.0050 H   0  0  0  0  0  0  0  0  0  0  0  0
   64.9879   33.8892   48.6553 H   0  0  0  0  0  0  0  0  0  0  0  0
   64.6371   31.0874   49.7061 H   0  0  0  0  0  0  0  0  0  0  0  0
   66.1127   32.1751   49.6165 H   0  0  0  0  0  0  0  0  0  0  0  0
  1  2  1  0
  2  3  1  0
  3  4  1  0
  4  5  1  0
  5  6  1  0
  6  7  2  0
  6  8  1  0
  8  9  1  0
  9 10  2  0
 10 11  1  0
 11 12  2  0
 12 13  1  0
 13 14  1  0
 14 15  2  0
 15 16  1  0
 16 17  2  0
 17 18  1  0
 18 19  2  0
 19 20  1  0
 20 21  1  0
 21 22  2  0
 21 23  2  0
 21 24  1  0
 24 25  2  0
 25 26  1  0
 26 27  2  0
 27 28  1  0
 28 29  1  0
 28 30  2  0
 12 31  1  0
 31 32  1  0
 31 33  2  0
  5 34  1  0
 34 35  1  0
 35  2  1  0
 33  9  1  0
 19 14  1  0
 30 24  1  0
  1 36  1  0
  1 37  1  0
  1 38  1  0
  3 39  1  0
  3 40  1  0
  4 41  1  0
  4 42  1  0
  8 43  1  0
  8 44  1  0
 10 45  1  0
 11 46  1  0
 15 47  1  0
 16 48  1  0
 17 49  1  0
 18 50  1  0
 25 51  1  0
 26 52  1  0
 27 53  1  0
 30 54  1  0
 33 55  1  0
 34 56  1  0
 34 57  1  0
 35 58  1  0
 35 59  1  0
M  CHG  2  15   1  20  -1
M  END
>  <UniqueID>  (79) 
77

>  <SMILES>  (79) 
CN1CCN(C(=O)Cc2ccc(Oc3[nH+]cccc3[N-]S(=O)(=O)c3cccc(Cl)c3)c(Cl)c2)CC1

>  <Energy>  (79) 
82.2660572879648

>  <Genealogy>  (79) 
CN1CCN(C(=O)Cc2ccc(Oc3[nH+]cccc3[N-]S(=O)(=O)c3cccc(Cl)c3)c(Cl)c2)CC1 (protonated)
CN1CCN(C(=O)Cc2ccc(Oc3[nH+]cccc3[N-]S(=O)(=O)c3cccc(Cl)c3)c(Cl)c2)CC1 (3D coordinates assigned)
CN1CCN(C(=O)Cc2ccc(Oc3[nH+]cccc3[N-]S(=O)(=O)c3cccc(Cl)c3)c(Cl)c2)CC1 (nonaromatic ring conformer: 82.2660572879648 kcal/mol)

>  <smiles>  (79) 
CN1CCN(C(=O)Cc2ccc(Oc3ncccc3NS(=O)(=O)c3cccc(Cl)c3)c(Cl)c2)CC1

>  <score_type>  (79) 
oracle

>  <origin>  (79) 
adg

>  <m_score__min__energy>  (79) 
-10.19

>  <m_primary>  (79) 
energy

$$$$
79:0
     RDKit          3D

 42 44  0  0  0  0  0  0  0  0999 V2000
   56.5700   30.5200   45.5480 H   0  0  0  0  0  0  0  0  0  0  0  0
   56.3980   29.6790   45.0100 O   0  0  0  0  0  0  0  0  0  0  0  0
   56.7790   28.4300   45.4940 C   0  0  0  0  0  0  0  0  0  0  0  0
   55.8490   27.4470   45.6090 N   0  0  0  0  0  0  0  0  0  0  0  0
   56.1790   26.2210   46.0880 C   0  0  0  0  0  0  0  0  0  0  0  0
   55.3000   25.3250   46.1830 O   0  0  0  0  0  0  0  0  0  0  0  0
   57.4540   25.9610   46.4700 N   0  0  0  0  0  0  0  0  0  0  0  0
   58.4230   26.9080   46.3750 C   0  0  0  0  0  0  0  0  0  0  0  0
   59.5900   26.6300   46.7580 O   0  0  0  0  0  0  0  0  0  0  0  0
   58.1140   28.1830   45.8630 C   0  0  0  0  0  0  0  0  0  0  0  0
   59.1680   29.2630   45.7280 C   0  0  0  0  0  0  0  0  0  0  0  0
   60.1448   28.7890   45.5516 H   0  0  0  0  0  0  0  0  0  0  0  0
   58.8899   29.9129   44.8852 H   0  0  0  0  0  0  0  0  0  0  0  0
   59.2530   30.1140   46.9750 C   0  0  0  0  0  0  0  0  0  0  0  0
   60.0850   29.7110   48.0350 C   0  0  0  0  0  0  0  0  0  0  0  0
   60.6698   28.7835   47.9469 H   0  0  0  0  0  0  0  0  0  0  0  0
   60.1750   30.4780   49.1980 C   0  0  0  0  0  0  0  0  0  0  0  0
   60.8282   30.1535   50.0215 H   0  0  0  0  0  0  0  0  0  0  0  0
   59.4380   31.6540   49.3160 C   0  0  0  0  0  0  0  0  0  0  0  0
   59.5098   32.2561   50.2338 H   0  0  0  0  0  0  0  0  0  0  0  0
   58.6090   32.0710   48.2740 C   0  0  0  0  0  0  0  0  0  0  0  0
   58.0311   33.0015   48.3746 H   0  0  0  0  0  0  0  0  0  0  0  0
   58.5070   31.3070   47.0920 C   0  0  0  0  0  0  0  0  0  0  0  0
   57.6810   31.7050   46.0280 O   0  0  0  0  0  0  0  0  0  0  0  0
   57.4420   33.0600   45.6560 C   0  0  0  0  0  0  0  0  0  0  0  0
   56.7594   33.0876   44.7938 H   0  0  0  0  0  0  0  0  0  0  0  0
   56.9888   33.5960   46.5029 H   0  0  0  0  0  0  0  0  0  0  0  0
   58.7390   33.7190   45.2870 C   0  0  0  0  0  0  0  0  0  0  0  0
   59.1952   33.4557   44.3213 H   0  0  0  0  0  0  0  0  0  0  0  0
   59.3760   34.6090   46.0620 C   0  0  0  0  0  0  0  0  0  0  0  0
   59.0069   35.6452   46.0599 H   0  0  0  0  0  0  0  0  0  0  0  0
   60.5380   34.2960   46.9180 C   0  0  0  0  0  0  0  0  0  0  0  0
   60.4690   34.5740   48.2920 C   0  0  0  0  0  0  0  0  0  0  0  0
   59.5636   35.0364   48.7120 H   0  0  0  0  0  0  0  0  0  0  0  0
   61.5460   34.2660   49.1300 C   0  0  0  0  0  0  0  0  0  0  0  0
   61.4912   34.4997   50.2035 H   0  0  0  0  0  0  0  0  0  0  0  0
   62.6910   33.6620   48.6050 C   0  0  0  0  0  0  0  0  0  0  0  0
   63.5408   33.4289   49.2634 H   0  0  0  0  0  0  0  0  0  0  0  0
   62.7570   33.3540   47.2440 C   0  0  0  0  0  0  0  0  0  0  0  0
   63.6554   32.8704   46.8329 H   0  0  0  0  0  0  0  0  0  0  0  0
   61.6820   33.6600   46.4040 C   0  0  0  0  0  0  0  0  0  0  0  0
   61.7314   33.4020   45.3358 H   0  0  0  0  0  0  0  0  0  0  0  0
  1  2  1  0
  2  3  1  0
  3  4  1  0
  4  5  1  0
  5  6  2  0
  5  7  1  0
  7  8  1  0
  8  9  2  0
  8 10  1  0
 10 11  1  0
 11 12  1  0
 11 13  1  0
 11 14  1  0
 14 15  2  0
 15 16  1  0
 15 17  1  0
 17 18  1  0
 17 19  2  0
 19 20  1  0
 19 21  1  0
 21 22  1  0
 21 23  2  0
 23 24  1  0
 24 25  1  0
 25 26  1  0
 25 27  1  0
 25 28  1  0
 28 29  1  0
 28 30  2  0
 30 31  1  0
 30 32  1  0
 32 33  2  0
 33 34  1  0
 33 35  1  0
 35 36  1  0
 35 37  2  0
 37 38  1  0
 37 39  1  0
 39 40  1  0
 39 41  2  0
 41 42  1  0
 10  3  2  0
 23 14  1  0
 41 32  1  0
M  CHG  2   4  -1   7  -1
M  END
>  <UniqueID>  (80) 
78

>  <SMILES>  (80) 
O=c1[n-]c(O)c(Cc2ccccc2OC/C=C\c2ccccc2)c(=O)[n-]1

>  <Energy>  (80) 
50.48089234208196

>  <Genealogy>  (80) 
O=c1[n-]c(O)c(Cc2ccccc2OCC=Cc2ccccc2)c(=O)[n-]1 (protonated)
O=c1[n-]c(O)c(Cc2ccccc2OC/C=C\c2ccccc2)c(=O)[n-]1 (cis-trans isomerization)
O=c1[n-]c(O)c(Cc2ccccc2OC/C=C\c2ccccc2)c(=O)[n-]1 (3D coordinates assigned)
O=c1[n-]c(O)c(Cc2ccccc2OC/C=C\c2ccccc2)c(=O)[n-]1 (optimized conformer: 50.48089234208196 kcal/mol)

>  <smiles>  (80) 
O=c1[nH]c(O)c(Cc2ccccc2OCC=Cc2ccccc2)c(=O)[nH]1

>  <score_type>  (80) 
oracle

>  <origin>  (80) 
adg

>  <m_score__min__energy>  (80) 
-13.01

>  <m_primary>  (80) 
energy

$$$$
80:0
     RDKit          3D

 41 43  0  0  0  0  0  0  0  0999 V2000
   55.7420   29.6960   43.6980 O   0  0  0  0  0  0  0  0  0  0  0  0
   56.5820   30.3000   44.4150 C   0  0  0  0  0  0  0  0  0  0  0  0
   57.8260   29.5820   44.8700 C   0  0  0  0  0  0  0  0  0  0  0  0
   57.6840   29.1110   46.2120 O   0  0  0  0  0  0  0  0  0  0  0  0
   58.6820   28.4840   46.9800 C   0  0  0  0  0  0  0  0  0  0  0  0
   59.2270   29.0890   48.1320 C   0  0  0  0  0  0  0  0  0  0  0  0
   60.2230   28.4440   48.8680 C   0  0  0  0  0  0  0  0  0  0  0  0
   60.6890   27.1930   48.4690 C   0  0  0  0  0  0  0  0  0  0  0  0
   60.1600   26.5800   47.3340 C   0  0  0  0  0  0  0  0  0  0  0  0
   59.1550   27.2120   46.5810 C   0  0  0  0  0  0  0  0  0  0  0  0
   58.5870   26.5040   45.3720 C   0  0  0  0  0  0  0  0  0  0  0  0
   57.4530   25.5830   45.7710 C   0  0  0  0  0  0  0  0  0  0  0  0
   56.1380   26.0680   45.8970 C   0  0  0  0  0  0  0  0  0  0  0  0
   55.8440   27.3990   45.6230 O   0  0  0  0  0  0  0  0  0  0  0  0
   55.1400   25.2300   46.2880 N   0  0  0  0  0  0  0  0  0  0  0  0
   55.3860   23.9250   46.5630 C   0  0  0  0  0  0  0  0  0  0  0  0
   54.1660   22.9480   47.0300 S   0  0  0  0  0  0  0  0  0  0  0  0
   56.6440   23.4320   46.4480 N   0  0  0  0  0  0  0  0  0  0  0  0
   57.6770   24.2230   46.0620 C   0  0  0  0  0  0  0  0  0  0  0  0
   58.8290   23.7230   45.9660 O   0  0  0  0  0  0  0  0  0  0  0  0
   56.3050   31.6500   44.8100 N   0  0  0  0  0  0  0  0  0  0  0  0
   57.2660   32.6520   45.1670 C   0  0  0  0  0  0  0  0  0  0  0  0
   57.4010   33.1030   46.4930 C   0  0  0  0  0  0  0  0  0  0  0  0
   58.3670   34.0600   46.8160 C   0  0  0  0  0  0  0  0  0  0  0  0
   59.2170   34.5600   45.8260 C   0  0  0  0  0  0  0  0  0  0  0  0
   59.1090   34.0930   44.5140 C   0  0  0  0  0  0  0  0  0  0  0  0
   58.1440   33.1350   44.1850 C   0  0  0  0  0  0  0  0  0  0  0  0
   58.0530   32.6880   42.9070 F   0  0  0  0  0  0  0  0  0  0  0  0
   58.0099   28.7249   44.2056 H   0  0  0  0  0  0  0  0  0  0  0  0
   58.6702   30.2863   44.8334 H   0  0  0  0  0  0  0  0  0  0  0  0
   58.8645   30.0767   48.4530 H   0  0  0  0  0  0  0  0  0  0  0  0
   60.6407   28.9247   49.7649 H   0  0  0  0  0  0  0  0  0  0  0  0
   61.4750   26.6885   49.0501 H   0  0  0  0  0  0  0  0  0  0  0  0
   60.5326   25.5923   47.0247 H   0  0  0  0  0  0  0  0  0  0  0  0
   58.2098   27.2528   44.6599 H   0  0  0  0  0  0  0  0  0  0  0  0
   59.3834   25.9024   44.9095 H   0  0  0  0  0  0  0  0  0  0  0  0
   56.3160   27.8950   44.8770 H   0  0  0  0  0  0  0  0  0  0  0  0
   56.7439   32.7009   47.2782 H   0  0  0  0  0  0  0  0  0  0  0  0
   58.4583   34.4202   47.8513 H   0  0  0  0  0  0  0  0  0  0  0  0
   59.9703   35.3205   46.0796 H   0  0  0  0  0  0  0  0  0  0  0  0
   59.7848   34.4797   43.7370 H   0  0  0  0  0  0  0  0  0  0  0  0
  1  2  2  0
  2  3  1  0
  3  4  1  0
  4  5  1  0
  5  6  2  0
  6  7  1  0
  7  8  2  0
  8  9  1  0
  9 10  2  0
 10 11  1  0
 11 12  1  0
 12 13  2  0
 13 14  1  0
 13 15  1  0
 15 16  1  0
 16 17  2  0
 16 18  1  0
 18 19  1  0
 19 20  2  0
  2 21  1  0
 21 22  1  0
 22 23  2  0
 23 24  1  0
 24 25  2  0
 25 26  1  0
 26 27  2  0
 27 28  1  0
 10  5  1  0
 19 12  1  0
 27 22  1  0
  3 29  1  0
  3 30  1  0
  6 31  1  0
  7 32  1  0
  8 33  1  0
  9 34  1  0
 11 35  1  0
 11 36  1  0
 14 37  1  0
 23 38  1  0
 24 39  1  0
 25 40  1  0
 26 41  1  0
M  CHG  3  15  -1  18  -1  21  -1
M  END
>  <UniqueID>  (81) 
79

>  <SMILES>  (81) 
O=C(COc1ccccc1Cc1c(O)[n-]c(=S)[n-]c1=O)[N-]c1ccccc1F

>  <Energy>  (81) 
51.16715543574679

>  <Genealogy>  (81) 
O=C(COc1ccccc1Cc1c(O)[n-]c(=S)[n-]c1=O)[N-]c1ccccc1F (protonated)
O=C(COc1ccccc1Cc1c(O)[n-]c(=S)[n-]c1=O)[N-]c1ccccc1F (3D coordinates assigned)
O=C(COc1ccccc1Cc1c(O)[n-]c(=S)[n-]c1=O)[N-]c1ccccc1F (optimized conformer: 51.16715543574679 kcal/mol)

>  <smiles>  (81) 
O=C(COc1ccccc1Cc1c(O)[nH]c(=S)[nH]c1=O)Nc1ccccc1F

>  <score_type>  (81) 
oracle

>  <origin>  (81) 
adg

>  <m_score__min__energy>  (81) 
-14.27

>  <m_primary>  (81) 
energy

$$$$
81:0
     RDKit          3D

 49 52  0  0  0  0  0  0  0  0999 V2000
   62.3630   31.4040   49.9860 C   0  0  0  0  0  0  0  0  0  0  0  0
   62.4340   32.1950   48.7030 C   0  0  0  0  0  0  0  0  0  0  0  0
   63.6220   32.1560   47.9500 C   0  0  0  0  0  0  0  0  0  0  0  0
   63.7760   32.9580   46.8190 C   0  0  0  0  0  0  0  0  0  0  0  0
   62.7450   33.8120   46.4220 C   0  0  0  0  0  0  0  0  0  0  0  0
   61.5550   33.8550   47.1470 C   0  0  0  0  0  0  0  0  0  0  0  0
   61.3790   33.0550   48.2920 C   0  0  0  0  0  0  0  0  0  0  0  0
   60.0740   33.1170   48.9990 C   0  0  0  0  0  0  0  0  0  0  0  0
   59.9760   33.7600   50.0760 O   0  0  0  0  0  0  0  0  0  0  0  0
   58.9490   32.3460   48.5520 N   0  0  0  0  0  0  0  0  0  0  0  0
   58.9960   30.9450   48.2600 C   0  0  0  0  0  0  0  0  0  0  0  0
   59.2980   30.0470   49.2840 C   0  0  0  0  0  0  0  0  0  0  0  0
   59.4190   28.6860   49.0100 C   0  0  0  0  0  0  0  0  0  0  0  0
   59.1880   28.2060   47.7180 C   0  0  0  0  0  0  0  0  0  0  0  0
   59.3480   26.8860   47.4600 N   0  0  0  0  0  0  0  0  0  0  0  0
   59.1380   26.3810   46.2230 C   0  0  0  0  0  0  0  0  0  0  0  0
   59.3170   25.1510   46.0130 O   0  0  0  0  0  0  0  0  0  0  0  0
   58.7160   27.2250   45.1900 C   0  0  0  0  0  0  0  0  0  0  0  0
   58.5300   26.7400   44.0380 O   0  0  0  0  0  0  0  0  0  0  0  0
   58.5050   28.5640   45.4300 N   0  0  0  0  0  0  0  0  0  0  0  0
   57.9570   29.4020   44.3400 C   0  0  0  0  0  0  0  0  0  0  0  0
   56.5590   29.8500   44.6460 C   0  0  0  0  0  0  0  0  0  0  0  0
   55.6730   29.0040   44.9350 O   0  0  0  0  0  0  0  0  0  0  0  0
   56.2510   31.2490   44.6030 N   0  0  0  0  0  0  0  0  0  0  0  0
   57.1400   32.3400   44.8890 C   0  0  0  0  0  0  0  0  0  0  0  0
   57.0260   33.1050   46.0620 C   0  0  0  0  0  0  0  0  0  0  0  0
   57.8950   34.1790   46.2890 C   0  0  0  0  0  0  0  0  0  0  0  0
   58.8640   34.5130   45.3380 C   0  0  0  0  0  0  0  0  0  0  0  0
   59.6870   35.5650   45.5500 F   0  0  0  0  0  0  0  0  0  0  0  0
   58.9670   33.7720   44.1560 C   0  0  0  0  0  0  0  0  0  0  0  0
   58.1010   32.6970   43.9310 C   0  0  0  0  0  0  0  0  0  0  0  0
   58.7950   29.0850   46.6780 C   0  0  0  0  0  0  0  0  0  0  0  0
   58.7330   30.4690   46.9660 C   0  0  0  0  0  0  0  0  0  0  0  0
   62.4246   32.0901   50.8436 H   0  0  0  0  0  0  0  0  0  0  0  0
   61.4118   30.8529   50.0248 H   0  0  0  0  0  0  0  0  0  0  0  0
   63.2009   30.6923   50.0248 H   0  0  0  0  0  0  0  0  0  0  0  0
   64.4384   31.4856   48.2566 H   0  0  0  0  0  0  0  0  0  0  0  0
   64.7102   32.9176   46.2396 H   0  0  0  0  0  0  0  0  0  0  0  0
   62.8719   34.4516   45.5361 H   0  0  0  0  0  0  0  0  0  0  0  0
   60.7437   34.5221   46.8204 H   0  0  0  0  0  0  0  0  0  0  0  0
   59.4411   30.4144   50.3109 H   0  0  0  0  0  0  0  0  0  0  0  0
   59.6971   27.9875   49.8130 H   0  0  0  0  0  0  0  0  0  0  0  0
   58.5971   30.2875   44.2127 H   0  0  0  0  0  0  0  0  0  0  0  0
   57.9348   28.8015   43.4186 H   0  0  0  0  0  0  0  0  0  0  0  0
   56.2519   32.8594   46.8040 H   0  0  0  0  0  0  0  0  0  0  0  0
   57.8152   34.7619   47.2185 H   0  0  0  0  0  0  0  0  0  0  0  0
   59.7272   34.0341   43.4054 H   0  0  0  0  0  0  0  0  0  0  0  0
   58.1740   32.1258   42.9938 H   0  0  0  0  0  0  0  0  0  0  0  0
   58.4758   31.1798   46.1669 H   0  0  0  0  0  0  0  0  0  0  0  0
  1  2  1  0
  2  3  2  0
  3  4  1  0
  4  5  2  0
  5  6  1  0
  6  7  2  0
  7  8  1  0
  8  9  2  0
  8 10  1  0
 10 11  1  0
 11 12  2  0
 12 13  1  0
 13 14  2  0
 14 15  1  0
 15 16  1  0
 16 17  2  0
 16 18  1  0
 18 19  2  0
 18 20  1  0
 20 21  1  0
 21 22  1  0
 22 23  2  0
 22 24  1  0
 24 25  1  0
 25 26  2  0
 26 27  1  0
 27 28  2  0
 28 29  1  0
 28 30  1  0
 30 31  2  0
 20 32  1  0
 32 33  2  0
  7  2  1  0
 33 11  1  0
 32 14  1  0
 31 25  1  0
  1 34  1  0
  1 35  1  0
  1 36  1  0
  3 37  1  0
  4 38  1  0
  5 39  1  0
  6 40  1  0
 12 41  1  0
 13 42  1  0
 21 43  1  0
 21 44  1  0
 26 45  1  0
 27 46  1  0
 30 47  1  0
 31 48  1  0
 33 49  1  0
M  CHG  3  10  -1  15  -1  24  -1
M  END
>  <UniqueID>  (82) 
80

>  <SMILES>  (82) 
Cc1ccccc1C(=O)[N-]c1ccc2[n-]c(=O)c(=O)n(CC(=O)[N-]c3ccc(F)cc3)c2c1

>  <Energy>  (82) 
75.83203358981437

>  <Genealogy>  (82) 
Cc1ccccc1C(=O)[N-]c1ccc2[n-]c(=O)c(=O)n(CC(=O)[N-]c3ccc(F)cc3)c2c1 (protonated)
Cc1ccccc1C(=O)[N-]c1ccc2[n-]c(=O)c(=O)n(CC(=O)[N-]c3ccc(F)cc3)c2c1 (3D coordinates assigned)
Cc1ccccc1C(=O)[N-]c1ccc2[n-]c(=O)c(=O)n(CC(=O)[N-]c3ccc(F)cc3)c2c1 (optimized conformer: 75.83203358981437 kcal/mol)

>  <smiles>  (82) 
Cc1ccccc1C(=O)Nc1ccc2[nH]c(=O)c(=O)n(CC(=O)Nc3ccc(F)cc3)c2c1

>  <score_type>  (82) 
oracle

>  <origin>  (82) 
adg

>  <m_score__min__energy>  (82) 
-13.130000000000001

>  <m_primary>  (82) 
energy

$$$$
82:0
     RDKit          3D

 42 44  0  0  0  0  0  0  0  0999 V2000
   54.5360   29.3430   45.2500 H   0  0  0  0  0  0  0  0  0  0  0  0
   55.4760   29.0560   44.8970 N   0  0  0  0  0  0  0  0  0  0  0  0
   56.4070   30.0220   44.4200 C   0  0  0  0  0  0  0  0  0  0  0  0
   56.1180   30.7280   43.4150 O   0  0  0  0  0  0  0  0  0  0  0  0
   57.7270   30.1970   45.1070 C   0  0  0  0  0  0  0  0  0  0  0  0
   57.6715   29.7550   46.1127 H   0  0  0  0  0  0  0  0  0  0  0  0
   58.5040   29.6959   44.5109 H   0  0  0  0  0  0  0  0  0  0  0  0
   58.0780   31.6590   45.2280 C   0  0  0  0  0  0  0  0  0  0  0  0
   58.1630   32.4500   44.0700 C   0  0  0  0  0  0  0  0  0  0  0  0
   57.9852   31.9972   43.0834 H   0  0  0  0  0  0  0  0  0  0  0  0
   58.4730   33.8120   44.1660 C   0  0  0  0  0  0  0  0  0  0  0  0
   58.5370   34.4246   43.2546 H   0  0  0  0  0  0  0  0  0  0  0  0
   58.7020   34.3980   45.4180 C   0  0  0  0  0  0  0  0  0  0  0  0
   58.9584   35.4654   45.4882 H   0  0  0  0  0  0  0  0  0  0  0  0
   58.6040   33.6240   46.5770 C   0  0  0  0  0  0  0  0  0  0  0  0
   58.7806   34.0845   47.5602 H   0  0  0  0  0  0  0  0  0  0  0  0
   58.2810   32.2610   46.4910 C   0  0  0  0  0  0  0  0  0  0  0  0
   58.1640   31.5130   47.6640 O   0  0  0  0  0  0  0  0  0  0  0  0
   59.2590   30.9600   48.3460 C   0  0  0  0  0  0  0  0  0  0  0  0
   60.2160   31.7600   49.0000 C   0  0  0  0  0  0  0  0  0  0  0  0
   60.1240   32.8559   48.9767 H   0  0  0  0  0  0  0  0  0  0  0  0
   61.2800   31.1650   49.6770 C   0  0  0  0  0  0  0  0  0  0  0  0
   62.0239   31.7934   50.1886 H   0  0  0  0  0  0  0  0  0  0  0  0
   61.4050   29.7720   49.7080 C   0  0  0  0  0  0  0  0  0  0  0  0
   62.2483   29.3115   50.2435 H   0  0  0  0  0  0  0  0  0  0  0  0
   60.4610   28.9560   49.0600 C   0  0  0  0  0  0  0  0  0  0  0  0
   60.5850   27.4780   49.1050 C   0  0  0  0  0  0  0  0  0  0  0  0
   60.9530   26.9130   50.1710 O   0  0  0  0  0  0  0  0  0  0  0  0
   60.3620   26.7070   47.9110 N   0  0  0  0  0  0  0  0  0  0  0  0
   59.3900   26.7980   47.0430 C   0  0  0  0  0  0  0  0  0  0  0  0
   58.0420   26.5220   47.3570 C   0  0  0  0  0  0  0  0  0  0  0  0
   57.7669   26.1891   48.3687 H   0  0  0  0  0  0  0  0  0  0  0  0
   57.0580   26.6740   46.3750 C   0  0  0  0  0  0  0  0  0  0  0  0
   56.0081   26.4491   46.6139 H   0  0  0  0  0  0  0  0  0  0  0  0
   57.3910   27.0980   45.1270 N   0  0  0  0  0  0  0  0  0  0  0  0
   56.6420   27.2190   44.4080 H   0  0  0  0  0  0  0  0  0  0  0  0
   58.6810   27.3830   44.7990 C   0  0  0  0  0  0  0  0  0  0  0  0
   58.9242   27.7289   43.7835 H   0  0  0  0  0  0  0  0  0  0  0  0
   59.6980   27.2380   45.7470 C   0  0  0  0  0  0  0  0  0  0  0  0
   60.9810   27.5270   45.4040 F   0  0  0  0  0  0  0  0  0  0  0  0
   59.3900   29.5660   48.3780 C   0  0  0  0  0  0  0  0  0  0  0  0
   58.6467   28.9391   47.8637 H   0  0  0  0  0  0  0  0  0  0  0  0
  1  2  1  0
  2  3  1  0
  3  4  2  0
  3  5  1  0
  5  6  1  0
  5  7  1  0
  5  8  1  0
  8  9  2  0
  9 10  1  0
  9 11  1  0
 11 12  1  0
 11 13  2  0
 13 14  1  0
 13 15  1  0
 15 16  1  0
 15 17  2  0
 17 18  1  0
 18 19  1  0
 19 20  2  0
 20 21  1  0
 20 22  1  0
 22 23  1  0
 22 24  2  0
 24 25  1  0
 24 26  1  0
 26 27  1  0
 27 28  2  0
 27 29  1  0
 29 30  2  0
 30 31  1  0
 31 32  1  0
 31 33  2  0
 33 34  1  0
 33 35  1  0
 35 36  1  0
 35 37  1  0
 37 38  1  0
 37 39  2  0
 39 40  1  0
 26 41  2  0
 41 42  1  0
 17  8  1  0
 41 19  1  0
 39 30  1  0
M  CHG  1   2  -1
M  END
>  <UniqueID>  (83) 
81

>  <SMILES>  (83) 
[NH-]C(=O)Cc1ccccc1Oc1cccc(C(=O)/N=c2\cc[nH]cc2F)c1

>  <Energy>  (83) 
59.72920177103763

>  <Genealogy>  (83) 
[NH-]C(=O)Cc1ccccc1Oc1cccc(C(=O)N=c2cc[nH]cc2F)c1 (protonated)
[NH-]C(=O)Cc1ccccc1Oc1cccc(C(=O)/N=c2\cc[nH]cc2F)c1 (cis-trans isomerization)
[NH-]C(=O)Cc1ccccc1Oc1cccc(C(=O)/N=c2\cc[nH]cc2F)c1 (3D coordinates assigned)
[NH-]C(=O)Cc1ccccc1Oc1cccc(C(=O)/N=c2\cc[nH]cc2F)c1 (optimized conformer: 59.72920177103763 kcal/mol)

>  <smiles>  (83) 
NC(=O)Cc1ccccc1Oc1cccc(C(=O)N=c2cc[nH]cc2F)c1

>  <score_type>  (83) 
oracle

>  <origin>  (83) 
adg

>  <m_score__min__energy>  (83) 
-12.279999999999999

>  <m_primary>  (83) 
energy

$$$$
83:0
     RDKit          3D

 44 46  0  0  0  0  0  0  0  0999 V2000
   55.4740   28.9550   55.0335 H   0  0  0  0  0  0  0  0  0  0  0  0
   55.3980   29.4690   54.0640 C   0  0  0  0  0  0  0  0  0  0  0  0
   56.4900   30.0750   53.5310 N   0  0  0  0  0  0  0  0  0  0  0  0
   56.4420   30.7300   52.3340 C   0  0  0  0  0  0  0  0  0  0  0  0
   57.5040   31.2820   51.8240 N   0  0  0  0  0  0  0  0  0  0  0  0
   58.1640   30.9010   50.6090 C   0  0  0  0  0  0  0  0  0  0  0  0
   58.6250   29.7330   50.5090 O   0  0  0  0  0  0  0  0  0  0  0  0
   58.2480   31.7990   49.4910 N   0  0  0  0  0  0  0  0  0  0  0  0
   57.6420   32.6500   49.4770 H   0  0  0  0  0  0  0  0  0  0  0  0
   59.0980   31.5010   48.3400 C   0  0  0  0  0  0  0  0  0  0  0  0
   58.7636   30.5608   47.8773 H   0  0  0  0  0  0  0  0  0  0  0  0
   60.1391   31.4070   48.6825 H   0  0  0  0  0  0  0  0  0  0  0  0
   59.0190   32.6140   47.3180 C   0  0  0  0  0  0  0  0  0  0  0  0
   59.4440   33.9000   47.6900 C   0  0  0  0  0  0  0  0  0  0  0  0
   59.8390   34.0716   48.7022 H   0  0  0  0  0  0  0  0  0  0  0  0
   59.3700   34.9620   46.7880 C   0  0  0  0  0  0  0  0  0  0  0  0
   59.7091   35.9639   47.0900 H   0  0  0  0  0  0  0  0  0  0  0  0
   58.8670   34.7550   45.5050 C   0  0  0  0  0  0  0  0  0  0  0  0
   58.8202   35.5921   44.7930 H   0  0  0  0  0  0  0  0  0  0  0  0
   58.4220   33.4880   45.1200 C   0  0  0  0  0  0  0  0  0  0  0  0
   57.9380   33.3210   43.8620 F   0  0  0  0  0  0  0  0  0  0  0  0
   58.4710   32.4080   46.0250 C   0  0  0  0  0  0  0  0  0  0  0  0
   57.9840   31.0470   45.5910 C   0  0  0  0  0  0  0  0  0  0  0  0
   57.7652   30.4356   46.4788 H   0  0  0  0  0  0  0  0  0  0  0  0
   57.0703   31.1593   44.9889 H   0  0  0  0  0  0  0  0  0  0  0  0
   58.7616   30.5542   44.9889 H   0  0  0  0  0  0  0  0  0  0  0  0
   55.2380   30.7680   51.6200 C   0  0  0  0  0  0  0  0  0  0  0  0
   55.1917   31.2721   50.6434 H   0  0  0  0  0  0  0  0  0  0  0  0
   54.0920   30.1620   52.1530 C   0  0  0  0  0  0  0  0  0  0  0  0
   52.7990   30.1690   51.3830 C   0  0  0  0  0  0  0  0  0  0  0  0
   52.7115   31.1169   50.8318 H   0  0  0  0  0  0  0  0  0  0  0  0
   52.7983   29.3206   50.6829 H   0  0  0  0  0  0  0  0  0  0  0  0
   51.6070   30.0270   52.3320 C   0  0  0  0  0  0  0  0  0  0  0  0
   50.8442   29.3891   51.8617 H   0  0  0  0  0  0  0  0  0  0  0  0
   51.9537   29.5740   53.2725 H   0  0  0  0  0  0  0  0  0  0  0  0
   51.0110   31.3680   52.6320 C   0  0  0  0  0  0  0  0  0  0  0  0
   50.7240   31.8070   53.8700 N   0  0  0  0  0  0  0  0  0  0  0  0
   50.2770   33.0640   53.6570 C   0  0  0  0  0  0  0  0  0  0  0  0
   49.8980   33.8150   54.5920 O   0  0  0  0  0  0  0  0  0  0  0  0
   50.2750   33.4540   52.3640 N   0  0  0  0  0  0  0  0  0  0  0  0
   50.7480   32.3710   51.7300 C   0  0  0  0  0  0  0  0  0  0  0  0
   50.9420   32.3000   50.3550 O   0  0  0  0  0  0  0  0  0  0  0  0
   54.1790   29.4970   53.3840 C   0  0  0  0  0  0  0  0  0  0  0  0
   53.2944   29.0015   53.8105 H   0  0  0  0  0  0  0  0  0  0  0  0
  1  2  1  0
  2  3  1  0
  3  4  1  0
  4  5  2  0
  5  6  1  0
  6  7  2  0
  6  8  1  0
  8  9  1  0
  8 10  1  0
 10 11  1  0
 10 12  1  0
 10 13  1  0
 13 14  2  0
 14 15  1  0
 14 16  1  0
 16 17  1  0
 16 18  2  0
 18 19  1  0
 18 20  1  0
 20 21  1  0
 20 22  2  0
 22 23  1  0
 23 24  1  0
 23 25  1  0
 23 26  1  0
  4 27  1  0
 27 28  1  0
 27 29  2  0
 29 30  1  0
 30 31  1  0
 30 32  1  0
 30 33  1  0
 33 34  1  0
 33 35  1  0
 33 36  1  0
 36 37  1  0
 37 38  1  0
 38 39  2  0
 38 40  1  0
 40 41  1  0
 41 42  1  0
 29 43  1  0
 43 44  1  0
 43  2  2  0
 22 13  1  0
 41 36  2  0
M  CHG  4   3  -1  37  -1  40  -1  42  -1
M  END
>  <UniqueID>  (84) 
82

>  <SMILES>  (84) 
Cc1c(F)cccc1CNC(=O)/N=c1/cc(CCc2[n-]c(=O)[n-]c2[O-])cc[n-]1

>  <Energy>  (84) 
76.73839706693707

>  <Genealogy>  (84) 
Cc1c(F)cccc1CNC(=O)N=c1cc(CCc2[n-]c(=O)[n-]c2[O-])cc[n-]1 (protonated)
Cc1c(F)cccc1CNC(=O)/N=c1/cc(CCc2[n-]c(=O)[n-]c2[O-])cc[n-]1 (cis-trans isomerization)
Cc1c(F)cccc1CNC(=O)/N=c1/cc(CCc2[n-]c(=O)[n-]c2[O-])cc[n-]1 (3D coordinates assigned)
Cc1c(F)cccc1CNC(=O)/N=c1/cc(CCc2[n-]c(=O)[n-]c2[O-])cc[n-]1 (optimized conformer: 76.73839706693707 kcal/mol)

>  <smiles>  (84) 
Cc1c(F)cccc1CNC(=O)N=c1cc(CCc2[nH]c(=O)[nH]c2O)cc[nH]1

>  <score_type>  (84) 
oracle

>  <origin>  (84) 
adg

>  <m_score__min__energy>  (84) 
-18.25

>  <m_primary>  (84) 
energy

$$$$
84:0
     RDKit          3D

 42 43  0  0  0  0  0  0  0  0999 V2000
   59.5670   35.3000   45.6180 C   0  0  0  0  0  0  0  0  0  0  0  0
   59.2230   35.1000   47.0920 C   0  0  0  0  0  0  0  0  0  0  0  0
   60.0930   34.0330   47.7760 C   0  0  0  0  0  0  0  0  0  0  0  0
   59.6230   32.5870   47.5140 C   0  0  0  0  0  0  0  0  0  0  0  0
   59.6930   32.1630   46.0330 C   0  0  0  0  0  0  0  0  0  0  0  0
   58.5610   31.2860   45.6600 N   0  0  0  0  0  0  0  0  0  0  0  0
   57.5000   31.7750   44.9400 C   0  0  0  0  0  0  0  0  0  0  0  0
   57.4870   32.9670   44.5330 O   0  0  0  0  0  0  0  0  0  0  0  0
   56.4380   30.9800   44.6610 N   0  0  0  0  0  0  0  0  0  0  0  0
   56.3710   29.6940   45.0790 C   0  0  0  0  0  0  0  0  0  0  0  0
   55.2120   28.9670   44.8000 O   0  0  0  0  0  0  0  0  0  0  0  0
   57.4460   29.1470   45.8010 C   0  0  0  0  0  0  0  0  0  0  0  0
   57.4090   27.7600   46.3220 C   0  0  0  0  0  0  0  0  0  0  0  0
   58.0660   27.4680   47.3560 O   0  0  0  0  0  0  0  0  0  0  0  0
   56.5760   26.7560   45.7240 N   0  0  0  0  0  0  0  0  0  0  0  0
   56.9250   25.3740   45.5370 C   0  0  0  0  0  0  0  0  0  0  0  0
   58.2780   24.9870   45.5060 C   0  0  0  0  0  0  0  0  0  0  0  0
   58.6330   23.6560   45.2940 C   0  0  0  0  0  0  0  0  0  0  0  0
   57.6440   22.6880   45.1330 C   0  0  0  0  0  0  0  0  0  0  0  0
   56.2970   23.0460   45.1950 C   0  0  0  0  0  0  0  0  0  0  0  0
   55.9130   24.3880   45.4050 C   0  0  0  0  0  0  0  0  0  0  0  0
   54.4640   24.7250   45.4530 C   0  0  0  0  0  0  0  0  0  0  0  0
   53.5980   23.8190   45.3310 O   0  0  0  0  0  0  0  0  0  0  0  0
   54.0330   26.0340   45.6310 O   0  0  0  0  0  0  0  0  0  0  0  0
   58.5610   29.9700   46.0530 C   0  0  0  0  0  0  0  0  0  0  0  0
   59.5690   29.4850   46.6400 O   0  0  0  0  0  0  0  0  0  0  0  0
   60.5152   35.8513   45.5343 H   0  0  0  0  0  0  0  0  0  0  0  0
   59.6682   34.3200   45.1289 H   0  0  0  0  0  0  0  0  0  0  0  0
   58.7654   35.8729   45.1289 H   0  0  0  0  0  0  0  0  0  0  0  0
   59.3645   36.0561   47.6172 H   0  0  0  0  0  0  0  0  0  0  0  0
   58.1803   34.7530   47.1408 H   0  0  0  0  0  0  0  0  0  0  0  0
   61.1236   34.1356   47.4053 H   0  0  0  0  0  0  0  0  0  0  0  0
   60.0175   34.2037   48.8600 H   0  0  0  0  0  0  0  0  0  0  0  0
   60.2580   31.9056   48.0992 H   0  0  0  0  0  0  0  0  0  0  0  0
   58.5645   32.5382   47.8092 H   0  0  0  0  0  0  0  0  0  0  0  0
   59.6683   33.0642   45.4028 H   0  0  0  0  0  0  0  0  0  0  0  0
   60.6263   31.6009   45.8813 H   0  0  0  0  0  0  0  0  0  0  0  0
   55.1400   27.9670   44.9310 H   0  0  0  0  0  0  0  0  0  0  0  0
   59.0636   25.7432   45.6507 H   0  0  0  0  0  0  0  0  0  0  0  0
   59.6943   23.3697   45.2538 H   0  0  0  0  0  0  0  0  0  0  0  0
   57.9257   21.6394   44.9567 H   0  0  0  0  0  0  0  0  0  0  0  0
   55.5239   22.2722   45.0787 H   0  0  0  0  0  0  0  0  0  0  0  0
  1  2  1  0
  2  3  1  0
  3  4  1  0
  4  5  1  0
  5  6  1  0
  6  7  1  0
  7  8  2  0
  7  9  1  0
  9 10  1  0
 10 11  1  0
 10 12  2  0
 12 13  1  0
 13 14  2  0
 13 15  1  0
 15 16  1  0
 16 17  2  0
 17 18  1  0
 18 19  2  0
 19 20  1  0
 20 21  2  0
 21 22  1  0
 22 23  2  0
 22 24  1  0
 12 25  1  0
 25 26  2  0
 25  6  1  0
 21 16  1  0
  1 27  1  0
  1 28  1  0
  1 29  1  0
  2 30  1  0
  2 31  1  0
  3 32  1  0
  3 33  1  0
  4 34  1  0
  4 35  1  0
  5 36  1  0
  5 37  1  0
 11 38  1  0
 17 39  1  0
 18 40  1  0
 19 41  1  0
 20 42  1  0
M  CHG  3   9  -1  15  -1  24  -1
M  END
>  <UniqueID>  (85) 
83

>  <SMILES>  (85) 
CCCCCn1c(=O)[n-]c(O)c(C(=O)[N-]c2ccccc2C(=O)[O-])c1=O

>  <Energy>  (85) 
54.703130524671096

>  <Genealogy>  (85) 
CCCCCn1c(=O)[n-]c(O)c(C(=O)[N-]c2ccccc2C(=O)[O-])c1=O (protonated)
CCCCCn1c(=O)[n-]c(O)c(C(=O)[N-]c2ccccc2C(=O)[O-])c1=O (3D coordinates assigned)
CCCCCn1c(=O)[n-]c(O)c(C(=O)[N-]c2ccccc2C(=O)[O-])c1=O (optimized conformer: 54.703130524671096 kcal/mol)

>  <smiles>  (85) 
CCCCCn1c(=O)[nH]c(O)c(C(=O)Nc2ccccc2C(=O)O)c1=O

>  <score_type>  (85) 
oracle

>  <origin>  (85) 
adg

>  <m_score__min__energy>  (85) 
-13.56

>  <m_primary>  (85) 
energy

$$$$
85:0
     RDKit          3D

 55 58  0  0  0  0  0  0  0  0999 V2000
   54.3350   26.6850   46.7560 H   0  0  0  0  0  0  0  0  0  0  0  0
   54.8960   26.3260   45.9900 O   0  0  0  0  0  0  0  0  0  0  0  0
   55.7820   25.2740   46.1950 C   0  0  0  0  0  0  0  0  0  0  0  0
   55.6280   24.3360   47.1460 N   0  0  0  0  0  0  0  0  0  0  0  0
   56.7170   23.5600   46.9750 C   0  0  0  0  0  0  0  0  0  0  0  0
   56.9490   22.5510   47.6900 O   0  0  0  0  0  0  0  0  0  0  0  0
   57.5430   23.9550   45.9840 N   0  0  0  0  0  0  0  0  0  0  0  0
   56.9370   25.0460   45.4820 C   0  0  0  0  0  0  0  0  0  0  0  0
   57.4810   25.9360   44.4320 C   0  0  0  0  0  0  0  0  0  0  0  0
   57.3920   25.5960   43.3896 H   0  0  0  0  0  0  0  0  0  0  0  0
   58.0780   27.1310   44.6430 C   0  0  0  0  0  0  0  0  0  0  0  0
   57.6370   28.3740   44.2110 C   0  0  0  0  0  0  0  0  0  0  0  0
   56.7225   28.5818   43.6362 H   0  0  0  0  0  0  0  0  0  0  0  0
   58.5660   29.2990   44.6410 C   0  0  0  0  0  0  0  0  0  0  0  0
   58.4260   30.7790   44.4570 C   0  0  0  0  0  0  0  0  0  0  0  0
   58.3797   31.2681   45.4412 H   0  0  0  0  0  0  0  0  0  0  0  0
   59.2919   31.1624   43.8973 H   0  0  0  0  0  0  0  0  0  0  0  0
   57.5036   30.9933   43.8973 H   0  0  0  0  0  0  0  0  0  0  0  0
   59.5640   28.6920   45.3260 N   0  0  0  0  0  0  0  0  0  0  0  0
   60.7250   29.3780   45.9160 C   0  0  0  0  0  0  0  0  0  0  0  0
   61.6268   28.7728   45.7412 H   0  0  0  0  0  0  0  0  0  0  0  0
   60.8244   30.3660   45.4427 H   0  0  0  0  0  0  0  0  0  0  0  0
   60.5440   29.5740   47.3980 C   0  0  0  0  0  0  0  0  0  0  0  0
   60.4910   28.4660   48.2570 C   0  0  0  0  0  0  0  0  0  0  0  0
   60.6280   27.4524   47.8522 H   0  0  0  0  0  0  0  0  0  0  0  0
   60.2650   28.6440   49.6240 C   0  0  0  0  0  0  0  0  0  0  0  0
   60.2320   27.7711   50.2926 H   0  0  0  0  0  0  0  0  0  0  0  0
   60.0810   29.9260   50.1440 C   0  0  0  0  0  0  0  0  0  0  0  0
   59.9073   30.0608   51.2218 H   0  0  0  0  0  0  0  0  0  0  0  0
   60.1170   31.0450   49.2950 C   0  0  0  0  0  0  0  0  0  0  0  0
   59.8910   32.3720   49.7820 N   0  0  0  0  0  0  0  0  0  0  0  0
   59.8460   33.7920   48.7850 S   0  0  0  0  0  0  0  0  0  0  0  0
   58.9580   33.5510   47.5960 O   0  0  0  0  0  0  0  0  0  0  0  0
   59.2820   34.9280   49.5920 O   0  0  0  0  0  0  0  0  0  0  0  0
   61.5090   34.2190   48.2500 C   0  0  0  0  0  0  0  0  0  0  0  0
   61.5146   35.2833   47.9721 H   0  0  0  0  0  0  0  0  0  0  0  0
   62.5360   34.0470   49.3910 C   0  0  0  0  0  0  0  0  0  0  0  0
   63.2546   34.8791   49.3570 H   0  0  0  0  0  0  0  0  0  0  0  0
   61.9978   34.0427   50.3503 H   0  0  0  0  0  0  0  0  0  0  0  0
   63.2980   32.7170   49.2490 C   0  0  0  0  0  0  0  0  0  0  0  0
   64.0172   32.6419   50.0779 H   0  0  0  0  0  0  0  0  0  0  0  0
   62.5421   31.9180   49.2647 H   0  0  0  0  0  0  0  0  0  0  0  0
   64.0130   32.5780   48.0240 O   0  0  0  0  0  0  0  0  0  0  0  0
   63.4310   33.2680   46.9240 C   0  0  0  0  0  0  0  0  0  0  0  0
   63.8612   34.2795   46.8824 H   0  0  0  0  0  0  0  0  0  0  0  0
   63.6532   32.6784   46.0223 H   0  0  0  0  0  0  0  0  0  0  0  0
   61.9020   33.3950   47.0100 C   0  0  0  0  0  0  0  0  0  0  0  0
   61.5271   33.8968   46.1058 H   0  0  0  0  0  0  0  0  0  0  0  0
   61.4610   32.3905   47.0904 H   0  0  0  0  0  0  0  0  0  0  0  0
   60.3640   30.8610   47.9290 C   0  0  0  0  0  0  0  0  0  0  0  0
   60.4176   31.7355   47.2639 H   0  0  0  0  0  0  0  0  0  0  0  0
   59.2670   27.3650   45.3490 C   0  0  0  0  0  0  0  0  0  0  0  0
   60.0150   26.4300   45.9630 C   0  0  0  0  0  0  0  0  0  0  0  0
   60.9346   26.7213   46.4917 H   0  0  0  0  0  0  0  0  0  0  0  0
   59.7069   25.3744   45.9362 H   0  0  0  0  0  0  0  0  0  0  0  0
  1  2  1  0
  2  3  1  0
  3  4  1  0
  4  5  1  0
  5  6  2  0
  5  7  1  0
  7  8  1  0
  8  9  1  0
  9 10  1  0
  9 11  2  0
 11 12  1  0
 12 13  1  0
 12 14  2  0
 14 15  1  0
 15 16  1  0
 15 17  1  0
 15 18  1  0
 14 19  1  0
 19 20  1  0
 20 21  1  0
 20 22  1  0
 20 23  1  0
 23 24  2  0
 24 25  1  0
 24 26  1  0
 26 27  1  0
 26 28  2  0
 28 29  1  0
 28 30  1  0
 30 31  1  0
 31 32  1  0
 32 33  2  0
 32 34  2  0
 32 35  1  0
 35 36  1  0
 35 37  1  0
 37 38  1  0
 37 39  1  0
 37 40  1  0
 40 41  1  0
 40 42  1  0
 40 43  1  0
 43 44  1  0
 44 45  1  0
 44 46  1  0
 44 47  1  0
 47 48  1  0
 47 49  1  0
 30 50  2  0
 50 51  1  0
 19 52  1  0
 52 53  2  0
 53 54  1  0
 53 55  1  0
  8  3  2  0
 52 11  1  0
 50 23  1  0
 47 35  1  0
M  CHG  3   4  -1   7  -1  31  -1
M  END
>  <UniqueID>  (86) 
84

>  <SMILES>  (86) 
C=c1/c(=C/c2[n-]c(=O)[n-]c2O)cc(C)n1Cc1cccc([N-]S(=O)(=O)C2CCOCC2)c1

>  <Energy>  (86) 
128.53274690568804

>  <Genealogy>  (86) 
C=c1c(=Cc2[n-]c(=O)[n-]c2O)cc(C)n1Cc1cccc([N-]S(=O)(=O)C2CCOCC2)c1 (protonated)
C=c1/c(=C/c2[n-]c(=O)[n-]c2O)cc(C)n1Cc1cccc([N-]S(=O)(=O)C2CCOCC2)c1 (cis-trans isomerization)
C=c1/c(=C/c2[n-]c(=O)[n-]c2O)cc(C)n1Cc1cccc([N-]S(=O)(=O)C2CCOCC2)c1 (3D coordinates assigned)
C=c1/c(=C/c2[n-]c(=O)[n-]c2O)cc(C)n1Cc1cccc([N-]S(=O)(=O)C2CCOCC2)c1 (nonaromatic ring conformer: 128.53274690568804 kcal/mol)

>  <smiles>  (86) 
C=c1c(=Cc2[nH]c(=O)[nH]c2O)cc(C)n1Cc1cccc(NS(=O)(=O)C2CCOCC2)c1

>  <score_type>  (86) 
oracle

>  <origin>  (86) 
adg

>  <m_score__min__energy>  (86) 
-15.58

>  <m_primary>  (86) 
energy

$$$$
86:0
     RDKit          3D

 37 39  0  0  0  0  0  0  0  0999 V2000
   60.9550   30.6260   49.7200 O   0  0  0  0  0  0  0  0  0  0  0  0
   60.0870   30.7760   48.8200 C   0  0  0  0  0  0  0  0  0  0  0  0
   58.9590   31.7570   49.0300 C   0  0  0  0  0  0  0  0  0  0  0  0
   59.3700   33.2120   48.7590 C   0  0  0  0  0  0  0  0  0  0  0  0
   58.9370   33.6730   47.3920 C   0  0  0  0  0  0  0  0  0  0  0  0
   59.7450   34.5450   46.6450 C   0  0  0  0  0  0  0  0  0  0  0  0
   59.3430   34.9590   45.3710 C   0  0  0  0  0  0  0  0  0  0  0  0
   58.1310   34.5120   44.8390 C   0  0  0  0  0  0  0  0  0  0  0  0
   57.3110   33.6610   45.5860 C   0  0  0  0  0  0  0  0  0  0  0  0
   57.7090   33.2450   46.8590 C   0  0  0  0  0  0  0  0  0  0  0  0
   60.2930   30.1400   47.5530 N   0  0  0  0  0  0  0  0  0  0  0  0
   59.2570   29.5680   46.7500 C   0  0  0  0  0  0  0  0  0  0  0  0
   58.7780   30.2710   45.6390 C   0  0  0  0  0  0  0  0  0  0  0  0
   57.7550   29.7310   44.8550 C   0  0  0  0  0  0  0  0  0  0  0  0
   57.2300   28.4720   45.1580 C   0  0  0  0  0  0  0  0  0  0  0  0
   57.7410   27.7300   46.2340 C   0  0  0  0  0  0  0  0  0  0  0  0
   57.2180   26.3780   46.5110 C   0  0  0  0  0  0  0  0  0  0  0  0
   57.9710   25.3620   46.9710 N   0  0  0  0  0  0  0  0  0  0  0  0
   57.0880   24.3470   47.0910 C   0  0  0  0  0  0  0  0  0  0  0  0
   57.4230   23.2030   47.4950 O   0  0  0  0  0  0  0  0  0  0  0  0
   55.8200   24.6540   46.7500 N   0  0  0  0  0  0  0  0  0  0  0  0
   55.9170   25.9450   46.3900 C   0  0  0  0  0  0  0  0  0  0  0  0
   54.8300   26.7160   45.9990 O   0  0  0  0  0  0  0  0  0  0  0  0
   58.7510   28.2900   47.0360 C   0  0  0  0  0  0  0  0  0  0  0  0
   58.1345   31.4935   48.3512 H   0  0  0  0  0  0  0  0  0  0  0  0
   58.6586   31.6915   50.0862 H   0  0  0  0  0  0  0  0  0  0  0  0
   58.9049   33.8599   49.5166 H   0  0  0  0  0  0  0  0  0  0  0  0
   60.4674   33.2706   48.8066 H   0  0  0  0  0  0  0  0  0  0  0  0
   60.6971   34.9037   47.0630 H   0  0  0  0  0  0  0  0  0  0  0  0
   59.9821   35.6376   44.7870 H   0  0  0  0  0  0  0  0  0  0  0  0
   57.8218   34.8297   43.8323 H   0  0  0  0  0  0  0  0  0  0  0  0
   56.3515   33.3186   45.1711 H   0  0  0  0  0  0  0  0  0  0  0  0
   57.0588   32.5800   47.4463 H   0  0  0  0  0  0  0  0  0  0  0  0
   59.2075   31.2506   45.3823 H   0  0  0  0  0  0  0  0  0  0  0  0
   57.3624   30.2979   43.9980 H   0  0  0  0  0  0  0  0  0  0  0  0
   56.4114   28.0601   44.5496 H   0  0  0  0  0  0  0  0  0  0  0  0
   59.1468   27.7238   47.8920 H   0  0  0  0  0  0  0  0  0  0  0  0
  1  2  2  0
  2  3  1  0
  3  4  1  0
  4  5  1  0
  5  6  2  0
  6  7  1  0
  7  8  2  0
  8  9  1  0
  9 10  2  0
  2 11  1  0
 11 12  1  0
 12 13  2  0
 13 14  1  0
 14 15  2  0
 15 16  1  0
 16 17  1  0
 17 18  1  0
 18 19  1  0
 19 20  2  0
 19 21  1  0
 21 22  1  0
 22 23  1  0
 16 24  2  0
 10  5  1  0
 24 12  1  0
 22 17  2  0
  3 25  1  0
  3 26  1  0
  4 27  1  0
  4 28  1  0
  6 29  1  0
  7 30  1  0
  8 31  1  0
  9 32  1  0
 10 33  1  0
 13 34  1  0
 14 35  1  0
 15 36  1  0
 24 37  1  0
M  CHG  4  11  -1  18  -1  21  -1  23  -1
M  END
>  <UniqueID>  (87) 
85

>  <SMILES>  (87) 
O=C(CCc1ccccc1)[N-]c1cccc(-c2[n-]c(=O)[n-]c2[O-])c1

>  <Energy>  (87) 
72.82220582512919

>  <Genealogy>  (87) 
O=C(CCc1ccccc1)[N-]c1cccc(-c2[n-]c(=O)[n-]c2[O-])c1 (protonated)
O=C(CCc1ccccc1)[N-]c1cccc(-c2[n-]c(=O)[n-]c2[O-])c1 (3D coordinates assigned)
O=C(CCc1ccccc1)[N-]c1cccc(-c2[n-]c(=O)[n-]c2[O-])c1 (optimized conformer: 72.82220582512919 kcal/mol)

>  <smiles>  (87) 
O=C(CCc1ccccc1)Nc1cccc(-c2[nH]c(=O)[nH]c2O)c1

>  <score_type>  (87) 
oracle

>  <origin>  (87) 
adg

>  <m_score__min__energy>  (87) 
-17.68

>  <m_primary>  (87) 
energy

$$$$
87:0
     RDKit          3D

 58 61  0  0  0  0  0  0  0  0999 V2000
   57.9220   32.2970   49.8610 O   0  0  0  0  0  0  0  0  0  0  0  0
   58.8970   31.5000   49.8640 C   0  0  0  0  0  0  0  0  0  0  0  0
   58.7070   30.1050   50.3610 C   0  0  0  0  0  0  0  0  0  0  0  0
   59.8540   29.3040   49.9560 N   0  0  0  0  0  0  0  0  0  0  0  0
   60.2030   29.0560   48.5930 C   0  0  0  0  0  0  0  0  0  0  0  0
   61.2390   29.5840   48.1060 O   0  0  0  0  0  0  0  0  0  0  0  0
   59.3550   28.1710   47.7610 C   0  0  0  0  0  0  0  0  0  0  0  0
   59.2690   26.7980   48.0400 C   0  0  0  0  0  0  0  0  0  0  0  0
   58.4850   25.9610   47.2450 C   0  0  0  0  0  0  0  0  0  0  0  0
   57.7670   26.4770   46.1590 C   0  0  0  0  0  0  0  0  0  0  0  0
   56.9780   25.5860   45.3520 N   0  0  0  0  0  0  0  0  0  0  0  0
   57.3970   25.2670   43.9830 C   0  0  0  0  0  0  0  0  0  0  0  0
   56.6670   24.0180   43.4890 C   0  0  0  0  0  0  0  0  0  0  0  0
   56.6200   23.0660   44.5310 O   0  0  0  0  0  0  0  0  0  0  0  0
   55.6930   23.4650   45.5310 C   0  0  0  0  0  0  0  0  0  0  0  0
   55.7690   24.9660   45.9060 C   0  0  0  0  0  0  0  0  0  0  0  0
   57.8200   27.8570   45.8830 C   0  0  0  0  0  0  0  0  0  0  0  0
   57.0680   28.3880   44.7810 N   0  0  0  0  0  0  0  0  0  0  0  0
   56.4320   29.6710   44.7200 C   0  0  0  0  0  0  0  0  0  0  0  0
   55.1790   29.7270   44.8340 O   0  0  0  0  0  0  0  0  0  0  0  0
   57.2050   30.9270   44.5800 C   0  0  0  0  0  0  0  0  0  0  0  0
   57.3910   31.5040   43.3110 C   0  0  0  0  0  0  0  0  0  0  0  0
   58.1280   32.6840   43.1710 C   0  0  0  0  0  0  0  0  0  0  0  0
   58.6770   33.3040   44.2950 C   0  0  0  0  0  0  0  0  0  0  0  0
   59.3920   34.4460   44.1580 F   0  0  0  0  0  0  0  0  0  0  0  0
   58.4830   32.7480   45.5630 C   0  0  0  0  0  0  0  0  0  0  0  0
   57.7480   31.5690   45.7080 C   0  0  0  0  0  0  0  0  0  0  0  0
   58.6340   28.6910   46.6730 C   0  0  0  0  0  0  0  0  0  0  0  0
   60.1620   31.8990   49.3180 N   0  0  0  0  0  0  0  0  0  0  0  0
   60.3130   33.1030   48.5090 C   0  0  0  0  0  0  0  0  0  0  0  0
   61.6720   33.1230   47.8830 C   0  0  0  0  0  0  0  0  0  0  0  0
   62.0440   33.8550   46.7730 C   0  0  0  0  0  0  0  0  0  0  0  0
   63.3660   33.5350   46.5450 C   0  0  0  0  0  0  0  0  0  0  0  0
   63.7160   32.6290   47.5260 C   0  0  0  0  0  0  0  0  0  0  0  0
   62.6840   32.4020   48.3070 O   0  0  0  0  0  0  0  0  0  0  0  0
   58.6284   30.1106   51.4582 H   0  0  0  0  0  0  0  0  0  0  0  0
   57.7849   29.6792   49.9385 H   0  0  0  0  0  0  0  0  0  0  0  0
   59.8240   26.3785   48.8921 H   0  0  0  0  0  0  0  0  0  0  0  0
   58.4305   24.8864   47.4734 H   0  0  0  0  0  0  0  0  0  0  0  0
   57.1579   26.1135   43.3225 H   0  0  0  0  0  0  0  0  0  0  0  0
   58.4808   25.0791   43.9722 H   0  0  0  0  0  0  0  0  0  0  0  0
   55.6432   24.2850   43.1879 H   0  0  0  0  0  0  0  0  0  0  0  0
   57.2007   23.5949   42.6252 H   0  0  0  0  0  0  0  0  0  0  0  0
   54.6778   23.2521   45.1648 H   0  0  0  0  0  0  0  0  0  0  0  0
   55.9461   22.8994   46.4398 H   0  0  0  0  0  0  0  0  0  0  0  0
   54.8841   25.4821   45.5052 H   0  0  0  0  0  0  0  0  0  0  0  0
   55.8019   25.0521   47.0021 H   0  0  0  0  0  0  0  0  0  0  0  0
   56.9539   31.0240   42.4230 H   0  0  0  0  0  0  0  0  0  0  0  0
   58.2754   33.1244   42.1739 H   0  0  0  0  0  0  0  0  0  0  0  0
   58.9104   33.2404   46.4490 H   0  0  0  0  0  0  0  0  0  0  0  0
   57.5930   31.1404   46.7091 H   0  0  0  0  0  0  0  0  0  0  0  0
   58.7064   29.7626   46.4355 H   0  0  0  0  0  0  0  0  0  0  0  0
   60.9840   31.2650   49.4260 H   0  0  0  0  0  0  0  0  0  0  0  0
   59.5468   33.1117   47.7198 H   0  0  0  0  0  0  0  0  0  0  0  0
   60.1939   33.9894   49.1494 H   0  0  0  0  0  0  0  0  0  0  0  0
   61.4174   34.5480   46.1923 H   0  0  0  0  0  0  0  0  0  0  0  0
   64.0113   33.9233   45.7433 H   0  0  0  0  0  0  0  0  0  0  0  0
   64.7082   32.1672   47.6370 H   0  0  0  0  0  0  0  0  0  0  0  0
  1  2  2  0
  2  3  1  0
  3  4  1  0
  4  5  1  0
  5  6  2  0
  5  7  1  0
  7  8  2  0
  8  9  1  0
  9 10  2  0
 10 11  1  0
 11 12  1  0
 12 13  1  0
 13 14  1  0
 14 15  1  0
 15 16  1  0
 10 17  1  0
 17 18  1  0
 18 19  1  0
 19 20  2  0
 19 21  1  0
 21 22  2  0
 22 23  1  0
 23 24  2  0
 24 25  1  0
 24 26  1  0
 26 27  2  0
 17 28  2  0
  2 29  1  0
 29 30  1  0
 30 31  1  0
 31 32  2  0
 32 33  1  0
 33 34  2  0
 34 35  1  0
 28  7  1  0
 35 31  1  0
 16 11  1  0
 27 21  1  0
  3 36  1  0
  3 37  1  0
  8 38  1  0
  9 39  1  0
 12 40  1  0
 12 41  1  0
 13 42  1  0
 13 43  1  0
 15 44  1  0
 15 45  1  0
 16 46  1  0
 16 47  1  0
 22 48  1  0
 23 49  1  0
 26 50  1  0
 27 51  1  0
 28 52  1  0
 29 53  1  0
 30 54  1  0
 30 55  1  0
 32 56  1  0
 33 57  1  0
 34 58  1  0
M  CHG  2   4  -1  18  -1
M  END
>  <UniqueID>  (88) 
86

>  <SMILES>  (88) 
O=C(C[N-]C(=O)c1ccc(N2CCOCC2)c([N-]C(=O)c2ccc(F)cc2)c1)NCc1ccco1

>  <Energy>  (88) 
99.50271179540381

>  <Genealogy>  (88) 
O=C(C[N-]C(=O)c1ccc(N2CCOCC2)c([N-]C(=O)c2ccc(F)cc2)c1)NCc1ccco1 (protonated)
O=C(C[N-]C(=O)c1ccc(N2CCOCC2)c([N-]C(=O)c2ccc(F)cc2)c1)NCc1ccco1 (3D coordinates assigned)
O=C(C[N-]C(=O)c1ccc(N2CCOCC2)c([N-]C(=O)c2ccc(F)cc2)c1)NCc1ccco1 (nonaromatic ring conformer: 99.50271179540381 kcal/mol)

>  <smiles>  (88) 
O=C(CNC(=O)c1ccc(N2CCOCC2)c(NC(=O)c2ccc(F)cc2)c1)NCc1ccco1

>  <score_type>  (88) 
oracle

>  <origin>  (88) 
adg

>  <m_score__min__energy>  (88) 
-10.779999999999999

>  <m_primary>  (88) 
energy

$$$$
88:0
     RDKit          3D

 41 43  0  0  0  0  0  0  0  0999 V2000
   60.4172   27.9176   46.3127 H   0  0  0  0  0  0  0  0  0  0  0  0
   59.3740   27.9460   45.9650 C   0  0  0  0  0  0  0  0  0  0  0  0
   58.8980   29.0680   45.2830 C   0  0  0  0  0  0  0  0  0  0  0  0
   59.5692   29.9193   45.0964 H   0  0  0  0  0  0  0  0  0  0  0  0
   57.5660   29.1170   44.8330 C   0  0  0  0  0  0  0  0  0  0  0  0
   57.0550   30.3100   44.1150 C   0  0  0  0  0  0  0  0  0  0  0  0
   57.0410   30.3180   42.8530 O   0  0  0  0  0  0  0  0  0  0  0  0
   56.6410   31.4670   44.8600 N   0  0  0  0  0  0  0  0  0  0  0  0
   57.3320   32.5340   45.1490 C   0  0  0  0  0  0  0  0  0  0  0  0
   57.7730   32.9310   46.7220 S   0  0  0  0  0  0  0  0  0  0  0  0
   58.5380   34.3550   46.2490 C   0  0  0  0  0  0  0  0  0  0  0  0
   59.2840   35.2780   47.1580 C   0  0  0  0  0  0  0  0  0  0  0  0
   59.5837   36.1762   46.5982 H   0  0  0  0  0  0  0  0  0  0  0  0
   58.6323   35.5604   47.9980 H   0  0  0  0  0  0  0  0  0  0  0  0
   60.5100   34.5950   47.6950 C   0  0  0  0  0  0  0  0  0  0  0  0
   61.4660   34.0600   46.8140 C   0  0  0  0  0  0  0  0  0  0  0  0
   61.3297   34.1659   45.7276 H   0  0  0  0  0  0  0  0  0  0  0  0
   62.5890   33.3940   47.3130 C   0  0  0  0  0  0  0  0  0  0  0  0
   63.3380   32.9848   46.6191 H   0  0  0  0  0  0  0  0  0  0  0  0
   62.7620   33.2470   48.6930 C   0  0  0  0  0  0  0  0  0  0  0  0
   64.2950   32.3340   49.3730 Br  0  0  0  0  0  0  0  0  0  0  0  0
   61.8080   33.7660   49.5750 C   0  0  0  0  0  0  0  0  0  0  0  0
   61.9426   33.6490   50.6605 H   0  0  0  0  0  0  0  0  0  0  0  0
   60.6840   34.4330   49.0790 C   0  0  0  0  0  0  0  0  0  0  0  0
   59.9326   34.8327   49.7759 H   0  0  0  0  0  0  0  0  0  0  0  0
   58.4360   34.4770   44.8670 C   0  0  0  0  0  0  0  0  0  0  0  0
   58.8714   35.3199   44.3102 H   0  0  0  0  0  0  0  0  0  0  0  0
   57.7540   33.4690   44.2610 N   0  0  0  0  0  0  0  0  0  0  0  0
   57.5760   33.4700   43.2350 H   0  0  0  0  0  0  0  0  0  0  0  0
   56.7230   28.0160   45.0810 C   0  0  0  0  0  0  0  0  0  0  0  0
   55.6782   28.0411   44.7379 H   0  0  0  0  0  0  0  0  0  0  0  0
   57.2040   26.8890   45.7610 C   0  0  0  0  0  0  0  0  0  0  0  0
   56.1280   25.5310   46.0790 S   0  0  0  0  0  0  0  0  0  0  0  0
   54.6940   25.9710   45.9640 O   0  0  0  0  0  0  0  0  0  0  0  0
   56.3640   25.0150   47.4710 O   0  0  0  0  0  0  0  0  0  0  0  0
   56.4440   24.2380   44.8990 C   0  0  0  0  0  0  0  0  0  0  0  0
   56.6725   23.3032   45.4318 H   0  0  0  0  0  0  0  0  0  0  0  0
   55.5550   24.0924   44.2677 H   0  0  0  0  0  0  0  0  0  0  0  0
   57.2999   24.5189   44.2677 H   0  0  0  0  0  0  0  0  0  0  0  0
   58.5300   26.8600   46.2070 C   0  0  0  0  0  0  0  0  0  0  0  0
   58.9081   25.9806   46.7490 H   0  0  0  0  0  0  0  0  0  0  0  0
  1  2  1  0
  2  3  2  0
  3  4  1  0
  3  5  1  0
  5  6  1  0
  6  7  2  0
  6  8  1  0
  8  9  2  0
  9 10  1  0
 10 11  1  0
 11 12  1  0
 12 13  1  0
 12 14  1  0
 12 15  1  0
 15 16  2  0
 16 17  1  0
 16 18  1  0
 18 19  1  0
 18 20  2  0
 20 21  1  0
 20 22  1  0
 22 23  1  0
 22 24  2  0
 24 25  1  0
 11 26  2  0
 26 27  1  0
 26 28  1  0
 28 29  1  0
  5 30  2  0
 30 31  1  0
 30 32  1  0
 32 33  1  0
 33 34  2  0
 33 35  2  0
 33 36  1  0
 36 37  1  0
 36 38  1  0
 36 39  1  0
 32 40  2  0
 40 41  1  0
 40  2  1  0
 28  9  1  0
 24 15  1  0
M  END
>  <UniqueID>  (89) 
87

>  <SMILES>  (89) 
CS(=O)(=O)c1cccc(C(=O)/N=c2\[nH]cc(Cc3ccc(Br)cc3)s2)c1

>  <Energy>  (89) 
74.40682779819367

>  <Genealogy>  (89) 
CS(=O)(=O)c1cccc(C(=O)/N=c2\[nH]cc(Cc3ccc(Br)cc3)s2)c1 (cis-trans isomerization)
CS(=O)(=O)c1cccc(C(=O)/N=c2\[nH]cc(Cc3ccc(Br)cc3)s2)c1 (3D coordinates assigned)
CS(=O)(=O)c1cccc(C(=O)/N=c2\[nH]cc(Cc3ccc(Br)cc3)s2)c1 (optimized conformer: 74.40682779819367 kcal/mol)

>  <smiles>  (89) 
CS(=O)(=O)c1cccc(C(=O)N=c2[nH]cc(Cc3ccc(Br)cc3)s2)c1

>  <score_type>  (89) 
oracle

>  <origin>  (89) 
adg

>  <m_score__min__energy>  (89) 
-10

>  <m_primary>  (89) 
energy

$$$$
89:0
     RDKit          3D

 50 52  0  0  0  0  0  0  0  0999 V2000
   64.7090   32.2270   49.7270 C   0  0  0  0  0  0  0  0  0  0  0  0
   63.3450   32.7800   49.6130 N   0  0  0  0  0  0  0  0  0  0  0  0
   62.7990   32.9940   48.3680 C   0  0  0  0  0  0  0  0  0  0  0  0
   63.5200   32.6350   47.1730 N   0  0  0  0  0  0  0  0  0  0  0  0
   61.4970   33.5170   48.2590 C   0  0  0  0  0  0  0  0  0  0  0  0
   60.8960   33.8250   46.9430 C   0  0  0  0  0  0  0  0  0  0  0  0
   61.6440   34.2080   46.0020 O   0  0  0  0  0  0  0  0  0  0  0  0
   59.4380   33.6560   46.7430 C   0  0  0  0  0  0  0  0  0  0  0  0
   58.8430   33.3870   45.5730 C   0  0  0  0  0  0  0  0  0  0  0  0
   58.3440   32.0580   45.1830 C   0  0  0  0  0  0  0  0  0  0  0  0
   57.1310   31.9600   44.4840 C   0  0  0  0  0  0  0  0  0  0  0  0
   56.6110   30.7090   44.1450 C   0  0  0  0  0  0  0  0  0  0  0  0
   57.2950   29.5490   44.5090 C   0  0  0  0  0  0  0  0  0  0  0  0
   58.4980   29.6330   45.2160 C   0  0  0  0  0  0  0  0  0  0  0  0
   59.0370   30.8900   45.5630 C   0  0  0  0  0  0  0  0  0  0  0  0
   60.2410   31.0170   46.2780 O   0  0  0  0  0  0  0  0  0  0  0  0
   60.7540   30.0590   47.2050 C   0  0  0  0  0  0  0  0  0  0  0  0
   60.2340   30.3110   48.5960 C   0  0  0  0  0  0  0  0  0  0  0  0
   58.9980   30.9500   48.7850 C   0  0  0  0  0  0  0  0  0  0  0  0
   58.5070   31.1870   50.0730 C   0  0  0  0  0  0  0  0  0  0  0  0
   59.2430   30.7700   51.1850 C   0  0  0  0  0  0  0  0  0  0  0  0
   58.6320   31.0720   52.8020 Cl  0  0  0  0  0  0  0  0  0  0  0  0
   60.4680   30.1120   51.0050 C   0  0  0  0  0  0  0  0  0  0  0  0
   60.9600   29.8780   49.7170 C   0  0  0  0  0  0  0  0  0  0  0  0
   60.7780   33.7810   49.4300 C   0  0  0  0  0  0  0  0  0  0  0  0
   59.5970   34.2210   49.3460 O   0  0  0  0  0  0  0  0  0  0  0  0
   61.3480   33.5680   50.6530 N   0  0  0  0  0  0  0  0  0  0  0  0
   60.5710   33.8230   51.8780 C   0  0  0  0  0  0  0  0  0  0  0  0
   62.6150   33.0550   50.7430 C   0  0  0  0  0  0  0  0  0  0  0  0
   63.1130   32.8280   51.8820 O   0  0  0  0  0  0  0  0  0  0  0  0
   64.9736   32.1197   50.7893 H   0  0  0  0  0  0  0  0  0  0  0  0
   64.7474   31.2423   49.2383 H   0  0  0  0  0  0  0  0  0  0  0  0
   65.4224   32.9069   49.2383 H   0  0  0  0  0  0  0  0  0  0  0  0
   64.5230   32.3580   47.1820 H   0  0  0  0  0  0  0  0  0  0  0  0
   63.0420   32.5740   46.2490 H   0  0  0  0  0  0  0  0  0  0  0  0
   58.7913   33.7598   47.6268 H   0  0  0  0  0  0  0  0  0  0  0  0
   58.7193   34.2130   44.8572 H   0  0  0  0  0  0  0  0  0  0  0  0
   56.5869   32.8734   44.2016 H   0  0  0  0  0  0  0  0  0  0  0  0
   55.6630   30.6384   43.5915 H   0  0  0  0  0  0  0  0  0  0  0  0
   56.8861   28.5643   44.2386 H   0  0  0  0  0  0  0  0  0  0  0  0
   59.0280   28.7130   45.5037 H   0  0  0  0  0  0  0  0  0  0  0  0
   60.4487   29.0518   46.8853 H   0  0  0  0  0  0  0  0  0  0  0  0
   61.8504   30.1457   47.2231 H   0  0  0  0  0  0  0  0  0  0  0  0
   58.4100   31.2674   47.9112 H   0  0  0  0  0  0  0  0  0  0  0  0
   57.5439   31.7004   50.2102 H   0  0  0  0  0  0  0  0  0  0  0  0
   61.0444   29.7785   51.8805 H   0  0  0  0  0  0  0  0  0  0  0  0
   61.9176   29.3537   49.5819 H   0  0  0  0  0  0  0  0  0  0  0  0
   61.1971   33.6175   52.7588 H   0  0  0  0  0  0  0  0  0  0  0  0
   60.2479   34.8743   51.8951 H   0  0  0  0  0  0  0  0  0  0  0  0
   59.6877   33.1676   51.8951 H   0  0  0  0  0  0  0  0  0  0  0  0
  1  2  1  0
  2  3  1  0
  3  4  1  0
  3  5  2  0
  5  6  1  0
  6  7  2  0
  6  8  1  0
  8  9  2  3
  9 10  1  0
 10 11  2  0
 11 12  1  0
 12 13  2  0
 13 14  1  0
 14 15  2  0
 15 16  1  0
 16 17  1  0
 17 18  1  0
 18 19  2  0
 19 20  1  0
 20 21  2  0
 21 22  1  0
 21 23  1  0
 23 24  2  0
  5 25  1  0
 25 26  2  0
 25 27  1  0
 27 28  1  0
 27 29  1  0
 29 30  2  0
 29  2  1  0
 15 10  1  0
 24 18  1  0
  1 31  1  0
  1 32  1  0
  1 33  1  0
  4 34  1  0
  4 35  1  0
  8 36  1  0
  9 37  1  0
 11 38  1  0
 12 39  1  0
 13 40  1  0
 14 41  1  0
 17 42  1  0
 17 43  1  0
 19 44  1  0
 20 45  1  0
 23 46  1  0
 24 47  1  0
 28 48  1  0
 28 49  1  0
 28 50  1  0
M  END
>  <UniqueID>  (90) 
88

>  <SMILES>  (90) 
Cn1c(N)c(C(=O)C=Cc2ccccc2OCc2ccc(Cl)cc2)c(=O)n(C)c1=O

>  <Energy>  (90) 
78.21891493627017

>  <Genealogy>  (90) 
Cn1c(N)c(C(=O)C=Cc2ccccc2OCc2ccc(Cl)cc2)c(=O)n(C)c1=O (3D coordinates assigned)
Cn1c(N)c(C(=O)C=Cc2ccccc2OCc2ccc(Cl)cc2)c(=O)n(C)c1=O (optimized conformer: 78.21891493627017 kcal/mol)

>  <smiles>  (90) 
Cn1c(N)c(C(=O)C=Cc2ccccc2OCc2ccc(Cl)cc2)c(=O)n(C)c1=O

>  <score_type>  (90) 
oracle

>  <origin>  (90) 
adg

>  <m_score__min__energy>  (90) 
-8.3000000000000007

>  <m_primary>  (90) 
energy

$$$$
90:0
     RDKit          3D

 29 30  0  0  0  0  0  0  0  0999 V2000
   55.1450   27.6050   45.4520 H   0  0  0  0  0  0  0  0  0  0  0  0
   55.3650   26.7720   45.9850 O   0  0  0  0  0  0  0  0  0  0  0  0
   56.6360   26.2010   45.9670 C   0  0  0  0  0  0  0  0  0  0  0  0
   56.8630   25.0320   46.7060 C   0  0  0  0  0  0  0  0  0  0  0  0
   56.0274   24.5454   47.2304 H   0  0  0  0  0  0  0  0  0  0  0  0
   58.1410   24.4830   46.7800 C   0  0  0  0  0  0  0  0  0  0  0  0
   58.3188   23.5628   47.3559 H   0  0  0  0  0  0  0  0  0  0  0  0
   59.1900   25.1120   46.1170 C   0  0  0  0  0  0  0  0  0  0  0  0
   60.2075   24.6993   46.1825 H   0  0  0  0  0  0  0  0  0  0  0  0
   58.9590   26.2350   45.3890 N   0  0  0  0  0  0  0  0  0  0  0  0
   57.7220   26.7930   45.2660 C   0  0  0  0  0  0  0  0  0  0  0  0
   57.6210   27.8700   44.5350 N   0  0  0  0  0  0  0  0  0  0  0  0
   57.2970   29.2140   44.9190 C   0  0  0  0  0  0  0  0  0  0  0  0
   56.1250   29.5130   45.2720 O   0  0  0  0  0  0  0  0  0  0  0  0
   58.2930   30.3100   44.6980 C   0  0  0  0  0  0  0  0  0  0  0  0
   58.7459   30.5788   45.6637 H   0  0  0  0  0  0  0  0  0  0  0  0
   59.0524   29.9429   43.9920 H   0  0  0  0  0  0  0  0  0  0  0  0
   57.5190   31.8000   43.9730 S   0  0  0  0  0  0  0  0  0  0  0  0
   58.2070   32.9440   45.1750 C   0  0  0  0  0  0  0  0  0  0  0  0
   58.0590   32.6980   46.5460 C   0  0  0  0  0  0  0  0  0  0  0  0
   57.5203   31.8023   46.8890 H   0  0  0  0  0  0  0  0  0  0  0  0
   58.5960   33.5910   47.4790 C   0  0  0  0  0  0  0  0  0  0  0  0
   58.4835   33.3943   48.5554 H   0  0  0  0  0  0  0  0  0  0  0  0
   59.2760   34.7340   47.0450 C   0  0  0  0  0  0  0  0  0  0  0  0
   59.7025   35.4330   47.7795 H   0  0  0  0  0  0  0  0  0  0  0  0
   59.4130   34.9870   45.6760 C   0  0  0  0  0  0  0  0  0  0  0  0
   59.9443   35.8874   45.3339 H   0  0  0  0  0  0  0  0  0  0  0  0
   58.8750   34.0960   44.7420 C   0  0  0  0  0  0  0  0  0  0  0  0
   58.9767   34.3003   43.6659 H   0  0  0  0  0  0  0  0  0  0  0  0
  1  2  1  0
  2  3  1  0
  3  4  2  0
  4  5  1  0
  4  6  1  0
  6  7  1  0
  6  8  2  0
  8  9  1  0
  8 10  1  0
 10 11  1  0
 11 12  2  0
 12 13  1  0
 13 14  2  0
 13 15  1  0
 15 16  1  0
 15 17  1  0
 15 18  1  0
 18 19  1  0
 19 20  2  0
 20 21  1  0
 20 22  1  0
 22 23  1  0
 22 24  2  0
 24 25  1  0
 24 26  1  0
 26 27  1  0
 26 28  2  0
 28 29  1  0
 11  3  1  0
 28 19  1  0
M  CHG  1  10  -1
M  END
>  <UniqueID>  (91) 
89

>  <SMILES>  (91) 
O=C(CSc1ccccc1)/N=c1/[n-]cccc1O

>  <Energy>  (91) 
35.75476835969608

>  <Genealogy>  (91) 
O=C(CSc1ccccc1)N=c1[n-]cccc1O (protonated)
O=C(CSc1ccccc1)/N=c1/[n-]cccc1O (cis-trans isomerization)
O=C(CSc1ccccc1)/N=c1/[n-]cccc1O (3D coordinates assigned)
O=C(CSc1ccccc1)/N=c1/[n-]cccc1O (optimized conformer: 35.75476835969608 kcal/mol)

>  <smiles>  (91) 
O=C(CSc1ccccc1)N=c1[nH]cccc1O

>  <score_type>  (91) 
oracle

>  <origin>  (91) 
adg

>  <m_score__min__energy>  (91) 
-9.5899999999999999

>  <m_primary>  (91) 
energy

$$$$
91:0
     RDKit          3D

 53 56  0  0  0  0  0  0  0  0999 V2000
   57.9615   35.4415   44.1080 H   0  0  0  0  0  0  0  0  0  0  0  0
   58.0920   34.6150   44.8220 C   0  0  0  0  0  0  0  0  0  0  0  0
   58.4660   34.8760   46.1000 N   0  0  0  0  0  0  0  0  0  0  0  0
   58.6370   33.8700   46.9980 C   0  0  0  0  0  0  0  0  0  0  0  0
   59.0000   34.1550   48.2130 N   0  0  0  0  0  0  0  0  0  0  0  0
   60.2820   33.7830   48.8250 C   0  0  0  0  0  0  0  0  0  0  0  0
   60.9953   34.6160   48.7395 H   0  0  0  0  0  0  0  0  0  0  0  0
   60.8750   32.5640   48.0730 C   0  0  0  0  0  0  0  0  0  0  0  0
   61.8927   32.8230   47.7456 H   0  0  0  0  0  0  0  0  0  0  0  0
   60.1967   32.3516   47.2335 H   0  0  0  0  0  0  0  0  0  0  0  0
   60.9520   31.2780   48.9130 C   0  0  0  0  0  0  0  0  0  0  0  0
   61.8289   31.3329   49.5748 H   0  0  0  0  0  0  0  0  0  0  0  0
   61.0362   30.4191   48.2309 H   0  0  0  0  0  0  0  0  0  0  0  0
   59.7400   31.1080   49.7330 N   0  0  0  0  0  0  0  0  0  0  0  0
   59.0990   29.8220   49.8930 C   0  0  0  0  0  0  0  0  0  0  0  0
   58.0650   29.7260   50.6110 O   0  0  0  0  0  0  0  0  0  0  0  0
   59.6130   28.5830   49.2190 C   0  0  0  0  0  0  0  0  0  0  0  0
   59.9170   27.8503   49.9811 H   0  0  0  0  0  0  0  0  0  0  0  0
   58.8197   28.1513   48.5910 H   0  0  0  0  0  0  0  0  0  0  0  0
   60.4789   28.8396   48.5910 H   0  0  0  0  0  0  0  0  0  0  0  0
   59.2540   32.2360   50.5440 C   0  0  0  0  0  0  0  0  0  0  0  0
   59.3013   31.9561   51.6067 H   0  0  0  0  0  0  0  0  0  0  0  0
   58.2209   32.4559   50.2369 H   0  0  0  0  0  0  0  0  0  0  0  0
   60.0930   33.5010   50.3270 C   0  0  0  0  0  0  0  0  0  0  0  0
   61.0791   33.3639   50.7947 H   0  0  0  0  0  0  0  0  0  0  0  0
   59.5677   34.3538   50.7817 H   0  0  0  0  0  0  0  0  0  0  0  0
   58.4240   32.5810   46.6140 N   0  0  0  0  0  0  0  0  0  0  0  0
   58.0400   32.2650   45.3470 C   0  0  0  0  0  0  0  0  0  0  0  0
   57.8340   30.8410   44.9830 C   0  0  0  0  0  0  0  0  0  0  0  0
   57.1280   30.5150   43.8120 C   0  0  0  0  0  0  0  0  0  0  0  0
   56.7274   31.3178   43.1755 H   0  0  0  0  0  0  0  0  0  0  0  0
   56.9310   29.1820   43.4500 C   0  0  0  0  0  0  0  0  0  0  0  0
   56.3715   28.9401   42.5343 H   0  0  0  0  0  0  0  0  0  0  0  0
   57.4410   28.1540   44.2450 C   0  0  0  0  0  0  0  0  0  0  0  0
   57.2801   27.1058   43.9526 H   0  0  0  0  0  0  0  0  0  0  0  0
   58.1590   28.4500   45.4170 C   0  0  0  0  0  0  0  0  0  0  0  0
   58.7120   27.3590   46.2540 C   0  0  0  0  0  0  0  0  0  0  0  0
   59.9620   27.2330   46.3750 O   0  0  0  0  0  0  0  0  0  0  0  0
   57.8350   26.3760   46.8280 N   0  0  0  0  0  0  0  0  0  0  0  0
   57.1680   25.4220   46.2390 C   0  0  0  0  0  0  0  0  0  0  0  0
   57.8340   24.2680   45.9580 N   0  0  0  0  0  0  0  0  0  0  0  0
   57.2380   23.2010   45.3620 C   0  0  0  0  0  0  0  0  0  0  0  0
   57.8181   22.2884   45.1606 H   0  0  0  0  0  0  0  0  0  0  0  0
   55.8940   23.2640   45.0070 C   0  0  0  0  0  0  0  0  0  0  0  0
   55.4005   22.3981   44.5415 H   0  0  0  0  0  0  0  0  0  0  0  0
   55.1800   24.4370   45.2480 C   0  0  0  0  0  0  0  0  0  0  0  0
   54.1185   24.5001   44.9664 H   0  0  0  0  0  0  0  0  0  0  0  0
   55.8080   25.5330   45.8460 C   0  0  0  0  0  0  0  0  0  0  0  0
   55.0850   26.7120   45.9820 O   0  0  0  0  0  0  0  0  0  0  0  0
   58.3570   29.7990   45.7750 C   0  0  0  0  0  0  0  0  0  0  0  0
   58.9269   30.0415   46.6840 H   0  0  0  0  0  0  0  0  0  0  0  0
   57.8730   33.3000   44.4130 C   0  0  0  0  0  0  0  0  0  0  0  0
   57.5749   33.0776   43.3778 H   0  0  0  0  0  0  0  0  0  0  0  0
  1  2  1  0
  2  3  1  0
  3  4  1  0
  4  5  2  0
  5  6  1  0
  6  7  1  0
  6  8  1  0
  8  9  1  0
  8 10  1  0
  8 11  1  0
 11 12  1  0
 11 13  1  0
 11 14  1  0
 14 15  1  0
 15 16  2  0
 15 17  1  0
 17 18  1  0
 17 19  1  0
 17 20  1  0
 14 21  1  0
 21 22  1  0
 21 23  1  0
 21 24  1  0
 24 25  1  0
 24 26  1  0
  4 27  1  0
 27 28  2  0
 28 29  1  0
 29 30  2  0
 30 31  1  0
 30 32  1  0
 32 33  1  0
 32 34  2  0
 34 35  1  0
 34 36  1  0
 36 37  1  0
 37 38  2  0
 37 39  1  0
 39 40  2  0
 40 41  1  0
 41 42  1  0
 42 43  1  0
 42 44  2  0
 44 45  1  0
 44 46  1  0
 46 47  1  0
 46 48  2  0
 48 49  1  0
 36 50  2  0
 50 51  1  0
 28 52  1  0
 52 53  1  0
 52  2  2  0
 24  6  1  0
 50 29  1  0
 48 40  1  0
M  CHG  3   3  -1  41  -1  49  -1
M  END
>  <UniqueID>  (92) 
90

>  <SMILES>  (92) 
CC(=O)N1CCC(/N=c2\nc(-c3cccc(C(=O)/N=c4/[n-]cccc4[O-])c3)cc[n-]2)CC1

>  <Energy>  (92) 
76.71665228495407

>  <Genealogy>  (92) 
CC(=O)N1CCC(N=c2nc(-c3cccc(C(=O)N=c4[n-]cccc4[O-])c3)cc[n-]2)CC1 (protonated)
CC(=O)N1CCC(/N=c2\nc(-c3cccc(C(=O)/N=c4/[n-]cccc4[O-])c3)cc[n-]2)CC1 (cis-trans isomerization)
CC(=O)N1CCC(/N=c2\nc(-c3cccc(C(=O)/N=c4/[n-]cccc4[O-])c3)cc[n-]2)CC1 (3D coordinates assigned)
CC(=O)N1CCC(/N=c2\nc(-c3cccc(C(=O)/N=c4/[n-]cccc4[O-])c3)cc[n-]2)CC1 (nonaromatic ring conformer: 76.71665228495407 kcal/mol)

>  <smiles>  (92) 
CC(=O)N1CCC(N=c2nc(-c3cccc(C(=O)N=c4[nH]cccc4O)c3)cc[nH]2)CC1

>  <score_type>  (92) 
oracle

>  <origin>  (92) 
adg

>  <m_score__min__energy>  (92) 
-15.94

>  <m_primary>  (92) 
energy

$$$$
92:0
     RDKit          3D

 45 47  0  0  0  0  0  0  0  0999 V2000
   59.4240   33.5480   52.8290 C   0  0  0  0  0  0  0  0  0  0  0  0
   60.2820   33.8080   51.6800 N   0  0  0  0  0  0  0  0  0  0  0  0
   61.7070   33.8400   51.7920 C   0  0  0  0  0  0  0  0  0  0  0  0
   62.2590   33.6310   52.9070 O   0  0  0  0  0  0  0  0  0  0  0  0
   62.4790   34.0660   50.6460 O   0  0  0  0  0  0  0  0  0  0  0  0
   62.3920   33.2990   49.4760 C   0  0  0  0  0  0  0  0  0  0  0  0
   63.4330   32.4180   49.1820 C   0  0  0  0  0  0  0  0  0  0  0  0
   63.4240   31.6920   47.9960 C   0  0  0  0  0  0  0  0  0  0  0  0
   62.3380   31.7790   47.1250 C   0  0  0  0  0  0  0  0  0  0  0  0
   61.1990   32.5470   47.4590 C   0  0  0  0  0  0  0  0  0  0  0  0
   60.0130   32.6040   46.6560 C   0  0  0  0  0  0  0  0  0  0  0  0
   59.7030   31.7180   45.7420 N   0  0  0  0  0  0  0  0  0  0  0  0
   58.7250   30.6680   45.7460 C   0  0  0  0  0  0  0  0  0  0  0  0
   58.9770   29.5010   46.4740 C   0  0  0  0  0  0  0  0  0  0  0  0
   58.0630   28.4430   46.4530 C   0  0  0  0  0  0  0  0  0  0  0  0
   56.8950   28.5320   45.6720 C   0  0  0  0  0  0  0  0  0  0  0  0
   55.9270   27.4730   45.6170 N   0  0  0  0  0  0  0  0  0  0  0  0
   56.2320   25.8000   45.9610 S   0  0  0  0  0  0  0  0  0  0  0  0
   57.2400   25.0810   44.6820 C   0  0  0  0  0  0  0  0  0  0  0  0
   56.9040   25.6630   47.2990 O   0  0  0  0  0  0  0  0  0  0  0  0
   54.9180   25.0710   46.0000 O   0  0  0  0  0  0  0  0  0  0  0  0
   56.6650   29.6870   44.9150 C   0  0  0  0  0  0  0  0  0  0  0  0
   57.5800   30.7440   44.9370 C   0  0  0  0  0  0  0  0  0  0  0  0
   59.0750   33.6420   46.9030 C   0  0  0  0  0  0  0  0  0  0  0  0
   57.8820   33.8750   46.0400 C   0  0  0  0  0  0  0  0  0  0  0  0
   56.7500   33.4250   46.3590 O   0  0  0  0  0  0  0  0  0  0  0  0
   58.0080   34.5790   44.8490 O   0  0  0  0  0  0  0  0  0  0  0  0
   59.2320   34.4370   48.0480 C   0  0  0  0  0  0  0  0  0  0  0  0
   60.2910   34.2670   48.8700 N   0  0  0  0  0  0  0  0  0  0  0  0
   61.2800   33.3790   48.6080 C   0  0  0  0  0  0  0  0  0  0  0  0
   59.9906   33.7197   53.7561 H   0  0  0  0  0  0  0  0  0  0  0  0
   58.5564   34.2236   52.7991 H   0  0  0  0  0  0  0  0  0  0  0  0
   59.0773   32.5045   52.7991 H   0  0  0  0  0  0  0  0  0  0  0  0
   59.8440   33.9790   50.7470 H   0  0  0  0  0  0  0  0  0  0  0  0
   64.2648   32.2971   49.8916 H   0  0  0  0  0  0  0  0  0  0  0  0
   64.2776   31.0458   47.7434 H   0  0  0  0  0  0  0  0  0  0  0  0
   62.3682   31.2427   46.1651 H   0  0  0  0  0  0  0  0  0  0  0  0
   59.8997   29.4148   47.0667 H   0  0  0  0  0  0  0  0  0  0  0  0
   58.2571   27.5386   47.0484 H   0  0  0  0  0  0  0  0  0  0  0  0
   58.0543   24.5002   45.1399 H   0  0  0  0  0  0  0  0  0  0  0  0
   56.6228   24.4181   44.0579 H   0  0  0  0  0  0  0  0  0  0  0  0
   57.6659   25.8804   44.0579 H   0  0  0  0  0  0  0  0  0  0  0  0
   55.7574   29.7635   44.2982 H   0  0  0  0  0  0  0  0  0  0  0  0
   57.4025   31.6367   44.3194 H   0  0  0  0  0  0  0  0  0  0  0  0
   58.4833   35.2089   48.2798 H   0  0  0  0  0  0  0  0  0  0  0  0
  1  2  1  0
  2  3  1  0
  3  4  2  0
  3  5  1  0
  5  6  1  0
  6  7  2  0
  7  8  1  0
  8  9  2  0
  9 10  1  0
 10 11  1  0
 11 12  2  3
 12 13  1  0
 13 14  2  0
 14 15  1  0
 15 16  2  0
 16 17  1  0
 17 18  1  0
 18 19  1  0
 18 20  2  0
 18 21  2  0
 16 22  1  0
 22 23  2  0
 11 24  1  0
 24 25  1  0
 25 26  2  0
 25 27  1  0
 24 28  2  0
 28 29  1  0
 29 30  1  0
 30  6  1  0
 30 10  2  0
 23 13  1  0
  1 31  1  0
  1 32  1  0
  1 33  1  0
  2 34  1  0
  7 35  1  0
  8 36  1  0
  9 37  1  0
 14 38  1  0
 15 39  1  0
 19 40  1  0
 19 41  1  0
 19 42  1  0
 22 43  1  0
 23 44  1  0
 28 45  1  0
M  CHG  3  17  -1  27  -1  29  -1
M  END
>  <UniqueID>  (93) 
91

>  <SMILES>  (93) 
CNC(=O)Oc1cccc2c(=Nc3ccc([N-]S(C)(=O)=O)cc3)c(C(=O)[O-])c[n-]c12

>  <Energy>  (93) 
77.82013799021722

>  <Genealogy>  (93) 
CNC(=O)Oc1cccc2c(=Nc3ccc([N-]S(C)(=O)=O)cc3)c(C(=O)[O-])c[n-]c12 (protonated)
CNC(=O)Oc1cccc2c(=Nc3ccc([N-]S(C)(=O)=O)cc3)c(C(=O)[O-])c[n-]c12 (3D coordinates assigned)
CNC(=O)Oc1cccc2c(=Nc3ccc([N-]S(C)(=O)=O)cc3)c(C(=O)[O-])c[n-]c12 (optimized conformer: 77.82013799021722 kcal/mol)

>  <smiles>  (93) 
CNC(=O)Oc1cccc2c(=Nc3ccc(NS(C)(=O)=O)cc3)c(C(=O)O)c[nH]c12

>  <score_type>  (93) 
oracle

>  <origin>  (93) 
adg

>  <m_score__min__energy>  (93) 
-11.609999999999999

>  <m_primary>  (93) 
energy

$$$$
93:0
     RDKit          3D

 69 73  0  0  0  0  0  0  0  0999 V2000
   58.9320   27.9740   46.8410 C   0  0  0  0  0  0  0  0  0  0  0  0
   58.4330   28.5090   45.7170 C   0  0  0  0  0  0  0  0  0  0  0  0
   57.8780   27.8270   44.6220 C   0  0  0  0  0  0  0  0  0  0  0  0
   57.5240   26.5340   44.4740 C   0  0  0  0  0  0  0  0  0  0  0  0
   57.0720   25.6430   45.5550 C   0  0  0  0  0  0  0  0  0  0  0  0
   57.8260   24.6860   46.1240 N   0  0  0  0  0  0  0  0  0  0  0  0
   57.0460   24.2330   47.1290 C   0  0  0  0  0  0  0  0  0  0  0  0
   57.4040   23.3040   47.8990 O   0  0  0  0  0  0  0  0  0  0  0  0
   55.8540   24.8600   47.2500 N   0  0  0  0  0  0  0  0  0  0  0  0
   55.8960   25.7600   46.2540 C   0  0  0  0  0  0  0  0  0  0  0  0
   54.8820   26.6750   45.9970 O   0  0  0  0  0  0  0  0  0  0  0  0
   57.7020   28.7710   43.6230 C   0  0  0  0  0  0  0  0  0  0  0  0
   58.0900   29.9860   44.1490 C   0  0  0  0  0  0  0  0  0  0  0  0
   58.0590   31.2880   43.4100 C   0  0  0  0  0  0  0  0  0  0  0  0
   58.5170   29.8330   45.4220 N   0  0  0  0  0  0  0  0  0  0  0  0
   59.0600   30.8760   46.2470 C   0  0  0  0  0  0  0  0  0  0  0  0
   60.3280   30.7280   46.8230 C   0  0  0  0  0  0  0  0  0  0  0  0
   60.8610   31.7420   47.6220 C   0  0  0  0  0  0  0  0  0  0  0  0
   60.1430   32.9310   47.8400 C   0  0  0  0  0  0  0  0  0  0  0  0
   60.6950   33.9970   48.7090 C   0  0  0  0  0  0  0  0  0  0  0  0
   59.9540   34.9530   49.0650 O   0  0  0  0  0  0  0  0  0  0  0  0
   62.0500   33.9430   49.1880 N   0  0  0  0  0  0  0  0  0  0  0  0
   63.1680   33.8050   48.2470 C   0  0  0  0  0  0  0  0  0  0  0  0
   64.2180   32.8480   48.8180 C   0  0  0  0  0  0  0  0  0  0  0  0
   64.4990   33.1300   50.2380 N   0  0  0  0  0  0  0  0  0  0  0  0
   65.5650   32.4410   50.9180 C   0  0  0  0  0  0  0  0  0  0  0  0
   66.3180   33.0810   51.7020 O   0  0  0  0  0  0  0  0  0  0  0  0
   65.7110   30.9420   50.8260 C   0  0  0  0  0  0  0  0  0  0  0  0
   66.3850   30.3130   52.0700 C   0  0  0  0  0  0  0  0  0  0  0  0
   67.8570   29.8830   51.8120 C   0  0  0  0  0  0  0  0  0  0  0  0
   68.0310   28.3570   51.6840 C   0  0  0  0  0  0  0  0  0  0  0  0
   66.9130   27.7520   50.9490 N   0  0  0  0  0  0  0  0  0  0  0  0
   65.6220   27.9010   51.6520 C   0  0  0  0  0  0  0  0  0  0  0  0
   65.5540   29.1260   52.5930 C   0  0  0  0  0  0  0  0  0  0  0  0
   63.8140   34.2380   50.9140 C   0  0  0  0  0  0  0  0  0  0  0  0
   62.3120   34.2030   50.6100 C   0  0  0  0  0  0  0  0  0  0  0  0
   58.8680   33.0720   47.2650 C   0  0  0  0  0  0  0  0  0  0  0  0
   58.3300   32.0530   46.4720 C   0  0  0  0  0  0  0  0  0  0  0  0
   57.0940   32.2030   45.9350 F   0  0  0  0  0  0  0  0  0  0  0  0
   59.3397   28.6268   47.6269 H   0  0  0  0  0  0  0  0  0  0  0  0
   58.9336   26.8824   46.9770 H   0  0  0  0  0  0  0  0  0  0  0  0
   57.5775   26.1097   43.4605 H   0  0  0  0  0  0  0  0  0  0  0  0
   57.3253   28.5870   42.6060 H   0  0  0  0  0  0  0  0  0  0  0  0
   58.0392   32.1185   44.1310 H   0  0  0  0  0  0  0  0  0  0  0  0
   58.9554   31.3724   42.7780 H   0  0  0  0  0  0  0  0  0  0  0  0
   57.1596   31.3296   42.7780 H   0  0  0  0  0  0  0  0  0  0  0  0
   60.9065   29.8094   46.6454 H   0  0  0  0  0  0  0  0  0  0  0  0
   61.8503   31.6093   48.0843 H   0  0  0  0  0  0  0  0  0  0  0  0
   62.7935   33.4073   47.2922 H   0  0  0  0  0  0  0  0  0  0  0  0
   63.6280   34.7911   48.0857 H   0  0  0  0  0  0  0  0  0  0  0  0
   63.8474   31.8164   48.7261 H   0  0  0  0  0  0  0  0  0  0  0  0
   65.1504   32.9842   48.2506 H   0  0  0  0  0  0  0  0  0  0  0  0
   64.7101   30.5005   50.7109 H   0  0  0  0  0  0  0  0  0  0  0  0
   66.3599   30.7310   49.9632 H   0  0  0  0  0  0  0  0  0  0  0  0
   66.4195   31.0971   52.8407 H   0  0  0  0  0  0  0  0  0  0  0  0
   68.2000   30.3533   50.8787 H   0  0  0  0  0  0  0  0  0  0  0  0
   68.4490   30.2075   52.6805 H   0  0  0  0  0  0  0  0  0  0  0  0
   68.9680   28.1470   51.1474 H   0  0  0  0  0  0  0  0  0  0  0  0
   68.0561   27.9245   52.6951 H   0  0  0  0  0  0  0  0  0  0  0  0
   66.8510   28.1970   50.0030 H   0  0  0  0  0  0  0  0  0  0  0  0
   64.8273   28.0000   50.8979 H   0  0  0  0  0  0  0  0  0  0  0  0
   65.4994   27.0086   52.2833 H   0  0  0  0  0  0  0  0  0  0  0  0
   64.5047   29.4427   52.6859 H   0  0  0  0  0  0  0  0  0  0  0  0
   65.9713   28.8262   53.5656 H   0  0  0  0  0  0  0  0  0  0  0  0
   63.9661   34.1496   51.9998 H   0  0  0  0  0  0  0  0  0  0  0  0
   64.2295   35.1893   50.5502 H   0  0  0  0  0  0  0  0  0  0  0  0
   61.8457   33.4073   51.2094 H   0  0  0  0  0  0  0  0  0  0  0  0
   61.8888   35.1866   50.8618 H   0  0  0  0  0  0  0  0  0  0  0  0
   58.2889   33.9907   47.4400 H   0  0  0  0  0  0  0  0  0  0  0  0
  1  2  2  0
  2  3  1  0
  3  4  2  3
  4  5  1  0
  5  6  1  0
  6  7  1  0
  7  8  2  0
  7  9  1  0
  9 10  1  0
 10 11  1  0
  3 12  1  0
 12 13  2  0
 13 14  1  0
 13 15  1  0
 15 16  1  0
 16 17  2  0
 17 18  1  0
 18 19  2  0
 19 20  1  0
 20 21  2  0
 20 22  1  0
 22 23  1  0
 23 24  1  0
 24 25  1  0
 25 26  1  0
 26 27  2  0
 26 28  1  0
 28 29  1  0
 29 30  1  0
 30 31  1  0
 31 32  1  0
 32 33  1  0
 33 34  1  0
 25 35  1  0
 35 36  1  0
 19 37  1  0
 37 38  2  0
 38 39  1  0
 15  2  1  0
 38 16  1  0
 10  5  2  0
 36 22  1  0
 34 29  1  0
  1 40  1  0
  1 41  1  0
  4 42  1  0
 12 43  1  0
 14 44  1  0
 14 45  1  0
 14 46  1  0
 17 47  1  0
 18 48  1  0
 23 49  1  0
 23 50  1  0
 24 51  1  0
 24 52  1  0
 28 53  1  0
 28 54  1  0
 29 55  1  0
 30 56  1  0
 30 57  1  0
 31 58  1  0
 31 59  1  0
 32 60  1  0
 33 61  1  0
 33 62  1  0
 34 63  1  0
 34 64  1  0
 35 65  1  0
 35 66  1  0
 36 67  1  0
 36 68  1  0
 37 69  1  0
M  CHG  3   6  -1   9  -1  11  -1
M  END
>  <UniqueID>  (94) 
92

>  <SMILES>  (94) 
C=c1c(=Cc2[n-]c(=O)[n-]c2[O-])cc(C)n1-c1ccc(C(=O)N2CCN(C(=O)CC3CCNCC3)CC2)cc1F

>  <Energy>  (94) 
160.54554981224794

>  <Genealogy>  (94) 
C=c1c(=Cc2[n-]c(=O)[n-]c2[O-])cc(C)n1-c1ccc(C(=O)N2CCN(C(=O)CC3CCNCC3)CC2)cc1F (protonated)
C=c1c(=Cc2[n-]c(=O)[n-]c2[O-])cc(C)n1-c1ccc(C(=O)N2CCN(C(=O)CC3CCNCC3)CC2)cc1F (3D coordinates assigned)
C=c1c(=Cc2[n-]c(=O)[n-]c2[O-])cc(C)n1-c1ccc(C(=O)N2CCN(C(=O)CC3CCNCC3)CC2)cc1F (nonaromatic ring conformer: 160.54554981224794 kcal/mol)

>  <smiles>  (94) 
C=c1c(=Cc2[nH]c(=O)[nH]c2O)cc(C)n1-c1ccc(C(=O)N2CCN(C(=O)CC3CCNCC3)CC2)cc1F

>  <score_type>  (94) 
oracle

>  <origin>  (94) 
adg

>  <m_score__min__energy>  (94) 
-16.739999999999998

>  <m_primary>  (94) 
energy

$$$$
94:0
     RDKit          3D

 66 69  0  0  0  0  0  0  0  0999 V2000
   60.8520   33.3100   46.6990 C   0  0  0  0  0  0  0  0  0  0  0  0
   59.6190   34.2060   46.8790 C   0  0  0  0  0  0  0  0  0  0  0  0
   59.6560   35.3380   45.8320 C   0  0  0  0  0  0  0  0  0  0  0  0
   59.6660   34.7630   48.1700 O   0  0  0  0  0  0  0  0  0  0  0  0
   58.3770   33.3470   46.7320 C   0  0  0  0  0  0  0  0  0  0  0  0
   57.8440   32.8360   47.7560 O   0  0  0  0  0  0  0  0  0  0  0  0
   57.8460   33.0410   45.4380 N   0  0  0  0  0  0  0  0  0  0  0  0
   57.5220   31.8410   45.0600 C   0  0  0  0  0  0  0  0  0  0  0  0
   58.4130   30.7840   45.2810 C   0  0  0  0  0  0  0  0  0  0  0  0
   58.0410   29.4770   44.9290 C   0  0  0  0  0  0  0  0  0  0  0  0
   58.9070   28.3840   45.0970 O   0  0  0  0  0  0  0  0  0  0  0  0
   58.5460   27.1250   45.5970 C   0  0  0  0  0  0  0  0  0  0  0  0
   58.5880   26.8310   46.9710 C   0  0  0  0  0  0  0  0  0  0  0  0
   58.1990   25.5690   47.4340 C   0  0  0  0  0  0  0  0  0  0  0  0
   57.7750   24.5840   46.5290 C   0  0  0  0  0  0  0  0  0  0  0  0
   57.3730   23.2950   47.0120 N   0  0  0  0  0  0  0  0  0  0  0  0
   56.0430   23.0350   47.4870 C   0  0  0  0  0  0  0  0  0  0  0  0
   55.1010   23.8050   47.1620 O   0  0  0  0  0  0  0  0  0  0  0  0
   55.7700   21.9630   48.3970 N   0  0  0  0  0  0  0  0  0  0  0  0
   56.1610   21.8880   49.7730 C   0  0  0  0  0  0  0  0  0  0  0  0
   57.4730   22.2270   50.1180 C   0  0  0  0  0  0  0  0  0  0  0  0
   57.8860   22.2140   51.4580 C   0  0  0  0  0  0  0  0  0  0  0  0
   59.2420   22.5480   51.8100 N   0  0  0  0  0  0  0  0  0  0  0  0
   59.6230   23.9490   52.0010 C   0  0  0  0  0  0  0  0  0  0  0  0
   60.7750   24.0300   53.0090 C   0  0  0  0  0  0  0  0  0  0  0  0
   61.8410   23.1830   52.6200 O   0  0  0  0  0  0  0  0  0  0  0  0
   61.4210   21.8300   52.6540 C   0  0  0  0  0  0  0  0  0  0  0  0
   60.3230   21.5770   51.6170 C   0  0  0  0  0  0  0  0  0  0  0  0
   56.9620   21.8740   52.4590 C   0  0  0  0  0  0  0  0  0  0  0  0
   55.6250   21.5830   52.1330 C   0  0  0  0  0  0  0  0  0  0  0  0
   54.6340   21.2030   53.2060 C   0  0  0  0  0  0  0  0  0  0  0  0
   55.1480   20.1550   53.9490 F   0  0  0  0  0  0  0  0  0  0  0  0
   53.4360   20.8070   52.6350 F   0  0  0  0  0  0  0  0  0  0  0  0
   54.3770   22.2700   54.0510 F   0  0  0  0  0  0  0  0  0  0  0  0
   55.2350   21.5800   50.7830 C   0  0  0  0  0  0  0  0  0  0  0  0
   57.7170   24.8850   45.1590 C   0  0  0  0  0  0  0  0  0  0  0  0
   58.0880   26.1510   44.6990 C   0  0  0  0  0  0  0  0  0  0  0  0
   56.7970   29.2610   44.3310 C   0  0  0  0  0  0  0  0  0  0  0  0
   55.9310   30.3370   44.1250 C   0  0  0  0  0  0  0  0  0  0  0  0
   56.3050   31.5900   44.4950 N   0  0  0  0  0  0  0  0  0  0  0  0
   61.2450   33.0244   47.6859 H   0  0  0  0  0  0  0  0  0  0  0  0
   60.5694   32.4051   46.1410 H   0  0  0  0  0  0  0  0  0  0  0  0
   61.6254   33.8583   46.1410 H   0  0  0  0  0  0  0  0  0  0  0  0
   59.6878   36.3107   46.3447 H   0  0  0  0  0  0  0  0  0  0  0  0
   60.5510   35.2260   45.2023 H   0  0  0  0  0  0  0  0  0  0  0  0
   58.7556   35.2846   45.2023 H   0  0  0  0  0  0  0  0  0  0  0  0
   58.8600   34.4570   48.6650 H   0  0  0  0  0  0  0  0  0  0  0  0
   59.3994   30.9767   45.7281 H   0  0  0  0  0  0  0  0  0  0  0  0
   58.9279   27.5958   47.6849 H   0  0  0  0  0  0  0  0  0  0  0  0
   58.2257   25.3484   48.5113 H   0  0  0  0  0  0  0  0  0  0  0  0
   58.0980   22.5440   47.0500 H   0  0  0  0  0  0  0  0  0  0  0  0
   58.1882   22.5066   49.3304 H   0  0  0  0  0  0  0  0  0  0  0  0
   59.9455   24.3760   51.0399 H   0  0  0  0  0  0  0  0  0  0  0  0
   58.7607   24.5158   52.3819 H   0  0  0  0  0  0  0  0  0  0  0  0
   61.1380   25.0671   53.0599 H   0  0  0  0  0  0  0  0  0  0  0  0
   60.4069   23.7057   53.9935 H   0  0  0  0  0  0  0  0  0  0  0  0
   62.2807   21.1796   52.4354 H   0  0  0  0  0  0  0  0  0  0  0  0
   61.0198   21.6096   53.6542 H   0  0  0  0  0  0  0  0  0  0  0  0
   60.7404   21.6879   50.6053 H   0  0  0  0  0  0  0  0  0  0  0  0
   59.9288   20.5573   51.7388 H   0  0  0  0  0  0  0  0  0  0  0  0
   57.2871   21.8348   53.5091 H   0  0  0  0  0  0  0  0  0  0  0  0
   54.1967   21.3346   50.5153 H   0  0  0  0  0  0  0  0  0  0  0  0
   57.3779   24.1206   44.4444 H   0  0  0  0  0  0  0  0  0  0  0  0
   58.0203   26.3847   43.6262 H   0  0  0  0  0  0  0  0  0  0  0  0
   56.5008   28.2472   44.0236 H   0  0  0  0  0  0  0  0  0  0  0  0
   54.9465   30.1704   43.6634 H   0  0  0  0  0  0  0  0  0  0  0  0
  1  2  1  0
  2  3  1  0
  2  4  1  0
  2  5  1  0
  5  6  2  0
  5  7  1  0
  7  8  2  3
  8  9  1  0
  9 10  2  0
 10 11  1  0
 11 12  1  0
 12 13  2  0
 13 14  1  0
 14 15  2  0
 15 16  1  0
 16 17  1  0
 17 18  2  0
 17 19  1  0
 19 20  1  0
 20 21  2  0
 21 22  1  0
 22 23  1  0
 23 24  1  0
 24 25  1  0
 25 26  1  0
 26 27  1  0
 27 28  1  0
 22 29  2  0
 29 30  1  0
 30 31  1  0
 31 32  1  0
 31 33  1  0
 31 34  1  0
 30 35  2  0
 15 36  1  0
 36 37  2  0
 10 38  1  0
 38 39  2  0
 39 40  1  0
 40  8  1  0
 37 12  1  0
 35 20  1  0
 28 23  1  0
  1 41  1  0
  1 42  1  0
  1 43  1  0
  3 44  1  0
  3 45  1  0
  3 46  1  0
  4 47  1  0
  9 48  1  0
 13 49  1  0
 14 50  1  0
 16 51  1  0
 21 52  1  0
 24 53  1  0
 24 54  1  0
 25 55  1  0
 25 56  1  0
 27 57  1  0
 27 58  1  0
 28 59  1  0
 28 60  1  0
 29 61  1  0
 35 62  1  0
 36 63  1  0
 37 64  1  0
 38 65  1  0
 39 66  1  0
M  CHG  2  19  -1  40  -1
M  END
>  <UniqueID>  (95) 
93

>  <SMILES>  (95) 
CC(C)(O)C(=O)N=c1cc(Oc2ccc(NC(=O)[N-]c3cc(N4CCOCC4)cc(C(F)(F)F)c3)cc2)cc[n-]1

>  <Energy>  (95) 
97.15142698418039

>  <Genealogy>  (95) 
CC(C)(O)C(=O)N=c1cc(Oc2ccc(NC(=O)[N-]c3cc(N4CCOCC4)cc(C(F)(F)F)c3)cc2)cc[n-]1 (protonated)
CC(C)(O)C(=O)N=c1cc(Oc2ccc(NC(=O)[N-]c3cc(N4CCOCC4)cc(C(F)(F)F)c3)cc2)cc[n-]1 (3D coordinates assigned)
CC(C)(O)C(=O)N=c1cc(Oc2ccc(NC(=O)[N-]c3cc(N4CCOCC4)cc(C(F)(F)F)c3)cc2)cc[n-]1 (nonaromatic ring conformer: 97.15142698418039 kcal/mol)

>  <smiles>  (95) 
CC(C)(O)C(=O)N=c1cc(Oc2ccc(NC(=O)Nc3cc(N4CCOCC4)cc(C(F)(F)F)c3)cc2)cc[nH]1

>  <score_type>  (95) 
oracle

>  <origin>  (95) 
adg

>  <m_score__min__energy>  (95) 
-10.51

>  <m_primary>  (95) 
energy

$$$$
