0:0
     RDKit          3D

 43 44  0  0  0  0  0  0  0  0999 V2000
   57.5200   28.0010   45.0980 C   0  0  0  0  0  0  0  0  0  0  0  0
   58.0440   29.0450   44.1200 C   0  0  0  0  0  0  0  0  0  0  0  0
   56.9530   30.4620   44.0520 S   0  0  0  0  0  0  0  0  0  0  0  0
   55.6800   30.1200   44.7770 O   0  0  0  0  0  0  0  0  0  0  0  0
   56.6410   30.7810   42.6180 O   0  0  0  0  0  0  0  0  0  0  0  0
   57.6870   31.8780   44.8110 C   0  0  0  0  0  0  0  0  0  0  0  0
   57.5920   33.1570   44.2290 C   0  0  0  0  0  0  0  0  0  0  0  0
   58.1720   34.2710   44.8580 C   0  0  0  0  0  0  0  0  0  0  0  0
   58.8450   34.1080   46.0750 C   0  0  0  0  0  0  0  0  0  0  0  0
   58.9160   32.8610   46.6110 N   0  0  0  0  0  0  0  0  0  0  0  0
   59.4760   32.4220   47.7540 C   0  0  0  0  0  0  0  0  0  0  0  0
   60.1620   33.2780   48.7930 C   0  0  0  0  0  0  0  0  0  0  0  0
   61.6310   33.3370   48.5810 N   0  0  2  0  0  0  0  0  0  0  0  0
   62.2590   34.2120   49.5910 C   0  0  0  0  0  0  0  0  0  0  0  0
   61.9500   33.8350   47.2180 C   0  0  0  0  0  0  0  0  0  0  0  0
   63.3570   33.4270   46.7530 C   0  0  0  0  0  0  0  0  0  0  0  0
   63.7630   32.2610   47.4170 O   0  0  0  0  0  0  0  0  0  0  0  0
   59.2420   31.0540   47.8260 C   0  0  0  0  0  0  0  0  0  0  0  0
   59.6320   30.1440   48.9470 C   0  0  0  0  0  0  0  0  0  0  0  0
   58.5380   30.6440   46.7470 N   0  0  0  0  0  0  0  0  0  0  0  0
   58.3670   31.7760   46.0300 C   0  0  0  0  0  0  0  0  0  0  0  0
   57.6925   28.3448   46.1286 H   0  0  0  0  0  0  0  0  0  0  0  0
   56.4419   27.8551   44.9358 H   0  0  0  0  0  0  0  0  0  0  0  0
   58.0473   27.0493   44.9358 H   0  0  0  0  0  0  0  0  0  0  0  0
   59.0419   29.3742   44.4453 H   0  0  0  0  0  0  0  0  0  0  0  0
   58.0956   28.5932   43.1184 H   0  0  0  0  0  0  0  0  0  0  0  0
   57.0597   33.2845   43.2749 H   0  0  0  0  0  0  0  0  0  0  0  0
   58.0978   35.2668   44.3967 H   0  0  0  0  0  0  0  0  0  0  0  0
   59.3047   34.9677   46.5845 H   0  0  0  0  0  0  0  0  0  0  0  0
   59.7538   34.2980   48.7391 H   0  0  0  0  0  0  0  0  0  0  0  0
   59.9781   32.8285   49.7800 H   0  0  0  0  0  0  0  0  0  0  0  0
   62.0410   32.3820   48.7030 H   0  0  0  0  0  0  0  0  0  0  0  0
   62.0013   33.8530   50.5983 H   0  0  0  0  0  0  0  0  0  0  0  0
   63.3514   34.1938   49.4636 H   0  0  0  0  0  0  0  0  0  0  0  0
   61.8921   35.2412   49.4636 H   0  0  0  0  0  0  0  0  0  0  0  0
   61.2130   33.4249   46.5118 H   0  0  0  0  0  0  0  0  0  0  0  0
   61.9153   34.9340   47.2487 H   0  0  0  0  0  0  0  0  0  0  0  0
   63.3429   33.2424   45.6687 H   0  0  0  0  0  0  0  0  0  0  0  0
   64.0628   34.2383   46.9846 H   0  0  0  0  0  0  0  0  0  0  0  0
   64.5250   31.8970   46.8950 H   0  0  0  0  0  0  0  0  0  0  0  0
   59.4214   30.6354   49.9083 H   0  0  0  0  0  0  0  0  0  0  0  0
   59.0552   29.2099   48.8786 H   0  0  0  0  0  0  0  0  0  0  0  0
   60.7062   29.9175   48.8786 H   0  0  0  0  0  0  0  0  0  0  0  0
  1  2  1  0
  2  3  1  0
  3  4  2  0
  3  5  2  0
  3  6  1  0
  6  7  2  0
  7  8  1  0
  8  9  2  0
  9 10  1  0
 10 11  1  0
 11 12  1  0
 12 13  1  0
 13 14  1  0
 13 15  1  0
 15 16  1  0
 16 17  1  0
 11 18  2  0
 18 19  1  0
 18 20  1  0
 20 21  2  0
 21  6  1  0
 21 10  1  0
  1 22  1  0
  1 23  1  0
  1 24  1  0
  2 25  1  0
  2 26  1  0
  7 27  1  0
  8 28  1  0
  9 29  1  0
 12 30  1  0
 12 31  1  0
 13 32  1  6
 14 33  1  0
 14 34  1  0
 14 35  1  0
 15 36  1  0
 15 37  1  0
 16 38  1  0
 16 39  1  0
 17 40  1  0
 19 41  1  0
 19 42  1  0
 19 43  1  0
M  CHG  1  13   1
M  END
>  <UniqueID>  (1) 
1

>  <SMILES>  (1) 
CCS(=O)(=O)c1cccn2c(C[N@H+](C)CCO)c(C)nc12

>  <Energy>  (1) 
71.96652095324362

>  <Genealogy>  (1) 
CCS(=O)(=O)c1cccn2c(C[NH+](C)CCO)c(C)nc12 (protonated)
CCS(=O)(=O)c1cccn2c(C[N@H+](C)CCO)c(C)nc12 (chirality)
CCS(=O)(=O)c1cccn2c(C[N@H+](C)CCO)c(C)nc12 (3D coordinates assigned)
CCS(=O)(=O)c1cccn2c(C[N@H+](C)CCO)c(C)nc12 (optimized conformer: 71.96652095324362 kcal/mol)

>  <smiles>  (1) 
CCS(=O)(=O)c1cccn2c(CN(C)CCO)c(C)nc12

>  <score_type>  (1) 
oracle

>  <origin>  (1) 
adg

>  <m_score__min__energy>  (1) 
-5.5700000000000003

>  <m_primary>  (1) 
energy

$$$$
1:0
     RDKit          3D

 62 65  0  0  0  0  0  0  0  0999 V2000
   68.3290   29.6270   53.7520 C   0  0  0  0  0  0  0  0  0  0  0  0
   66.8640   29.1700   53.6840 C   0  0  0  0  0  0  0  0  0  0  0  0
   66.2320   29.3690   52.3610 N   0  0  0  0  0  0  0  0  0  0  0  0
   67.1610   29.8010   51.2900 C   0  0  0  0  0  0  0  0  0  0  0  0
   66.9800   31.2770   50.9010 C   0  0  0  0  0  0  0  0  0  0  0  0
   65.5750   31.5760   50.5940 N   0  0  0  0  0  0  0  0  0  0  0  0
   65.2420   32.8450   49.9950 C   0  0  0  0  0  0  0  0  0  0  0  0
   66.0240   33.8220   50.1510 O   0  0  0  0  0  0  0  0  0  0  0  0
   64.0010   33.0460   49.2100 C   0  0  0  0  0  0  0  0  0  0  0  0
   63.0760   34.0280   49.6000 C   0  0  0  0  0  0  0  0  0  0  0  0
   61.8910   34.2120   48.8820 C   0  0  0  0  0  0  0  0  0  0  0  0
   61.6040   33.4170   47.7590 C   0  0  0  0  0  0  0  0  0  0  0  0
   60.3270   33.6000   47.0290 C   0  0  0  0  0  0  0  0  0  0  0  0
   59.8360   34.7570   46.9220 O   0  0  0  0  0  0  0  0  0  0  0  0
   59.6270   32.4770   46.4640 N   0  0  0  0  0  0  0  0  0  0  0  0
   58.3590   32.6290   45.7550 C   0  0  0  0  0  0  0  0  0  0  0  0
   57.7660   31.2920   45.4400 C   0  0  0  0  0  0  0  0  0  0  0  0
   58.4070   30.1570   45.8240 N   0  0  0  0  0  0  0  0  0  0  0  0
   57.9220   28.9190   45.5210 C   0  0  0  0  0  0  0  0  0  0  0  0
   58.6590   27.7450   45.9400 N   0  0  0  0  0  0  0  0  0  0  0  0
   58.3490   26.4300   45.3460 C   0  0  0  0  0  0  0  0  0  0  0  0
   59.1160   25.2800   46.0190 C   0  0  0  0  0  0  0  0  0  0  0  0
   60.4590   25.6290   46.2720 O   0  0  0  0  0  0  0  0  0  0  0  0
   60.4900   26.6670   47.2240 C   0  0  0  0  0  0  0  0  0  0  0  0
   59.9490   27.9590   46.6170 C   0  0  0  0  0  0  0  0  0  0  0  0
   56.7200   28.8270   44.7970 C   0  0  0  0  0  0  0  0  0  0  0  0
   56.0800   30.0040   44.4010 C   0  0  0  0  0  0  0  0  0  0  0  0
   55.0070   29.9510   43.7420 O   0  0  0  0  0  0  0  0  0  0  0  0
   56.6140   31.2090   44.7240 N   0  0  0  0  0  0  0  0  0  0  0  0
   62.5470   32.4580   47.3490 C   0  0  0  0  0  0  0  0  0  0  0  0
   63.7370   32.2810   48.0630 C   0  0  0  0  0  0  0  0  0  0  0  0
   64.5280   30.6610   51.0730 C   0  0  0  0  0  0  0  0  0  0  0  0
   64.9340   30.0820   52.4300 C   0  0  0  0  0  0  0  0  0  0  0  0
   68.6349   29.7224   54.8043 H   0  0  0  0  0  0  0  0  0  0  0  0
   68.9681   28.8855   53.2502 H   0  0  0  0  0  0  0  0  0  0  0  0
   68.4331   30.6003   53.2502 H   0  0  0  0  0  0  0  0  0  0  0  0
   66.8243   28.0983   53.9285 H   0  0  0  0  0  0  0  0  0  0  0  0
   66.3041   29.7891   54.4004 H   0  0  0  0  0  0  0  0  0  0  0  0
   68.1933   29.6544   51.6405 H   0  0  0  0  0  0  0  0  0  0  0  0
   66.9417   29.1952   50.3984 H   0  0  0  0  0  0  0  0  0  0  0  0
   67.3075   31.9115   51.7377 H   0  0  0  0  0  0  0  0  0  0  0  0
   67.5834   31.4776   50.0034 H   0  0  0  0  0  0  0  0  0  0  0  0
   63.2857   34.6574   50.4775 H   0  0  0  0  0  0  0  0  0  0  0  0
   61.1765   34.9861   49.1987 H   0  0  0  0  0  0  0  0  0  0  0  0
   59.9660   31.5060   46.6460 H   0  0  0  0  0  0  0  0  0  0  0  0
   57.6581   33.1954   46.3859 H   0  0  0  0  0  0  0  0  0  0  0  0
   58.5428   33.1654   44.8124 H   0  0  0  0  0  0  0  0  0  0  0  0
   57.2702   26.2421   45.4503 H   0  0  0  0  0  0  0  0  0  0  0  0
   58.6559   26.4614   44.2902 H   0  0  0  0  0  0  0  0  0  0  0  0
   58.6256   25.0337   46.9723 H   0  0  0  0  0  0  0  0  0  0  0  0
   59.1077   24.4162   45.3380 H   0  0  0  0  0  0  0  0  0  0  0  0
   59.8709   26.3851   48.0884 H   0  0  0  0  0  0  0  0  0  0  0  0
   61.5303   26.8295   47.5425 H   0  0  0  0  0  0  0  0  0  0  0  0
   59.8121   28.6995   47.4189 H   0  0  0  0  0  0  0  0  0  0  0  0
   60.6730   28.3159   45.8698 H   0  0  0  0  0  0  0  0  0  0  0  0
   56.2911   27.8454   44.5468 H   0  0  0  0  0  0  0  0  0  0  0  0
   62.3475   31.8420   46.4598 H   0  0  0  0  0  0  0  0  0  0  0  0
   64.4717   31.5364   47.7229 H   0  0  0  0  0  0  0  0  0  0  0  0
   63.5812   31.2110   51.1781 H   0  0  0  0  0  0  0  0  0  0  0  0
   64.3997   29.8420   50.3499 H   0  0  0  0  0  0  0  0  0  0  0  0
   65.0178   30.9037   53.1565 H   0  0  0  0  0  0  0  0  0  0  0  0
   64.1638   29.3588   52.7362 H   0  0  0  0  0  0  0  0  0  0  0  0
  1  2  1  0
  2  3  1  0
  3  4  1  0
  4  5  1  0
  5  6  1  0
  6  7  1  0
  7  8  2  0
  7  9  1  0
  9 10  2  0
 10 11  1  0
 11 12  2  0
 12 13  1  0
 13 14  2  0
 13 15  1  0
 15 16  1  0
 16 17  1  0
 17 18  2  0
 18 19  1  0
 19 20  1  0
 20 21  1  0
 21 22  1  0
 22 23  1  0
 23 24  1  0
 24 25  1  0
 19 26  2  0
 26 27  1  0
 27 28  2  0
 27 29  1  0
 12 30  1  0
 30 31  2  0
  6 32  1  0
 32 33  1  0
 33  3  1  0
 31  9  1  0
 29 17  1  0
 25 20  1  0
  1 34  1  0
  1 35  1  0
  1 36  1  0
  2 37  1  0
  2 38  1  0
  4 39  1  0
  4 40  1  0
  5 41  1  0
  5 42  1  0
 10 43  1  0
 11 44  1  0
 15 45  1  0
 16 46  1  0
 16 47  1  0
 21 48  1  0
 21 49  1  0
 22 50  1  0
 22 51  1  0
 24 52  1  0
 24 53  1  0
 25 54  1  0
 25 55  1  0
 26 56  1  0
 30 57  1  0
 31 58  1  0
 32 59  1  0
 32 60  1  0
 33 61  1  0
 33 62  1  0
M  CHG  1  29  -1
M  END
>  <UniqueID>  (2) 
2

>  <SMILES>  (2) 
CCN1CCN(C(=O)c2ccc(C(=O)NCc3nc(N4CCOCC4)cc(=O)[n-]3)cc2)CC1

>  <Energy>  (2) 
82.63035274936128

>  <Genealogy>  (2) 
CCN1CCN(C(=O)c2ccc(C(=O)NCc3nc(N4CCOCC4)cc(=O)[n-]3)cc2)CC1 (protonated)
CCN1CCN(C(=O)c2ccc(C(=O)NCc3nc(N4CCOCC4)cc(=O)[n-]3)cc2)CC1 (3D coordinates assigned)
CCN1CCN(C(=O)c2ccc(C(=O)NCc3nc(N4CCOCC4)cc(=O)[n-]3)cc2)CC1 (nonaromatic ring conformer: 82.63035274936128 kcal/mol)

>  <smiles>  (2) 
CCN1CCN(C(=O)c2ccc(C(=O)NCc3nc(N4CCOCC4)cc(=O)[nH]3)cc2)CC1

>  <score_type>  (2) 
oracle

>  <origin>  (2) 
adg

>  <m_score__min__energy>  (2) 
-9.7300000000000004

>  <m_primary>  (2) 
energy

$$$$
2:0
     RDKit          3D

 63 66  0  0  0  0  0  0  0  0999 V2000
   58.5251   35.1888   44.9644 H   0  0  0  0  0  0  0  0  0  0  0  0
   58.4180   34.1280   45.2350 C   0  0  0  0  0  0  0  0  0  0  0  0
   57.4230   33.3890   44.6810 N   0  0  0  0  0  0  0  0  0  0  0  0
   57.2430   32.0760   44.9840 C   0  0  0  0  0  0  0  0  0  0  0  0
   56.2660   31.3890   44.4630 N   0  0  0  0  0  0  0  0  0  0  0  0
   56.1540   29.9580   44.3970 C   0  0  0  0  0  0  0  0  0  0  0  0
   55.1560   29.3560   44.8810 O   0  0  0  0  0  0  0  0  0  0  0  0
   57.2380   29.1680   43.7320 C   0  0  0  0  0  0  0  0  0  0  0  0
   56.7877   28.3422   43.1616 H   0  0  0  0  0  0  0  0  0  0  0  0
   57.8003   29.8293   43.0563 H   0  0  0  0  0  0  0  0  0  0  0  0
   58.1790   28.6050   44.7620 C   0  0  0  0  0  0  0  0  0  0  0  0
   59.5690   28.7310   44.5950 C   0  0  0  0  0  0  0  0  0  0  0  0
   59.9708   29.2517   43.7133 H   0  0  0  0  0  0  0  0  0  0  0  0
   60.4420   28.1960   45.5470 C   0  0  0  0  0  0  0  0  0  0  0  0
   61.5289   28.3024   45.4156 H   0  0  0  0  0  0  0  0  0  0  0  0
   59.9380   27.5270   46.6640 C   0  0  0  0  0  0  0  0  0  0  0  0
   60.6278   27.1144   47.4150 H   0  0  0  0  0  0  0  0  0  0  0  0
   58.5570   27.3810   46.8290 C   0  0  0  0  0  0  0  0  0  0  0  0
   58.1607   26.8467   47.7051 H   0  0  0  0  0  0  0  0  0  0  0  0
   57.6800   27.9150   45.8790 C   0  0  0  0  0  0  0  0  0  0  0  0
   56.5942   27.7939   46.0074 H   0  0  0  0  0  0  0  0  0  0  0  0
   58.1070   31.4540   45.8890 C   0  0  0  0  0  0  0  0  0  0  0  0
   57.9742   30.3891   46.1305 H   0  0  0  0  0  0  0  0  0  0  0  0
   59.1440   32.1840   46.4910 C   0  0  0  0  0  0  0  0  0  0  0  0
   59.9990   31.4890   47.5310 C   0  0  0  0  0  0  0  0  0  0  0  0
   60.4188   30.5706   47.0946 H   0  0  0  0  0  0  0  0  0  0  0  0
   60.8019   32.1759   47.8368 H   0  0  0  0  0  0  0  0  0  0  0  0
   59.2050   31.1350   48.7280 N   0  0  0  0  0  0  0  0  0  0  0  0
   58.6110   32.3430   49.3530 C   0  0  0  0  0  0  0  0  0  0  0  0
   59.1281   33.2300   48.9582 H   0  0  0  0  0  0  0  0  0  0  0  0
   57.5390   32.3427   49.1063 H   0  0  0  0  0  0  0  0  0  0  0  0
   58.7240   32.3550   50.8850 C   0  0  0  0  0  0  0  0  0  0  0  0
   58.3353   33.3116   51.2643 H   0  0  0  0  0  0  0  0  0  0  0  0
   58.1408   31.5101   51.2799 H   0  0  0  0  0  0  0  0  0  0  0  0
   60.1260   32.1970   51.3280 N   0  0  0  0  0  0  0  0  0  0  0  0
   60.8630   33.4790   51.2650 C   0  0  0  0  0  0  0  0  0  0  0  0
   60.2031   34.2566   50.8529 H   0  0  0  0  0  0  0  0  0  0  0  0
   61.1852   33.7555   52.2797 H   0  0  0  0  0  0  0  0  0  0  0  0
   62.0710   33.3440   50.3920 C   0  0  0  0  0  0  0  0  0  0  0  0
   62.0450   33.4520   49.0790 O   0  0  0  0  0  0  0  0  0  0  0  0
   63.2760   33.2710   48.6590 C   0  0  0  0  0  0  0  0  0  0  0  0
   63.7000   33.3150   47.2290 C   0  0  0  0  0  0  0  0  0  0  0  0
   64.7928   33.4284   47.1739 H   0  0  0  0  0  0  0  0  0  0  0  0
   63.4026   32.3812   46.7295 H   0  0  0  0  0  0  0  0  0  0  0  0
   63.2172   34.1679   46.7295 H   0  0  0  0  0  0  0  0  0  0  0  0
   64.0760   33.0220   49.7580 C   0  0  0  0  0  0  0  0  0  0  0  0
   65.5530   32.7940   49.7630 C   0  0  0  0  0  0  0  0  0  0  0  0
   65.9119   32.7386   50.8013 H   0  0  0  0  0  0  0  0  0  0  0  0
   65.7801   31.8502   49.2457 H   0  0  0  0  0  0  0  0  0  0  0  0
   66.0541   33.6254   49.2457 H   0  0  0  0  0  0  0  0  0  0  0  0
   63.3080   33.0780   50.8580 N   0  0  0  0  0  0  0  0  0  0  0  0
   63.6010   32.9480   51.8520 H   0  0  0  0  0  0  0  0  0  0  0  0
   60.8530   31.1070   50.6220 C   0  0  0  0  0  0  0  0  0  0  0  0
   61.6647   31.5564   50.0310 H   0  0  0  0  0  0  0  0  0  0  0  0
   61.2286   30.4179   51.3928 H   0  0  0  0  0  0  0  0  0  0  0  0
   59.9610   30.2830   49.6760 C   0  0  0  0  0  0  0  0  0  0  0  0
   60.5973   29.5938   49.1015 H   0  0  0  0  0  0  0  0  0  0  0  0
   59.2312   29.7381   50.2928 H   0  0  0  0  0  0  0  0  0  0  0  0
   59.3120   33.5490   46.1510 C   0  0  0  0  0  0  0  0  0  0  0  0
   60.3720   34.4100   46.7820 C   0  0  0  0  0  0  0  0  0  0  0  0
   60.2927   34.3456   47.8772 H   0  0  0  0  0  0  0  0  0  0  0  0
   61.3655   34.0598   46.4651 H   0  0  0  0  0  0  0  0  0  0  0  0
   60.2329   35.4541   46.4651 H   0  0  0  0  0  0  0  0  0  0  0  0
  1  2  1  0
  2  3  1  0
  3  4  1  0
  4  5  2  0
  5  6  1  0
  6  7  2  0
  6  8  1  0
  8  9  1  0
  8 10  1  0
  8 11  1  0
 11 12  2  0
 12 13  1  0
 12 14  1  0
 14 15  1  0
 14 16  2  0
 16 17  1  0
 16 18  1  0
 18 19  1  0
 18 20  2  0
 20 21  1  0
  4 22  1  0
 22 23  1  0
 22 24  2  0
 24 25  1  0
 25 26  1  0
 25 27  1  0
 25 28  1  0
 28 29  1  0
 29 30  1  0
 29 31  1  0
 29 32  1  0
 32 33  1  0
 32 34  1  0
 32 35  1  0
 35 36  1  0
 36 37  1  0
 36 38  1  0
 36 39  1  0
 39 40  1  0
 40 41  1  0
 41 42  1  0
 42 43  1  0
 42 44  1  0
 42 45  1  0
 41 46  2  0
 46 47  1  0
 47 48  1  0
 47 49  1  0
 47 50  1  0
 46 51  1  0
 51 52  1  0
 35 53  1  0
 53 54  1  0
 53 55  1  0
 53 56  1  0
 56 57  1  0
 56 58  1  0
 24 59  1  0
 59 60  1  0
 60 61  1  0
 60 62  1  0
 60 63  1  0
 59  2  2  0
 20 11  1  0
 56 28  1  0
 51 39  2  0
M  CHG  2   3  -1  51   1
M  END
>  <UniqueID>  (3) 
3

>  <SMILES>  (3) 
Cc1c[n-]/c(=N\C(=O)Cc2ccccc2)cc1CN1CCN(Cc2[nH+]c(C)c(C)o2)CC1

>  <Energy>  (3) 
111.04534877513007

>  <Genealogy>  (3) 
Cc1c[n-]c(=NC(=O)Cc2ccccc2)cc1CN1CCN(Cc2[nH+]c(C)c(C)o2)CC1 (protonated)
Cc1c[n-]/c(=N\C(=O)Cc2ccccc2)cc1CN1CCN(Cc2[nH+]c(C)c(C)o2)CC1 (cis-trans isomerization)
Cc1c[n-]/c(=N\C(=O)Cc2ccccc2)cc1CN1CCN(Cc2[nH+]c(C)c(C)o2)CC1 (3D coordinates assigned)
Cc1c[n-]/c(=N\C(=O)Cc2ccccc2)cc1CN1CCN(Cc2[nH+]c(C)c(C)o2)CC1 (nonaromatic ring conformer: 111.04534877513007 kcal/mol)

>  <smiles>  (3) 
Cc1c[nH]c(=NC(=O)Cc2ccccc2)cc1CN1CCN(Cc2nc(C)c(C)o2)CC1

>  <score_type>  (3) 
oracle

>  <origin>  (3) 
adg

>  <m_score__min__energy>  (3) 
-9.3599999999999994

>  <m_primary>  (3) 
energy

$$$$
3:0
     RDKit          3D

 59 62  0  0  0  0  0  0  0  0999 V2000
   57.9560   32.1410   43.8870 O   0  0  0  0  0  0  0  0  0  0  0  0
   57.9110   31.1460   44.6620 C   0  0  0  0  0  0  0  0  0  0  0  0
   58.2650   31.3080   46.0460 N   0  0  0  0  0  0  0  0  0  0  0  0
   59.0340   32.4130   46.5480 C   0  0  0  0  0  0  0  0  0  0  0  0
   58.3740   33.5690   46.9940 C   0  0  0  0  0  0  0  0  0  0  0  0
   59.1030   34.6500   47.4960 C   0  0  0  0  0  0  0  0  0  0  0  0
   60.4960   34.5810   47.5760 C   0  0  0  0  0  0  0  0  0  0  0  0
   61.1670   33.4170   47.1780 C   0  0  0  0  0  0  0  0  0  0  0  0
   62.9250   33.3260   47.2800 S   0  0  0  0  0  0  0  0  0  0  0  0
   63.5160   34.1740   46.1870 O   0  0  0  0  0  0  0  0  0  0  0  0
   63.3540   31.9050   47.0330 O   0  0  0  0  0  0  0  0  0  0  0  0
   63.5680   33.8630   48.8200 N   0  0  0  0  0  0  0  0  0  0  0  0
   62.5380   34.1960   49.8240 C   0  0  0  0  0  0  0  0  0  0  0  0
   62.1100   32.9980   50.6820 C   0  0  0  0  0  0  0  0  0  0  0  0
   63.3220   32.2930   51.2810 C   0  0  0  0  0  0  0  0  0  0  0  0
   64.2740   31.8620   50.1720 C   0  0  0  0  0  0  0  0  0  0  0  0
   64.7040   33.0660   49.3240 C   0  0  0  0  0  0  0  0  0  0  0  0
   60.4350   32.3420   46.6520 C   0  0  0  0  0  0  0  0  0  0  0  0
   57.4670   29.8280   44.1450 C   0  0  0  0  0  0  0  0  0  0  0  0
   55.8890   29.7160   43.3540 Cl  0  0  0  0  0  0  0  0  0  0  0  0
   58.2740   28.7540   44.2380 C   0  0  0  0  0  0  0  0  0  0  0  0
   57.9900   27.5730   45.0810 C   0  0  0  0  0  0  0  0  0  0  0  0
   59.0390   26.7090   45.4260 C   0  0  0  0  0  0  0  0  0  0  0  0
   58.8070   25.6130   46.2620 C   0  0  0  0  0  0  0  0  0  0  0  0
   57.5240   25.3830   46.7840 C   0  0  0  0  0  0  0  0  0  0  0  0
   57.2750   24.3060   47.6900 N   0  0  0  0  0  0  0  0  0  0  0  0
   56.5990   22.7870   47.2040 S   0  0  0  0  0  0  0  0  0  0  0  0
   57.3620   21.6750   47.8740 O   0  0  0  0  0  0  0  0  0  0  0  0
   55.1650   22.7200   47.6530 O   0  0  0  0  0  0  0  0  0  0  0  0
   56.6880   22.5570   45.4680 C   0  0  0  0  0  0  0  0  0  0  0  0
   57.5480   21.6920   44.8060 C   0  0  0  0  0  0  0  0  0  0  0  0
   57.3920   21.7250   43.4150 C   0  0  0  0  0  0  0  0  0  0  0  0
   56.4130   22.6170   42.9850 C   0  0  0  0  0  0  0  0  0  0  0  0
   55.7390   23.3630   44.3370 S   0  0  0  0  0  0  0  0  0  0  0  0
   56.4860   26.2730   46.4780 C   0  0  0  0  0  0  0  0  0  0  0  0
   56.7110   27.3550   45.6230 C   0  0  0  0  0  0  0  0  0  0  0  0
   57.8520   30.6490   46.7430 H   0  0  0  0  0  0  0  0  0  0  0  0
   57.2763   33.6240   46.9480 H   0  0  0  0  0  0  0  0  0  0  0  0
   58.5787   35.5578   47.8291 H   0  0  0  0  0  0  0  0  0  0  0  0
   61.0674   35.4424   47.9523 H   0  0  0  0  0  0  0  0  0  0  0  0
   62.9390   34.9751   50.4890 H   0  0  0  0  0  0  0  0  0  0  0  0
   61.6476   34.5348   49.2741 H   0  0  0  0  0  0  0  0  0  0  0  0
   61.4614   33.3526   51.4966 H   0  0  0  0  0  0  0  0  0  0  0  0
   61.5706   32.2841   50.0422 H   0  0  0  0  0  0  0  0  0  0  0  0
   63.8439   32.9810   51.9624 H   0  0  0  0  0  0  0  0  0  0  0  0
   62.9859   31.4039   51.8346 H   0  0  0  0  0  0  0  0  0  0  0  0
   65.1657   31.4006   50.6214 H   0  0  0  0  0  0  0  0  0  0  0  0
   63.7555   31.1410   49.5229 H   0  0  0  0  0  0  0  0  0  0  0  0
   65.3407   33.7174   49.9407 H   0  0  0  0  0  0  0  0  0  0  0  0
   65.2388   32.6717   48.4473 H   0  0  0  0  0  0  0  0  0  0  0  0
   60.9612   31.4356   46.3180 H   0  0  0  0  0  0  0  0  0  0  0  0
   59.2033   28.7554   43.6495 H   0  0  0  0  0  0  0  0  0  0  0  0
   60.0508   26.8948   45.0364 H   0  0  0  0  0  0  0  0  0  0  0  0
   59.6316   24.9290   46.5115 H   0  0  0  0  0  0  0  0  0  0  0  0
   58.2762   21.0477   45.3204 H   0  0  0  0  0  0  0  0  0  0  0  0
   57.9862   21.1053   42.7273 H   0  0  0  0  0  0  0  0  0  0  0  0
   56.1278   22.8032   41.9391 H   0  0  0  0  0  0  0  0  0  0  0  0
   55.4877   26.1190   46.9136 H   0  0  0  0  0  0  0  0  0  0  0  0
   55.8856   28.0379   45.3733 H   0  0  0  0  0  0  0  0  0  0  0  0
  1  2  2  0
  2  3  1  0
  3  4  1  0
  4  5  2  0
  5  6  1  0
  6  7  2  0
  7  8  1  0
  8  9  1  0
  9 10  2  0
  9 11  2  0
  9 12  1  0
 12 13  1  0
 13 14  1  0
 14 15  1  0
 15 16  1  0
 16 17  1  0
  8 18  2  0
  2 19  1  0
 19 20  1  0
 19 21  2  3
 21 22  1  0
 22 23  2  0
 23 24  1  0
 24 25  2  0
 25 26  1  0
 26 27  1  0
 27 28  2  0
 27 29  2  0
 27 30  1  0
 30 31  2  0
 31 32  1  0
 32 33  2  0
 33 34  1  0
 25 35  1  0
 35 36  2  0
 18  4  1  0
 36 22  1  0
 17 12  1  0
 34 30  1  0
  3 37  1  0
  5 38  1  0
  6 39  1  0
  7 40  1  0
 13 41  1  0
 13 42  1  0
 14 43  1  0
 14 44  1  0
 15 45  1  0
 15 46  1  0
 16 47  1  0
 16 48  1  0
 17 49  1  0
 17 50  1  0
 18 51  1  0
 21 52  1  0
 23 53  1  0
 24 54  1  0
 31 55  1  0
 32 56  1  0
 33 57  1  0
 35 58  1  0
 36 59  1  0
M  CHG  1  26  -1
M  END
>  <UniqueID>  (4) 
4

>  <SMILES>  (4) 
O=C(Nc1cccc(S(=O)(=O)N2CCCCC2)c1)C(Cl)=Cc1ccc([N-]S(=O)(=O)c2cccs2)cc1

>  <Energy>  (4) 
108.09978942109991

>  <Genealogy>  (4) 
O=C(Nc1cccc(S(=O)(=O)N2CCCCC2)c1)C(Cl)=Cc1ccc([N-]S(=O)(=O)c2cccs2)cc1 (protonated)
O=C(Nc1cccc(S(=O)(=O)N2CCCCC2)c1)C(Cl)=Cc1ccc([N-]S(=O)(=O)c2cccs2)cc1 (3D coordinates assigned)
O=C(Nc1cccc(S(=O)(=O)N2CCCCC2)c1)C(Cl)=Cc1ccc([N-]S(=O)(=O)c2cccs2)cc1 (nonaromatic ring conformer: 108.09978942109991 kcal/mol)

>  <smiles>  (4) 
O=C(Nc1cccc(S(=O)(=O)N2CCCCC2)c1)C(Cl)=Cc1ccc(NS(=O)(=O)c2cccs2)cc1

>  <score_type>  (4) 
oracle

>  <origin>  (4) 
adg

>  <m_score__min__energy>  (4) 
-13.42

>  <m_primary>  (4) 
energy

$$$$
4:0
     RDKit          3D

 40 43  0  0  0  0  0  0  0  0999 V2000
   59.8030   33.4310   49.0070 C   0  0  0  0  0  0  0  0  0  0  0  0
   59.0610   33.1330   47.7890 N   0  0  0  0  0  0  0  0  0  0  0  0
   59.0710   33.9140   46.5940 C   0  0  0  0  0  0  0  0  0  0  0  0
   59.4560   35.1120   46.5340 O   0  0  0  0  0  0  0  0  0  0  0  0
   58.6020   33.1160   45.4690 C   0  0  0  0  0  0  0  0  0  0  0  0
   58.4160   33.4660   44.1330 C   0  0  0  0  0  0  0  0  0  0  0  0
   57.9500   32.4800   43.2500 C   0  0  0  0  0  0  0  0  0  0  0  0
   57.6800   31.1750   43.7120 C   0  0  0  0  0  0  0  0  0  0  0  0
   57.8650   30.8370   45.0720 C   0  0  0  0  0  0  0  0  0  0  0  0
   57.6350   29.5010   45.5500 N   0  0  0  0  0  0  0  0  0  0  0  0
   56.4380   28.7570   45.2670 C   0  0  0  0  0  0  0  0  0  0  0  0
   55.4210   29.3440   44.8080 O   0  0  0  0  0  0  0  0  0  0  0  0
   56.3600   27.3130   45.5370 C   0  0  0  0  0  0  0  0  0  0  0  0
   57.3520   26.3710   45.3460 C   0  0  0  0  0  0  0  0  0  0  0  0
   56.7580   25.1880   45.7490 C   0  0  0  0  0  0  0  0  0  0  0  0
   57.3560   23.8400   45.7620 C   0  0  0  0  0  0  0  0  0  0  0  0
   58.0210   23.4790   46.7680 O   0  0  0  0  0  0  0  0  0  0  0  0
   57.2070   22.9310   44.6680 N   0  0  0  0  0  0  0  0  0  0  0  0
   57.6610   21.5610   44.3650 C   0  0  0  0  0  0  0  0  0  0  0  0
   57.0250   21.4730   43.0190 C   0  0  0  0  0  0  0  0  0  0  0  0
   56.5710   22.8590   43.3390 C   0  0  0  0  0  0  0  0  0  0  0  0
   55.4950   25.4360   46.1480 N   0  0  0  0  0  0  0  0  0  0  0  0
   55.2920   26.7130   46.0080 O   0  0  0  0  0  0  0  0  0  0  0  0
   58.3410   31.8400   45.9290 C   0  0  0  0  0  0  0  0  0  0  0  0
   58.6370   31.8350   47.3650 C   0  0  0  0  0  0  0  0  0  0  0  0
   58.5460   30.8430   48.1340 O   0  0  0  0  0  0  0  0  0  0  0  0
   59.1852   33.1829   49.8827 H   0  0  0  0  0  0  0  0  0  0  0  0
   60.7267   32.8341   49.0289 H   0  0  0  0  0  0  0  0  0  0  0  0
   60.0573   34.5010   49.0289 H   0  0  0  0  0  0  0  0  0  0  0  0
   58.6284   34.4862   43.7807 H   0  0  0  0  0  0  0  0  0  0  0  0
   57.7941   32.7267   42.1894 H   0  0  0  0  0  0  0  0  0  0  0  0
   57.3214   30.4116   43.0059 H   0  0  0  0  0  0  0  0  0  0  0  0
   58.3500   29.0740   46.1780 H   0  0  0  0  0  0  0  0  0  0  0  0
   58.3721   26.5248   44.9642 H   0  0  0  0  0  0  0  0  0  0  0  0
   58.7570   21.4773   44.3223 H   0  0  0  0  0  0  0  0  0  0  0  0
   57.4022   20.7769   45.0918 H   0  0  0  0  0  0  0  0  0  0  0  0
   57.7194   21.3847   42.1705 H   0  0  0  0  0  0  0  0  0  0  0  0
   56.3503   20.6611   42.7097 H   0  0  0  0  0  0  0  0  0  0  0  0
   56.9676   23.6079   42.6377 H   0  0  0  0  0  0  0  0  0  0  0  0
   55.4897   23.0550   43.2906 H   0  0  0  0  0  0  0  0  0  0  0  0
  1  2  1  0
  2  3  1  0
  3  4  2  0
  3  5  1  0
  5  6  2  0
  6  7  1  0
  7  8  2  0
  8  9  1  0
  9 10  1  0
 10 11  1  0
 11 12  2  0
 11 13  1  0
 13 14  2  0
 14 15  1  0
 15 16  1  0
 16 17  2  0
 16 18  1  0
 18 19  1  0
 19 20  1  0
 20 21  1  0
 15 22  2  0
 22 23  1  0
  9 24  2  0
 24 25  1  0
 25 26  2  0
 25  2  1  0
 24  5  1  0
 23 13  1  0
 21 18  1  0
  1 27  1  0
  1 28  1  0
  1 29  1  0
  6 30  1  0
  7 31  1  0
  8 32  1  0
 10 33  1  0
 14 34  1  0
 19 35  1  0
 19 36  1  0
 20 37  1  0
 20 38  1  0
 21 39  1  0
 21 40  1  0
M  END
>  <UniqueID>  (5) 
5

>  <SMILES>  (5) 
CN1C(=O)c2cccc(NC(=O)c3cc(C(=O)N4CCC4)no3)c2C1=O

>  <Energy>  (5) 
150.57741090914806

>  <Genealogy>  (5) 
CN1C(=O)c2cccc(NC(=O)c3cc(C(=O)N4CCC4)no3)c2C1=O (3D coordinates assigned)
CN1C(=O)c2cccc(NC(=O)c3cc(C(=O)N4CCC4)no3)c2C1=O (nonaromatic ring conformer: 150.57741090914806 kcal/mol)

>  <smiles>  (5) 
CN1C(=O)c2cccc(NC(=O)c3cc(C(=O)N4CCC4)no3)c2C1=O

>  <score_type>  (5) 
oracle

>  <origin>  (5) 
adg

>  <m_score__min__energy>  (5) 
-9.3800000000000008

>  <m_primary>  (5) 
energy

$$$$
5:0
     RDKit          3D

 38 39  0  0  0  0  0  0  0  0999 V2000
   63.0980   31.8070   49.1970 C   0  0  0  0  0  0  0  0  0  0  0  0
   62.8210   33.1870   48.5550 C   0  0  0  0  0  0  0  0  0  0  0  0
   63.9100   33.4340   47.4870 C   0  0  0  0  0  0  0  0  0  0  0  0
   62.9410   34.2540   49.6660 C   0  0  0  0  0  0  0  0  0  0  0  0
   61.4290   33.2820   47.8980 C   0  0  0  0  0  0  0  0  0  0  0  0
   61.1930   34.0020   46.7040 C   0  0  0  0  0  0  0  0  0  0  0  0
   59.9110   34.0800   46.1520 C   0  0  0  0  0  0  0  0  0  0  0  0
   58.8300   33.4430   46.7720 C   0  0  0  0  0  0  0  0  0  0  0  0
   57.4410   33.5860   46.2100 C   0  0  0  0  0  0  0  0  0  0  0  0
   57.3750   33.0310   44.4690 S   0  0  0  0  0  0  0  0  0  0  0  0
   57.0870   31.3090   44.8680 C   0  0  0  0  0  0  0  0  0  0  0  0
   56.0300   30.6530   44.3270 N   0  0  0  0  0  0  0  0  0  0  0  0
   55.8110   29.3410   44.5950 C   0  0  0  0  0  0  0  0  0  0  0  0
   56.6800   28.6330   45.4400 C   0  0  0  0  0  0  0  0  0  0  0  0
   56.4360   27.1960   45.7190 C   0  0  0  0  0  0  0  0  0  0  0  0
   57.3830   26.3650   45.7190 O   0  0  0  0  0  0  0  0  0  0  0  0
   55.1480   26.7430   45.9860 O   0  0  0  0  0  0  0  0  0  0  0  0
   57.7680   29.3420   45.9930 C   0  0  0  0  0  0  0  0  0  0  0  0
   58.5910   28.7770   46.7600 O   0  0  0  0  0  0  0  0  0  0  0  0
   57.9400   30.6550   45.6950 N   0  0  0  0  0  0  0  0  0  0  0  0
   59.0480   32.7200   47.9510 C   0  0  0  0  0  0  0  0  0  0  0  0
   60.3260   32.6410   48.5070 C   0  0  0  0  0  0  0  0  0  0  0  0
   63.0790   31.9019   50.2927 H   0  0  0  0  0  0  0  0  0  0  0  0
   62.3254   31.0922   48.8774 H   0  0  0  0  0  0  0  0  0  0  0  0
   64.0866   31.4457   48.8774 H   0  0  0  0  0  0  0  0  0  0  0  0
   64.8675   33.6512   47.9830 H   0  0  0  0  0  0  0  0  0  0  0  0
   64.0175   32.5374   46.8588 H   0  0  0  0  0  0  0  0  0  0  0  0
   63.6202   34.2892   46.8588 H   0  0  0  0  0  0  0  0  0  0  0  0
   62.8861   33.7662   50.6504 H   0  0  0  0  0  0  0  0  0  0  0  0
   63.9037   34.7774   49.5693 H   0  0  0  0  0  0  0  0  0  0  0  0
   62.1186   34.9781   49.5693 H   0  0  0  0  0  0  0  0  0  0  0  0
   62.0307   34.5083   46.2021 H   0  0  0  0  0  0  0  0  0  0  0  0
   59.7506   34.6466   45.2229 H   0  0  0  0  0  0  0  0  0  0  0  0
   56.7471   32.9768   46.8078 H   0  0  0  0  0  0  0  0  0  0  0  0
   57.1558   34.6476   46.2493 H   0  0  0  0  0  0  0  0  0  0  0  0
   54.9467   28.8288   44.1471 H   0  0  0  0  0  0  0  0  0  0  0  0
   58.2062   32.2106   48.4427 H   0  0  0  0  0  0  0  0  0  0  0  0
   60.4774   32.0701   49.4350 H   0  0  0  0  0  0  0  0  0  0  0  0
  1  2  1  0
  2  3  1  0
  2  4  1  0
  2  5  1  0
  5  6  2  0
  6  7  1  0
  7  8  2  0
  8  9  1  0
  9 10  1  0
 10 11  1  0
 11 12  2  0
 12 13  1  0
 13 14  2  0
 14 15  1  0
 15 16  2  0
 15 17  1  0
 14 18  1  0
 18 19  2  0
 18 20  1  0
  8 21  1  0
 21 22  2  0
 22  5  1  0
 20 11  1  0
  1 23  1  0
  1 24  1  0
  1 25  1  0
  3 26  1  0
  3 27  1  0
  3 28  1  0
  4 29  1  0
  4 30  1  0
  4 31  1  0
  6 32  1  0
  7 33  1  0
  9 34  1  0
  9 35  1  0
 13 36  1  0
 21 37  1  0
 22 38  1  0
M  CHG  2  17  -1  20  -1
M  END
>  <UniqueID>  (6) 
6

>  <SMILES>  (6) 
CC(C)(C)c1ccc(CSc2ncc(C(=O)[O-])c(=O)[n-]2)cc1

>  <Energy>  (6) 
37.500199655725964

>  <Genealogy>  (6) 
CC(C)(C)c1ccc(CSc2ncc(C(=O)[O-])c(=O)[n-]2)cc1 (protonated)
CC(C)(C)c1ccc(CSc2ncc(C(=O)[O-])c(=O)[n-]2)cc1 (3D coordinates assigned)
CC(C)(C)c1ccc(CSc2ncc(C(=O)[O-])c(=O)[n-]2)cc1 (optimized conformer: 37.500199655725964 kcal/mol)

>  <smiles>  (6) 
CC(C)(C)c1ccc(CSc2ncc(C(=O)O)c(=O)[nH]2)cc1

>  <score_type>  (6) 
oracle

>  <origin>  (6) 
adg

>  <m_score__min__energy>  (6) 
-11.83

>  <m_primary>  (6) 
energy

$$$$
6:0
     RDKit          3D

 54 56  0  0  0  0  0  0  0  0999 V2000
   61.2080   30.2130   50.3400 C   0  0  0  0  0  0  0  0  0  0  0  0
   60.8520   30.8780   49.1320 O   0  0  0  0  0  0  0  0  0  0  0  0
   60.3120   30.2390   48.0060 C   0  0  0  0  0  0  0  0  0  0  0  0
   59.0870   29.5460   48.0460 C   0  0  0  0  0  0  0  0  0  0  0  0
   58.5900   28.9280   46.8940 C   0  0  0  0  0  0  0  0  0  0  0  0
   59.2950   29.0110   45.6820 C   0  0  0  0  0  0  0  0  0  0  0  0
   58.8120   28.3270   44.4630 C   0  0  0  0  0  0  0  0  0  0  0  0
   57.5300   28.2480   44.0750 C   0  0  0  0  0  0  0  0  0  0  0  0
   56.6490   29.3960   43.7920 C   0  0  0  0  0  0  0  0  0  0  0  0
   55.9440   29.4260   42.7470 O   0  0  0  0  0  0  0  0  0  0  0  0
   56.5260   30.4290   44.7760 N   0  0  0  0  0  0  0  0  0  0  0  0
   57.3200   31.6220   44.8560 C   0  0  0  0  0  0  0  0  0  0  0  0
   57.7280   32.3220   43.7050 C   0  0  0  0  0  0  0  0  0  0  0  0
   58.5310   33.4610   43.8240 C   0  0  0  0  0  0  0  0  0  0  0  0
   58.9410   33.9020   45.0840 C   0  0  0  0  0  0  0  0  0  0  0  0
   58.5540   33.2050   46.2340 C   0  0  0  0  0  0  0  0  0  0  0  0
   59.1100   33.7490   47.8150 S   0  0  0  0  0  0  0  0  0  0  0  0
   58.2920   33.1000   48.8980 O   0  0  0  0  0  0  0  0  0  0  0  0
   58.9250   35.2390   47.9050 O   0  0  0  0  0  0  0  0  0  0  0  0
   60.7970   33.3500   48.0190 N   0  0  0  0  0  0  0  0  0  0  0  0
   61.5030   33.4240   46.7180 C   0  0  0  0  0  0  0  0  0  0  0  0
   62.9960   33.8020   46.8520 C   0  0  0  0  0  0  0  0  0  0  0  0
   63.5920   33.3330   48.1180 N   0  0  0  0  0  0  0  0  0  0  0  0
   63.8120   31.8760   48.1150 C   0  0  0  0  0  0  0  0  0  0  0  0
   62.8560   33.7980   49.3200 C   0  0  0  0  0  0  0  0  0  0  0  0
   61.4080   34.2340   49.0250 C   0  0  0  0  0  0  0  0  0  0  0  0
   57.7540   32.0590   46.1140 C   0  0  0  0  0  0  0  0  0  0  0  0
   60.5300   29.6740   45.6530 C   0  0  0  0  0  0  0  0  0  0  0  0
   61.0270   30.2920   46.8040 C   0  0  0  0  0  0  0  0  0  0  0  0
   60.8845   30.8173   51.2003 H   0  0  0  0  0  0  0  0  0  0  0  0
   60.7154   29.2301   50.3764 H   0  0  0  0  0  0  0  0  0  0  0  0
   62.2991   30.0779   50.3764 H   0  0  0  0  0  0  0  0  0  0  0  0
   58.5190   29.4905   48.9864 H   0  0  0  0  0  0  0  0  0  0  0  0
   57.6410   28.3734   46.9374 H   0  0  0  0  0  0  0  0  0  0  0  0
   59.5647   27.8439   43.8226 H   0  0  0  0  0  0  0  0  0  0  0  0
   57.1001   27.2422   43.9582 H   0  0  0  0  0  0  0  0  0  0  0  0
   57.4148   31.9726   42.7101 H   0  0  0  0  0  0  0  0  0  0  0  0
   58.8403   34.0108   42.9229 H   0  0  0  0  0  0  0  0  0  0  0  0
   59.5701   34.8000   45.1727 H   0  0  0  0  0  0  0  0  0  0  0  0
   60.8300   32.3660   48.3760 H   0  0  0  0  0  0  0  0  0  0  0  0
   61.4344   32.4419   46.2274 H   0  0  0  0  0  0  0  0  0  0  0  0
   61.0182   34.2168   46.1293 H   0  0  0  0  0  0  0  0  0  0  0  0
   63.5493   33.3517   46.0147 H   0  0  0  0  0  0  0  0  0  0  0  0
   63.0625   34.8999   46.8407 H   0  0  0  0  0  0  0  0  0  0  0  0
   63.8671   31.5114   49.1513 H   0  0  0  0  0  0  0  0  0  0  0  0
   62.9785   31.3804   47.5957 H   0  0  0  0  0  0  0  0  0  0  0  0
   64.7547   31.6486   47.5957 H   0  0  0  0  0  0  0  0  0  0  0  0
   62.8300   32.9768   50.0514 H   0  0  0  0  0  0  0  0  0  0  0  0
   63.3878   34.6816   49.7027 H   0  0  0  0  0  0  0  0  0  0  0  0
   60.8197   34.1867   49.9533 H   0  0  0  0  0  0  0  0  0  0  0  0
   61.4192   35.2623   48.6344 H   0  0  0  0  0  0  0  0  0  0  0  0
   57.4651   31.4988   47.0155 H   0  0  0  0  0  0  0  0  0  0  0  0
   61.1109   29.7080   44.7195 H   0  0  0  0  0  0  0  0  0  0  0  0
   61.9886   30.8247   46.7648 H   0  0  0  0  0  0  0  0  0  0  0  0
  1  2  1  0
  2  3  1  0
  3  4  2  0
  4  5  1  0
  5  6  2  0
  6  7  1  0
  7  8  2  3
  8  9  1  0
  9 10  2  0
  9 11  1  0
 11 12  1  0
 12 13  2  0
 13 14  1  0
 14 15  2  0
 15 16  1  0
 16 17  1  0
 17 18  2  0
 17 19  2  0
 17 20  1  0
 20 21  1  0
 21 22  1  0
 22 23  1  0
 23 24  1  0
 23 25  1  0
 25 26  1  0
 16 27  2  0
  6 28  1  0
 28 29  2  0
 29  3  1  0
 27 12  1  0
 26 20  1  0
  1 30  1  0
  1 31  1  0
  1 32  1  0
  4 33  1  0
  5 34  1  0
  7 35  1  0
  8 36  1  0
 13 37  1  0
 14 38  1  0
 15 39  1  0
 20 40  1  0
 21 41  1  0
 21 42  1  0
 22 43  1  0
 22 44  1  0
 24 45  1  0
 24 46  1  0
 24 47  1  0
 25 48  1  0
 25 49  1  0
 26 50  1  0
 26 51  1  0
 27 52  1  0
 28 53  1  0
 29 54  1  0
M  CHG  2  11  -1  20   1
M  END
>  <UniqueID>  (7) 
7

>  <SMILES>  (7) 
COc1ccc(C=CC(=O)[N-]c2cccc(S(=O)(=O)[NH+]3CCN(C)CC3)c2)cc1

>  <Energy>  (7) 
74.7305223833433

>  <Genealogy>  (7) 
COc1ccc(C=CC(=O)[N-]c2cccc(S(=O)(=O)[NH+]3CCN(C)CC3)c2)cc1 (protonated)
COc1ccc(C=CC(=O)[N-]c2cccc(S(=O)(=O)[NH+]3CCN(C)CC3)c2)cc1 (3D coordinates assigned)
COc1ccc(C=CC(=O)[N-]c2cccc(S(=O)(=O)[NH+]3CCN(C)CC3)c2)cc1 (nonaromatic ring conformer: 74.7305223833433 kcal/mol)

>  <smiles>  (7) 
COc1ccc(C=CC(=O)Nc2cccc(S(=O)(=O)N3CCN(C)CC3)c2)cc1

>  <score_type>  (7) 
oracle

>  <origin>  (7) 
adg

>  <m_score__min__energy>  (7) 
-8.7799999999999994

>  <m_primary>  (7) 
energy

$$$$
7:0
     RDKit          3D

 60 63  0  0  0  0  0  0  0  0999 V2000
   58.5290   31.8350   47.1000 C   0  0  0  0  0  0  0  0  0  0  0  0
   57.7690   30.8960   46.3450 O   0  0  0  0  0  0  0  0  0  0  0  0
   57.5070   31.0060   44.9670 C   0  0  0  0  0  0  0  0  0  0  0  0
   58.1420   31.9830   44.1600 C   0  0  0  0  0  0  0  0  0  0  0  0
   57.8820   32.0440   42.7870 C   0  0  0  0  0  0  0  0  0  0  0  0
   56.9870   31.1370   42.2040 C   0  0  0  0  0  0  0  0  0  0  0  0
   56.3450   30.1750   42.9900 C   0  0  0  0  0  0  0  0  0  0  0  0
   56.5900   30.1060   44.3730 C   0  0  0  0  0  0  0  0  0  0  0  0
   55.9820   28.9770   45.1680 C   0  0  0  0  0  0  0  0  0  0  0  0
   56.8730   27.8220   45.1110 N   0  0  0  0  0  0  0  0  0  0  0  0
   56.5440   26.5140   45.5940 C   0  0  0  0  0  0  0  0  0  0  0  0
   55.4440   26.3210   46.1810 O   0  0  0  0  0  0  0  0  0  0  0  0
   57.4990   25.3880   45.4300 C   0  0  0  0  0  0  0  0  0  0  0  0
   57.0510   24.2030   44.8150 C   0  0  0  0  0  0  0  0  0  0  0  0
   57.8860   23.0780   44.7200 C   0  0  0  0  0  0  0  0  0  0  0  0
   57.2980   21.5950   43.9620 S   0  0  0  0  0  0  0  0  0  0  0  0
   55.9880   21.8760   43.2750 O   0  0  0  0  0  0  0  0  0  0  0  0
   58.2840   21.1550   42.9130 O   0  0  0  0  0  0  0  0  0  0  0  0
   57.0820   20.3040   45.1300 N   0  0  0  0  0  0  0  0  0  0  0  0
   55.6750   19.8890   45.2310 C   0  0  0  0  0  0  0  0  0  0  0  0
   55.0740   20.5500   46.4670 C   0  0  0  0  0  0  0  0  0  0  0  0
   56.2380   21.1640   47.2240 C   0  0  0  0  0  0  0  0  0  0  0  0
   57.4890   20.7200   46.4800 C   0  0  0  0  0  0  0  0  0  0  0  0
   59.1810   23.1320   45.2440 C   0  0  0  0  0  0  0  0  0  0  0  0
   59.6500   24.3040   45.8370 C   0  0  0  0  0  0  0  0  0  0  0  0
   58.8280   25.4380   45.9280 C   0  0  0  0  0  0  0  0  0  0  0  0
   59.3690   26.6340   46.5020 N   0  0  0  0  0  0  0  0  0  0  0  0
   59.4080   26.8800   47.9300 C   0  0  0  0  0  0  0  0  0  0  0  0
   60.1210   28.2200   48.0930 C   0  0  0  0  0  0  0  0  0  0  0  0
   60.2190   28.8290   46.6920 C   0  0  0  0  0  0  0  0  0  0  0  0
   60.0110   27.6750   45.7190 C   0  0  0  0  0  0  0  0  0  0  0  0
   58.3788   31.6494   48.1738 H   0  0  0  0  0  0  0  0  0  0  0  0
   59.5956   31.7253   46.8546 H   0  0  0  0  0  0  0  0  0  0  0  0
   58.1994   32.8554   46.8546 H   0  0  0  0  0  0  0  0  0  0  0  0
   58.8433   32.6973   44.6161 H   0  0  0  0  0  0  0  0  0  0  0  0
   58.3796   32.8031   42.1656 H   0  0  0  0  0  0  0  0  0  0  0  0
   56.7885   31.1820   41.1230 H   0  0  0  0  0  0  0  0  0  0  0  0
   55.6437   29.4676   42.5234 H   0  0  0  0  0  0  0  0  0  0  0  0
   55.8517   29.2910   46.2141 H   0  0  0  0  0  0  0  0  0  0  0  0
   55.0015   28.7112   44.7461 H   0  0  0  0  0  0  0  0  0  0  0  0
   56.0321   24.1580   44.4030 H   0  0  0  0  0  0  0  0  0  0  0  0
   57.6680   19.4940   44.8180 H   0  0  0  0  0  0  0  0  0  0  0  0
   55.1264   20.2091   44.3329 H   0  0  0  0  0  0  0  0  0  0  0  0
   55.6053   18.7942   45.3122 H   0  0  0  0  0  0  0  0  0  0  0  0
   54.3565   21.3299   46.1721 H   0  0  0  0  0  0  0  0  0  0  0  0
   54.5300   19.8226   47.0874 H   0  0  0  0  0  0  0  0  0  0  0  0
   56.1602   22.2612   47.2239 H   0  0  0  0  0  0  0  0  0  0  0  0
   56.2543   20.8430   48.2760 H   0  0  0  0  0  0  0  0  0  0  0  0
   58.2027   21.5546   46.4157 H   0  0  0  0  0  0  0  0  0  0  0  0
   57.9770   19.8880   47.0089 H   0  0  0  0  0  0  0  0  0  0  0  0
   59.8322   22.2472   45.1884 H   0  0  0  0  0  0  0  0  0  0  0  0
   60.6740   24.3399   46.2372 H   0  0  0  0  0  0  0  0  0  0  0  0
   58.3882   26.9348   48.3388 H   0  0  0  0  0  0  0  0  0  0  0  0
   59.9262   26.0734   48.4693 H   0  0  0  0  0  0  0  0  0  0  0  0
   59.5428   28.8807   48.7557 H   0  0  0  0  0  0  0  0  0  0  0  0
   61.1165   28.0906   48.5427 H   0  0  0  0  0  0  0  0  0  0  0  0
   59.4400   29.5929   46.5516 H   0  0  0  0  0  0  0  0  0  0  0  0
   61.1898   29.3212   46.5328 H   0  0  0  0  0  0  0  0  0  0  0  0
   59.3651   27.9848   44.8843 H   0  0  0  0  0  0  0  0  0  0  0  0
   60.9576   27.3334   45.2749 H   0  0  0  0  0  0  0  0  0  0  0  0
  1  2  1  0
  2  3  1  0
  3  4  2  0
  4  5  1  0
  5  6  2  0
  6  7  1  0
  7  8  2  0
  8  9  1  0
  9 10  1  0
 10 11  1  0
 11 12  2  0
 11 13  1  0
 13 14  2  0
 14 15  1  0
 15 16  1  0
 16 17  2  0
 16 18  2  0
 16 19  1  0
 19 20  1  0
 20 21  1  0
 21 22  1  0
 22 23  1  0
 15 24  2  0
 24 25  1  0
 25 26  2  0
 26 27  1  0
 27 28  1  0
 28 29  1  0
 29 30  1  0
 30 31  1  0
  8  3  1  0
 26 13  1  0
 31 27  1  0
 23 19  1  0
  1 32  1  0
  1 33  1  0
  1 34  1  0
  4 35  1  0
  5 36  1  0
  6 37  1  0
  7 38  1  0
  9 39  1  0
  9 40  1  0
 14 41  1  0
 19 42  1  0
 20 43  1  0
 20 44  1  0
 21 45  1  0
 21 46  1  0
 22 47  1  0
 22 48  1  0
 23 49  1  0
 23 50  1  0
 24 51  1  0
 25 52  1  0
 28 53  1  0
 28 54  1  0
 29 55  1  0
 29 56  1  0
 30 57  1  0
 30 58  1  0
 31 59  1  0
 31 60  1  0
M  CHG  2  10  -1  19   1
M  END
>  <UniqueID>  (8) 
8

>  <SMILES>  (8) 
COc1ccccc1C[N-]C(=O)c1cc(S(=O)(=O)[NH+]2CCCC2)ccc1N1CCCC1

>  <Energy>  (8) 
68.9310139232308

>  <Genealogy>  (8) 
COc1ccccc1C[N-]C(=O)c1cc(S(=O)(=O)[NH+]2CCCC2)ccc1N1CCCC1 (protonated)
COc1ccccc1C[N-]C(=O)c1cc(S(=O)(=O)[NH+]2CCCC2)ccc1N1CCCC1 (3D coordinates assigned)
COc1ccccc1C[N-]C(=O)c1cc(S(=O)(=O)[NH+]2CCCC2)ccc1N1CCCC1 (nonaromatic ring conformer: 68.9310139232308 kcal/mol)

>  <smiles>  (8) 
COc1ccccc1CNC(=O)c1cc(S(=O)(=O)N2CCCC2)ccc1N1CCCC1

>  <score_type>  (8) 
oracle

>  <origin>  (8) 
adg

>  <m_score__min__energy>  (8) 
-9.4000000000000004

>  <m_primary>  (8) 
energy

$$$$
8:0
     RDKit          3D

 33 34  0  0  0  0  0  0  0  0999 V2000
   60.6630   34.5740   47.0030 C   0  0  0  0  0  0  0  0  0  0  0  0
   59.5590   33.7770   46.3730 C   0  0  0  0  0  0  0  0  0  0  0  0
   59.1520   32.5590   46.9340 C   0  0  0  0  0  0  0  0  0  0  0  0
   58.1010   31.8360   46.3650 C   0  0  0  0  0  0  0  0  0  0  0  0
   57.4400   32.3240   45.2250 C   0  0  0  0  0  0  0  0  0  0  0  0
   56.3350   31.6290   44.6320 N   0  0  0  0  0  0  0  0  0  0  0  0
   56.2580   30.2200   44.3790 C   0  0  0  0  0  0  0  0  0  0  0  0
   55.1810   29.6930   43.9960 O   0  0  0  0  0  0  0  0  0  0  0  0
   57.4420   29.3560   44.6690 C   0  0  0  0  0  0  0  0  0  0  0  0
   56.9980   28.0310   45.0910 N   0  0  0  0  0  0  0  0  0  0  0  0
   57.7070   27.2590   46.0760 C   0  0  0  0  0  0  0  0  0  0  0  0
   58.7140   27.7540   46.6520 O   0  0  0  0  0  0  0  0  0  0  0  0
   57.2540   25.8990   46.4490 C   0  0  0  0  0  0  0  0  0  0  0  0
   58.1920   24.9350   46.8450 C   0  0  0  0  0  0  0  0  0  0  0  0
   57.7900   23.6840   47.1870 N   0  0  0  0  0  0  0  0  0  0  0  0
   56.4780   23.3380   47.1470 C   0  0  0  0  0  0  0  0  0  0  0  0
   56.1250   22.1770   47.4740 O   0  0  0  0  0  0  0  0  0  0  0  0
   55.5490   24.2430   46.7490 N   0  0  0  0  0  0  0  0  0  0  0  0
   55.9030   25.5060   46.3930 C   0  0  0  0  0  0  0  0  0  0  0  0
   55.0120   26.3000   45.9940 O   0  0  0  0  0  0  0  0  0  0  0  0
   57.8180   33.5620   44.6930 C   0  0  0  0  0  0  0  0  0  0  0  0
   58.8730   34.2830   45.2580 C   0  0  0  0  0  0  0  0  0  0  0  0
   60.5797   34.5139   48.0982 H   0  0  0  0  0  0  0  0  0  0  0  0
   61.6351   34.1680   46.6864 H   0  0  0  0  0  0  0  0  0  0  0  0
   60.5836   35.6244   46.6864 H   0  0  0  0  0  0  0  0  0  0  0  0
   59.6629   32.1702   47.8272 H   0  0  0  0  0  0  0  0  0  0  0  0
   57.7893   30.8802   46.8114 H   0  0  0  0  0  0  0  0  0  0  0  0
   58.0568   29.2629   43.7616 H   0  0  0  0  0  0  0  0  0  0  0  0
   58.0355   29.8130   45.4746 H   0  0  0  0  0  0  0  0  0  0  0  0
   56.0560   27.7130   44.7760 H   0  0  0  0  0  0  0  0  0  0  0  0
   59.2606   25.1939   46.8788 H   0  0  0  0  0  0  0  0  0  0  0  0
   57.2809   33.9702   43.8242 H   0  0  0  0  0  0  0  0  0  0  0  0
   59.1672   35.2514   44.8271 H   0  0  0  0  0  0  0  0  0  0  0  0
  1  2  1  0
  2  3  2  0
  3  4  1  0
  4  5  2  0
  5  6  1  0
  6  7  1  0
  7  8  2  0
  7  9  1  0
  9 10  1  0
 10 11  1  0
 11 12  2  0
 11 13  1  0
 13 14  2  0
 14 15  1  0
 15 16  1  0
 16 17  2  0
 16 18  1  0
 18 19  1  0
 19 20  2  0
  5 21  1  0
 21 22  2  0
 22  2  1  0
 19 13  1  0
  1 23  1  0
  1 24  1  0
  1 25  1  0
  3 26  1  0
  4 27  1  0
  9 28  1  0
  9 29  1  0
 10 30  1  0
 14 31  1  0
 21 32  1  0
 22 33  1  0
M  CHG  3   6  -1  15  -1  18  -1
M  END
>  <UniqueID>  (9) 
9

>  <SMILES>  (9) 
Cc1ccc([N-]C(=O)CNC(=O)c2c[n-]c(=O)[n-]c2=O)cc1

>  <Energy>  (9) 
39.07294686230892

>  <Genealogy>  (9) 
Cc1ccc([N-]C(=O)CNC(=O)c2c[n-]c(=O)[n-]c2=O)cc1 (protonated)
Cc1ccc([N-]C(=O)CNC(=O)c2c[n-]c(=O)[n-]c2=O)cc1 (3D coordinates assigned)
Cc1ccc([N-]C(=O)CNC(=O)c2c[n-]c(=O)[n-]c2=O)cc1 (optimized conformer: 39.07294686230892 kcal/mol)

>  <smiles>  (9) 
Cc1ccc(NC(=O)CNC(=O)c2c[nH]c(=O)[nH]c2=O)cc1

>  <score_type>  (9) 
oracle

>  <origin>  (9) 
adg

>  <m_score__min__energy>  (9) 
-12.74

>  <m_primary>  (9) 
energy

$$$$
9:0
     RDKit          3D

 59 62  0  0  0  0  0  0  0  0999 V2000
   59.0851   35.0962   44.5846 H   0  0  0  0  0  0  0  0  0  0  0  0
   58.8140   34.0800   44.9070 C   0  0  0  0  0  0  0  0  0  0  0  0
   57.9730   33.3310   44.1470 N   0  0  0  0  0  0  0  0  0  0  0  0
   57.6140   32.0640   44.4900 C   0  0  0  0  0  0  0  0  0  0  0  0
   56.7590   31.4370   43.7330 N   0  0  0  0  0  0  0  0  0  0  0  0
   55.8490   30.3570   44.1230 C   0  0  0  0  0  0  0  0  0  0  0  0
   55.0990   30.2149   43.3310 H   0  0  0  0  0  0  0  0  0  0  0  0
   55.3618   30.6336   45.0696 H   0  0  0  0  0  0  0  0  0  0  0  0
   56.6100   29.0490   44.3310 C   0  0  0  0  0  0  0  0  0  0  0  0
   57.6034   29.2628   44.7522 H   0  0  0  0  0  0  0  0  0  0  0  0
   56.7311   28.5313   43.3680 H   0  0  0  0  0  0  0  0  0  0  0  0
   55.8580   28.2060   45.2540 N   0  0  0  0  0  0  0  0  0  0  0  0
   56.3670   27.0270   45.8910 C   0  0  0  0  0  0  0  0  0  0  0  0
   55.5530   26.1350   46.2490 O   0  0  0  0  0  0  0  0  0  0  0  0
   57.8160   26.8060   46.0950 C   0  0  0  0  0  0  0  0  0  0  0  0
   58.6640   27.8730   46.4460 C   0  0  0  0  0  0  0  0  0  0  0  0
   58.2440   28.8776   46.6023 H   0  0  0  0  0  0  0  0  0  0  0  0
   60.0380   27.6620   46.5970 C   0  0  0  0  0  0  0  0  0  0  0  0
   60.6916   28.4944   46.8967 H   0  0  0  0  0  0  0  0  0  0  0  0
   60.5820   26.3960   46.3680 C   0  0  0  0  0  0  0  0  0  0  0  0
   61.9170   26.1980   46.4980 F   0  0  0  0  0  0  0  0  0  0  0  0
   59.7520   25.3370   45.9950 C   0  0  0  0  0  0  0  0  0  0  0  0
   60.1808   24.3406   45.8127 H   0  0  0  0  0  0  0  0  0  0  0  0
   58.3760   25.5420   45.8530 C   0  0  0  0  0  0  0  0  0  0  0  0
   57.7279   24.7066   45.5495 H   0  0  0  0  0  0  0  0  0  0  0  0
   58.1510   31.4930   45.6620 C   0  0  0  0  0  0  0  0  0  0  0  0
   57.8885   30.4640   45.9489 H   0  0  0  0  0  0  0  0  0  0  0  0
   59.0180   32.2450   46.4540 C   0  0  0  0  0  0  0  0  0  0  0  0
   59.4534   31.8010   47.3614 H   0  0  0  0  0  0  0  0  0  0  0  0
   59.3380   33.5630   46.1010 C   0  0  0  0  0  0  0  0  0  0  0  0
   60.1760   34.3780   47.0170 C   0  0  0  0  0  0  0  0  0  0  0  0
   59.9740   35.6250   47.0550 O   0  0  0  0  0  0  0  0  0  0  0  0
   61.2450   33.8140   47.8230 N   0  0  1  0  0  0  0  0  0  0  0  0
   60.9540   32.8340   48.0540 H   0  0  0  0  0  0  0  0  0  0  0  0
   62.5070   33.7220   47.0430 C   0  0  0  0  0  0  0  0  0  0  0  0
   62.5124   34.5274   46.2938 H   0  0  0  0  0  0  0  0  0  0  0  0
   62.5302   32.7231   46.5830 H   0  0  0  0  0  0  0  0  0  0  0  0
   63.7790   33.8520   47.9090 C   0  0  0  0  0  0  0  0  0  0  0  0
   64.0096   34.9188   48.0457 H   0  0  0  0  0  0  0  0  0  0  0  0
   64.6001   33.3340   47.3918 H   0  0  0  0  0  0  0  0  0  0  0  0
   63.5960   33.1990   49.2940 C   0  0  1  0  0  0  0  0  0  0  0  0
   63.4155   32.1266   49.1288 H   0  0  0  0  0  0  0  0  0  0  0  0
   64.8560   33.3480   50.1280 C   0  0  0  0  0  0  0  0  0  0  0  0
   66.0250   32.6350   49.7990 C   0  0  0  0  0  0  0  0  0  0  0  0
   66.0207   31.9441   48.9431 H   0  0  0  0  0  0  0  0  0  0  0  0
   67.1900   32.7990   50.5520 C   0  0  0  0  0  0  0  0  0  0  0  0
   68.1041   32.2525   50.2765 H   0  0  0  0  0  0  0  0  0  0  0  0
   67.1950   33.6560   51.6540 C   0  0  0  0  0  0  0  0  0  0  0  0
   68.1097   33.7742   52.2534 H   0  0  0  0  0  0  0  0  0  0  0  0
   66.0400   34.3640   51.9970 C   0  0  0  0  0  0  0  0  0  0  0  0
   66.0460   35.0379   52.8664 H   0  0  0  0  0  0  0  0  0  0  0  0
   64.8760   34.2160   51.2350 C   0  0  0  0  0  0  0  0  0  0  0  0
   63.9713   34.7815   51.5030 H   0  0  0  0  0  0  0  0  0  0  0  0
   62.3510   33.7460   50.0450 C   0  0  0  0  0  0  0  0  0  0  0  0
   62.6897   34.4235   50.8427 H   0  0  0  0  0  0  0  0  0  0  0  0
   61.8012   32.8847   50.4523 H   0  0  0  0  0  0  0  0  0  0  0  0
   61.3970   34.5130   49.1200 C   0  0  0  0  0  0  0  0  0  0  0  0
   61.8006   35.5205   48.9413 H   0  0  0  0  0  0  0  0  0  0  0  0
   60.4112   34.5752   49.6042 H   0  0  0  0  0  0  0  0  0  0  0  0
  1  2  1  0
  2  3  1  0
  3  4  1  0
  4  5  2  0
  5  6  1  0
  6  7  1  0
  6  8  1  0
  6  9  1  0
  9 10  1  0
  9 11  1  0
  9 12  1  0
 12 13  1  0
 13 14  2  0
 13 15  1  0
 15 16  2  0
 16 17  1  0
 16 18  1  0
 18 19  1  0
 18 20  2  0
 20 21  1  0
 20 22  1  0
 22 23  1  0
 22 24  2  0
 24 25  1  0
  4 26  1  0
 26 27  1  0
 26 28  2  0
 28 29  1  0
 28 30  1  0
 30 31  1  0
 31 32  2  0
 31 33  1  0
 33 34  1  6
 33 35  1  0
 35 36  1  0
 35 37  1  0
 35 38  1  0
 38 39  1  0
 38 40  1  0
 38 41  1  0
 41 42  1  1
 41 43  1  0
 43 44  2  0
 44 45  1  0
 44 46  1  0
 46 47  1  0
 46 48  2  0
 48 49  1  0
 48 50  1  0
 50 51  1  0
 50 52  2  0
 52 53  1  0
 41 54  1  0
 54 55  1  0
 54 56  1  0
 54 57  1  0
 57 58  1  0
 57 59  1  0
 30  2  2  0
 57 33  1  0
 24 15  1  0
 52 43  1  0
M  CHG  3   3  -1  12  -1  33   1
M  END
>  <UniqueID>  (10) 
10

>  <SMILES>  (10) 
O=C([N-]CC/N=c1\ccc(C(=O)[NH+]2CCC(c3ccccc3)CC2)c[n-]1)c1ccc(F)cc1

>  <Energy>  (10) 
86.0760533841774

>  <Genealogy>  (10) 
O=C([N-]CCN=c1ccc(C(=O)[NH+]2CCC(c3ccccc3)CC2)c[n-]1)c1ccc(F)cc1 (protonated)
O=C([N-]CC/N=c1\ccc(C(=O)[NH+]2CCC(c3ccccc3)CC2)c[n-]1)c1ccc(F)cc1 (cis-trans isomerization)
O=C([N-]CC/N=c1\ccc(C(=O)[NH+]2CCC(c3ccccc3)CC2)c[n-]1)c1ccc(F)cc1 (3D coordinates assigned)
O=C([N-]CC/N=c1\ccc(C(=O)[NH+]2CCC(c3ccccc3)CC2)c[n-]1)c1ccc(F)cc1 (nonaromatic ring conformer: 86.0760533841774 kcal/mol)

>  <smiles>  (10) 
O=C(NCCN=c1ccc(C(=O)N2CCC(c3ccccc3)CC2)c[nH]1)c1ccc(F)cc1

>  <score_type>  (10) 
oracle

>  <origin>  (10) 
adg

>  <m_score__min__energy>  (10) 
-11.91

>  <m_primary>  (10) 
energy

$$$$
10:0
     RDKit          3D

 38 40  0  0  0  0  0  0  0  0999 V2000
   53.7480   25.9810   46.3690 H   0  0  0  0  0  0  0  0  0  0  0  0
   54.6300   26.2870   45.9780 O   0  0  0  0  0  0  0  0  0  0  0  0
   55.8210   25.6310   46.2770 C   0  0  0  0  0  0  0  0  0  0  0  0
   55.8890   24.5340   47.0480 N   0  0  0  0  0  0  0  0  0  0  0  0
   57.2080   24.2440   47.0400 C   0  0  0  0  0  0  0  0  0  0  0  0
   57.6890   23.2590   47.6560 O   0  0  0  0  0  0  0  0  0  0  0  0
   57.9680   25.0870   46.3090 N   0  0  0  0  0  0  0  0  0  0  0  0
   57.0800   25.9870   45.8460 C   0  0  0  0  0  0  0  0  0  0  0  0
   57.4000   27.0450   44.8750 C   0  0  0  0  0  0  0  0  0  0  0  0
   57.4249   26.7626   43.8122 H   0  0  0  0  0  0  0  0  0  0  0  0
   57.6650   28.3300   45.1780 C   0  0  0  0  0  0  0  0  0  0  0  0
   58.8670   28.7480   45.7230 C   0  0  0  0  0  0  0  0  0  0  0  0
   59.7508   28.1259   45.9276 H   0  0  0  0  0  0  0  0  0  0  0  0
   58.7340   30.1060   45.9590 C   0  0  0  0  0  0  0  0  0  0  0  0
   59.7380   31.0100   46.5690 C   0  0  0  0  0  0  0  0  0  0  0  0
   59.6270   32.4070   46.4720 C   0  0  0  0  0  0  0  0  0  0  0  0
   58.7767   32.8503   45.9330 H   0  0  0  0  0  0  0  0  0  0  0  0
   60.5870   33.2380   47.0540 C   0  0  0  0  0  0  0  0  0  0  0  0
   60.4845   34.3296   46.9655 H   0  0  0  0  0  0  0  0  0  0  0  0
   61.6850   32.6980   47.7530 C   0  0  0  0  0  0  0  0  0  0  0  0
   62.6830   33.5620   48.3590 N   0  0  0  0  0  0  0  0  0  0  0  0
   64.0920   33.4770   47.9510 C   0  0  0  0  0  0  0  0  0  0  0  0
   64.7311   33.4384   48.8455 H   0  0  0  0  0  0  0  0  0  0  0  0
   64.2458   32.5679   47.3510 H   0  0  0  0  0  0  0  0  0  0  0  0
   64.3540   34.3610   47.3510 H   0  0  0  0  0  0  0  0  0  0  0  0
   62.3020   34.5340   49.3900 C   0  0  0  0  0  0  0  0  0  0  0  0
   62.4727   34.0984   50.3856 H   0  0  0  0  0  0  0  0  0  0  0  0
   62.9100   35.4439   49.2787 H   0  0  0  0  0  0  0  0  0  0  0  0
   61.2376   34.7884   49.2787 H   0  0  0  0  0  0  0  0  0  0  0  0
   61.7890   31.2960   47.8470 C   0  0  0  0  0  0  0  0  0  0  0  0
   62.6364   30.8493   48.3876 H   0  0  0  0  0  0  0  0  0  0  0  0
   60.8290   30.4660   47.2620 C   0  0  0  0  0  0  0  0  0  0  0  0
   60.9302   29.3739   47.3460 H   0  0  0  0  0  0  0  0  0  0  0  0
   57.5500   30.5100   45.5540 O   0  0  0  0  0  0  0  0  0  0  0  0
   56.8890   29.4890   45.0570 C   0  0  0  0  0  0  0  0  0  0  0  0
   55.6990   29.6440   44.4750 C   0  0  0  0  0  0  0  0  0  0  0  0
   55.1681   28.7710   44.0675 H   0  0  0  0  0  0  0  0  0  0  0  0
   55.2484   30.6449   44.4025 H   0  0  0  0  0  0  0  0  0  0  0  0
  1  2  1  0
  2  3  1  0
  3  4  1  0
  4  5  1  0
  5  6  2  0
  5  7  1  0
  7  8  1  0
  8  9  1  0
  9 10  1  0
  9 11  2  0
 11 12  1  0
 12 13  1  0
 12 14  2  0
 14 15  1  0
 15 16  2  0
 16 17  1  0
 16 18  1  0
 18 19  1  0
 18 20  2  0
 20 21  1  0
 21 22  1  0
 22 23  1  0
 22 24  1  0
 22 25  1  0
 21 26  1  0
 26 27  1  0
 26 28  1  0
 26 29  1  0
 20 30  1  0
 30 31  1  0
 30 32  2  0
 32 33  1  0
 14 34  1  0
 34 35  1  0
 35 36  2  0
 36 37  1  0
 36 38  1  0
  8  3  2  0
 35 11  1  0
 32 15  1  0
M  CHG  2   4  -1   7  -1
M  END
>  <UniqueID>  (11) 
11

>  <SMILES>  (11) 
C=c1oc(-c2ccc(N(C)C)cc2)c/c1=C/c1[n-]c(=O)[n-]c1O

>  <Energy>  (11) 
109.59527267994957

>  <Genealogy>  (11) 
C=c1oc(-c2ccc(N(C)C)cc2)cc1=Cc1[n-]c(=O)[n-]c1O (protonated)
C=c1oc(-c2ccc(N(C)C)cc2)c/c1=C/c1[n-]c(=O)[n-]c1O (cis-trans isomerization)
C=c1oc(-c2ccc(N(C)C)cc2)c/c1=C/c1[n-]c(=O)[n-]c1O (3D coordinates assigned)
C=c1oc(-c2ccc(N(C)C)cc2)c/c1=C/c1[n-]c(=O)[n-]c1O (optimized conformer: 109.59527267994957 kcal/mol)

>  <smiles>  (11) 
C=c1oc(-c2ccc(N(C)C)cc2)cc1=Cc1[nH]c(=O)[nH]c1O

>  <score_type>  (11) 
oracle

>  <origin>  (11) 
adg

>  <m_score__min__energy>  (11) 
-12.029999999999999

>  <m_primary>  (11) 
energy

$$$$
11:0
     RDKit          3D

 43 46  0  0  1  0  0  0  0  0999 V2000
   57.3850   24.3600   46.7900 C   0  0  0  0  0  0  0  0  0  0  0  0
   57.0550   25.6450   46.1400 C   0  0  0  0  0  0  0  0  0  0  0  0
   57.7880   26.3910   45.2440 C   0  0  0  0  0  0  0  0  0  0  0  0
   57.0610   27.5300   44.9150 C   0  0  0  0  0  0  0  0  0  0  0  0
   57.4120   28.4760   44.1040 N   0  0  0  0  0  0  0  0  0  0  0  0
   57.1110   29.8450   44.3750 C   0  0  0  0  0  0  0  0  0  0  0  0
   55.9810   30.2000   44.8410 O   0  0  0  0  0  0  0  0  0  0  0  0
   58.0690   30.8910   44.1350 N   0  0  0  0  0  0  0  0  0  0  0  0
   57.6880   32.2560   44.4390 C   0  0  0  0  0  0  0  0  0  0  0  0
   58.4890   32.8070   45.5370 C   0  0  0  0  0  0  0  0  0  0  0  0
   59.6330   32.2240   46.0450 C   0  0  0  0  0  0  0  0  0  0  0  0
   60.3550   32.7760   47.0820 C   0  0  0  0  0  0  0  0  0  0  0  0
   61.4990   32.1910   47.5940 C   0  0  0  0  0  0  0  0  0  0  0  0
   62.1750   32.7960   48.6370 C   0  0  0  0  0  0  0  0  0  0  0  0
   61.7510   33.9890   49.2080 C   0  0  0  0  0  0  0  0  0  0  0  0
   60.6040   34.5740   48.6950 C   0  0  0  0  0  0  0  0  0  0  0  0
   59.9220   33.9680   47.6450 C   0  0  0  0  0  0  0  0  0  0  0  0
   58.8070   34.5170   47.1360 N   0  0  0  0  0  0  0  0  0  0  0  0
   58.0990   33.9990   46.1360 C   0  0  0  0  0  0  0  0  0  0  0  0
   57.0590   34.5720   45.7080 O   0  0  0  0  0  0  0  0  0  0  0  0
   62.4110   34.6020   50.2430 O   0  0  0  0  0  0  0  0  0  0  0  0
   63.5200   34.0160   50.8670 C   0  0  0  0  0  0  0  0  0  0  0  0
   63.5800   32.5430   50.5690 C   0  0  0  0  0  0  0  0  0  0  0  0
   63.3370   32.2500   49.1930 O   0  0  0  0  0  0  0  0  0  0  0  0
   55.9060   27.4410   45.6240 N   0  0  0  0  0  0  0  0  0  0  0  0
   55.9180   26.3240   46.3400 N   0  0  0  0  0  0  0  0  0  0  0  0
   57.3534   24.4830   47.8826 H   0  0  0  0  0  0  0  0  0  0  0  0
   56.6537   23.5967   46.4857 H   0  0  0  0  0  0  0  0  0  0  0  0
   58.3936   24.0435   46.4857 H   0  0  0  0  0  0  0  0  0  0  0  0
   58.7826   26.1296   44.8537 H   0  0  0  0  0  0  0  0  0  0  0  0
   58.9990   30.6190   43.7480 H   0  0  0  0  0  0  0  0  0  0  0  0
   57.8360   32.8762   43.5427 H   0  0  0  0  0  0  0  0  0  0  0  0
   56.6322   32.2585   44.7477 H   0  0  0  0  0  0  0  0  0  0  0  0
   59.9832   31.2792   45.6037 H   0  0  0  0  0  0  0  0  0  0  0  0
   61.8704   31.2456   47.1718 H   0  0  0  0  0  0  0  0  0  0  0  0
   60.2325   35.5187   49.1187 H   0  0  0  0  0  0  0  0  0  0  0  0
   58.4950   35.4210   47.5750 H   0  0  0  0  0  0  0  0  0  0  0  0
   64.4380   34.4969   50.4981 H   0  0  0  0  0  0  0  0  0  0  0  0
   63.4280   34.1537   51.9545 H   0  0  0  0  0  0  0  0  0  0  0  0
   64.5794   32.1699   50.8373 H   0  0  0  0  0  0  0  0  0  0  0  0
   62.7914   32.0519   51.1581 H   0  0  0  0  0  0  0  0  0  0  0  0
   55.1400   28.1620   45.5900 H   0  0  0  0  0  0  0  0  0  0  0  0
   55.1470   26.0210   46.9730 H   0  0  0  0  0  0  0  0  0  0  0  0
  1  2  1  0
  2  3  2  0
  3  4  1  0
  4  5  2  0
  5  6  1  0
  6  7  2  0
  6  8  1  0
  8  9  1  0
  9 10  1  0
 10 11  2  0
 11 12  1  0
 12 13  2  0
 13 14  1  0
 14 15  2  0
 15 16  1  0
 16 17  2  0
 17 18  1  0
 18 19  1  0
 19 20  2  0
 15 21  1  0
 21 22  1  0
 22 23  1  0
 23 24  1  0
  4 25  1  0
 25 26  1  0
 26  2  1  0
 19 10  1  0
 17 12  1  0
 24 14  1  0
  1 27  1  0
  1 28  1  0
  1 29  1  0
  3 30  1  0
  8 31  1  0
  9 32  1  0
  9 33  1  0
 11 34  1  0
 13 35  1  0
 16 36  1  0
 18 37  1  0
 22 38  1  0
 22 39  1  0
 23 40  1  0
 23 41  1  0
 25 42  1  0
 26 43  1  0
M  END
>  <smiles>  (12) 
Cc1cc(=NC(=O)NCc2cc3cc4c(cc3[nH]c2=O)OCCO4)[nH][nH]1

>  <score_type>  (12) 
oracle

>  <origin>  (12) 
adg

>  <m_score__min__energy>  (12) 
-8.5999999999999996

>  <m_primary>  (12) 
energy

$$$$
12:0
     RDKit          3D

 23 24  0  0  0  0  0  0  0  0999 V2000
   57.7170   33.0770   44.9830 C   0  0  0  0  0  0  0  0  0  0  0  0
   58.0120   32.3510   43.9020 C   0  0  0  0  0  0  0  0  0  0  0  0
   57.0870   31.2840   43.3980 C   0  0  0  0  0  0  0  0  0  0  0  0
   56.6120   30.4770   44.5220 N   0  0  0  0  0  0  0  0  0  0  0  0
   57.0330   29.2970   44.8920 C   0  0  0  0  0  0  0  0  0  0  0  0
   58.3790   29.1300   44.8730 N   0  0  0  0  0  0  0  0  0  0  0  0
   59.2180   28.1150   45.1640 C   0  0  0  0  0  0  0  0  0  0  0  0
   60.4530   28.3230   45.0250 O   0  0  0  0  0  0  0  0  0  0  0  0
   58.8120   26.8680   45.6050 C   0  0  0  0  0  0  0  0  0  0  0  0
   59.6960   25.8890   45.8830 N   0  0  0  0  0  0  0  0  0  0  0  0
   58.9350   24.8510   46.2720 C   0  0  0  0  0  0  0  0  0  0  0  0
   57.6180   25.1230   46.2550 N   0  0  0  0  0  0  0  0  0  0  0  0
   57.5380   26.4020   45.8320 C   0  0  0  0  0  0  0  0  0  0  0  0
   56.3120   27.0460   45.6860 C   0  0  0  0  0  0  0  0  0  0  0  0
   55.2800   26.3740   45.9690 O   0  0  0  0  0  0  0  0  0  0  0  0
   56.1340   28.3300   45.2660 N   0  0  0  0  0  0  0  0  0  0  0  0
   58.4140   33.8536   45.3309 H   0  0  0  0  0  0  0  0  0  0  0  0
   56.7770   32.8985   45.5257 H   0  0  0  0  0  0  0  0  0  0  0  0
   58.9554   32.5400   43.3689 H   0  0  0  0  0  0  0  0  0  0  0  0
   56.2283   31.7517   42.8941 H   0  0  0  0  0  0  0  0  0  0  0  0
   57.6246   30.6399   42.6866 H   0  0  0  0  0  0  0  0  0  0  0  0
   59.3481   23.8772   46.5738 H   0  0  0  0  0  0  0  0  0  0  0  0
   55.1240   28.5950   45.2330 H   0  0  0  0  0  0  0  0  0  0  0  0
  1  2  2  0
  2  3  1  0
  3  4  1  0
  4  5  2  3
  5  6  1  0
  6  7  1  0
  7  8  2  0
  7  9  1  0
  9 10  1  0
 10 11  1  0
 11 12  2  0
 12 13  1  0
 13 14  1  0
 14 15  2  0
 14 16  1  0
 16  5  1  0
 13  9  2  0
  1 17  1  0
  1 18  1  0
  2 19  1  0
  3 20  1  0
  3 21  1  0
 11 22  1  0
 16 23  1  0
M  CHG  2   6  -1  10  -1
M  END
>  <UniqueID>  (13) 
12

>  <SMILES>  (13) 
C=CCN=c1[n-]c(=O)c2[n-]cnc2c(=O)[nH]1

>  <Energy>  (13) 
71.5067287835534

>  <Genealogy>  (13) 
C=CCN=c1[n-]c(=O)c2[n-]cnc2c(=O)[nH]1 (protonated)
C=CCN=c1[n-]c(=O)c2[n-]cnc2c(=O)[nH]1 (3D coordinates assigned)
C=CCN=c1[n-]c(=O)c2[n-]cnc2c(=O)[nH]1 (optimized conformer: 71.5067287835534 kcal/mol)

>  <smiles>  (13) 
C=CCN=c1[nH]c(=O)c2nc[nH]c2c(=O)[nH]1

>  <score_type>  (13) 
oracle

>  <origin>  (13) 
adg

>  <m_score__min__energy>  (13) 
-8.6699999999999999

>  <m_primary>  (13) 
energy

$$$$
13:0
     RDKit          3D

 50 52  0  0  0  0  0  0  0  0999 V2000
   58.5340   31.2480   47.4120 C   0  0  0  0  0  0  0  0  0  0  0  0
   58.6540   32.4550   46.5170 C   0  0  0  0  0  0  0  0  0  0  0  0
   59.6440   33.4310   46.7740 C   0  0  0  0  0  0  0  0  0  0  0  0
   60.7810   33.2670   48.1090 Cl  0  0  0  0  0  0  0  0  0  0  0  0
   59.7270   34.5740   45.9710 C   0  0  0  0  0  0  0  0  0  0  0  0
   58.8270   34.7670   44.9250 C   0  0  0  0  0  0  0  0  0  0  0  0
   57.8250   33.8280   44.6810 C   0  0  0  0  0  0  0  0  0  0  0  0
   57.7300   32.6760   45.4710 C   0  0  0  0  0  0  0  0  0  0  0  0
   56.6550   31.7630   45.2410 N   0  0  0  0  0  0  0  0  0  0  0  0
   56.8120   30.5160   44.0520 S   0  0  0  0  0  0  0  0  0  0  0  0
   55.4520   30.0880   43.5740 O   0  0  0  0  0  0  0  0  0  0  0  0
   57.5920   31.0460   42.8830 O   0  0  0  0  0  0  0  0  0  0  0  0
   57.6590   29.1500   44.7720 C   0  0  0  0  0  0  0  0  0  0  0  0
   59.0530   29.1690   44.9210 C   0  0  0  0  0  0  0  0  0  0  0  0
   59.7020   28.1180   45.5750 C   0  0  0  0  0  0  0  0  0  0  0  0
   58.9630   27.0460   46.0850 C   0  0  0  0  0  0  0  0  0  0  0  0
   57.5740   27.0060   45.9220 C   0  0  0  0  0  0  0  0  0  0  0  0
   56.8310   25.9280   46.5040 N   0  0  0  0  0  0  0  0  0  0  0  0
   56.1180   24.9140   45.7840 C   0  0  0  0  0  0  0  0  0  0  0  0
   54.9310   24.6580   46.1200 O   0  0  0  0  0  0  0  0  0  0  0  0
   56.8100   24.0320   44.7780 C   0  0  0  0  0  0  0  0  0  0  0  0
   56.6560   22.6190   45.1210 N   0  0  0  0  0  0  0  0  0  0  0  0
   56.5290   21.5300   44.2230 C   0  0  0  0  0  0  0  0  0  0  0  0
   56.3620   21.6630   42.9810 O   0  0  0  0  0  0  0  0  0  0  0  0
   56.6230   20.2680   44.8680 N   0  0  0  0  0  0  0  0  0  0  0  0
   56.8400   20.4980   46.2980 C   0  0  0  0  0  0  0  0  0  0  0  0
   58.1770   19.8910   46.7340 C   0  0  0  0  0  0  0  0  0  0  0  0
   55.6700   19.9260   47.1060 C   0  0  0  0  0  0  0  0  0  0  0  0
   56.8720   22.0040   46.3850 C   0  0  0  0  0  0  0  0  0  0  0  0
   57.0580   22.6530   47.4490 O   0  0  0  0  0  0  0  0  0  0  0  0
   56.9240   28.0710   45.2800 C   0  0  0  0  0  0  0  0  0  0  0  0
   58.5657   31.5671   48.4642 H   0  0  0  0  0  0  0  0  0  0  0  0
   57.5806   30.7369   47.2124 H   0  0  0  0  0  0  0  0  0  0  0  0
   59.3681   30.5592   47.2124 H   0  0  0  0  0  0  0  0  0  0  0  0
   60.5072   35.3244   46.1667 H   0  0  0  0  0  0  0  0  0  0  0  0
   58.9069   35.6619   44.2903 H   0  0  0  0  0  0  0  0  0  0  0  0
   57.1065   33.9932   43.8646 H   0  0  0  0  0  0  0  0  0  0  0  0
   59.6366   30.0121   44.5227 H   0  0  0  0  0  0  0  0  0  0  0  0
   60.7960   28.1341   45.6887 H   0  0  0  0  0  0  0  0  0  0  0  0
   59.4758   26.2308   46.6165 H   0  0  0  0  0  0  0  0  0  0  0  0
   56.3734   24.2099   43.7842 H   0  0  0  0  0  0  0  0  0  0  0  0
   57.8825   24.2764   44.7792 H   0  0  0  0  0  0  0  0  0  0  0  0
   56.5510   19.3380   44.3980 H   0  0  0  0  0  0  0  0  0  0  0  0
   58.2282   19.8677   47.8326 H   0  0  0  0  0  0  0  0  0  0  0  0
   58.2602   18.8669   46.3413 H   0  0  0  0  0  0  0  0  0  0  0  0
   59.0027   20.5025   46.3413 H   0  0  0  0  0  0  0  0  0  0  0  0
   55.8813   20.0293   48.1806 H   0  0  0  0  0  0  0  0  0  0  0  0
   54.7500   20.4760   46.8587 H   0  0  0  0  0  0  0  0  0  0  0  0
   55.5390   18.8622   46.8587 H   0  0  0  0  0  0  0  0  0  0  0  0
   55.8291   28.0586   45.1748 H   0  0  0  0  0  0  0  0  0  0  0  0
  1  2  1  0
  2  3  2  0
  3  4  1  0
  3  5  1  0
  5  6  2  0
  6  7  1  0
  7  8  2  0
  8  9  1  0
  9 10  1  0
 10 11  2  0
 10 12  2  0
 10 13  1  0
 13 14  2  0
 14 15  1  0
 15 16  2  0
 16 17  1  0
 17 18  1  0
 18 19  1  0
 19 20  2  0
 19 21  1  0
 21 22  1  0
 22 23  1  0
 23 24  2  0
 23 25  1  0
 25 26  1  0
 26 27  1  0
 26 28  1  0
 26 29  1  0
 29 30  2  0
 17 31  2  0
  8  2  1  0
 31 13  1  0
 29 22  1  0
  1 32  1  0
  1 33  1  0
  1 34  1  0
  5 35  1  0
  6 36  1  0
  7 37  1  0
 14 38  1  0
 15 39  1  0
 16 40  1  0
 21 41  1  0
 21 42  1  0
 25 43  1  0
 27 44  1  0
 27 45  1  0
 27 46  1  0
 28 47  1  0
 28 48  1  0
 28 49  1  0
 31 50  1  0
M  CHG  2   9  -1  18  -1
M  END
>  <UniqueID>  (14) 
13

>  <SMILES>  (14) 
Cc1c(Cl)cccc1[N-]S(=O)(=O)c1cccc([N-]C(=O)CN2C(=O)NC(C)(C)C2=O)c1

>  <Energy>  (14) 
77.38669969421512

>  <Genealogy>  (14) 
Cc1c(Cl)cccc1[N-]S(=O)(=O)c1cccc([N-]C(=O)CN2C(=O)NC(C)(C)C2=O)c1 (protonated)
Cc1c(Cl)cccc1[N-]S(=O)(=O)c1cccc([N-]C(=O)CN2C(=O)NC(C)(C)C2=O)c1 (3D coordinates assigned)
Cc1c(Cl)cccc1[N-]S(=O)(=O)c1cccc([N-]C(=O)CN2C(=O)NC(C)(C)C2=O)c1 (nonaromatic ring conformer: 77.38669969421512 kcal/mol)

>  <smiles>  (14) 
Cc1c(Cl)cccc1NS(=O)(=O)c1cccc(NC(=O)CN2C(=O)NC(C)(C)C2=O)c1

>  <score_type>  (14) 
oracle

>  <origin>  (14) 
adg

>  <m_score__min__energy>  (14) 
-13.73

>  <m_primary>  (14) 
energy

$$$$
14:0
     RDKit          3D

 70 73  0  0  0  0  0  0  0  0999 V2000
   57.9100   22.1660   44.2070 C   0  0  0  0  0  0  0  0  0  0  0  0
   56.7540   23.1180   44.1090 C   0  0  0  0  0  0  0  0  0  0  0  0
   55.6930   22.7160   43.5570 O   0  0  0  0  0  0  0  0  0  0  0  0
   56.8300   24.5060   44.6420 C   0  0  0  0  0  0  0  0  0  0  0  0
   55.9010   24.9420   45.6080 C   0  0  0  0  0  0  0  0  0  0  0  0
   55.9630   26.2430   46.1170 C   0  0  0  0  0  0  0  0  0  0  0  0
   56.9440   27.1280   45.6700 C   0  0  0  0  0  0  0  0  0  0  0  0
   57.8730   26.7180   44.7040 C   0  0  0  0  0  0  0  0  0  0  0  0
   58.9460   27.6620   44.2270 C   0  0  0  0  0  0  0  0  0  0  0  0
   59.9550   27.8790   45.2850 N   0  0  0  0  0  0  0  0  0  0  0  0
   60.0970   26.6850   46.1660 C   0  0  0  0  0  0  0  0  0  0  0  0
   59.3090   26.7610   47.4910 C   0  0  0  0  0  0  0  0  0  0  0  0
   60.0690   27.4820   48.6310 C   0  0  0  0  0  0  0  0  0  0  0  0
   60.0240   28.9530   48.4710 N   0  0  0  0  0  0  0  0  0  0  0  0
   60.6520   29.6400   49.6180 C   0  0  0  0  0  0  0  0  0  0  0  0
   60.3760   31.1200   49.5580 C   0  0  0  0  0  0  0  0  0  0  0  0
   60.8490   31.9620   50.5760 C   0  0  0  0  0  0  0  0  0  0  0  0
   60.6000   33.3350   50.5270 C   0  0  0  0  0  0  0  0  0  0  0  0
   59.8670   33.8780   49.4690 C   0  0  0  0  0  0  0  0  0  0  0  0
   59.3730   33.0470   48.4500 C   0  0  0  0  0  0  0  0  0  0  0  0
   58.6390   33.5860   47.3390 N   0  0  0  0  0  0  0  0  0  0  0  0
   59.2440   33.9560   46.0900 C   0  0  0  0  0  0  0  0  0  0  0  0
   60.4920   34.1230   46.0120 O   0  0  0  0  0  0  0  0  0  0  0  0
   58.3750   34.2630   44.9030 C   0  0  0  0  0  0  0  0  0  0  0  0
   57.8300   33.0010   44.2870 C   0  0  0  0  0  0  0  0  0  0  0  0
   57.2410   32.0160   45.0970 C   0  0  0  0  0  0  0  0  0  0  0  0
   56.7750   30.8230   44.5310 C   0  0  0  0  0  0  0  0  0  0  0  0
   56.8870   30.6050   43.1500 C   0  0  0  0  0  0  0  0  0  0  0  0
   56.4290   29.3100   42.5460 C   0  0  0  0  0  0  0  0  0  0  0  0
   57.4960   31.5790   42.3440 C   0  0  0  0  0  0  0  0  0  0  0  0
   57.9620   32.7700   42.9090 C   0  0  0  0  0  0  0  0  0  0  0  0
   59.6470   31.6710   48.4930 C   0  0  0  0  0  0  0  0  0  0  0  0
   60.6530   29.3920   47.2080 C   0  0  0  0  0  0  0  0  0  0  0  0
   59.7540   29.1790   45.9690 C   0  0  0  0  0  0  0  0  0  0  0  0
   57.8190   25.4080   44.2010 C   0  0  0  0  0  0  0  0  0  0  0  0
   58.1402   21.9765   45.2658 H   0  0  0  0  0  0  0  0  0  0  0  0
   57.6476   21.2186   43.7135 H   0  0  0  0  0  0  0  0  0  0  0  0
   58.7895   22.6052   43.7135 H   0  0  0  0  0  0  0  0  0  0  0  0
   55.1208   24.2533   45.9645 H   0  0  0  0  0  0  0  0  0  0  0  0
   55.2346   26.5700   46.8736 H   0  0  0  0  0  0  0  0  0  0  0  0
   56.9886   28.1493   46.0762 H   0  0  0  0  0  0  0  0  0  0  0  0
   59.4373   27.2331   43.3412 H   0  0  0  0  0  0  0  0  0  0  0  0
   58.4829   28.6274   43.9748 H   0  0  0  0  0  0  0  0  0  0  0  0
   59.7449   25.8045   45.6085 H   0  0  0  0  0  0  0  0  0  0  0  0
   61.1605   26.6278   46.4410 H   0  0  0  0  0  0  0  0  0  0  0  0
   58.3693   27.3017   47.3049 H   0  0  0  0  0  0  0  0  0  0  0  0
   59.1412   25.7259   47.8232 H   0  0  0  0  0  0  0  0  0  0  0  0
   59.6081   27.2133   49.5930 H   0  0  0  0  0  0  0  0  0  0  0  0
   61.1216   27.1644   48.5973 H   0  0  0  0  0  0  0  0  0  0  0  0
   60.2419   29.2323   50.5537 H   0  0  0  0  0  0  0  0  0  0  0  0
   61.7393   29.4776   49.5800 H   0  0  0  0  0  0  0  0  0  0  0  0
   61.4185   31.5385   51.4164 H   0  0  0  0  0  0  0  0  0  0  0  0
   60.9819   33.9907   51.3234 H   0  0  0  0  0  0  0  0  0  0  0  0
   59.6759   34.9607   49.4338 H   0  0  0  0  0  0  0  0  0  0  0  0
   57.6260   33.8080   47.4810 H   0  0  0  0  0  0  0  0  0  0  0  0
   57.5356   34.8959   45.2268 H   0  0  0  0  0  0  0  0  0  0  0  0
   58.9847   34.7835   44.1498 H   0  0  0  0  0  0  0  0  0  0  0  0
   57.1455   32.1825   46.1801 H   0  0  0  0  0  0  0  0  0  0  0  0
   56.3193   30.0538   45.1719 H   0  0  0  0  0  0  0  0  0  0  0  0
   56.1779   28.6000   43.3478 H   0  0  0  0  0  0  0  0  0  0  0  0
   55.5399   29.4898   41.9237 H   0  0  0  0  0  0  0  0  0  0  0  0
   57.2334   28.8909   41.9237 H   0  0  0  0  0  0  0  0  0  0  0  0
   57.6072   31.4048   41.2636 H   0  0  0  0  0  0  0  0  0  0  0  0
   58.4348   33.5303   42.2698 H   0  0  0  0  0  0  0  0  0  0  0  0
   59.2868   31.0183   47.6841 H   0  0  0  0  0  0  0  0  0  0  0  0
   60.8871   30.4637   47.2890 H   0  0  0  0  0  0  0  0  0  0  0  0
   61.5553   28.7794   47.0641 H   0  0  0  0  0  0  0  0  0  0  0  0
   58.7039   29.2401   46.2908 H   0  0  0  0  0  0  0  0  0  0  0  0
   60.0257   29.9611   45.2448 H   0  0  0  0  0  0  0  0  0  0  0  0
   58.5575   25.0820   43.4538 H   0  0  0  0  0  0  0  0  0  0  0  0
  1  2  1  0
  2  3  2  0
  2  4  1  0
  4  5  2  0
  5  6  1  0
  6  7  2  0
  7  8  1  0
  8  9  1  0
  9 10  1  0
 10 11  1  0
 11 12  1  0
 12 13  1  0
 13 14  1  0
 14 15  1  0
 15 16  1  0
 16 17  2  0
 17 18  1  0
 18 19  2  0
 19 20  1  0
 20 21  1  0
 21 22  1  0
 22 23  2  0
 22 24  1  0
 24 25  1  0
 25 26  2  0
 26 27  1  0
 27 28  2  0
 28 29  1  0
 28 30  1  0
 30 31  2  0
 20 32  2  0
 14 33  1  0
 33 34  1  0
  8 35  2  0
 35  4  1  0
 34 10  1  0
 32 16  1  0
 31 25  1  0
  1 36  1  0
  1 37  1  0
  1 38  1  0
  5 39  1  0
  6 40  1  0
  7 41  1  0
  9 42  1  0
  9 43  1  0
 11 44  1  0
 11 45  1  0
 12 46  1  0
 12 47  1  0
 13 48  1  0
 13 49  1  0
 15 50  1  0
 15 51  1  0
 17 52  1  0
 18 53  1  0
 19 54  1  0
 21 55  1  0
 24 56  1  0
 24 57  1  0
 26 58  1  0
 27 59  1  0
 29 60  1  0
 29 61  1  0
 29 62  1  0
 30 63  1  0
 31 64  1  0
 32 65  1  0
 33 66  1  0
 33 67  1  0
 34 68  1  0
 34 69  1  0
 35 70  1  0
M  END
>  <UniqueID>  (15) 
14

>  <SMILES>  (15) 
CC(=O)c1cccc(CN2CCCN(Cc3cccc(NC(=O)Cc4ccc(C)cc4)c3)CC2)c1

>  <Energy>  (15) 
90.55592966870933

>  <Genealogy>  (15) 
CC(=O)c1cccc(CN2CCCN(Cc3cccc(NC(=O)Cc4ccc(C)cc4)c3)CC2)c1 (3D coordinates assigned)
CC(=O)c1cccc(CN2CCCN(Cc3cccc(NC(=O)Cc4ccc(C)cc4)c3)CC2)c1 (nonaromatic ring conformer: 90.55592966870933 kcal/mol)

>  <smiles>  (15) 
CC(=O)c1cccc(CN2CCCN(Cc3cccc(NC(=O)Cc4ccc(C)cc4)c3)CC2)c1

>  <score_type>  (15) 
oracle

>  <origin>  (15) 
adg

>  <m_score__min__energy>  (15) 
-8.5800000000000001

>  <m_primary>  (15) 
energy

$$$$
15:0
     RDKit          3D

 68 71  0  0  0  0  0  0  0  0999 V2000
   62.5220   33.8110   46.5180 C   0  0  0  0  0  0  0  0  0  0  0  0
   61.1310   33.5100   46.4920 O   0  0  0  0  0  0  0  0  0  0  0  0
   60.3620   33.1870   47.6210 C   0  0  0  0  0  0  0  0  0  0  0  0
   60.9360   33.0970   48.9030 C   0  0  0  0  0  0  0  0  0  0  0  0
   60.1500   32.7700   50.0110 C   0  0  0  0  0  0  0  0  0  0  0  0
   58.7820   32.5340   49.8640 C   0  0  0  0  0  0  0  0  0  0  0  0
   58.0210   32.1570   51.0220 N   0  0  0  0  0  0  0  0  0  0  0  0
   57.5260   30.8510   51.3590 C   0  0  0  0  0  0  0  0  0  0  0  0
   58.2170   29.8450   51.0490 O   0  0  0  0  0  0  0  0  0  0  0  0
   56.2330   30.6480   52.0900 C   0  0  0  0  0  0  0  0  0  0  0  0
   55.1390   30.9010   51.2130 O   0  0  0  0  0  0  0  0  0  0  0  0
   53.7890   30.7860   51.5810 C   0  0  0  0  0  0  0  0  0  0  0  0
   52.8680   31.8370   51.4130 C   0  0  0  0  0  0  0  0  0  0  0  0
   51.5360   31.6760   51.8040 C   0  0  0  0  0  0  0  0  0  0  0  0
   50.6330   32.7180   51.6340 O   0  0  0  0  0  0  0  0  0  0  0  0
   51.1120   30.4690   52.3650 C   0  0  0  0  0  0  0  0  0  0  0  0
   52.0190   29.4120   52.5410 C   0  0  0  0  0  0  0  0  0  0  0  0
   51.5650   28.1160   53.1640 C   0  0  0  0  0  0  0  0  0  0  0  0
   51.6420   28.1400   54.7010 C   0  0  0  0  0  0  0  0  0  0  0  0
   52.7440   29.0580   55.2590 C   0  0  0  0  0  0  0  0  0  0  0  0
   54.1320   28.5410   54.9700 C   0  0  0  0  0  0  0  0  0  0  0  0
   54.3190   27.2170   54.5340 C   0  0  0  0  0  0  0  0  0  0  0  0
   55.6060   26.7420   54.2610 C   0  0  0  0  0  0  0  0  0  0  0  0
   56.7120   27.5790   54.4250 C   0  0  0  0  0  0  0  0  0  0  0  0
   56.5360   28.8910   54.8700 C   0  0  0  0  0  0  0  0  0  0  0  0
   55.2510   29.3710   55.1460 C   0  0  0  0  0  0  0  0  0  0  0  0
   53.3530   29.5760   52.1340 C   0  0  0  0  0  0  0  0  0  0  0  0
   58.2090   32.5920   48.5840 C   0  0  0  0  0  0  0  0  0  0  0  0
   58.9820   32.9440   47.4680 C   0  0  0  0  0  0  0  0  0  0  0  0
   58.1950   33.0680   45.8860 S   0  0  0  0  0  0  0  0  0  0  0  0
   58.5680   34.3850   45.2640 O   0  0  0  0  0  0  0  0  0  0  0  0
   56.7020   33.0570   46.0540 O   0  0  0  0  0  0  0  0  0  0  0  0
   58.6750   31.7790   44.8000 N   0  0  0  0  0  0  0  0  0  0  0  0
   57.7930   31.6630   43.6230 C   0  0  0  0  0  0  0  0  0  0  0  0
   56.5340   30.8020   43.8820 C   0  0  0  0  0  0  0  0  0  0  0  0
   56.5560   30.1460   45.1330 O   0  0  0  0  0  0  0  0  0  0  0  0
   57.7860   29.4790   45.2880 C   0  0  0  0  0  0  0  0  0  0  0  0
   58.9160   30.4980   45.5020 C   0  0  0  0  0  0  0  0  0  0  0  0
   62.8618   33.8845   47.5616 H   0  0  0  0  0  0  0  0  0  0  0  0
   63.0795   33.0127   46.0062 H   0  0  0  0  0  0  0  0  0  0  0  0
   62.6996   34.7684   46.0062 H   0  0  0  0  0  0  0  0  0  0  0  0
   62.0118   33.2856   49.0337 H   0  0  0  0  0  0  0  0  0  0  0  0
   60.6126   32.6980   51.0064 H   0  0  0  0  0  0  0  0  0  0  0  0
   56.1777   29.6113   52.4535 H   0  0  0  0  0  0  0  0  0  0  0  0
   56.1841   31.3421   52.9420 H   0  0  0  0  0  0  0  0  0  0  0  0
   53.1981   32.7892   50.9721 H   0  0  0  0  0  0  0  0  0  0  0  0
   50.0624   30.3462   52.6703 H   0  0  0  0  0  0  0  0  0  0  0  0
   50.5229   27.9279   52.8662 H   0  0  0  0  0  0  0  0  0  0  0  0
   52.2378   27.3216   52.8088 H   0  0  0  0  0  0  0  0  0  0  0  0
   50.6733   28.4865   55.0904 H   0  0  0  0  0  0  0  0  0  0  0  0
   51.8870   27.1171   55.0231 H   0  0  0  0  0  0  0  0  0  0  0  0
   52.6371   30.0536   54.8037 H   0  0  0  0  0  0  0  0  0  0  0  0
   52.6238   29.0964   56.3517 H   0  0  0  0  0  0  0  0  0  0  0  0
   53.4509   26.5533   54.4074 H   0  0  0  0  0  0  0  0  0  0  0  0
   55.7474   25.7070   53.9164 H   0  0  0  0  0  0  0  0  0  0  0  0
   57.7223   27.2046   54.2035 H   0  0  0  0  0  0  0  0  0  0  0  0
   57.4083   29.5476   55.0036 H   0  0  0  0  0  0  0  0  0  0  0  0
   55.1167   30.4030   55.5024 H   0  0  0  0  0  0  0  0  0  0  0  0
   54.0634   28.7443   52.2510 H   0  0  0  0  0  0  0  0  0  0  0  0
   57.1418   32.3588   48.4548 H   0  0  0  0  0  0  0  0  0  0  0  0
   57.4706   32.6724   43.3279 H   0  0  0  0  0  0  0  0  0  0  0  0
   58.3711   31.1636   42.8316 H   0  0  0  0  0  0  0  0  0  0  0  0
   55.6500   31.4556   43.8455 H   0  0  0  0  0  0  0  0  0  0  0  0
   56.5049   30.0236   43.1053 H   0  0  0  0  0  0  0  0  0  0  0  0
   57.7297   28.8098   46.1592 H   0  0  0  0  0  0  0  0  0  0  0  0
   57.9955   28.8945   44.3800 H   0  0  0  0  0  0  0  0  0  0  0  0
   59.0078   30.6997   46.5794 H   0  0  0  0  0  0  0  0  0  0  0  0
   59.8373   30.0622   45.0881 H   0  0  0  0  0  0  0  0  0  0  0  0
  1  2  1  0
  2  3  1  0
  3  4  2  0
  4  5  1  0
  5  6  2  0
  6  7  1  0
  7  8  1  0
  8  9  2  0
  8 10  1  0
 10 11  1  0
 11 12  1  0
 12 13  2  0
 13 14  1  0
 14 15  1  0
 14 16  2  0
 16 17  1  0
 17 18  1  0
 18 19  1  0
 19 20  1  0
 20 21  1  0
 21 22  2  0
 22 23  1  0
 23 24  2  0
 24 25  1  0
 25 26  2  0
 17 27  2  0
  6 28  1  0
 28 29  2  0
 29 30  1  0
 30 31  2  0
 30 32  2  0
 30 33  1  0
 33 34  1  0
 34 35  1  0
 35 36  1  0
 36 37  1  0
 37 38  1  0
 29  3  1  0
 38 33  1  0
 27 12  1  0
 26 21  1  0
  1 39  1  0
  1 40  1  0
  1 41  1  0
  4 42  1  0
  5 43  1  0
 10 44  1  0
 10 45  1  0
 13 46  1  0
 16 47  1  0
 18 48  1  0
 18 49  1  0
 19 50  1  0
 19 51  1  0
 20 52  1  0
 20 53  1  0
 22 54  1  0
 23 55  1  0
 24 56  1  0
 25 57  1  0
 26 58  1  0
 27 59  1  0
 28 60  1  0
 34 61  1  0
 34 62  1  0
 35 63  1  0
 35 64  1  0
 37 65  1  0
 37 66  1  0
 38 67  1  0
 38 68  1  0
M  CHG  2   7  -1  15  -1
M  END
>  <UniqueID>  (16) 
15

>  <SMILES>  (16) 
COc1ccc([N-]C(=O)COc2cc([O-])cc(CCCc3ccccc3)c2)cc1S(=O)(=O)N1CCOCC1

>  <Energy>  (16) 
78.57154098992339

>  <Genealogy>  (16) 
COc1ccc([N-]C(=O)COc2cc([O-])cc(CCCc3ccccc3)c2)cc1S(=O)(=O)N1CCOCC1 (protonated)
COc1ccc([N-]C(=O)COc2cc([O-])cc(CCCc3ccccc3)c2)cc1S(=O)(=O)N1CCOCC1 (3D coordinates assigned)
COc1ccc([N-]C(=O)COc2cc([O-])cc(CCCc3ccccc3)c2)cc1S(=O)(=O)N1CCOCC1 (nonaromatic ring conformer: 78.57154098992339 kcal/mol)

>  <smiles>  (16) 
COc1ccc(NC(=O)COc2cc(O)cc(CCCc3ccccc3)c2)cc1S(=O)(=O)N1CCOCC1

>  <score_type>  (16) 
oracle

>  <origin>  (16) 
adg

>  <m_score__min__energy>  (16) 
-14.130000000000001

>  <m_primary>  (16) 
energy

$$$$
16:0
     RDKit          3D

 59 61  0  0  0  0  0  0  0  0999 V2000
   56.0920   29.9120   44.1810 C   0  0  0  0  0  0  0  0  0  0  0  0
   56.9830   30.7290   45.0230 N   0  0  0  0  0  0  0  0  0  0  0  0
   58.3340   30.1170   45.0880 C   0  0  0  0  0  0  0  0  0  0  0  0
   58.2760   28.6460   44.8030 C   0  0  0  0  0  0  0  0  0  0  0  0
   58.8300   28.1990   43.7630 O   0  0  0  0  0  0  0  0  0  0  0  0
   57.5300   27.7720   45.6580 N   0  0  0  0  0  0  0  0  0  0  0  0
   57.0320   26.4580   45.2600 C   0  0  1  0  0  0  0  0  0  0  0  0
   58.1920   25.4550   45.1140 C   0  0  0  0  0  0  0  0  0  0  0  0
   57.7120   24.1390   44.5590 C   0  0  0  0  0  0  0  0  0  0  0  0
   58.1460   22.9290   45.1280 C   0  0  0  0  0  0  0  0  0  0  0  0
   57.6630   21.7090   44.6430 C   0  0  0  0  0  0  0  0  0  0  0  0
   56.7400   21.6870   43.5860 C   0  0  0  0  0  0  0  0  0  0  0  0
   56.2520   20.4790   43.0940 O   0  0  0  0  0  0  0  0  0  0  0  0
   56.3030   22.8900   43.0210 C   0  0  0  0  0  0  0  0  0  0  0  0
   56.7830   24.1110   43.5060 C   0  0  0  0  0  0  0  0  0  0  0  0
   56.0530   25.9790   46.2920 C   0  0  0  0  0  0  0  0  0  0  0  0
   56.4660   25.5930   47.4210 O   0  0  0  0  0  0  0  0  0  0  0  0
   54.6590   25.9140   45.9700 N   0  0  0  0  0  0  0  0  0  0  0  0
   54.0500   24.8020   45.2500 C   0  0  0  0  0  0  0  0  0  0  0  0
   53.9720   23.5870   46.1360 C   0  0  0  0  0  0  0  0  0  0  0  0
   52.7350   22.9640   46.3670 C   0  0  0  0  0  0  0  0  0  0  0  0
   52.6520   21.8560   47.2140 C   0  0  0  0  0  0  0  0  0  0  0  0
   53.8010   21.3650   47.8420 C   0  0  0  0  0  0  0  0  0  0  0  0
   55.0360   21.9840   47.6220 C   0  0  0  0  0  0  0  0  0  0  0  0
   55.1230   23.0920   46.7730 C   0  0  0  0  0  0  0  0  0  0  0  0
   57.0270   32.1160   44.5050 C   0  0  0  0  0  0  0  0  0  0  0  0
   57.9040   32.9860   45.3660 C   0  0  0  0  0  0  0  0  0  0  0  0
   58.4910   34.1440   44.8270 C   0  0  0  0  0  0  0  0  0  0  0  0
   59.3270   34.9410   45.6150 C   0  0  0  0  0  0  0  0  0  0  0  0
   59.5720   34.5960   46.9470 C   0  0  0  0  0  0  0  0  0  0  0  0
   58.9670   33.4620   47.5000 C   0  0  0  0  0  0  0  0  0  0  0  0
   59.2700   33.0180   49.3320 Br  0  0  0  0  0  0  0  0  0  0  0  0
   58.1360   32.6570   46.7130 C   0  0  0  0  0  0  0  0  0  0  0  0
   55.4334   29.3081   44.8224 H   0  0  0  0  0  0  0  0  0  0  0  0
   55.4817   30.5709   43.5459 H   0  0  0  0  0  0  0  0  0  0  0  0
   56.6957   29.2470   43.5459 H   0  0  0  0  0  0  0  0  0  0  0  0
   58.9837   30.6014   44.3443 H   0  0  0  0  0  0  0  0  0  0  0  0
   58.7333   30.2602   46.1029 H   0  0  0  0  0  0  0  0  0  0  0  0
   56.5331   26.5377   44.2829 H   0  0  0  0  0  0  0  0  0  0  0  0
   58.9467   25.8767   44.4339 H   0  0  0  0  0  0  0  0  0  0  0  0
   58.6226   25.2751   46.1101 H   0  0  0  0  0  0  0  0  0  0  0  0
   58.8681   22.9416   45.9577 H   0  0  0  0  0  0  0  0  0  0  0  0
   58.0073   20.7652   45.0909 H   0  0  0  0  0  0  0  0  0  0  0  0
   56.7830   19.6200   43.1760 H   0  0  0  0  0  0  0  0  0  0  0  0
   55.5795   22.8756   42.1926 H   0  0  0  0  0  0  0  0  0  0  0  0
   56.4314   25.0534   43.0608 H   0  0  0  0  0  0  0  0  0  0  0  0
   53.0356   25.0864   44.9337 H   0  0  0  0  0  0  0  0  0  0  0  0
   54.6660   24.5647   44.3701 H   0  0  0  0  0  0  0  0  0  0  0  0
   51.8277   23.3498   45.8792 H   0  0  0  0  0  0  0  0  0  0  0  0
   51.6810   21.3689   47.3872 H   0  0  0  0  0  0  0  0  0  0  0  0
   53.7337   20.4926   48.5086 H   0  0  0  0  0  0  0  0  0  0  0  0
   55.9396   21.5989   48.1172 H   0  0  0  0  0  0  0  0  0  0  0  0
   56.0953   23.5776   46.6032 H   0  0  0  0  0  0  0  0  0  0  0  0
   57.4266   32.1048   43.4802 H   0  0  0  0  0  0  0  0  0  0  0  0
   56.0067   32.5268   44.5163 H   0  0  0  0  0  0  0  0  0  0  0  0
   58.2920   34.4240   43.7820 H   0  0  0  0  0  0  0  0  0  0  0  0
   59.7924   35.8406   45.1860 H   0  0  0  0  0  0  0  0  0  0  0  0
   60.2411   35.2165   47.5612 H   0  0  0  0  0  0  0  0  0  0  0  0
   57.6632   31.7647   47.1492 H   0  0  0  0  0  0  0  0  0  0  0  0
  1  2  1  0
  2  3  1  0
  3  4  1  0
  4  5  2  0
  4  6  1  0
  6  7  1  0
  7  8  1  0
  8  9  1  0
  9 10  2  0
 10 11  1  0
 11 12  2  0
 12 13  1  0
 12 14  1  0
 14 15  2  0
  7 16  1  0
 16 17  2  0
 16 18  1  0
 18 19  1  0
 19 20  1  0
 20 21  2  0
 21 22  1  0
 22 23  2  0
 23 24  1  0
 24 25  2  0
  2 26  1  0
 26 27  1  0
 27 28  2  0
 28 29  1  0
 29 30  2  0
 30 31  1  0
 31 32  1  0
 31 33  2  0
 15  9  1  0
 25 20  1  0
 33 27  1  0
  1 34  1  0
  1 35  1  0
  1 36  1  0
  3 37  1  0
  3 38  1  0
  7 39  1  6
  8 40  1  0
  8 41  1  0
 10 42  1  0
 11 43  1  0
 13 44  1  0
 14 45  1  0
 15 46  1  0
 19 47  1  0
 19 48  1  0
 21 49  1  0
 22 50  1  0
 23 51  1  0
 24 52  1  0
 25 53  1  0
 26 54  1  0
 26 55  1  0
 28 56  1  0
 29 57  1  0
 30 58  1  0
 33 59  1  0
M  CHG  2   6  -1  18  -1
M  END
>  <UniqueID>  (17) 
16

>  <SMILES>  (17) 
CN(CC(=O)[N-][C@@H](Cc1ccc(O)cc1)C(=O)[N-]Cc1ccccc1)Cc1cccc(Br)c1

>  <Energy>  (17) 
51.223621885142435

>  <Genealogy>  (17) 
CN(CC(=O)[N-]C(Cc1ccc(O)cc1)C(=O)[N-]Cc1ccccc1)Cc1cccc(Br)c1 (protonated)
CN(CC(=O)[N-][C@@H](Cc1ccc(O)cc1)C(=O)[N-]Cc1ccccc1)Cc1cccc(Br)c1 (chirality)
CN(CC(=O)[N-][C@@H](Cc1ccc(O)cc1)C(=O)[N-]Cc1ccccc1)Cc1cccc(Br)c1 (3D coordinates assigned)
CN(CC(=O)[N-][C@@H](Cc1ccc(O)cc1)C(=O)[N-]Cc1ccccc1)Cc1cccc(Br)c1 (optimized conformer: 51.223621885142435 kcal/mol)

>  <smiles>  (17) 
CN(CC(=O)NC(Cc1ccc(O)cc1)C(=O)NCc1ccccc1)Cc1cccc(Br)c1

>  <score_type>  (17) 
oracle

>  <origin>  (17) 
adg

>  <m_score__min__energy>  (17) 
-13.65

>  <m_primary>  (17) 
energy

$$$$
17:0
     RDKit          3D

 55 58  0  0  0  0  0  0  0  0999 V2000
   59.9090   27.1550   48.5780 O   0  0  0  0  0  0  0  0  0  0  0  0
   59.2140   27.8820   47.8760 C   0  0  0  0  0  0  0  0  0  0  0  0
   57.9880   27.3100   47.2080 C   0  0  0  0  0  0  0  0  0  0  0  0
   57.8060   27.8720   45.8280 C   0  0  0  0  0  0  0  0  0  0  0  0
   58.1150   27.1630   44.6660 C   0  0  0  0  0  0  0  0  0  0  0  0
   57.7600   28.1540   43.3510 S   0  0  0  0  0  0  0  0  0  0  0  0
   57.2160   29.4240   44.3130 C   0  0  0  0  0  0  0  0  0  0  0  0
   56.7400   30.7470   43.7990 C   0  0  0  0  0  0  0  0  0  0  0  0
   56.5800   31.6780   44.8690 O   0  0  0  0  0  0  0  0  0  0  0  0
   57.5450   32.6100   45.2910 C   0  0  0  0  0  0  0  0  0  0  0  0
   57.7970   32.7300   46.6660 C   0  0  0  0  0  0  0  0  0  0  0  0
   58.7400   33.6490   47.1380 C   0  0  0  0  0  0  0  0  0  0  0  0
   59.4380   34.4600   46.2380 C   0  0  0  0  0  0  0  0  0  0  0  0
   59.2000   34.3470   44.8650 C   0  0  0  0  0  0  0  0  0  0  0  0
   58.2630   33.4230   44.3890 C   0  0  0  0  0  0  0  0  0  0  0  0
   57.3000   29.1190   45.6280 N   0  0  0  0  0  0  0  0  0  0  0  0
   59.5470   29.2890   47.7360 N   0  0  0  0  0  0  0  0  0  0  0  0
   60.7610   29.4430   46.8960 C   0  0  0  0  0  0  0  0  0  0  0  0
   61.4090   30.8130   47.1280 C   0  0  0  0  0  0  0  0  0  0  0  0
   61.9100   30.9340   48.5150 N   0  0  0  0  0  0  0  0  0  0  0  0
   62.0410   32.6190   48.9640 S   0  0  0  0  0  0  0  0  0  0  0  0
   61.8980   33.4800   47.7380 O   0  0  0  0  0  0  0  0  0  0  0  0
   60.9470   32.9720   49.9320 O   0  0  0  0  0  0  0  0  0  0  0  0
   63.6010   32.9220   49.7330 C   0  0  0  0  0  0  0  0  0  0  0  0
   64.6970   32.0850   49.4730 C   0  0  0  0  0  0  0  0  0  0  0  0
   65.9180   32.3020   50.1190 C   0  0  0  0  0  0  0  0  0  0  0  0
   66.0540   33.3570   51.0280 C   0  0  0  0  0  0  0  0  0  0  0  0
   67.7150   33.6330   51.9350 Br  0  0  0  0  0  0  0  0  0  0  0  0
   64.9670   34.2010   51.2840 C   0  0  0  0  0  0  0  0  0  0  0  0
   63.7430   33.9870   50.6380 C   0  0  0  0  0  0  0  0  0  0  0  0
   62.6980   34.8120   50.9040 F   0  0  0  0  0  0  0  0  0  0  0  0
   61.1150   30.1740   49.5110 C   0  0  0  0  0  0  0  0  0  0  0  0
   59.6530   29.9540   49.0670 C   0  0  0  0  0  0  0  0  0  0  0  0
   58.0947   26.2174   47.1387 H   0  0  0  0  0  0  0  0  0  0  0  0
   57.1076   27.5778   47.8107 H   0  0  0  0  0  0  0  0  0  0  0  0
   58.5180   26.1406   44.6177 H   0  0  0  0  0  0  0  0  0  0  0  0
   57.4765   31.1423   43.0839 H   0  0  0  0  0  0  0  0  0  0  0  0
   55.7667   30.6048   43.3065 H   0  0  0  0  0  0  0  0  0  0  0  0
   57.2486   32.0963   47.3785 H   0  0  0  0  0  0  0  0  0  0  0  0
   58.9325   33.7337   48.2177 H   0  0  0  0  0  0  0  0  0  0  0  0
   60.1746   35.1872   46.6103 H   0  0  0  0  0  0  0  0  0  0  0  0
   59.7500   34.9853   44.1579 H   0  0  0  0  0  0  0  0  0  0  0  0
   58.0857   33.3303   43.3074 H   0  0  0  0  0  0  0  0  0  0  0  0
   58.7640   29.7640   47.2250 H   0  0  0  0  0  0  0  0  0  0  0  0
   61.4821   28.6537   47.1551 H   0  0  0  0  0  0  0  0  0  0  0  0
   60.4719   29.3627   45.8377 H   0  0  0  0  0  0  0  0  0  0  0  0
   62.2499   30.9362   46.4297 H   0  0  0  0  0  0  0  0  0  0  0  0
   60.6512   31.5924   46.9596 H   0  0  0  0  0  0  0  0  0  0  0  0
   64.5952   31.2551   48.7583 H   0  0  0  0  0  0  0  0  0  0  0  0
   66.7733   31.6420   49.9122 H   0  0  0  0  0  0  0  0  0  0  0  0
   65.0744   35.0342   51.9941 H   0  0  0  0  0  0  0  0  0  0  0  0
   61.5877   29.1924   49.6630 H   0  0  0  0  0  0  0  0  0  0  0  0
   61.0942   30.7647   50.4387 H   0  0  0  0  0  0  0  0  0  0  0  0
   59.1493   29.3246   49.8155 H   0  0  0  0  0  0  0  0  0  0  0  0
   59.1804   30.9436   48.9814 H   0  0  0  0  0  0  0  0  0  0  0  0
  1  2  2  0
  2  3  1  0
  3  4  1  0
  4  5  2  0
  5  6  1  0
  6  7  1  0
  7  8  1  0
  8  9  1  0
  9 10  1  0
 10 11  2  0
 11 12  1  0
 12 13  2  0
 13 14  1  0
 14 15  2  0
  7 16  2  0
  2 17  1  0
 17 18  1  0
 18 19  1  0
 19 20  1  0
 20 21  1  0
 21 22  2  0
 21 23  2  0
 21 24  1  0
 24 25  2  0
 25 26  1  0
 26 27  2  0
 27 28  1  0
 27 29  1  0
 29 30  2  0
 30 31  1  0
 20 32  1  0
 32 33  1  0
 16  4  1  0
 33 17  1  0
 15 10  1  0
 30 24  1  0
  3 34  1  0
  3 35  1  0
  5 36  1  0
  8 37  1  0
  8 38  1  0
 11 39  1  0
 12 40  1  0
 13 41  1  0
 14 42  1  0
 15 43  1  0
 17 44  1  0
 18 45  1  0
 18 46  1  0
 19 47  1  0
 19 48  1  0
 25 49  1  0
 26 50  1  0
 29 51  1  0
 32 52  1  0
 32 53  1  0
 33 54  1  0
 33 55  1  0
M  CHG  1  17   1
M  END
>  <UniqueID>  (18) 
17

>  <SMILES>  (18) 
O=C(Cc1csc(COc2ccccc2)n1)[NH+]1CCN(S(=O)(=O)c2ccc(Br)cc2F)CC1

>  <Energy>  (18) 
97.20796095630362

>  <Genealogy>  (18) 
O=C(Cc1csc(COc2ccccc2)n1)[NH+]1CCN(S(=O)(=O)c2ccc(Br)cc2F)CC1 (protonated)
O=C(Cc1csc(COc2ccccc2)n1)[NH+]1CCN(S(=O)(=O)c2ccc(Br)cc2F)CC1 (3D coordinates assigned)
O=C(Cc1csc(COc2ccccc2)n1)[NH+]1CCN(S(=O)(=O)c2ccc(Br)cc2F)CC1 (nonaromatic ring conformer: 97.20796095630362 kcal/mol)

>  <smiles>  (18) 
O=C(Cc1csc(COc2ccccc2)n1)N1CCN(S(=O)(=O)c2ccc(Br)cc2F)CC1

>  <score_type>  (18) 
oracle

>  <origin>  (18) 
adg

>  <m_score__min__energy>  (18) 
-8.3699999999999992

>  <m_primary>  (18) 
energy

$$$$
18:0
     RDKit          3D

 79 83  0  0  0  0  0  0  0  0999 V2000
   55.5910   29.6430   43.9980 C   0  0  0  0  0  0  0  0  0  0  0  0
   56.5390   30.7920   43.9250 C   0  0  0  0  0  0  0  0  0  0  0  0
   57.0130   31.4340   45.0130 N   0  0  0  0  0  0  0  0  0  0  0  0
   57.9090   32.4070   44.6850 C   0  0  0  0  0  0  0  0  0  0  0  0
   58.5740   33.2320   45.7240 C   0  0  0  0  0  0  0  0  0  0  0  0
   59.1770   34.4520   45.3730 C   0  0  0  0  0  0  0  0  0  0  0  0
   59.8050   35.2370   46.3420 C   0  0  0  0  0  0  0  0  0  0  0  0
   59.8560   34.8050   47.6690 C   0  0  0  0  0  0  0  0  0  0  0  0
   59.2790   33.5820   48.0320 C   0  0  0  0  0  0  0  0  0  0  0  0
   59.3590   33.0280   49.6990 S   0  0  0  0  0  0  0  0  0  0  0  0
   58.2270   32.0760   49.9610 O   0  0  0  0  0  0  0  0  0  0  0  0
   59.2460   34.2070   50.6260 O   0  0  0  0  0  0  0  0  0  0  0  0
   60.8700   32.2270   49.9790 N   0  0  0  0  0  0  0  0  0  0  0  0
   61.7570   32.6310   51.0260 C   0  0  0  0  0  0  0  0  0  0  0  0
   61.7530   31.9440   52.2640 C   0  0  0  0  0  0  0  0  0  0  0  0
   60.8670   30.7450   52.5030 C   0  0  0  0  0  0  0  0  0  0  0  0
   61.1050   29.6820   51.4680 C   0  0  0  0  0  0  0  0  0  0  0  0
   61.9910   28.8060   51.6660 O   0  0  0  0  0  0  0  0  0  0  0  0
   60.3720   29.7040   50.2350 N   0  0  0  0  0  0  0  0  0  0  0  0
   60.5600   28.7070   49.1790 C   0  0  0  0  0  0  0  0  0  0  0  0
   60.4700   29.3360   47.7820 C   0  0  0  0  0  0  0  0  0  0  0  0
   59.0180   29.6980   47.3910 C   0  0  0  0  0  0  0  0  0  0  0  0
   58.4750   28.8850   46.2780 N   0  0  0  0  0  0  0  0  0  0  0  0
   59.2760   29.0020   45.0390 C   0  0  0  0  0  0  0  0  0  0  0  0
   59.0200   27.8180   44.0920 C   0  0  0  0  0  0  0  0  0  0  0  0
   57.6820   27.3810   44.2210 O   0  0  0  0  0  0  0  0  0  0  0  0
   57.4770   26.7680   45.4860 C   0  0  0  0  0  0  0  0  0  0  0  0
   58.2090   27.4810   46.6450 C   0  0  0  0  0  0  0  0  0  0  0  0
   62.6650   32.3160   53.2620 C   0  0  0  0  0  0  0  0  0  0  0  0
   63.5710   33.3530   53.0410 C   0  0  0  0  0  0  0  0  0  0  0  0
   63.6000   34.0190   51.8170 C   0  0  0  0  0  0  0  0  0  0  0  0
   64.5450   35.0230   51.6230 O   0  0  0  0  0  0  0  0  0  0  0  0
   62.6950   33.6680   50.7940 C   0  0  0  0  0  0  0  0  0  0  0  0
   62.7480   34.3750   49.4510 C   0  0  0  0  0  0  0  0  0  0  0  0
   63.7830   33.7910   48.5670 N   0  0  0  0  0  0  0  0  0  0  0  0
   63.3900   33.9260   47.1550 C   0  0  0  0  0  0  0  0  0  0  0  0
   62.6010   32.6850   46.7650 C   0  0  0  0  0  0  0  0  0  0  0  0
   62.9180   31.6580   47.8360 C   0  0  0  0  0  0  0  0  0  0  0  0
   63.9180   32.3420   48.7570 C   0  0  0  0  0  0  0  0  0  0  0  0
   58.6290   32.8050   47.0650 C   0  0  0  0  0  0  0  0  0  0  0  0
   58.1620   32.5230   43.3110 C   0  0  0  0  0  0  0  0  0  0  0  0
   57.2370   31.3720   42.5100 S   0  0  0  0  0  0  0  0  0  0  0  0
   55.3902   29.3997   45.0518 H   0  0  0  0  0  0  0  0  0  0  0  0
   54.6490   29.9125   43.4980 H   0  0  0  0  0  0  0  0  0  0  0  0
   56.0346   28.7693   43.4980 H   0  0  0  0  0  0  0  0  0  0  0  0
   59.1540   34.7911   44.3268 H   0  0  0  0  0  0  0  0  0  0  0  0
   60.2605   36.1976   46.0596 H   0  0  0  0  0  0  0  0  0  0  0  0
   60.3502   35.4265   48.4302 H   0  0  0  0  0  0  0  0  0  0  0  0
   61.0831   30.3314   53.4991 H   0  0  0  0  0  0  0  0  0  0  0  0
   59.8174   31.0675   52.4378 H   0  0  0  0  0  0  0  0  0  0  0  0
   59.6300   30.4280   50.1010 H   0  0  0  0  0  0  0  0  0  0  0  0
   61.5506   28.2438   49.2983 H   0  0  0  0  0  0  0  0  0  0  0  0
   59.7606   27.9568   49.2694 H   0  0  0  0  0  0  0  0  0  0  0  0
   61.0787   30.2521   47.7671 H   0  0  0  0  0  0  0  0  0  0  0  0
   60.8382   28.5957   47.0564 H   0  0  0  0  0  0  0  0  0  0  0  0
   58.3756   29.5520   48.2719 H   0  0  0  0  0  0  0  0  0  0  0  0
   59.0314   30.7425   47.0461 H   0  0  0  0  0  0  0  0  0  0  0  0
   59.0060   29.9363   44.5251 H   0  0  0  0  0  0  0  0  0  0  0  0
   60.3411   29.0017   45.3138 H   0  0  0  0  0  0  0  0  0  0  0  0
   59.2021   28.1346   43.0544 H   0  0  0  0  0  0  0  0  0  0  0  0
   59.6981   26.9920   44.3525 H   0  0  0  0  0  0  0  0  0  0  0  0
   56.3985   26.7697   45.7025 H   0  0  0  0  0  0  0  0  0  0  0  0
   57.8893   25.7502   45.4218 H   0  0  0  0  0  0  0  0  0  0  0  0
   57.5802   27.4520   47.5471 H   0  0  0  0  0  0  0  0  0  0  0  0
   59.1628   26.9696   46.8421 H   0  0  0  0  0  0  0  0  0  0  0  0
   62.6659   31.7862   54.2260 H   0  0  0  0  0  0  0  0  0  0  0  0
   64.2683   33.6476   53.8391 H   0  0  0  0  0  0  0  0  0  0  0  0
   61.7674   34.2840   48.9609 H   0  0  0  0  0  0  0  0  0  0  0  0
   63.0028   35.4304   49.6280 H   0  0  0  0  0  0  0  0  0  0  0  0
   62.7647   34.8217   47.0257 H   0  0  0  0  0  0  0  0  0  0  0  0
   64.2815   34.0273   46.5186 H   0  0  0  0  0  0  0  0  0  0  0  0
   61.5230   32.9033   46.7471 H   0  0  0  0  0  0  0  0  0  0  0  0
   62.8692   32.3267   45.7602 H   0  0  0  0  0  0  0  0  0  0  0  0
   62.0079   31.3838   48.3896 H   0  0  0  0  0  0  0  0  0  0  0  0
   63.3203   30.7276   47.4089 H   0  0  0  0  0  0  0  0  0  0  0  0
   63.7031   32.0800   49.8035 H   0  0  0  0  0  0  0  0  0  0  0  0
   64.9423   32.0170   48.5219 H   0  0  0  0  0  0  0  0  0  0  0  0
   58.1579   31.8542   47.3550 H   0  0  0  0  0  0  0  0  0  0  0  0
   58.8472   33.2427   42.8393 H   0  0  0  0  0  0  0  0  0  0  0  0
  1  2  1  0
  2  3  2  0
  3  4  1  0
  4  5  1  0
  5  6  2  0
  6  7  1  0
  7  8  2  0
  8  9  1  0
  9 10  1  0
 10 11  2  0
 10 12  2  0
 10 13  1  0
 13 14  1  0
 14 15  1  0
 15 16  1  0
 16 17  1  0
 17 18  2  0
 17 19  1  0
 19 20  1  0
 20 21  1  0
 21 22  1  0
 22 23  1  0
 23 24  1  0
 24 25  1  0
 25 26  1  0
 26 27  1  0
 27 28  1  0
 15 29  2  0
 29 30  1  0
 30 31  2  0
 31 32  1  0
 31 33  1  0
 33 34  1  0
 34 35  1  0
 35 36  1  0
 36 37  1  0
 37 38  1  0
 38 39  1  0
  9 40  2  0
  4 41  2  0
 41 42  1  0
 42  2  1  0
 40  5  1  0
 33 14  2  0
 39 35  1  0
 28 23  1  0
  1 43  1  0
  1 44  1  0
  1 45  1  0
  6 46  1  0
  7 47  1  0
  8 48  1  0
 16 49  1  0
 16 50  1  0
 19 51  1  0
 20 52  1  0
 20 53  1  0
 21 54  1  0
 21 55  1  0
 22 56  1  0
 22 57  1  0
 24 58  1  0
 24 59  1  0
 25 60  1  0
 25 61  1  0
 27 62  1  0
 27 63  1  0
 28 64  1  0
 28 65  1  0
 29 66  1  0
 30 67  1  0
 34 68  1  0
 34 69  1  0
 36 70  1  0
 36 71  1  0
 37 72  1  0
 37 73  1  0
 38 74  1  0
 38 75  1  0
 39 76  1  0
 39 77  1  0
 40 78  1  0
 41 79  1  0
M  CHG  2  13  -1  32  -1
M  END
>  <UniqueID>  (19) 
18

>  <SMILES>  (19) 
Cc1nc(-c2cccc(S(=O)(=O)[N-]c3c(CC(=O)NCCCN4CCOCC4)ccc([O-])c3CN3CCCC3)c2)cs1

>  <Energy>  (19) 
130.96129655441547

>  <Genealogy>  (19) 
Cc1nc(-c2cccc(S(=O)(=O)[N-]c3c(CC(=O)NCCCN4CCOCC4)ccc([O-])c3CN3CCCC3)c2)cs1 (protonated)
Cc1nc(-c2cccc(S(=O)(=O)[N-]c3c(CC(=O)NCCCN4CCOCC4)ccc([O-])c3CN3CCCC3)c2)cs1 (3D coordinates assigned)
Cc1nc(-c2cccc(S(=O)(=O)[N-]c3c(CC(=O)NCCCN4CCOCC4)ccc([O-])c3CN3CCCC3)c2)cs1 (nonaromatic ring conformer: 130.96129655441547 kcal/mol)

>  <smiles>  (19) 
Cc1nc(-c2cccc(S(=O)(=O)Nc3c(CC(=O)NCCCN4CCOCC4)ccc(O)c3CN3CCCC3)c2)cs1

>  <score_type>  (19) 
oracle

>  <origin>  (19) 
adg

>  <m_score__min__energy>  (19) 
-14.07

>  <m_primary>  (19) 
energy

$$$$
19:0
     RDKit          3D

 49 51  0  0  0  0  0  0  0  0999 V2000
   59.6760   35.8210   45.5330 C   0  0  0  0  0  0  0  0  0  0  0  0
   59.3400   34.4050   45.8980 C   0  0  0  0  0  0  0  0  0  0  0  0
   58.0680   33.8870   45.6200 C   0  0  0  0  0  0  0  0  0  0  0  0
   57.7640   32.5620   45.9360 C   0  0  0  0  0  0  0  0  0  0  0  0
   58.7250   31.7320   46.5300 C   0  0  0  0  0  0  0  0  0  0  0  0
   58.3640   30.3820   46.8560 N   0  0  0  0  0  0  0  0  0  0  0  0
   58.5150   29.3000   45.9230 C   0  0  0  0  0  0  0  0  0  0  0  0
   59.2140   29.4680   44.8850 O   0  0  0  0  0  0  0  0  0  0  0  0
   57.8850   27.9830   46.1750 C   0  0  0  0  0  0  0  0  0  0  0  0
   58.5500   27.0170   46.9510 C   0  0  0  0  0  0  0  0  0  0  0  0
   57.9650   25.7700   47.1890 C   0  0  0  0  0  0  0  0  0  0  0  0
   56.7050   25.4630   46.6500 C   0  0  0  0  0  0  0  0  0  0  0  0
   56.0660   24.1990   46.8720 N   0  0  0  0  0  0  0  0  0  0  0  0
   56.6150   22.6830   46.2320 S   0  0  0  0  0  0  0  0  0  0  0  0
   55.4230   21.8700   45.8070 O   0  0  0  0  0  0  0  0  0  0  0  0
   57.3480   21.9440   47.3160 O   0  0  0  0  0  0  0  0  0  0  0  0
   57.6720   22.9750   44.8670 N   0  0  0  0  0  0  0  0  0  0  0  0
   58.1580   21.7130   44.2670 C   0  0  0  0  0  0  0  0  0  0  0  0
   57.3880   21.3230   42.9940 C   0  0  0  0  0  0  0  0  0  0  0  0
   56.0440   21.7370   43.0920 O   0  0  0  0  0  0  0  0  0  0  0  0
   55.9620   23.1500   43.0360 C   0  0  0  0  0  0  0  0  0  0  0  0
   57.0470   23.8690   43.8760 C   0  0  0  0  0  0  0  0  0  0  0  0
   56.0470   26.4170   45.8660 C   0  0  0  0  0  0  0  0  0  0  0  0
   56.6290   27.6650   45.6270 C   0  0  0  0  0  0  0  0  0  0  0  0
   60.0320   32.2260   46.7530 C   0  0  0  0  0  0  0  0  0  0  0  0
   61.1240   31.3530   47.3100 C   0  0  0  0  0  0  0  0  0  0  0  0
   60.3200   33.5680   46.4490 C   0  0  0  0  0  0  0  0  0  0  0  0
   59.8164   36.4125   46.4497 H   0  0  0  0  0  0  0  0  0  0  0  0
   60.6029   35.8369   44.9408 H   0  0  0  0  0  0  0  0  0  0  0  0
   58.8551   36.2517   44.9408 H   0  0  0  0  0  0  0  0  0  0  0  0
   57.3062   34.5271   45.1510 H   0  0  0  0  0  0  0  0  0  0  0  0
   56.7616   32.1655   45.7171 H   0  0  0  0  0  0  0  0  0  0  0  0
   58.2060   30.1510   47.8630 H   0  0  0  0  0  0  0  0  0  0  0  0
   59.5393   27.2447   47.3745 H   0  0  0  0  0  0  0  0  0  0  0  0
   58.4943   25.0253   47.8016 H   0  0  0  0  0  0  0  0  0  0  0  0
   59.2214   21.8317   44.0120 H   0  0  0  0  0  0  0  0  0  0  0  0
   58.0024   20.9134   45.0062 H   0  0  0  0  0  0  0  0  0  0  0  0
   57.8550   21.8078   42.1240 H   0  0  0  0  0  0  0  0  0  0  0  0
   57.4192   20.2298   42.8764 H   0  0  0  0  0  0  0  0  0  0  0  0
   56.0703   23.4631   41.9871 H   0  0  0  0  0  0  0  0  0  0  0  0
   54.9869   23.4331   43.4591 H   0  0  0  0  0  0  0  0  0  0  0  0
   57.8271   24.2457   43.1981 H   0  0  0  0  0  0  0  0  0  0  0  0
   56.5596   24.6892   44.4235 H   0  0  0  0  0  0  0  0  0  0  0  0
   55.0629   26.1827   45.4339 H   0  0  0  0  0  0  0  0  0  0  0  0
   56.1012   28.4038   45.0060 H   0  0  0  0  0  0  0  0  0  0  0  0
   61.0902   31.3800   48.4092 H   0  0  0  0  0  0  0  0  0  0  0  0
   60.9791   30.3189   46.9640 H   0  0  0  0  0  0  0  0  0  0  0  0
   62.1008   31.7220   46.9640 H   0  0  0  0  0  0  0  0  0  0  0  0
   61.3264   33.9659   46.6459 H   0  0  0  0  0  0  0  0  0  0  0  0
  1  2  1  0
  2  3  2  0
  3  4  1  0
  4  5  2  0
  5  6  1  0
  6  7  1  0
  7  8  2  0
  7  9  1  0
  9 10  2  0
 10 11  1  0
 11 12  2  0
 12 13  1  0
 13 14  1  0
 14 15  2  0
 14 16  2  0
 14 17  1  0
 17 18  1  0
 18 19  1  0
 19 20  1  0
 20 21  1  0
 21 22  1  0
 12 23  1  0
 23 24  2  0
  5 25  1  0
 25 26  1  0
 25 27  2  0
 27  2  1  0
 24  9  1  0
 22 17  1  0
  1 28  1  0
  1 29  1  0
  1 30  1  0
  3 31  1  0
  4 32  1  0
  6 33  1  0
 10 34  1  0
 11 35  1  0
 18 36  1  0
 18 37  1  0
 19 38  1  0
 19 39  1  0
 21 40  1  0
 21 41  1  0
 22 42  1  0
 22 43  1  0
 23 44  1  0
 24 45  1  0
 26 46  1  0
 26 47  1  0
 26 48  1  0
 27 49  1  0
M  CHG  1  13  -1
M  END
>  <UniqueID>  (20) 
19

>  <SMILES>  (20) 
Cc1ccc(NC(=O)c2ccc([N-]S(=O)(=O)N3CCOCC3)cc2)c(C)c1

>  <Energy>  (20) 
69.04988049046547

>  <Genealogy>  (20) 
Cc1ccc(NC(=O)c2ccc([N-]S(=O)(=O)N3CCOCC3)cc2)c(C)c1 (protonated)
Cc1ccc(NC(=O)c2ccc([N-]S(=O)(=O)N3CCOCC3)cc2)c(C)c1 (3D coordinates assigned)
Cc1ccc(NC(=O)c2ccc([N-]S(=O)(=O)N3CCOCC3)cc2)c(C)c1 (nonaromatic ring conformer: 69.04988049046547 kcal/mol)

>  <smiles>  (20) 
Cc1ccc(NC(=O)c2ccc(NS(=O)(=O)N3CCOCC3)cc2)c(C)c1

>  <score_type>  (20) 
oracle

>  <origin>  (20) 
adg

>  <m_score__min__energy>  (20) 
-10.029999999999999

>  <m_primary>  (20) 
energy

$$$$
20:0
     RDKit          3D

 43 45  0  0  0  0  0  0  0  0999 V2000
   55.8040   28.7190   43.9570 H   0  0  0  0  0  0  0  0  0  0  0  0
   55.6590   28.5740   44.9480 O   0  0  0  0  0  0  0  0  0  0  0  0
   56.1670   27.4580   45.6100 C   0  0  0  0  0  0  0  0  0  0  0  0
   55.4030   26.4270   46.0010 N   0  0  0  0  0  0  0  0  0  0  0  0
   56.2800   25.6270   46.6410 C   0  0  0  0  0  0  0  0  0  0  0  0
   55.9430   24.5360   47.1710 O   0  0  0  0  0  0  0  0  0  0  0  0
   57.5480   26.0900   46.6780 N   0  0  0  0  0  0  0  0  0  0  0  0
   57.4770   27.2480   45.9980 C   0  0  0  0  0  0  0  0  0  0  0  0
   58.6330   28.1470   45.8160 C   0  0  0  0  0  0  0  0  0  0  0  0
   59.6135   27.6707   45.6683 H   0  0  0  0  0  0  0  0  0  0  0  0
   58.6050   29.5070   45.8130 C   0  0  0  0  0  0  0  0  0  0  0  0
   58.1220   30.1180   44.6450 C   0  0  0  0  0  0  0  0  0  0  0  0
   57.6192   29.4971   43.8889 H   0  0  0  0  0  0  0  0  0  0  0  0
   58.2590   31.4900   44.4110 C   0  0  0  0  0  0  0  0  0  0  0  0
   57.7620   32.0280   43.0840 C   0  0  0  0  0  0  0  0  0  0  0  0
   57.1667   32.9354   43.2635 H   0  0  0  0  0  0  0  0  0  0  0  0
   58.6312   32.2578   42.4502 H   0  0  0  0  0  0  0  0  0  0  0  0
   56.8960   30.9960   42.3680 C   0  0  0  0  0  0  0  0  0  0  0  0
   56.3750   30.3751   43.1117 H   0  0  0  0  0  0  0  0  0  0  0  0
   56.1563   31.5117   41.7380 H   0  0  0  0  0  0  0  0  0  0  0  0
   57.5323   30.3571   41.7380 H   0  0  0  0  0  0  0  0  0  0  0  0
   58.8490   32.3140   45.4000 C   0  0  0  0  0  0  0  0  0  0  0  0
   59.0830   33.7910   45.1260 C   0  0  0  0  0  0  0  0  0  0  0  0
   60.1212   34.0520   45.3789 H   0  0  0  0  0  0  0  0  0  0  0  0
   58.9040   34.0021   44.0614 H   0  0  0  0  0  0  0  0  0  0  0  0
   58.2050   34.5500   45.9100 O   0  0  0  0  0  0  0  0  0  0  0  0
   58.7700   35.0440   46.5590 H   0  0  0  0  0  0  0  0  0  0  0  0
   59.2750   31.7320   46.6240 C   0  0  0  0  0  0  0  0  0  0  0  0
   59.9410   32.5850   47.6410 C   0  0  0  0  0  0  0  0  0  0  0  0
   61.3180   32.8360   47.5500 C   0  0  0  0  0  0  0  0  0  0  0  0
   61.9015   32.4042   46.7235 H   0  0  0  0  0  0  0  0  0  0  0  0
   61.9500   33.6340   48.5080 C   0  0  0  0  0  0  0  0  0  0  0  0
   63.0297   33.8311   48.4338 H   0  0  0  0  0  0  0  0  0  0  0  0
   61.2100   34.1820   49.5610 C   0  0  0  0  0  0  0  0  0  0  0  0
   61.7080   34.8111   50.3135 H   0  0  0  0  0  0  0  0  0  0  0  0
   59.8380   33.9310   49.6580 C   0  0  0  0  0  0  0  0  0  0  0  0
   59.2582   34.3609   50.4880 H   0  0  0  0  0  0  0  0  0  0  0  0
   59.2020   33.1340   48.7010 C   0  0  0  0  0  0  0  0  0  0  0  0
   58.1225   32.9372   48.7787 H   0  0  0  0  0  0  0  0  0  0  0  0
   59.0640   30.3440   46.8790 C   0  0  0  0  0  0  0  0  0  0  0  0
   59.1930   29.8730   48.1410 C   0  0  0  0  0  0  0  0  0  0  0  0
   59.0325   28.8047   48.3484 H   0  0  0  0  0  0  0  0  0  0  0  0
   59.4584   30.5584   48.9594 H   0  0  0  0  0  0  0  0  0  0  0  0
  1  2  1  0
  2  3  1  0
  3  4  1  0
  4  5  1  0
  5  6  2  0
  5  7  1  0
  7  8  1  0
  8  9  1  0
  9 10  1  0
  9 11  2  0
 11 12  1  0
 12 13  1  0
 12 14  2  0
 14 15  1  0
 15 16  1  0
 15 17  1  0
 15 18  1  0
 18 19  1  0
 18 20  1  0
 18 21  1  0
 14 22  1  0
 22 23  1  0
 23 24  1  0
 23 25  1  0
 23 26  1  0
 26 27  1  0
 22 28  2  0
 28 29  1  0
 29 30  2  0
 30 31  1  0
 30 32  1  0
 32 33  1  0
 32 34  2  0
 34 35  1  0
 34 36  1  0
 36 37  1  0
 36 38  2  0
 38 39  1  0
 28 40  1  0
 40 41  2  0
 41 42  1  0
 41 43  1  0
  8  3  2  0
 40 11  1  0
 38 29  1  0
M  CHG  2   4  -1   7  -1
M  END
>  <UniqueID>  (21) 
20

>  <SMILES>  (21) 
C=c1c(-c2ccccc2)c(CO)c(CC)c/c1=C/c1[n-]c(=O)[n-]c1O

>  <Energy>  (21) 
107.96895158605845

>  <Genealogy>  (21) 
C=c1c(-c2ccccc2)c(CO)c(CC)cc1=Cc1[n-]c(=O)[n-]c1O (protonated)
C=c1c(-c2ccccc2)c(CO)c(CC)c/c1=C/c1[n-]c(=O)[n-]c1O (cis-trans isomerization)
C=c1c(-c2ccccc2)c(CO)c(CC)c/c1=C/c1[n-]c(=O)[n-]c1O (3D coordinates assigned)
C=c1c(-c2ccccc2)c(CO)c(CC)c/c1=C/c1[n-]c(=O)[n-]c1O (optimized conformer: 107.96895158605845 kcal/mol)

>  <smiles>  (21) 
C=c1c(-c2ccccc2)c(CO)c(CC)cc1=Cc1[nH]c(=O)[nH]c1O

>  <score_type>  (21) 
oracle

>  <origin>  (21) 
adg

>  <m_score__min__energy>  (21) 
-12.630000000000001

>  <m_primary>  (21) 
energy

$$$$
21:0
     RDKit          3D

 36 38  0  0  0  0  0  0  0  0999 V2000
   58.3730   29.7770   44.2390 O   0  0  0  0  0  0  0  0  0  0  0  0
   57.2630   29.9770   44.8040 C   0  0  0  0  0  0  0  0  0  0  0  0
   56.5650   28.8950   45.4300 N   0  0  0  0  0  0  0  0  0  0  0  0
   57.0320   27.5410   45.5030 C   0  0  0  0  0  0  0  0  0  0  0  0
   58.3720   27.2770   45.2000 C   0  0  0  0  0  0  0  0  0  0  0  0
   58.8690   25.9730   45.2510 C   0  0  0  0  0  0  0  0  0  0  0  0
   58.0270   24.8970   45.5890 C   0  0  0  0  0  0  0  0  0  0  0  0
   58.5540   23.5100   45.6500 C   0  0  0  0  0  0  0  0  0  0  0  0
   57.8640   22.3530   45.9650 C   0  0  0  0  0  0  0  0  0  0  0  0
   58.7070   21.3050   45.9070 N   0  0  0  0  0  0  0  0  0  0  0  0
   59.9080   21.7460   45.5650 N   0  0  0  0  0  0  0  0  0  0  0  0
   59.8450   23.0810   45.4030 C   0  0  0  0  0  0  0  0  0  0  0  0
   56.6710   25.1620   45.8590 C   0  0  0  0  0  0  0  0  0  0  0  0
   56.1700   26.4670   45.8030 C   0  0  0  0  0  0  0  0  0  0  0  0
   54.8110   26.6780   46.0090 O   0  0  0  0  0  0  0  0  0  0  0  0
   56.6650   31.2780   44.7820 N   0  0  0  0  0  0  0  0  0  0  0  0
   57.3440   32.4460   44.2250 C   0  0  0  0  0  0  0  0  0  0  0  0
   58.1180   33.1620   45.3000 C   0  0  0  0  0  0  0  0  0  0  0  0
   57.7600   33.0130   46.6500 C   0  0  0  0  0  0  0  0  0  0  0  0
   58.4610   33.7000   47.6460 C   0  0  0  0  0  0  0  0  0  0  0  0
   59.5230   34.5410   47.3030 C   0  0  0  0  0  0  0  0  0  0  0  0
   59.8830   34.6990   45.9610 C   0  0  0  0  0  0  0  0  0  0  0  0
   59.1850   34.0150   44.9610 C   0  0  0  0  0  0  0  0  0  0  0  0
   59.5440   34.1870   43.6630 F   0  0  0  0  0  0  0  0  0  0  0  0
   59.0403   28.1043   44.9190 H   0  0  0  0  0  0  0  0  0  0  0  0
   59.9289   25.7849   45.0248 H   0  0  0  0  0  0  0  0  0  0  0  0
   56.7959   22.2981   46.2221 H   0  0  0  0  0  0  0  0  0  0  0  0
   60.6877   23.7284   45.1189 H   0  0  0  0  0  0  0  0  0  0  0  0
   55.9967   24.3322   46.1173 H   0  0  0  0  0  0  0  0  0  0  0  0
   55.7130   31.4010   45.1940 H   0  0  0  0  0  0  0  0  0  0  0  0
   58.0365   32.1206   43.4347 H   0  0  0  0  0  0  0  0  0  0  0  0
   56.5921   33.1321   43.8079 H   0  0  0  0  0  0  0  0  0  0  0  0
   56.9243   32.3528   46.9251 H   0  0  0  0  0  0  0  0  0  0  0  0
   58.1759   33.5782   48.7014 H   0  0  0  0  0  0  0  0  0  0  0  0
   60.0753   35.0783   48.0880 H   0  0  0  0  0  0  0  0  0  0  0  0
   60.7174   35.3631   45.6914 H   0  0  0  0  0  0  0  0  0  0  0  0
  1  2  2  0
  2  3  1  0
  3  4  1  0
  4  5  2  0
  5  6  1  0
  6  7  2  0
  7  8  1  0
  8  9  1  0
  9 10  2  0
 10 11  1  0
 11 12  1  0
  7 13  1  0
 13 14  2  0
 14 15  1  0
  2 16  1  0
 16 17  1  0
 17 18  1  0
 18 19  2  0
 19 20  1  0
 20 21  2  0
 21 22  1  0
 22 23  2  0
 23 24  1  0
 14  4  1  0
 23 18  1  0
 12  8  2  0
  5 25  1  0
  6 26  1  0
  9 27  1  0
 12 28  1  0
 13 29  1  0
 16 30  1  0
 17 31  1  0
 17 32  1  0
 19 33  1  0
 20 34  1  0
 21 35  1  0
 22 36  1  0
M  CHG  3   3  -1  11  -1  15  -1
M  END
>  <UniqueID>  (22) 
21

>  <SMILES>  (22) 
O=C([N-]c1ccc(-c2cn[n-]c2)cc1[O-])NCc1ccccc1F

>  <Energy>  (22) 
73.38001360581869

>  <Genealogy>  (22) 
O=C([N-]c1ccc(-c2cn[n-]c2)cc1[O-])NCc1ccccc1F (protonated)
O=C([N-]c1ccc(-c2cn[n-]c2)cc1[O-])NCc1ccccc1F (3D coordinates assigned)
O=C([N-]c1ccc(-c2cn[n-]c2)cc1[O-])NCc1ccccc1F (optimized conformer: 73.38001360581869 kcal/mol)

>  <smiles>  (22) 
O=C(NCc1ccccc1F)Nc1ccc(-c2cn[nH]c2)cc1O

>  <score_type>  (22) 
oracle

>  <origin>  (22) 
adg

>  <m_score__min__energy>  (22) 
-14.07

>  <m_primary>  (22) 
energy

$$$$
22:0
     RDKit          3D

 44 47  0  0  0  0  0  0  0  0999 V2000
   59.9560   27.5250   46.6660 C   0  0  0  0  0  0  0  0  0  0  0  0
   59.4630   27.7210   47.8910 C   0  0  0  0  0  0  0  0  0  0  0  0
   60.3060   28.3020   48.9920 C   0  0  0  0  0  0  0  0  0  0  0  0
   59.7360   29.5860   49.4520 N   0  0  0  0  0  0  0  0  0  0  0  0
   59.3060   29.7140   50.7460 C   0  0  0  0  0  0  0  0  0  0  0  0
   59.3400   28.7340   51.5390 O   0  0  0  0  0  0  0  0  0  0  0  0
   58.8840   30.9120   51.2030 N   0  0  0  0  0  0  0  0  0  0  0  0
   58.7590   31.9790   50.3810 C   0  0  0  0  0  0  0  0  0  0  0  0
   58.5180   33.2260   50.9460 O   0  0  0  0  0  0  0  0  0  0  0  0
   58.9420   31.8330   48.9900 C   0  0  0  0  0  0  0  0  0  0  0  0
   58.6750   33.0490   48.0700 C   0  0  2  0  0  0  0  0  0  0  0  0
   58.4070   32.8070   46.5860 C   0  0  0  0  0  0  0  0  0  0  0  0
   58.0820   31.6510   45.8570 C   0  0  0  0  0  0  0  0  0  0  0  0
   57.9160   31.7490   44.4650 C   0  0  0  0  0  0  0  0  0  0  0  0
   58.1250   32.9760   43.8080 C   0  0  0  0  0  0  0  0  0  0  0  0
   58.5340   34.1020   44.5350 C   0  0  0  0  0  0  0  0  0  0  0  0
   58.6640   33.9790   45.9170 C   0  0  0  0  0  0  0  0  0  0  0  0
   59.3200   34.8600   46.8500 C   0  0  0  0  0  0  0  0  0  0  0  0
   59.6430   36.0540   46.6020 O   0  0  0  0  0  0  0  0  0  0  0  0
   59.6540   34.1870   48.0750 N   0  0  2  0  0  0  0  0  0  0  0  0
   61.0720   33.8480   47.9770 C   0  0  0  0  0  0  0  0  0  0  0  0
   61.8070   33.6430   49.1640 C   0  0  0  0  0  0  0  0  0  0  0  0
   63.1780   33.3770   49.1220 C   0  0  0  0  0  0  0  0  0  0  0  0
   63.8450   33.3290   47.8980 C   0  0  0  0  0  0  0  0  0  0  0  0
   63.1420   33.5460   46.7120 C   0  0  0  0  0  0  0  0  0  0  0  0
   61.7700   33.8100   46.7450 C   0  0  0  0  0  0  0  0  0  0  0  0
   59.6290   30.6550   48.5930 C   0  0  0  0  0  0  0  0  0  0  0  0
   60.2040   30.6030   47.4750 O   0  0  0  0  0  0  0  0  0  0  0  0
   59.3179   27.0983   45.8781 H   0  0  0  0  0  0  0  0  0  0  0  0
   61.0003   27.7902   46.4445 H   0  0  0  0  0  0  0  0  0  0  0  0
   58.4171   27.4515   48.0994 H   0  0  0  0  0  0  0  0  0  0  0  0
   60.3380   27.5964   49.8353 H   0  0  0  0  0  0  0  0  0  0  0  0
   61.3221   28.4784   48.6093 H   0  0  0  0  0  0  0  0  0  0  0  0
   57.7499   33.3139   48.6030 H   0  0  0  0  0  0  0  0  0  0  0  0
   57.9594   30.6845   46.3676 H   0  0  0  0  0  0  0  0  0  0  0  0
   57.6210   30.8617   43.8856 H   0  0  0  0  0  0  0  0  0  0  0  0
   57.9670   33.0512   42.7220 H   0  0  0  0  0  0  0  0  0  0  0  0
   58.7463   35.0555   44.0293 H   0  0  0  0  0  0  0  0  0  0  0  0
   59.4630   34.8190   48.8870 H   0  0  0  0  0  0  0  0  0  0  0  0
   61.2936   33.6933   50.1356 H   0  0  0  0  0  0  0  0  0  0  0  0
   63.7325   33.2051   50.0563 H   0  0  0  0  0  0  0  0  0  0  0  0
   64.9246   33.1202   47.8674 H   0  0  0  0  0  0  0  0  0  0  0  0
   63.6698   33.5091   45.7476 H   0  0  0  0  0  0  0  0  0  0  0  0
   61.2271   33.9900   45.8054 H   0  0  0  0  0  0  0  0  0  0  0  0
  1  2  2  0
  2  3  1  0
  3  4  1  0
  4  5  1  0
  5  6  2  0
  5  7  1  0
  7  8  1  0
  8  9  1  0
  8 10  2  0
 10 11  1  0
 11 12  1  0
 12 13  2  0
 13 14  1  0
 14 15  2  0
 15 16  1  0
 16 17  2  0
 17 18  1  0
 18 19  2  0
 18 20  1  0
 20 21  1  0
 21 22  2  0
 22 23  1  0
 23 24  2  0
 24 25  1  0
 25 26  2  0
 10 27  1  0
 27 28  2  0
 27  4  1  0
 20 11  1  0
 26 21  1  0
 17 12  1  0
  1 29  1  0
  1 30  1  0
  2 31  1  0
  3 32  1  0
  3 33  1  0
 11 34  1  1
 13 35  1  0
 14 36  1  0
 15 37  1  0
 16 38  1  0
 20 39  1  1
 22 40  1  0
 23 41  1  0
 24 42  1  0
 25 43  1  0
 26 44  1  0
M  CHG  3   7  -1   9  -1  20   1
M  END
>  <UniqueID>  (23) 
22

>  <SMILES>  (23) 
C=CCn1c(=O)[n-]c([O-])c([C@@H]2c3ccccc3C(=O)[N@@H+]2c2ccccc2)c1=O

>  <Energy>  (23) 
104.66961202273949

>  <Genealogy>  (23) 
C=CCn1c(=O)[n-]c([O-])c(C2c3ccccc3C(=O)[NH+]2c2ccccc2)c1=O (protonated)
C=CCn1c(=O)[n-]c([O-])c([C@@H]2c3ccccc3C(=O)[N@@H+]2c2ccccc2)c1=O (chirality)
C=CCn1c(=O)[n-]c([O-])c([C@@H]2c3ccccc3C(=O)[N@@H+]2c2ccccc2)c1=O (3D coordinates assigned)
C=CCn1c(=O)[n-]c([O-])c([C@@H]2c3ccccc3C(=O)[N@@H+]2c2ccccc2)c1=O (nonaromatic ring conformer: 104.66961202273949 kcal/mol)

>  <smiles>  (23) 
C=CCn1c(=O)[nH]c(O)c(C2c3ccccc3C(=O)N2c2ccccc2)c1=O

>  <score_type>  (23) 
oracle

>  <origin>  (23) 
adg

>  <m_score__min__energy>  (23) 
-9.1600000000000001

>  <m_primary>  (23) 
energy

$$$$
23:0
     RDKit          3D

 64 67  0  0  0  0  0  0  0  0999 V2000
   60.7232   27.4549   48.3187 H   0  0  0  0  0  0  0  0  0  0  0  0
   60.6490   28.5410   48.1610 C   0  0  0  0  0  0  0  0  0  0  0  0
   60.3570   28.9800   46.9670 N   0  0  0  0  0  0  0  0  0  0  0  0
   59.0630   28.9260   46.3390 C   0  0  0  0  0  0  0  0  0  0  0  0
   58.4950   30.0930   45.8140 C   0  0  0  0  0  0  0  0  0  0  0  0
   59.0511   31.0408   45.8626 H   0  0  0  0  0  0  0  0  0  0  0  0
   57.2250   30.0620   45.2280 C   0  0  0  0  0  0  0  0  0  0  0  0
   56.7852   30.9855   44.8233 H   0  0  0  0  0  0  0  0  0  0  0  0
   56.5120   28.8590   45.1550 C   0  0  0  0  0  0  0  0  0  0  0  0
   55.2430   28.8610   44.5860 O   0  0  0  0  0  0  0  0  0  0  0  0
   57.0920   27.6640   45.6350 C   0  0  0  0  0  0  0  0  0  0  0  0
   56.3730   26.3720   45.6000 C   0  0  0  0  0  0  0  0  0  0  0  0
   55.3140   26.2230   46.2810 O   0  0  0  0  0  0  0  0  0  0  0  0
   56.8540   25.2930   44.7940 N   0  0  0  0  0  0  0  0  0  0  0  0
   56.4200   24.0640   44.8330 C   0  0  0  0  0  0  0  0  0  0  0  0
   55.6740   23.5610   45.9640 N   0  0  0  0  0  0  0  0  0  0  0  0
   55.5530   24.1390   46.8200 H   0  0  0  0  0  0  0  0  0  0  0  0
   54.9320   22.3020   45.9350 C   0  0  0  0  0  0  0  0  0  0  0  0
   54.2812   22.2869   45.0483 H   0  0  0  0  0  0  0  0  0  0  0  0
   54.3296   22.2256   46.8522 H   0  0  0  0  0  0  0  0  0  0  0  0
   55.8940   21.1050   45.8750 C   0  0  0  0  0  0  0  0  0  0  0  0
   55.3689   20.2136   46.2488 H   0  0  0  0  0  0  0  0  0  0  0  0
   56.7693   21.3535   46.4931 H   0  0  0  0  0  0  0  0  0  0  0  0
   56.4000   20.8160   44.4540 C   0  0  0  0  0  0  0  0  0  0  0  0
   55.5302   20.7144   43.7884 H   0  0  0  0  0  0  0  0  0  0  0  0
   56.9965   19.8931   44.5038 H   0  0  0  0  0  0  0  0  0  0  0  0
   57.3160   21.9180   43.8940 C   0  0  0  0  0  0  0  0  0  0  0  0
   57.7743   21.5535   42.9628 H   0  0  0  0  0  0  0  0  0  0  0  0
   58.0706   22.1412   44.6626 H   0  0  0  0  0  0  0  0  0  0  0  0
   56.5660   23.2250   43.5920 C   0  0  0  0  0  0  0  0  0  0  0  0
   55.5663   22.9838   43.2015 H   0  0  0  0  0  0  0  0  0  0  0  0
   57.1431   23.7959   42.8497 H   0  0  0  0  0  0  0  0  0  0  0  0
   58.3800   27.7070   46.1940 C   0  0  0  0  0  0  0  0  0  0  0  0
   58.8603   26.7735   46.5226 H   0  0  0  0  0  0  0  0  0  0  0  0
   60.8840   29.4390   49.3090 C   0  0  0  0  0  0  0  0  0  0  0  0
   60.8500   28.9560   50.4740 O   0  0  0  0  0  0  0  0  0  0  0  0
   61.1600   30.8390   49.1200 N   0  0  0  0  0  0  0  0  0  0  0  0
   60.7660   31.8150   50.1480 C   0  0  0  0  0  0  0  0  0  0  0  0
   59.6808   31.9838   50.0865 H   0  0  0  0  0  0  0  0  0  0  0  0
   61.0384   31.4133   51.1351 H   0  0  0  0  0  0  0  0  0  0  0  0
   61.4950   33.1530   49.9460 C   0  0  0  0  0  0  0  0  0  0  0  0
   61.0635   33.8937   50.6353 H   0  0  0  0  0  0  0  0  0  0  0  0
   62.5625   32.9766   50.1441 H   0  0  0  0  0  0  0  0  0  0  0  0
   61.3840   33.6770   48.5600 N   0  0  0  0  0  0  0  0  0  0  0  0
   60.2230   34.5830   48.4070 C   0  0  0  0  0  0  0  0  0  0  0  0
   59.5774   34.4957   49.2933 H   0  0  0  0  0  0  0  0  0  0  0  0
   60.5904   35.6146   48.3029 H   0  0  0  0  0  0  0  0  0  0  0  0
   59.4240   34.2240   47.1730 C   0  0  0  0  0  0  0  0  0  0  0  0
   58.2840   33.4130   47.2920 C   0  0  0  0  0  0  0  0  0  0  0  0
   58.0049   32.9997   48.2725 H   0  0  0  0  0  0  0  0  0  0  0  0
   57.5020   33.1290   46.1670 C   0  0  0  0  0  0  0  0  0  0  0  0
   56.6156   32.4848   46.2638 H   0  0  0  0  0  0  0  0  0  0  0  0
   57.8440   33.6620   44.9190 C   0  0  0  0  0  0  0  0  0  0  0  0
   57.2249   33.4400   44.0373 H   0  0  0  0  0  0  0  0  0  0  0  0
   58.9720   34.4760   44.7940 C   0  0  0  0  0  0  0  0  0  0  0  0
   59.2416   34.8966   43.8140 H   0  0  0  0  0  0  0  0  0  0  0  0
   59.7590   34.7560   45.9170 C   0  0  0  0  0  0  0  0  0  0  0  0
   60.6467   35.3976   45.8152 H   0  0  0  0  0  0  0  0  0  0  0  0
   61.4200   32.6370   47.4970 C   0  0  0  0  0  0  0  0  0  0  0  0
   60.3961   32.4777   47.1278 H   0  0  0  0  0  0  0  0  0  0  0  0
   62.0908   33.0001   46.7045 H   0  0  0  0  0  0  0  0  0  0  0  0
   61.9750   31.2980   47.9880 C   0  0  0  0  0  0  0  0  0  0  0  0
   61.9303   30.5581   47.1753 H   0  0  0  0  0  0  0  0  0  0  0  0
   63.0219   31.4185   48.3035 H   0  0  0  0  0  0  0  0  0  0  0  0
  1  2  1  0
  2  3  2  3
  3  4  1  0
  4  5  2  0
  5  6  1  0
  5  7  1  0
  7  8  1  0
  7  9  2  0
  9 10  1  0
  9 11  1  0
 11 12  1  0
 12 13  2  0
 12 14  1  0
 14 15  2  0
 15 16  1  0
 16 17  1  0
 16 18  1  0
 18 19  1  0
 18 20  1  0
 18 21  1  0
 21 22  1  0
 21 23  1  0
 21 24  1  0
 24 25  1  0
 24 26  1  0
 24 27  1  0
 27 28  1  0
 27 29  1  0
 27 30  1  0
 30 31  1  0
 30 32  1  0
 11 33  2  0
 33 34  1  0
  2 35  1  0
 35 36  2  0
 35 37  1  0
 37 38  1  0
 38 39  1  0
 38 40  1  0
 38 41  1  0
 41 42  1  0
 41 43  1  0
 41 44  1  0
 44 45  1  0
 45 46  1  0
 45 47  1  0
 45 48  1  0
 48 49  2  0
 49 50  1  0
 49 51  1  0
 51 52  1  0
 51 53  2  0
 53 54  1  0
 53 55  1  0
 55 56  1  0
 55 57  2  0
 57 58  1  0
 44 59  1  0
 59 60  1  0
 59 61  1  0
 59 62  1  0
 62 63  1  0
 62 64  1  0
 33  4  1  0
 62 37  1  0
 30 15  1  0
 57 48  1  0
M  CHG  1  10  -1
M  END
>  <UniqueID>  (24) 
23

>  <SMILES>  (24) 
O=C(/N=C1/CCCCCN1)c1cc(N=CC(=O)N2CCN(Cc3ccccc3)CC2)ccc1[O-]

>  <Energy>  (24) 
85.95235254573664

>  <Genealogy>  (24) 
O=C(N=C1CCCCCN1)c1cc(N=CC(=O)N2CCN(Cc3ccccc3)CC2)ccc1[O-] (protonated)
O=C(/N=C1/CCCCCN1)c1cc(N=CC(=O)N2CCN(Cc3ccccc3)CC2)ccc1[O-] (cis-trans isomerization)
O=C(/N=C1/CCCCCN1)c1cc(N=CC(=O)N2CCN(Cc3ccccc3)CC2)ccc1[O-] (3D coordinates assigned)
O=C(/N=C1/CCCCCN1)c1cc(N=CC(=O)N2CCN(Cc3ccccc3)CC2)ccc1[O-] (nonaromatic ring conformer: 85.95235254573664 kcal/mol)

>  <smiles>  (24) 
O=C(N=C1CCCCCN1)c1cc(N=CC(=O)N2CCN(Cc3ccccc3)CC2)ccc1O

>  <score_type>  (24) 
oracle

>  <origin>  (24) 
adg

>  <m_score__min__energy>  (24) 
-11.23

>  <m_primary>  (24) 
energy

$$$$
24:0
     RDKit          3D

 46 49  0  0  0  0  0  0  0  0999 V2000
   55.1480   26.6780   45.9810 O   0  0  0  0  0  0  0  0  0  0  0  0
   56.0710   25.9890   46.4880 C   0  0  0  0  0  0  0  0  0  0  0  0
   55.8350   24.6020   46.7600 N   0  0  0  0  0  0  0  0  0  0  0  0
   56.8840   23.5890   46.8000 C   0  0  0  0  0  0  0  0  0  0  0  0
   56.9340   22.8700   45.4830 C   0  0  0  0  0  0  0  0  0  0  0  0
   58.0760   22.1580   45.0900 C   0  0  0  0  0  0  0  0  0  0  0  0
   58.1060   21.5160   43.8500 C   0  0  0  0  0  0  0  0  0  0  0  0
   56.9930   21.5950   43.0110 C   0  0  0  0  0  0  0  0  0  0  0  0
   55.8940   22.2940   43.4020 N   0  0  0  0  0  0  0  0  0  0  0  0
   55.8410   22.9280   44.6040 C   0  0  0  0  0  0  0  0  0  0  0  0
   57.3060   26.6230   46.8360 N   0  0  0  0  0  0  0  0  0  0  0  0
   57.9110   27.6860   46.0910 C   0  0  0  0  0  0  0  0  0  0  0  0
   59.2310   27.5450   45.6520 C   0  0  0  0  0  0  0  0  0  0  0  0
   59.8550   28.5790   44.9500 C   0  0  0  0  0  0  0  0  0  0  0  0
   59.1640   29.7650   44.6880 C   0  0  0  0  0  0  0  0  0  0  0  0
   57.8390   29.9290   45.1290 C   0  0  0  0  0  0  0  0  0  0  0  0
   57.1230   31.2000   44.8750 C   0  0  0  0  0  0  0  0  0  0  0  0
   55.9290   31.1640   44.4710 O   0  0  0  0  0  0  0  0  0  0  0  0
   57.7530   32.4710   45.1120 N   0  0  0  0  0  0  0  0  0  0  0  0
   58.2260   33.3540   44.0410 C   0  0  0  0  0  0  0  0  0  0  0  0
   59.2490   34.3170   44.6860 C   0  0  0  0  0  0  0  0  0  0  0  0
   59.2540   33.9050   46.1150 C   0  0  0  0  0  0  0  0  0  0  0  0
   59.9850   34.4610   47.1660 C   0  0  0  0  0  0  0  0  0  0  0  0
   59.8240   33.9220   48.4530 C   0  0  0  0  0  0  0  0  0  0  0  0
   58.9350   32.8510   48.6650 C   0  0  0  0  0  0  0  0  0  0  0  0
   58.2100   32.3090   47.5920 C   0  0  0  0  0  0  0  0  0  0  0  0
   58.4010   32.8530   46.3170 C   0  0  0  0  0  0  0  0  0  0  0  0
   57.2250   28.8900   45.8490 C   0  0  0  0  0  0  0  0  0  0  0  0
   57.8535   24.0721   46.9913 H   0  0  0  0  0  0  0  0  0  0  0  0
   56.6689   22.8691   47.6035 H   0  0  0  0  0  0  0  0  0  0  0  0
   58.9482   22.1050   45.7581 H   0  0  0  0  0  0  0  0  0  0  0  0
   58.9981   20.9535   43.5374 H   0  0  0  0  0  0  0  0  0  0  0  0
   57.0050   21.0915   42.0331 H   0  0  0  0  0  0  0  0  0  0  0  0
   54.9382   23.4884   44.8885 H   0  0  0  0  0  0  0  0  0  0  0  0
   59.7808   26.6153   45.8604 H   0  0  0  0  0  0  0  0  0  0  0  0
   60.8919   28.4595   44.6029 H   0  0  0  0  0  0  0  0  0  0  0  0
   59.6597   30.5753   44.1333 H   0  0  0  0  0  0  0  0  0  0  0  0
   58.7075   32.7642   43.2470 H   0  0  0  0  0  0  0  0  0  0  0  0
   57.3922   33.9071   43.5840 H   0  0  0  0  0  0  0  0  0  0  0  0
   60.2452   34.1921   44.2365 H   0  0  0  0  0  0  0  0  0  0  0  0
   58.9904   35.3768   44.5448 H   0  0  0  0  0  0  0  0  0  0  0  0
   60.6716   35.3022   46.9904 H   0  0  0  0  0  0  0  0  0  0  0  0
   60.3938   34.3376   49.2972 H   0  0  0  0  0  0  0  0  0  0  0  0
   58.8079   32.4370   49.6762 H   0  0  0  0  0  0  0  0  0  0  0  0
   57.5085   31.4765   47.7497 H   0  0  0  0  0  0  0  0  0  0  0  0
   56.1999   29.0193   46.2263 H   0  0  0  0  0  0  0  0  0  0  0  0
  1  2  2  0
  2  3  1  0
  3  4  1  0
  4  5  1  0
  5  6  2  0
  6  7  1  0
  7  8  2  0
  8  9  1  0
  9 10  2  0
  2 11  1  0
 11 12  1  0
 12 13  2  0
 13 14  1  0
 14 15  2  0
 15 16  1  0
 16 17  1  0
 17 18  2  0
 17 19  1  0
 19 20  1  0
 20 21  1  0
 21 22  1  0
 22 23  2  0
 23 24  1  0
 24 25  2  0
 25 26  1  0
 26 27  2  0
 16 28  2  0
 10  5  1  0
 28 12  1  0
 27 19  1  0
 27 22  1  0
  4 29  1  0
  4 30  1  0
  6 31  1  0
  7 32  1  0
  8 33  1  0
 10 34  1  0
 13 35  1  0
 14 36  1  0
 15 37  1  0
 20 38  1  0
 20 39  1  0
 21 40  1  0
 21 41  1  0
 23 42  1  0
 24 43  1  0
 25 44  1  0
 26 45  1  0
 28 46  1  0
M  CHG  2   3  -1  11  -1
M  END
>  <UniqueID>  (25) 
24

>  <SMILES>  (25) 
O=C([N-]Cc1cccnc1)[N-]c1cccc(C(=O)N2CCc3ccccc32)c1

>  <Energy>  (25) 
73.64498893847492

>  <Genealogy>  (25) 
O=C([N-]Cc1cccnc1)[N-]c1cccc(C(=O)N2CCc3ccccc32)c1 (protonated)
O=C([N-]Cc1cccnc1)[N-]c1cccc(C(=O)N2CCc3ccccc32)c1 (3D coordinates assigned)
O=C([N-]Cc1cccnc1)[N-]c1cccc(C(=O)N2CCc3ccccc32)c1 (nonaromatic ring conformer: 73.64498893847492 kcal/mol)

>  <smiles>  (25) 
O=C(NCc1cccnc1)Nc1cccc(C(=O)N2CCc3ccccc32)c1

>  <score_type>  (25) 
oracle

>  <origin>  (25) 
adg

>  <m_score__min__energy>  (25) 
-13.27

>  <m_primary>  (25) 
energy

$$$$
25:0
     RDKit          3D

 34 36  0  0  0  0  0  0  0  0999 V2000
   56.4110   30.2250   44.7070 O   0  0  0  0  0  0  0  0  0  0  0  0
   57.3040   29.6340   45.3760 C   0  0  0  0  0  0  0  0  0  0  0  0
   58.5140   30.3260   45.7300 N   0  0  0  0  0  0  0  0  0  0  0  0
   58.6730   31.7530   45.6490 C   0  0  0  0  0  0  0  0  0  0  0  0
   58.1640   32.4880   44.5630 C   0  0  0  0  0  0  0  0  0  0  0  0
   58.2980   33.8770   44.5300 C   0  0  0  0  0  0  0  0  0  0  0  0
   58.9400   34.5480   45.5740 C   0  0  0  0  0  0  0  0  0  0  0  0
   59.4610   33.8270   46.6610 C   0  0  0  0  0  0  0  0  0  0  0  0
   60.0910   34.4850   47.7690 N   0  0  0  0  0  0  0  0  0  0  0  0
   61.3540   34.1490   48.3560 C   0  0  0  0  0  0  0  0  0  0  0  0
   61.6240   34.6010   49.5010 O   0  0  0  0  0  0  0  0  0  0  0  0
   62.3100   33.2080   47.6630 C   0  0  0  0  0  0  0  0  0  0  0  0
   63.8000   33.4800   47.8360 C   0  0  0  0  0  0  0  0  0  0  0  0
   63.1060   33.8460   46.5350 C   0  0  0  0  0  0  0  0  0  0  0  0
   59.2950   32.4370   46.7050 C   0  0  0  0  0  0  0  0  0  0  0  0
   57.1150   28.2180   45.7600 C   0  0  0  0  0  0  0  0  0  0  0  0
   58.1800   27.4510   46.2550 C   0  0  0  0  0  0  0  0  0  0  0  0
   57.9440   26.1180   46.5970 C   0  0  0  0  0  0  0  0  0  0  0  0
   58.8790   25.4040   47.0460 O   0  0  0  0  0  0  0  0  0  0  0  0
   56.7030   25.5890   46.4440 N   0  0  0  0  0  0  0  0  0  0  0  0
   55.6800   26.3390   45.9620 C   0  0  0  0  0  0  0  0  0  0  0  0
   54.5370   25.8330   45.8270 O   0  0  0  0  0  0  0  0  0  0  0  0
   55.8900   27.6390   45.6240 N   0  0  0  0  0  0  0  0  0  0  0  0
   59.3550   29.7560   45.9720 H   0  0  0  0  0  0  0  0  0  0  0  0
   57.6586   31.9663   43.7369 H   0  0  0  0  0  0  0  0  0  0  0  0
   57.8964   34.4458   43.6784 H   0  0  0  0  0  0  0  0  0  0  0  0
   59.0376   35.6433   45.5445 H   0  0  0  0  0  0  0  0  0  0  0  0
   61.6769   32.3169   47.7865 H   0  0  0  0  0  0  0  0  0  0  0  0
   64.1389   34.2717   48.5204 H   0  0  0  0  0  0  0  0  0  0  0  0
   64.6757   32.8717   48.1063 H   0  0  0  0  0  0  0  0  0  0  0  0
   62.9435   34.9030   46.2774 H   0  0  0  0  0  0  0  0  0  0  0  0
   63.2728   33.6120   45.4732 H   0  0  0  0  0  0  0  0  0  0  0  0
   59.6567   31.8743   47.5782 H   0  0  0  0  0  0  0  0  0  0  0  0
   59.1814   27.8910   46.3715 H   0  0  0  0  0  0  0  0  0  0  0  0
  1  2  2  0
  2  3  1  0
  3  4  1  0
  4  5  2  0
  5  6  1  0
  6  7  2  0
  7  8  1  0
  8  9  1  0
  9 10  1  0
 10 11  2  0
 10 12  1  0
 12 13  1  0
 13 14  1  0
  8 15  2  0
  2 16  1  0
 16 17  2  0
 17 18  1  0
 18 19  2  0
 18 20  1  0
 20 21  1  0
 21 22  2  0
 21 23  1  0
 15  4  1  0
 23 16  1  0
 14 12  1  0
  3 24  1  0
  5 25  1  0
  6 26  1  0
  7 27  1  0
 12 28  1  0
 13 29  1  0
 13 30  1  0
 14 31  1  0
 14 32  1  0
 15 33  1  0
 17 34  1  0
M  CHG  3   9  -1  20  -1  23  -1
M  END
>  <UniqueID>  (26) 
25

>  <SMILES>  (26) 
O=C(Nc1cccc([N-]C(=O)C2CC2)c1)c1cc(=O)[n-]c(=O)[n-]1

>  <Energy>  (26) 
309.4406976873419

>  <Genealogy>  (26) 
O=C(Nc1cccc([N-]C(=O)C2CC2)c1)c1cc(=O)[n-]c(=O)[n-]1 (protonated)
O=C(Nc1cccc([N-]C(=O)C2CC2)c1)c1cc(=O)[n-]c(=O)[n-]1 (3D coordinates assigned)
O=C(Nc1cccc([N-]C(=O)C2CC2)c1)c1cc(=O)[n-]c(=O)[n-]1 (nonaromatic ring conformer: 309.4406976873419 kcal/mol)

>  <smiles>  (26) 
O=C(Nc1cccc(NC(=O)C2CC2)c1)c1cc(=O)[nH]c(=O)[nH]1

>  <score_type>  (26) 
oracle

>  <origin>  (26) 
adg

>  <m_score__min__energy>  (26) 
-13

>  <m_primary>  (26) 
energy

$$$$
26:0
     RDKit          3D

 31 32  0  0  0  0  0  0  0  0999 V2000
   55.0070   21.3260   45.8560 C   0  0  0  0  0  0  0  0  0  0  0  0
   55.5320   22.2780   44.8310 C   0  0  0  0  0  0  0  0  0  0  0  0
   55.9830   21.8960   43.6580 O   0  0  0  0  0  0  0  0  0  0  0  0
   56.3740   22.9560   42.9870 C   0  0  0  0  0  0  0  0  0  0  0  0
   56.1760   24.0910   43.7450 C   0  0  0  0  0  0  0  0  0  0  0  0
   55.6300   23.6590   44.9390 C   0  0  0  0  0  0  0  0  0  0  0  0
   55.2510   24.5240   46.0730 C   0  0  0  0  0  0  0  0  0  0  0  0
   54.7670   24.0050   47.1140 O   0  0  0  0  0  0  0  0  0  0  0  0
   55.4320   25.9420   45.9980 N   0  0  0  0  0  0  0  0  0  0  0  0
   56.6770   26.6170   46.3430 C   0  0  0  0  0  0  0  0  0  0  0  0
   57.0340   27.6100   45.2840 C   0  0  0  0  0  0  0  0  0  0  0  0
   57.9050   27.3100   44.4240 O   0  0  0  0  0  0  0  0  0  0  0  0
   56.3440   28.8700   45.2420 N   0  0  0  0  0  0  0  0  0  0  0  0
   56.7580   29.9750   44.6880 C   0  0  0  0  0  0  0  0  0  0  0  0
   57.0400   31.0760   45.4420 N   0  0  0  0  0  0  0  0  0  0  0  0
   57.4740   32.2390   44.8910 C   0  0  0  0  0  0  0  0  0  0  0  0
   57.6430   32.3360   43.5090 C   0  0  0  0  0  0  0  0  0  0  0  0
   57.3640   31.2290   42.7090 C   0  0  0  0  0  0  0  0  0  0  0  0
   56.9190   30.0370   43.2910 C   0  0  0  0  0  0  0  0  0  0  0  0
   56.6480   28.9420   42.4690 O   0  0  0  0  0  0  0  0  0  0  0  0
   55.2217   21.7154   46.8621 H   0  0  0  0  0  0  0  0  0  0  0  0
   53.9199   21.2146   45.7302 H   0  0  0  0  0  0  0  0  0  0  0  0
   55.4929   20.3472   45.7302 H   0  0  0  0  0  0  0  0  0  0  0  0
   56.7965   22.9404   41.9715 H   0  0  0  0  0  0  0  0  0  0  0  0
   56.4056   25.1278   43.4581 H   0  0  0  0  0  0  0  0  0  0  0  0
   56.5540   27.1383   47.3038 H   0  0  0  0  0  0  0  0  0  0  0  0
   57.4811   25.8706   46.4222 H   0  0  0  0  0  0  0  0  0  0  0  0
   57.6923   33.1045   45.5339 H   0  0  0  0  0  0  0  0  0  0  0  0
   57.9925   33.2755   43.0561 H   0  0  0  0  0  0  0  0  0  0  0  0
   57.4939   31.2927   41.6186 H   0  0  0  0  0  0  0  0  0  0  0  0
   56.6500   27.9900   42.8150 H   0  0  0  0  0  0  0  0  0  0  0  0
  1  2  1  0
  2  3  1  0
  3  4  1  0
  4  5  2  0
  5  6  1  0
  6  7  1  0
  7  8  2  0
  7  9  1  0
  9 10  1  0
 10 11  1  0
 11 12  2  0
 11 13  1  0
 13 14  2  3
 14 15  1  0
 15 16  1  0
 16 17  2  0
 17 18  1  0
 18 19  2  0
 19 20  1  0
  6  2  2  0
 19 14  1  0
  1 21  1  0
  1 22  1  0
  1 23  1  0
  4 24  1  0
  5 25  1  0
 10 26  1  0
 10 27  1  0
 16 28  1  0
 17 29  1  0
 18 30  1  0
 20 31  1  0
M  CHG  2   9  -1  15  -1
M  END
>  <UniqueID>  (27) 
26

>  <SMILES>  (27) 
Cc1occc1C(=O)[N-]CC(=O)N=c1[n-]cccc1O

>  <Energy>  (27) 
57.02514149283904

>  <Genealogy>  (27) 
Cc1occc1C(=O)[N-]CC(=O)N=c1[n-]cccc1O (protonated)
Cc1occc1C(=O)[N-]CC(=O)N=c1[n-]cccc1O (3D coordinates assigned)
Cc1occc1C(=O)[N-]CC(=O)N=c1[n-]cccc1O (optimized conformer: 57.02514149283904 kcal/mol)

>  <smiles>  (27) 
Cc1occc1C(=O)NCC(=O)N=c1[nH]cccc1O

>  <score_type>  (27) 
oracle

>  <origin>  (27) 
adg

>  <m_score__min__energy>  (27) 
-10.380000000000001

>  <m_primary>  (27) 
energy

$$$$
27:0
     RDKit          3D

 65 69  0  0  0  0  0  0  0  0999 V2000
   63.1310   31.2350   49.9950 C   0  0  0  0  0  0  0  0  0  0  0  0
   64.0620   32.1550   49.2570 C   0  0  0  0  0  0  0  0  0  0  0  0
   65.0420   32.5840   49.8500 O   0  0  0  0  0  0  0  0  0  0  0  0
   63.8050   32.5410   47.8760 N   0  0  0  0  0  0  0  0  0  0  0  0
   62.9510   31.5500   47.1680 C   0  0  0  0  0  0  0  0  0  0  0  0
   61.4620   31.9440   47.1250 C   0  0  0  0  0  0  0  0  0  0  0  0
   61.1160   32.7370   48.3140 N   0  0  0  0  0  0  0  0  0  0  0  0
   59.6580   32.9290   48.4340 C   0  0  0  0  0  0  0  0  0  0  0  0
   59.0950   32.0220   49.5020 C   0  0  0  0  0  0  0  0  0  0  0  0
   58.5510   32.5960   50.6640 C   0  0  0  0  0  0  0  0  0  0  0  0
   58.0170   31.7860   51.6710 C   0  0  0  0  0  0  0  0  0  0  0  0
   58.0260   30.3980   51.5310 C   0  0  0  0  0  0  0  0  0  0  0  0
   58.5700   29.8130   50.3850 C   0  0  0  0  0  0  0  0  0  0  0  0
   59.1040   30.6160   49.3650 C   0  0  0  0  0  0  0  0  0  0  0  0
   59.6820   29.9920   48.2090 N   0  0  0  0  0  0  0  0  0  0  0  0
   59.0960   29.1010   47.4620 C   0  0  0  0  0  0  0  0  0  0  0  0
   59.4420   27.7260   47.5180 C   0  0  0  0  0  0  0  0  0  0  0  0
   58.7360   26.8560   46.6930 C   0  0  0  0  0  0  0  0  0  0  0  0
   58.8180   25.4880   46.5480 C   0  0  0  0  0  0  0  0  0  0  0  0
   57.8580   25.1730   45.5890 C   0  0  0  0  0  0  0  0  0  0  0  0
   57.5260   23.8070   45.1460 C   0  0  0  0  0  0  0  0  0  0  0  0
   58.4970   23.0950   44.4220 C   0  0  0  0  0  0  0  0  0  0  0  0
   58.2640   21.7790   44.0240 C   0  0  0  0  0  0  0  0  0  0  0  0
   57.0580   21.1570   44.3420 C   0  0  0  0  0  0  0  0  0  0  0  0
   56.0740   21.8560   45.0430 C   0  0  0  0  0  0  0  0  0  0  0  0
   56.2840   23.1860   45.4420 C   0  0  0  0  0  0  0  0  0  0  0  0
   54.9430   24.0180   46.2520 S   0  0  0  0  0  0  0  0  0  0  0  0
   53.4130   23.1810   45.9020 C   0  0  0  0  0  0  0  0  0  0  0  0
   55.1530   24.0870   47.7380 O   0  0  0  0  0  0  0  0  0  0  0  0
   54.8580   25.4250   45.7300 O   0  0  0  0  0  0  0  0  0  0  0  0
   57.2010   26.2840   45.1760 N   0  0  0  0  0  0  0  0  0  0  0  0
   57.7540   27.3000   45.8580 C   0  0  0  0  0  0  0  0  0  0  0  0
   57.4140   28.6470   45.8090 C   0  0  0  0  0  0  0  0  0  0  0  0
   58.0950   29.5110   46.6170 N   0  0  0  0  0  0  0  0  0  0  0  0
   61.8120   34.0410   48.2820 C   0  0  0  0  0  0  0  0  0  0  0  0
   63.2750   33.9190   47.7950 C   0  0  0  0  0  0  0  0  0  0  0  0
   63.2661   31.3685   51.0785 H   0  0  0  0  0  0  0  0  0  0  0  0
   62.0914   31.4703   49.7234 H   0  0  0  0  0  0  0  0  0  0  0  0
   63.3540   30.1926   49.7234 H   0  0  0  0  0  0  0  0  0  0  0  0
   64.7240   32.5550   47.3720 H   0  0  0  0  0  0  0  0  0  0  0  0
   63.3153   31.4511   46.1348 H   0  0  0  0  0  0  0  0  0  0  0  0
   63.0204   30.6047   47.7261 H   0  0  0  0  0  0  0  0  0  0  0  0
   61.2691   32.5402   46.2210 H   0  0  0  0  0  0  0  0  0  0  0  0
   60.8478   31.0316   47.1088 H   0  0  0  0  0  0  0  0  0  0  0  0
   59.4508   33.9758   48.7010 H   0  0  0  0  0  0  0  0  0  0  0  0
   59.1849   32.6843   47.4715 H   0  0  0  0  0  0  0  0  0  0  0  0
   58.5453   33.6896   50.7820 H   0  0  0  0  0  0  0  0  0  0  0  0
   57.5891   32.2440   52.5750 H   0  0  0  0  0  0  0  0  0  0  0  0
   57.6041   29.7633   52.3242 H   0  0  0  0  0  0  0  0  0  0  0  0
   58.5799   28.7179   50.2814 H   0  0  0  0  0  0  0  0  0  0  0  0
   60.2363   27.3626   48.1866 H   0  0  0  0  0  0  0  0  0  0  0  0
   59.4931   24.7968   47.0739 H   0  0  0  0  0  0  0  0  0  0  0  0
   59.4505   23.5805   44.1666 H   0  0  0  0  0  0  0  0  0  0  0  0
   59.0325   21.2315   43.4587 H   0  0  0  0  0  0  0  0  0  0  0  0
   56.8814   20.1141   44.0402 H   0  0  0  0  0  0  0  0  0  0  0  0
   55.1230   21.3593   45.2857 H   0  0  0  0  0  0  0  0  0  0  0  0
   52.9186   22.9105   46.8467 H   0  0  0  0  0  0  0  0  0  0  0  0
   52.7561   23.8454   45.3214 H   0  0  0  0  0  0  0  0  0  0  0  0
   53.6182   22.2695   45.3214 H   0  0  0  0  0  0  0  0  0  0  0  0
   56.4060   26.3390   44.5020 H   0  0  0  0  0  0  0  0  0  0  0  0
   56.6193   29.0061   45.1386 H   0  0  0  0  0  0  0  0  0  0  0  0
   61.2689   34.7143   47.6025 H   0  0  0  0  0  0  0  0  0  0  0  0
   61.8330   34.4343   49.3091 H   0  0  0  0  0  0  0  0  0  0  0  0
   63.3231   34.2506   46.7473 H   0  0  0  0  0  0  0  0  0  0  0  0
   63.8920   34.5450   48.4564 H   0  0  0  0  0  0  0  0  0  0  0  0
  1  2  1  0
  2  3  2  0
  2  4  1  0
  4  5  1  0
  5  6  1  0
  6  7  1  0
  7  8  1  0
  8  9  1  0
  9 10  2  0
 10 11  1  0
 11 12  2  0
 12 13  1  0
 13 14  2  0
 14 15  1  0
 15 16  2  3
 16 17  1  0
 17 18  2  0
 18 19  1  0
 19 20  2  0
 20 21  1  0
 21 22  2  0
 22 23  1  0
 23 24  2  0
 24 25  1  0
 25 26  2  0
 26 27  1  0
 27 28  1  0
 27 29  2  0
 27 30  2  0
 20 31  1  0
 31 32  1  0
 32 33  2  0
 33 34  1  0
  7 35  1  0
 35 36  1  0
 36  4  1  0
 14  9  1  0
 34 16  1  0
 32 18  1  0
 26 21  1  0
  1 37  1  0
  1 38  1  0
  1 39  1  0
  4 40  1  0
  5 41  1  0
  5 42  1  0
  6 43  1  0
  6 44  1  0
  8 45  1  0
  8 46  1  0
 10 47  1  0
 11 48  1  0
 12 49  1  0
 13 50  1  0
 17 51  1  0
 19 52  1  0
 22 53  1  0
 23 54  1  0
 24 55  1  0
 25 56  1  0
 28 57  1  0
 28 58  1  0
 28 59  1  0
 31 60  1  0
 33 61  1  0
 35 62  1  0
 35 63  1  0
 36 64  1  0
 36 65  1  0
M  CHG  2   4   1  34  -1
M  END
>  <UniqueID>  (28) 
27

>  <SMILES>  (28) 
CC(=O)[NH+]1CCN(Cc2ccccc2N=c2cc3cc(-c4ccccc4S(C)(=O)=O)[nH]c3c[n-]2)CC1

>  <Energy>  (28) 
130.81516930987678

>  <Genealogy>  (28) 
CC(=O)[NH+]1CCN(Cc2ccccc2N=c2cc3cc(-c4ccccc4S(C)(=O)=O)[nH]c3c[n-]2)CC1 (protonated)
CC(=O)[NH+]1CCN(Cc2ccccc2N=c2cc3cc(-c4ccccc4S(C)(=O)=O)[nH]c3c[n-]2)CC1 (3D coordinates assigned)
CC(=O)[NH+]1CCN(Cc2ccccc2N=c2cc3cc(-c4ccccc4S(C)(=O)=O)[nH]c3c[n-]2)CC1 (nonaromatic ring conformer: 130.81516930987678 kcal/mol)

>  <smiles>  (28) 
CC(=O)N1CCN(Cc2ccccc2N=c2cc3cc(-c4ccccc4S(C)(=O)=O)[nH]c3c[nH]2)CC1

>  <score_type>  (28) 
oracle

>  <origin>  (28) 
adg

>  <m_score__min__energy>  (28) 
-11.289999999999999

>  <m_primary>  (28) 
energy

$$$$
28:0
     RDKit          3D

 27 28  0  0  0  0  0  0  0  0999 V2000
   55.1670   29.1420   44.8630 N   0  0  0  0  0  0  0  0  0  0  0  0
   56.0040   29.8140   43.9250 C   0  0  0  0  0  0  0  0  0  0  0  0
   55.7960   29.6580   42.6920 O   0  0  0  0  0  0  0  0  0  0  0  0
   57.0820   30.7080   44.4030 C   0  0  0  0  0  0  0  0  0  0  0  0
   57.3630   31.9400   43.7860 C   0  0  0  0  0  0  0  0  0  0  0  0
   58.4350   32.6230   44.3460 C   0  0  0  0  0  0  0  0  0  0  0  0
   59.0390   31.7090   45.6190 S   0  0  0  0  0  0  0  0  0  0  0  0
   57.9550   30.4300   45.4610 C   0  0  0  0  0  0  0  0  0  0  0  0
   57.8590   29.3190   46.3670 N   0  0  0  0  0  0  0  0  0  0  0  0
   58.9880   28.5400   46.7870 C   0  0  0  0  0  0  0  0  0  0  0  0
   60.1180   28.7000   46.2510 O   0  0  0  0  0  0  0  0  0  0  0  0
   58.8130   27.4690   47.8210 C   0  0  0  0  0  0  0  0  0  0  0  0
   57.8360   26.4420   47.3330 C   0  0  0  0  0  0  0  0  0  0  0  0
   58.1240   25.0760   47.4290 C   0  0  0  0  0  0  0  0  0  0  0  0
   57.1980   24.1620   46.9240 C   0  0  0  0  0  0  0  0  0  0  0  0
   57.4220   22.9250   46.9990 O   0  0  0  0  0  0  0  0  0  0  0  0
   56.0510   24.6080   46.3490 N   0  0  0  0  0  0  0  0  0  0  0  0
   55.7900   25.9380   46.2530 C   0  0  0  0  0  0  0  0  0  0  0  0
   54.7240   26.3310   45.7130 O   0  0  0  0  0  0  0  0  0  0  0  0
   56.6790   26.8430   46.7390 N   0  0  0  0  0  0  0  0  0  0  0  0
   55.5150   28.3140   45.3960 H   0  0  0  0  0  0  0  0  0  0  0  0
   56.7847   32.3286   42.9348 H   0  0  0  0  0  0  0  0  0  0  0  0
   58.8225   33.5970   44.0124 H   0  0  0  0  0  0  0  0  0  0  0  0
   56.9240   29.0700   46.7580 H   0  0  0  0  0  0  0  0  0  0  0  0
   59.7827   26.9869   48.0142 H   0  0  0  0  0  0  0  0  0  0  0  0
   58.4303   27.9205   48.7482 H   0  0  0  0  0  0  0  0  0  0  0  0
   59.0598   24.7301   47.8924 H   0  0  0  0  0  0  0  0  0  0  0  0
  1  2  1  0
  2  3  2  0
  2  4  1  0
  4  5  1  0
  5  6  2  0
  6  7  1  0
  7  8  1  0
  8  9  1  0
  9 10  1  0
 10 11  2  0
 10 12  1  0
 12 13  1  0
 13 14  2  0
 14 15  1  0
 15 16  2  0
 15 17  1  0
 17 18  1  0
 18 19  2  0
 18 20  1  0
  8  4  2  0
 20 13  1  0
  1 21  1  0
  5 22  1  0
  6 23  1  0
  9 24  1  0
 12 25  1  0
 12 26  1  0
 14 27  1  0
M  CHG  3   1  -1  17  -1  20  -1
M  END
>  <UniqueID>  (29) 
28

>  <SMILES>  (29) 
[NH-]C(=O)c1ccsc1NC(=O)Cc1cc(=O)[n-]c(=O)[n-]1

>  <Energy>  (29) 
55.597049762539484

>  <Genealogy>  (29) 
[NH-]C(=O)c1ccsc1NC(=O)Cc1cc(=O)[n-]c(=O)[n-]1 (protonated)
[NH-]C(=O)c1ccsc1NC(=O)Cc1cc(=O)[n-]c(=O)[n-]1 (3D coordinates assigned)
[NH-]C(=O)c1ccsc1NC(=O)Cc1cc(=O)[n-]c(=O)[n-]1 (optimized conformer: 55.597049762539484 kcal/mol)

>  <smiles>  (29) 
NC(=O)c1ccsc1NC(=O)Cc1cc(=O)[nH]c(=O)[nH]1

>  <score_type>  (29) 
oracle

>  <origin>  (29) 
adg

>  <m_score__min__energy>  (29) 
-13.69

>  <m_primary>  (29) 
energy

$$$$
29:0
     RDKit          3D

 49 52  0  0  0  0  0  0  0  0999 V2000
   63.1380   31.9910   47.7580 C   0  0  0  0  0  0  0  0  0  0  0  0
   62.0640   31.1310   47.0980 C   0  0  0  0  0  0  0  0  0  0  0  0
   60.9460   30.7990   48.0600 C   0  0  0  0  0  0  0  0  0  0  0  0
   61.1350   31.1250   49.4160 C   0  0  0  0  0  0  0  0  0  0  0  0
   60.2070   30.7370   50.3820 C   0  0  0  0  0  0  0  0  0  0  0  0
   59.0820   30.0030   50.0110 C   0  0  0  0  0  0  0  0  0  0  0  0
   58.8690   29.6800   48.6710 C   0  0  0  0  0  0  0  0  0  0  0  0
   59.7620   30.1080   47.6740 C   0  0  0  0  0  0  0  0  0  0  0  0
   59.4580   29.7680   46.3090 N   0  0  0  0  0  0  0  0  0  0  0  0
   58.1830   29.2890   45.8530 C   0  0  0  0  0  0  0  0  0  0  0  0
   57.3280   30.0660   45.0550 C   0  0  0  0  0  0  0  0  0  0  0  0
   57.5500   31.4570   44.6320 C   0  0  0  0  0  0  0  0  0  0  0  0
   58.5320   31.7510   43.8990 O   0  0  0  0  0  0  0  0  0  0  0  0
   56.6830   32.4870   45.1130 N   0  0  0  0  0  0  0  0  0  0  0  0
   57.1120   33.8730   45.2610 C   0  0  0  0  0  0  0  0  0  0  0  0
   58.3040   33.9360   46.1780 C   0  0  0  0  0  0  0  0  0  0  0  0
   59.5300   34.4320   45.7020 C   0  0  0  0  0  0  0  0  0  0  0  0
   60.6190   34.5670   46.5670 C   0  0  0  0  0  0  0  0  0  0  0  0
   60.4940   34.2120   47.9130 C   0  0  0  0  0  0  0  0  0  0  0  0
   61.5500   34.3470   48.7510 F   0  0  0  0  0  0  0  0  0  0  0  0
   59.2750   33.7260   48.3960 C   0  0  0  0  0  0  0  0  0  0  0  0
   58.1820   33.5920   47.5350 C   0  0  0  0  0  0  0  0  0  0  0  0
   55.8910   29.2160   44.7820 S   0  0  0  0  0  0  0  0  0  0  0  0
   56.3730   27.8510   45.6210 C   0  0  0  0  0  0  0  0  0  0  0  0
   55.6520   26.7150   45.7850 N   0  0  0  0  0  0  0  0  0  0  0  0
   56.1860   25.6710   46.4790 C   0  0  0  0  0  0  0  0  0  0  0  0
   55.5130   24.6200   46.6380 O   0  0  0  0  0  0  0  0  0  0  0  0
   57.4850   25.7640   47.0100 C   0  0  0  0  0  0  0  0  0  0  0  0
   58.2370   26.9390   46.8310 C   0  0  0  0  0  0  0  0  0  0  0  0
   59.5410   27.0120   47.3070 O   0  0  0  0  0  0  0  0  0  0  0  0
   57.6490   28.0120   46.1400 C   0  0  0  0  0  0  0  0  0  0  0  0
   63.0459   31.9173   48.8517 H   0  0  0  0  0  0  0  0  0  0  0  0
   64.1325   31.6367   47.4490 H   0  0  0  0  0  0  0  0  0  0  0  0
   63.0097   33.0389   47.4490 H   0  0  0  0  0  0  0  0  0  0  0  0
   61.6459   31.6784   46.2404 H   0  0  0  0  0  0  0  0  0  0  0  0
   62.5297   30.1885   46.7742 H   0  0  0  0  0  0  0  0  0  0  0  0
   62.0269   31.6936   49.7180 H   0  0  0  0  0  0  0  0  0  0  0  0
   60.3629   31.0102   51.4361 H   0  0  0  0  0  0  0  0  0  0  0  0
   58.3612   29.6780   50.7758 H   0  0  0  0  0  0  0  0  0  0  0  0
   57.9895   29.0817   48.3906 H   0  0  0  0  0  0  0  0  0  0  0  0
   60.2470   29.7330   45.6250 H   0  0  0  0  0  0  0  0  0  0  0  0
   57.3857   34.2789   44.2760 H   0  0  0  0  0  0  0  0  0  0  0  0
   56.2902   34.4668   45.6878 H   0  0  0  0  0  0  0  0  0  0  0  0
   59.6326   34.7151   44.6440 H   0  0  0  0  0  0  0  0  0  0  0  0
   61.5766   34.9534   46.1879 H   0  0  0  0  0  0  0  0  0  0  0  0
   59.1760   33.4485   49.4558 H   0  0  0  0  0  0  0  0  0  0  0  0
   57.2231   33.2160   47.9210 H   0  0  0  0  0  0  0  0  0  0  0  0
   57.9133   24.9169   47.5659 H   0  0  0  0  0  0  0  0  0  0  0  0
   60.1660   27.7610   47.0340 H   0  0  0  0  0  0  0  0  0  0  0  0
  1  2  1  0
  2  3  1  0
  3  4  2  0
  4  5  1  0
  5  6  2  0
  6  7  1  0
  7  8  2  0
  8  9  1  0
  9 10  1  0
 10 11  2  0
 11 12  1  0
 12 13  2  0
 12 14  1  0
 14 15  1  0
 15 16  1  0
 16 17  2  0
 17 18  1  0
 18 19  2  0
 19 20  1  0
 19 21  1  0
 21 22  2  0
 11 23  1  0
 23 24  1  0
 24 25  1  0
 25 26  1  0
 26 27  2  0
 26 28  1  0
 28 29  2  0
 29 30  1  0
 29 31  1  0
  8  3  1  0
 31 10  1  0
 22 16  1  0
 31 24  2  0
  1 32  1  0
  1 33  1  0
  1 34  1  0
  2 35  1  0
  2 36  1  0
  4 37  1  0
  5 38  1  0
  6 39  1  0
  7 40  1  0
  9 41  1  0
 15 42  1  0
 15 43  1  0
 17 44  1  0
 18 45  1  0
 21 46  1  0
 22 47  1  0
 28 48  1  0
 30 49  1  0
M  CHG  2  14  -1  25  -1
M  END
>  <UniqueID>  (30) 
29

>  <SMILES>  (30) 
CCc1ccccc1Nc1c(C(=O)[N-]Cc2ccc(F)cc2)sc2[n-]c(=O)cc(O)c12

>  <Energy>  (30) 
92.49802233979666

>  <Genealogy>  (30) 
CCc1ccccc1Nc1c(C(=O)[N-]Cc2ccc(F)cc2)sc2[n-]c(=O)cc(O)c12 (protonated)
CCc1ccccc1Nc1c(C(=O)[N-]Cc2ccc(F)cc2)sc2[n-]c(=O)cc(O)c12 (3D coordinates assigned)
CCc1ccccc1Nc1c(C(=O)[N-]Cc2ccc(F)cc2)sc2[n-]c(=O)cc(O)c12 (optimized conformer: 92.49802233979666 kcal/mol)

>  <smiles>  (30) 
CCc1ccccc1Nc1c(C(=O)NCc2ccc(F)cc2)sc2[nH]c(=O)cc(O)c12

>  <score_type>  (30) 
oracle

>  <origin>  (30) 
adg

>  <m_score__min__energy>  (30) 
-11.789999999999999

>  <m_primary>  (30) 
energy

$$$$
30:0
     RDKit          3D

 65 69  0  0  0  0  0  0  0  0999 V2000
   63.3200   34.5990   50.7710 C   0  0  0  0  0  0  0  0  0  0  0  0
   63.6140   33.1370   50.9920 C   0  0  0  0  0  0  0  0  0  0  0  0
   64.3190   32.7560   52.1460 C   0  0  0  0  0  0  0  0  0  0  0  0
   64.6370   31.4160   52.3760 C   0  0  0  0  0  0  0  0  0  0  0  0
   64.2520   30.4400   51.4600 C   0  0  0  0  0  0  0  0  0  0  0  0
   63.5350   30.7960   50.3150 C   0  0  0  0  0  0  0  0  0  0  0  0
   63.2000   32.1400   50.0670 C   0  0  0  0  0  0  0  0  0  0  0  0
   62.4130   32.4590   48.8520 C   0  0  0  0  0  0  0  0  0  0  0  0
   62.9700   32.4500   47.7200 O   0  0  0  0  0  0  0  0  0  0  0  0
   61.0110   32.7480   48.9570 N   0  0  0  0  0  0  0  0  0  0  0  0
   60.2540   33.3650   47.9020 C   0  0  0  0  0  0  0  0  0  0  0  0
   60.2340   34.7600   47.7470 C   0  0  0  0  0  0  0  0  0  0  0  0
   59.4690   35.3450   46.7360 C   0  0  0  0  0  0  0  0  0  0  0  0
   58.7200   34.5460   45.8710 C   0  0  0  0  0  0  0  0  0  0  0  0
   58.7250   33.1480   46.0130 C   0  0  0  0  0  0  0  0  0  0  0  0
   57.9480   32.3080   45.0790 C   0  0  0  0  0  0  0  0  0  0  0  0
   57.0730   31.3540   45.4750 N   0  0  0  0  0  0  0  0  0  0  0  0
   56.6300   30.8390   44.3120 C   0  0  0  0  0  0  0  0  0  0  0  0
   55.6110   29.7470   44.2090 C   0  0  0  0  0  0  0  0  0  0  0  0
   55.8400   28.7530   45.2490 N   0  0  0  0  0  0  0  0  0  0  0  0
   57.0260   27.9550   45.3370 C   0  0  0  0  0  0  0  0  0  0  0  0
   57.0170   26.7690   44.9060 O   0  0  0  0  0  0  0  0  0  0  0  0
   58.2530   28.5150   45.9440 C   0  0  0  0  0  0  0  0  0  0  0  0
   59.2200   29.1510   45.1440 C   0  0  0  0  0  0  0  0  0  0  0  0
   60.3850   29.6630   45.7180 C   0  0  0  0  0  0  0  0  0  0  0  0
   60.6010   29.5520   47.0920 C   0  0  0  0  0  0  0  0  0  0  0  0
   59.6410   28.9380   47.9100 C   0  0  0  0  0  0  0  0  0  0  0  0
   59.8710   28.8120   49.3940 C   0  0  0  0  0  0  0  0  0  0  0  0
   59.6100   30.1240   50.0840 C   0  0  0  0  0  0  0  0  0  0  0  0
   60.3620   30.5090   51.2000 C   0  0  0  0  0  0  0  0  0  0  0  0
   60.0990   31.6870   51.8240 N   0  0  0  0  0  0  0  0  0  0  0  0
   59.1060   32.5020   51.3860 C   0  0  0  0  0  0  0  0  0  0  0  0
   58.8800   33.5900   51.9760 O   0  0  0  0  0  0  0  0  0  0  0  0
   58.3560   32.1440   50.3120 N   0  0  0  0  0  0  0  0  0  0  0  0
   58.5850   30.9760   49.6580 C   0  0  0  0  0  0  0  0  0  0  0  0
   58.4740   28.4140   47.3310 C   0  0  0  0  0  0  0  0  0  0  0  0
   57.2280   31.5070   43.2640 C   0  0  0  0  0  0  0  0  0  0  0  0
   57.0290   31.2690   41.8050 C   0  0  0  0  0  0  0  0  0  0  0  0
   58.0410   32.3990   43.7690 O   0  0  0  0  0  0  0  0  0  0  0  0
   59.4840   32.5660   47.0430 C   0  0  0  0  0  0  0  0  0  0  0  0
   63.2185   35.1036   51.7431 H   0  0  0  0  0  0  0  0  0  0  0  0
   64.1440   35.0571   50.2043 H   0  0  0  0  0  0  0  0  0  0  0  0
   62.3830   34.7030   50.2043 H   0  0  0  0  0  0  0  0  0  0  0  0
   64.6235   33.5209   52.8755 H   0  0  0  0  0  0  0  0  0  0  0  0
   65.1923   31.1308   53.2817 H   0  0  0  0  0  0  0  0  0  0  0  0
   64.5131   29.3864   51.6385 H   0  0  0  0  0  0  0  0  0  0  0  0
   63.2293   30.0178   49.6002 H   0  0  0  0  0  0  0  0  0  0  0  0
   60.4950   32.3970   49.7960 H   0  0  0  0  0  0  0  0  0  0  0  0
   60.8234   35.3949   48.4248 H   0  0  0  0  0  0  0  0  0  0  0  0
   59.4567   36.4389   46.6210 H   0  0  0  0  0  0  0  0  0  0  0  0
   58.1227   35.0129   45.0740 H   0  0  0  0  0  0  0  0  0  0  0  0
   54.6048   30.1750   44.3292 H   0  0  0  0  0  0  0  0  0  0  0  0
   55.6959   29.2653   43.2237 H   0  0  0  0  0  0  0  0  0  0  0  0
   59.0571   29.2453   44.0602 H   0  0  0  0  0  0  0  0  0  0  0  0
   61.1364   30.1564   45.0840 H   0  0  0  0  0  0  0  0  0  0  0  0
   61.5270   29.9472   47.5351 H   0  0  0  0  0  0  0  0  0  0  0  0
   59.1924   28.0481   49.8014 H   0  0  0  0  0  0  0  0  0  0  0  0
   60.9180   28.5224   49.5672 H   0  0  0  0  0  0  0  0  0  0  0  0
   61.1664   29.8575   51.5721 H   0  0  0  0  0  0  0  0  0  0  0  0
   57.9644   30.6996   48.7929 H   0  0  0  0  0  0  0  0  0  0  0  0
   57.7250   27.9197   47.9672 H   0  0  0  0  0  0  0  0  0  0  0  0
   56.3294   30.4323   41.6621 H   0  0  0  0  0  0  0  0  0  0  0  0
   56.6164   32.1757   41.3385 H   0  0  0  0  0  0  0  0  0  0  0  0
   57.9945   31.0235   41.3385 H   0  0  0  0  0  0  0  0  0  0  0  0
   59.4743   31.4742   47.1769 H   0  0  0  0  0  0  0  0  0  0  0  0
  1  2  1  0
  2  3  2  0
  3  4  1  0
  4  5  2  0
  5  6  1  0
  6  7  2  0
  7  8  1  0
  8  9  2  0
  8 10  1  0
 10 11  1  0
 11 12  2  0
 12 13  1  0
 13 14  2  0
 14 15  1  0
 15 16  1  0
 16 17  2  0
 17 18  1  0
 18 19  1  0
 19 20  1  0
 20 21  1  0
 21 22  2  0
 21 23  1  0
 23 24  2  0
 24 25  1  0
 25 26  2  0
 26 27  1  0
 27 28  1  0
 28 29  1  0
 29 30  1  0
 30 31  2  0
 31 32  1  0
 32 33  2  0
 32 34  1  0
 34 35  1  0
 27 36  2  0
 18 37  2  0
 37 38  1  0
 37 39  1  0
 15 40  2  0
  7  2  1  0
 40 11  1  0
 39 16  1  0
 36 23  1  0
 35 29  2  0
  1 41  1  0
  1 42  1  0
  1 43  1  0
  3 44  1  0
  4 45  1  0
  5 46  1  0
  6 47  1  0
 10 48  1  0
 12 49  1  0
 13 50  1  0
 14 51  1  0
 19 52  1  0
 19 53  1  0
 24 54  1  0
 25 55  1  0
 26 56  1  0
 28 57  1  0
 28 58  1  0
 30 59  1  0
 35 60  1  0
 36 61  1  0
 38 62  1  0
 38 63  1  0
 38 64  1  0
 40 65  1  0
M  CHG  2  20  -1  34  -1
M  END
>  <UniqueID>  (31) 
30

>  <SMILES>  (31) 
Cc1ccccc1C(=O)Nc1cccc(-c2nc(C[N-]C(=O)c3cccc(Cc4cnc(=O)[n-]c4)c3)c(C)o2)c1

>  <Energy>  (31) 
106.75885528354794

>  <Genealogy>  (31) 
Cc1ccccc1C(=O)Nc1cccc(-c2nc(C[N-]C(=O)c3cccc(Cc4cnc(=O)[n-]c4)c3)c(C)o2)c1 (protonated)
Cc1ccccc1C(=O)Nc1cccc(-c2nc(C[N-]C(=O)c3cccc(Cc4cnc(=O)[n-]c4)c3)c(C)o2)c1 (3D coordinates assigned)
Cc1ccccc1C(=O)Nc1cccc(-c2nc(C[N-]C(=O)c3cccc(Cc4cnc(=O)[n-]c4)c3)c(C)o2)c1 (optimized conformer: 106.75885528354794 kcal/mol)

>  <smiles>  (31) 
Cc1ccccc1C(=O)Nc1cccc(-c2nc(CNC(=O)c3cccc(Cc4cnc(=O)[nH]c4)c3)c(C)o2)c1

>  <score_type>  (31) 
oracle

>  <origin>  (31) 
adg

>  <m_score__min__energy>  (31) 
-14.289999999999999

>  <m_primary>  (31) 
energy

$$$$
31:0
     RDKit          3D

 52 55  0  0  0  0  0  0  0  0999 V2000
   57.8352   33.2568   46.1224 H   0  0  0  0  0  0  0  0  0  0  0  0
   57.4060   32.2990   45.7930 C   0  0  0  0  0  0  0  0  0  0  0  0
   56.3696   32.2577   45.4266 H   0  0  0  0  0  0  0  0  0  0  0  0
   58.1440   31.1850   45.8380 C   0  0  0  0  0  0  0  0  0  0  0  0
   59.4580   31.0510   46.2960 C   0  0  0  0  0  0  0  0  0  0  0  0
   60.3840   32.0930   46.8190 C   0  0  0  0  0  0  0  0  0  0  0  0
   60.6290   33.1090   46.1160 O   0  0  0  0  0  0  0  0  0  0  0  0
   61.0580   31.9110   48.0950 N   0  0  0  0  0  0  0  0  0  0  0  0
   62.0210   31.5530   47.8850 H   0  0  0  0  0  0  0  0  0  0  0  0
   61.2220   33.2010   48.8060 C   0  0  0  0  0  0  0  0  0  0  0  0
   61.9644   33.0711   49.6073 H   0  0  0  0  0  0  0  0  0  0  0  0
   61.5504   33.9504   48.0708 H   0  0  0  0  0  0  0  0  0  0  0  0
   59.9110   33.6960   49.4250 C   0  0  0  0  0  0  0  0  0  0  0  0
   60.1042   34.5981   50.0241 H   0  0  0  0  0  0  0  0  0  0  0  0
   59.1930   33.9373   48.6274 H   0  0  0  0  0  0  0  0  0  0  0  0
   59.3590   32.6460   50.2840 N   0  0  0  0  0  0  0  0  0  0  0  0
   58.8590   32.9550   51.6000 C   0  0  0  0  0  0  0  0  0  0  0  0
   59.2100   34.0240   52.1730 O   0  0  0  0  0  0  0  0  0  0  0  0
   58.0160   32.0320   52.3000 N   0  0  0  0  0  0  0  0  0  0  0  0
   56.6010   31.9440   51.9020 C   0  0  0  0  0  0  0  0  0  0  0  0
   56.1021   32.8919   52.1523 H   0  0  0  0  0  0  0  0  0  0  0  0
   56.5640   31.7483   50.8202 H   0  0  0  0  0  0  0  0  0  0  0  0
   55.8720   30.7960   52.6170 C   0  0  0  0  0  0  0  0  0  0  0  0
   54.7873   30.9675   52.5529 H   0  0  0  0  0  0  0  0  0  0  0  0
   56.1511   29.8527   52.1249 H   0  0  0  0  0  0  0  0  0  0  0  0
   56.2430   30.7100   53.9790 O   0  0  0  0  0  0  0  0  0  0  0  0
   57.6100   30.3650   54.0690 C   0  0  0  0  0  0  0  0  0  0  0  0
   57.8564   30.1282   55.1146 H   0  0  0  0  0  0  0  0  0  0  0  0
   57.8012   29.4907   53.4295 H   0  0  0  0  0  0  0  0  0  0  0  0
   58.4810   31.5250   53.5970 C   0  0  0  0  0  0  0  0  0  0  0  0
   58.4346   32.3359   54.3388 H   0  0  0  0  0  0  0  0  0  0  0  0
   59.5150   31.1668   53.4854 H   0  0  0  0  0  0  0  0  0  0  0  0
   59.1550   31.3270   49.6750 C   0  0  0  0  0  0  0  0  0  0  0  0
   58.9026   30.6000   50.4609 H   0  0  0  0  0  0  0  0  0  0  0  0
   58.3350   31.3939   48.9448 H   0  0  0  0  0  0  0  0  0  0  0  0
   60.4370   30.8660   48.9480 C   0  0  0  0  0  0  0  0  0  0  0  0
   61.1719   30.5567   49.7058 H   0  0  0  0  0  0  0  0  0  0  0  0
   60.1446   30.0427   48.2797 H   0  0  0  0  0  0  0  0  0  0  0  0
   59.7640   29.7010   46.1710 C   0  0  0  0  0  0  0  0  0  0  0  0
   60.7130   29.2169   46.4449 H   0  0  0  0  0  0  0  0  0  0  0  0
   58.6470   29.0810   45.6360 C   0  0  0  0  0  0  0  0  0  0  0  0
   58.4950   27.7690   45.3900 C   0  0  0  0  0  0  0  0  0  0  0  0
   59.3216   27.2357   44.8977 H   0  0  0  0  0  0  0  0  0  0  0  0
   57.2850   27.0010   45.7410 C   0  0  0  0  0  0  0  0  0  0  0  0
   57.3250   25.7940   46.3310 N   0  0  0  0  0  0  0  0  0  0  0  0
   56.0220   25.4880   46.5090 C   0  0  0  0  0  0  0  0  0  0  0  0
   55.6450   24.4040   47.0280 O   0  0  0  0  0  0  0  0  0  0  0  0
   55.1550   26.4350   46.0970 N   0  0  0  0  0  0  0  0  0  0  0  0
   55.9700   27.3920   45.6210 C   0  0  0  0  0  0  0  0  0  0  0  0
   55.5200   28.6140   45.1330 O   0  0  0  0  0  0  0  0  0  0  0  0
   57.6660   29.9850   45.4460 N   0  0  0  0  0  0  0  0  0  0  0  0
   56.7050   29.7900   45.0800 H   0  0  0  0  0  0  0  0  0  0  0  0
  1  2  1  0
  2  3  1  0
  2  4  2  0
  4  5  1  0
  5  6  1  0
  6  7  2  0
  6  8  1  0
  8  9  1  0
  8 10  1  0
 10 11  1  0
 10 12  1  0
 10 13  1  0
 13 14  1  0
 13 15  1  0
 13 16  1  0
 16 17  1  0
 17 18  2  0
 17 19  1  0
 19 20  1  0
 20 21  1  0
 20 22  1  0
 20 23  1  0
 23 24  1  0
 23 25  1  0
 23 26  1  0
 26 27  1  0
 27 28  1  0
 27 29  1  0
 27 30  1  0
 30 31  1  0
 30 32  1  0
 16 33  1  0
 33 34  1  0
 33 35  1  0
 33 36  1  0
 36 37  1  0
 36 38  1  0
  5 39  2  0
 39 40  1  0
 39 41  1  0
 41 42  2  0
 42 43  1  0
 42 44  1  0
 44 45  1  0
 45 46  1  0
 46 47  2  0
 46 48  1  0
 48 49  1  0
 49 50  1  0
 41 51  1  0
 51 52  1  0
 51  4  1  0
 36  8  1  0
 49 44  2  0
 30 19  1  0
M  CHG  4   8   1  45  -1  48  -1  50  -1
M  END
>  <UniqueID>  (32) 
31

>  <SMILES>  (32) 
C=c1[nH]/c(=C/c2[n-]c(=O)[n-]c2[O-])cc1C(=O)[NH+]1CCN(C(=O)N2CCOCC2)CC1

>  <Energy>  (32) 
131.33658312319625

>  <Genealogy>  (32) 
C=c1[nH]c(=Cc2[n-]c(=O)[n-]c2[O-])cc1C(=O)[NH+]1CCN(C(=O)N2CCOCC2)CC1 (protonated)
C=c1[nH]/c(=C/c2[n-]c(=O)[n-]c2[O-])cc1C(=O)[NH+]1CCN(C(=O)N2CCOCC2)CC1 (cis-trans isomerization)
C=c1[nH]/c(=C/c2[n-]c(=O)[n-]c2[O-])cc1C(=O)[NH+]1CCN(C(=O)N2CCOCC2)CC1 (3D coordinates assigned)
C=c1[nH]/c(=C/c2[n-]c(=O)[n-]c2[O-])cc1C(=O)[NH+]1CCN(C(=O)N2CCOCC2)CC1 (nonaromatic ring conformer: 131.33658312319625 kcal/mol)

>  <smiles>  (32) 
C=c1[nH]c(=Cc2[nH]c(=O)[nH]c2O)cc1C(=O)N1CCN(C(=O)N2CCOCC2)CC1

>  <score_type>  (32) 
oracle

>  <origin>  (32) 
adg

>  <m_score__min__energy>  (32) 
-16.859999999999999

>  <m_primary>  (32) 
energy

$$$$
32:0
     RDKit          3D

 45 47  0  0  0  0  0  0  0  0999 V2000
   55.5390   30.0570   43.6300 C   0  0  0  0  0  0  0  0  0  0  0  0
   56.4920   29.6640   44.4780 C   0  0  0  0  0  0  0  0  0  0  0  0
   56.6220   28.3880   44.8960 N   0  0  0  0  0  0  0  0  0  0  0  0
   57.6640   28.3630   45.7580 C   0  0  0  0  0  0  0  0  0  0  0  0
   58.1430   27.2820   46.4000 C   0  0  0  0  0  0  0  0  0  0  0  0
   57.3950   26.0410   46.7000 C   0  0  0  0  0  0  0  0  0  0  0  0
   57.9150   24.8980   47.1790 N   0  0  0  0  0  0  0  0  0  0  0  0
   56.8520   24.0690   47.2490 C   0  0  0  0  0  0  0  0  0  0  0  0
   56.9410   22.8840   47.6650 O   0  0  0  0  0  0  0  0  0  0  0  0
   55.6850   24.6100   46.8380 N   0  0  0  0  0  0  0  0  0  0  0  0
   56.0470   25.8560   46.4910 C   0  0  0  0  0  0  0  0  0  0  0  0
   55.1630   26.8040   45.9940 O   0  0  0  0  0  0  0  0  0  0  0  0
   58.2070   29.6310   45.8850 C   0  0  0  0  0  0  0  0  0  0  0  0
   57.4600   30.4670   45.0740 C   0  0  0  0  0  0  0  0  0  0  0  0
   57.7260   31.9070   44.8500 C   0  0  0  0  0  0  0  0  0  0  0  0
   57.3680   32.4340   43.7620 O   0  0  0  0  0  0  0  0  0  0  0  0
   58.4410   32.7350   45.8510 C   0  0  0  0  0  0  0  0  0  0  0  0
   59.2640   33.8030   45.4540 C   0  0  0  0  0  0  0  0  0  0  0  0
   59.9400   34.5660   46.4070 C   0  0  0  0  0  0  0  0  0  0  0  0
   59.8130   34.2710   47.7660 C   0  0  0  0  0  0  0  0  0  0  0  0
   59.0090   33.1960   48.1830 C   0  0  0  0  0  0  0  0  0  0  0  0
   58.8470   32.8380   49.5630 N   0  0  0  0  0  0  0  0  0  0  0  0
   59.0340   31.2660   50.2800 S   0  0  0  0  0  0  0  0  0  0  0  0
   57.6720   30.7720   50.6780 O   0  0  0  0  0  0  0  0  0  0  0  0
   59.8790   31.3450   51.5200 O   0  0  0  0  0  0  0  0  0  0  0  0
   59.7340   30.1030   49.1040 C   0  0  0  0  0  0  0  0  0  0  0  0
   59.9680   28.7350   49.7460 C   0  0  0  0  0  0  0  0  0  0  0  0
   61.0370   30.6570   48.5240 C   0  0  0  0  0  0  0  0  0  0  0  0
   58.3320   32.4350   47.2200 C   0  0  0  0  0  0  0  0  0  0  0  0
   55.4780   31.1110   43.3213 H   0  0  0  0  0  0  0  0  0  0  0  0
   54.8146   29.3268   43.2399 H   0  0  0  0  0  0  0  0  0  0  0  0
   56.0210   27.5960   44.5840 H   0  0  0  0  0  0  0  0  0  0  0  0
   59.1903   27.3248   46.7336 H   0  0  0  0  0  0  0  0  0  0  0  0
   59.0658   29.9178   46.5097 H   0  0  0  0  0  0  0  0  0  0  0  0
   59.3759   34.0389   44.3854 H   0  0  0  0  0  0  0  0  0  0  0  0
   60.5761   35.4041   46.0861 H   0  0  0  0  0  0  0  0  0  0  0  0
   60.3433   34.8812   48.5119 H   0  0  0  0  0  0  0  0  0  0  0  0
   59.0110   29.9677   48.2861 H   0  0  0  0  0  0  0  0  0  0  0  0
   59.9507   28.8362   50.8412 H   0  0  0  0  0  0  0  0  0  0  0  0
   59.1755   28.0410   49.4293 H   0  0  0  0  0  0  0  0  0  0  0  0
   60.9461   28.3438   49.4293 H   0  0  0  0  0  0  0  0  0  0  0  0
   61.7110   30.9436   49.3447 H   0  0  0  0  0  0  0  0  0  0  0  0
   61.5198   29.8863   47.9052 H   0  0  0  0  0  0  0  0  0  0  0  0
   60.8169   31.5394   47.9052 H   0  0  0  0  0  0  0  0  0  0  0  0
   57.7055   31.5896   47.5406 H   0  0  0  0  0  0  0  0  0  0  0  0
  1  2  2  0
  2  3  1  0
  3  4  1  0
  4  5  2  3
  5  6  1  0
  6  7  1  0
  7  8  1  0
  8  9  2  0
  8 10  1  0
 10 11  1  0
 11 12  1  0
  4 13  1  0
 13 14  2  0
 14 15  1  0
 15 16  2  0
 15 17  1  0
 17 18  2  0
 18 19  1  0
 19 20  2  0
 20 21  1  0
 21 22  1  0
 22 23  1  0
 23 24  2  0
 23 25  2  0
 23 26  1  0
 26 27  1  0
 26 28  1  0
 21 29  2  0
 14  2  1  0
 29 17  1  0
 11  6  2  0
  1 30  1  0
  1 31  1  0
  3 32  1  0
  5 33  1  0
 13 34  1  0
 18 35  1  0
 19 36  1  0
 20 37  1  0
 26 38  1  0
 27 39  1  0
 27 40  1  0
 27 41  1  0
 28 42  1  0
 28 43  1  0
 28 44  1  0
 29 45  1  0
M  CHG  4   7  -1  10  -1  12  -1  22  -1
M  END
>  <UniqueID>  (33) 
32

>  <SMILES>  (33) 
C=c1[nH]c(=Cc2[n-]c(=O)[n-]c2[O-])cc1C(=O)c1cccc([N-]S(=O)(=O)C(C)C)c1

>  <Energy>  (33) 
107.64016479078188

>  <Genealogy>  (33) 
C=c1[nH]c(=Cc2[n-]c(=O)[n-]c2[O-])cc1C(=O)c1cccc([N-]S(=O)(=O)C(C)C)c1 (protonated)
C=c1[nH]c(=Cc2[n-]c(=O)[n-]c2[O-])cc1C(=O)c1cccc([N-]S(=O)(=O)C(C)C)c1 (3D coordinates assigned)
C=c1[nH]c(=Cc2[n-]c(=O)[n-]c2[O-])cc1C(=O)c1cccc([N-]S(=O)(=O)C(C)C)c1 (optimized conformer: 107.64016479078188 kcal/mol)

>  <smiles>  (33) 
C=c1[nH]c(=Cc2[nH]c(=O)[nH]c2O)cc1C(=O)c1cccc(NS(=O)(=O)C(C)C)c1

>  <score_type>  (33) 
oracle

>  <origin>  (33) 
adg

>  <m_score__min__energy>  (33) 
-18.329999999999998

>  <m_primary>  (33) 
energy

$$$$
33:0
     RDKit          3D

 61 64  0  0  0  0  0  0  0  0999 V2000
   57.0210   31.7120   44.9100 O   0  0  0  0  0  0  0  0  0  0  0  0
   58.1610   31.3210   45.2860 C   0  0  0  0  0  0  0  0  0  0  0  0
   59.1860   32.2810   45.5840 N   0  0  0  0  0  0  0  0  0  0  0  0
   58.9670   33.7280   45.5690 C   0  0  0  0  0  0  0  0  0  0  0  0
   59.5540   34.4050   46.7800 C   0  0  0  0  0  0  0  0  0  0  0  0
   58.9080   35.3550   47.3120 O   0  0  0  0  0  0  0  0  0  0  0  0
   60.8460   34.0540   47.3020 N   0  0  0  0  0  0  0  0  0  0  0  0
   61.9590   33.5730   46.4980 C   0  0  0  0  0  0  0  0  0  0  0  0
   63.0670   33.2580   47.4880 C   0  0  0  0  0  0  0  0  0  0  0  0
   62.7250   34.0410   48.7520 C   0  0  0  0  0  0  0  0  0  0  0  0
   61.2250   34.3090   48.6810 C   0  0  0  0  0  0  0  0  0  0  0  0
   58.4130   29.8730   45.4440 C   0  0  0  0  0  0  0  0  0  0  0  0
   57.6780   28.9450   44.6900 C   0  0  0  0  0  0  0  0  0  0  0  0
   57.8800   27.5710   44.8650 C   0  0  0  0  0  0  0  0  0  0  0  0
   58.8300   27.1060   45.7870 C   0  0  0  0  0  0  0  0  0  0  0  0
   59.0670   25.6580   45.9660 C   0  0  0  0  0  0  0  0  0  0  0  0
   60.2540   25.2340   45.9830 O   0  0  0  0  0  0  0  0  0  0  0  0
   57.9780   24.7250   46.1290 N   0  0  0  0  0  0  0  0  0  0  0  0
   58.1620   23.3360   45.6760 C   0  0  0  0  0  0  0  0  0  0  0  0
   56.9040   22.5030   45.9250 C   0  0  0  0  0  0  0  0  0  0  0  0
   56.4500   22.7120   47.3060 N   0  0  0  0  0  0  0  0  0  0  0  0
   56.4980   21.6220   48.2480 C   0  0  0  0  0  0  0  0  0  0  0  0
   57.4170   20.7630   48.1520 O   0  0  0  0  0  0  0  0  0  0  0  0
   55.5180   21.5040   49.3530 C   0  0  0  0  0  0  0  0  0  0  0  0
   54.1560   21.7510   49.1120 C   0  0  0  0  0  0  0  0  0  0  0  0
   53.2250   21.6570   50.1520 C   0  0  0  0  0  0  0  0  0  0  0  0
   53.6460   21.3270   51.4430 C   0  0  0  0  0  0  0  0  0  0  0  0
   54.9980   21.0920   51.6950 C   0  0  0  0  0  0  0  0  0  0  0  0
   55.9340   21.1910   50.6590 C   0  0  0  0  0  0  0  0  0  0  0  0
   56.2710   24.0880   47.8010 C   0  0  0  0  0  0  0  0  0  0  0  0
   56.7140   25.1340   46.7650 C   0  0  0  0  0  0  0  0  0  0  0  0
   59.5790   28.0350   46.5260 C   0  0  0  0  0  0  0  0  0  0  0  0
   59.3630   29.4050   46.3670 C   0  0  0  0  0  0  0  0  0  0  0  0
   60.1290   31.9450   45.8740 H   0  0  0  0  0  0  0  0  0  0  0  0
   59.4354   34.1478   44.6666 H   0  0  0  0  0  0  0  0  0  0  0  0
   57.8814   33.9053   45.5760 H   0  0  0  0  0  0  0  0  0  0  0  0
   61.6700   32.6681   45.9434 H   0  0  0  0  0  0  0  0  0  0  0  0
   62.2764   34.3173   45.7528 H   0  0  0  0  0  0  0  0  0  0  0  0
   63.0960   32.1792   47.7010 H   0  0  0  0  0  0  0  0  0  0  0  0
   64.0556   33.5353   47.0932 H   0  0  0  0  0  0  0  0  0  0  0  0
   62.9664   33.4485   49.6468 H   0  0  0  0  0  0  0  0  0  0  0  0
   63.3009   34.9759   48.8177 H   0  0  0  0  0  0  0  0  0  0  0  0
   60.6821   33.6342   49.3592 H   0  0  0  0  0  0  0  0  0  0  0  0
   60.9810   35.3373   48.9861 H   0  0  0  0  0  0  0  0  0  0  0  0
   56.9386   29.2997   43.9569 H   0  0  0  0  0  0  0  0  0  0  0  0
   57.2909   26.8521   44.2767 H   0  0  0  0  0  0  0  0  0  0  0  0
   58.3850   23.3363   44.5988 H   0  0  0  0  0  0  0  0  0  0  0  0
   58.9928   22.8912   46.2434 H   0  0  0  0  0  0  0  0  0  0  0  0
   56.1129   22.8142   45.2269 H   0  0  0  0  0  0  0  0  0  0  0  0
   57.1298   21.4379   45.7681 H   0  0  0  0  0  0  0  0  0  0  0  0
   53.8198   22.0198   48.0997 H   0  0  0  0  0  0  0  0  0  0  0  0
   52.1593   21.8433   49.9531 H   0  0  0  0  0  0  0  0  0  0  0  0
   52.9125   21.2526   52.2594 H   0  0  0  0  0  0  0  0  0  0  0  0
   55.3291   20.8283   52.7103 H   0  0  0  0  0  0  0  0  0  0  0  0
   57.0009   21.0230   50.8678 H   0  0  0  0  0  0  0  0  0  0  0  0
   55.2076   24.2464   48.0335 H   0  0  0  0  0  0  0  0  0  0  0  0
   56.8965   24.2111   48.6975 H   0  0  0  0  0  0  0  0  0  0  0  0
   55.9357   25.2323   45.9939 H   0  0  0  0  0  0  0  0  0  0  0  0
   56.8665   26.0972   47.2739 H   0  0  0  0  0  0  0  0  0  0  0  0
   60.3415   27.6811   47.2354 H   0  0  0  0  0  0  0  0  0  0  0  0
   59.9404   30.1227   46.9683 H   0  0  0  0  0  0  0  0  0  0  0  0
  1  2  2  0
  2  3  1  0
  3  4  1  0
  4  5  1  0
  5  6  2  0
  5  7  1  0
  7  8  1  0
  8  9  1  0
  9 10  1  0
 10 11  1  0
  2 12  1  0
 12 13  2  0
 13 14  1  0
 14 15  2  0
 15 16  1  0
 16 17  2  0
 16 18  1  0
 18 19  1  0
 19 20  1  0
 20 21  1  0
 21 22  1  0
 22 23  2  0
 22 24  1  0
 24 25  2  0
 25 26  1  0
 26 27  2  0
 27 28  1  0
 28 29  2  0
 21 30  1  0
 30 31  1  0
 15 32  1  0
 32 33  2  0
 11  7  1  0
 33 12  1  0
 31 18  1  0
 29 24  1  0
  3 34  1  0
  4 35  1  0
  4 36  1  0
  8 37  1  0
  8 38  1  0
  9 39  1  0
  9 40  1  0
 10 41  1  0
 10 42  1  0
 11 43  1  0
 11 44  1  0
 13 45  1  0
 14 46  1  0
 19 47  1  0
 19 48  1  0
 20 49  1  0
 20 50  1  0
 25 51  1  0
 26 52  1  0
 27 53  1  0
 28 54  1  0
 29 55  1  0
 30 56  1  0
 30 57  1  0
 31 58  1  0
 31 59  1  0
 32 60  1  0
 33 61  1  0
M  END
>  <UniqueID>  (34) 
33

>  <SMILES>  (34) 
O=C(NCC(=O)N1CCCC1)c1ccc(C(=O)N2CCN(C(=O)c3ccccc3)CC2)cc1

>  <Energy>  (34) 
75.8006648717184

>  <Genealogy>  (34) 
O=C(NCC(=O)N1CCCC1)c1ccc(C(=O)N2CCN(C(=O)c3ccccc3)CC2)cc1 (3D coordinates assigned)
O=C(NCC(=O)N1CCCC1)c1ccc(C(=O)N2CCN(C(=O)c3ccccc3)CC2)cc1 (nonaromatic ring conformer: 75.8006648717184 kcal/mol)

>  <smiles>  (34) 
O=C(NCC(=O)N1CCCC1)c1ccc(C(=O)N2CCN(C(=O)c3ccccc3)CC2)cc1

>  <score_type>  (34) 
oracle

>  <origin>  (34) 
adg

>  <m_score__min__energy>  (34) 
-8.4600000000000009

>  <m_primary>  (34) 
energy

$$$$
35:0
     RDKit          3D

 54 57  0  0  0  0  0  0  0  0999 V2000
   50.1050   32.3400   49.7450 H   0  0  0  0  0  0  0  0  0  0  0  0
   51.0000   32.1970   50.2650 N   0  0  0  0  0  0  0  0  0  0  0  0
   51.6790   30.9430   50.2220 C   0  0  0  0  0  0  0  0  0  0  0  0
   51.4320   30.1430   49.2800 O   0  0  0  0  0  0  0  0  0  0  0  0
   52.6680   30.5860   51.2670 C   0  0  0  0  0  0  0  0  0  0  0  0
   52.3380   29.6700   52.2830 C   0  0  0  0  0  0  0  0  0  0  0  0
   51.3426   29.2021   52.2945 H   0  0  0  0  0  0  0  0  0  0  0  0
   53.2660   29.3510   53.2770 C   0  0  0  0  0  0  0  0  0  0  0  0
   52.9965   28.6365   54.0688 H   0  0  0  0  0  0  0  0  0  0  0  0
   54.5340   29.9350   53.2700 C   0  0  0  0  0  0  0  0  0  0  0  0
   55.2565   29.6877   54.0617 H   0  0  0  0  0  0  0  0  0  0  0  0
   54.8890   30.8370   52.2550 C   0  0  0  0  0  0  0  0  0  0  0  0
   56.2440   31.4880   52.2610 C   0  0  0  0  0  0  0  0  0  0  0  0
   56.2221   32.3798   51.6174 H   0  0  0  0  0  0  0  0  0  0  0  0
   56.5005   31.7763   53.2911 H   0  0  0  0  0  0  0  0  0  0  0  0
   57.2740   30.5340   51.7490 C   0  0  0  0  0  0  0  0  0  0  0  0
   57.1090   29.2950   51.9190 O   0  0  0  0  0  0  0  0  0  0  0  0
   58.4510   31.0530   51.1080 N   0  0  0  0  0  0  0  0  0  0  0  0
   58.6270   31.2900   49.8410 C   0  0  0  0  0  0  0  0  0  0  0  0
   59.2170   30.3900   49.0240 N   0  0  0  0  0  0  0  0  0  0  0  0
   59.3120   30.8490   47.7480 C   0  0  0  0  0  0  0  0  0  0  0  0
   59.7625   30.2598   46.9357 H   0  0  0  0  0  0  0  0  0  0  0  0
   58.7940   32.1220   47.5540 C   0  0  0  0  0  0  0  0  0  0  0  0
   58.8000   33.0290   46.0100 S   0  0  0  0  0  0  0  0  0  0  0  0
   59.6880   34.4510   46.7260 C   0  0  0  0  0  0  0  0  0  0  0  0
   59.9901   35.1356   45.9198 H   0  0  0  0  0  0  0  0  0  0  0  0
   59.0245   34.9746   47.4300 H   0  0  0  0  0  0  0  0  0  0  0  0
   60.9060   33.9770   47.4570 C   0  0  0  0  0  0  0  0  0  0  0  0
   60.9780   34.1210   48.8090 N   0  0  0  0  0  0  0  0  0  0  0  0
   62.0580   33.7010   49.5210 C   0  0  0  0  0  0  0  0  0  0  0  0
   62.0837   33.8419   50.6116 H   0  0  0  0  0  0  0  0  0  0  0  0
   63.1390   33.0890   48.8700 C   0  0  0  0  0  0  0  0  0  0  0  0
   64.3280   32.6440   49.6250 C   0  0  0  0  0  0  0  0  0  0  0  0
   65.4550   33.1300   49.3300 O   0  0  0  0  0  0  0  0  0  0  0  0
   64.2310   31.6640   50.6750 N   0  0  0  0  0  0  0  0  0  0  0  0
   65.2930   31.4490   51.6440 C   0  0  0  0  0  0  0  0  0  0  0  0
   66.2323   31.1895   51.1337 H   0  0  0  0  0  0  0  0  0  0  0  0
   65.4910   32.3522   52.2398 H   0  0  0  0  0  0  0  0  0  0  0  0
   64.8220   30.2910   52.5130 C   0  0  0  0  0  0  0  0  0  0  0  0
   65.6559   29.6054   52.7240 H   0  0  0  0  0  0  0  0  0  0  0  0
   64.4390   30.6400   53.4833 H   0  0  0  0  0  0  0  0  0  0  0  0
   63.7420   29.5820   51.7020 C   0  0  0  0  0  0  0  0  0  0  0  0
   64.1693   28.7262   51.1589 H   0  0  0  0  0  0  0  0  0  0  0  0
   62.9424   29.1872   52.3460 H   0  0  0  0  0  0  0  0  0  0  0  0
   63.2150   30.6240   50.7230 C   0  0  0  0  0  0  0  0  0  0  0  0
   63.0739   30.1786   49.7271 H   0  0  0  0  0  0  0  0  0  0  0  0
   62.2392   31.0222   51.0382 H   0  0  0  0  0  0  0  0  0  0  0  0
   63.0930   32.9520   47.4740 C   0  0  0  0  0  0  0  0  0  0  0  0
   63.9401   32.4988   46.9382 H   0  0  0  0  0  0  0  0  0  0  0  0
   61.9740   33.3900   46.7650 C   0  0  0  0  0  0  0  0  0  0  0  0
   61.9304   33.2755   45.6718 H   0  0  0  0  0  0  0  0  0  0  0  0
   58.1940   32.7000   49.0130 S   0  0  0  0  0  0  0  0  0  0  0  0
   53.9510   31.1670   51.2640 C   0  0  0  0  0  0  0  0  0  0  0  0
   54.2208   31.8867   50.4771 H   0  0  0  0  0  0  0  0  0  0  0  0
  1  2  1  0
  2  3  1  0
  3  4  2  0
  3  5  1  0
  5  6  2  0
  6  7  1  0
  6  8  1  0
  8  9  1  0
  8 10  2  0
 10 11  1  0
 10 12  1  0
 12 13  1  0
 13 14  1  0
 13 15  1  0
 13 16  1  0
 16 17  2  0
 16 18  1  0
 18 19  2  0
 19 20  1  0
 20 21  1  0
 21 22  1  0
 21 23  2  0
 23 24  1  0
 24 25  1  0
 25 26  1  0
 25 27  1  0
 25 28  1  0
 28 29  2  0
 29 30  1  0
 30 31  1  0
 30 32  2  0
 32 33  1  0
 33 34  2  0
 33 35  1  0
 35 36  1  0
 36 37  1  0
 36 38  1  0
 36 39  1  0
 39 40  1  0
 39 41  1  0
 39 42  1  0
 42 43  1  0
 42 44  1  0
 42 45  1  0
 45 46  1  0
 45 47  1  0
 32 48  1  0
 48 49  1  0
 48 50  2  0
 50 51  1  0
 23 52  1  0
 12 53  2  0
 53 54  1  0
 53  5  1  0
 52 19  1  0
 50 28  1  0
 45 35  1  0
M  CHG  2   2  -1  20  -1
M  END
>  <UniqueID>  (35) 
34

>  <SMILES>  (35) 
[NH-]C(=O)c1cccc(CC(=O)/N=c2/[n-]cc(SCc3ccc(C(=O)N4CCCC4)cn3)s2)c1

>  <Energy>  (35) 
89.56661396264896

>  <Genealogy>  (35) 
[NH-]C(=O)c1cccc(CC(=O)N=c2[n-]cc(SCc3ccc(C(=O)N4CCCC4)cn3)s2)c1 (protonated)
[NH-]C(=O)c1cccc(CC(=O)/N=c2/[n-]cc(SCc3ccc(C(=O)N4CCCC4)cn3)s2)c1 (cis-trans isomerization)
[NH-]C(=O)c1cccc(CC(=O)/N=c2/[n-]cc(SCc3ccc(C(=O)N4CCCC4)cn3)s2)c1 (3D coordinates assigned)
[NH-]C(=O)c1cccc(CC(=O)/N=c2/[n-]cc(SCc3ccc(C(=O)N4CCCC4)cn3)s2)c1 (nonaromatic ring conformer: 89.56661396264896 kcal/mol)

>  <smiles>  (35) 
NC(=O)c1cccc(CC(=O)N=c2[nH]cc(SCc3ccc(C(=O)N4CCCC4)cn3)s2)c1

>  <score_type>  (35) 
oracle

>  <origin>  (35) 
adg

>  <m_score__min__energy>  (35) 
-14.35

>  <m_primary>  (35) 
energy

$$$$
36:0
     RDKit          3D

 56 58  0  0  0  0  0  0  0  0999 V2000
   64.3940   33.0710   49.0220 C   0  0  0  0  0  0  0  0  0  0  0  0
   63.0900   33.2060   48.2260 C   0  0  0  0  0  0  0  0  0  0  0  0
   63.3180   33.8200   46.8380 C   0  0  0  0  0  0  0  0  0  0  0  0
   62.0270   33.8700   49.0040 N   0  0  0  0  0  0  0  0  0  0  0  0
   60.4010   33.2840   48.7480 S   0  0  0  0  0  0  0  0  0  0  0  0
   60.3530   31.7950   48.9540 O   0  0  0  0  0  0  0  0  0  0  0  0
   59.5040   33.9200   49.7720 O   0  0  0  0  0  0  0  0  0  0  0  0
   59.7820   33.7030   47.1540 C   0  0  0  0  0  0  0  0  0  0  0  0
   59.9430   34.9970   46.6390 C   0  0  0  0  0  0  0  0  0  0  0  0
   59.4040   35.3280   45.3940 C   0  0  0  0  0  0  0  0  0  0  0  0
   58.7020   34.3720   44.6560 C   0  0  0  0  0  0  0  0  0  0  0  0
   58.5460   33.0650   45.1520 C   0  0  0  0  0  0  0  0  0  0  0  0
   57.8130   32.0480   44.3600 C   0  0  0  0  0  0  0  0  0  0  0  0
   57.7400   32.1480   42.9600 C   0  0  0  0  0  0  0  0  0  0  0  0
   57.0210   31.2030   42.2230 C   0  0  0  0  0  0  0  0  0  0  0  0
   56.3550   30.1630   42.8760 C   0  0  0  0  0  0  0  0  0  0  0  0
   56.4000   30.0550   44.2710 C   0  0  0  0  0  0  0  0  0  0  0  0
   55.6940   28.9730   44.9010 N   0  0  0  0  0  0  0  0  0  0  0  0
   56.2690   27.8800   45.6270 C   0  0  0  0  0  0  0  0  0  0  0  0
   55.5250   26.9340   46.0000 O   0  0  0  0  0  0  0  0  0  0  0  0
   57.6590   27.8740   45.9590 N   0  0  0  0  0  0  0  0  0  0  0  0
   58.3650   26.7080   46.4700 C   0  0  0  0  0  0  0  0  0  0  0  0
   57.9190   25.4970   45.7030 C   0  0  0  0  0  0  0  0  0  0  0  0
   57.7930   24.2530   46.3410 C   0  0  0  0  0  0  0  0  0  0  0  0
   57.4160   23.1220   45.6090 C   0  0  0  0  0  0  0  0  0  0  0  0
   57.1810   23.2170   44.2300 C   0  0  0  0  0  0  0  0  0  0  0  0
   56.6870   21.7910   43.3220 S   0  0  0  0  0  0  0  0  0  0  0  0
   55.8440   20.7020   44.3680 N   0  0  0  0  0  0  0  0  0  0  0  0
   55.7820   22.1900   42.1900 O   0  0  0  0  0  0  0  0  0  0  0  0
   57.9000   21.1060   42.7540 O   0  0  0  0  0  0  0  0  0  0  0  0
   57.3200   24.4550   43.5880 C   0  0  0  0  0  0  0  0  0  0  0  0
   57.6950   25.5860   44.3180 C   0  0  0  0  0  0  0  0  0  0  0  0
   57.1680   30.9810   45.0060 C   0  0  0  0  0  0  0  0  0  0  0  0
   59.0950   32.7370   46.4030 C   0  0  0  0  0  0  0  0  0  0  0  0
   64.1704   33.0942   50.0988 H   0  0  0  0  0  0  0  0  0  0  0  0
   64.8810   32.1176   48.7691 H   0  0  0  0  0  0  0  0  0  0  0  0
   65.0659   33.9044   48.7691 H   0  0  0  0  0  0  0  0  0  0  0  0
   62.7185   32.1882   48.0363 H   0  0  0  0  0  0  0  0  0  0  0  0
   63.6990   34.8459   46.9490 H   0  0  0  0  0  0  0  0  0  0  0  0
   64.0512   33.2144   46.2851 H   0  0  0  0  0  0  0  0  0  0  0  0
   62.3673   33.8397   46.2851 H   0  0  0  0  0  0  0  0  0  0  0  0
   60.4950   35.7530   47.2167 H   0  0  0  0  0  0  0  0  0  0  0  0
   59.5326   36.3443   44.9933 H   0  0  0  0  0  0  0  0  0  0  0  0
   58.2689   34.6427   43.6818 H   0  0  0  0  0  0  0  0  0  0  0  0
   58.2508   32.9733   42.4423 H   0  0  0  0  0  0  0  0  0  0  0  0
   56.9794   31.2783   41.1264 H   0  0  0  0  0  0  0  0  0  0  0  0
   55.7907   29.4231   42.2894 H   0  0  0  0  0  0  0  0  0  0  0  0
   59.4488   26.8473   46.3433 H   0  0  0  0  0  0  0  0  0  0  0  0
   58.1427   26.5757   47.5391 H   0  0  0  0  0  0  0  0  0  0  0  0
   57.9913   24.1672   47.4196 H   0  0  0  0  0  0  0  0  0  0  0  0
   57.3034   22.1533   46.1179 H   0  0  0  0  0  0  0  0  0  0  0  0
   54.9300   21.1530   44.6060 H   0  0  0  0  0  0  0  0  0  0  0  0
   57.1335   24.5366   42.5070 H   0  0  0  0  0  0  0  0  0  0  0  0
   57.8157   26.5519   43.8058 H   0  0  0  0  0  0  0  0  0  0  0  0
   57.2629   30.8666   46.0959 H   0  0  0  0  0  0  0  0  0  0  0  0
   58.9855   31.7157   46.7966 H   0  0  0  0  0  0  0  0  0  0  0  0
  1  2  1  0
  2  3  1  0
  2  4  1  0
  4  5  1  0
  5  6  2  0
  5  7  2  0
  5  8  1  0
  8  9  2  0
  9 10  1  0
 10 11  2  0
 11 12  1  0
 12 13  1  0
 13 14  2  0
 14 15  1  0
 15 16  2  0
 16 17  1  0
 17 18  1  0
 18 19  1  0
 19 20  2  0
 19 21  1  0
 21 22  1  0
 22 23  1  0
 23 24  2  0
 24 25  1  0
 25 26  2  0
 26 27  1  0
 27 28  1  0
 27 29  2  0
 27 30  2  0
 26 31  1  0
 31 32  2  0
 17 33  2  0
 12 34  2  0
 34  8  1  0
 33 13  1  0
 32 23  1  0
  1 35  1  0
  1 36  1  0
  1 37  1  0
  2 38  1  0
  3 39  1  0
  3 40  1  0
  3 41  1  0
  9 42  1  0
 10 43  1  0
 11 44  1  0
 14 45  1  0
 15 46  1  0
 16 47  1  0
 22 48  1  0
 22 49  1  0
 24 50  1  0
 25 51  1  0
 28 52  1  0
 31 53  1  0
 32 54  1  0
 33 55  1  0
 34 56  1  0
M  CHG  4   4  -1  18  -1  21  -1  28  -1
M  END
>  <UniqueID>  (36) 
35

>  <SMILES>  (36) 
CC(C)[N-]S(=O)(=O)c1cccc(-c2cccc([N-]C(=O)[N-]Cc3ccc(S([NH-])(=O)=O)cc3)c2)c1

>  <Energy>  (36) 
61.053933254908145

>  <Genealogy>  (36) 
CC(C)[N-]S(=O)(=O)c1cccc(-c2cccc([N-]C(=O)[N-]Cc3ccc(S([NH-])(=O)=O)cc3)c2)c1 (protonated)
CC(C)[N-]S(=O)(=O)c1cccc(-c2cccc([N-]C(=O)[N-]Cc3ccc(S([NH-])(=O)=O)cc3)c2)c1 (3D coordinates assigned)
CC(C)[N-]S(=O)(=O)c1cccc(-c2cccc([N-]C(=O)[N-]Cc3ccc(S([NH-])(=O)=O)cc3)c2)c1 (optimized conformer: 61.053933254908145 kcal/mol)

>  <smiles>  (36) 
CC(C)NS(=O)(=O)c1cccc(-c2cccc(NC(=O)NCc3ccc(S(N)(=O)=O)cc3)c2)c1

>  <score_type>  (36) 
oracle

>  <origin>  (36) 
adg

>  <m_score__min__energy>  (36) 
-16.5

>  <m_primary>  (36) 
energy

$$$$
37:0
     RDKit          3D

 44 46  0  0  0  0  0  0  0  0999 V2000
   53.5520   28.5950   53.8430 C   0  0  0  0  0  0  0  0  0  0  0  0
   54.4360   29.3080   53.1290 C   0  0  0  0  0  0  0  0  0  0  0  0
   54.2430   30.5850   52.5770 C   0  0  0  0  0  0  0  0  0  0  0  0
   53.1270   31.3240   52.4240 C   0  0  0  0  0  0  0  0  0  0  0  0
   52.2200   31.2790   51.2660 C   0  0  0  0  0  0  0  0  0  0  0  0
   52.2650   30.3500   50.2920 N   0  0  0  0  0  0  0  0  0  0  0  0
   51.3570   30.7940   49.3960 C   0  0  0  0  0  0  0  0  0  0  0  0
   51.0960   30.1750   48.3320 O   0  0  0  0  0  0  0  0  0  0  0  0
   50.7590   31.9600   49.7240 N   0  0  0  0  0  0  0  0  0  0  0  0
   51.3280   32.2590   50.9040 C   0  0  0  0  0  0  0  0  0  0  0  0
   51.0430   33.4080   51.6310 O   0  0  0  0  0  0  0  0  0  0  0  0
   55.4870   31.0120   52.1470 C   0  0  0  0  0  0  0  0  0  0  0  0
   56.3660   29.9730   52.3670 C   0  0  0  0  0  0  0  0  0  0  0  0
   57.7930   30.0130   51.9900 C   0  0  0  0  0  0  0  0  0  0  0  0
   58.3090   28.9760   51.4890 O   0  0  0  0  0  0  0  0  0  0  0  0
   58.6080   31.1850   52.2060 N   0  0  0  0  0  0  0  0  0  0  0  0
   59.8680   31.3190   51.4670 C   0  0  0  0  0  0  0  0  0  0  0  0
   60.6320   32.5800   51.8960 C   0  0  0  0  0  0  0  0  0  0  0  0
   59.7400   33.7560   51.9750 N   0  0  0  0  0  0  0  0  0  0  0  0
   59.3270   34.2220   50.6340 C   0  0  0  0  0  0  0  0  0  0  0  0
   60.4700   34.1220   49.6690 C   0  0  0  0  0  0  0  0  0  0  0  0
   60.3670   34.5800   48.5420 O   0  0  0  0  0  0  0  0  0  0  0  0
   58.5840   33.5640   52.8950 C   0  0  0  0  0  0  0  0  0  0  0  0
   58.3420   32.1030   53.3200 C   0  0  0  0  0  0  0  0  0  0  0  0
   55.7340   28.9390   52.9720 N   0  0  0  0  0  0  0  0  0  0  0  0
   56.3630   27.7270   53.5080 C   0  0  0  0  0  0  0  0  0  0  0  0
   53.8266   27.5997   54.2224 H   0  0  0  0  0  0  0  0  0  0  0  0
   52.5525   29.0057   54.0490 H   0  0  0  0  0  0  0  0  0  0  0  0
   52.8715   32.0217   53.2352 H   0  0  0  0  0  0  0  0  0  0  0  0
   55.7285   31.9933   51.7125 H   0  0  0  0  0  0  0  0  0  0  0  0
   60.4943   30.4361   51.6626 H   0  0  0  0  0  0  0  0  0  0  0  0
   59.6360   31.4002   50.3948 H   0  0  0  0  0  0  0  0  0  0  0  0
   61.0817   32.4059   52.8847 H   0  0  0  0  0  0  0  0  0  0  0  0
   61.4068   32.7858   51.1428 H   0  0  0  0  0  0  0  0  0  0  0  0
   58.4943   33.5994   50.2748 H   0  0  0  0  0  0  0  0  0  0  0  0
   59.0112   35.2733   50.7041 H   0  0  0  0  0  0  0  0  0  0  0  0
   61.4060   33.6336   49.9779 H   0  0  0  0  0  0  0  0  0  0  0  0
   58.7636   34.1604   53.8017 H   0  0  0  0  0  0  0  0  0  0  0  0
   57.6877   33.8817   52.3420 H   0  0  0  0  0  0  0  0  0  0  0  0
   59.0101   31.8559   54.1582 H   0  0  0  0  0  0  0  0  0  0  0  0
   57.2903   31.9937   53.6234 H   0  0  0  0  0  0  0  0  0  0  0  0
   56.3457   27.7604   54.6074 H   0  0  0  0  0  0  0  0  0  0  0  0
   55.8103   26.8422   53.1593 H   0  0  0  0  0  0  0  0  0  0  0  0
   57.4047   27.6696   53.1593 H   0  0  0  0  0  0  0  0  0  0  0  0
  1  2  2  0
  2  3  1  0
  3  4  2  3
  4  5  1  0
  5  6  1  0
  6  7  1  0
  7  8  2  0
  7  9  1  0
  9 10  1  0
 10 11  1  0
  3 12  1  0
 12 13  2  0
 13 14  1  0
 14 15  2  0
 14 16  1  0
 16 17  1  0
 17 18  1  0
 18 19  1  0
 19 20  1  0
 20 21  1  0
 21 22  2  0
 19 23  1  0
 23 24  1  0
 13 25  1  0
 25 26  1  0
 25  2  1  0
 10  5  2  0
 24 16  1  0
  1 27  1  0
  1 28  1  0
  4 29  1  0
 12 30  1  0
 17 31  1  0
 17 32  1  0
 18 33  1  0
 18 34  1  0
 20 35  1  0
 20 36  1  0
 21 37  1  0
 23 38  1  0
 23 39  1  0
 24 40  1  0
 24 41  1  0
 26 42  1  0
 26 43  1  0
 26 44  1  0
M  CHG  3   6  -1   9  -1  11  -1
M  END
>  <UniqueID>  (37) 
36

>  <SMILES>  (37) 
C=c1c(=Cc2[n-]c(=O)[n-]c2[O-])cc(C(=O)N2CCN(CC=O)CC2)n1C

>  <Energy>  (37) 
125.72149508363655

>  <Genealogy>  (37) 
C=c1c(=Cc2[n-]c(=O)[n-]c2[O-])cc(C(=O)N2CCN(CC=O)CC2)n1C (protonated)
C=c1c(=Cc2[n-]c(=O)[n-]c2[O-])cc(C(=O)N2CCN(CC=O)CC2)n1C (3D coordinates assigned)
C=c1c(=Cc2[n-]c(=O)[n-]c2[O-])cc(C(=O)N2CCN(CC=O)CC2)n1C (nonaromatic ring conformer: 125.72149508363655 kcal/mol)

>  <smiles>  (37) 
C=c1c(=Cc2[nH]c(=O)[nH]c2O)cc(C(=O)N2CCN(CC=O)CC2)n1C

>  <score_type>  (37) 
oracle

>  <origin>  (37) 
adg

>  <m_score__min__energy>  (37) 
-15.710000000000001

>  <m_primary>  (37) 
energy

$$$$
38:0
     RDKit          3D

 63 64  0  0  0  0  0  0  0  0999 V2000
   56.6210   30.0840   46.0750 H   0  0  0  0  0  0  0  0  0  0  0  0
   57.1820   30.6160   45.4480 O   0  0  0  0  0  0  0  0  0  0  0  0
   56.9580   30.1270   44.1460 C   0  0  0  0  0  0  0  0  0  0  0  0
   57.7190   28.8250   43.9410 C   0  0  0  0  0  0  0  0  0  0  0  0
   58.5250   28.7897   43.1932 H   0  0  0  0  0  0  0  0  0  0  0  0
   57.4350   27.7170   44.6470 C   0  0  0  0  0  0  0  0  0  0  0  0
   56.4275   27.6004   45.0730 H   0  0  0  0  0  0  0  0  0  0  0  0
   58.4520   26.6310   44.8730 C   0  0  0  0  0  0  0  0  0  0  0  0
   59.3861   26.9062   44.3614 H   0  0  0  0  0  0  0  0  0  0  0  0
   58.0432   25.6916   44.4724 H   0  0  0  0  0  0  0  0  0  0  0  0
   58.7410   26.4280   46.3440 C   0  0  0  0  0  0  0  0  0  0  0  0
   57.9880   25.5630   47.0500 C   0  0  0  0  0  0  0  0  0  0  0  0
   58.1878   25.4063   48.1203 H   0  0  0  0  0  0  0  0  0  0  0  0
   57.1731   25.0132   46.5564 H   0  0  0  0  0  0  0  0  0  0  0  0
   59.6660   27.4120   47.0510 C   0  0  2  0  0  0  0  0  0  0  0  0
   60.6819   27.2957   46.6455 H   0  0  0  0  0  0  0  0  0  0  0  0
   59.7150   27.1310   48.4470 O   0  0  0  0  0  0  0  0  0  0  0  0
   60.6740   27.9600   49.0920 C   0  0  0  0  0  0  0  0  0  0  0  0
   60.7804   27.6395   50.1389 H   0  0  0  0  0  0  0  0  0  0  0  0
   61.6326   27.8657   48.5608 H   0  0  0  0  0  0  0  0  0  0  0  0
   60.2360   29.4440   49.0590 C   0  0  2  0  0  0  0  0  0  0  0  0
   60.9605   30.1481   49.4942 H   0  0  0  0  0  0  0  0  0  0  0  0
   58.9720   29.6210   49.9660 C   0  0  0  0  0  0  0  0  0  0  0  0
   58.1279   29.8730   49.3072 H   0  0  0  0  0  0  0  0  0  0  0  0
   58.8829   28.6673   50.5069 H   0  0  0  0  0  0  0  0  0  0  0  0
   59.0260   30.6680   51.0480 C   0  0  0  0  0  0  0  0  0  0  0  0
   58.1369   30.7154   51.6939 H   0  0  0  0  0  0  0  0  0  0  0  0
   59.9860   31.5470   51.3440 C   0  0  0  0  0  0  0  0  0  0  0  0
   60.6952   31.2220   52.1195 H   0  0  0  0  0  0  0  0  0  0  0  0
   60.2390   32.8970   50.7830 C   0  0  0  0  0  0  0  0  0  0  0  0
   60.3690   33.8470   51.6150 O   0  0  0  0  0  0  0  0  0  0  0  0
   60.4400   33.1570   49.3880 N   0  0  0  0  0  0  0  0  0  0  0  0
   60.8120   32.4220   48.7530 H   0  0  0  0  0  0  0  0  0  0  0  0
   60.0000   34.4320   48.8060 C   0  0  0  0  0  0  0  0  0  0  0  0
   59.3289   34.9389   49.5150 H   0  0  0  0  0  0  0  0  0  0  0  0
   60.8867   35.0515   48.6061 H   0  0  0  0  0  0  0  0  0  0  0  0
   59.2680   34.2070   47.5090 C   0  0  0  0  0  0  0  0  0  0  0  0
   58.0210   33.5480   47.4940 C   0  0  0  0  0  0  0  0  0  0  0  0
   57.6097   33.1323   48.4257 H   0  0  0  0  0  0  0  0  0  0  0  0
   57.3050   33.4210   46.2980 C   0  0  0  0  0  0  0  0  0  0  0  0
   56.3323   32.9074   46.2915 H   0  0  0  0  0  0  0  0  0  0  0  0
   57.8250   33.9460   45.1130 C   0  0  0  0  0  0  0  0  0  0  0  0
   57.1100   33.8530   43.9650 F   0  0  0  0  0  0  0  0  0  0  0  0
   59.0720   34.5850   45.1210 C   0  0  0  0  0  0  0  0  0  0  0  0
   59.4845   34.9912   44.1857 H   0  0  0  0  0  0  0  0  0  0  0  0
   59.7940   34.7090   46.3100 C   0  0  0  0  0  0  0  0  0  0  0  0
   60.7775   35.2016   46.3059 H   0  0  0  0  0  0  0  0  0  0  0  0
   60.1150   29.8490   47.5640 C   0  0  2  0  0  0  0  0  0  0  0  0
   61.1242   29.7924   47.1301 H   0  0  0  0  0  0  0  0  0  0  0  0
   59.6570   31.1660   47.4290 O   0  0  0  0  0  0  0  0  0  0  0  0
   58.8030   31.1220   46.9230 H   0  0  0  0  0  0  0  0  0  0  0  0
   59.2150   28.8760   46.7840 C   0  0  2  0  0  0  0  0  0  0  0  0
   59.3061   29.0588   45.7031 H   0  0  0  0  0  0  0  0  0  0  0  0
   57.8750   29.0870   47.1470 O   0  0  0  0  0  0  0  0  0  0  0  0
   57.7910   30.0440   47.4070 H   0  0  0  0  0  0  0  0  0  0  0  0
   57.4350   31.1790   43.1310 C   0  0  0  0  0  0  0  0  0  0  0  0
   57.8314   32.0533   43.6680 H   0  0  0  0  0  0  0  0  0  0  0  0
   58.2254   30.7472   42.4994 H   0  0  0  0  0  0  0  0  0  0  0  0
   56.5894   31.4890   42.4994 H   0  0  0  0  0  0  0  0  0  0  0  0
   55.4510   29.8910   43.9430 C   0  0  0  0  0  0  0  0  0  0  0  0
   54.9568   29.8136   44.9227 H   0  0  0  0  0  0  0  0  0  0  0  0
   55.0205   30.7327   43.3806 H   0  0  0  0  0  0  0  0  0  0  0  0
   55.2985   28.9580   43.3806 H   0  0  0  0  0  0  0  0  0  0  0  0
  1  2  1  0
  2  3  1  0
  3  4  1  0
  4  5  1  0
  4  6  2  0
  6  7  1  0
  6  8  1  0
  8  9  1  0
  8 10  1  0
  8 11  1  0
 11 12  2  0
 12 13  1  0
 12 14  1  0
 11 15  1  0
 15 16  1  6
 15 17  1  0
 17 18  1  0
 18 19  1  0
 18 20  1  0
 18 21  1  0
 21 22  1  1
 21 23  1  0
 23 24  1  0
 23 25  1  0
 23 26  1  0
 26 27  1  0
 26 28  2  0
 28 29  1  0
 28 30  1  0
 30 31  2  0
 30 32  1  0
 32 33  1  0
 32 34  1  0
 34 35  1  0
 34 36  1  0
 34 37  1  0
 37 38  2  0
 38 39  1  0
 38 40  1  0
 40 41  1  0
 40 42  2  0
 42 43  1  0
 42 44  1  0
 44 45  1  0
 44 46  2  0
 46 47  1  0
 21 48  1  0
 48 49  1  6
 48 50  1  0
 50 51  1  0
 48 52  1  0
 52 53  1  6
 52 54  1  0
 54 55  1  0
  3 56  1  0
 56 57  1  0
 56 58  1  0
 56 59  1  0
  3 60  1  0
 60 61  1  0
 60 62  1  0
 60 63  1  0
 52 15  1  0
 46 37  1  0
M  END
>  <UniqueID>  (38) 
37

>  <SMILES>  (38) 
C=C(C/C=C/C(C)(C)O)[C@@H]1OC[C@H](C/C=C\C(=O)NCc2ccc(F)cc2)C(O)C1O

>  <Energy>  (38) 
70.64958681009682

>  <Genealogy>  (38) 
C=C(CC=CC(C)(C)O)[C@@H]1OC[C@H](CC=CC(=O)NCc2ccc(F)cc2)C(O)C1O (chirality)
C=C(C/C=C/C(C)(C)O)[C@@H]1OC[C@H](C/C=C\C(=O)NCc2ccc(F)cc2)C(O)C1O (cis-trans isomerization)
C=C(C/C=C/C(C)(C)O)[C@@H]1OC[C@H](C/C=C\C(=O)NCc2ccc(F)cc2)C(O)C1O (3D coordinates assigned)
C=C(C/C=C/C(C)(C)O)[C@@H]1OC[C@H](C/C=C\C(=O)NCc2ccc(F)cc2)C(O)C1O (nonaromatic ring conformer: 70.64958681009682 kcal/mol)

>  <smiles>  (38) 
C=C(CC=CC(C)(C)O)C1OCC(CC=CC(=O)NCc2ccc(F)cc2)C(O)C1O

>  <score_type>  (38) 
oracle

>  <origin>  (38) 
adg

>  <m_score__min__energy>  (38) 
-8.2300000000000004

>  <m_primary>  (38) 
energy

$$$$
39:0
     RDKit          3D

 37 39  0  0  0  0  0  0  0  0999 V2000
   58.7286   34.7744   44.3562 H   0  0  0  0  0  0  0  0  0  0  0  0
   58.3670   33.7480   44.5170 C   0  0  0  0  0  0  0  0  0  0  0  0
   58.0720   32.6020   43.3180 S   0  0  0  0  0  0  0  0  0  0  0  0
   57.5890   31.4310   44.4170 C   0  0  0  0  0  0  0  0  0  0  0  0
   57.1740   30.2490   44.0700 N   0  0  0  0  0  0  0  0  0  0  0  0
   56.3890   29.3590   44.8780 C   0  0  0  0  0  0  0  0  0  0  0  0
   55.1410   29.3340   44.7090 O   0  0  0  0  0  0  0  0  0  0  0  0
   57.0140   28.4280   45.8860 C   0  0  0  0  0  0  0  0  0  0  0  0
   58.0996   28.3975   45.7110 H   0  0  0  0  0  0  0  0  0  0  0  0
   56.7738   28.8137   46.8878 H   0  0  0  0  0  0  0  0  0  0  0  0
   56.4720   27.0250   45.7970 C   0  0  0  0  0  0  0  0  0  0  0  0
   55.1840   26.6860   45.9890 N   0  0  0  0  0  0  0  0  0  0  0  0
   55.1810   25.3490   45.8130 C   0  0  0  0  0  0  0  0  0  0  0  0
   54.1370   24.6530   45.9120 O   0  0  0  0  0  0  0  0  0  0  0  0
   56.3850   24.8170   45.5220 N   0  0  0  0  0  0  0  0  0  0  0  0
   57.2030   25.8850   45.5170 C   0  0  0  0  0  0  0  0  0  0  0  0
   58.6660   25.8010   45.1990 C   0  0  0  0  0  0  0  0  0  0  0  0
   58.8644   24.8683   44.6506 H   0  0  0  0  0  0  0  0  0  0  0  0
   58.9472   26.6690   44.5845 H   0  0  0  0  0  0  0  0  0  0  0  0
   59.6560   25.8180   46.7350 S   0  0  0  0  0  0  0  0  0  0  0  0
   59.8820   27.5990   46.7610 C   0  0  0  0  0  0  0  0  0  0  0  0
   60.3250   28.2700   45.6140 C   0  0  0  0  0  0  0  0  0  0  0  0
   60.5332   27.7050   44.6934 H   0  0  0  0  0  0  0  0  0  0  0  0
   60.5030   29.6560   45.6370 C   0  0  0  0  0  0  0  0  0  0  0  0
   60.8380   30.1828   44.7313 H   0  0  0  0  0  0  0  0  0  0  0  0
   60.2550   30.3730   46.8120 C   0  0  0  0  0  0  0  0  0  0  0  0
   60.4015   31.4630   46.8321 H   0  0  0  0  0  0  0  0  0  0  0  0
   59.8210   29.7050   47.9610 C   0  0  0  0  0  0  0  0  0  0  0  0
   59.6265   30.2699   48.8846 H   0  0  0  0  0  0  0  0  0  0  0  0
   59.6340   28.3200   47.9370 C   0  0  0  0  0  0  0  0  0  0  0  0
   59.2920   27.7957   48.8415 H   0  0  0  0  0  0  0  0  0  0  0  0
   57.6230   31.8830   45.6900 N   0  0  0  0  0  0  0  0  0  0  0  0
   58.0720   33.1660   45.7490 C   0  0  0  0  0  0  0  0  0  0  0  0
   58.1750   33.9040   47.0420 C   0  0  0  0  0  0  0  0  0  0  0  0
   58.0761   33.1954   47.8775 H   0  0  0  0  0  0  0  0  0  0  0  0
   59.1519   34.4061   47.1008 H   0  0  0  0  0  0  0  0  0  0  0  0
   57.3729   34.6544   47.1008 H   0  0  0  0  0  0  0  0  0  0  0  0
  1  2  1  0
  2  3  1  0
  3  4  1  0
  4  5  2  0
  5  6  1  0
  6  7  2  0
  6  8  1  0
  8  9  1  0
  8 10  1  0
  8 11  1  0
 11 12  1  0
 12 13  1  0
 13 14  2  0
 13 15  1  0
 15 16  1  0
 16 17  1  0
 17 18  1  0
 17 19  1  0
 17 20  1  0
 20 21  1  0
 21 22  2  0
 22 23  1  0
 22 24  1  0
 24 25  1  0
 24 26  2  0
 26 27  1  0
 26 28  1  0
 28 29  1  0
 28 30  2  0
 30 31  1  0
  4 32  1  0
 32 33  1  0
 33 34  1  0
 34 35  1  0
 34 36  1  0
 34 37  1  0
 33  2  2  0
 16 11  2  0
 30 21  1  0
M  CHG  3  12  -1  15  -1  32  -1
M  END
>  <UniqueID>  (39) 
38

>  <SMILES>  (39) 
Cc1cs/c(=N/C(=O)Cc2[n-]c(=O)[n-]c2CSc2ccccc2)[n-]1

>  <Energy>  (39) 
91.15109095172008

>  <Genealogy>  (39) 
Cc1csc(=NC(=O)Cc2[n-]c(=O)[n-]c2CSc2ccccc2)[n-]1 (protonated)
Cc1cs/c(=N/C(=O)Cc2[n-]c(=O)[n-]c2CSc2ccccc2)[n-]1 (cis-trans isomerization)
Cc1cs/c(=N/C(=O)Cc2[n-]c(=O)[n-]c2CSc2ccccc2)[n-]1 (3D coordinates assigned)
Cc1cs/c(=N/C(=O)Cc2[n-]c(=O)[n-]c2CSc2ccccc2)[n-]1 (optimized conformer: 91.15109095172008 kcal/mol)

>  <smiles>  (39) 
Cc1csc(=NC(=O)Cc2[nH]c(=O)[nH]c2CSc2ccccc2)[nH]1

>  <score_type>  (39) 
oracle

>  <origin>  (39) 
adg

>  <m_score__min__energy>  (39) 
-13.109999999999999

>  <m_primary>  (39) 
energy

$$$$
40:0
     RDKit          3D

 41 42  0  0  0  0  0  0  0  0999 V2000
   58.9360   35.0890   45.7030 O   0  0  0  0  0  0  0  0  0  0  0  0
   58.9750   34.1770   46.5710 C   0  0  0  0  0  0  0  0  0  0  0  0
   59.6230   34.4520   47.8930 C   0  0  0  0  0  0  0  0  0  0  0  0
   61.0600   34.0080   47.8660 C   0  0  0  0  0  0  0  0  0  0  0  0
   61.7640   33.8020   49.0660 C   0  0  0  0  0  0  0  0  0  0  0  0
   63.1090   33.4210   49.0360 C   0  0  0  0  0  0  0  0  0  0  0  0
   63.7620   33.2510   47.8120 C   0  0  0  0  0  0  0  0  0  0  0  0
   63.0730   33.4650   46.6160 C   0  0  0  0  0  0  0  0  0  0  0  0
   61.7280   33.8470   46.6400 C   0  0  0  0  0  0  0  0  0  0  0  0
   58.3670   32.8980   46.3230 N   0  0  0  0  0  0  0  0  0  0  0  0
   57.6990   32.5490   45.1010 C   0  0  0  0  0  0  0  0  0  0  0  0
   57.6260   33.3760   44.1500 O   0  0  0  0  0  0  0  0  0  0  0  0
   57.1120   31.2490   44.9620 N   0  0  0  0  0  0  0  0  0  0  0  0
   56.4320   30.8450   43.7320 C   0  0  0  0  0  0  0  0  0  0  0  0
   55.4990   29.6550   43.9790 C   0  0  0  0  0  0  0  0  0  0  0  0
   55.8210   28.9960   45.2050 O   0  0  0  0  0  0  0  0  0  0  0  0
   56.7810   27.9810   45.3640 C   0  0  0  0  0  0  0  0  0  0  0  0
   58.1540   28.1980   45.1270 C   0  0  0  0  0  0  0  0  0  0  0  0
   59.0740   27.1590   45.2970 C   0  0  0  0  0  0  0  0  0  0  0  0
   58.6370   25.8960   45.6990 C   0  0  0  0  0  0  0  0  0  0  0  0
   57.2790   25.6680   45.9320 C   0  0  0  0  0  0  0  0  0  0  0  0
   56.3500   26.7020   45.7660 C   0  0  0  0  0  0  0  0  0  0  0  0
   55.0020   26.4400   46.0090 O   0  0  0  0  0  0  0  0  0  0  0  0
   59.5794   35.5310   48.1022 H   0  0  0  0  0  0  0  0  0  0  0  0
   59.0891   33.8969   48.6783 H   0  0  0  0  0  0  0  0  0  0  0  0
   61.2549   33.9410   50.0311 H   0  0  0  0  0  0  0  0  0  0  0  0
   63.6539   33.2548   49.9770 H   0  0  0  0  0  0  0  0  0  0  0  0
   64.8194   32.9484   47.7906 H   0  0  0  0  0  0  0  0  0  0  0  0
   63.5892   33.3328   45.6537 H   0  0  0  0  0  0  0  0  0  0  0  0
   61.1910   34.0221   45.6961 H   0  0  0  0  0  0  0  0  0  0  0  0
   58.4090   32.1800   47.0800 H   0  0  0  0  0  0  0  0  0  0  0  0
   57.1800   30.5830   45.7660 H   0  0  0  0  0  0  0  0  0  0  0  0
   55.8406   31.6921   43.3543 H   0  0  0  0  0  0  0  0  0  0  0  0
   57.1927   30.5440   42.9966 H   0  0  0  0  0  0  0  0  0  0  0  0
   54.4610   30.0159   44.0268 H   0  0  0  0  0  0  0  0  0  0  0  0
   55.6208   28.9378   43.1539 H   0  0  0  0  0  0  0  0  0  0  0  0
   58.5033   29.1906   44.8065 H   0  0  0  0  0  0  0  0  0  0  0  0
   60.1439   27.3373   45.1136 H   0  0  0  0  0  0  0  0  0  0  0  0
   59.3624   25.0799   45.8324 H   0  0  0  0  0  0  0  0  0  0  0  0
   56.9377   24.6710   46.2475 H   0  0  0  0  0  0  0  0  0  0  0  0
   54.3710   27.1440   46.3730 H   0  0  0  0  0  0  0  0  0  0  0  0
  1  2  2  0
  2  3  1  0
  3  4  1  0
  4  5  2  0
  5  6  1  0
  6  7  2  0
  7  8  1  0
  8  9  2  0
  2 10  1  0
 10 11  1  0
 11 12  2  0
 11 13  1  0
 13 14  1  0
 14 15  1  0
 15 16  1  0
 16 17  1  0
 17 18  2  0
 18 19  1  0
 19 20  2  0
 20 21  1  0
 21 22  2  0
 22 23  1  0
  9  4  1  0
 22 17  1  0
  3 24  1  0
  3 25  1  0
  5 26  1  0
  6 27  1  0
  7 28  1  0
  8 29  1  0
  9 30  1  0
 10 31  1  0
 13 32  1  0
 14 33  1  0
 14 34  1  0
 15 35  1  0
 15 36  1  0
 18 37  1  0
 19 38  1  0
 20 39  1  0
 21 40  1  0
 23 41  1  0
M  END
>  <UniqueID>  (40) 
39

>  <SMILES>  (40) 
O=C(Cc1ccccc1)NC(=O)NCCOc1ccccc1O

>  <Energy>  (40) 
35.235435223165325

>  <Genealogy>  (40) 
O=C(Cc1ccccc1)NC(=O)NCCOc1ccccc1O (3D coordinates assigned)
O=C(Cc1ccccc1)NC(=O)NCCOc1ccccc1O (optimized conformer: 35.235435223165325 kcal/mol)

>  <smiles>  (40) 
O=C(Cc1ccccc1)NC(=O)NCCOc1ccccc1O

>  <score_type>  (40) 
oracle

>  <origin>  (40) 
adg

>  <m_score__min__energy>  (40) 
-9.3100000000000005

>  <m_primary>  (40) 
energy

$$$$
41:0
     RDKit          3D

 38 40  0  0  0  0  0  0  0  0999 V2000
   56.5730   19.9680   45.4520 C   0  0  0  0  0  0  0  0  0  0  0  0
   56.4460   21.1240   44.5070 C   0  0  0  0  0  0  0  0  0  0  0  0
   55.9070   20.9240   43.3830 O   0  0  0  0  0  0  0  0  0  0  0  0
   56.9190   22.4440   44.8590 N   0  0  0  0  0  0  0  0  0  0  0  0
   58.2830   22.8480   44.4810 C   0  0  0  0  0  0  0  0  0  0  0  0
   58.8870   23.7610   45.5430 C   0  0  0  0  0  0  0  0  0  0  0  0
   57.9860   24.9280   45.7860 C   0  0  0  0  0  0  0  0  0  0  0  0
   58.5210   26.1320   46.1200 N   0  0  0  0  0  0  0  0  0  0  0  0
   57.7330   27.2070   46.3880 C   0  0  0  0  0  0  0  0  0  0  0  0
   58.3500   28.5140   46.7180 C   0  0  0  0  0  0  0  0  0  0  0  0
   59.2940   28.5620   47.7630 C   0  0  0  0  0  0  0  0  0  0  0  0
   59.9810   29.7420   48.0490 C   0  0  0  0  0  0  0  0  0  0  0  0
   59.7410   30.8900   47.2990 C   0  0  0  0  0  0  0  0  0  0  0  0
   58.7960   30.8720   46.2730 C   0  0  0  0  0  0  0  0  0  0  0  0
   58.0750   29.6990   45.9830 C   0  0  0  0  0  0  0  0  0  0  0  0
   57.0160   29.7730   44.9520 C   0  0  0  0  0  0  0  0  0  0  0  0
   56.6670   28.6260   44.1740 N   0  0  0  0  0  0  0  0  0  0  0  0
   56.3760   30.8470   44.7890 O   0  0  0  0  0  0  0  0  0  0  0  0
   56.3820   27.0810   46.3130 N   0  0  0  0  0  0  0  0  0  0  0  0
   55.7970   25.8980   45.9960 C   0  0  0  0  0  0  0  0  0  0  0  0
   54.5400   25.8200   45.9580 O   0  0  0  0  0  0  0  0  0  0  0  0
   56.5930   24.7750   45.7170 C   0  0  0  0  0  0  0  0  0  0  0  0
   55.9660   23.4330   45.4020 C   0  0  0  0  0  0  0  0  0  0  0  0
   56.5327   20.3353   46.4881 H   0  0  0  0  0  0  0  0  0  0  0  0
   55.7470   19.2620   45.2808 H   0  0  0  0  0  0  0  0  0  0  0  0
   57.5326   19.4582   45.2808 H   0  0  0  0  0  0  0  0  0  0  0  0
   58.9101   21.9502   44.3772 H   0  0  0  0  0  0  0  0  0  0  0  0
   58.2392   23.3944   43.5273 H   0  0  0  0  0  0  0  0  0  0  0  0
   59.0133   23.1972   46.4790 H   0  0  0  0  0  0  0  0  0  0  0  0
   59.8638   24.1258   45.1925 H   0  0  0  0  0  0  0  0  0  0  0  0
   59.4914   27.6593   48.3597 H   0  0  0  0  0  0  0  0  0  0  0  0
   60.7139   29.7654   48.8689 H   0  0  0  0  0  0  0  0  0  0  0  0
   60.2979   31.8135   47.5159 H   0  0  0  0  0  0  0  0  0  0  0  0
   58.6128   31.7835   45.6851 H   0  0  0  0  0  0  0  0  0  0  0  0
   55.9350   28.6970   43.4330 H   0  0  0  0  0  0  0  0  0  0  0  0
   57.1000   27.6950   44.3630 H   0  0  0  0  0  0  0  0  0  0  0  0
   55.5335   23.0261   46.3279 H   0  0  0  0  0  0  0  0  0  0  0  0
   55.2072   23.6077   44.6250 H   0  0  0  0  0  0  0  0  0  0  0  0
  1  2  1  0
  2  3  2  0
  2  4  1  0
  4  5  1  0
  5  6  1  0
  6  7  1  0
  7  8  1  0
  8  9  1  0
  9 10  1  0
 10 11  2  0
 11 12  1  0
 12 13  2  0
 13 14  1  0
 14 15  2  0
 15 16  1  0
 16 17  1  0
 16 18  2  0
  9 19  2  0
 19 20  1  0
 20 21  2  0
 20 22  1  0
 22 23  1  0
 23  4  1  0
 22  7  2  0
 15 10  1  0
  1 24  1  0
  1 25  1  0
  1 26  1  0
  5 27  1  0
  5 28  1  0
  6 29  1  0
  6 30  1  0
 11 31  1  0
 12 32  1  0
 13 33  1  0
 14 34  1  0
 17 35  1  0
 17 36  1  0
 23 37  1  0
 23 38  1  0
M  CHG  1   8  -1
M  END
>  <UniqueID>  (41) 
40

>  <SMILES>  (41) 
CC(=O)N1CCc2[n-]c(-c3ccccc3C(N)=O)nc(=O)c2C1

>  <Energy>  (41) 
51.0640057271593

>  <Genealogy>  (41) 
CC(=O)N1CCc2[n-]c(-c3ccccc3C(N)=O)nc(=O)c2C1 (protonated)
CC(=O)N1CCc2[n-]c(-c3ccccc3C(N)=O)nc(=O)c2C1 (3D coordinates assigned)
CC(=O)N1CCc2[n-]c(-c3ccccc3C(N)=O)nc(=O)c2C1 (nonaromatic ring conformer: 51.0640057271593 kcal/mol)

>  <smiles>  (41) 
CC(=O)N1CCc2[nH]c(-c3ccccc3C(N)=O)nc(=O)c2C1

>  <score_type>  (41) 
oracle

>  <origin>  (41) 
adg

>  <m_score__min__energy>  (41) 
-10.02

>  <m_primary>  (41) 
energy

$$$$
42:0
     RDKit          3D

 47 50  0  0  0  0  0  0  0  0999 V2000
   55.3790   26.1130   46.0260 O   0  0  0  0  0  0  0  0  0  0  0  0
   56.2270   27.0440   45.9900 C   0  0  0  0  0  0  0  0  0  0  0  0
   57.5350   26.8890   46.7210 C   0  0  0  0  0  0  0  0  0  0  0  0
   58.4750   27.9860   46.4360 N   0  0  0  0  0  0  0  0  0  0  0  0
   59.7440   27.9900   47.1080 C   0  0  0  0  0  0  0  0  0  0  0  0
   60.6950   27.3130   46.6300 O   0  0  0  0  0  0  0  0  0  0  0  0
   59.9540   28.7970   48.3310 C   0  0  0  0  0  0  0  0  0  0  0  0
   60.7650   28.3090   49.3710 C   0  0  0  0  0  0  0  0  0  0  0  0
   61.0040   29.0870   50.5070 C   0  0  0  0  0  0  0  0  0  0  0  0
   60.4390   30.3580   50.6180 C   0  0  0  0  0  0  0  0  0  0  0  0
   59.6190   30.8560   49.5960 C   0  0  0  0  0  0  0  0  0  0  0  0
   58.9300   32.4720   49.7180 S   0  0  0  0  0  0  0  0  0  0  0  0
   58.2980   32.6000   51.0760 O   0  0  0  0  0  0  0  0  0  0  0  0
   57.8680   32.6710   48.6720 O   0  0  0  0  0  0  0  0  0  0  0  0
   60.1360   33.7100   49.5500 N   0  0  0  0  0  0  0  0  0  0  0  0
   61.2540   33.7050   48.6540 C   0  0  0  0  0  0  0  0  0  0  0  0
   62.8350   33.8810   49.1860 S   0  0  0  0  0  0  0  0  0  0  0  0
   63.5600   33.7430   47.6770 C   0  0  0  0  0  0  0  0  0  0  0  0
   62.5630   33.5640   46.7290 C   0  0  0  0  0  0  0  0  0  0  0  0
   61.2600   33.5550   47.2600 C   0  0  0  0  0  0  0  0  0  0  0  0
   60.0750   33.5280   46.3830 C   0  0  0  0  0  0  0  0  0  0  0  0
   59.6230   34.7120   45.7770 C   0  0  0  0  0  0  0  0  0  0  0  0
   58.4780   34.7000   44.9740 C   0  0  0  0  0  0  0  0  0  0  0  0
   57.7660   33.5120   44.7880 C   0  0  0  0  0  0  0  0  0  0  0  0
   58.1930   32.3370   45.4130 C   0  0  0  0  0  0  0  0  0  0  0  0
   59.3380   32.3450   46.2160 C   0  0  0  0  0  0  0  0  0  0  0  0
   59.3890   30.0800   48.4520 C   0  0  0  0  0  0  0  0  0  0  0  0
   58.2890   28.8640   45.2750 C   0  0  0  0  0  0  0  0  0  0  0  0
   56.8490   29.3610   45.2440 C   0  0  0  0  0  0  0  0  0  0  0  0
   55.9410   28.2250   45.2360 N   0  0  0  0  0  0  0  0  0  0  0  0
   57.3343   26.8687   47.8023 H   0  0  0  0  0  0  0  0  0  0  0  0
   58.0003   25.9532   46.3778 H   0  0  0  0  0  0  0  0  0  0  0  0
   61.2143   27.3082   49.2898 H   0  0  0  0  0  0  0  0  0  0  0  0
   61.6391   28.6964   51.3157 H   0  0  0  0  0  0  0  0  0  0  0  0
   60.6376   30.9707   51.5097 H   0  0  0  0  0  0  0  0  0  0  0  0
   64.6404   33.7870   47.4750 H   0  0  0  0  0  0  0  0  0  0  0  0
   62.7727   33.4400   45.6563 H   0  0  0  0  0  0  0  0  0  0  0  0
   60.1718   35.6522   45.9347 H   0  0  0  0  0  0  0  0  0  0  0  0
   58.1376   35.6265   44.4884 H   0  0  0  0  0  0  0  0  0  0  0  0
   56.8700   33.5016   44.1500 H   0  0  0  0  0  0  0  0  0  0  0  0
   57.6273   31.4041   45.2730 H   0  0  0  0  0  0  0  0  0  0  0  0
   59.6620   31.4215   46.7182 H   0  0  0  0  0  0  0  0  0  0  0  0
   58.7610   30.4775   47.6411 H   0  0  0  0  0  0  0  0  0  0  0  0
   58.9724   29.7227   45.3506 H   0  0  0  0  0  0  0  0  0  0  0  0
   58.5056   28.3053   44.3525 H   0  0  0  0  0  0  0  0  0  0  0  0
   56.6555   29.9781   46.1338 H   0  0  0  0  0  0  0  0  0  0  0  0
   56.6896   29.9625   44.3370 H   0  0  0  0  0  0  0  0  0  0  0  0
  1  2  2  0
  2  3  1  0
  3  4  1  0
  4  5  1  0
  5  6  2  0
  5  7  1  0
  7  8  2  0
  8  9  1  0
  9 10  2  0
 10 11  1  0
 11 12  1  0
 12 13  2  0
 12 14  2  0
 12 15  1  0
 15 16  1  0
 16 17  1  0
 17 18  1  0
 18 19  2  0
 19 20  1  0
 20 21  1  0
 21 22  2  0
 22 23  1  0
 23 24  2  0
 24 25  1  0
 25 26  2  0
 11 27  2  0
  4 28  1  0
 28 29  1  0
 29 30  1  0
 30  2  1  0
 27  7  1  0
 20 16  2  0
 26 21  1  0
  3 31  1  0
  3 32  1  0
  8 33  1  0
  9 34  1  0
 10 35  1  0
 18 36  1  0
 19 37  1  0
 22 38  1  0
 23 39  1  0
 24 40  1  0
 25 41  1  0
 26 42  1  0
 27 43  1  0
 28 44  1  0
 28 45  1  0
 29 46  1  0
 29 47  1  0
M  CHG  2  15  -1  30  -1
M  END
>  <UniqueID>  (42) 
41

>  <SMILES>  (42) 
O=C1CN(C(=O)c2cccc(S(=O)(=O)[N-]c3sccc3-c3ccccc3)c2)CC[N-]1

>  <Energy>  (42) 
88.6124404419464

>  <Genealogy>  (42) 
O=C1CN(C(=O)c2cccc(S(=O)(=O)[N-]c3sccc3-c3ccccc3)c2)CC[N-]1 (protonated)
O=C1CN(C(=O)c2cccc(S(=O)(=O)[N-]c3sccc3-c3ccccc3)c2)CC[N-]1 (3D coordinates assigned)
O=C1CN(C(=O)c2cccc(S(=O)(=O)[N-]c3sccc3-c3ccccc3)c2)CC[N-]1 (nonaromatic ring conformer: 88.6124404419464 kcal/mol)

>  <smiles>  (42) 
O=C1CN(C(=O)c2cccc(S(=O)(=O)Nc3sccc3-c3ccccc3)c2)CCN1

>  <score_type>  (42) 
oracle

>  <origin>  (42) 
adg

>  <m_score__min__energy>  (42) 
-12.99

>  <m_primary>  (42) 
energy

$$$$
43:0
     RDKit          3D

 61 64  0  0  0  0  0  0  0  0999 V2000
   56.6090   29.4780   42.9700 O   0  0  0  0  0  0  0  0  0  0  0  0
   56.1080   29.7960   44.0790 C   0  0  0  0  0  0  0  0  0  0  0  0
   56.0780   31.2440   44.4790 C   0  0  0  0  0  0  0  0  0  0  0  0
   57.2780   31.5690   45.2400 N   0  0  0  0  0  0  0  0  0  0  0  0
   57.7110   32.8950   45.5630 C   0  0  0  0  0  0  0  0  0  0  0  0
   57.0270   33.8720   45.1580 O   0  0  0  0  0  0  0  0  0  0  0  0
   58.9140   33.1540   46.3770 C   0  0  0  0  0  0  0  0  0  0  0  0
   59.9960   32.2600   46.3680 C   0  0  0  0  0  0  0  0  0  0  0  0
   61.1310   32.5180   47.1430 C   0  0  0  0  0  0  0  0  0  0  0  0
   61.2130   33.6790   47.9210 C   0  0  0  0  0  0  0  0  0  0  0  0
   62.3710   33.8820   48.6910 O   0  0  0  0  0  0  0  0  0  0  0  0
   63.6890   33.4740   48.3230 C   0  0  0  0  0  0  0  0  0  0  0  0
   64.3020   32.5990   49.3860 C   0  0  0  0  0  0  0  0  0  0  0  0
   63.5430   31.5860   49.9960 C   0  0  0  0  0  0  0  0  0  0  0  0
   64.1190   30.7610   50.9680 C   0  0  0  0  0  0  0  0  0  0  0  0
   65.4590   30.9340   51.3300 C   0  0  0  0  0  0  0  0  0  0  0  0
   66.2230   31.9310   50.7180 C   0  0  0  0  0  0  0  0  0  0  0  0
   65.6520   32.7570   49.7460 C   0  0  0  0  0  0  0  0  0  0  0  0
   60.1440   34.5950   47.8990 C   0  0  0  0  0  0  0  0  0  0  0  0
   59.0060   34.3340   47.1300 C   0  0  0  0  0  0  0  0  0  0  0  0
   55.5980   28.7610   44.9310 N   0  0  0  0  0  0  0  0  0  0  0  0
   56.4000   27.7780   45.5960 C   0  0  0  0  0  0  0  0  0  0  0  0
   57.7840   27.9730   45.6790 C   0  0  0  0  0  0  0  0  0  0  0  0
   58.5970   27.0350   46.3290 C   0  0  0  0  0  0  0  0  0  0  0  0
   60.3410   27.2950   46.4270 S   0  0  0  0  0  0  0  0  0  0  0  0
   61.0390   25.9630   46.3860 O   0  0  0  0  0  0  0  0  0  0  0  0
   60.7920   28.0910   45.2310 O   0  0  0  0  0  0  0  0  0  0  0  0
   60.7920   28.1310   47.8920 N   0  0  0  0  0  0  0  0  0  0  0  0
   60.5710   27.2730   49.0650 C   0  0  0  0  0  0  0  0  0  0  0  0
   60.9950   28.0190   50.3490 C   0  0  0  0  0  0  0  0  0  0  0  0
   61.3240   29.3760   50.0970 O   0  0  0  0  0  0  0  0  0  0  0  0
   60.2580   30.0110   49.4190 C   0  0  0  0  0  0  0  0  0  0  0  0
   60.0290   29.3830   48.0280 C   0  0  0  0  0  0  0  0  0  0  0  0
   58.0190   25.8890   46.8900 C   0  0  0  0  0  0  0  0  0  0  0  0
   56.6420   25.6730   46.7820 C   0  0  0  0  0  0  0  0  0  0  0  0
   55.8320   26.6030   46.1220 C   0  0  0  0  0  0  0  0  0  0  0  0
   54.4760   26.3410   45.9680 O   0  0  0  0  0  0  0  0  0  0  0  0
   56.0362   31.8717   43.5767 H   0  0  0  0  0  0  0  0  0  0  0  0
   55.1905   31.4315   45.1012 H   0  0  0  0  0  0  0  0  0  0  0  0
   59.9509   31.3522   45.7484 H   0  0  0  0  0  0  0  0  0  0  0  0
   61.9666   31.8026   47.1413 H   0  0  0  0  0  0  0  0  0  0  0  0
   63.6407   32.9119   47.3787 H   0  0  0  0  0  0  0  0  0  0  0  0
   64.3133   34.3721   48.2065 H   0  0  0  0  0  0  0  0  0  0  0  0
   62.4913   31.4410   49.7080 H   0  0  0  0  0  0  0  0  0  0  0  0
   63.5173   29.9752   51.4482 H   0  0  0  0  0  0  0  0  0  0  0  0
   65.9107   30.2860   52.0955 H   0  0  0  0  0  0  0  0  0  0  0  0
   67.2770   32.0662   51.0021 H   0  0  0  0  0  0  0  0  0  0  0  0
   66.2611   33.5338   49.2607 H   0  0  0  0  0  0  0  0  0  0  0  0
   60.2045   35.5208   48.4899 H   0  0  0  0  0  0  0  0  0  0  0  0
   58.1780   35.0580   47.1153 H   0  0  0  0  0  0  0  0  0  0  0  0
   58.2366   28.8696   45.2304 H   0  0  0  0  0  0  0  0  0  0  0  0
   59.5044   27.0119   49.1302 H   0  0  0  0  0  0  0  0  0  0  0  0
   61.1723   26.3576   48.9626 H   0  0  0  0  0  0  0  0  0  0  0  0
   60.1647   27.9838   51.0696 H   0  0  0  0  0  0  0  0  0  0  0  0
   61.8922   27.5225   50.7472 H   0  0  0  0  0  0  0  0  0  0  0  0
   59.3399   29.9060   50.0157 H   0  0  0  0  0  0  0  0  0  0  0  0
   60.5136   31.0724   49.2844 H   0  0  0  0  0  0  0  0  0  0  0  0
   58.9576   29.1690   47.9000 H   0  0  0  0  0  0  0  0  0  0  0  0
   60.3704   30.0914   47.2588 H   0  0  0  0  0  0  0  0  0  0  0  0
   58.6498   25.1576   47.4165 H   0  0  0  0  0  0  0  0  0  0  0  0
   56.1937   24.7680   47.2178 H   0  0  0  0  0  0  0  0  0  0  0  0
  1  2  2  0
  2  3  1  0
  3  4  1  0
  4  5  1  0
  5  6  2  0
  5  7  1  0
  7  8  2  0
  8  9  1  0
  9 10  2  0
 10 11  1  0
 11 12  1  0
 12 13  1  0
 13 14  2  0
 14 15  1  0
 15 16  2  0
 16 17  1  0
 17 18  2  0
 10 19  1  0
 19 20  2  0
  2 21  1  0
 21 22  1  0
 22 23  2  0
 23 24  1  0
 24 25  1  0
 25 26  2  0
 25 27  2  0
 25 28  1  0
 28 29  1  0
 29 30  1  0
 30 31  1  0
 31 32  1  0
 32 33  1  0
 24 34  2  0
 34 35  1  0
 35 36  2  0
 36 37  1  0
 20  7  1  0
 36 22  1  0
 18 13  1  0
 33 28  1  0
  3 38  1  0
  3 39  1  0
  8 40  1  0
  9 41  1  0
 12 42  1  0
 12 43  1  0
 14 44  1  0
 15 45  1  0
 16 46  1  0
 17 47  1  0
 18 48  1  0
 19 49  1  0
 20 50  1  0
 23 51  1  0
 29 52  1  0
 29 53  1  0
 30 54  1  0
 30 55  1  0
 32 56  1  0
 32 57  1  0
 33 58  1  0
 33 59  1  0
 34 60  1  0
 35 61  1  0
M  CHG  3   4  -1  21  -1  37  -1
M  END
>  <UniqueID>  (43) 
42

>  <SMILES>  (43) 
O=C(C[N-]C(=O)c1ccc(OCc2ccccc2)cc1)[N-]c1cc(S(=O)(=O)N2CCOCC2)ccc1[O-]

>  <Energy>  (43) 
80.69178351886454

>  <Genealogy>  (43) 
O=C(C[N-]C(=O)c1ccc(OCc2ccccc2)cc1)[N-]c1cc(S(=O)(=O)N2CCOCC2)ccc1[O-] (protonated)
O=C(C[N-]C(=O)c1ccc(OCc2ccccc2)cc1)[N-]c1cc(S(=O)(=O)N2CCOCC2)ccc1[O-] (3D coordinates assigned)
O=C(C[N-]C(=O)c1ccc(OCc2ccccc2)cc1)[N-]c1cc(S(=O)(=O)N2CCOCC2)ccc1[O-] (nonaromatic ring conformer: 80.69178351886454 kcal/mol)

>  <smiles>  (43) 
O=C(CNC(=O)c1ccc(OCc2ccccc2)cc1)Nc1cc(S(=O)(=O)N2CCOCC2)ccc1O

>  <score_type>  (43) 
oracle

>  <origin>  (43) 
adg

>  <m_score__min__energy>  (43) 
-17.890000000000001

>  <m_primary>  (43) 
energy

$$$$
44:0
     RDKit          3D

 52 55  0  0  0  0  0  0  0  0999 V2000
   64.5790   32.8340   49.3510 C   0  0  0  0  0  0  0  0  0  0  0  0
   63.6210   33.3620   48.5880 C   0  0  0  0  0  0  0  0  0  0  0  0
   62.4490   32.6130   48.0700 C   0  0  0  0  0  0  0  0  0  0  0  0
   61.1230   32.9610   48.4060 C   0  0  0  0  0  0  0  0  0  0  0  0
   60.0510   32.2180   47.9010 C   0  0  0  0  0  0  0  0  0  0  0  0
   60.2790   31.1250   47.0580 C   0  0  0  0  0  0  0  0  0  0  0  0
   59.1400   30.3960   46.4770 C   0  0  0  0  0  0  0  0  0  0  0  0
   58.0340   30.4580   47.0870 O   0  0  0  0  0  0  0  0  0  0  0  0
   59.2940   29.6010   45.2650 N   0  0  1  0  0  0  0  0  0  0  0  0
   59.5100   28.2400   45.6500 C   0  0  0  0  0  0  0  0  0  0  0  0
   60.7450   27.6620   45.9660 C   0  0  0  0  0  0  0  0  0  0  0  0
   60.7860   26.3010   46.3000 C   0  0  0  0  0  0  0  0  0  0  0  0
   59.6100   25.5260   46.2790 C   0  0  0  0  0  0  0  0  0  0  0  0
   58.3910   26.1080   45.8990 C   0  0  0  0  0  0  0  0  0  0  0  0
   58.3740   27.4670   45.5870 C   0  0  0  0  0  0  0  0  0  0  0  0
   57.2580   28.2610   45.0340 C   0  0  0  0  0  0  0  0  0  0  0  0
   58.0410   29.4660   44.4650 C   0  0  1  0  0  0  0  0  0  0  0  0
   57.2260   30.7330   44.3080 C   0  0  0  0  0  0  0  0  0  0  0  0
   55.9800   30.7320   44.4960 O   0  0  0  0  0  0  0  0  0  0  0  0
   57.8640   31.9300   43.8310 N   0  0  0  0  0  0  0  0  0  0  0  0
   57.7970   32.2190   42.3960 C   0  0  0  0  0  0  0  0  0  0  0  0
   58.1850   32.9850   44.7690 C   0  0  0  0  0  0  0  0  0  0  0  0
   59.2550   33.8710   44.5120 C   0  0  0  0  0  0  0  0  0  0  0  0
   59.6080   34.8510   45.4420 C   0  0  0  0  0  0  0  0  0  0  0  0
   58.8980   34.9720   46.6330 C   0  0  0  0  0  0  0  0  0  0  0  0
   57.8150   34.1280   46.8900 C   0  0  0  0  0  0  0  0  0  0  0  0
   57.4500   33.1500   45.9600 C   0  0  0  0  0  0  0  0  0  0  0  0
   61.5910   30.7600   46.7350 C   0  0  0  0  0  0  0  0  0  0  0  0
   62.6690   31.5140   47.2230 C   0  0  0  0  0  0  0  0  0  0  0  0
   65.4162   33.4596   49.6941 H   0  0  0  0  0  0  0  0  0  0  0  0
   64.5319   31.7729   49.6372 H   0  0  0  0  0  0  0  0  0  0  0  0
   63.7053   34.4266   48.3243 H   0  0  0  0  0  0  0  0  0  0  0  0
   60.9321   33.8192   49.0671 H   0  0  0  0  0  0  0  0  0  0  0  0
   59.0207   32.4952   48.1687 H   0  0  0  0  0  0  0  0  0  0  0  0
   60.0770   29.9630   44.6580 H   0  0  0  0  0  0  0  0  0  0  0  0
   61.6656   28.2640   45.9525 H   0  0  0  0  0  0  0  0  0  0  0  0
   61.7425   25.8355   46.5802 H   0  0  0  0  0  0  0  0  0  0  0  0
   59.6472   24.4634   46.5608 H   0  0  0  0  0  0  0  0  0  0  0  0
   57.4712   25.5068   45.8485 H   0  0  0  0  0  0  0  0  0  0  0  0
   56.7200   27.7147   44.2453 H   0  0  0  0  0  0  0  0  0  0  0  0
   56.4710   28.5201   45.7576 H   0  0  0  0  0  0  0  0  0  0  0  0
   58.3100   29.2730   43.4160 H   0  0  0  0  0  0  0  0  0  0  0  0
   57.5509   33.2807   42.2469 H   0  0  0  0  0  0  0  0  0  0  0  0
   58.7699   31.9995   41.9319 H   0  0  0  0  0  0  0  0  0  0  0  0
   57.0200   31.5938   41.9319 H   0  0  0  0  0  0  0  0  0  0  0  0
   59.8159   33.7880   43.5694 H   0  0  0  0  0  0  0  0  0  0  0  0
   60.4488   35.5287   45.2329 H   0  0  0  0  0  0  0  0  0  0  0  0
   59.1898   35.7326   47.3722 H   0  0  0  0  0  0  0  0  0  0  0  0
   57.2478   34.2331   47.8266 H   0  0  0  0  0  0  0  0  0  0  0  0
   56.5822   32.5042   46.1595 H   0  0  0  0  0  0  0  0  0  0  0  0
   61.7770   29.8822   46.0987 H   0  0  0  0  0  0  0  0  0  0  0  0
   63.6965   31.2419   46.9396 H   0  0  0  0  0  0  0  0  0  0  0  0
  1  2  2  0
  2  3  1  0
  3  4  2  0
  4  5  1  0
  5  6  2  0
  6  7  1  0
  7  8  2  0
  7  9  1  0
  9 10  1  0
 10 11  2  0
 11 12  1  0
 12 13  2  0
 13 14  1  0
 14 15  2  0
 15 16  1  0
 16 17  1  0
 17 18  1  0
 18 19  2  0
 18 20  1  0
 20 21  1  0
 20 22  1  0
 22 23  2  0
 23 24  1  0
 24 25  2  0
 25 26  1  0
 26 27  2  0
  6 28  1  0
 28 29  2  0
 29  3  1  0
 17  9  1  0
 27 22  1  0
 15 10  1  0
  1 30  1  0
  1 31  1  0
  2 32  1  0
  4 33  1  0
  5 34  1  0
  9 35  1  6
 11 36  1  0
 12 37  1  0
 13 38  1  0
 14 39  1  0
 16 40  1  0
 16 41  1  0
 17 42  1  6
 21 43  1  0
 21 44  1  0
 21 45  1  0
 23 46  1  0
 24 47  1  0
 25 48  1  0
 26 49  1  0
 27 50  1  0
 28 51  1  0
 29 52  1  0
M  CHG  1   9   1
M  END
>  <UniqueID>  (44) 
43

>  <SMILES>  (44) 
C=Cc1ccc(C(=O)[N@H+]2c3ccccc3C[C@H]2C(=O)N(C)c2ccccc2)cc1

>  <Energy>  (44) 
96.74208870918432

>  <Genealogy>  (44) 
C=Cc1ccc(C(=O)[NH+]2c3ccccc3CC2C(=O)N(C)c2ccccc2)cc1 (protonated)
C=Cc1ccc(C(=O)[N@H+]2c3ccccc3C[C@H]2C(=O)N(C)c2ccccc2)cc1 (chirality)
C=Cc1ccc(C(=O)[N@H+]2c3ccccc3C[C@H]2C(=O)N(C)c2ccccc2)cc1 (3D coordinates assigned)
C=Cc1ccc(C(=O)[N@H+]2c3ccccc3C[C@H]2C(=O)N(C)c2ccccc2)cc1 (nonaromatic ring conformer: 96.74208870918432 kcal/mol)

>  <smiles>  (44) 
C=Cc1ccc(C(=O)N2c3ccccc3CC2C(=O)N(C)c2ccccc2)cc1

>  <score_type>  (44) 
oracle

>  <origin>  (44) 
adg

>  <m_score__min__energy>  (44) 
-7.7599999999999998

>  <m_primary>  (44) 
energy

$$$$
45:0
     RDKit          3D

 54 57  0  0  0  0  0  0  0  0999 V2000
   60.5060   28.0040   51.4550 C   0  0  0  0  0  0  0  0  0  0  0  0
   60.7520   29.0160   50.3760 C   0  0  0  0  0  0  0  0  0  0  0  0
   61.5190   30.1600   50.6410 C   0  0  0  0  0  0  0  0  0  0  0  0
   61.7850   31.0840   49.6260 C   0  0  0  0  0  0  0  0  0  0  0  0
   61.2880   30.8790   48.3280 C   0  0  0  0  0  0  0  0  0  0  0  0
   61.6200   31.8730   47.2370 C   0  0  0  0  0  0  0  0  0  0  0  0
   60.5240   32.8330   47.0170 N   0  0  0  0  0  0  0  0  0  0  0  0
   60.5280   34.0830   47.7440 C   0  0  0  0  0  0  0  0  0  0  0  0
   61.3730   34.2880   48.6570 O   0  0  0  0  0  0  0  0  0  0  0  0
   59.5200   35.1470   47.4320 C   0  0  0  0  0  0  0  0  0  0  0  0
   59.4210   35.3270   45.6280 S   0  0  0  0  0  0  0  0  0  0  0  0
   58.8340   33.6460   45.4020 C   0  0  0  0  0  0  0  0  0  0  0  0
   57.7270   33.4160   44.5820 C   0  0  0  0  0  0  0  0  0  0  0  0
   57.2770   32.1160   44.3560 C   0  0  0  0  0  0  0  0  0  0  0  0
   57.9260   31.0220   44.9520 C   0  0  0  0  0  0  0  0  0  0  0  0
   57.4310   29.6470   44.7080 C   0  0  0  0  0  0  0  0  0  0  0  0
   56.3290   29.2900   45.2090 O   0  0  0  0  0  0  0  0  0  0  0  0
   58.1740   28.7230   43.8960 N   0  0  0  0  0  0  0  0  0  0  0  0
   57.7640   27.3300   43.7200 C   0  0  0  0  0  0  0  0  0  0  0  0
   57.7620   26.6040   45.0490 C   0  0  0  0  0  0  0  0  0  0  0  0
   56.6440   25.8100   45.3690 C   0  0  0  0  0  0  0  0  0  0  0  0
   56.5820   25.1200   46.5800 C   0  0  0  0  0  0  0  0  0  0  0  0
   57.6370   25.2050   47.4880 C   0  0  0  0  0  0  0  0  0  0  0  0
   58.7600   25.9780   47.1860 C   0  0  0  0  0  0  0  0  0  0  0  0
   58.8420   26.6810   45.9690 C   0  0  0  0  0  0  0  0  0  0  0  0
   60.0810   27.4900   45.6800 C   0  0  0  0  0  0  0  0  0  0  0  0
   59.0150   31.2610   45.8090 C   0  0  0  0  0  0  0  0  0  0  0  0
   59.4800   32.5710   46.0450 C   0  0  0  0  0  0  0  0  0  0  0  0
   60.5480   29.7120   48.0560 C   0  0  0  0  0  0  0  0  0  0  0  0
   60.2850   28.7890   49.0720 C   0  0  0  0  0  0  0  0  0  0  0  0
   60.6221   28.4816   52.4391 H   0  0  0  0  0  0  0  0  0  0  0  0
   59.4850   27.6062   51.3587 H   0  0  0  0  0  0  0  0  0  0  0  0
   61.2305   27.1819   51.3587 H   0  0  0  0  0  0  0  0  0  0  0  0
   61.9136   30.3312   51.6534 H   0  0  0  0  0  0  0  0  0  0  0  0
   62.3876   31.9777   49.8452 H   0  0  0  0  0  0  0  0  0  0  0  0
   62.5259   32.4270   47.5242 H   0  0  0  0  0  0  0  0  0  0  0  0
   61.7768   31.3142   46.3026 H   0  0  0  0  0  0  0  0  0  0  0  0
   58.5370   34.8567   47.8313 H   0  0  0  0  0  0  0  0  0  0  0  0
   59.8201   36.1000   47.8921 H   0  0  0  0  0  0  0  0  0  0  0  0
   57.2078   34.2645   44.1124 H   0  0  0  0  0  0  0  0  0  0  0  0
   56.4065   31.9455   43.7055 H   0  0  0  0  0  0  0  0  0  0  0  0
   59.0130   29.0520   43.3650 H   0  0  0  0  0  0  0  0  0  0  0  0
   56.7514   27.3024   43.2913 H   0  0  0  0  0  0  0  0  0  0  0  0
   58.4762   26.8329   43.0449 H   0  0  0  0  0  0  0  0  0  0  0  0
   55.8099   25.7329   44.6560 H   0  0  0  0  0  0  0  0  0  0  0  0
   55.6997   24.5081   46.8189 H   0  0  0  0  0  0  0  0  0  0  0  0
   57.5845   24.6624   48.4434 H   0  0  0  0  0  0  0  0  0  0  0  0
   59.5891   26.0383   47.9064 H   0  0  0  0  0  0  0  0  0  0  0  0
   60.5488   27.7954   46.6276 H   0  0  0  0  0  0  0  0  0  0  0  0
   60.7901   26.8804   45.1008 H   0  0  0  0  0  0  0  0  0  0  0  0
   59.8081   28.3844   45.1008 H   0  0  0  0  0  0  0  0  0  0  0  0
   59.5117   30.4129   46.3029 H   0  0  0  0  0  0  0  0  0  0  0  0
   60.1749   29.5259   47.0381 H   0  0  0  0  0  0  0  0  0  0  0  0
   59.7086   27.8792   48.8483 H   0  0  0  0  0  0  0  0  0  0  0  0
  1  2  1  0
  2  3  2  0
  3  4  1  0
  4  5  2  0
  5  6  1  0
  6  7  1  0
  7  8  1  0
  8  9  2  0
  8 10  1  0
 10 11  1  0
 11 12  1  0
 12 13  2  0
 13 14  1  0
 14 15  2  0
 15 16  1  0
 16 17  2  0
 16 18  1  0
 18 19  1  0
 19 20  1  0
 20 21  2  0
 21 22  1  0
 22 23  2  0
 23 24  1  0
 24 25  2  0
 25 26  1  0
 15 27  1  0
 27 28  2  0
  5 29  1  0
 29 30  2  0
 30  2  1  0
 28  7  1  0
 28 12  1  0
 25 20  1  0
  1 31  1  0
  1 32  1  0
  1 33  1  0
  3 34  1  0
  4 35  1  0
  6 36  1  0
  6 37  1  0
 10 38  1  0
 10 39  1  0
 13 40  1  0
 14 41  1  0
 18 42  1  0
 19 43  1  0
 19 44  1  0
 21 45  1  0
 22 46  1  0
 23 47  1  0
 24 48  1  0
 26 49  1  0
 26 50  1  0
 26 51  1  0
 27 52  1  0
 29 53  1  0
 30 54  1  0
M  END
>  <UniqueID>  (45) 
44

>  <SMILES>  (45) 
Cc1ccc(CN2C(=O)CSc3ccc(C(=O)NCc4ccccc4C)cc32)cc1

>  <Energy>  (45) 
65.89875306790238

>  <Genealogy>  (45) 
Cc1ccc(CN2C(=O)CSc3ccc(C(=O)NCc4ccccc4C)cc32)cc1 (3D coordinates assigned)
Cc1ccc(CN2C(=O)CSc3ccc(C(=O)NCc4ccccc4C)cc32)cc1 (nonaromatic ring conformer: 65.89875306790238 kcal/mol)

>  <smiles>  (45) 
Cc1ccc(CN2C(=O)CSc3ccc(C(=O)NCc4ccccc4C)cc32)cc1

>  <score_type>  (45) 
oracle

>  <origin>  (45) 
adg

>  <m_score__min__energy>  (45) 
-9.4600000000000009

>  <m_primary>  (45) 
energy

$$$$
46:0
     RDKit          3D

 44 47  0  0  0  0  0  0  0  0999 V2000
   58.7250   27.1710   48.1230 O   0  0  0  0  0  0  0  0  0  0  0  0
   58.3670   26.9290   46.9390 C   0  0  0  0  0  0  0  0  0  0  0  0
   58.7520   25.6350   46.3370 C   0  0  0  0  0  0  0  0  0  0  0  0
   58.5640   25.3520   45.0390 C   0  0  0  0  0  0  0  0  0  0  0  0
   57.9810   24.0710   44.5730 C   0  0  0  0  0  0  0  0  0  0  0  0
   56.7130   24.0550   43.9560 C   0  0  0  0  0  0  0  0  0  0  0  0
   56.1260   22.8490   43.5670 C   0  0  0  0  0  0  0  0  0  0  0  0
   56.7850   21.6420   43.7990 C   0  0  0  0  0  0  0  0  0  0  0  0
   58.0370   21.6400   44.4150 C   0  0  0  0  0  0  0  0  0  0  0  0
   58.6460   22.8400   44.8010 C   0  0  0  0  0  0  0  0  0  0  0  0
   59.9130   22.7710   45.3840 O   0  0  0  0  0  0  0  0  0  0  0  0
   57.5810   27.9510   46.2030 C   0  0  0  0  0  0  0  0  0  0  0  0
   56.2940   27.6560   45.7350 C   0  0  0  0  0  0  0  0  0  0  0  0
   55.7220   26.4090   45.9600 O   0  0  0  0  0  0  0  0  0  0  0  0
   55.5990   28.5870   45.0360 N   0  0  0  0  0  0  0  0  0  0  0  0
   56.1190   29.8110   44.7720 C   0  0  0  0  0  0  0  0  0  0  0  0
   55.4390   30.6350   44.1020 O   0  0  0  0  0  0  0  0  0  0  0  0
   57.3690   30.1390   45.2230 N   0  0  0  0  0  0  0  0  0  0  0  0
   57.9280   31.4350   44.9210 C   0  0  0  0  0  0  0  0  0  0  0  0
   58.0290   31.8380   43.5810 C   0  0  0  0  0  0  0  0  0  0  0  0
   58.5350   33.0970   43.2560 C   0  0  0  0  0  0  0  0  0  0  0  0
   58.9440   33.9720   44.2620 C   0  0  0  0  0  0  0  0  0  0  0  0
   58.8580   33.5910   45.6090 C   0  0  0  0  0  0  0  0  0  0  0  0
   59.2710   34.4720   46.6210 C   0  0  0  0  0  0  0  0  0  0  0  0
   59.1900   34.0900   47.9620 C   0  0  0  0  0  0  0  0  0  0  0  0
   58.7040   32.8270   48.3040 C   0  0  0  0  0  0  0  0  0  0  0  0
   58.2920   31.9380   47.3070 C   0  0  0  0  0  0  0  0  0  0  0  0
   58.3510   32.3100   45.9500 C   0  0  0  0  0  0  0  0  0  0  0  0
   58.0930   29.2390   45.9590 C   0  0  0  0  0  0  0  0  0  0  0  0
   59.2200   29.5660   46.4270 O   0  0  0  0  0  0  0  0  0  0  0  0
   59.2124   24.8712   46.9809 H   0  0  0  0  0  0  0  0  0  0  0  0
   58.8547   26.1022   44.2889 H   0  0  0  0  0  0  0  0  0  0  0  0
   56.1812   25.0016   43.7794 H   0  0  0  0  0  0  0  0  0  0  0  0
   55.1415   22.8511   43.0764 H   0  0  0  0  0  0  0  0  0  0  0  0
   56.3184   20.6928   43.4968 H   0  0  0  0  0  0  0  0  0  0  0  0
   58.5511   20.6851   44.5993 H   0  0  0  0  0  0  0  0  0  0  0  0
   60.0860   22.9480   46.3650 H   0  0  0  0  0  0  0  0  0  0  0  0
   57.7067   31.1561   42.7803 H   0  0  0  0  0  0  0  0  0  0  0  0
   58.6117   33.4008   42.2016 H   0  0  0  0  0  0  0  0  0  0  0  0
   59.3358   34.9653   43.9978 H   0  0  0  0  0  0  0  0  0  0  0  0
   59.6597   35.4666   46.3569 H   0  0  0  0  0  0  0  0  0  0  0  0
   59.5101   34.7865   48.7509 H   0  0  0  0  0  0  0  0  0  0  0  0
   58.6450   32.5302   49.3616 H   0  0  0  0  0  0  0  0  0  0  0  0
   57.9191   30.9410   47.5843 H   0  0  0  0  0  0  0  0  0  0  0  0
  1  2  2  0
  2  3  1  0
  3  4  2  3
  4  5  1  0
  5  6  2  0
  6  7  1  0
  7  8  2  0
  8  9  1  0
  9 10  2  0
 10 11  1  0
  2 12  1  0
 12 13  2  0
 13 14  1  0
 13 15  1  0
 15 16  1  0
 16 17  2  0
 16 18  1  0
 18 19  1  0
 19 20  2  0
 20 21  1  0
 21 22  2  0
 22 23  1  0
 23 24  2  0
 24 25  1  0
 25 26  2  0
 26 27  1  0
 27 28  2  0
 18 29  1  0
 29 30  2  0
 10  5  1  0
 29 12  1  0
 28 19  1  0
 28 23  1  0
  3 31  1  0
  4 32  1  0
  6 33  1  0
  7 34  1  0
  8 35  1  0
  9 36  1  0
 11 37  1  0
 20 38  1  0
 21 39  1  0
 22 40  1  0
 24 41  1  0
 25 42  1  0
 26 43  1  0
 27 44  1  0
M  CHG  2  14  -1  15  -1
M  END
>  <UniqueID>  (46) 
45

>  <SMILES>  (46) 
O=C(C=Cc1ccccc1O)c1c([O-])[n-]c(=O)n(-c2cccc3ccccc23)c1=O

>  <Energy>  (46) 
74.65882772518185

>  <Genealogy>  (46) 
O=C(C=Cc1ccccc1O)c1c([O-])[n-]c(=O)n(-c2cccc3ccccc23)c1=O (protonated)
O=C(C=Cc1ccccc1O)c1c([O-])[n-]c(=O)n(-c2cccc3ccccc23)c1=O (3D coordinates assigned)
O=C(C=Cc1ccccc1O)c1c([O-])[n-]c(=O)n(-c2cccc3ccccc23)c1=O (optimized conformer: 74.65882772518185 kcal/mol)

>  <smiles>  (46) 
O=C(C=Cc1ccccc1O)c1c(O)[nH]c(=O)n(-c2cccc3ccccc23)c1=O

>  <score_type>  (46) 
oracle

>  <origin>  (46) 
adg

>  <m_score__min__energy>  (46) 
-13.65

>  <m_primary>  (46) 
energy

$$$$
47:0
     RDKit          3D

 56 59  0  0  0  0  0  0  0  0999 V2000
   55.4201   30.7538   42.9790 H   0  0  0  0  0  0  0  0  0  0  0  0
   55.2230   29.9160   43.6640 C   0  0  0  0  0  0  0  0  0  0  0  0
   54.2071   29.5028   43.7496 H   0  0  0  0  0  0  0  0  0  0  0  0
   56.2160   29.4010   44.3910 C   0  0  0  0  0  0  0  0  0  0  0  0
   57.5420   29.8130   44.3900 C   0  0  0  0  0  0  0  0  0  0  0  0
   58.1580   30.9680   43.6490 C   0  0  0  0  0  0  0  0  0  0  0  0
   59.1648   30.6850   43.3080 H   0  0  0  0  0  0  0  0  0  0  0  0
   57.5244   31.2181   42.7853 H   0  0  0  0  0  0  0  0  0  0  0  0
   58.2580   32.1710   44.5480 C   0  0  0  0  0  0  0  0  0  0  0  0
   57.8380   33.4280   44.0860 C   0  0  0  0  0  0  0  0  0  0  0  0
   57.4150   33.5272   43.0754 H   0  0  0  0  0  0  0  0  0  0  0  0
   57.9550   34.5510   44.9030 C   0  0  0  0  0  0  0  0  0  0  0  0
   57.6151   35.5313   44.5377 H   0  0  0  0  0  0  0  0  0  0  0  0
   58.5020   34.4380   46.1840 C   0  0  0  0  0  0  0  0  0  0  0  0
   58.5863   35.3294   46.8229 H   0  0  0  0  0  0  0  0  0  0  0  0
   58.9460   33.1900   46.6620 C   0  0  0  0  0  0  0  0  0  0  0  0
   59.5290   33.0400   48.0230 C   0  0  0  0  0  0  0  0  0  0  0  0
   58.7540   33.0710   49.0210 O   0  0  0  0  0  0  0  0  0  0  0  0
   60.9580   32.8970   48.2310 N   0  0  0  0  0  0  0  0  0  0  0  0
   61.1730   33.1330   49.2270 H   0  0  0  0  0  0  0  0  0  0  0  0
   61.3780   31.4980   47.9590 C   0  0  0  0  0  0  0  0  0  0  0  0
   61.2922   30.9194   48.8906 H   0  0  0  0  0  0  0  0  0  0  0  0
   60.7209   31.1062   47.1686 H   0  0  0  0  0  0  0  0  0  0  0  0
   62.8320   31.3900   47.4450 C   0  0  0  0  0  0  0  0  0  0  0  0
   63.2332   30.4042   47.7228 H   0  0  0  0  0  0  0  0  0  0  0  0
   62.8140   31.5229   46.3532 H   0  0  0  0  0  0  0  0  0  0  0  0
   63.7050   32.4350   48.0130 N   0  0  0  0  0  0  0  0  0  0  0  0
   63.9970   32.2120   49.4470 C   0  0  0  0  0  0  0  0  0  0  0  0
   63.2220   32.7002   50.0561 H   0  0  0  0  0  0  0  0  0  0  0  0
   64.0058   31.1306   49.6483 H   0  0  0  0  0  0  0  0  0  0  0  0
   65.3590   32.7960   49.8020 C   0  0  0  0  0  0  0  0  0  0  0  0
   65.4647   32.8413   50.8960 H   0  0  0  0  0  0  0  0  0  0  0  0
   66.1517   32.1587   49.3831 H   0  0  0  0  0  0  0  0  0  0  0  0
   65.4438   33.8096   49.3831 H   0  0  0  0  0  0  0  0  0  0  0  0
   63.2130   33.8070   47.7220 C   0  0  0  0  0  0  0  0  0  0  0  0
   63.4079   34.4403   48.6000 H   0  0  0  0  0  0  0  0  0  0  0  0
   63.7468   34.1591   46.8270 H   0  0  0  0  0  0  0  0  0  0  0  0
   61.7040   33.8650   47.4030 C   0  0  0  0  0  0  0  0  0  0  0  0
   61.3303   34.8790   47.6081 H   0  0  0  0  0  0  0  0  0  0  0  0
   61.5566   33.6111   46.3429 H   0  0  0  0  0  0  0  0  0  0  0  0
   58.8120   32.0600   45.8340 C   0  0  0  0  0  0  0  0  0  0  0  0
   59.1454   31.0772   46.1986 H   0  0  0  0  0  0  0  0  0  0  0  0
   58.2010   29.0090   45.2980 C   0  0  0  0  0  0  0  0  0  0  0  0
   59.2677   29.0535   45.5629 H   0  0  0  0  0  0  0  0  0  0  0  0
   57.2550   28.1340   45.8110 C   0  0  0  0  0  0  0  0  0  0  0  0
   57.5360   27.1880   46.7250 C   0  0  0  0  0  0  0  0  0  0  0  0
   58.2423   27.4591   47.5235 H   0  0  0  0  0  0  0  0  0  0  0  0
   56.9830   25.8180   46.7550 C   0  0  0  0  0  0  0  0  0  0  0  0
   57.6500   24.7000   47.0960 N   0  0  0  0  0  0  0  0  0  0  0  0
   56.7410   23.7190   46.9170 C   0  0  0  0  0  0  0  0  0  0  0  0
   56.9980   22.5070   47.1400 O   0  0  0  0  0  0  0  0  0  0  0  0
   55.5370   24.1380   46.4730 N   0  0  0  0  0  0  0  0  0  0  0  0
   55.7090   25.4660   46.3720 C   0  0  0  0  0  0  0  0  0  0  0  0
   54.7230   26.3390   45.9340 O   0  0  0  0  0  0  0  0  0  0  0  0
   56.0480   28.3750   45.2500 N   0  0  0  0  0  0  0  0  0  0  0  0
   55.1480   27.8740   45.4130 H   0  0  0  0  0  0  0  0  0  0  0  0
  1  2  1  0
  2  3  1  0
  2  4  2  0
  4  5  1  0
  5  6  1  0
  6  7  1  0
  6  8  1  0
  6  9  1  0
  9 10  2  0
 10 11  1  0
 10 12  1  0
 12 13  1  0
 12 14  2  0
 14 15  1  0
 14 16  1  0
 16 17  1  0
 17 18  2  0
 17 19  1  0
 19 20  1  0
 19 21  1  0
 21 22  1  0
 21 23  1  0
 21 24  1  0
 24 25  1  0
 24 26  1  0
 24 27  1  0
 27 28  1  0
 28 29  1  0
 28 30  1  0
 28 31  1  0
 31 32  1  0
 31 33  1  0
 31 34  1  0
 27 35  1  0
 35 36  1  0
 35 37  1  0
 35 38  1  0
 38 39  1  0
 38 40  1  0
 16 41  2  0
 41 42  1  0
  5 43  2  0
 43 44  1  0
 43 45  1  0
 45 46  2  0
 46 47  1  0
 46 48  1  0
 48 49  1  0
 49 50  1  0
 50 51  2  0
 50 52  1  0
 52 53  1  0
 53 54  1  0
 45 55  1  0
 55 56  1  0
 55  4  1  0
 41  9  1  0
 53 48  2  0
 38 19  1  0
M  CHG  4  19   1  49  -1  52  -1  54  -1
M  END
>  <UniqueID>  (47) 
46

>  <SMILES>  (47) 
C=c1[nH]/c(=C\c2[n-]c(=O)[n-]c2[O-])cc1Cc1cccc(C(=O)[NH+]2CCN(CC)CC2)c1

>  <Energy>  (47) 
131.13330292941632

>  <Genealogy>  (47) 
C=c1[nH]c(=Cc2[n-]c(=O)[n-]c2[O-])cc1Cc1cccc(C(=O)[NH+]2CCN(CC)CC2)c1 (protonated)
C=c1[nH]/c(=C\c2[n-]c(=O)[n-]c2[O-])cc1Cc1cccc(C(=O)[NH+]2CCN(CC)CC2)c1 (cis-trans isomerization)
C=c1[nH]/c(=C\c2[n-]c(=O)[n-]c2[O-])cc1Cc1cccc(C(=O)[NH+]2CCN(CC)CC2)c1 (3D coordinates assigned)
C=c1[nH]/c(=C\c2[n-]c(=O)[n-]c2[O-])cc1Cc1cccc(C(=O)[NH+]2CCN(CC)CC2)c1 (nonaromatic ring conformer: 131.13330292941632 kcal/mol)

>  <smiles>  (47) 
C=c1[nH]c(=Cc2[nH]c(=O)[nH]c2O)cc1Cc1cccc(C(=O)N2CCN(CC)CC2)c1

>  <score_type>  (47) 
oracle

>  <origin>  (47) 
adg

>  <m_score__min__energy>  (47) 
-17.09

>  <m_primary>  (47) 
energy

$$$$
48:0
     RDKit          3D

 33 34  0  0  0  0  0  0  0  0999 V2000
   57.5444   29.0430   42.9009 H   0  0  0  0  0  0  0  0  0  0  0  0
   57.3410   28.9780   43.9800 C   0  0  0  0  0  0  0  0  0  0  0  0
   58.0590   28.1480   44.6810 N   0  0  0  0  0  0  0  0  0  0  0  0
   57.6440   27.3510   45.8040 C   0  0  0  0  0  0  0  0  0  0  0  0
   57.6660   27.8460   46.9650 O   0  0  0  0  0  0  0  0  0  0  0  0
   57.0930   25.9850   45.6000 C   0  0  0  0  0  0  0  0  0  0  0  0
   57.9660   24.9290   45.2700 C   0  0  0  0  0  0  0  0  0  0  0  0
   59.0430   25.1268   45.1653 H   0  0  0  0  0  0  0  0  0  0  0  0
   57.4790   23.6320   45.0740 C   0  0  0  0  0  0  0  0  0  0  0  0
   58.6830   22.2160   44.6320 Br  0  0  0  0  0  0  0  0  0  0  0  0
   56.1150   23.3720   45.2020 C   0  0  0  0  0  0  0  0  0  0  0  0
   55.7335   22.3515   45.0505 H   0  0  0  0  0  0  0  0  0  0  0  0
   55.2340   24.4050   45.5220 C   0  0  0  0  0  0  0  0  0  0  0  0
   54.1586   24.1955   45.6202 H   0  0  0  0  0  0  0  0  0  0  0  0
   55.7100   25.7070   45.7190 C   0  0  0  0  0  0  0  0  0  0  0  0
   54.7920   26.7080   46.0210 O   0  0  0  0  0  0  0  0  0  0  0  0
   56.2750   29.8370   44.5280 C   0  0  0  0  0  0  0  0  0  0  0  0
   55.1490   29.3560   44.8280 O   0  0  0  0  0  0  0  0  0  0  0  0
   56.5610   31.2120   44.7930 N   0  0  0  0  0  0  0  0  0  0  0  0
   57.6710   31.9370   44.1860 C   0  0  0  0  0  0  0  0  0  0  0  0
   58.4646   31.2252   43.9150 H   0  0  0  0  0  0  0  0  0  0  0  0
   57.3096   32.4581   43.2872 H   0  0  0  0  0  0  0  0  0  0  0  0
   58.2220   32.9510   45.1520 C   0  0  0  0  0  0  0  0  0  0  0  0
   58.0790   32.7520   46.5350 C   0  0  0  0  0  0  0  0  0  0  0  0
   57.5459   31.8655   46.9090 H   0  0  0  0  0  0  0  0  0  0  0  0
   58.6120   33.6770   47.4380 C   0  0  0  0  0  0  0  0  0  0  0  0
   58.4937   33.5192   48.5202 H   0  0  0  0  0  0  0  0  0  0  0  0
   59.2950   34.8020   46.9670 C   0  0  0  0  0  0  0  0  0  0  0  0
   59.7129   35.5293   47.6786 H   0  0  0  0  0  0  0  0  0  0  0  0
   59.4470   35.0030   45.5940 C   0  0  0  0  0  0  0  0  0  0  0  0
   59.9867   35.8877   45.2251 H   0  0  0  0  0  0  0  0  0  0  0  0
   58.9140   34.0810   44.6860 C   0  0  0  0  0  0  0  0  0  0  0  0
   59.0373   34.2417   43.6048 H   0  0  0  0  0  0  0  0  0  0  0  0
  1  2  1  0
  2  3  2  0
  3  4  1  0
  4  5  2  0
  4  6  1  0
  6  7  2  0
  7  8  1  0
  7  9  1  0
  9 10  1  0
  9 11  2  0
 11 12  1  0
 11 13  1  0
 13 14  1  0
 13 15  2  0
 15 16  1  0
  2 17  1  0
 17 18  2  0
 17 19  1  0
 19 20  1  0
 20 21  1  0
 20 22  1  0
 20 23  1  0
 23 24  2  0
 24 25  1  0
 24 26  1  0
 26 27  1  0
 26 28  2  0
 28 29  1  0
 28 30  1  0
 30 31  1  0
 30 32  2  0
 32 33  1  0
 15  6  1  0
 32 23  1  0
M  CHG  2  16  -1  19  -1
M  END
>  <UniqueID>  (48) 
47

>  <SMILES>  (48) 
O=C(/C=N\C(=O)c1cc(Br)ccc1[O-])[N-]Cc1ccccc1

>  <Energy>  (48) 
41.274977509395775

>  <Genealogy>  (48) 
O=C(C=NC(=O)c1cc(Br)ccc1[O-])[N-]Cc1ccccc1 (protonated)
O=C(/C=N\C(=O)c1cc(Br)ccc1[O-])[N-]Cc1ccccc1 (cis-trans isomerization)
O=C(/C=N\C(=O)c1cc(Br)ccc1[O-])[N-]Cc1ccccc1 (3D coordinates assigned)
O=C(/C=N\C(=O)c1cc(Br)ccc1[O-])[N-]Cc1ccccc1 (optimized conformer: 41.274977509395775 kcal/mol)

>  <smiles>  (48) 
O=C(C=NC(=O)c1cc(Br)ccc1O)NCc1ccccc1

>  <score_type>  (48) 
oracle

>  <origin>  (48) 
adg

>  <m_score__min__energy>  (48) 
-14.130000000000001

>  <m_primary>  (48) 
energy

$$$$
49:0
     RDKit          3D

 41 43  0  0  0  0  0  0  0  0999 V2000
   60.0150   28.9550   49.3320 C   0  0  0  0  0  0  0  0  0  0  0  0
   59.1230   29.9430   48.5760 C   0  0  0  0  0  0  0  0  0  0  0  0
   59.6880   30.2260   47.2470 N   0  0  0  0  0  0  0  0  0  0  0  0
   59.5710   29.2610   46.1770 C   0  0  0  0  0  0  0  0  0  0  0  0
   60.4160   29.2570   45.2370 O   0  0  0  0  0  0  0  0  0  0  0  0
   58.5040   28.2370   46.1770 C   0  0  0  0  0  0  0  0  0  0  0  0
   58.7460   27.0190   46.8340 C   0  0  0  0  0  0  0  0  0  0  0  0
   57.7520   26.0360   46.9010 C   0  0  0  0  0  0  0  0  0  0  0  0
   57.9670   24.8600   47.5570 N   0  0  0  0  0  0  0  0  0  0  0  0
   56.9940   23.9090   47.6280 C   0  0  0  0  0  0  0  0  0  0  0  0
   57.2160   22.8260   48.2330 O   0  0  0  0  0  0  0  0  0  0  0  0
   55.7510   24.1460   47.0220 C   0  0  0  0  0  0  0  0  0  0  0  0
   54.8310   23.2930   47.0840 O   0  0  0  0  0  0  0  0  0  0  0  0
   55.5390   25.3160   46.3670 N   0  0  0  0  0  0  0  0  0  0  0  0
   56.5060   26.2650   46.2880 C   0  0  0  0  0  0  0  0  0  0  0  0
   56.2660   27.4630   45.6140 C   0  0  0  0  0  0  0  0  0  0  0  0
   57.2520   28.4600   45.5500 C   0  0  0  0  0  0  0  0  0  0  0  0
   56.8660   29.9960   44.7470 S   0  0  0  0  0  0  0  0  0  0  0  0
   55.1550   30.1470   44.5090 N   0  0  0  0  0  0  0  0  0  0  0  0
   57.3330   31.1390   45.6040 O   0  0  0  0  0  0  0  0  0  0  0  0
   57.5460   30.0630   43.4060 O   0  0  0  0  0  0  0  0  0  0  0  0
   60.4890   31.4070   47.0830 C   0  0  0  0  0  0  0  0  0  0  0  0
   61.8520   31.3830   47.4150 C   0  0  0  0  0  0  0  0  0  0  0  0
   62.6310   32.5350   47.2650 C   0  0  0  0  0  0  0  0  0  0  0  0
   62.0570   33.7100   46.7700 C   0  0  0  0  0  0  0  0  0  0  0  0
   60.7000   33.7370   46.4310 C   0  0  0  0  0  0  0  0  0  0  0  0
   59.9160   32.5890   46.5860 C   0  0  0  0  0  0  0  0  0  0  0  0
   59.8854   29.0985   50.4149 H   0  0  0  0  0  0  0  0  0  0  0  0
   59.7336   27.9264   49.0622 H   0  0  0  0  0  0  0  0  0  0  0  0
   61.0669   29.1301   49.0622 H   0  0  0  0  0  0  0  0  0  0  0  0
   58.1189   29.5093   48.4588 H   0  0  0  0  0  0  0  0  0  0  0  0
   59.0634   30.8812   49.1471 H   0  0  0  0  0  0  0  0  0  0  0  0
   59.7255   26.8363   47.3000 H   0  0  0  0  0  0  0  0  0  0  0  0
   58.8900   24.6800   48.0150 H   0  0  0  0  0  0  0  0  0  0  0  0
   55.2933   27.6279   45.1274 H   0  0  0  0  0  0  0  0  0  0  0  0
   54.7050   29.3450   45.0080 H   0  0  0  0  0  0  0  0  0  0  0  0
   62.3087   30.4568   47.7938 H   0  0  0  0  0  0  0  0  0  0  0  0
   63.6967   32.5166   47.5368 H   0  0  0  0  0  0  0  0  0  0  0  0
   62.6726   34.6133   46.6471 H   0  0  0  0  0  0  0  0  0  0  0  0
   60.2491   34.6619   46.0422 H   0  0  0  0  0  0  0  0  0  0  0  0
   58.8493   32.6120   46.3183 H   0  0  0  0  0  0  0  0  0  0  0  0
  1  2  1  0
  2  3  1  0
  3  4  1  0
  4  5  2  0
  4  6  1  0
  6  7  2  0
  7  8  1  0
  8  9  1  0
  9 10  1  0
 10 11  2  0
 10 12  1  0
 12 13  2  0
 12 14  1  0
 14 15  1  0
 15 16  1  0
 16 17  2  0
 17 18  1  0
 18 19  1  0
 18 20  2  0
 18 21  2  0
  3 22  1  0
 22 23  2  0
 23 24  1  0
 24 25  2  0
 25 26  1  0
 26 27  2  0
 17  6  1  0
 27 22  1  0
 15  8  2  0
  1 28  1  0
  1 29  1  0
  1 30  1  0
  2 31  1  0
  2 32  1  0
  7 33  1  0
  9 34  1  0
 16 35  1  0
 19 36  1  0
 23 37  1  0
 24 38  1  0
 25 39  1  0
 26 40  1  0
 27 41  1  0
M  CHG  2  14  -1  19  -1
M  END
>  <UniqueID>  (49) 
48

>  <SMILES>  (49) 
CCN(C(=O)c1cc2[nH]c(=O)c(=O)[n-]c2cc1S([NH-])(=O)=O)c1ccccc1

>  <Energy>  (49) 
58.13075863169863

>  <Genealogy>  (49) 
CCN(C(=O)c1cc2[nH]c(=O)c(=O)[n-]c2cc1S([NH-])(=O)=O)c1ccccc1 (protonated)
CCN(C(=O)c1cc2[nH]c(=O)c(=O)[n-]c2cc1S([NH-])(=O)=O)c1ccccc1 (3D coordinates assigned)
CCN(C(=O)c1cc2[nH]c(=O)c(=O)[n-]c2cc1S([NH-])(=O)=O)c1ccccc1 (optimized conformer: 58.13075863169863 kcal/mol)

>  <smiles>  (49) 
CCN(C(=O)c1cc2[nH]c(=O)c(=O)[nH]c2cc1S(N)(=O)=O)c1ccccc1

>  <score_type>  (49) 
oracle

>  <origin>  (49) 
adg

>  <m_score__min__energy>  (49) 
-11.84

>  <m_primary>  (49) 
energy

$$$$
50:0
     RDKit          3D

 69 72  0  0  0  0  0  0  0  0999 V2000
   59.0500   34.0200   45.7360 C   0  0  0  0  0  0  0  0  0  0  0  0
   59.3510   33.5550   46.9480 C   0  0  0  0  0  0  0  0  0  0  0  0
   59.4610   32.1090   47.2540 C   0  0  0  0  0  0  0  0  0  0  0  0
   59.7320   31.2300   46.1960 C   0  0  0  0  0  0  0  0  0  0  0  0
   59.8730   29.8440   46.4030 C   0  0  0  0  0  0  0  0  0  0  0  0
   60.0390   28.9670   45.2090 C   0  0  0  0  0  0  0  0  0  0  0  0
   61.0070   28.1620   45.1280 O   0  0  0  0  0  0  0  0  0  0  0  0
   59.0910   29.0370   44.1340 N   0  0  0  0  0  0  0  0  0  0  0  0
   57.6410   28.8940   44.2900 C   0  0  0  0  0  0  0  0  0  0  0  0
   57.2450   27.5420   44.8380 C   0  0  0  0  0  0  0  0  0  0  0  0
   56.4290   27.4770   45.8010 O   0  0  0  0  0  0  0  0  0  0  0  0
   57.8100   26.3450   44.2800 N   0  0  0  0  0  0  0  0  0  0  0  0
   57.2890   25.0460   44.5980 C   0  0  0  0  0  0  0  0  0  0  0  0
   57.2370   24.6280   45.9350 C   0  0  0  0  0  0  0  0  0  0  0  0
   56.8300   23.3260   46.2550 C   0  0  0  0  0  0  0  0  0  0  0  0
   56.4040   22.4510   45.2440 C   0  0  0  0  0  0  0  0  0  0  0  0
   56.0510   21.0490   45.5460 C   0  0  0  0  0  0  0  0  0  0  0  0
   54.9660   20.6450   46.2240 C   0  0  0  0  0  0  0  0  0  0  0  0
   53.6530   21.3180   46.2280 C   0  0  0  0  0  0  0  0  0  0  0  0
   52.7830   20.9630   47.0680 O   0  0  0  0  0  0  0  0  0  0  0  0
   53.3350   22.2910   45.2850 O   0  0  0  0  0  0  0  0  0  0  0  0
   56.4380   22.8780   43.9090 C   0  0  0  0  0  0  0  0  0  0  0  0
   56.8720   24.1650   43.5870 C   0  0  0  0  0  0  0  0  0  0  0  0
   57.0150   30.1080   44.9960 C   0  0  0  0  0  0  0  0  0  0  0  0
   56.3100   30.4960   43.7030 C   0  0  0  0  0  0  0  0  0  0  0  0
   56.9010   29.2760   43.0040 C   0  0  0  0  0  0  0  0  0  0  0  0
   59.8020   29.3470   47.7340 C   0  0  0  0  0  0  0  0  0  0  0  0
   60.0080   27.8890   48.0700 C   0  0  0  0  0  0  0  0  0  0  0  0
   59.4830   30.2280   48.7830 C   0  0  0  0  0  0  0  0  0  0  0  0
   59.2550   31.5910   48.5490 C   0  0  0  0  0  0  0  0  0  0  0  0
   58.7530   32.4480   49.5870 N   0  0  0  0  0  0  0  0  0  0  0  0
   59.6190   33.7470   50.3470 S   0  0  0  0  0  0  0  0  0  0  0  0
   59.6610   34.9180   49.4020 O   0  0  0  0  0  0  0  0  0  0  0  0
   58.9070   34.1820   51.6000 O   0  0  0  0  0  0  0  0  0  0  0  0
   61.2780   33.2200   50.7390 C   0  0  0  0  0  0  0  0  0  0  0  0
   62.0770   33.0480   49.4770 C   0  0  0  0  0  0  0  0  0  0  0  0
   62.3700   34.1620   48.6720 C   0  0  0  0  0  0  0  0  0  0  0  0
   63.0740   33.9980   47.4750 C   0  0  0  0  0  0  0  0  0  0  0  0
   63.4790   32.7230   47.0680 C   0  0  0  0  0  0  0  0  0  0  0  0
   63.1870   31.6080   47.8600 C   0  0  0  0  0  0  0  0  0  0  0  0
   62.4830   31.7670   49.0600 C   0  0  0  0  0  0  0  0  0  0  0  0
   58.9813   35.1044   45.5644 H   0  0  0  0  0  0  0  0  0  0  0  0
   58.8702   33.3195   44.9072 H   0  0  0  0  0  0  0  0  0  0  0  0
   59.5259   34.2776   47.7587 H   0  0  0  0  0  0  0  0  0  0  0  0
   59.8372   31.6332   45.1780 H   0  0  0  0  0  0  0  0  0  0  0  0
   58.4120   26.4370   43.4320 H   0  0  0  0  0  0  0  0  0  0  0  0
   57.5173   25.3261   46.7375 H   0  0  0  0  0  0  0  0  0  0  0  0
   56.8445   22.9887   47.3019 H   0  0  0  0  0  0  0  0  0  0  0  0
   56.7367   20.2688   45.1839 H   0  0  0  0  0  0  0  0  0  0  0  0
   55.0639   19.7321   46.8299 H   0  0  0  0  0  0  0  0  0  0  0  0
   56.1201   22.1933   43.1089 H   0  0  0  0  0  0  0  0  0  0  0  0
   56.8875   24.4907   42.5364 H   0  0  0  0  0  0  0  0  0  0  0  0
   56.3329   29.8468   45.8185 H   0  0  0  0  0  0  0  0  0  0  0  0
   57.6508   30.8345   45.5232 H   0  0  0  0  0  0  0  0  0  0  0  0
   55.2122   30.4850   43.7709 H   0  0  0  0  0  0  0  0  0  0  0  0
   56.4493   31.5002   43.2762 H   0  0  0  0  0  0  0  0  0  0  0  0
   56.1524   28.5376   42.6809 H   0  0  0  0  0  0  0  0  0  0  0  0
   57.4519   29.3897   42.0587 H   0  0  0  0  0  0  0  0  0  0  0  0
   60.0257   27.7635   49.1627 H   0  0  0  0  0  0  0  0  0  0  0  0
   59.1848   27.2952   47.6460 H   0  0  0  0  0  0  0  0  0  0  0  0
   60.9635   27.5465   47.6460 H   0  0  0  0  0  0  0  0  0  0  0  0
   59.4109   29.8388   49.8093 H   0  0  0  0  0  0  0  0  0  0  0  0
   61.7599   33.9777   51.3743 H   0  0  0  0  0  0  0  0  0  0  0  0
   61.2341   32.2584   51.2713 H   0  0  0  0  0  0  0  0  0  0  0  0
   62.0448   35.1654   48.9842 H   0  0  0  0  0  0  0  0  0  0  0  0
   63.3097   34.8737   46.8524 H   0  0  0  0  0  0  0  0  0  0  0  0
   64.0282   32.5968   46.1233 H   0  0  0  0  0  0  0  0  0  0  0  0
   63.5103   30.6063   47.5404 H   0  0  0  0  0  0  0  0  0  0  0  0
   62.2468   30.8883   49.6781 H   0  0  0  0  0  0  0  0  0  0  0  0
  1  2  2  0
  2  3  1  0
  3  4  2  0
  4  5  1  0
  5  6  1  0
  6  7  2  0
  6  8  1  0
  8  9  1  0
  9 10  1  0
 10 11  2  0
 10 12  1  0
 12 13  1  0
 13 14  2  0
 14 15  1  0
 15 16  2  0
 16 17  1  0
 17 18  2  3
 18 19  1  0
 19 20  2  0
 19 21  1  0
 16 22  1  0
 22 23  2  0
  9 24  1  0
 24 25  1  0
 25 26  1  0
  5 27  2  0
 27 28  1  0
 27 29  1  0
 29 30  2  0
 30 31  1  0
 31 32  1  0
 32 33  2  0
 32 34  2  0
 32 35  1  0
 35 36  1  0
 36 37  2  0
 37 38  1  0
 38 39  2  0
 39 40  1  0
 40 41  2  0
 30  3  1  0
 41 36  1  0
 26  9  1  0
 23 13  1  0
  1 42  1  0
  1 43  1  0
  2 44  1  0
  4 45  1  0
 12 46  1  0
 14 47  1  0
 15 48  1  0
 17 49  1  0
 18 50  1  0
 22 51  1  0
 23 52  1  0
 24 53  1  0
 24 54  1  0
 25 55  1  0
 25 56  1  0
 26 57  1  0
 26 58  1  0
 28 59  1  0
 28 60  1  0
 28 61  1  0
 29 62  1  0
 35 63  1  0
 35 64  1  0
 37 65  1  0
 38 66  1  0
 39 67  1  0
 40 68  1  0
 41 69  1  0
M  CHG  3   8  -1  21  -1  31  -1
M  END
>  <UniqueID>  (50) 
49

>  <SMILES>  (50) 
C=Cc1cc(C(=O)[N-]C2(C(=O)Nc3ccc(C=CC(=O)[O-])cc3)CCC2)c(C)cc1[N-]S(=O)(=O)Cc1ccccc1

>  <Energy>  (50) 
152.81822748654812

>  <Genealogy>  (50) 
C=Cc1cc(C(=O)[N-]C2(C(=O)Nc3ccc(C=CC(=O)[O-])cc3)CCC2)c(C)cc1[N-]S(=O)(=O)Cc1ccccc1 (protonated)
C=Cc1cc(C(=O)[N-]C2(C(=O)Nc3ccc(C=CC(=O)[O-])cc3)CCC2)c(C)cc1[N-]S(=O)(=O)Cc1ccccc1 (3D coordinates assigned)
C=Cc1cc(C(=O)[N-]C2(C(=O)Nc3ccc(C=CC(=O)[O-])cc3)CCC2)c(C)cc1[N-]S(=O)(=O)Cc1ccccc1 (nonaromatic ring conformer: 152.81822748654812 kcal/mol)

>  <smiles>  (50) 
C=Cc1cc(C(=O)NC2(C(=O)Nc3ccc(C=CC(=O)O)cc3)CCC2)c(C)cc1NS(=O)(=O)Cc1ccccc1

>  <score_type>  (50) 
oracle

>  <origin>  (50) 
adg

>  <m_score__min__energy>  (50) 
-16.609999999999999

>  <m_primary>  (50) 
energy

$$$$
51:0
     RDKit          3D

 40 41  0  0  0  0  0  0  0  0999 V2000
   61.6380   34.1060   48.3290 C   0  0  0  0  0  0  0  0  0  0  0  0
   60.1450   34.2110   48.3110 C   0  0  0  0  0  0  0  0  0  0  0  0
   59.5840   34.9160   49.1930 O   0  0  0  0  0  0  0  0  0  0  0  0
   59.3030   33.5440   47.2920 C   0  0  0  0  0  0  0  0  0  0  0  0
   58.5040   32.0840   47.5800 S   0  0  0  0  0  0  0  0  0  0  0  0
   57.8200   32.0130   46.0440 C   0  0  0  0  0  0  0  0  0  0  0  0
   57.0360   31.0830   45.5820 N   0  0  0  0  0  0  0  0  0  0  0  0
   56.8470   30.6960   44.2120 C   0  0  0  0  0  0  0  0  0  0  0  0
   57.2730   31.4070   43.2620 O   0  0  0  0  0  0  0  0  0  0  0  0
   56.1520   29.4110   43.9070 C   0  0  0  0  0  0  0  0  0  0  0  0
   55.7420   28.7740   45.1530 N   0  0  0  0  0  0  0  0  0  0  0  0
   56.2480   27.5180   45.6170 C   0  0  0  0  0  0  0  0  0  0  0  0
   55.4370   26.6490   46.0320 O   0  0  0  0  0  0  0  0  0  0  0  0
   57.7170   27.2250   45.6490 C   0  0  0  0  0  0  0  0  0  0  0  0
   58.2410   27.5750   46.9280 O   0  0  0  0  0  0  0  0  0  0  0  0
   59.2490   28.5270   47.1390 C   0  0  0  0  0  0  0  0  0  0  0  0
   59.6120   28.8280   48.4570 C   0  0  0  0  0  0  0  0  0  0  0  0
   60.6090   29.7720   48.7200 C   0  0  0  0  0  0  0  0  0  0  0  0
   61.2530   30.4220   47.6640 C   0  0  0  0  0  0  0  0  0  0  0  0
   60.8980   30.1300   46.3450 C   0  0  0  0  0  0  0  0  0  0  0  0
   59.9020   29.1860   46.0770 C   0  0  0  0  0  0  0  0  0  0  0  0
   58.1880   33.0800   45.3030 N   0  0  0  0  0  0  0  0  0  0  0  0
   59.0160   33.9330   45.9700 C   0  0  0  0  0  0  0  0  0  0  0  0
   59.5910   35.1360   45.2830 C   0  0  0  0  0  0  0  0  0  0  0  0
   61.9913   34.0812   49.3704 H   0  0  0  0  0  0  0  0  0  0  0  0
   61.9469   33.1839   47.8149 H   0  0  0  0  0  0  0  0  0  0  0  0
   62.0730   34.9758   47.8149 H   0  0  0  0  0  0  0  0  0  0  0  0
   55.2649   29.6115   43.2882 H   0  0  0  0  0  0  0  0  0  0  0  0
   56.8358   28.7442   43.3613 H   0  0  0  0  0  0  0  0  0  0  0  0
   57.8817   26.1530   45.4656 H   0  0  0  0  0  0  0  0  0  0  0  0
   58.2261   27.8113   44.8699 H   0  0  0  0  0  0  0  0  0  0  0  0
   59.1091   28.3180   49.2919 H   0  0  0  0  0  0  0  0  0  0  0  0
   60.8867   30.0032   49.7590 H   0  0  0  0  0  0  0  0  0  0  0  0
   62.0390   31.1631   47.8712 H   0  0  0  0  0  0  0  0  0  0  0  0
   61.4036   30.6444   45.5145 H   0  0  0  0  0  0  0  0  0  0  0  0
   59.6275   28.9572   45.0367 H   0  0  0  0  0  0  0  0  0  0  0  0
   57.8860   33.2180   44.3120 H   0  0  0  0  0  0  0  0  0  0  0  0
   59.9364   35.8586   46.0370 H   0  0  0  0  0  0  0  0  0  0  0  0
   60.4395   34.8285   44.6541 H   0  0  0  0  0  0  0  0  0  0  0  0
   58.8188   35.6031   44.6541 H   0  0  0  0  0  0  0  0  0  0  0  0
  1  2  1  0
  2  3  2  0
  2  4  1  0
  4  5  1  0
  5  6  1  0
  6  7  2  3
  7  8  1  0
  8  9  2  0
  8 10  1  0
 10 11  1  0
 11 12  1  0
 12 13  2  0
 12 14  1  0
 14 15  1  0
 15 16  1  0
 16 17  2  0
 17 18  1  0
 18 19  2  0
 19 20  1  0
 20 21  2  0
  6 22  1  0
 22 23  1  0
 23 24  1  0
 23  4  2  0
 21 16  1  0
  1 25  1  0
  1 26  1  0
  1 27  1  0
 10 28  1  0
 10 29  1  0
 14 30  1  0
 14 31  1  0
 17 32  1  0
 18 33  1  0
 19 34  1  0
 20 35  1  0
 21 36  1  0
 22 37  1  0
 24 38  1  0
 24 39  1  0
 24 40  1  0
M  CHG  1  11  -1
M  END
>  <UniqueID>  (51) 
50

>  <SMILES>  (51) 
CC(=O)c1sc(=NC(=O)C[N-]C(=O)COc2ccccc2)[nH]c1C

>  <Energy>  (51) 
68.9317937910662

>  <Genealogy>  (51) 
CC(=O)c1sc(=NC(=O)C[N-]C(=O)COc2ccccc2)[nH]c1C (protonated)
CC(=O)c1sc(=NC(=O)C[N-]C(=O)COc2ccccc2)[nH]c1C (3D coordinates assigned)
CC(=O)c1sc(=NC(=O)C[N-]C(=O)COc2ccccc2)[nH]c1C (optimized conformer: 68.9317937910662 kcal/mol)

>  <smiles>  (51) 
CC(=O)c1sc(=NC(=O)CNC(=O)COc2ccccc2)[nH]c1C

>  <score_type>  (51) 
oracle

>  <origin>  (51) 
adg

>  <m_score__min__energy>  (51) 
-9.1899999999999995

>  <m_primary>  (51) 
energy

$$$$
52:0
     RDKit          3D

 64 67  0  0  0  0  0  0  0  0999 V2000
   58.6327   21.9313   43.4494 H   0  0  0  0  0  0  0  0  0  0  0  0
   58.3680   22.1910   44.4850 C   0  0  0  0  0  0  0  0  0  0  0  0
   59.2520   23.1090   45.2470 C   0  0  0  0  0  0  0  0  0  0  0  0
   60.3940   22.6940   45.6030 O   0  0  0  0  0  0  0  0  0  0  0  0
   58.8430   24.4610   45.5770 N   0  0  0  0  0  0  0  0  0  0  0  0
   57.5030   24.9580   45.2060 C   0  0  0  0  0  0  0  0  0  0  0  0
   56.7457   24.2878   45.6388 H   0  0  0  0  0  0  0  0  0  0  0  0
   57.4454   24.9769   44.1077 H   0  0  0  0  0  0  0  0  0  0  0  0
   57.2450   26.3850   45.7120 C   0  0  0  0  0  0  0  0  0  0  0  0
   57.0432   26.3537   46.7929 H   0  0  0  0  0  0  0  0  0  0  0  0
   56.3800   26.7996   45.1736 H   0  0  0  0  0  0  0  0  0  0  0  0
   58.4110   27.2440   45.4640 N   0  0  0  0  0  0  0  0  0  0  0  0
   58.2340   28.6330   45.1100 C   0  0  0  0  0  0  0  0  0  0  0  0
   57.2360   29.0140   44.1960 C   0  0  0  0  0  0  0  0  0  0  0  0
   56.5936   28.2469   43.7390 H   0  0  0  0  0  0  0  0  0  0  0  0
   57.0530   30.3590   43.8630 C   0  0  0  0  0  0  0  0  0  0  0  0
   56.2709   30.6423   43.1432 H   0  0  0  0  0  0  0  0  0  0  0  0
   57.8620   31.3520   44.4420 C   0  0  0  0  0  0  0  0  0  0  0  0
   57.6520   32.8050   44.0970 C   0  0  0  0  0  0  0  0  0  0  0  0
   56.7593   33.1666   44.6283 H   0  0  0  0  0  0  0  0  0  0  0  0
   57.5332   32.8716   43.0055 H   0  0  0  0  0  0  0  0  0  0  0  0
   58.8520   33.6940   44.4880 C   0  0  0  0  0  0  0  0  0  0  0  0
   59.0166   34.4266   43.6842 H   0  0  0  0  0  0  0  0  0  0  0  0
   59.7123   33.0237   44.6315 H   0  0  0  0  0  0  0  0  0  0  0  0
   58.6640   34.4330   45.7630 N   0  0  1  0  0  0  0  0  0  0  0  0
   58.1980   35.3580   45.6060 H   0  0  0  0  0  0  0  0  0  0  0  0
   57.9120   33.6720   46.7130 C   0  0  0  0  0  0  0  0  0  0  0  0
   56.6710   33.4770   46.6010 O   0  0  0  0  0  0  0  0  0  0  0  0
   58.6320   33.2110   47.8310 N   0  0  0  0  0  0  0  0  0  0  0  0
   59.9870   33.7070   47.7070 C   0  0  0  0  0  0  0  0  0  0  0  0
   60.9430   32.5180   47.5030 C   0  0  0  0  0  0  0  0  0  0  0  0
   61.2569   32.1277   48.4823 H   0  0  0  0  0  0  0  0  0  0  0  0
   60.4277   31.7255   46.9404 H   0  0  0  0  0  0  0  0  0  0  0  0
   61.8276   32.8511   46.9404 H   0  0  0  0  0  0  0  0  0  0  0  0
   60.3680   34.4820   48.9790 C   0  0  0  0  0  0  0  0  0  0  0  0
   60.0803   33.8968   49.8649 H   0  0  0  0  0  0  0  0  0  0  0  0
   61.4541   34.6556   48.9911 H   0  0  0  0  0  0  0  0  0  0  0  0
   59.8421   35.4481   48.9911 H   0  0  0  0  0  0  0  0  0  0  0  0
   59.9590   34.6370   46.4570 C   0  0  0  0  0  0  0  0  0  0  0  0
   60.0530   35.6871   46.7708 H   0  0  0  0  0  0  0  0  0  0  0  0
   60.7953   34.3976   45.7837 H   0  0  0  0  0  0  0  0  0  0  0  0
   58.8680   30.9740   45.3420 C   0  0  0  0  0  0  0  0  0  0  0  0
   59.5132   31.7416   45.7943 H   0  0  0  0  0  0  0  0  0  0  0  0
   59.0570   29.6260   45.6690 C   0  0  0  0  0  0  0  0  0  0  0  0
   59.8562   29.3415   46.3692 H   0  0  0  0  0  0  0  0  0  0  0  0
   59.7680   26.7300   45.7210 C   0  0  0  0  0  0  0  0  0  0  0  0
   60.2871   27.4187   46.4038 H   0  0  0  0  0  0  0  0  0  0  0  0
   60.2962   26.6578   44.7588 H   0  0  0  0  0  0  0  0  0  0  0  0
   59.7330   25.3370   46.3530 C   0  0  0  0  0  0  0  0  0  0  0  0
   59.3611   25.4135   47.3854 H   0  0  0  0  0  0  0  0  0  0  0  0
   60.7482   24.9134   46.3556 H   0  0  0  0  0  0  0  0  0  0  0  0
   57.2550   21.6690   45.0240 C   0  0  0  0  0  0  0  0  0  0  0  0
   57.2965   20.6397   45.4097 H   0  0  0  0  0  0  0  0  0  0  0  0
   55.9730   22.4060   45.1270 C   0  0  0  0  0  0  0  0  0  0  0  0
   55.4560   23.0190   43.9730 C   0  0  0  0  0  0  0  0  0  0  0  0
   56.0107   22.9556   43.0252 H   0  0  0  0  0  0  0  0  0  0  0  0
   54.2410   23.7090   44.0220 C   0  0  0  0  0  0  0  0  0  0  0  0
   53.8476   24.1934   43.1162 H   0  0  0  0  0  0  0  0  0  0  0  0
   53.5270   23.7840   45.2180 C   0  0  0  0  0  0  0  0  0  0  0  0
   52.5751   24.3341   45.2547 H   0  0  0  0  0  0  0  0  0  0  0  0
   54.0160   23.1640   46.3670 C   0  0  0  0  0  0  0  0  0  0  0  0
   53.4454   23.2184   47.3059 H   0  0  0  0  0  0  0  0  0  0  0  0
   55.2330   22.4720   46.3270 C   0  0  0  0  0  0  0  0  0  0  0  0
   55.6132   21.9785   47.2336 H   0  0  0  0  0  0  0  0  0  0  0  0
  1  2  1  0
  2  3  1  0
  3  4  2  0
  3  5  1  0
  5  6  1  0
  6  7  1  0
  6  8  1  0
  6  9  1  0
  9 10  1  0
  9 11  1  0
  9 12  1  0
 12 13  1  0
 13 14  2  0
 14 15  1  0
 14 16  1  0
 16 17  1  0
 16 18  2  0
 18 19  1  0
 19 20  1  0
 19 21  1  0
 19 22  1  0
 22 23  1  0
 22 24  1  0
 22 25  1  0
 25 26  1  6
 25 27  1  0
 27 28  2  0
 27 29  1  0
 29 30  1  0
 30 31  1  0
 31 32  1  0
 31 33  1  0
 31 34  1  0
 30 35  1  0
 35 36  1  0
 35 37  1  0
 35 38  1  0
 30 39  1  0
 39 40  1  0
 39 41  1  0
 18 42  1  0
 42 43  1  0
 42 44  2  0
 44 45  1  0
 12 46  1  0
 46 47  1  0
 46 48  1  0
 46 49  1  0
 49 50  1  0
 49 51  1  0
  2 52  2  0
 52 53  1  0
 52 54  1  0
 54 55  2  0
 55 56  1  0
 55 57  1  0
 57 58  1  0
 57 59  2  0
 59 60  1  0
 59 61  1  0
 61 62  1  0
 61 63  2  0
 63 64  1  0
 49  5  1  0
 63 54  1  0
 44 13  1  0
 39 25  1  0
M  CHG  2  25   1  29  -1
M  END
>  <UniqueID>  (52) 
51

>  <SMILES>  (52) 
CC1(C)C[N@@H+](CCc2ccc(N3CCN(C(=O)/C=C/c4ccccc4)CC3)cc2)C(=O)[N-]1

>  <Energy>  (52) 
80.79245182085131

>  <Genealogy>  (52) 
CC1(C)C[NH+](CCc2ccc(N3CCN(C(=O)C=Cc4ccccc4)CC3)cc2)C(=O)[N-]1 (protonated)
CC1(C)C[N@@H+](CCc2ccc(N3CCN(C(=O)C=Cc4ccccc4)CC3)cc2)C(=O)[N-]1 (chirality)
CC1(C)C[N@@H+](CCc2ccc(N3CCN(C(=O)/C=C/c4ccccc4)CC3)cc2)C(=O)[N-]1 (cis-trans isomerization)
CC1(C)C[N@@H+](CCc2ccc(N3CCN(C(=O)/C=C/c4ccccc4)CC3)cc2)C(=O)[N-]1 (3D coordinates assigned)
CC1(C)C[N@@H+](CCc2ccc(N3CCN(C(=O)/C=C/c4ccccc4)CC3)cc2)C(=O)[N-]1 (nonaromatic ring conformer: 80.79245182085131 kcal/mol)

>  <smiles>  (52) 
CC1(C)CN(CCc2ccc(N3CCN(C(=O)C=Cc4ccccc4)CC3)cc2)C(=O)N1

>  <score_type>  (52) 
oracle

>  <origin>  (52) 
adg

>  <m_score__min__energy>  (52) 
-9.0899999999999999

>  <m_primary>  (52) 
energy

$$$$
53:0
     RDKit          3D

 36 38  0  0  0  0  0  0  0  0999 V2000
   56.6670   30.7950   43.2470 C   0  0  0  0  0  0  0  0  0  0  0  0
   57.4460   30.9640   44.3170 C   0  0  0  0  0  0  0  0  0  0  0  0
   57.5530   32.1300   44.9140 O   0  0  0  0  0  0  0  0  0  0  0  0
   58.3220   32.0030   45.9700 C   0  0  0  0  0  0  0  0  0  0  0  0
   58.6510   33.1180   46.8750 C   0  0  0  0  0  0  0  0  0  0  0  0
   57.7300   33.8860   47.2610 O   0  0  0  0  0  0  0  0  0  0  0  0
   60.0230   33.3290   47.3800 C   0  0  0  0  0  0  0  0  0  0  0  0
   61.0560   33.4460   46.4350 C   0  0  0  0  0  0  0  0  0  0  0  0
   62.3620   33.7230   46.8410 C   0  0  0  0  0  0  0  0  0  0  0  0
   62.6540   33.8830   48.1940 C   0  0  0  0  0  0  0  0  0  0  0  0
   61.6450   33.7480   49.1480 C   0  0  0  0  0  0  0  0  0  0  0  0
   60.3240   33.4530   48.7650 C   0  0  0  0  0  0  0  0  0  0  0  0
   59.3130   33.2400   49.8310 C   0  0  0  0  0  0  0  0  0  0  0  0
   59.2660   33.9930   50.8400 O   0  0  0  0  0  0  0  0  0  0  0  0
   58.3740   32.2210   49.7110 O   0  0  0  0  0  0  0  0  0  0  0  0
   58.7460   30.6930   46.0910 C   0  0  0  0  0  0  0  0  0  0  0  0
   58.2110   30.0150   45.0110 C   0  0  0  0  0  0  0  0  0  0  0  0
   58.4470   28.7120   44.7700 C   0  0  0  0  0  0  0  0  0  0  0  0
   57.6250   27.5910   45.2610 C   0  0  0  0  0  0  0  0  0  0  0  0
   56.2570   27.7700   45.5080 C   0  0  0  0  0  0  0  0  0  0  0  0
   55.6470   28.9940   45.2440 O   0  0  0  0  0  0  0  0  0  0  0  0
   55.5170   26.7410   46.0000 N   0  0  0  0  0  0  0  0  0  0  0  0
   56.0850   25.5380   46.2750 C   0  0  0  0  0  0  0  0  0  0  0  0
   55.3800   24.6000   46.7270 O   0  0  0  0  0  0  0  0  0  0  0  0
   57.4130   25.3480   46.0680 N   0  0  0  0  0  0  0  0  0  0  0  0
   58.1950   26.3440   45.5770 C   0  0  0  0  0  0  0  0  0  0  0  0
   59.4280   26.1410   45.4140 O   0  0  0  0  0  0  0  0  0  0  0  0
   56.5971   29.8072   42.7680 H   0  0  0  0  0  0  0  0  0  0  0  0
   56.0946   31.6435   42.8438 H   0  0  0  0  0  0  0  0  0  0  0  0
   60.8333   33.3181   45.3654 H   0  0  0  0  0  0  0  0  0  0  0  0
   63.1622   33.8152   46.0918 H   0  0  0  0  0  0  0  0  0  0  0  0
   63.6814   34.1161   48.5104 H   0  0  0  0  0  0  0  0  0  0  0  0
   61.8857   33.8739   50.2139 H   0  0  0  0  0  0  0  0  0  0  0  0
   59.3808   30.2743   46.8858 H   0  0  0  0  0  0  0  0  0  0  0  0
   59.3253   28.4631   44.1563 H   0  0  0  0  0  0  0  0  0  0  0  0
   55.5860   29.7100   45.9580 H   0  0  0  0  0  0  0  0  0  0  0  0
  1  2  2  0
  2  3  1  0
  3  4  1  0
  4  5  1  0
  5  6  2  0
  5  7  1  0
  7  8  2  0
  8  9  1  0
  9 10  2  0
 10 11  1  0
 11 12  2  0
 12 13  1  0
 13 14  2  0
 13 15  1  0
  4 16  2  0
 16 17  1  0
 17 18  2  3
 18 19  1  0
 19 20  2  0
 20 21  1  0
 20 22  1  0
 22 23  1  0
 23 24  2  0
 23 25  1  0
 25 26  1  0
 26 27  2  0
 17  2  1  0
 26 19  1  0
 12  7  1  0
  1 28  1  0
  1 29  1  0
  8 30  1  0
  9 31  1  0
 10 32  1  0
 11 33  1  0
 16 34  1  0
 18 35  1  0
 21 36  1  0
M  CHG  3  15  -1  22  -1  25  -1
M  END
>  <UniqueID>  (53) 
52

>  <SMILES>  (53) 
C=c1oc(C(=O)c2ccccc2C(=O)[O-])cc1=Cc1c(O)[n-]c(=O)[n-]c1=O

>  <Energy>  (53) 
89.47073773284563

>  <Genealogy>  (53) 
C=c1oc(C(=O)c2ccccc2C(=O)[O-])cc1=Cc1c(O)[n-]c(=O)[n-]c1=O (protonated)
C=c1oc(C(=O)c2ccccc2C(=O)[O-])cc1=Cc1c(O)[n-]c(=O)[n-]c1=O (3D coordinates assigned)
C=c1oc(C(=O)c2ccccc2C(=O)[O-])cc1=Cc1c(O)[n-]c(=O)[n-]c1=O (optimized conformer: 89.47073773284563 kcal/mol)

>  <smiles>  (53) 
C=c1oc(C(=O)c2ccccc2C(=O)O)cc1=Cc1c(O)[nH]c(=O)[nH]c1=O

>  <score_type>  (53) 
oracle

>  <origin>  (53) 
adg

>  <m_score__min__energy>  (53) 
-15.24

>  <m_primary>  (53) 
energy

$$$$
54:0
     RDKit          3D

 53 56  0  0  0  0  0  0  0  0999 V2000
   61.2150   28.5680   44.8800 C   0  0  0  0  0  0  0  0  0  0  0  0
   59.9540   28.8340   45.4870 O   0  0  0  0  0  0  0  0  0  0  0  0
   59.0210   27.8480   45.8530 C   0  0  0  0  0  0  0  0  0  0  0  0
   58.9800   27.3120   47.1590 C   0  0  0  0  0  0  0  0  0  0  0  0
   58.0500   26.3240   47.4880 C   0  0  0  0  0  0  0  0  0  0  0  0
   57.1520   25.8570   46.5290 C   0  0  0  0  0  0  0  0  0  0  0  0
   57.1780   26.3810   45.2340 C   0  0  0  0  0  0  0  0  0  0  0  0
   58.1050   27.3820   44.8850 C   0  0  0  0  0  0  0  0  0  0  0  0
   58.1260   27.9250   43.4700 C   0  0  0  0  0  0  0  0  0  0  0  0
   57.0050   28.9540   43.2290 C   0  0  0  0  0  0  0  0  0  0  0  0
   56.3810   29.4500   44.5020 C   0  0  0  0  0  0  0  0  0  0  0  0
   55.1350   29.3390   44.6790 O   0  0  0  0  0  0  0  0  0  0  0  0
   57.2340   29.9710   45.5370 N   0  0  0  0  0  0  0  0  0  0  0  0
   57.6260   31.2040   45.6570 C   0  0  0  0  0  0  0  0  0  0  0  0
   56.9860   32.2630   45.1080 N   0  0  0  0  0  0  0  0  0  0  0  0
   57.6280   33.4290   45.3820 C   0  0  0  0  0  0  0  0  0  0  0  0
   58.7750   33.2880   46.1530 C   0  0  0  0  0  0  0  0  0  0  0  0
   59.7760   34.6000   46.7560 S   0  0  0  0  0  0  0  0  0  0  0  0
   59.0480   35.2810   47.8810 O   0  0  0  0  0  0  0  0  0  0  0  0
   59.9830   35.5810   45.6350 O   0  0  0  0  0  0  0  0  0  0  0  0
   61.3200   34.0100   47.3270 N   0  0  0  0  0  0  0  0  0  0  0  0
   62.4240   33.9680   46.3590 C   0  0  0  0  0  0  0  0  0  0  0  0
   63.5610   33.0620   46.8280 C   0  0  0  0  0  0  0  0  0  0  0  0
   64.0260   33.4750   48.2180 C   0  0  0  0  0  0  0  0  0  0  0  0
   62.8760   33.4700   49.1850 C   0  0  0  0  0  0  0  0  0  0  0  0
   63.1230   33.2380   50.5480 C   0  0  0  0  0  0  0  0  0  0  0  0
   62.0770   33.2600   51.4680 C   0  0  0  0  0  0  0  0  0  0  0  0
   60.7760   33.5100   51.0360 C   0  0  0  0  0  0  0  0  0  0  0  0
   60.5160   33.7530   49.6850 C   0  0  0  0  0  0  0  0  0  0  0  0
   61.5640   33.7580   48.7380 C   0  0  0  0  0  0  0  0  0  0  0  0
   59.0010   31.6580   46.5100 S   0  0  0  0  0  0  0  0  0  0  0  0
   61.9720   28.4083   45.6620 H   0  0  0  0  0  0  0  0  0  0  0  0
   61.1380   27.6663   44.2546 H   0  0  0  0  0  0  0  0  0  0  0  0
   61.5088   29.4239   44.2546 H   0  0  0  0  0  0  0  0  0  0  0  0
   59.6849   27.6751   47.9214 H   0  0  0  0  0  0  0  0  0  0  0  0
   58.0256   25.9124   48.5078 H   0  0  0  0  0  0  0  0  0  0  0  0
   56.4232   25.0762   46.7919 H   0  0  0  0  0  0  0  0  0  0  0  0
   56.4683   26.0084   44.4807 H   0  0  0  0  0  0  0  0  0  0  0  0
   59.0971   28.4093   43.2900 H   0  0  0  0  0  0  0  0  0  0  0  0
   57.9672   27.0825   42.7808 H   0  0  0  0  0  0  0  0  0  0  0  0
   57.4281   29.8132   42.6879 H   0  0  0  0  0  0  0  0  0  0  0  0
   56.2163   28.4521   42.6494 H   0  0  0  0  0  0  0  0  0  0  0  0
   57.2688   34.4046   45.0227 H   0  0  0  0  0  0  0  0  0  0  0  0
   62.0411   33.5899   45.3996 H   0  0  0  0  0  0  0  0  0  0  0  0
   62.8230   34.9877   46.2536 H   0  0  0  0  0  0  0  0  0  0  0  0
   63.2068   32.0210   46.8581 H   0  0  0  0  0  0  0  0  0  0  0  0
   64.4037   33.1528   46.1268 H   0  0  0  0  0  0  0  0  0  0  0  0
   64.7942   32.7690   48.5666 H   0  0  0  0  0  0  0  0  0  0  0  0
   64.4397   34.4929   48.1651 H   0  0  0  0  0  0  0  0  0  0  0  0
   64.1487   33.0377   50.8912 H   0  0  0  0  0  0  0  0  0  0  0  0
   62.2780   33.0802   52.5344 H   0  0  0  0  0  0  0  0  0  0  0  0
   59.9498   33.5161   51.7622 H   0  0  0  0  0  0  0  0  0  0  0  0
   59.4839   33.9425   49.3552 H   0  0  0  0  0  0  0  0  0  0  0  0
  1  2  1  0
  2  3  1  0
  3  4  2  0
  4  5  1  0
  5  6  2  0
  6  7  1  0
  7  8  2  0
  8  9  1  0
  9 10  1  0
 10 11  1  0
 11 12  2  0
 11 13  1  0
 13 14  2  3
 14 15  1  0
 15 16  1  0
 16 17  2  0
 17 18  1  0
 18 19  2  0
 18 20  2  0
 18 21  1  0
 21 22  1  0
 22 23  1  0
 23 24  1  0
 24 25  1  0
 25 26  2  0
 26 27  1  0
 27 28  2  0
 28 29  1  0
 29 30  2  0
 17 31  1  0
  8  3  1  0
 31 14  1  0
 30 21  1  0
 30 25  1  0
  1 32  1  0
  1 33  1  0
  1 34  1  0
  4 35  1  0
  5 36  1  0
  6 37  1  0
  7 38  1  0
  9 39  1  0
  9 40  1  0
 10 41  1  0
 10 42  1  0
 16 43  1  0
 22 44  1  0
 22 45  1  0
 23 46  1  0
 23 47  1  0
 24 48  1  0
 24 49  1  0
 26 50  1  0
 27 51  1  0
 28 52  1  0
 29 53  1  0
M  CHG  1  15  -1
M  END
>  <UniqueID>  (54) 
53

>  <SMILES>  (54) 
COc1ccccc1CCC(=O)N=c1[n-]cc(S(=O)(=O)N2CCCc3ccccc32)s1

>  <Energy>  (54) 
90.22880927628354

>  <Genealogy>  (54) 
COc1ccccc1CCC(=O)N=c1[n-]cc(S(=O)(=O)N2CCCc3ccccc32)s1 (protonated)
COc1ccccc1CCC(=O)N=c1[n-]cc(S(=O)(=O)N2CCCc3ccccc32)s1 (3D coordinates assigned)
COc1ccccc1CCC(=O)N=c1[n-]cc(S(=O)(=O)N2CCCc3ccccc32)s1 (nonaromatic ring conformer: 90.22880927628354 kcal/mol)

>  <smiles>  (54) 
COc1ccccc1CCC(=O)N=c1[nH]cc(S(=O)(=O)N2CCCc3ccccc32)s1

>  <score_type>  (54) 
oracle

>  <origin>  (54) 
adg

>  <m_score__min__energy>  (54) 
-11.779999999999999

>  <m_primary>  (54) 
energy

$$$$
55:0
     RDKit          3D

 42 44  0  0  0  0  0  0  0  0999 V2000
   60.0909   28.0969   49.5506 H   0  0  0  0  0  0  0  0  0  0  0  0
   59.7160   28.9640   48.9870 C   0  0  0  0  0  0  0  0  0  0  0  0
   58.9360   30.3040   49.6380 S   0  0  0  0  0  0  0  0  0  0  0  0
   58.7460   31.0490   48.1350 C   0  0  0  0  0  0  0  0  0  0  0  0
   58.1450   32.1800   47.9130 N   0  0  0  0  0  0  0  0  0  0  0  0
   58.4670   33.0940   46.8560 C   0  0  0  0  0  0  0  0  0  0  0  0
   59.2620   34.2090   47.1470 C   0  0  0  0  0  0  0  0  0  0  0  0
   59.6355   34.3617   48.1703 H   0  0  0  0  0  0  0  0  0  0  0  0
   59.5840   35.1290   46.1460 C   0  0  0  0  0  0  0  0  0  0  0  0
   60.2203   35.9955   46.3789 H   0  0  0  0  0  0  0  0  0  0  0  0
   59.0980   34.9480   44.8510 C   0  0  0  0  0  0  0  0  0  0  0  0
   59.3624   35.6663   44.0610 H   0  0  0  0  0  0  0  0  0  0  0  0
   58.2770   33.8580   44.5540 C   0  0  0  0  0  0  0  0  0  0  0  0
   57.8921   33.7250   43.5321 H   0  0  0  0  0  0  0  0  0  0  0  0
   57.9390   32.9270   45.5580 C   0  0  0  0  0  0  0  0  0  0  0  0
   57.0760   31.8480   45.3090 O   0  0  0  0  0  0  0  0  0  0  0  0
   57.4080   30.7140   44.5150 C   0  0  0  0  0  0  0  0  0  0  0  0
   57.6560   29.8668   45.1713 H   0  0  0  0  0  0  0  0  0  0  0  0
   56.5503   30.4471   43.8801 H   0  0  0  0  0  0  0  0  0  0  0  0
   58.2742   30.9518   43.8801 H   0  0  0  0  0  0  0  0  0  0  0  0
   59.2500   30.2950   47.1370 N   0  0  0  0  0  0  0  0  0  0  0  0
   59.8040   29.1450   47.6080 C   0  0  0  0  0  0  0  0  0  0  0  0
   60.3900   28.1210   46.6910 C   0  0  0  0  0  0  0  0  0  0  0  0
   61.3145   28.5142   46.2430 H   0  0  0  0  0  0  0  0  0  0  0  0
   60.6213   27.2066   47.2571 H   0  0  0  0  0  0  0  0  0  0  0  0
   59.4520   27.8230   45.6630 O   0  0  0  0  0  0  0  0  0  0  0  0
   58.4700   26.8250   45.7500 C   0  0  0  0  0  0  0  0  0  0  0  0
   58.7850   25.4560   45.7680 C   0  0  0  0  0  0  0  0  0  0  0  0
   59.8358   25.1356   45.7126 H   0  0  0  0  0  0  0  0  0  0  0  0
   57.7700   24.4990   45.8560 C   0  0  0  0  0  0  0  0  0  0  0  0
   58.0311   23.4305   45.8700 H   0  0  0  0  0  0  0  0  0  0  0  0
   56.4170   24.8850   45.9270 C   0  0  0  0  0  0  0  0  0  0  0  0
   55.3430   23.8530   46.0140 C   0  0  0  0  0  0  0  0  0  0  0  0
   54.6920   23.7050   47.0850 O   0  0  0  0  0  0  0  0  0  0  0  0
   54.9810   22.9880   44.8440 C   0  0  0  0  0  0  0  0  0  0  0  0
   54.5801   22.0299   45.2065 H   0  0  0  0  0  0  0  0  0  0  0  0
   54.2202   23.4965   44.2336 H   0  0  0  0  0  0  0  0  0  0  0  0
   55.8772   22.8030   44.2336 H   0  0  0  0  0  0  0  0  0  0  0  0
   56.1090   26.2650   45.9110 C   0  0  0  0  0  0  0  0  0  0  0  0
   54.7930   26.7100   45.9940 O   0  0  0  0  0  0  0  0  0  0  0  0
   57.1300   27.2160   45.8210 C   0  0  0  0  0  0  0  0  0  0  0  0
   56.8753   28.2860   45.8059 H   0  0  0  0  0  0  0  0  0  0  0  0
  1  2  1  0
  2  3  1  0
  3  4  1  0
  4  5  2  0
  5  6  1  0
  6  7  2  0
  7  8  1  0
  7  9  1  0
  9 10  1  0
  9 11  2  0
 11 12  1  0
 11 13  1  0
 13 14  1  0
 13 15  2  0
 15 16  1  0
 16 17  1  0
 17 18  1  0
 17 19  1  0
 17 20  1  0
  4 21  1  0
 21 22  1  0
 22 23  1  0
 23 24  1  0
 23 25  1  0
 23 26  1  0
 26 27  1  0
 27 28  2  0
 28 29  1  0
 28 30  1  0
 30 31  1  0
 30 32  2  0
 32 33  1  0
 33 34  2  0
 33 35  1  0
 35 36  1  0
 35 37  1  0
 35 38  1  0
 32 39  1  0
 39 40  1  0
 39 41  2  0
 41 42  1  0
 22  2  2  0
 41 27  1  0
 15  6  1  0
M  CHG  2  21  -1  40  -1
M  END
>  <UniqueID>  (55) 
54

>  <SMILES>  (55) 
COc1ccccc1/N=c1/[n-]c(COc2ccc(C(C)=O)c([O-])c2)cs1

>  <Energy>  (55) 
82.81677593328968

>  <Genealogy>  (55) 
COc1ccccc1N=c1[n-]c(COc2ccc(C(C)=O)c([O-])c2)cs1 (protonated)
COc1ccccc1/N=c1/[n-]c(COc2ccc(C(C)=O)c([O-])c2)cs1 (cis-trans isomerization)
COc1ccccc1/N=c1/[n-]c(COc2ccc(C(C)=O)c([O-])c2)cs1 (3D coordinates assigned)
COc1ccccc1/N=c1/[n-]c(COc2ccc(C(C)=O)c([O-])c2)cs1 (optimized conformer: 82.81677593328968 kcal/mol)

>  <smiles>  (55) 
COc1ccccc1N=c1[nH]c(COc2ccc(C(C)=O)c(O)c2)cs1

>  <score_type>  (55) 
oracle

>  <origin>  (55) 
adg

>  <m_score__min__energy>  (55) 
-12.98

>  <m_primary>  (55) 
energy

$$$$
56:0
     RDKit          3D

 40 41  0  0  0  0  0  0  0  0999 V2000
   55.3670   29.7130   43.5200 C   0  0  0  0  0  0  0  0  0  0  0  0
   55.5450   29.2240   44.8830 N   0  0  0  0  0  0  0  0  0  0  0  0
   57.2290   28.9310   45.1870 S   0  0  0  0  0  0  0  0  0  0  0  0
   57.8750   28.4240   43.9290 O   0  0  0  0  0  0  0  0  0  0  0  0
   57.3830   27.8860   46.2560 O   0  0  0  0  0  0  0  0  0  0  0  0
   58.0230   30.4250   45.6800 C   0  0  0  0  0  0  0  0  0  0  0  0
   58.9980   30.4130   46.6870 C   0  0  0  0  0  0  0  0  0  0  0  0
   59.6010   31.6060   47.0950 C   0  0  0  0  0  0  0  0  0  0  0  0
   59.2240   32.8260   46.5130 C   0  0  0  0  0  0  0  0  0  0  0  0
   59.8360   34.1210   46.9790 C   0  0  0  0  0  0  0  0  0  0  0  0
   59.9830   34.1320   48.4450 N   0  0  0  0  0  0  0  0  0  0  0  0
   61.3660   34.3940   48.8740 C   0  0  0  0  0  0  0  0  0  0  0  0
   62.2750   33.2550   48.5040 C   0  0  0  0  0  0  0  0  0  0  0  0
   63.1310   33.1670   47.4180 C   0  0  0  0  0  0  0  0  0  0  0  0
   63.3850   34.2120   46.3790 C   0  0  0  0  0  0  0  0  0  0  0  0
   63.7700   31.9840   47.4720 N   0  0  0  0  0  0  0  0  0  0  0  0
   63.3360   31.3330   48.5100 O   0  0  0  0  0  0  0  0  0  0  0  0
   62.4410   32.0450   49.1610 C   0  0  0  0  0  0  0  0  0  0  0  0
   61.7220   31.5730   50.3810 C   0  0  0  0  0  0  0  0  0  0  0  0
   58.2660   32.8310   45.4870 C   0  0  0  0  0  0  0  0  0  0  0  0
   57.6610   31.6380   45.0810 C   0  0  0  0  0  0  0  0  0  0  0  0
   54.9909   30.7463   43.5474 H   0  0  0  0  0  0  0  0  0  0  0  0
   56.3319   29.6879   42.9925 H   0  0  0  0  0  0  0  0  0  0  0  0
   54.6440   29.0735   42.9925 H   0  0  0  0  0  0  0  0  0  0  0  0
   59.2893   29.4622   47.1573 H   0  0  0  0  0  0  0  0  0  0  0  0
   60.3751   31.5886   47.8763 H   0  0  0  0  0  0  0  0  0  0  0  0
   60.8269   34.2388   46.5162 H   0  0  0  0  0  0  0  0  0  0  0  0
   59.1752   34.9496   46.6845 H   0  0  0  0  0  0  0  0  0  0  0  0
   59.3950   34.9160   48.8110 H   0  0  0  0  0  0  0  0  0  0  0  0
   61.7250   35.3125   48.3866 H   0  0  0  0  0  0  0  0  0  0  0  0
   61.3759   34.5063   49.9682 H   0  0  0  0  0  0  0  0  0  0  0  0
   63.6175   35.1684   46.8701 H   0  0  0  0  0  0  0  0  0  0  0  0
   64.2349   33.9060   45.7513 H   0  0  0  0  0  0  0  0  0  0  0  0
   62.4894   34.3303   45.7513 H   0  0  0  0  0  0  0  0  0  0  0  0
   64.4910   31.6310   46.8050 H   0  0  0  0  0  0  0  0  0  0  0  0
   62.2540   31.9222   51.2782 H   0  0  0  0  0  0  0  0  0  0  0  0
   60.6982   31.9753   50.3819 H   0  0  0  0  0  0  0  0  0  0  0  0
   61.6840   30.4737   50.3819 H   0  0  0  0  0  0  0  0  0  0  0  0
   57.9901   33.7781   45.0002 H   0  0  0  0  0  0  0  0  0  0  0  0
   56.8982   31.6521   44.2886 H   0  0  0  0  0  0  0  0  0  0  0  0
  1  2  1  0
  2  3  1  0
  3  4  2  0
  3  5  2  0
  3  6  1  0
  6  7  2  0
  7  8  1  0
  8  9  2  0
  9 10  1  0
 10 11  1  0
 11 12  1  0
 12 13  1  0
 13 14  1  0
 14 15  1  0
 14 16  2  0
 16 17  1  0
 17 18  1  0
 18 19  1  0
  9 20  1  0
 20 21  2  0
 21  6  1  0
 18 13  2  0
  1 22  1  0
  1 23  1  0
  1 24  1  0
  7 25  1  0
  8 26  1  0
 10 27  1  0
 10 28  1  0
 11 29  1  0
 12 30  1  0
 12 31  1  0
 15 32  1  0
 15 33  1  0
 15 34  1  0
 16 35  1  0
 19 36  1  0
 19 37  1  0
 19 38  1  0
 20 39  1  0
 21 40  1  0
M  CHG  2   2  -1  16   1
M  END
>  <UniqueID>  (56) 
55

>  <SMILES>  (56) 
C[N-]S(=O)(=O)c1ccc(CNCc2c(C)[nH+]oc2C)cc1

>  <Energy>  (56) 
61.93002368191136

>  <Genealogy>  (56) 
C[N-]S(=O)(=O)c1ccc(CNCc2c(C)[nH+]oc2C)cc1 (protonated)
C[N-]S(=O)(=O)c1ccc(CNCc2c(C)[nH+]oc2C)cc1 (3D coordinates assigned)
C[N-]S(=O)(=O)c1ccc(CNCc2c(C)[nH+]oc2C)cc1 (optimized conformer: 61.93002368191136 kcal/mol)

>  <smiles>  (56) 
CNS(=O)(=O)c1ccc(CNCc2c(C)noc2C)cc1

>  <score_type>  (56) 
oracle

>  <origin>  (56) 
adg

>  <m_score__min__energy>  (56) 
-8.0700000000000003

>  <m_primary>  (56) 
energy

$$$$
57:0
     RDKit          3D

 58 62  0  0  0  0  0  0  0  0999 V2000
   61.5200   30.1200   51.5710 O   0  0  0  0  0  0  0  0  0  0  0  0
   61.7750   31.3040   51.2230 C   0  0  0  0  0  0  0  0  0  0  0  0
   61.4900   32.3690   52.1390 N   0  0  0  0  0  0  0  0  0  0  0  0
   60.5180   33.4290   51.8980 C   0  0  0  0  0  0  0  0  0  0  0  0
   59.9400   33.2770   50.5130 C   0  0  0  0  0  0  0  0  0  0  0  0
   60.2820   34.2080   49.5200 C   0  0  0  0  0  0  0  0  0  0  0  0
   59.7480   34.1100   48.2360 C   0  0  0  0  0  0  0  0  0  0  0  0
   58.8530   33.0780   47.9080 C   0  0  0  0  0  0  0  0  0  0  0  0
   58.3030   32.9890   46.5290 C   0  0  0  0  0  0  0  0  0  0  0  0
   58.3800   34.0170   45.5820 C   0  0  0  0  0  0  0  0  0  0  0  0
   57.6410   33.4840   44.1690 S   0  0  0  0  0  0  0  0  0  0  0  0
   57.2670   31.9710   44.8070 C   0  0  0  0  0  0  0  0  0  0  0  0
   56.6150   31.0160   44.2100 N   0  0  0  0  0  0  0  0  0  0  0  0
   56.4000   29.6750   44.6780 C   0  0  0  0  0  0  0  0  0  0  0  0
   55.2180   29.3030   44.9010 O   0  0  0  0  0  0  0  0  0  0  0  0
   57.5380   28.7050   44.9190 C   0  0  0  0  0  0  0  0  0  0  0  0
   58.0170   28.6400   46.3720 C   0  0  0  0  0  0  0  0  0  0  0  0
   59.3870   29.1490   45.9490 C   0  0  0  0  0  0  0  0  0  0  0  0
   58.9130   29.2410   44.5070 C   0  0  0  0  0  0  0  0  0  0  0  0
   57.6790   31.8610   46.0860 N   0  0  0  0  0  0  0  0  0  0  0  0
   58.5090   32.1420   48.9000 C   0  0  0  0  0  0  0  0  0  0  0  0
   59.0290   32.2400   50.2030 C   0  0  0  0  0  0  0  0  0  0  0  0
   58.6620   31.2640   51.1960 N   0  0  0  0  0  0  0  0  0  0  0  0
   57.4230   31.3090   51.9210 C   0  0  0  0  0  0  0  0  0  0  0  0
   56.6600   32.3080   51.8180 O   0  0  0  0  0  0  0  0  0  0  0  0
   57.0510   30.2010   52.8130 C   0  0  0  0  0  0  0  0  0  0  0  0
   57.0960   30.2230   54.1940 C   0  0  0  0  0  0  0  0  0  0  0  0
   56.6630   28.9790   54.6000 C   0  0  0  0  0  0  0  0  0  0  0  0
   56.3810   28.2770   53.4460 C   0  0  0  0  0  0  0  0  0  0  0  0
   56.6210   29.0320   52.3980 O   0  0  0  0  0  0  0  0  0  0  0  0
   62.3750   31.5510   49.9000 C   0  0  0  0  0  0  0  0  0  0  0  0
   61.8170   30.9590   48.7560 C   0  0  0  0  0  0  0  0  0  0  0  0
   62.3730   31.1990   47.4950 C   0  0  0  0  0  0  0  0  0  0  0  0
   63.4800   32.0440   47.3680 C   0  0  0  0  0  0  0  0  0  0  0  0
   64.0270   32.6540   48.5010 C   0  0  0  0  0  0  0  0  0  0  0  0
   63.4750   32.4140   49.7620 C   0  0  0  0  0  0  0  0  0  0  0  0
   59.7103   33.3616   52.6417 H   0  0  0  0  0  0  0  0  0  0  0  0
   61.0142   34.4071   51.9825 H   0  0  0  0  0  0  0  0  0  0  0  0
   60.9796   35.0246   49.7577 H   0  0  0  0  0  0  0  0  0  0  0  0
   60.0305   34.8487   47.4714 H   0  0  0  0  0  0  0  0  0  0  0  0
   58.8436   35.0026   45.7357 H   0  0  0  0  0  0  0  0  0  0  0  0
   57.1084   27.8175   44.4313 H   0  0  0  0  0  0  0  0  0  0  0  0
   57.4781   29.3159   47.0523 H   0  0  0  0  0  0  0  0  0  0  0  0
   57.9249   27.7058   46.9453 H   0  0  0  0  0  0  0  0  0  0  0  0
   59.6624   30.1170   46.3931 H   0  0  0  0  0  0  0  0  0  0  0  0
   60.2931   28.5781   46.2001 H   0  0  0  0  0  0  0  0  0  0  0  0
   58.8932   30.2652   44.1061 H   0  0  0  0  0  0  0  0  0  0  0  0
   59.4819   28.7503   43.7035 H   0  0  0  0  0  0  0  0  0  0  0  0
   57.8217   31.3196   48.6525 H   0  0  0  0  0  0  0  0  0  0  0  0
   59.3550   30.5270   51.4550 H   0  0  0  0  0  0  0  0  0  0  0  0
   57.4116   31.0590   54.8355 H   0  0  0  0  0  0  0  0  0  0  0  0
   56.5626   28.6188   55.6345 H   0  0  0  0  0  0  0  0  0  0  0  0
   56.0111   27.2417   53.4091 H   0  0  0  0  0  0  0  0  0  0  0  0
   60.9388   30.3036   48.8515 H   0  0  0  0  0  0  0  0  0  0  0  0
   61.9394   30.7230   46.6032 H   0  0  0  0  0  0  0  0  0  0  0  0
   63.9203   32.2287   46.3770 H   0  0  0  0  0  0  0  0  0  0  0  0
   64.8935   33.3240   48.3995 H   0  0  0  0  0  0  0  0  0  0  0  0
   63.9032   32.9025   50.6497 H   0  0  0  0  0  0  0  0  0  0  0  0
  1  2  2  0
  2  3  1  0
  3  4  1  0
  4  5  1  0
  5  6  2  0
  6  7  1  0
  7  8  2  0
  8  9  1  0
  9 10  2  0
 10 11  1  0
 11 12  1  0
 12 13  2  3
 13 14  1  0
 14 15  2  0
 14 16  1  0
 16 17  1  0
 17 18  1  0
 18 19  1  0
 12 20  1  0
  8 21  1  0
 21 22  2  0
 22 23  1  0
 23 24  1  0
 24 25  2  0
 24 26  1  0
 26 27  2  0
 27 28  1  0
 28 29  2  0
 29 30  1  0
  2 31  1  0
 31 32  2  0
 32 33  1  0
 33 34  2  0
 34 35  1  0
 35 36  2  0
 22  5  1  0
 30 26  1  0
 36 31  1  0
 20  9  1  0
 19 16  1  0
  4 37  1  0
  4 38  1  0
  6 39  1  0
  7 40  1  0
 10 41  1  0
 16 42  1  0
 17 43  1  0
 17 44  1  0
 18 45  1  0
 18 46  1  0
 19 47  1  0
 19 48  1  0
 21 49  1  0
 23 50  1  0
 27 51  1  0
 28 52  1  0
 29 53  1  0
 32 54  1  0
 33 55  1  0
 34 56  1  0
 35 57  1  0
 36 58  1  0
M  CHG  2   3  -1  20  -1
M  END
>  <UniqueID>  (57) 
56

>  <SMILES>  (57) 
O=C([N-]Cc1ccc(-c2csc(=NC(=O)C3CCC3)[n-]2)cc1NC(=O)c1ccco1)c1ccccc1

>  <Energy>  (57) 
195.29046872093392

>  <Genealogy>  (57) 
O=C([N-]Cc1ccc(-c2csc(=NC(=O)C3CCC3)[n-]2)cc1NC(=O)c1ccco1)c1ccccc1 (protonated)
O=C([N-]Cc1ccc(-c2csc(=NC(=O)C3CCC3)[n-]2)cc1NC(=O)c1ccco1)c1ccccc1 (3D coordinates assigned)
O=C([N-]Cc1ccc(-c2csc(=NC(=O)C3CCC3)[n-]2)cc1NC(=O)c1ccco1)c1ccccc1 (nonaromatic ring conformer: 195.29046872093392 kcal/mol)

>  <smiles>  (57) 
O=C(NCc1ccc(-c2csc(=NC(=O)C3CCC3)[nH]2)cc1NC(=O)c1ccco1)c1ccccc1

>  <score_type>  (57) 
oracle

>  <origin>  (57) 
adg

>  <m_score__min__energy>  (57) 
-12.92

>  <m_primary>  (57) 
energy

$$$$
58:0
     RDKit          3D

 48 50  0  0  0  0  0  0  0  0999 V2000
   58.8600   28.3700   48.1060 C   0  0  0  0  0  0  0  0  0  0  0  0
   58.6180   28.9840   46.9330 C   0  0  0  0  0  0  0  0  0  0  0  0
   58.7150   30.3860   46.9080 C   0  0  0  0  0  0  0  0  0  0  0  0
   58.2790   31.1410   45.8070 C   0  0  0  0  0  0  0  0  0  0  0  0
   58.4330   32.6520   45.8620 C   0  0  0  0  0  0  0  0  0  0  0  0
   59.5040   33.0670   46.8430 C   0  0  0  0  0  0  0  0  0  0  0  0
   60.8270   33.2550   46.4170 C   0  0  0  0  0  0  0  0  0  0  0  0
   61.8170   33.6570   47.3260 C   0  0  0  0  0  0  0  0  0  0  0  0
   63.2390   33.8120   46.8720 C   0  0  0  0  0  0  0  0  0  0  0  0
   61.4830   33.8460   48.6740 C   0  0  0  0  0  0  0  0  0  0  0  0
   60.1590   33.6800   49.1080 C   0  0  0  0  0  0  0  0  0  0  0  0
   59.8100   33.8600   50.5560 C   0  0  0  0  0  0  0  0  0  0  0  0
   59.1770   33.2770   48.1920 C   0  0  0  0  0  0  0  0  0  0  0  0
   57.6310   30.4740   44.7380 C   0  0  0  0  0  0  0  0  0  0  0  0
   57.0040   31.2050   43.5690 C   0  0  0  0  0  0  0  0  0  0  0  0
   56.4030   30.2250   42.5640 C   0  0  0  0  0  0  0  0  0  0  0  0
   57.6030   29.0710   44.7230 C   0  0  0  0  0  0  0  0  0  0  0  0
   58.1660   28.3010   45.7610 C   0  0  0  0  0  0  0  0  0  0  0  0
   58.2550   26.9620   45.5490 C   0  0  0  0  0  0  0  0  0  0  0  0
   57.4630   25.9150   46.2200 C   0  0  0  0  0  0  0  0  0  0  0  0
   58.0160   24.9110   46.9220 N   0  0  0  0  0  0  0  0  0  0  0  0
   56.9480   24.2390   47.4030 C   0  0  0  0  0  0  0  0  0  0  0  0
   57.0610   23.2060   48.1130 O   0  0  0  0  0  0  0  0  0  0  0  0
   55.7510   24.7660   47.0720 N   0  0  0  0  0  0  0  0  0  0  0  0
   56.0880   25.8360   46.3340 C   0  0  0  0  0  0  0  0  0  0  0  0
   55.1540   26.7290   45.8160 O   0  0  0  0  0  0  0  0  0  0  0  0
   58.7967   27.2741   48.1765 H   0  0  0  0  0  0  0  0  0  0  0  0
   59.1211   28.9641   48.9942 H   0  0  0  0  0  0  0  0  0  0  0  0
   59.1450   30.9070   47.7761 H   0  0  0  0  0  0  0  0  0  0  0  0
   58.7038   33.0198   44.8613 H   0  0  0  0  0  0  0  0  0  0  0  0
   57.4770   33.0832   46.1939 H   0  0  0  0  0  0  0  0  0  0  0  0
   61.0903   33.0860   45.3624 H   0  0  0  0  0  0  0  0  0  0  0  0
   63.8983   33.8839   47.7496 H   0  0  0  0  0  0  0  0  0  0  0  0
   63.5278   32.9400   46.2668 H   0  0  0  0  0  0  0  0  0  0  0  0
   63.3332   34.7257   46.2668 H   0  0  0  0  0  0  0  0  0  0  0  0
   62.2638   34.1263   49.3964 H   0  0  0  0  0  0  0  0  0  0  0  0
   60.6143   33.4452   51.1813 H   0  0  0  0  0  0  0  0  0  0  0  0
   59.6916   34.9316   50.7742 H   0  0  0  0  0  0  0  0  0  0  0  0
   58.8682   33.3352   50.7742 H   0  0  0  0  0  0  0  0  0  0  0  0
   58.1424   33.1242   48.5330 H   0  0  0  0  0  0  0  0  0  0  0  0
   56.2095   31.8669   43.9440 H   0  0  0  0  0  0  0  0  0  0  0  0
   57.7869   31.7880   43.0620 H   0  0  0  0  0  0  0  0  0  0  0  0
   55.9018   29.4078   43.1035 H   0  0  0  0  0  0  0  0  0  0  0  0
   55.6715   30.7502   41.9323 H   0  0  0  0  0  0  0  0  0  0  0  0
   57.2027   29.8111   41.9323 H   0  0  0  0  0  0  0  0  0  0  0  0
   57.1271   28.5563   43.8753 H   0  0  0  0  0  0  0  0  0  0  0  0
   58.9904   26.6259   44.8032 H   0  0  0  0  0  0  0  0  0  0  0  0
   54.7520   27.4680   46.3790 H   0  0  0  0  0  0  0  0  0  0  0  0
  1  2  2  0
  2  3  1  0
  3  4  2  0
  4  5  1  0
  5  6  1  0
  6  7  2  0
  7  8  1  0
  8  9  1  0
  8 10  2  0
 10 11  1  0
 11 12  1  0
 11 13  2  0
  4 14  1  0
 14 15  1  0
 15 16  1  0
 14 17  2  0
 17 18  1  0
 18 19  2  3
 19 20  1  0
 20 21  1  0
 21 22  1  0
 22 23  2  0
 22 24  1  0
 24 25  1  0
 25 26  1  0
 18  2  1  0
 25 20  2  0
 13  6  1  0
  1 27  1  0
  1 28  1  0
  3 29  1  0
  5 30  1  0
  5 31  1  0
  7 32  1  0
  9 33  1  0
  9 34  1  0
  9 35  1  0
 10 36  1  0
 12 37  1  0
 12 38  1  0
 12 39  1  0
 13 40  1  0
 15 41  1  0
 15 42  1  0
 16 43  1  0
 16 44  1  0
 16 45  1  0
 17 46  1  0
 19 47  1  0
 26 48  1  0
M  CHG  2  21  -1  24  -1
M  END
>  <UniqueID>  (58) 
57

>  <SMILES>  (58) 
C=c1cc(Cc2cc(C)cc(C)c2)c(CC)cc1=Cc1[n-]c(=O)[n-]c1O

>  <Energy>  (58) 
98.07809006058233

>  <Genealogy>  (58) 
C=c1cc(Cc2cc(C)cc(C)c2)c(CC)cc1=Cc1[n-]c(=O)[n-]c1O (protonated)
C=c1cc(Cc2cc(C)cc(C)c2)c(CC)cc1=Cc1[n-]c(=O)[n-]c1O (3D coordinates assigned)
C=c1cc(Cc2cc(C)cc(C)c2)c(CC)cc1=Cc1[n-]c(=O)[n-]c1O (optimized conformer: 98.07809006058233 kcal/mol)

>  <smiles>  (58) 
C=c1cc(Cc2cc(C)cc(C)c2)c(CC)cc1=Cc1[nH]c(=O)[nH]c1O

>  <score_type>  (58) 
oracle

>  <origin>  (58) 
adg

>  <m_score__min__energy>  (58) 
-13.82

>  <m_primary>  (58) 
energy

$$$$
59:0
     RDKit          3D

 42 43  0  0  0  0  0  0  0  0999 V2000
   58.6160   30.6730   47.8210 C   0  0  0  0  0  0  0  0  0  0  0  0
   58.3530   30.6460   46.5050 C   0  0  0  0  0  0  0  0  0  0  0  0
   58.3890   29.5290   45.6540 C   0  0  0  0  0  0  0  0  0  0  0  0
   58.5400   28.2160   45.9180 C   0  0  0  0  0  0  0  0  0  0  0  0
   57.4530   27.2270   45.9990 C   0  0  0  0  0  0  0  0  0  0  0  0
   57.5570   26.0340   46.6130 N   0  0  0  0  0  0  0  0  0  0  0  0
   56.2970   25.5510   46.5730 C   0  0  0  0  0  0  0  0  0  0  0  0
   55.9870   24.4270   47.0450 O   0  0  0  0  0  0  0  0  0  0  0  0
   55.3940   26.3740   45.9980 N   0  0  0  0  0  0  0  0  0  0  0  0
   56.1370   27.4370   45.6520 C   0  0  0  0  0  0  0  0  0  0  0  0
   55.6170   28.5690   45.0330 O   0  0  0  0  0  0  0  0  0  0  0  0
   58.1810   30.0120   44.3720 C   0  0  0  0  0  0  0  0  0  0  0  0
   57.9750   31.3700   44.4830 C   0  0  0  0  0  0  0  0  0  0  0  0
   57.6170   32.2700   43.3390 C   0  0  0  0  0  0  0  0  0  0  0  0
   58.0800   31.7580   45.7730 N   0  0  0  0  0  0  0  0  0  0  0  0
   57.9950   33.1160   46.2360 C   0  0  0  0  0  0  0  0  0  0  0  0
   57.1550   33.8980   45.7160 O   0  0  0  0  0  0  0  0  0  0  0  0
   58.9720   33.6490   47.2500 C   0  0  0  0  0  0  0  0  0  0  0  0
   60.0650   34.4930   46.5820 C   0  0  0  0  0  0  0  0  0  0  0  0
   61.3390   33.7060   46.3700 C   0  0  0  0  0  0  0  0  0  0  0  0
   62.2300   33.4600   47.3530 C   0  0  0  0  0  0  0  0  0  0  0  0
   63.4670   32.6290   47.1110 C   0  0  0  0  0  0  0  0  0  0  0  0
   61.9680   34.0340   48.7230 C   0  0  0  0  0  0  0  0  0  0  0  0
   58.5513   31.6208   48.3755 H   0  0  0  0  0  0  0  0  0  0  0  0
   58.8962   29.7473   48.3450 H   0  0  0  0  0  0  0  0  0  0  0  0
   59.5641   27.8521   46.0876 H   0  0  0  0  0  0  0  0  0  0  0  0
   54.7290   28.9630   45.3170 H   0  0  0  0  0  0  0  0  0  0  0  0
   58.1804   29.4235   43.4427 H   0  0  0  0  0  0  0  0  0  0  0  0
   57.2369   33.2256   43.7293 H   0  0  0  0  0  0  0  0  0  0  0  0
   58.5102   32.4544   42.7241 H   0  0  0  0  0  0  0  0  0  0  0  0
   56.8412   31.7905   42.7241 H   0  0  0  0  0  0  0  0  0  0  0  0
   58.4303   34.2737   47.9754 H   0  0  0  0  0  0  0  0  0  0  0  0
   59.4511   32.7955   47.7520 H   0  0  0  0  0  0  0  0  0  0  0  0
   59.6970   34.8425   45.6061 H   0  0  0  0  0  0  0  0  0  0  0  0
   60.2949   35.3386   47.2469 H   0  0  0  0  0  0  0  0  0  0  0  0
   61.5498   33.3145   45.3639 H   0  0  0  0  0  0  0  0  0  0  0  0
   63.9054   32.3345   48.0759 H   0  0  0  0  0  0  0  0  0  0  0  0
   63.1976   31.7280   46.5404 H   0  0  0  0  0  0  0  0  0  0  0  0
   64.1993   33.2191   46.5404 H   0  0  0  0  0  0  0  0  0  0  0  0
   62.2955   33.3166   49.4899 H   0  0  0  0  0  0  0  0  0  0  0  0
   62.5258   34.9750   48.8391 H   0  0  0  0  0  0  0  0  0  0  0  0
   60.8917   34.2291   48.8391 H   0  0  0  0  0  0  0  0  0  0  0  0
  1  2  2  0
  2  3  1  0
  3  4  2  3
  4  5  1  0
  5  6  1  0
  6  7  1  0
  7  8  2  0
  7  9  1  0
  9 10  1  0
 10 11  1  0
  3 12  1  0
 12 13  2  0
 13 14  1  0
 13 15  1  0
 15 16  1  0
 16 17  2  0
 16 18  1  0
 18 19  1  0
 19 20  1  0
 20 21  2  3
 21 22  1  0
 21 23  1  0
 15  2  1  0
 10  5  2  0
  1 24  1  0
  1 25  1  0
  4 26  1  0
 11 27  1  0
 12 28  1  0
 14 29  1  0
 14 30  1  0
 14 31  1  0
 18 32  1  0
 18 33  1  0
 19 34  1  0
 19 35  1  0
 20 36  1  0
 22 37  1  0
 22 38  1  0
 22 39  1  0
 23 40  1  0
 23 41  1  0
 23 42  1  0
M  CHG  2   6  -1   9  -1
M  END
>  <UniqueID>  (59) 
58

>  <SMILES>  (59) 
C=c1c(=Cc2[n-]c(=O)[n-]c2O)cc(C)n1C(=O)CCC=C(C)C

>  <Energy>  (59) 
106.752789978083

>  <Genealogy>  (59) 
C=c1c(=Cc2[n-]c(=O)[n-]c2O)cc(C)n1C(=O)CCC=C(C)C (protonated)
C=c1c(=Cc2[n-]c(=O)[n-]c2O)cc(C)n1C(=O)CCC=C(C)C (3D coordinates assigned)
C=c1c(=Cc2[n-]c(=O)[n-]c2O)cc(C)n1C(=O)CCC=C(C)C (optimized conformer: 106.752789978083 kcal/mol)

>  <smiles>  (59) 
C=c1c(=Cc2[nH]c(=O)[nH]c2O)cc(C)n1C(=O)CCC=C(C)C

>  <score_type>  (59) 
oracle

>  <origin>  (59) 
adg

>  <m_score__min__energy>  (59) 
-12.25

>  <m_primary>  (59) 
energy

$$$$
60:0
     RDKit          3D

 64 67  0  0  0  0  0  0  0  0999 V2000
   56.4910   22.5860   41.5390 H   0  0  0  0  0  0  0  0  0  0  0  0
   55.8730   22.1350   42.2520 N   0  0  0  0  0  0  0  0  0  0  0  0
   56.3480   21.8850   43.5750 C   0  0  0  0  0  0  0  0  0  0  0  0
   56.2310   20.7330   44.0720 O   0  0  0  0  0  0  0  0  0  0  0  0
   56.9570   22.9840   44.3500 C   0  0  0  0  0  0  0  0  0  0  0  0
   58.2130   23.0270   44.4520 O   0  0  0  0  0  0  0  0  0  0  0  0
   56.1360   24.0480   45.0490 C   0  0  2  0  0  0  0  0  0  0  0  0
   55.3904   24.4115   44.3266 H   0  0  0  0  0  0  0  0  0  0  0  0
   57.0030   25.1570   45.4590 N   0  0  0  0  0  0  0  0  0  0  0  0
   58.0340   25.0070   45.5120 H   0  0  0  0  0  0  0  0  0  0  0  0
   56.4580   26.3930   45.9550 C   0  0  0  0  0  0  0  0  0  0  0  0
   55.2100   26.5530   46.0180 O   0  0  0  0  0  0  0  0  0  0  0  0
   57.3320   27.4520   46.4890 C   0  0  0  0  0  0  0  0  0  0  0  0
   57.2676   27.6649   47.5663 H   0  0  0  0  0  0  0  0  0  0  0  0
   58.1990   28.1770   45.7690 C   0  0  0  0  0  0  0  0  0  0  0  0
   59.2630   27.9071   45.8405 H   0  0  0  0  0  0  0  0  0  0  0  0
   57.8450   29.3100   44.8860 C   0  0  0  0  0  0  0  0  0  0  0  0
   56.7740   29.2270   43.9780 C   0  0  0  0  0  0  0  0  0  0  0  0
   56.2239   28.2812   43.8646 H   0  0  0  0  0  0  0  0  0  0  0  0
   56.4060   30.3420   43.2190 C   0  0  0  0  0  0  0  0  0  0  0  0
   55.5717   30.2691   42.5059 H   0  0  0  0  0  0  0  0  0  0  0  0
   57.0950   31.5480   43.3640 C   0  0  0  0  0  0  0  0  0  0  0  0
   56.8107   32.4182   42.7542 H   0  0  0  0  0  0  0  0  0  0  0  0
   58.1490   31.6540   44.2850 C   0  0  0  0  0  0  0  0  0  0  0  0
   58.8520   32.9700   44.4730 C   0  0  0  0  0  0  0  0  0  0  0  0
   59.6000   32.8680   45.2730 H   0  0  0  0  0  0  0  0  0  0  0  0
   59.3385   33.2477   43.5263 H   0  0  0  0  0  0  0  0  0  0  0  0
   57.6630   34.2840   44.9280 S   0  0  0  0  0  0  0  0  0  0  0  0
   57.0370   33.5030   46.4580 C   0  0  0  0  0  0  0  0  0  0  0  0
   56.3736   34.2082   46.9801 H   0  0  0  0  0  0  0  0  0  0  0  0
   56.4832   32.5902   46.1930 H   0  0  0  0  0  0  0  0  0  0  0  0
   58.1740   33.1380   47.3570 C   0  0  0  0  0  0  0  0  0  0  0  0
   59.4270   33.4500   47.1160 O   0  0  0  0  0  0  0  0  0  0  0  0
   60.1660   32.9760   48.0910 C   0  0  0  0  0  0  0  0  0  0  0  0
   61.6280   33.1380   48.1740 C   0  0  0  0  0  0  0  0  0  0  0  0
   62.2250   33.3050   49.3880 N   0  0  0  0  0  0  0  0  0  0  0  0
   63.5690   33.4710   49.5130 C   0  0  0  0  0  0  0  0  0  0  0  0
   64.0165   33.6029   50.5092 H   0  0  0  0  0  0  0  0  0  0  0  0
   64.3810   33.4740   48.3770 C   0  0  0  0  0  0  0  0  0  0  0  0
   65.4685   33.6108   48.4703 H   0  0  0  0  0  0  0  0  0  0  0  0
   63.7950   33.3010   47.1200 C   0  0  0  0  0  0  0  0  0  0  0  0
   64.4220   33.2988   46.2162 H   0  0  0  0  0  0  0  0  0  0  0  0
   62.4140   33.1310   47.0120 C   0  0  0  0  0  0  0  0  0  0  0  0
   61.9466   32.9929   46.0259 H   0  0  0  0  0  0  0  0  0  0  0  0
   59.3670   32.3210   49.0130 C   0  0  0  0  0  0  0  0  0  0  0  0
   59.6941   31.8198   49.9359 H   0  0  0  0  0  0  0  0  0  0  0  0
   58.0780   32.4260   48.5370 C   0  0  0  0  0  0  0  0  0  0  0  0
   57.1637   32.0264   48.9999 H   0  0  0  0  0  0  0  0  0  0  0  0
   58.5160   30.5320   45.0450 C   0  0  0  0  0  0  0  0  0  0  0  0
   59.3375   30.6117   45.7721 H   0  0  0  0  0  0  0  0  0  0  0  0
   55.3380   23.5000   46.2530 C   0  0  0  0  0  0  0  0  0  0  0  0
   55.7269   22.5053   46.5162 H   0  0  0  0  0  0  0  0  0  0  0  0
   55.4551   24.2019   47.0919 H   0  0  0  0  0  0  0  0  0  0  0  0
   53.8680   23.3830   45.9370 C   0  0  0  0  0  0  0  0  0  0  0  0
   53.0370   22.5800   46.7360 C   0  0  0  0  0  0  0  0  0  0  0  0
   53.4661   22.0126   47.5750 H   0  0  0  0  0  0  0  0  0  0  0  0
   51.6660   22.4990   46.4690 C   0  0  0  0  0  0  0  0  0  0  0  0
   51.0206   21.8667   47.0963 H   0  0  0  0  0  0  0  0  0  0  0  0
   51.1160   23.2200   45.4070 C   0  0  0  0  0  0  0  0  0  0  0  0
   50.0383   23.1534   45.1970 H   0  0  0  0  0  0  0  0  0  0  0  0
   51.9350   24.0270   44.6100 C   0  0  0  0  0  0  0  0  0  0  0  0
   51.5009   24.5949   43.7739 H   0  0  0  0  0  0  0  0  0  0  0  0
   53.3060   24.1120   44.8760 C   0  0  0  0  0  0  0  0  0  0  0  0
   53.9464   24.7524   44.2517 H   0  0  0  0  0  0  0  0  0  0  0  0
  1  2  1  0
  2  3  1  0
  3  4  2  0
  3  5  1  0
  5  6  2  0
  5  7  1  0
  7  8  1  6
  7  9  1  0
  9 10  1  0
  9 11  1  0
 11 12  2  0
 11 13  1  0
 13 14  1  0
 13 15  2  0
 15 16  1  0
 15 17  1  0
 17 18  2  0
 18 19  1  0
 18 20  1  0
 20 21  1  0
 20 22  2  0
 22 23  1  0
 22 24  1  0
 24 25  1  0
 25 26  1  0
 25 27  1  0
 25 28  1  0
 28 29  1  0
 29 30  1  0
 29 31  1  0
 29 32  1  0
 32 33  1  0
 33 34  1  0
 34 35  1  0
 35 36  2  0
 36 37  1  0
 37 38  1  0
 37 39  2  0
 39 40  1  0
 39 41  1  0
 41 42  1  0
 41 43  2  0
 43 44  1  0
 34 45  2  0
 45 46  1  0
 45 47  1  0
 47 48  1  0
 24 49  2  0
 49 50  1  0
  7 51  1  0
 51 52  1  0
 51 53  1  0
 51 54  1  0
 54 55  2  0
 55 56  1  0
 55 57  1  0
 57 58  1  0
 57 59  2  0
 59 60  1  0
 59 61  1  0
 61 62  1  0
 61 63  2  0
 63 64  1  0
 49 17  1  0
 63 54  1  0
 47 32  2  0
 43 35  1  0
M  CHG  1   2  -1
M  END
>  <UniqueID>  (60) 
59

>  <SMILES>  (60) 
[NH-]C(=O)C(=O)[C@@H](Cc1ccccc1)NC(=O)/C=C\c1cccc(CSCc2ccc(-c3ccccn3)o2)c1

>  <Energy>  (60) 
92.29025223188206

>  <Genealogy>  (60) 
[NH-]C(=O)C(=O)C(Cc1ccccc1)NC(=O)C=Cc1cccc(CSCc2ccc(-c3ccccn3)o2)c1 (protonated)
[NH-]C(=O)C(=O)[C@@H](Cc1ccccc1)NC(=O)C=Cc1cccc(CSCc2ccc(-c3ccccn3)o2)c1 (chirality)
[NH-]C(=O)C(=O)[C@@H](Cc1ccccc1)NC(=O)/C=C\c1cccc(CSCc2ccc(-c3ccccn3)o2)c1 (cis-trans isomerization)
[NH-]C(=O)C(=O)[C@@H](Cc1ccccc1)NC(=O)/C=C\c1cccc(CSCc2ccc(-c3ccccn3)o2)c1 (3D coordinates assigned)
[NH-]C(=O)C(=O)[C@@H](Cc1ccccc1)NC(=O)/C=C\c1cccc(CSCc2ccc(-c3ccccn3)o2)c1 (optimized conformer: 92.29025223188206 kcal/mol)

>  <smiles>  (60) 
NC(=O)C(=O)C(Cc1ccccc1)NC(=O)C=Cc1cccc(CSCc2ccc(-c3ccccn3)o2)c1

>  <score_type>  (60) 
oracle

>  <origin>  (60) 
adg

>  <m_score__min__energy>  (60) 
-13.07

>  <m_primary>  (60) 
energy

$$$$
61:0
     RDKit          3D

 41 42  0  0  0  0  0  0  0  0999 V2000
   54.7660   28.9450   45.3890 H   0  0  0  0  0  0  0  0  0  0  0  0
   55.6570   28.4940   45.2200 O   0  0  0  0  0  0  0  0  0  0  0  0
   55.9340   27.2260   45.7240 C   0  0  0  0  0  0  0  0  0  0  0  0
   55.0000   26.2750   45.8880 N   0  0  0  0  0  0  0  0  0  0  0  0
   55.7150   25.2360   46.3710 C   0  0  0  0  0  0  0  0  0  0  0  0
   55.1920   24.1270   46.6560 O   0  0  0  0  0  0  0  0  0  0  0  0
   57.0360   25.4740   46.5140 N   0  0  0  0  0  0  0  0  0  0  0  0
   57.1650   26.7560   46.1230 C   0  0  0  0  0  0  0  0  0  0  0  0
   58.4530   27.4550   45.9740 C   0  0  0  0  0  0  0  0  0  0  0  0
   59.1122   27.1271   45.1567 H   0  0  0  0  0  0  0  0  0  0  0  0
   58.8920   28.4620   46.7540 C   0  0  0  0  0  0  0  0  0  0  0  0
   58.5320   28.5880   48.0850 C   0  0  0  0  0  0  0  0  0  0  0  0
   57.9163   27.8857   48.6661 H   0  0  0  0  0  0  0  0  0  0  0  0
   59.0920   29.7610   48.5430 C   0  0  0  0  0  0  0  0  0  0  0  0
   58.9200   30.2980   49.9320 C   0  0  0  0  0  0  0  0  0  0  0  0
   59.1710   29.5142   50.6618 H   0  0  0  0  0  0  0  0  0  0  0  0
   59.5867   31.1609   50.0767 H   0  0  0  0  0  0  0  0  0  0  0  0
   57.8760   30.6129   50.0767 H   0  0  0  0  0  0  0  0  0  0  0  0
   59.7990   30.3650   47.5600 N   0  0  0  0  0  0  0  0  0  0  0  0
   60.5890   31.5960   47.7140 C   0  0  0  0  0  0  0  0  0  0  0  0
   60.9378   31.6746   48.7543 H   0  0  0  0  0  0  0  0  0  0  0  0
   61.4480   31.5557   47.0281 H   0  0  0  0  0  0  0  0  0  0  0  0
   59.7400   32.8240   47.3730 C   0  0  0  0  0  0  0  0  0  0  0  0
   58.6751   32.5678   47.4747 H   0  0  0  0  0  0  0  0  0  0  0  0
   60.0005   33.6401   48.0630 H   0  0  0  0  0  0  0  0  0  0  0  0
   59.9930   33.2470   46.0460 O   0  0  0  0  0  0  0  0  0  0  0  0
   58.8140   33.2250   45.2590 C   0  0  0  0  0  0  0  0  0  0  0  0
   58.5485   34.2538   44.9743 H   0  0  0  0  0  0  0  0  0  0  0  0
   58.9961   32.6199   44.3586 H   0  0  0  0  0  0  0  0  0  0  0  0
   57.6630   32.6080   46.0470 C   0  0  0  0  0  0  0  0  0  0  0  0
   58.0493   32.1786   46.9832 H   0  0  0  0  0  0  0  0  0  0  0  0
   56.9200   33.3859   46.2770 H   0  0  0  0  0  0  0  0  0  0  0  0
   57.0540   31.5910   45.2800 O   0  0  0  0  0  0  0  0  0  0  0  0
   57.6980   31.5000   44.0290 C   0  0  0  0  0  0  0  0  0  0  0  0
   58.7766   31.3476   44.1821 H   0  0  0  0  0  0  0  0  0  0  0  0
   57.2843   30.6514   43.4645 H   0  0  0  0  0  0  0  0  0  0  0  0
   57.5356   32.4300   43.4645 H   0  0  0  0  0  0  0  0  0  0  0  0
   59.7270   29.5550   46.4690 C   0  0  0  0  0  0  0  0  0  0  0  0
   60.4720   29.7300   45.3660 C   0  0  0  0  0  0  0  0  0  0  0  0
   61.0893   30.6339   45.2570 H   0  0  0  0  0  0  0  0  0  0  0  0
   60.4651   28.9695   44.5713 H   0  0  0  0  0  0  0  0  0  0  0  0
  1  2  1  0
  2  3  1  0
  3  4  1  0
  4  5  1  0
  5  6  2  0
  5  7  1  0
  7  8  1  0
  8  9  1  0
  9 10  1  0
  9 11  2  0
 11 12  1  0
 12 13  1  0
 12 14  2  0
 14 15  1  0
 15 16  1  0
 15 17  1  0
 15 18  1  0
 14 19  1  0
 19 20  1  0
 20 21  1  0
 20 22  1  0
 20 23  1  0
 23 24  1  0
 23 25  1  0
 23 26  1  0
 26 27  1  0
 27 28  1  0
 27 29  1  0
 27 30  1  0
 30 31  1  0
 30 32  1  0
 30 33  1  0
 33 34  1  0
 34 35  1  0
 34 36  1  0
 34 37  1  0
 19 38  1  0
 38 39  2  0
 39 40  1  0
 39 41  1  0
  8  3  2  0
 38 11  1  0
M  CHG  2   4  -1   7  -1
M  END
>  <UniqueID>  (61) 
60

>  <SMILES>  (61) 
C=c1/c(=C\c2[n-]c(=O)[n-]c2O)cc(C)n1CCOCCOC

>  <Energy>  (61) 
107.68438643153895

>  <Genealogy>  (61) 
C=c1c(=Cc2[n-]c(=O)[n-]c2O)cc(C)n1CCOCCOC (protonated)
C=c1/c(=C\c2[n-]c(=O)[n-]c2O)cc(C)n1CCOCCOC (cis-trans isomerization)
C=c1/c(=C\c2[n-]c(=O)[n-]c2O)cc(C)n1CCOCCOC (3D coordinates assigned)
C=c1/c(=C\c2[n-]c(=O)[n-]c2O)cc(C)n1CCOCCOC (optimized conformer: 107.68438643153895 kcal/mol)

>  <smiles>  (61) 
C=c1c(=Cc2[nH]c(=O)[nH]c2O)cc(C)n1CCOCCOC

>  <score_type>  (61) 
oracle

>  <origin>  (61) 
adg

>  <m_score__min__energy>  (61) 
-10.449999999999999

>  <m_primary>  (61) 
energy

$$$$
62:0
     RDKit          3D

 53 56  0  0  0  0  0  0  0  0999 V2000
   61.1860   28.6150   44.6720 C   0  0  0  0  0  0  0  0  0  0  0  0
   60.2960   29.0740   45.5620 C   0  0  0  0  0  0  0  0  0  0  0  0
   60.6510   30.1120   46.4930 N   0  0  0  0  0  0  0  0  0  0  0  0
   60.1230   30.2320   47.8250 C   0  0  0  0  0  0  0  0  0  0  0  0
   60.3730   29.2490   48.7970 C   0  0  0  0  0  0  0  0  0  0  0  0
   59.8630   29.3890   50.0920 C   0  0  0  0  0  0  0  0  0  0  0  0
   59.0880   30.5120   50.4290 C   0  0  0  0  0  0  0  0  0  0  0  0
   58.5540   30.6890   51.7150 O   0  0  0  0  0  0  0  0  0  0  0  0
   57.3000   30.2310   52.1480 C   0  0  0  0  0  0  0  0  0  0  0  0
   56.1510   30.8290   51.6220 C   0  0  0  0  0  0  0  0  0  0  0  0
   54.8840   30.3860   52.0080 C   0  0  0  0  0  0  0  0  0  0  0  0
   54.7400   29.3300   52.9210 C   0  0  0  0  0  0  0  0  0  0  0  0
   53.4160   28.8930   53.2890 N   0  0  0  0  0  0  0  0  0  0  0  0
   52.2350   28.9900   52.4280 C   0  0  0  0  0  0  0  0  0  0  0  0
   51.6890   30.3990   52.4000 C   0  0  0  0  0  0  0  0  0  0  0  0
   51.4000   31.0690   53.5980 C   0  0  0  0  0  0  0  0  0  0  0  0
   50.9210   32.3390   53.5730 N   0  0  0  0  0  0  0  0  0  0  0  0
   50.7220   32.9860   52.3960 C   0  0  0  0  0  0  0  0  0  0  0  0
   50.2730   34.1620   52.3950 O   0  0  0  0  0  0  0  0  0  0  0  0
   51.0110   32.3700   51.2210 N   0  0  0  0  0  0  0  0  0  0  0  0
   51.4930   31.0990   51.1940 C   0  0  0  0  0  0  0  0  0  0  0  0
   51.7640   30.5650   50.0860 O   0  0  0  0  0  0  0  0  0  0  0  0
   55.8980   28.7240   53.4450 C   0  0  0  0  0  0  0  0  0  0  0  0
   57.1660   29.1640   53.0530 C   0  0  0  0  0  0  0  0  0  0  0  0
   58.8820   31.5140   49.4730 C   0  0  0  0  0  0  0  0  0  0  0  0
   59.3980   31.3770   48.1800 C   0  0  0  0  0  0  0  0  0  0  0  0
   58.9350   28.4860   45.6410 C   0  0  0  0  0  0  0  0  0  0  0  0
   58.7350   27.3440   46.4390 C   0  0  0  0  0  0  0  0  0  0  0  0
   57.4680   26.7580   46.5330 C   0  0  0  0  0  0  0  0  0  0  0  0
   56.3920   27.2980   45.8260 C   0  0  0  0  0  0  0  0  0  0  0  0
   55.1320   26.7150   45.9250 O   0  0  0  0  0  0  0  0  0  0  0  0
   56.5800   28.4220   45.0170 C   0  0  0  0  0  0  0  0  0  0  0  0
   57.8470   29.0160   44.9120 C   0  0  0  0  0  0  0  0  0  0  0  0
   58.0260   30.1120   44.0670 O   0  0  0  0  0  0  0  0  0  0  0  0
   60.8992   27.8210   43.9668 H   0  0  0  0  0  0  0  0  0  0  0  0
   62.2035   29.0321   44.6465 H   0  0  0  0  0  0  0  0  0  0  0  0
   61.3280   30.8420   46.1720 H   0  0  0  0  0  0  0  0  0  0  0  0
   60.9732   28.3642   48.5383 H   0  0  0  0  0  0  0  0  0  0  0  0
   60.0691   28.6179   50.8489 H   0  0  0  0  0  0  0  0  0  0  0  0
   56.2454   31.6533   50.8998 H   0  0  0  0  0  0  0  0  0  0  0  0
   53.9885   30.8704   51.5915 H   0  0  0  0  0  0  0  0  0  0  0  0
   53.2820   28.4500   54.2270 H   0  0  0  0  0  0  0  0  0  0  0  0
   52.5117   28.6927   51.4057 H   0  0  0  0  0  0  0  0  0  0  0  0
   51.4570   28.3245   52.8302 H   0  0  0  0  0  0  0  0  0  0  0  0
   51.5621   30.5634   54.5614 H   0  0  0  0  0  0  0  0  0  0  0  0
   55.8045   27.8995   54.1671 H   0  0  0  0  0  0  0  0  0  0  0  0
   58.0639   28.6722   53.4553 H   0  0  0  0  0  0  0  0  0  0  0  0
   58.3105   32.4150   49.7405 H   0  0  0  0  0  0  0  0  0  0  0  0
   59.2336   32.1724   47.4382 H   0  0  0  0  0  0  0  0  0  0  0  0
   59.5804   26.9093   46.9924 H   0  0  0  0  0  0  0  0  0  0  0  0
   57.3193   25.8701   47.1651 H   0  0  0  0  0  0  0  0  0  0  0  0
   55.7304   28.8433   44.4596 H   0  0  0  0  0  0  0  0  0  0  0  0
   58.5210   30.0300   43.1860 H   0  0  0  0  0  0  0  0  0  0  0  0
  1  2  2  0
  2  3  1  0
  3  4  1  0
  4  5  2  0
  5  6  1  0
  6  7  2  0
  7  8  1  0
  8  9  1  0
  9 10  2  0
 10 11  1  0
 11 12  2  0
 12 13  1  0
 13 14  1  0
 14 15  1  0
 15 16  2  0
 16 17  1  0
 17 18  1  0
 18 19  2  0
 18 20  1  0
 20 21  1  0
 21 22  2  0
 12 23  1  0
 23 24  2  0
  7 25  1  0
 25 26  2  0
  2 27  1  0
 27 28  2  0
 28 29  1  0
 29 30  2  0
 30 31  1  0
 30 32  1  0
 32 33  2  0
 33 34  1  0
 26  4  1  0
 33 27  1  0
 24  9  1  0
 21 15  1  0
  1 35  1  0
  1 36  1  0
  3 37  1  0
  5 38  1  0
  6 39  1  0
 10 40  1  0
 11 41  1  0
 13 42  1  0
 14 43  1  0
 14 44  1  0
 16 45  1  0
 23 46  1  0
 24 47  1  0
 25 48  1  0
 26 49  1  0
 28 50  1  0
 29 51  1  0
 32 52  1  0
 34 53  1  0
M  CHG  3  17  -1  20  -1  31  -1
M  END
>  <UniqueID>  (62) 
61

>  <SMILES>  (62) 
C=C(Nc1ccc(Oc2ccc(NCc3c[n-]c(=O)[n-]c3=O)cc2)cc1)c1ccc([O-])cc1O

>  <Energy>  (62) 
76.31547874720212

>  <Genealogy>  (62) 
C=C(Nc1ccc(Oc2ccc(NCc3c[n-]c(=O)[n-]c3=O)cc2)cc1)c1ccc([O-])cc1O (protonated)
C=C(Nc1ccc(Oc2ccc(NCc3c[n-]c(=O)[n-]c3=O)cc2)cc1)c1ccc([O-])cc1O (3D coordinates assigned)
C=C(Nc1ccc(Oc2ccc(NCc3c[n-]c(=O)[n-]c3=O)cc2)cc1)c1ccc([O-])cc1O (optimized conformer: 76.31547874720212 kcal/mol)

>  <smiles>  (62) 
C=C(Nc1ccc(Oc2ccc(NCc3c[nH]c(=O)[nH]c3=O)cc2)cc1)c1ccc(O)cc1O

>  <score_type>  (62) 
oracle

>  <origin>  (62) 
adg

>  <m_score__min__energy>  (62) 
-17.609999999999999

>  <m_primary>  (62) 
energy

$$$$
63:0
     RDKit          3D

 55 59  0  0  0  0  0  0  0  0999 V2000
   52.8028   28.9696   54.6272 H   0  0  0  0  0  0  0  0  0  0  0  0
   53.8820   29.1810   54.6000 C   0  0  0  0  0  0  0  0  0  0  0  0
   54.5398   28.7863   55.3884 H   0  0  0  0  0  0  0  0  0  0  0  0
   54.3930   29.9160   53.6110 C   0  0  0  0  0  0  0  0  0  0  0  0
   55.6740   30.1980   53.5310 O   0  0  0  0  0  0  0  0  0  0  0  0
   55.8860   30.9320   52.4600 C   0  0  0  0  0  0  0  0  0  0  0  0
   57.2250   31.4170   52.0570 C   0  0  0  0  0  0  0  0  0  0  0  0
   57.5180   32.7880   52.1300 C   0  0  0  0  0  0  0  0  0  0  0  0
   56.7492   33.4924   52.4803 H   0  0  0  0  0  0  0  0  0  0  0  0
   58.7790   33.2650   51.7610 C   0  0  0  0  0  0  0  0  0  0  0  0
   58.9932   34.3421   51.8239 H   0  0  0  0  0  0  0  0  0  0  0  0
   59.7750   32.3840   51.3110 C   0  0  0  0  0  0  0  0  0  0  0  0
   61.1050   32.9130   50.9170 C   0  0  0  0  0  0  0  0  0  0  0  0
   61.9650   33.1160   51.8210 O   0  0  0  0  0  0  0  0  0  0  0  0
   61.4200   33.2430   49.5390 N   0  0  0  0  0  0  0  0  0  0  0  0
   62.3270   33.7660   49.5210 H   0  0  0  0  0  0  0  0  0  0  0  0
   61.6190   32.0000   48.7450 C   0  0  0  0  0  0  0  0  0  0  0  0
   62.4438   32.1657   48.0363 H   0  0  0  0  0  0  0  0  0  0  0  0
   61.8421   31.1898   49.4547 H   0  0  0  0  0  0  0  0  0  0  0  0
   60.3700   31.5840   47.9530 C   0  0  0  0  0  0  0  0  0  0  0  0
   60.6146   30.7168   47.3220 H   0  0  0  0  0  0  0  0  0  0  0  0
   59.5705   31.3255   48.6629 H   0  0  0  0  0  0  0  0  0  0  0  0
   59.9060   32.6870   47.0990 N   0  0  0  0  0  0  0  0  0  0  0  0
   59.1200   32.3990   45.9210 C   0  0  0  0  0  0  0  0  0  0  0  0
   58.8000   31.2060   45.6600 O   0  0  0  0  0  0  0  0  0  0  0  0
   58.7120   33.4870   44.9620 C   0  0  0  0  0  0  0  0  0  0  0  0
   59.7353   33.7763   44.6807 H   0  0  0  0  0  0  0  0  0  0  0  0
   57.4180   33.2440   44.1920 C   0  0  0  0  0  0  0  0  0  0  0  0
   57.3125   33.6167   43.1625 H   0  0  0  0  0  0  0  0  0  0  0  0
   56.8233   32.3560   43.9317 H   0  0  0  0  0  0  0  0  0  0  0  0
   57.4360   34.2200   45.3540 C   0  0  0  0  0  0  0  0  0  0  0  0
   57.3429   35.2998   45.1660 H   0  0  0  0  0  0  0  0  0  0  0  0
   56.8587   34.3312   46.2837 H   0  0  0  0  0  0  0  0  0  0  0  0
   60.2820   34.0630   47.4570 C   0  0  0  0  0  0  0  0  0  0  0  0
   61.2455   34.3129   46.9887 H   0  0  0  0  0  0  0  0  0  0  0  0
   59.5080   34.7582   47.0998 H   0  0  0  0  0  0  0  0  0  0  0  0
   60.4090   34.1810   48.9800 C   0  0  0  0  0  0  0  0  0  0  0  0
   60.7050   35.2102   49.2312 H   0  0  0  0  0  0  0  0  0  0  0  0
   59.4337   33.9237   49.4189 H   0  0  0  0  0  0  0  0  0  0  0  0
   59.4720   31.0140   51.2120 C   0  0  0  0  0  0  0  0  0  0  0  0
   60.2323   30.3137   50.8359 H   0  0  0  0  0  0  0  0  0  0  0  0
   58.2140   30.5340   51.5870 C   0  0  0  0  0  0  0  0  0  0  0  0
   57.9958   29.4583   51.5141 H   0  0  0  0  0  0  0  0  0  0  0  0
   54.6890   31.1460   51.7950 C   0  0  0  0  0  0  0  0  0  0  0  0
   54.5402   31.7174   50.8669 H   0  0  0  0  0  0  0  0  0  0  0  0
   53.7170   30.4930   52.5380 C   0  0  0  0  0  0  0  0  0  0  0  0
   52.4070   30.3870   52.2460 C   0  0  0  0  0  0  0  0  0  0  0  0
   51.7461   29.9264   52.9950 H   0  0  0  0  0  0  0  0  0  0  0  0
   51.8050   30.8510   50.9830 C   0  0  0  0  0  0  0  0  0  0  0  0
   51.6930   30.0720   49.8910 N   0  0  0  0  0  0  0  0  0  0  0  0
   51.0320   30.8570   49.0130 C   0  0  0  0  0  0  0  0  0  0  0  0
   50.7480   30.4770   47.8460 O   0  0  0  0  0  0  0  0  0  0  0  0
   50.6950   32.0770   49.4830 N   0  0  0  0  0  0  0  0  0  0  0  0
   51.1810   32.0540   50.7350 C   0  0  0  0  0  0  0  0  0  0  0  0
   51.0110   33.0920   51.6430 O   0  0  0  0  0  0  0  0  0  0  0  0
  1  2  1  0
  2  3  1  0
  2  4  2  0
  4  5  1  0
  5  6  1  0
  6  7  1  0
  7  8  2  0
  8  9  1  0
  8 10  1  0
 10 11  1  0
 10 12  2  0
 12 13  1  0
 13 14  2  0
 13 15  1  0
 15 16  1  0
 15 17  1  0
 17 18  1  0
 17 19  1  0
 17 20  1  0
 20 21  1  0
 20 22  1  0
 20 23  1  0
 23 24  1  0
 24 25  2  0
 24 26  1  0
 26 27  1  0
 26 28  1  0
 28 29  1  0
 28 30  1  0
 28 31  1  0
 31 32  1  0
 31 33  1  0
 23 34  1  0
 34 35  1  0
 34 36  1  0
 34 37  1  0
 37 38  1  0
 37 39  1  0
 12 40  1  0
 40 41  1  0
 40 42  2  0
 42 43  1  0
  6 44  2  0
 44 45  1  0
 44 46  1  0
 46 47  2  0
 47 48  1  0
 47 49  1  0
 49 50  1  0
 50 51  1  0
 51 52  2  0
 51 53  1  0
 53 54  1  0
 54 55  1  0
 46  4  1  0
 54 49  2  0
 42  7  1  0
 37 15  1  0
 31 26  1  0
M  CHG  4  15   1  50  -1  53  -1  55  -1
M  END
>  <UniqueID>  (63) 
62

>  <SMILES>  (63) 
C=c1oc(-c2ccc(C(=O)[NH+]3CCN(C(=O)C4CC4)CC3)cc2)c/c1=C\c1[n-]c(=O)[n-]c1[O-]

>  <Energy>  (63) 
400.65853495125225

>  <Genealogy>  (63) 
C=c1oc(-c2ccc(C(=O)[NH+]3CCN(C(=O)C4CC4)CC3)cc2)cc1=Cc1[n-]c(=O)[n-]c1[O-] (protonated)
C=c1oc(-c2ccc(C(=O)[NH+]3CCN(C(=O)C4CC4)CC3)cc2)c/c1=C\c1[n-]c(=O)[n-]c1[O-] (cis-trans isomerization)
C=c1oc(-c2ccc(C(=O)[NH+]3CCN(C(=O)C4CC4)CC3)cc2)c/c1=C\c1[n-]c(=O)[n-]c1[O-] (3D coordinates assigned)
C=c1oc(-c2ccc(C(=O)[NH+]3CCN(C(=O)C4CC4)CC3)cc2)c/c1=C\c1[n-]c(=O)[n-]c1[O-] (nonaromatic ring conformer: 400.65853495125225 kcal/mol)

>  <smiles>  (63) 
C=c1oc(-c2ccc(C(=O)N3CCN(C(=O)C4CC4)CC3)cc2)cc1=Cc1[nH]c(=O)[nH]c1O

>  <score_type>  (63) 
oracle

>  <origin>  (63) 
adg

>  <m_score__min__energy>  (63) 
-17.530000000000001

>  <m_primary>  (63) 
energy

$$$$
64:0
     RDKit          3D

 45 47  0  0  0  0  0  0  0  0999 V2000
   56.2420   27.5310   45.6100 O   0  0  0  0  0  0  0  0  0  0  0  0
   57.4500   27.4780   45.2570 C   0  0  0  0  0  0  0  0  0  0  0  0
   58.2140   26.2110   45.4790 C   0  0  0  0  0  0  0  0  0  0  0  0
   59.3380   26.4750   46.3680 N   0  0  0  0  0  0  0  0  0  0  0  0
   59.4810   27.6340   47.1990 C   0  0  0  0  0  0  0  0  0  0  0  0
   58.9970   27.6050   48.3570 O   0  0  0  0  0  0  0  0  0  0  0  0
   60.1570   28.8630   46.7330 C   0  0  0  0  0  0  0  0  0  0  0  0
   60.7610   28.8620   45.6290 O   0  0  0  0  0  0  0  0  0  0  0  0
   60.0730   30.1260   47.4940 C   0  0  0  0  0  0  0  0  0  0  0  0
   58.9530   30.5810   48.1850 C   0  0  0  0  0  0  0  0  0  0  0  0
   59.2080   31.7720   48.7680 N   0  0  0  0  0  0  0  0  0  0  0  0
   60.4730   32.0860   48.4420 C   0  0  0  0  0  0  0  0  0  0  0  0
   61.1700   33.2390   48.7950 C   0  0  0  0  0  0  0  0  0  0  0  0
   62.4810   33.3890   48.3140 C   0  0  0  0  0  0  0  0  0  0  0  0
   63.0540   32.4020   47.4840 C   0  0  0  0  0  0  0  0  0  0  0  0
   62.3260   31.2490   47.1380 C   0  0  0  0  0  0  0  0  0  0  0  0
   61.0370   31.1090   47.6580 C   0  0  0  0  0  0  0  0  0  0  0  0
   58.0890   28.6170   44.6550 N   0  0  0  0  0  0  0  0  0  0  0  0
   57.4540   29.8910   44.4730 C   0  0  0  0  0  0  0  0  0  0  0  0
   56.3100   30.1080   44.9520 O   0  0  0  0  0  0  0  0  0  0  0  0
   58.1300   30.9230   43.7420 N   0  0  0  0  0  0  0  0  0  0  0  0
   57.5760   32.2640   43.5820 C   0  0  0  0  0  0  0  0  0  0  0  0
   58.0190   33.1440   44.7200 C   0  0  0  0  0  0  0  0  0  0  0  0
   59.0740   34.0520   44.5340 C   0  0  0  0  0  0  0  0  0  0  0  0
   59.5100   34.8520   45.5960 C   0  0  0  0  0  0  0  0  0  0  0  0
   58.9020   34.7440   46.8500 C   0  0  0  0  0  0  0  0  0  0  0  0
   57.8550   33.8350   47.0450 C   0  0  0  0  0  0  0  0  0  0  0  0
   57.4160   33.0350   45.9860 C   0  0  0  0  0  0  0  0  0  0  0  0
   57.5535   25.4590   45.9353 H   0  0  0  0  0  0  0  0  0  0  0  0
   58.5873   25.8326   44.5159 H   0  0  0  0  0  0  0  0  0  0  0  0
   57.9944   30.0451   48.2473 H   0  0  0  0  0  0  0  0  0  0  0  0
   58.5460   32.3380   49.3460 H   0  0  0  0  0  0  0  0  0  0  0  0
   60.7079   34.0085   49.4309 H   0  0  0  0  0  0  0  0  0  0  0  0
   63.0645   34.2810   48.5858 H   0  0  0  0  0  0  0  0  0  0  0  0
   64.0779   32.5352   47.1046 H   0  0  0  0  0  0  0  0  0  0  0  0
   62.7582   30.4818   46.4787 H   0  0  0  0  0  0  0  0  0  0  0  0
   59.0740   28.5140   44.3250 H   0  0  0  0  0  0  0  0  0  0  0  0
   59.0630   30.7170   43.3190 H   0  0  0  0  0  0  0  0  0  0  0  0
   57.9280   32.6925   42.6320 H   0  0  0  0  0  0  0  0  0  0  0  0
   56.4777   32.2027   43.5798 H   0  0  0  0  0  0  0  0  0  0  0  0
   59.5592   34.1346   43.5503 H   0  0  0  0  0  0  0  0  0  0  0  0
   60.3322   35.5667   45.4439 H   0  0  0  0  0  0  0  0  0  0  0  0
   59.2462   35.3733   47.6839 H   0  0  0  0  0  0  0  0  0  0  0  0
   57.3775   33.7503   48.0323 H   0  0  0  0  0  0  0  0  0  0  0  0
   56.5966   32.3182   46.1433 H   0  0  0  0  0  0  0  0  0  0  0  0
  1  2  2  0
  2  3  1  0
  3  4  1  0
  4  5  1  0
  5  6  2  0
  5  7  1  0
  7  8  2  0
  7  9  1  0
  9 10  2  0
 10 11  1  0
 11 12  1  0
 12 13  2  0
 13 14  1  0
 14 15  2  0
 15 16  1  0
 16 17  2  0
  2 18  1  0
 18 19  1  0
 19 20  2  0
 19 21  1  0
 21 22  1  0
 22 23  1  0
 23 24  2  0
 24 25  1  0
 25 26  2  0
 26 27  1  0
 27 28  2  0
 17  9  1  0
 28 23  1  0
 17 12  1  0
  3 29  1  0
  3 30  1  0
 10 31  1  0
 11 32  1  0
 13 33  1  0
 14 34  1  0
 15 35  1  0
 16 36  1  0
 18 37  1  0
 21 38  1  0
 22 39  1  0
 22 40  1  0
 24 41  1  0
 25 42  1  0
 26 43  1  0
 27 44  1  0
 28 45  1  0
M  CHG  1   4  -1
M  END
>  <UniqueID>  (64) 
63

>  <SMILES>  (64) 
O=C(C[N-]C(=O)C(=O)c1c[nH]c2ccccc12)NC(=O)NCc1ccccc1

>  <Energy>  (64) 
80.16604385834049

>  <Genealogy>  (64) 
O=C(C[N-]C(=O)C(=O)c1c[nH]c2ccccc12)NC(=O)NCc1ccccc1 (protonated)
O=C(C[N-]C(=O)C(=O)c1c[nH]c2ccccc12)NC(=O)NCc1ccccc1 (3D coordinates assigned)
O=C(C[N-]C(=O)C(=O)c1c[nH]c2ccccc12)NC(=O)NCc1ccccc1 (optimized conformer: 80.16604385834049 kcal/mol)

>  <smiles>  (64) 
O=C(CNC(=O)C(=O)c1c[nH]c2ccccc12)NC(=O)NCc1ccccc1

>  <score_type>  (64) 
oracle

>  <origin>  (64) 
adg

>  <m_score__min__energy>  (64) 
-10.07

>  <m_primary>  (64) 
energy

$$$$
65:0
     RDKit          3D

 36 37  0  0  0  0  0  0  0  0999 V2000
   55.1650   29.3030   44.8820 O   0  0  0  0  0  0  0  0  0  0  0  0
   56.2200   29.8420   44.4500 C   0  0  0  0  0  0  0  0  0  0  0  0
   57.2460   29.0100   43.7430 C   0  0  0  0  0  0  0  0  0  0  0  0
   58.5030   28.8060   44.6020 C   0  0  0  0  0  0  0  0  0  0  0  0
   58.9060   27.3280   44.7580 C   0  0  0  0  0  0  0  0  0  0  0  0
   57.7660   26.4970   45.1890 N   0  0  0  0  0  0  0  0  0  0  0  0
   57.3970   25.4320   44.4140 C   0  0  0  0  0  0  0  0  0  0  0  0
   56.3190   24.6270   44.7780 C   0  0  0  0  0  0  0  0  0  0  0  0
   55.6320   24.9270   45.9500 C   0  0  0  0  0  0  0  0  0  0  0  0
   54.6530   24.2220   46.3100 O   0  0  0  0  0  0  0  0  0  0  0  0
   56.0240   25.9800   46.7080 N   0  0  0  0  0  0  0  0  0  0  0  0
   57.0750   26.7610   46.3470 C   0  0  0  0  0  0  0  0  0  0  0  0
   57.4030   27.7210   47.0920 O   0  0  0  0  0  0  0  0  0  0  0  0
   56.4300   31.2460   44.6050 N   0  0  0  0  0  0  0  0  0  0  0  0
   57.5850   31.9410   44.0570 C   0  0  0  0  0  0  0  0  0  0  0  0
   58.1220   32.8920   45.0860 C   0  0  0  0  0  0  0  0  0  0  0  0
   58.8090   34.0500   44.6860 C   0  0  0  0  0  0  0  0  0  0  0  0
   59.3500   34.9140   45.6430 C   0  0  0  0  0  0  0  0  0  0  0  0
   59.2180   34.6230   47.0030 C   0  0  0  0  0  0  0  0  0  0  0  0
   58.5500   33.4640   47.4090 C   0  0  0  0  0  0  0  0  0  0  0  0
   58.0080   32.5970   46.4540 C   0  0  0  0  0  0  0  0  0  0  0  0
   56.8096   28.0273   43.5109 H   0  0  0  0  0  0  0  0  0  0  0  0
   57.5409   29.5376   42.8240 H   0  0  0  0  0  0  0  0  0  0  0  0
   59.3376   29.3469   44.1321 H   0  0  0  0  0  0  0  0  0  0  0  0
   58.2733   29.1871   45.6080 H   0  0  0  0  0  0  0  0  0  0  0  0
   59.2747   26.9545   43.7912 H   0  0  0  0  0  0  0  0  0  0  0  0
   59.6889   27.2642   45.5281 H   0  0  0  0  0  0  0  0  0  0  0  0
   57.9569   25.2085   43.4939 H   0  0  0  0  0  0  0  0  0  0  0  0
   56.0181   23.7736   44.1526 H   0  0  0  0  0  0  0  0  0  0  0  0
   58.3623   31.2097   43.7906 H   0  0  0  0  0  0  0  0  0  0  0  0
   57.2879   32.4992   43.1569 H   0  0  0  0  0  0  0  0  0  0  0  0
   58.9218   34.2780   43.6158 H   0  0  0  0  0  0  0  0  0  0  0  0
   59.8801   35.8238   45.3247 H   0  0  0  0  0  0  0  0  0  0  0  0
   59.6399   35.3062   47.7548 H   0  0  0  0  0  0  0  0  0  0  0  0
   58.4505   33.2335   48.4800 H   0  0  0  0  0  0  0  0  0  0  0  0
   57.4908   31.6811   46.7760 H   0  0  0  0  0  0  0  0  0  0  0  0
  1  2  2  0
  2  3  1  0
  3  4  1  0
  4  5  1  0
  5  6  1  0
  6  7  1  0
  7  8  2  0
  8  9  1  0
  9 10  2  0
  9 11  1  0
 11 12  1  0
 12 13  2  0
  2 14  1  0
 14 15  1  0
 15 16  1  0
 16 17  2  0
 17 18  1  0
 18 19  2  0
 19 20  1  0
 20 21  2  0
 12  6  1  0
 21 16  1  0
  3 22  1  0
  3 23  1  0
  4 24  1  0
  4 25  1  0
  5 26  1  0
  5 27  1  0
  7 28  1  0
  8 29  1  0
 15 30  1  0
 15 31  1  0
 17 32  1  0
 18 33  1  0
 19 34  1  0
 20 35  1  0
 21 36  1  0
M  CHG  2  11  -1  14  -1
M  END
>  <UniqueID>  (65) 
64

>  <SMILES>  (65) 
O=C(CCCn1ccc(=O)[n-]c1=O)[N-]Cc1ccccc1

>  <Energy>  (65) 
31.122284788853467

>  <Genealogy>  (65) 
O=C(CCCn1ccc(=O)[n-]c1=O)[N-]Cc1ccccc1 (protonated)
O=C(CCCn1ccc(=O)[n-]c1=O)[N-]Cc1ccccc1 (3D coordinates assigned)
O=C(CCCn1ccc(=O)[n-]c1=O)[N-]Cc1ccccc1 (optimized conformer: 31.122284788853467 kcal/mol)

>  <smiles>  (65) 
O=C(CCCn1ccc(=O)[nH]c1=O)NCc1ccccc1

>  <score_type>  (65) 
oracle

>  <origin>  (65) 
adg

>  <m_score__min__energy>  (65) 
-11.67

>  <m_primary>  (65) 
energy

$$$$
66:0
     RDKit          3D

 45 48  0  0  0  0  0  0  0  0999 V2000
   57.3940   30.0200   42.2630 H   0  0  0  0  0  0  0  0  0  0  0  0
   56.9610   30.5060   43.0800 N   0  0  0  0  0  0  0  0  0  0  0  0
   57.6820   31.1050   43.9740 C   0  0  0  0  0  0  0  0  0  0  0  0
   57.9310   32.4360   43.8560 N   0  0  0  0  0  0  0  0  0  0  0  0
   58.6450   33.1170   44.7880 C   0  0  0  0  0  0  0  0  0  0  0  0
   58.8376   34.1926   44.6612 H   0  0  0  0  0  0  0  0  0  0  0  0
   59.1360   32.4390   45.9150 C   0  0  0  0  0  0  0  0  0  0  0  0
   59.9030   33.1320   46.9820 C   0  0  0  0  0  0  0  0  0  0  0  0
   59.2590   33.9180   47.9600 C   0  0  0  0  0  0  0  0  0  0  0  0
   58.1641   34.0223   47.9438 H   0  0  0  0  0  0  0  0  0  0  0  0
   60.0050   34.5660   48.9510 C   0  0  0  0  0  0  0  0  0  0  0  0
   59.4941   35.1725   49.7133 H   0  0  0  0  0  0  0  0  0  0  0  0
   61.3950   34.4450   48.9750 C   0  0  0  0  0  0  0  0  0  0  0  0
   61.9780   34.9526   49.7576 H   0  0  0  0  0  0  0  0  0  0  0  0
   62.0450   33.6800   48.0060 C   0  0  0  0  0  0  0  0  0  0  0  0
   63.1410   33.5883   48.0237 H   0  0  0  0  0  0  0  0  0  0  0  0
   61.3070   33.0300   47.0130 C   0  0  0  0  0  0  0  0  0  0  0  0
   61.8274   32.4336   46.2491 H   0  0  0  0  0  0  0  0  0  0  0  0
   58.8780   31.1080   46.0330 N   0  0  0  0  0  0  0  0  0  0  0  0
   58.1820   30.4100   45.0970 C   0  0  0  0  0  0  0  0  0  0  0  0
   57.9570   28.9600   45.3130 C   0  0  0  0  0  0  0  0  0  0  0  0
   59.0270   28.0530   45.3430 C   0  0  0  0  0  0  0  0  0  0  0  0
   60.0538   28.4154   45.1873 H   0  0  0  0  0  0  0  0  0  0  0  0
   58.7990   26.6930   45.5690 C   0  0  0  0  0  0  0  0  0  0  0  0
   59.6480   25.9938   45.5861 H   0  0  0  0  0  0  0  0  0  0  0  0
   57.4930   26.2090   45.7750 C   0  0  0  0  0  0  0  0  0  0  0  0
   57.2350   24.8060   45.9970 N   0  0  0  0  0  0  0  0  0  0  0  0
   57.3140   24.1430   45.1930 H   0  0  0  0  0  0  0  0  0  0  0  0
   56.9070   24.2220   47.2990 C   0  0  0  0  0  0  0  0  0  0  0  0
   57.6544   24.5441   48.0391 H   0  0  0  0  0  0  0  0  0  0  0  0
   55.9051   24.5622   47.5998 H   0  0  0  0  0  0  0  0  0  0  0  0
   56.9070   22.7290   47.2170 C   0  0  0  0  0  0  0  0  0  0  0  0
   56.3380   22.0620   48.1220 O   0  0  0  0  0  0  0  0  0  0  0  0
   57.5890   22.0840   46.1280 N   0  0  0  0  0  0  0  0  0  0  0  0
   57.1780   21.9370   44.9020 C   0  0  0  0  0  0  0  0  0  0  0  0
   56.0410   22.4980   44.4530 N   0  0  0  0  0  0  0  0  0  0  0  0
   55.9160   22.1390   43.2080 O   0  0  0  0  0  0  0  0  0  0  0  0
   56.9110   21.3700   42.8280 C   0  0  0  0  0  0  0  0  0  0  0  0
   57.0366   20.9340   41.8259 H   0  0  0  0  0  0  0  0  0  0  0  0
   57.7720   21.1990   43.8910 C   0  0  0  0  0  0  0  0  0  0  0  0
   58.7049   20.6173   43.9276 H   0  0  0  0  0  0  0  0  0  0  0  0
   56.4240   27.1250   45.7690 C   0  0  0  0  0  0  0  0  0  0  0  0
   55.1190   26.6890   45.9800 O   0  0  0  0  0  0  0  0  0  0  0  0
   56.6580   28.4860   45.5470 C   0  0  0  0  0  0  0  0  0  0  0  0
   55.8144   29.1919   45.5560 H   0  0  0  0  0  0  0  0  0  0  0  0
  1  2  1  0
  2  3  2  0
  3  4  1  0
  4  5  1  0
  5  6  1  0
  5  7  2  0
  7  8  1  0
  8  9  2  0
  9 10  1  0
  9 11  1  0
 11 12  1  0
 11 13  2  0
 13 14  1  0
 13 15  1  0
 15 16  1  0
 15 17  2  0
 17 18  1  0
  7 19  1  0
 19 20  2  0
 20 21  1  0
 21 22  2  0
 22 23  1  0
 22 24  1  0
 24 25  1  0
 24 26  2  0
 26 27  1  0
 27 28  1  0
 27 29  1  0
 29 30  1  0
 29 31  1  0
 29 32  1  0
 32 33  2  0
 32 34  1  0
 34 35  2  3
 35 36  1  0
 36 37  1  0
 37 38  1  0
 38 39  1  0
 38 40  2  0
 40 41  1  0
 26 42  1  0
 42 43  1  0
 42 44  2  0
 44 45  1  0
 20  3  1  0
 44 21  1  0
 17  8  1  0
 40 35  1  0
M  CHG  3   4  -1  36  -1  43  -1
M  END
>  <UniqueID>  (66) 
65

>  <SMILES>  (66) 
[H]/N=c1\[n-]cc(-c2ccccc2)nc1-c1ccc(NCC(=O)N=c2cco[n-]2)c([O-])c1

>  <Energy>  (66) 
95.83861323162658

>  <Genealogy>  (66) 
N=c1[n-]cc(-c2ccccc2)nc1-c1ccc(NCC(=O)N=c2cco[n-]2)c([O-])c1 (protonated)
[H]/N=c1\[n-]cc(-c2ccccc2)nc1-c1ccc(NCC(=O)N=c2cco[n-]2)c([O-])c1 (cis-trans isomerization)
[H]/N=c1\[n-]cc(-c2ccccc2)nc1-c1ccc(NCC(=O)N=c2cco[n-]2)c([O-])c1 (3D coordinates assigned)
[H]/N=c1\[n-]cc(-c2ccccc2)nc1-c1ccc(NCC(=O)N=c2cco[n-]2)c([O-])c1 (optimized conformer: 95.83861323162658 kcal/mol)

>  <smiles>  (66) 
N=c1[nH]cc(-c2ccccc2)nc1-c1ccc(NCC(=O)N=c2cco[nH]2)c(O)c1

>  <score_type>  (66) 
oracle

>  <origin>  (66) 
adg

>  <m_score__min__energy>  (66) 
-15.59

>  <m_primary>  (66) 
energy

$$$$
67:0
     RDKit          3D

 62 65  0  0  0  0  0  0  0  0999 V2000
   52.3380   24.4590   44.8650 C   0  0  0  0  0  0  0  0  0  0  0  0
   53.4260   24.3630   45.7790 O   0  0  0  0  0  0  0  0  0  0  0  0
   54.2170   23.2170   45.9570 C   0  0  0  0  0  0  0  0  0  0  0  0
   55.6040   23.2910   46.1930 C   0  0  0  0  0  0  0  0  0  0  0  0
   56.3660   22.1240   46.3390 C   0  0  0  0  0  0  0  0  0  0  0  0
   57.7720   22.2400   46.6020 N   0  0  0  0  0  0  0  0  0  0  0  0
   58.7760   22.6770   45.6760 C   0  0  0  0  0  0  0  0  0  0  0  0
   59.6370   21.8440   45.2850 O   0  0  0  0  0  0  0  0  0  0  0  0
   58.8580   24.0890   45.2460 C   0  0  0  0  0  0  0  0  0  0  0  0
   57.8810   24.6770   44.5380 C   0  0  0  0  0  0  0  0  0  0  0  0
   57.5840   26.1340   44.5670 C   0  0  0  0  0  0  0  0  0  0  0  0
   58.0150   26.9230   43.4880 C   0  0  0  0  0  0  0  0  0  0  0  0
   57.7720   28.3000   43.4660 C   0  0  0  0  0  0  0  0  0  0  0  0
   57.1050   28.9200   44.5320 C   0  0  0  0  0  0  0  0  0  0  0  0
   56.8350   30.3740   44.5120 C   0  0  0  0  0  0  0  0  0  0  0  0
   55.6420   30.7730   44.4050 O   0  0  0  0  0  0  0  0  0  0  0  0
   57.9010   31.3380   44.6320 N   0  0  0  0  0  0  0  0  0  0  0  0
   57.7890   32.6540   43.9910 C   0  0  0  0  0  0  0  0  0  0  0  0
   57.8750   33.7860   45.0370 C   0  0  0  0  0  0  0  0  0  0  0  0
   58.5080   33.3400   46.2990 N   0  0  0  0  0  0  0  0  0  0  0  0
   58.8580   34.4550   47.2080 C   0  0  0  0  0  0  0  0  0  0  0  0
   59.9910   34.1410   48.1630 C   0  0  0  0  0  0  0  0  0  0  0  0
   61.3280   34.2060   47.7300 C   0  0  0  0  0  0  0  0  0  0  0  0
   62.3720   33.9120   48.6120 C   0  0  0  0  0  0  0  0  0  0  0  0
   62.0920   33.5410   49.9300 C   0  0  0  0  0  0  0  0  0  0  0  0
   63.1060   33.2570   50.7850 F   0  0  0  0  0  0  0  0  0  0  0  0
   60.7660   33.4570   50.3650 C   0  0  0  0  0  0  0  0  0  0  0  0
   59.7190   33.7500   49.4860 C   0  0  0  0  0  0  0  0  0  0  0  0
   59.6150   32.3940   46.0680 C   0  0  0  0  0  0  0  0  0  0  0  0
   59.0390   31.0810   45.5280 C   0  0  0  0  0  0  0  0  0  0  0  0
   56.6650   28.1370   45.6100 C   0  0  0  0  0  0  0  0  0  0  0  0
   56.9120   26.7610   45.6360 C   0  0  0  0  0  0  0  0  0  0  0  0
   55.7270   20.8740   46.2980 C   0  0  0  0  0  0  0  0  0  0  0  0
   54.3520   20.7950   46.0670 C   0  0  0  0  0  0  0  0  0  0  0  0
   53.6000   21.9600   45.8950 C   0  0  0  0  0  0  0  0  0  0  0  0
   52.2310   21.8670   45.6680 O   0  0  0  0  0  0  0  0  0  0  0  0
   51.3949   24.5422   45.4250 H   0  0  0  0  0  0  0  0  0  0  0  0
   52.4683   25.3491   44.2320 H   0  0  0  0  0  0  0  0  0  0  0  0
   52.3104   23.5598   44.2320 H   0  0  0  0  0  0  0  0  0  0  0  0
   56.0932   24.2737   46.2633 H   0  0  0  0  0  0  0  0  0  0  0  0
   59.7482   24.6766   45.5149 H   0  0  0  0  0  0  0  0  0  0  0  0
   57.2586   24.0389   43.8935 H   0  0  0  0  0  0  0  0  0  0  0  0
   58.5501   26.4522   42.6502 H   0  0  0  0  0  0  0  0  0  0  0  0
   58.1062   28.9004   42.6070 H   0  0  0  0  0  0  0  0  0  0  0  0
   58.6070   32.7717   43.2651 H   0  0  0  0  0  0  0  0  0  0  0  0
   56.8142   32.7165   43.4853 H   0  0  0  0  0  0  0  0  0  0  0  0
   58.4681   34.6115   44.6165 H   0  0  0  0  0  0  0  0  0  0  0  0
   56.8489   34.1060   45.2707 H   0  0  0  0  0  0  0  0  0  0  0  0
   59.1517   35.3206   46.5960 H   0  0  0  0  0  0  0  0  0  0  0  0
   57.9688   34.6532   47.8245 H   0  0  0  0  0  0  0  0  0  0  0  0
   61.5532   34.4898   46.6914 H   0  0  0  0  0  0  0  0  0  0  0  0
   63.4151   33.9727   48.2682 H   0  0  0  0  0  0  0  0  0  0  0  0
   60.5460   33.1598   51.4010 H   0  0  0  0  0  0  0  0  0  0  0  0
   58.6773   33.6743   49.8311 H   0  0  0  0  0  0  0  0  0  0  0  0
   60.3171   32.8185   45.3353 H   0  0  0  0  0  0  0  0  0  0  0  0
   60.1496   32.2073   47.0111 H   0  0  0  0  0  0  0  0  0  0  0  0
   59.8223   30.5457   44.9713 H   0  0  0  0  0  0  0  0  0  0  0  0
   58.6892   30.4746   46.3765 H   0  0  0  0  0  0  0  0  0  0  0  0
   56.1213   28.6095   46.4414 H   0  0  0  0  0  0  0  0  0  0  0  0
   56.5794   26.1630   46.4973 H   0  0  0  0  0  0  0  0  0  0  0  0
   56.3114   19.9543   46.4483 H   0  0  0  0  0  0  0  0  0  0  0  0
   53.8594   19.8126   46.0203 H   0  0  0  0  0  0  0  0  0  0  0  0
  1  2  1  0
  2  3  1  0
  3  4  2  0
  4  5  1  0
  5  6  1  0
  6  7  1  0
  7  8  2  0
  7  9  1  0
  9 10  2  3
 10 11  1  0
 11 12  2  0
 12 13  1  0
 13 14  2  0
 14 15  1  0
 15 16  2  0
 15 17  1  0
 17 18  1  0
 18 19  1  0
 19 20  1  0
 20 21  1  0
 21 22  1  0
 22 23  2  0
 23 24  1  0
 24 25  2  0
 25 26  1  0
 25 27  1  0
 27 28  2  0
 20 29  1  0
 29 30  1  0
 14 31  1  0
 31 32  2  0
  5 33  2  0
 33 34  1  0
 34 35  2  0
 35 36  1  0
 35  3  1  0
 32 11  1  0
 30 17  1  0
 28 22  1  0
  1 37  1  0
  1 38  1  0
  1 39  1  0
  4 40  1  0
  9 41  1  0
 10 42  1  0
 12 43  1  0
 13 44  1  0
 18 45  1  0
 18 46  1  0
 19 47  1  0
 19 48  1  0
 21 49  1  0
 21 50  1  0
 23 51  1  0
 24 52  1  0
 27 53  1  0
 28 54  1  0
 29 55  1  0
 29 56  1  0
 30 57  1  0
 30 58  1  0
 31 59  1  0
 32 60  1  0
 33 61  1  0
 34 62  1  0
M  CHG  2   6  -1  36  -1
M  END
>  <UniqueID>  (67) 
66

>  <SMILES>  (67) 
COc1cc([N-]C(=O)C=Cc2ccc(C(=O)N3CCN(Cc4ccc(F)cc4)CC3)cc2)ccc1[O-]

>  <Energy>  (67) 
85.72906388361724

>  <Genealogy>  (67) 
COc1cc([N-]C(=O)C=Cc2ccc(C(=O)N3CCN(Cc4ccc(F)cc4)CC3)cc2)ccc1[O-] (protonated)
COc1cc([N-]C(=O)C=Cc2ccc(C(=O)N3CCN(Cc4ccc(F)cc4)CC3)cc2)ccc1[O-] (3D coordinates assigned)
COc1cc([N-]C(=O)C=Cc2ccc(C(=O)N3CCN(Cc4ccc(F)cc4)CC3)cc2)ccc1[O-] (nonaromatic ring conformer: 85.72906388361724 kcal/mol)

>  <smiles>  (67) 
COc1cc(NC(=O)C=Cc2ccc(C(=O)N3CCN(Cc4ccc(F)cc4)CC3)cc2)ccc1O

>  <score_type>  (67) 
oracle

>  <origin>  (67) 
adg

>  <m_score__min__energy>  (67) 
-14.529999999999999

>  <m_primary>  (67) 
energy

$$$$
68:0
     RDKit          3D

 54 57  0  0  0  0  0  0  0  0999 V2000
   57.2970   23.1700   47.4830 O   0  0  0  0  0  0  0  0  0  0  0  0
   56.6540   24.1350   46.9880 C   0  0  0  0  0  0  0  0  0  0  0  0
   57.2110   25.4570   47.0280 N   0  0  0  0  0  0  0  0  0  0  0  0
   57.5270   26.2850   45.8980 C   0  0  0  0  0  0  0  0  0  0  0  0
   57.8030   25.6680   44.6740 C   0  0  0  0  0  0  0  0  0  0  0  0
   58.1000   26.4370   43.5470 C   0  0  0  0  0  0  0  0  0  0  0  0
   58.1060   27.8310   43.6300 C   0  0  0  0  0  0  0  0  0  0  0  0
   57.8070   28.4730   44.8450 C   0  0  0  0  0  0  0  0  0  0  0  0
   57.7850   29.9150   44.9270 N   0  0  0  0  0  0  0  0  0  0  0  0
   58.3580   30.5830   46.1030 C   0  0  0  0  0  0  0  0  0  0  0  0
   57.9700   32.0640   46.1320 C   0  0  0  0  0  0  0  0  0  0  0  0
   58.3020   32.7060   44.8410 N   0  0  0  0  0  0  0  0  0  0  0  0
   58.1080   34.1820   44.8530 C   0  0  0  0  0  0  0  0  0  0  0  0
   59.3250   35.0360   45.2960 C   0  0  0  0  0  0  0  0  0  0  0  0
   60.0320   34.5020   46.5150 C   0  0  0  0  0  0  0  0  0  0  0  0
   61.2820   33.8740   46.3840 C   0  0  0  0  0  0  0  0  0  0  0  0
   61.9520   33.3960   47.5150 C   0  0  0  0  0  0  0  0  0  0  0  0
   61.3770   33.5350   48.7810 C   0  0  0  0  0  0  0  0  0  0  0  0
   60.1290   34.1460   48.9180 C   0  0  0  0  0  0  0  0  0  0  0  0
   59.4540   34.6250   47.7900 C   0  0  0  0  0  0  0  0  0  0  0  0
   57.6920   32.0410   43.6520 C   0  0  0  0  0  0  0  0  0  0  0  0
   57.0000   30.7000   43.9640 C   0  0  0  0  0  0  0  0  0  0  0  0
   57.5070   27.6890   45.9750 C   0  0  0  0  0  0  0  0  0  0  0  0
   55.3490   23.8820   46.3170 C   0  0  0  0  0  0  0  0  0  0  0  0
   54.9050   22.5630   46.1230 C   0  0  0  0  0  0  0  0  0  0  0  0
   53.7170   22.3200   45.5130 N   0  0  0  0  0  0  0  0  0  0  0  0
   52.9330   23.3370   45.0790 C   0  0  0  0  0  0  0  0  0  0  0  0
   51.8350   23.0890   44.5160 O   0  0  0  0  0  0  0  0  0  0  0  0
   53.3320   24.6220   45.2520 N   0  0  0  0  0  0  0  0  0  0  0  0
   54.5100   24.9210   45.8560 C   0  0  0  0  0  0  0  0  0  0  0  0
   54.8320   26.1300   45.9960 O   0  0  0  0  0  0  0  0  0  0  0  0
   57.7861   24.5707   44.5985 H   0  0  0  0  0  0  0  0  0  0  0  0
   58.3299   25.9434   42.5912 H   0  0  0  0  0  0  0  0  0  0  0  0
   58.3461   28.4306   42.7396 H   0  0  0  0  0  0  0  0  0  0  0  0
   57.9821   30.0941   47.0139 H   0  0  0  0  0  0  0  0  0  0  0  0
   59.4542   30.5074   46.0514 H   0  0  0  0  0  0  0  0  0  0  0  0
   56.8888   32.1526   46.3141 H   0  0  0  0  0  0  0  0  0  0  0  0
   58.5293   32.5652   46.9357 H   0  0  0  0  0  0  0  0  0  0  0  0
   59.3390   32.5800   44.7320 H   0  0  0  0  0  0  0  0  0  0  0  0
   57.8358   34.4917   43.8332 H   0  0  0  0  0  0  0  0  0  0  0  0
   57.3311   34.3676   45.6093 H   0  0  0  0  0  0  0  0  0  0  0  0
   60.0450   35.0708   44.4651 H   0  0  0  0  0  0  0  0  0  0  0  0
   58.9384   36.0313   45.5605 H   0  0  0  0  0  0  0  0  0  0  0  0
   61.7353   33.7578   45.3885 H   0  0  0  0  0  0  0  0  0  0  0  0
   62.9329   32.9100   47.4077 H   0  0  0  0  0  0  0  0  0  0  0  0
   61.9077   33.1630   49.6698 H   0  0  0  0  0  0  0  0  0  0  0  0
   59.6756   34.2510   49.9147 H   0  0  0  0  0  0  0  0  0  0  0  0
   58.4678   35.0993   47.9015 H   0  0  0  0  0  0  0  0  0  0  0  0
   56.9442   32.7230   43.2211 H   0  0  0  0  0  0  0  0  0  0  0  0
   58.5154   31.8177   42.9576 H   0  0  0  0  0  0  0  0  0  0  0  0
   56.0047   30.8987   44.3881 H   0  0  0  0  0  0  0  0  0  0  0  0
   56.9127   30.1246   43.0306 H   0  0  0  0  0  0  0  0  0  0  0  0
   57.2546   28.1791   46.9269 H   0  0  0  0  0  0  0  0  0  0  0  0
   55.5243   21.7218   46.4678 H   0  0  0  0  0  0  0  0  0  0  0  0
  1  2  2  0
  2  3  1  0
  3  4  1  0
  4  5  2  0
  5  6  1  0
  6  7  2  0
  7  8  1  0
  8  9  1  0
  9 10  1  0
 10 11  1  0
 11 12  1  0
 12 13  1  0
 13 14  1  0
 14 15  1  0
 15 16  2  0
 16 17  1  0
 17 18  2  0
 18 19  1  0
 19 20  2  0
 12 21  1  0
 21 22  1  0
  8 23  2  0
  2 24  1  0
 24 25  2  0
 25 26  1  0
 26 27  1  0
 27 28  2  0
 27 29  1  0
 29 30  1  0
 30 31  2  0
 23  4  1  0
 30 24  1  0
 22  9  1  0
 20 15  1  0
  5 32  1  0
  6 33  1  0
  7 34  1  0
 10 35  1  0
 10 36  1  0
 11 37  1  0
 11 38  1  0
 12 39  1  0
 13 40  1  0
 13 41  1  0
 14 42  1  0
 14 43  1  0
 16 44  1  0
 17 45  1  0
 18 46  1  0
 19 47  1  0
 20 48  1  0
 21 49  1  0
 21 50  1  0
 22 51  1  0
 22 52  1  0
 23 53  1  0
 25 54  1  0
M  CHG  4   3  -1  12   1  26  -1  29  -1
M  END
>  <UniqueID>  (68) 
67

>  <SMILES>  (68) 
O=C([N-]c1cccc(N2CC[NH+](CCc3ccccc3)CC2)c1)c1c[n-]c(=O)[n-]c1=O

>  <Energy>  (68) 
78.89147512881392

>  <Genealogy>  (68) 
O=C([N-]c1cccc(N2CC[NH+](CCc3ccccc3)CC2)c1)c1c[n-]c(=O)[n-]c1=O (protonated)
O=C([N-]c1cccc(N2CC[NH+](CCc3ccccc3)CC2)c1)c1c[n-]c(=O)[n-]c1=O (3D coordinates assigned)
O=C([N-]c1cccc(N2CC[NH+](CCc3ccccc3)CC2)c1)c1c[n-]c(=O)[n-]c1=O (nonaromatic ring conformer: 78.89147512881392 kcal/mol)

>  <smiles>  (68) 
O=C(Nc1cccc(N2CCN(CCc3ccccc3)CC2)c1)c1c[nH]c(=O)[nH]c1=O

>  <score_type>  (68) 
oracle

>  <origin>  (68) 
adg

>  <m_score__min__energy>  (68) 
-13.73

>  <m_primary>  (68) 
energy

$$$$
69:0
     RDKit          3D

 46 48  0  0  0  0  0  0  0  0999 V2000
   57.4610   33.0450   46.3330 C   0  0  0  0  0  0  0  0  0  0  0  0
   58.6170   33.2000   47.0080 C   0  0  0  0  0  0  0  0  0  0  0  0
   59.4450   34.4310   46.7570 C   0  0  0  0  0  0  0  0  0  0  0  0
   60.7100   34.0750   45.9750 C   0  0  0  0  0  0  0  0  0  0  0  0
   61.8670   33.7440   46.9170 C   0  0  0  0  0  0  0  0  0  0  0  0
   61.7800   32.3770   47.6350 C   0  0  2  0  0  0  0  0  0  0  0  0
   62.8960   31.6000   47.2690 O   0  0  0  0  0  0  0  0  0  0  0  0
   60.4940   31.4870   47.4500 C   0  0  2  0  0  0  0  0  0  0  0  0
   59.1240   32.0790   47.9040 C   0  0  1  0  0  0  0  0  0  0  0  0
   59.1160   32.4000   49.4090 C   0  0  0  0  0  0  0  0  0  0  0  0
   59.3580   31.1160   50.2210 C   0  0  0  0  0  0  0  0  0  0  0  0
   60.5430   30.3420   49.6910 C   0  0  0  0  0  0  0  0  0  0  0  0
   61.3440   29.8540   50.4750 O   0  0  0  0  0  0  0  0  0  0  0  0
   60.7250   30.1300   48.1970 C   0  0  1  0  0  0  0  0  0  0  0  0
   59.8510   28.9880   47.6980 C   0  0  0  0  0  0  0  0  0  0  0  0
   59.0650   28.4330   48.4520 O   0  0  0  0  0  0  0  0  0  0  0  0
   59.8520   28.5880   46.2430 C   0  0  0  0  0  0  0  0  0  0  0  0
   58.5860   28.9770   45.5970 N   0  0  0  0  0  0  0  0  0  0  0  0
   58.5670   30.0820   44.7920 C   0  0  0  0  0  0  0  0  0  0  0  0
   57.3830   30.5010   44.1880 C   0  0  0  0  0  0  0  0  0  0  0  0
   57.3690   31.5990   43.3910 F   0  0  0  0  0  0  0  0  0  0  0  0
   56.2220   29.7720   44.4250 C   0  0  0  0  0  0  0  0  0  0  0  0
   55.1320   30.1200   43.8980 O   0  0  0  0  0  0  0  0  0  0  0  0
   56.2650   28.6800   45.2280 N   0  0  0  0  0  0  0  0  0  0  0  0
   57.4240   28.2770   45.8110 C   0  0  0  0  0  0  0  0  0  0  0  0
   57.4130   27.2520   46.5430 O   0  0  0  0  0  0  0  0  0  0  0  0
   56.8409   32.1522   46.5019 H   0  0  0  0  0  0  0  0  0  0  0  0
   57.1374   33.8112   45.6131 H   0  0  0  0  0  0  0  0  0  0  0  0
   58.8524   35.1539   46.1772 H   0  0  0  0  0  0  0  0  0  0  0  0
   59.7354   34.8678   47.7239 H   0  0  0  0  0  0  0  0  0  0  0  0
   60.5045   33.2018   45.3384 H   0  0  0  0  0  0  0  0  0  0  0  0
   60.9967   34.9425   45.3625 H   0  0  0  0  0  0  0  0  0  0  0  0
   62.7961   33.7575   46.3282 H   0  0  0  0  0  0  0  0  0  0  0  0
   61.8308   34.5025   47.7129 H   0  0  0  0  0  0  0  0  0  0  0  0
   61.7395   32.6703   48.6944 H   0  0  0  0  0  0  0  0  0  0  0  0
   63.6290   32.2270   47.0320 H   0  0  0  0  0  0  0  0  0  0  0  0
   60.3882   31.3907   46.3593 H   0  0  0  0  0  0  0  0  0  0  0  0
   58.3704   31.2895   47.7669 H   0  0  0  0  0  0  0  0  0  0  0  0
   58.1409   32.8276   49.6853 H   0  0  0  0  0  0  0  0  0  0  0  0
   59.9155   33.1228   49.6288 H   0  0  0  0  0  0  0  0  0  0  0  0
   58.4613   30.4815   50.1626 H   0  0  0  0  0  0  0  0  0  0  0  0
   59.5687   31.4002   51.2626 H   0  0  0  0  0  0  0  0  0  0  0  0
   61.7565   29.8165   47.9786 H   0  0  0  0  0  0  0  0  0  0  0  0
   60.6875   29.0880   45.7312 H   0  0  0  0  0  0  0  0  0  0  0  0
   59.9633   27.4957   46.1757 H   0  0  0  0  0  0  0  0  0  0  0  0
   59.4955   30.6459   44.6194 H   0  0  0  0  0  0  0  0  0  0  0  0
  1  2  2  0
  2  3  1  0
  3  4  1  0
  4  5  1  0
  5  6  1  0
  6  7  1  0
  6  8  1  0
  8  9  1  0
  9 10  1  0
 10 11  1  0
 11 12  1  0
 12 13  2  0
 12 14  1  0
 14 15  1  0
 15 16  2  0
 15 17  1  0
 17 18  1  0
 18 19  1  0
 19 20  2  0
 20 21  1  0
 20 22  1  0
 22 23  2  0
 22 24  1  0
 24 25  1  0
 25 26  2  0
  9  2  1  0
 25 18  1  0
 14  8  1  0
  1 27  1  0
  1 28  1  0
  3 29  1  0
  3 30  1  0
  4 31  1  0
  4 32  1  0
  5 33  1  0
  5 34  1  0
  6 35  1  1
  7 36  1  0
  8 37  1  6
  9 38  1  1
 10 39  1  0
 10 40  1  0
 11 41  1  0
 11 42  1  0
 14 43  1  1
 17 44  1  0
 17 45  1  0
 19 46  1  0
M  CHG  1  24  -1
M  END
>  <UniqueID>  (69) 
68

>  <SMILES>  (69) 
C=C1CCC[C@H](O)[C@@H]2C1CCC(=O)C2C(=O)Cn1cc(F)c(=O)[n-]c1=O

>  <Energy>  (69) 
60.63244104912112

>  <Genealogy>  (69) 
C=C1CCCC(O)C2C1CCC(=O)C2C(=O)Cn1cc(F)c(=O)[n-]c1=O (protonated)
C=C1CCC[C@H](O)[C@@H]2C1CCC(=O)C2C(=O)Cn1cc(F)c(=O)[n-]c1=O (chirality)
C=C1CCC[C@H](O)[C@@H]2C1CCC(=O)C2C(=O)Cn1cc(F)c(=O)[n-]c1=O (3D coordinates assigned)
C=C1CCC[C@H](O)[C@@H]2C1CCC(=O)C2C(=O)Cn1cc(F)c(=O)[n-]c1=O (nonaromatic ring conformer: 60.63244104912112 kcal/mol)

>  <smiles>  (69) 
C=C1CCCC(O)C2C1CCC(=O)C2C(=O)Cn1cc(F)c(=O)[nH]c1=O

>  <score_type>  (69) 
oracle

>  <origin>  (69) 
adg

>  <m_score__min__energy>  (69) 
-9.2899999999999991

>  <m_primary>  (69) 
energy

$$$$
70:0
     RDKit          3D

 27 28  0  0  0  0  0  0  0  0999 V2000
   64.0140   32.0950   47.6310 N   0  0  0  0  0  0  0  0  0  0  0  0
   62.8020   33.3160   47.4690 S   0  0  0  0  0  0  0  0  0  0  0  0
   62.7830   34.1720   48.7040 O   0  0  0  0  0  0  0  0  0  0  0  0
   63.1240   34.1870   46.2870 O   0  0  0  0  0  0  0  0  0  0  0  0
   61.2270   32.5610   47.2440 C   0  0  0  0  0  0  0  0  0  0  0  0
   60.0560   33.2610   47.5600 C   0  0  0  0  0  0  0  0  0  0  0  0
   58.8070   32.6600   47.3750 C   0  0  0  0  0  0  0  0  0  0  0  0
   58.7230   31.3620   46.8650 C   0  0  0  0  0  0  0  0  0  0  0  0
   59.8890   30.6600   46.5300 C   0  0  0  0  0  0  0  0  0  0  0  0
   59.7930   29.0190   45.9040 S   0  0  0  0  0  0  0  0  0  0  0  0
   60.3850   28.0570   46.8950 O   0  0  0  0  0  0  0  0  0  0  0  0
   60.5670   28.9090   44.6200 O   0  0  0  0  0  0  0  0  0  0  0  0
   58.1150   28.6110   45.6150 C   0  0  0  0  0  0  0  0  0  0  0  0
   57.1920   29.3730   44.9280 C   0  0  0  0  0  0  0  0  0  0  0  0
   55.9870   28.7670   44.9270 N   0  0  0  0  0  0  0  0  0  0  0  0
   56.1690   27.6260   45.6210 C   0  0  0  0  0  0  0  0  0  0  0  0
   55.1530   26.7070   45.8530 O   0  0  0  0  0  0  0  0  0  0  0  0
   57.4640   27.4870   46.0680 C   0  0  0  0  0  0  0  0  0  0  0  0
   61.1400   31.2620   46.7250 C   0  0  0  0  0  0  0  0  0  0  0  0
   64.7650   32.4900   48.2400 H   0  0  0  0  0  0  0  0  0  0  0  0
   64.4350   31.9570   46.6860 H   0  0  0  0  0  0  0  0  0  0  0  0
   60.1188   34.2859   47.9546 H   0  0  0  0  0  0  0  0  0  0  0  0
   57.8894   33.2099   47.6313 H   0  0  0  0  0  0  0  0  0  0  0  0
   57.7393   30.8898   46.7260 H   0  0  0  0  0  0  0  0  0  0  0  0
   57.4086   30.3390   44.4485 H   0  0  0  0  0  0  0  0  0  0  0  0
   57.8852   26.6593   46.6575 H   0  0  0  0  0  0  0  0  0  0  0  0
   62.0578   30.7121   46.4694 H   0  0  0  0  0  0  0  0  0  0  0  0
  1  2  1  0
  2  3  2  0
  2  4  2  0
  2  5  1  0
  5  6  2  0
  6  7  1  0
  7  8  2  0
  8  9  1  0
  9 10  1  0
 10 11  2  0
 10 12  2  0
 10 13  1  0
 13 14  2  0
 14 15  1  0
 15 16  1  0
 16 17  1  0
 16 18  2  0
  9 19  2  0
 19  5  1  0
 18 13  1  0
  1 20  1  0
  1 21  1  0
  6 22  1  0
  7 23  1  0
  8 24  1  0
 14 25  1  0
 18 26  1  0
 19 27  1  0
M  CHG  2  15  -1  17  -1
M  END
>  <UniqueID>  (70) 
69

>  <SMILES>  (70) 
NS(=O)(=O)c1cccc(S(=O)(=O)c2c[n-]c([O-])c2)c1

>  <Energy>  (70) 
53.3889706237285

>  <Genealogy>  (70) 
NS(=O)(=O)c1cccc(S(=O)(=O)c2c[n-]c([O-])c2)c1 (protonated)
NS(=O)(=O)c1cccc(S(=O)(=O)c2c[n-]c([O-])c2)c1 (3D coordinates assigned)
NS(=O)(=O)c1cccc(S(=O)(=O)c2c[n-]c([O-])c2)c1 (optimized conformer: 53.3889706237285 kcal/mol)

>  <smiles>  (70) 
NS(=O)(=O)c1cccc(S(=O)(=O)c2c[nH]c(O)c2)c1

>  <score_type>  (70) 
oracle

>  <origin>  (70) 
adg

>  <m_score__min__energy>  (70) 
-13.33

>  <m_primary>  (70) 
energy

$$$$
71:0
     RDKit          3D

 63 67  0  0  0  0  0  0  0  0999 V2000
   57.3920   32.4260   51.6540 N   0  0  0  0  0  0  0  0  0  0  0  0
   58.3570   31.4290   50.6230 S   0  0  0  0  0  0  0  0  0  0  0  0
   58.1450   31.8460   49.1970 O   0  0  0  0  0  0  0  0  0  0  0  0
   57.9150   30.0040   50.8000 O   0  0  0  0  0  0  0  0  0  0  0  0
   60.0720   31.6170   51.0350 C   0  0  0  0  0  0  0  0  0  0  0  0
   60.4160   32.5650   52.0110 C   0  0  0  0  0  0  0  0  0  0  0  0
   61.7460   32.7360   52.4010 C   0  0  0  0  0  0  0  0  0  0  0  0
   62.7490   31.9630   51.8220 C   0  0  0  0  0  0  0  0  0  0  0  0
   62.4280   31.0200   50.8430 C   0  0  0  0  0  0  0  0  0  0  0  0
   61.0970   30.8440   50.4290 C   0  0  0  0  0  0  0  0  0  0  0  0
   60.8220   29.8440   49.3760 C   0  0  0  0  0  0  0  0  0  0  0  0
   60.4600   28.5310   49.7130 C   0  0  0  0  0  0  0  0  0  0  0  0
   60.2030   27.5890   48.7100 C   0  0  0  0  0  0  0  0  0  0  0  0
   60.2680   27.9610   47.3510 C   0  0  0  0  0  0  0  0  0  0  0  0
   60.0050   27.0480   46.2730 N   0  0  0  0  0  0  0  0  0  0  0  0
   58.8920   26.1620   46.0940 C   0  0  0  0  0  0  0  0  0  0  0  0
   58.7950   25.0900   46.7470 O   0  0  0  0  0  0  0  0  0  0  0  0
   57.8050   26.5490   45.1370 C   0  0  0  0  0  0  0  0  0  0  0  0
   56.4830   26.9960   45.6780 C   0  0  0  0  0  0  0  0  0  0  0  0
   55.8930   26.2940   46.5440 O   0  0  0  0  0  0  0  0  0  0  0  0
   55.9190   28.2360   45.2400 N   0  0  0  0  0  0  0  0  0  0  0  0
   56.5940   29.5020   45.2530 C   0  0  0  0  0  0  0  0  0  0  0  0
   56.1700   30.5080   44.3760 C   0  0  0  0  0  0  0  0  0  0  0  0
   56.7520   31.7800   44.4240 C   0  0  0  0  0  0  0  0  0  0  0  0
   57.7500   32.0720   45.3610 C   0  0  0  0  0  0  0  0  0  0  0  0
   58.2730   33.3780   45.3910 O   0  0  0  0  0  0  0  0  0  0  0  0
   59.6580   33.7170   45.3130 C   0  0  0  0  0  0  0  0  0  0  0  0
   60.2560   33.8590   46.6890 C   0  0  0  0  0  0  0  0  0  0  0  0
   61.6110   33.5540   46.9000 C   0  0  0  0  0  0  0  0  0  0  0  0
   62.1740   33.6920   48.1730 C   0  0  0  0  0  0  0  0  0  0  0  0
   61.3900   34.1370   49.2410 C   0  0  0  0  0  0  0  0  0  0  0  0
   60.0430   34.4530   49.0370 C   0  0  0  0  0  0  0  0  0  0  0  0
   59.4780   34.3210   47.7650 C   0  0  0  0  0  0  0  0  0  0  0  0
   58.1740   31.0630   46.2450 C   0  0  0  0  0  0  0  0  0  0  0  0
   57.6010   29.7880   46.1900 C   0  0  0  0  0  0  0  0  0  0  0  0
   58.2280   27.1250   43.7910 C   0  0  0  0  0  0  0  0  0  0  0  0
   57.7270   25.6910   43.8790 C   0  0  0  0  0  0  0  0  0  0  0  0
   60.6300   29.2740   47.0230 C   0  0  0  0  0  0  0  0  0  0  0  0
   60.8990   30.2110   48.0240 C   0  0  0  0  0  0  0  0  0  0  0  0
   56.4690   32.5490   51.1810 H   0  0  0  0  0  0  0  0  0  0  0  0
   59.6298   33.1797   52.4736 H   0  0  0  0  0  0  0  0  0  0  0  0
   62.0017   33.4828   53.1671 H   0  0  0  0  0  0  0  0  0  0  0  0
   63.7950   32.0951   52.1359 H   0  0  0  0  0  0  0  0  0  0  0  0
   63.2244   30.4097   50.3921 H   0  0  0  0  0  0  0  0  0  0  0  0
   60.3777   28.2404   50.7707 H   0  0  0  0  0  0  0  0  0  0  0  0
   59.9492   26.5540   48.9829 H   0  0  0  0  0  0  0  0  0  0  0  0
   55.3751   30.2974   43.6453 H   0  0  0  0  0  0  0  0  0  0  0  0
   56.4221   32.5573   43.7190 H   0  0  0  0  0  0  0  0  0  0  0  0
   60.1924   32.9248   44.7682 H   0  0  0  0  0  0  0  0  0  0  0  0
   59.7551   34.6782   44.7870 H   0  0  0  0  0  0  0  0  0  0  0  0
   62.2314   33.2054   46.0612 H   0  0  0  0  0  0  0  0  0  0  0  0
   63.2350   33.4500   48.3337 H   0  0  0  0  0  0  0  0  0  0  0  0
   61.8328   34.2388   50.2428 H   0  0  0  0  0  0  0  0  0  0  0  0
   59.4277   34.8056   49.8779 H   0  0  0  0  0  0  0  0  0  0  0  0
   58.4208   34.5796   47.6055 H   0  0  0  0  0  0  0  0  0  0  0  0
   58.9604   31.2778   46.9835 H   0  0  0  0  0  0  0  0  0  0  0  0
   57.9407   29.0052   46.8841 H   0  0  0  0  0  0  0  0  0  0  0  0
   57.6107   27.8941   43.3037 H   0  0  0  0  0  0  0  0  0  0  0  0
   59.1369   27.6084   43.4034 H   0  0  0  0  0  0  0  0  0  0  0  0
   56.7476   25.4237   43.4555 H   0  0  0  0  0  0  0  0  0  0  0  0
   58.1237   24.7091   43.5816 H   0  0  0  0  0  0  0  0  0  0  0  0
   60.7032   29.5704   45.9662 H   0  0  0  0  0  0  0  0  0  0  0  0
   61.1723   31.2409   47.7509 H   0  0  0  0  0  0  0  0  0  0  0  0
  1  2  1  0
  2  3  2  0
  2  4  2  0
  2  5  1  0
  5  6  2  0
  6  7  1  0
  7  8  2  0
  8  9  1  0
  9 10  2  0
 10 11  1  0
 11 12  2  0
 12 13  1  0
 13 14  2  0
 14 15  1  0
 15 16  1  0
 16 17  2  0
 16 18  1  0
 18 19  1  0
 19 20  2  0
 19 21  1  0
 21 22  1  0
 22 23  2  0
 23 24  1  0
 24 25  2  0
 25 26  1  0
 26 27  1  0
 27 28  1  0
 28 29  2  0
 29 30  1  0
 30 31  2  0
 31 32  1  0
 32 33  2  0
 25 34  1  0
 34 35  2  0
 18 36  1  0
 36 37  1  0
 14 38  1  0
 38 39  2  0
 10  5  1  0
 39 11  1  0
 37 18  1  0
 35 22  1  0
 33 28  1  0
  1 40  1  0
  6 41  1  0
  7 42  1  0
  8 43  1  0
  9 44  1  0
 12 45  1  0
 13 46  1  0
 23 47  1  0
 24 48  1  0
 27 49  1  0
 27 50  1  0
 29 51  1  0
 30 52  1  0
 31 53  1  0
 32 54  1  0
 33 55  1  0
 34 56  1  0
 35 57  1  0
 36 58  1  0
 36 59  1  0
 37 60  1  0
 37 61  1  0
 38 62  1  0
 39 63  1  0
M  CHG  3   1  -1  15  -1  21  -1
M  END
>  <UniqueID>  (71) 
70

>  <SMILES>  (71) 
[NH-]S(=O)(=O)c1ccccc1-c1ccc([N-]C(=O)C2(C(=O)[N-]c3ccc(OCc4ccccc4)cc3)CC2)cc1

>  <Energy>  (71) 
349.83585025409485

>  <Genealogy>  (71) 
[NH-]S(=O)(=O)c1ccccc1-c1ccc([N-]C(=O)C2(C(=O)[N-]c3ccc(OCc4ccccc4)cc3)CC2)cc1 (protonated)
[NH-]S(=O)(=O)c1ccccc1-c1ccc([N-]C(=O)C2(C(=O)[N-]c3ccc(OCc4ccccc4)cc3)CC2)cc1 (3D coordinates assigned)
[NH-]S(=O)(=O)c1ccccc1-c1ccc([N-]C(=O)C2(C(=O)[N-]c3ccc(OCc4ccccc4)cc3)CC2)cc1 (nonaromatic ring conformer: 349.83585025409485 kcal/mol)

>  <smiles>  (71) 
NS(=O)(=O)c1ccccc1-c1ccc(NC(=O)C2(C(=O)Nc3ccc(OCc4ccccc4)cc3)CC2)cc1

>  <score_type>  (71) 
oracle

>  <origin>  (71) 
adg

>  <m_score__min__energy>  (71) 
-14.109999999999999

>  <m_primary>  (71) 
energy

$$$$
72:0
     RDKit          3D

 55 57  0  0  0  0  0  0  0  0999 V2000
   57.8420   31.2330   51.6690 C   0  0  0  0  0  0  0  0  0  0  0  0
   57.7740   31.8160   50.3710 O   0  0  0  0  0  0  0  0  0  0  0  0
   58.8540   32.4340   49.7240 C   0  0  0  0  0  0  0  0  0  0  0  0
   60.0980   32.4250   50.3570 C   0  0  0  0  0  0  0  0  0  0  0  0
   61.2070   33.0150   49.7480 C   0  0  0  0  0  0  0  0  0  0  0  0
   61.0900   33.6210   48.4850 C   0  0  0  0  0  0  0  0  0  0  0  0
   62.1960   34.1940   47.8370 O   0  0  0  0  0  0  0  0  0  0  0  0
   63.1890   33.4600   47.1180 C   0  0  0  0  0  0  0  0  0  0  0  0
   59.8320   33.6540   47.8510 C   0  0  0  0  0  0  0  0  0  0  0  0
   59.6360   34.4130   46.2680 S   0  0  0  0  0  0  0  0  0  0  0  0
   60.6690   33.8570   45.3280 O   0  0  0  0  0  0  0  0  0  0  0  0
   59.8240   35.9010   46.3720 O   0  0  0  0  0  0  0  0  0  0  0  0
   58.0380   34.0640   45.6910 N   0  0  0  0  0  0  0  0  0  0  0  0
   57.7060   33.0280   44.7600 C   0  0  0  0  0  0  0  0  0  0  0  0
   58.0930   33.0860   43.4100 C   0  0  0  0  0  0  0  0  0  0  0  0
   57.8130   32.0160   42.5560 C   0  0  0  0  0  0  0  0  0  0  0  0
   57.1660   30.8780   43.0450 C   0  0  0  0  0  0  0  0  0  0  0  0
   56.7660   30.8100   44.3850 C   0  0  0  0  0  0  0  0  0  0  0  0
   56.1670   29.5930   44.8620 N   0  0  0  0  0  0  0  0  0  0  0  0
   57.0160   28.1610   45.3650 S   0  0  0  0  0  0  0  0  0  0  0  0
   57.6320   27.5110   44.1590 O   0  0  0  0  0  0  0  0  0  0  0  0
   56.0340   27.2060   45.9850 O   0  0  0  0  0  0  0  0  0  0  0  0
   58.3060   28.5450   46.5040 C   0  0  0  0  0  0  0  0  0  0  0  0
   58.5450   27.7120   47.6050 C   0  0  0  0  0  0  0  0  0  0  0  0
   59.5190   28.0520   48.5460 C   0  0  0  0  0  0  0  0  0  0  0  0
   60.2650   29.2340   48.4000 C   0  0  0  0  0  0  0  0  0  0  0  0
   61.2870   29.5920   49.3440 N   0  0  0  0  0  0  0  0  0  0  0  0
   61.2030   29.3180   50.7500 C   0  0  0  0  0  0  0  0  0  0  0  0
   62.4150   29.4690   51.6100 C   0  0  0  0  0  0  0  0  0  0  0  0
   60.1100   28.9710   51.2740 O   0  0  0  0  0  0  0  0  0  0  0  0
   60.0440   30.0480   47.2770 C   0  0  0  0  0  0  0  0  0  0  0  0
   59.0660   29.7100   46.3390 C   0  0  0  0  0  0  0  0  0  0  0  0
   56.9940   31.9160   45.2240 C   0  0  0  0  0  0  0  0  0  0  0  0
   58.7260   33.0520   48.4670 C   0  0  0  0  0  0  0  0  0  0  0  0
   57.7500   32.0215   52.4304 H   0  0  0  0  0  0  0  0  0  0  0  0
   57.0221   30.5096   51.7894 H   0  0  0  0  0  0  0  0  0  0  0  0
   58.8063   30.7177   51.7894 H   0  0  0  0  0  0  0  0  0  0  0  0
   60.2053   31.9495   51.3431 H   0  0  0  0  0  0  0  0  0  0  0  0
   62.1802   33.0056   50.2606 H   0  0  0  0  0  0  0  0  0  0  0  0
   63.8635   32.9615   47.8297 H   0  0  0  0  0  0  0  0  0  0  0  0
   62.7001   32.7045   46.4854 H   0  0  0  0  0  0  0  0  0  0  0  0
   63.7679   34.1490   46.4854 H   0  0  0  0  0  0  0  0  0  0  0  0
   58.6164   33.9739   43.0257 H   0  0  0  0  0  0  0  0  0  0  0  0
   58.1026   32.0696   41.4962 H   0  0  0  0  0  0  0  0  0  0  0  0
   56.9696   30.0299   42.3726 H   0  0  0  0  0  0  0  0  0  0  0  0
   57.9631   26.7867   47.7285 H   0  0  0  0  0  0  0  0  0  0  0  0
   59.7033   27.3913   49.4059 H   0  0  0  0  0  0  0  0  0  0  0  0
   62.1200   30.1170   48.9910 H   0  0  0  0  0  0  0  0  0  0  0  0
   62.1200   29.4322   52.6691 H   0  0  0  0  0  0  0  0  0  0  0  0
   63.1198   28.6517   51.3971 H   0  0  0  0  0  0  0  0  0  0  0  0
   62.8977   30.4342   51.3971 H   0  0  0  0  0  0  0  0  0  0  0  0
   60.6454   30.9581   47.1353 H   0  0  0  0  0  0  0  0  0  0  0  0
   58.8922   30.3600   45.4688 H   0  0  0  0  0  0  0  0  0  0  0  0
   56.6090   31.9067   46.2544 H   0  0  0  0  0  0  0  0  0  0  0  0
   57.7486   33.0630   47.9625 H   0  0  0  0  0  0  0  0  0  0  0  0
  1  2  1  0
  2  3  1  0
  3  4  2  0
  4  5  1  0
  5  6  2  0
  6  7  1  0
  7  8  1  0
  6  9  1  0
  9 10  1  0
 10 11  2  0
 10 12  2  0
 10 13  1  0
 13 14  1  0
 14 15  2  0
 15 16  1  0
 16 17  2  0
 17 18  1  0
 18 19  1  0
 19 20  1  0
 20 21  2  0
 20 22  2  0
 20 23  1  0
 23 24  2  0
 24 25  1  0
 25 26  2  0
 26 27  1  0
 27 28  1  0
 28 29  1  0
 28 30  2  0
 26 31  1  0
 31 32  2  0
 18 33  2  0
  9 34  2  0
 34  3  1  0
 33 14  1  0
 32 23  1  0
  1 35  1  0
  1 36  1  0
  1 37  1  0
  4 38  1  0
  5 39  1  0
  8 40  1  0
  8 41  1  0
  8 42  1  0
 15 43  1  0
 16 44  1  0
 17 45  1  0
 24 46  1  0
 25 47  1  0
 27 48  1  0
 29 49  1  0
 29 50  1  0
 29 51  1  0
 31 52  1  0
 32 53  1  0
 33 54  1  0
 34 55  1  0
M  CHG  2  13  -1  19  -1
M  END
>  <UniqueID>  (72) 
71

>  <SMILES>  (72) 
COc1ccc(OC)c(S(=O)(=O)[N-]c2cccc([N-]S(=O)(=O)c3ccc(NC(C)=O)cc3)c2)c1

>  <Energy>  (72) 
63.84966753148657

>  <Genealogy>  (72) 
COc1ccc(OC)c(S(=O)(=O)[N-]c2cccc([N-]S(=O)(=O)c3ccc(NC(C)=O)cc3)c2)c1 (protonated)
COc1ccc(OC)c(S(=O)(=O)[N-]c2cccc([N-]S(=O)(=O)c3ccc(NC(C)=O)cc3)c2)c1 (3D coordinates assigned)
COc1ccc(OC)c(S(=O)(=O)[N-]c2cccc([N-]S(=O)(=O)c3ccc(NC(C)=O)cc3)c2)c1 (optimized conformer: 63.84966753148657 kcal/mol)

>  <smiles>  (72) 
COc1ccc(OC)c(S(=O)(=O)Nc2cccc(NS(=O)(=O)c3ccc(NC(C)=O)cc3)c2)c1

>  <score_type>  (72) 
oracle

>  <origin>  (72) 
adg

>  <m_score__min__energy>  (72) 
-11.57

>  <m_primary>  (72) 
energy

$$$$
73:0
     RDKit          3D

 44 45  0  0  0  0  0  0  0  0999 V2000
   60.1520   33.1260   49.5750 C   0  0  0  0  0  0  0  0  0  0  0  0
   59.5870   33.5460   48.2600 C   0  0  0  0  0  0  0  0  0  0  0  0
   60.1640   34.4570   47.3840 C   0  0  0  0  0  0  0  0  0  0  0  0
   59.4390   34.6130   46.1960 C   0  0  0  0  0  0  0  0  0  0  0  0
   58.3060   33.8110   46.1360 C   0  0  0  0  0  0  0  0  0  0  0  0
   57.3460   33.7660   45.0290 C   0  0  0  0  0  0  0  0  0  0  0  0
   56.5780   34.7470   44.8280 O   0  0  0  0  0  0  0  0  0  0  0  0
   57.2950   32.6400   44.1980 O   0  0  0  0  0  0  0  0  0  0  0  0
   58.2020   31.5450   44.3150 C   0  0  0  0  0  0  0  0  0  0  0  0
   57.5410   30.2620   43.8930 C   0  0  0  0  0  0  0  0  0  0  0  0
   56.9710   30.2050   42.7710 O   0  0  0  0  0  0  0  0  0  0  0  0
   57.5730   29.0570   44.7560 C   0  0  0  0  0  0  0  0  0  0  0  0
   56.3960   28.4670   45.2290 C   0  0  0  0  0  0  0  0  0  0  0  0
   55.1500   28.9870   44.8980 O   0  0  0  0  0  0  0  0  0  0  0  0
   56.4620   27.3520   45.9910 N   0  0  0  0  0  0  0  0  0  0  0  0
   57.6480   26.7950   46.3400 C   0  0  0  0  0  0  0  0  0  0  0  0
   57.6400   25.7320   47.0190 O   0  0  0  0  0  0  0  0  0  0  0  0
   58.8310   27.3730   45.9490 N   0  0  0  0  0  0  0  0  0  0  0  0
   60.1200   26.7780   46.3680 C   0  0  0  0  0  0  0  0  0  0  0  0
   60.6840   27.3810   47.6760 C   0  0  0  0  0  0  0  0  0  0  0  0
   60.0440   28.6970   48.1840 C   0  0  0  0  0  0  0  0  0  0  0  0
   60.6600   29.9500   47.5490 C   0  0  0  0  0  0  0  0  0  0  0  0
   60.0190   28.8030   49.7130 C   0  0  0  0  0  0  0  0  0  0  0  0
   58.8000   28.4720   45.1230 C   0  0  0  0  0  0  0  0  0  0  0  0
   59.8730   28.9820   44.6950 O   0  0  0  0  0  0  0  0  0  0  0  0
   58.2010   32.9090   47.5530 S   0  0  0  0  0  0  0  0  0  0  0  0
   59.5571   33.5682   50.3877 H   0  0  0  0  0  0  0  0  0  0  0  0
   60.1220   32.0292   49.6535 H   0  0  0  0  0  0  0  0  0  0  0  0
   61.1936   33.4708   49.6535 H   0  0  0  0  0  0  0  0  0  0  0  0
   61.0954   35.0004   47.6014 H   0  0  0  0  0  0  0  0  0  0  0  0
   59.7366   35.3013   45.3912 H   0  0  0  0  0  0  0  0  0  0  0  0
   59.0760   31.7295   43.6730 H   0  0  0  0  0  0  0  0  0  0  0  0
   58.5139   31.4540   45.3659 H   0  0  0  0  0  0  0  0  0  0  0  0
   59.9722   25.6984   46.5181 H   0  0  0  0  0  0  0  0  0  0  0  0
   60.8487   26.9938   45.5727 H   0  0  0  0  0  0  0  0  0  0  0  0
   60.5618   26.6269   48.4674 H   0  0  0  0  0  0  0  0  0  0  0  0
   61.7252   27.6456   47.4396 H   0  0  0  0  0  0  0  0  0  0  0  0
   58.9973   28.6492   47.8490 H   0  0  0  0  0  0  0  0  0  0  0  0
   60.9967   30.6348   48.3412 H   0  0  0  0  0  0  0  0  0  0  0  0
   61.5186   29.6606   46.9252 H   0  0  0  0  0  0  0  0  0  0  0  0
   59.9065   30.4531   46.9252 H   0  0  0  0  0  0  0  0  0  0  0  0
   60.2505   27.8215   50.1524 H   0  0  0  0  0  0  0  0  0  0  0  0
   60.7685   29.5379   50.0419 H   0  0  0  0  0  0  0  0  0  0  0  0
   59.0201   29.1256   50.0419 H   0  0  0  0  0  0  0  0  0  0  0  0
  1  2  1  0
  2  3  2  0
  3  4  1  0
  4  5  2  0
  5  6  1  0
  6  7  2  0
  6  8  1  0
  8  9  1  0
  9 10  1  0
 10 11  2  0
 10 12  1  0
 12 13  2  0
 13 14  1  0
 13 15  1  0
 15 16  1  0
 16 17  2  0
 16 18  1  0
 18 19  1  0
 19 20  1  0
 20 21  1  0
 21 22  1  0
 21 23  1  0
 18 24  1  0
 24 25  2  0
  5 26  1  0
 26  2  1  0
 24 12  1  0
  1 27  1  0
  1 28  1  0
  1 29  1  0
  3 30  1  0
  4 31  1  0
  9 32  1  0
  9 33  1  0
 19 34  1  0
 19 35  1  0
 20 36  1  0
 20 37  1  0
 21 38  1  0
 22 39  1  0
 22 40  1  0
 22 41  1  0
 23 42  1  0
 23 43  1  0
 23 44  1  0
M  CHG  2  14  -1  15  -1
M  END
>  <UniqueID>  (73) 
72

>  <SMILES>  (73) 
Cc1ccc(C(=O)OCC(=O)c2c([O-])[n-]c(=O)n(CCC(C)C)c2=O)s1

>  <Energy>  (73) 
69.69867054581447

>  <Genealogy>  (73) 
Cc1ccc(C(=O)OCC(=O)c2c([O-])[n-]c(=O)n(CCC(C)C)c2=O)s1 (protonated)
Cc1ccc(C(=O)OCC(=O)c2c([O-])[n-]c(=O)n(CCC(C)C)c2=O)s1 (3D coordinates assigned)
Cc1ccc(C(=O)OCC(=O)c2c([O-])[n-]c(=O)n(CCC(C)C)c2=O)s1 (optimized conformer: 69.69867054581447 kcal/mol)

>  <smiles>  (73) 
Cc1ccc(C(=O)OCC(=O)c2c(O)[nH]c(=O)n(CCC(C)C)c2=O)s1

>  <score_type>  (73) 
oracle

>  <origin>  (73) 
adg

>  <m_score__min__energy>  (73) 
-13.050000000000001

>  <m_primary>  (73) 
energy

$$$$
74:0
     RDKit          3D

 49 51  0  0  0  0  0  0  0  0999 V2000
   57.7840   30.9570   45.0470 H   0  0  0  0  0  0  0  0  0  0  0  0
   56.9800   30.3630   44.8830 O   0  0  0  0  0  0  0  0  0  0  0  0
   56.9430   29.0670   45.3910 C   0  0  0  0  0  0  0  0  0  0  0  0
   55.8980   28.2350   45.2520 N   0  0  0  0  0  0  0  0  0  0  0  0
   56.3290   27.1150   45.8690 C   0  0  0  0  0  0  0  0  0  0  0  0
   55.6250   26.0750   45.9570 O   0  0  0  0  0  0  0  0  0  0  0  0
   57.5770   27.1920   46.3790 N   0  0  0  0  0  0  0  0  0  0  0  0
   57.9520   28.4520   46.0920 C   0  0  0  0  0  0  0  0  0  0  0  0
   59.2960   29.0080   46.3310 C   0  0  0  0  0  0  0  0  0  0  0  0
   60.0717   28.7858   45.5834 H   0  0  0  0  0  0  0  0  0  0  0  0
   59.6570   29.7650   47.3860 C   0  0  0  0  0  0  0  0  0  0  0  0
   58.9110   29.8280   48.5500 C   0  0  0  0  0  0  0  0  0  0  0  0
   58.0072   29.2451   48.7810 H   0  0  0  0  0  0  0  0  0  0  0  0
   59.5170   30.7610   49.3650 C   0  0  0  0  0  0  0  0  0  0  0  0
   59.0170   31.1530   50.7240 C   0  0  0  0  0  0  0  0  0  0  0  0
   59.6341   30.6692   51.4954 H   0  0  0  0  0  0  0  0  0  0  0  0
   59.0793   32.2455   50.8365 H   0  0  0  0  0  0  0  0  0  0  0  0
   57.9710   30.8318   50.8365 H   0  0  0  0  0  0  0  0  0  0  0  0
   60.6210   31.2670   48.7670 N   0  0  0  0  0  0  0  0  0  0  0  0
   61.5510   32.2350   49.3700 C   0  0  0  0  0  0  0  0  0  0  0  0
   61.3205   32.3398   50.4405 H   0  0  0  0  0  0  0  0  0  0  0  0
   62.5800   31.8696   49.2375 H   0  0  0  0  0  0  0  0  0  0  0  0
   61.4190   33.6030   48.6890 C   0  0  0  0  0  0  0  0  0  0  0  0
   61.8798   34.3652   49.3345 H   0  0  0  0  0  0  0  0  0  0  0  0
   61.9242   33.5430   47.7137 H   0  0  0  0  0  0  0  0  0  0  0  0
   59.9790   33.9840   48.4400 C   0  0  0  0  0  0  0  0  0  0  0  0
   59.2870   34.4390   49.3930 O   0  0  0  0  0  0  0  0  0  0  0  0
   59.4020   33.8990   47.1170 N   0  0  0  0  0  0  0  0  0  0  0  0
   60.2780   33.9200   45.9340 C   0  0  0  0  0  0  0  0  0  0  0  0
   60.9263   34.8073   45.9829 H   0  0  0  0  0  0  0  0  0  0  0  0
   60.8809   33.0000   45.9297 H   0  0  0  0  0  0  0  0  0  0  0  0
   59.4610   33.9700   44.6450 C   0  0  0  0  0  0  0  0  0  0  0  0
   59.0024   34.9636   44.5338 H   0  0  0  0  0  0  0  0  0  0  0  0
   60.1106   33.7819   43.7774 H   0  0  0  0  0  0  0  0  0  0  0  0
   58.4110   32.9440   44.7230 N   0  0  0  0  0  0  0  0  0  0  0  0
   57.7810   32.7440   43.4090 C   0  0  0  0  0  0  0  0  0  0  0  0
   56.7409   32.4138   43.5475 H   0  0  0  0  0  0  0  0  0  0  0  0
   57.7937   33.6904   42.8484 H   0  0  0  0  0  0  0  0  0  0  0  0
   58.3372   31.9783   42.8484 H   0  0  0  0  0  0  0  0  0  0  0  0
   57.3940   33.2700   45.7510 C   0  0  0  0  0  0  0  0  0  0  0  0
   56.5999   33.8646   45.2758 H   0  0  0  0  0  0  0  0  0  0  0  0
   57.0254   32.3131   46.1492 H   0  0  0  0  0  0  0  0  0  0  0  0
   57.9490   34.0710   46.9520 C   0  0  0  0  0  0  0  0  0  0  0  0
   57.7351   35.1384   46.7941 H   0  0  0  0  0  0  0  0  0  0  0  0
   57.4606   33.6929   47.8622 H   0  0  0  0  0  0  0  0  0  0  0  0
   60.7490   30.6280   47.5730 C   0  0  0  0  0  0  0  0  0  0  0  0
   61.8430   30.7180   46.7990 C   0  0  0  0  0  0  0  0  0  0  0  0
   62.6364   31.4375   47.0497 H   0  0  0  0  0  0  0  0  0  0  0  0
   61.9456   30.0722   45.9145 H   0  0  0  0  0  0  0  0  0  0  0  0
  1  2  1  0
  2  3  1  0
  3  4  1  0
  4  5  1  0
  5  6  2  0
  5  7  1  0
  7  8  1  0
  8  9  1  0
  9 10  1  0
  9 11  2  0
 11 12  1  0
 12 13  1  0
 12 14  2  0
 14 15  1  0
 15 16  1  0
 15 17  1  0
 15 18  1  0
 14 19  1  0
 19 20  1  0
 20 21  1  0
 20 22  1  0
 20 23  1  0
 23 24  1  0
 23 25  1  0
 23 26  1  0
 26 27  2  0
 26 28  1  0
 28 29  1  0
 29 30  1  0
 29 31  1  0
 29 32  1  0
 32 33  1  0
 32 34  1  0
 32 35  1  0
 35 36  1  0
 36 37  1  0
 36 38  1  0
 36 39  1  0
 35 40  1  0
 40 41  1  0
 40 42  1  0
 40 43  1  0
 43 44  1  0
 43 45  1  0
 19 46  1  0
 46 47  2  0
 47 48  1  0
 47 49  1  0
  8  3  2  0
 46 11  1  0
 43 28  1  0
M  CHG  2   4  -1   7  -1
M  END
>  <UniqueID>  (74) 
73

>  <SMILES>  (74) 
C=c1/c(=C\c2[n-]c(=O)[n-]c2O)cc(C)n1CCC(=O)N1CCN(C)CC1

>  <Energy>  (74) 
120.53101820151205

>  <Genealogy>  (74) 
C=c1c(=Cc2[n-]c(=O)[n-]c2O)cc(C)n1CCC(=O)N1CCN(C)CC1 (protonated)
C=c1/c(=C\c2[n-]c(=O)[n-]c2O)cc(C)n1CCC(=O)N1CCN(C)CC1 (cis-trans isomerization)
C=c1/c(=C\c2[n-]c(=O)[n-]c2O)cc(C)n1CCC(=O)N1CCN(C)CC1 (3D coordinates assigned)
C=c1/c(=C\c2[n-]c(=O)[n-]c2O)cc(C)n1CCC(=O)N1CCN(C)CC1 (nonaromatic ring conformer: 120.53101820151205 kcal/mol)

>  <smiles>  (74) 
C=c1c(=Cc2[nH]c(=O)[nH]c2O)cc(C)n1CCC(=O)N1CCN(C)CC1

>  <score_type>  (74) 
oracle

>  <origin>  (74) 
adg

>  <m_score__min__energy>  (74) 
-12.92

>  <m_primary>  (74) 
energy

$$$$
75:0
     RDKit          3D

 51 54  0  0  0  0  0  0  0  0999 V2000
   56.1260   31.5180   44.8350 O   0  0  0  0  0  0  0  0  0  0  0  0
   57.1130   31.0320   44.2220 C   0  0  0  0  0  0  0  0  0  0  0  0
   56.9980   29.7180   43.6580 N   0  0  0  0  0  0  0  0  0  0  0  0
   57.0130   28.5920   44.3110 C   0  0  0  0  0  0  0  0  0  0  0  0
   56.0860   28.2930   45.2450 N   0  0  0  0  0  0  0  0  0  0  0  0
   56.2950   27.1180   45.8350 N   0  0  0  0  0  0  0  0  0  0  0  0
   57.3890   26.4720   45.3730 C   0  0  0  0  0  0  0  0  0  0  0  0
   57.8760   25.1710   45.9220 C   0  0  0  0  0  0  0  0  0  0  0  0
   57.5440   24.0540   44.9720 C   0  0  0  0  0  0  0  0  0  0  0  0
   56.5280   24.2150   44.0140 C   0  0  0  0  0  0  0  0  0  0  0  0
   56.2440   23.1880   43.1090 C   0  0  0  0  0  0  0  0  0  0  0  0
   56.9770   21.9980   43.1460 C   0  0  0  0  0  0  0  0  0  0  0  0
   57.9980   21.8350   44.0880 C   0  0  0  0  0  0  0  0  0  0  0  0
   58.2840   22.8600   44.9960 C   0  0  0  0  0  0  0  0  0  0  0  0
   58.1850   27.3770   44.1950 S   0  0  0  0  0  0  0  0  0  0  0  0
   58.2840   31.8320   44.0010 N   0  0  0  0  0  0  0  0  0  0  0  0
   58.7550   32.8440   44.9090 C   0  0  0  0  0  0  0  0  0  0  0  0
   58.8650   34.1910   44.5190 C   0  0  0  0  0  0  0  0  0  0  0  0
   59.2780   35.1590   45.4400 C   0  0  0  0  0  0  0  0  0  0  0  0
   59.5630   34.7990   46.7570 C   0  0  0  0  0  0  0  0  0  0  0  0
   59.4320   33.4660   47.1660 C   0  0  0  0  0  0  0  0  0  0  0  0
   59.7320   33.0190   48.8460 S   0  0  0  0  0  0  0  0  0  0  0  0
   58.6570   32.0700   49.2950 O   0  0  0  0  0  0  0  0  0  0  0  0
   59.6470   34.2490   49.7070 O   0  0  0  0  0  0  0  0  0  0  0  0
   61.2970   32.2610   49.0660 N   0  0  0  0  0  0  0  0  0  0  0  0
   62.2310   33.1000   49.8430 C   0  0  0  0  0  0  0  0  0  0  0  0
   62.9540   34.1630   48.9840 C   0  0  0  0  0  0  0  0  0  0  0  0
   62.7280   34.0070   47.5970 O   0  0  0  0  0  0  0  0  0  0  0  0
   62.9630   32.6690   47.2280 C   0  0  0  0  0  0  0  0  0  0  0  0
   61.8700   31.7520   47.8020 C   0  0  0  0  0  0  0  0  0  0  0  0
   59.0370   32.4930   46.2380 C   0  0  0  0  0  0  0  0  0  0  0  0
   58.9662   25.2194   46.0602 H   0  0  0  0  0  0  0  0  0  0  0  0
   57.3850   24.9808   46.8878 H   0  0  0  0  0  0  0  0  0  0  0  0
   55.9542   25.1527   43.9763 H   0  0  0  0  0  0  0  0  0  0  0  0
   55.4425   23.3164   42.3666 H   0  0  0  0  0  0  0  0  0  0  0  0
   56.7508   21.1902   42.4345 H   0  0  0  0  0  0  0  0  0  0  0  0
   58.5766   20.8999   44.1149 H   0  0  0  0  0  0  0  0  0  0  0  0
   59.0915   22.7306   45.7317 H   0  0  0  0  0  0  0  0  0  0  0  0
   58.7960   31.6980   43.1000 H   0  0  0  0  0  0  0  0  0  0  0  0
   58.6254   34.4840   43.4862 H   0  0  0  0  0  0  0  0  0  0  0  0
   59.3784   36.2080   45.1246 H   0  0  0  0  0  0  0  0  0  0  0  0
   59.8914   35.5639   47.4761 H   0  0  0  0  0  0  0  0  0  0  0  0
   61.6641   33.6151   50.6325 H   0  0  0  0  0  0  0  0  0  0  0  0
   63.0026   32.4336   50.2560 H   0  0  0  0  0  0  0  0  0  0  0  0
   62.5970   35.1585   49.2865 H   0  0  0  0  0  0  0  0  0  0  0  0
   64.0339   34.0414   49.1546 H   0  0  0  0  0  0  0  0  0  0  0  0
   62.9619   32.5906   46.1308 H   0  0  0  0  0  0  0  0  0  0  0  0
   63.9378   32.3552   47.6297 H   0  0  0  0  0  0  0  0  0  0  0  0
   61.0618   31.6630   47.0611 H   0  0  0  0  0  0  0  0  0  0  0  0
   62.3357   30.7793   48.0189 H   0  0  0  0  0  0  0  0  0  0  0  0
   58.9471   31.4434   46.5547 H   0  0  0  0  0  0  0  0  0  0  0  0
  1  2  2  0
  2  3  1  0
  3  4  2  3
  4  5  1  0
  5  6  1  0
  6  7  2  0
  7  8  1  0
  8  9  1  0
  9 10  2  0
 10 11  1  0
 11 12  2  0
 12 13  1  0
 13 14  2  0
  7 15  1  0
  2 16  1  0
 16 17  1  0
 17 18  2  0
 18 19  1  0
 19 20  2  0
 20 21  1  0
 21 22  1  0
 22 23  2  0
 22 24  2  0
 22 25  1  0
 25 26  1  0
 26 27  1  0
 27 28  1  0
 28 29  1  0
 29 30  1  0
 21 31  2  0
 15  4  1  0
 31 17  1  0
 14  9  1  0
 30 25  1  0
  8 32  1  0
  8 33  1  0
 10 34  1  0
 11 35  1  0
 12 36  1  0
 13 37  1  0
 14 38  1  0
 16 39  1  0
 18 40  1  0
 19 41  1  0
 20 42  1  0
 26 43  1  0
 26 44  1  0
 27 45  1  0
 27 46  1  0
 29 47  1  0
 29 48  1  0
 30 49  1  0
 30 50  1  0
 31 51  1  0
M  CHG  1   5  -1
M  END
>  <UniqueID>  (75) 
74

>  <SMILES>  (75) 
O=C(N=c1[n-]nc(Cc2ccccc2)s1)Nc1cccc(S(=O)(=O)N2CCOCC2)c1

>  <Energy>  (75) 
104.78091608840322

>  <Genealogy>  (75) 
O=C(N=c1[n-]nc(Cc2ccccc2)s1)Nc1cccc(S(=O)(=O)N2CCOCC2)c1 (protonated)
O=C(N=c1[n-]nc(Cc2ccccc2)s1)Nc1cccc(S(=O)(=O)N2CCOCC2)c1 (3D coordinates assigned)
O=C(N=c1[n-]nc(Cc2ccccc2)s1)Nc1cccc(S(=O)(=O)N2CCOCC2)c1 (nonaromatic ring conformer: 104.78091608840322 kcal/mol)

>  <smiles>  (75) 
O=C(N=c1[nH]nc(Cc2ccccc2)s1)Nc1cccc(S(=O)(=O)N2CCOCC2)c1

>  <score_type>  (75) 
oracle

>  <origin>  (75) 
adg

>  <m_score__min__energy>  (75) 
-11.6

>  <m_primary>  (75) 
energy

$$$$
76:0
     RDKit          3D

 57 60  0  0  0  0  0  0  0  0999 V2000
   51.0380   29.4120   49.4040 H   0  0  0  0  0  0  0  0  0  0  0  0
   51.7270   30.1200   49.6230 O   0  0  0  0  0  0  0  0  0  0  0  0
   51.5980   30.9590   50.7270 C   0  0  0  0  0  0  0  0  0  0  0  0
   50.7180   31.9730   50.7770 N   0  0  0  0  0  0  0  0  0  0  0  0
   50.9370   32.5000   52.0000 C   0  0  0  0  0  0  0  0  0  0  0  0
   50.2970   33.4930   52.4350 O   0  0  0  0  0  0  0  0  0  0  0  0
   51.8940   31.8780   52.7200 N   0  0  0  0  0  0  0  0  0  0  0  0
   52.3220   30.8980   51.9020 C   0  0  0  0  0  0  0  0  0  0  0  0
   53.3350   29.8760   52.2530 C   0  0  0  0  0  0  0  0  0  0  0  0
   52.9727   28.8663   52.4962 H   0  0  0  0  0  0  0  0  0  0  0  0
   54.6690   30.0860   52.2980 C   0  0  0  0  0  0  0  0  0  0  0  0
   55.3880   31.0610   51.6160 C   0  0  0  0  0  0  0  0  0  0  0  0
   54.9765   31.8377   50.9547 H   0  0  0  0  0  0  0  0  0  0  0  0
   56.7170   30.8660   51.9290 C   0  0  0  0  0  0  0  0  0  0  0  0
   57.8160   31.6920   51.3990 C   0  0  0  0  0  0  0  0  0  0  0  0
   58.7080   32.1010   52.1870 O   0  0  0  0  0  0  0  0  0  0  0  0
   57.8880   32.0570   50.0150 N   0  0  0  0  0  0  0  0  0  0  0  0
   59.0680   31.9080   49.1660 C   0  0  0  0  0  0  0  0  0  0  0  0
   59.9665   32.1710   49.7436 H   0  0  0  0  0  0  0  0  0  0  0  0
   59.1334   30.8649   48.8230 H   0  0  0  0  0  0  0  0  0  0  0  0
   58.9650   32.8140   47.9660 C   0  0  0  0  0  0  0  0  0  0  0  0
   57.7110   33.0310   47.3670 C   0  0  0  0  0  0  0  0  0  0  0  0
   56.8208   32.5235   47.7669 H   0  0  0  0  0  0  0  0  0  0  0  0
   57.5860   33.8850   46.2690 C   0  0  0  0  0  0  0  0  0  0  0  0
   56.5994   34.0518   45.8120 H   0  0  0  0  0  0  0  0  0  0  0  0
   58.7120   34.5270   45.7510 C   0  0  0  0  0  0  0  0  0  0  0  0
   58.6119   35.1990   44.8859 H   0  0  0  0  0  0  0  0  0  0  0  0
   59.9660   34.3170   46.3300 C   0  0  0  0  0  0  0  0  0  0  0  0
   60.8519   34.8178   45.9123 H   0  0  0  0  0  0  0  0  0  0  0  0
   60.1020   33.4720   47.4400 C   0  0  0  0  0  0  0  0  0  0  0  0
   61.4050   33.2690   48.0050 N   0  0  0  0  0  0  0  0  0  0  0  0
   61.6560   33.5610   49.4180 C   0  0  0  0  0  0  0  0  0  0  0  0
   60.8934   34.2617   49.7889 H   0  0  0  0  0  0  0  0  0  0  0  0
   61.6100   32.6283   49.9993 H   0  0  0  0  0  0  0  0  0  0  0  0
   63.0470   34.1910   49.5700 C   0  0  0  0  0  0  0  0  0  0  0  0
   63.0358   35.1802   49.0891 H   0  0  0  0  0  0  0  0  0  0  0  0
   63.2582   34.2540   50.6477 H   0  0  0  0  0  0  0  0  0  0  0  0
   64.1360   33.3800   48.9560 N   0  0  0  0  0  0  0  0  0  0  0  0
   64.9940   32.7690   49.9840 C   0  0  0  0  0  0  0  0  0  0  0  0
   64.6177   33.0370   50.9823 H   0  0  0  0  0  0  0  0  0  0  0  0
   64.9818   31.6751   49.8690 H   0  0  0  0  0  0  0  0  0  0  0  0
   66.0238   33.1383   49.8690 H   0  0  0  0  0  0  0  0  0  0  0  0
   63.6830   32.3490   47.9920 C   0  0  0  0  0  0  0  0  0  0  0  0
   64.5204   32.0907   47.3271 H   0  0  0  0  0  0  0  0  0  0  0  0
   63.3464   31.4712   48.5631 H   0  0  0  0  0  0  0  0  0  0  0  0
   62.5080   32.8430   47.1410 C   0  0  0  0  0  0  0  0  0  0  0  0
   62.8369   33.6930   46.5251 H   0  0  0  0  0  0  0  0  0  0  0  0
   62.1625   32.0234   46.4938 H   0  0  0  0  0  0  0  0  0  0  0  0
   56.8570   29.8340   52.7930 N   0  0  0  0  0  0  0  0  0  0  0  0
   58.0990   29.3920   53.4400 C   0  0  0  0  0  0  0  0  0  0  0  0
   57.9786   29.4348   54.5326 H   0  0  0  0  0  0  0  0  0  0  0  0
   58.3232   28.3589   53.1360 H   0  0  0  0  0  0  0  0  0  0  0  0
   58.9255   30.0512   53.1360 H   0  0  0  0  0  0  0  0  0  0  0  0
   55.6120   29.3430   53.0190 C   0  0  0  0  0  0  0  0  0  0  0  0
   55.3590   28.3040   53.8320 C   0  0  0  0  0  0  0  0  0  0  0  0
   56.1865   27.7953   54.3482 H   0  0  0  0  0  0  0  0  0  0  0  0
   54.3243   27.9619   53.9815 H   0  0  0  0  0  0  0  0  0  0  0  0
  1  2  1  0
  2  3  1  0
  3  4  1  0
  4  5  1  0
  5  6  2  0
  5  7  1  0
  7  8  1  0
  8  9  1  0
  9 10  1  0
  9 11  2  0
 11 12  1  0
 12 13  1  0
 12 14  2  0
 14 15  1  0
 15 16  2  0
 15 17  1  0
 17 18  1  0
 18 19  1  0
 18 20  1  0
 18 21  1  0
 21 22  2  0
 22 23  1  0
 22 24  1  0
 24 25  1  0
 24 26  2  0
 26 27  1  0
 26 28  1  0
 28 29  1  0
 28 30  2  0
 30 31  1  0
 31 32  1  0
 32 33  1  0
 32 34  1  0
 32 35  1  0
 35 36  1  0
 35 37  1  0
 35 38  1  0
 38 39  1  0
 39 40  1  0
 39 41  1  0
 39 42  1  0
 38 43  1  0
 43 44  1  0
 43 45  1  0
 43 46  1  0
 46 47  1  0
 46 48  1  0
 14 49  1  0
 49 50  1  0
 50 51  1  0
 50 52  1  0
 50 53  1  0
 49 54  1  0
 54 55  2  0
 55 56  1  0
 55 57  1  0
  8  3  2  0
 54 11  1  0
 30 21  1  0
 46 31  1  0
M  CHG  3   4  -1   7  -1  17  -1
M  END
>  <UniqueID>  (76) 
75

>  <SMILES>  (76) 
C=c1/c(=C/c2[n-]c(=O)[n-]c2O)cc(C(=O)[N-]Cc2ccccc2N2CCN(C)CC2)n1C

>  <Energy>  (76) 
137.1369110716721

>  <Genealogy>  (76) 
C=c1c(=Cc2[n-]c(=O)[n-]c2O)cc(C(=O)[N-]Cc2ccccc2N2CCN(C)CC2)n1C (protonated)
C=c1/c(=C/c2[n-]c(=O)[n-]c2O)cc(C(=O)[N-]Cc2ccccc2N2CCN(C)CC2)n1C (cis-trans isomerization)
C=c1/c(=C/c2[n-]c(=O)[n-]c2O)cc(C(=O)[N-]Cc2ccccc2N2CCN(C)CC2)n1C (3D coordinates assigned)
C=c1/c(=C/c2[n-]c(=O)[n-]c2O)cc(C(=O)[N-]Cc2ccccc2N2CCN(C)CC2)n1C (nonaromatic ring conformer: 137.1369110716721 kcal/mol)

>  <smiles>  (76) 
C=c1c(=Cc2[nH]c(=O)[nH]c2O)cc(C(=O)NCc2ccccc2N2CCN(C)CC2)n1C

>  <score_type>  (76) 
oracle

>  <origin>  (76) 
adg

>  <m_score__min__energy>  (76) 
-15.140000000000001

>  <m_primary>  (76) 
energy

$$$$
77:0
     RDKit          3D

 65 68  0  0  0  0  0  0  0  0999 V2000
   56.2730   29.6570   42.6280 C   0  0  0  0  0  0  0  0  0  0  0  0
   56.1570   30.0070   44.0800 C   0  0  0  0  0  0  0  0  0  0  0  0
   55.3620   29.3960   44.7760 O   0  0  0  0  0  0  0  0  0  0  0  0
   57.0190   31.0710   44.7090 C   0  0  0  0  0  0  0  0  0  0  0  0
   57.6620   30.5510   45.9180 N   0  0  0  0  0  0  0  0  0  0  0  0
   58.9460   30.4240   46.1460 C   0  0  0  0  0  0  0  0  0  0  0  0
   59.6610   31.4020   46.8710 C   0  0  0  0  0  0  0  0  0  0  0  0
   61.0390   31.2750   47.0530 C   0  0  0  0  0  0  0  0  0  0  0  0
   61.7690   32.2410   47.8140 N   0  0  0  0  0  0  0  0  0  0  0  0
   62.8930   32.9270   47.4720 C   0  0  0  0  0  0  0  0  0  0  0  0
   63.4890   32.7750   46.3710 O   0  0  0  0  0  0  0  0  0  0  0  0
   63.3170   33.8130   48.4180 N   0  0  0  0  0  0  0  0  0  0  0  0
   62.3960   33.6530   49.3910 C   0  0  0  0  0  0  0  0  0  0  0  0
   62.3580   34.2560   50.6410 C   0  0  0  0  0  0  0  0  0  0  0  0
   61.3430   33.8490   51.5220 C   0  0  0  0  0  0  0  0  0  0  0  0
   60.4110   32.8550   51.1170 C   0  0  0  0  0  0  0  0  0  0  0  0
   59.4520   32.3470   52.0560 N   0  0  0  0  0  0  0  0  0  0  0  0
   58.4020   33.2270   52.5790 C   0  0  0  0  0  0  0  0  0  0  0  0
   57.0110   32.5780   52.3930 C   0  0  0  0  0  0  0  0  0  0  0  0
   57.1080   31.1620   51.9640 N   0  0  0  0  0  0  0  0  0  0  0  0
   55.7840   30.5210   52.0220 C   0  0  0  0  0  0  0  0  0  0  0  0
   58.0780   30.4310   52.8010 C   0  0  0  0  0  0  0  0  0  0  0  0
   59.4990   30.9500   52.5100 C   0  0  0  0  0  0  0  0  0  0  0  0
   60.5010   32.2940   49.8690 N   0  0  0  0  0  0  0  0  0  0  0  0
   61.4740   32.7220   49.0290 C   0  0  0  0  0  0  0  0  0  0  0  0
   61.6850   30.2040   46.5340 N   0  0  0  0  0  0  0  0  0  0  0  0
   61.0350   29.2280   45.8540 C   0  0  0  0  0  0  0  0  0  0  0  0
   59.6430   29.2910   45.6520 C   0  0  0  0  0  0  0  0  0  0  0  0
   58.9640   28.2140   44.8650 C   0  0  0  0  0  0  0  0  0  0  0  0
   59.5530   27.6730   43.8890 O   0  0  0  0  0  0  0  0  0  0  0  0
   57.6600   27.7350   45.2410 N   0  0  0  0  0  0  0  0  0  0  0  0
   57.1840   26.4010   44.8750 C   0  0  0  0  0  0  0  0  0  0  0  0
   56.0930   25.9330   45.7970 C   0  0  0  0  0  0  0  0  0  0  0  0
   55.1510   26.7210   46.0900 O   0  0  0  0  0  0  0  0  0  0  0  0
   56.1430   24.6240   46.3750 N   0  0  0  0  0  0  0  0  0  0  0  0
   54.9910   23.7470   46.5310 C   0  0  0  0  0  0  0  0  0  0  0  0
   54.1150   23.7960   45.2810 C   0  0  0  0  0  0  0  0  0  0  0  0
   53.2580   22.7120   45.2780 F   0  0  0  0  0  0  0  0  0  0  0  0
   54.8950   23.7460   44.1410 F   0  0  0  0  0  0  0  0  0  0  0  0
   53.3670   24.9590   45.2730 F   0  0  0  0  0  0  0  0  0  0  0  0
   56.6176   28.6172   42.5279 H   0  0  0  0  0  0  0  0  0  0  0  0
   55.2907   29.7659   42.1450 H   0  0  0  0  0  0  0  0  0  0  0  0
   56.9958   30.3310   42.1450 H   0  0  0  0  0  0  0  0  0  0  0  0
   57.7923   31.3833   43.9917 H   0  0  0  0  0  0  0  0  0  0  0  0
   56.3884   31.9309   44.9791 H   0  0  0  0  0  0  0  0  0  0  0  0
   59.1300   32.2675   47.2941 H   0  0  0  0  0  0  0  0  0  0  0  0
   63.0932   35.0216   50.9296 H   0  0  0  0  0  0  0  0  0  0  0  0
   61.2693   34.2984   52.5233 H   0  0  0  0  0  0  0  0  0  0  0  0
   58.5785   33.4047   53.6501 H   0  0  0  0  0  0  0  0  0  0  0  0
   58.4277   34.1788   52.0281 H   0  0  0  0  0  0  0  0  0  0  0  0
   56.4684   32.6225   53.3488 H   0  0  0  0  0  0  0  0  0  0  0  0
   56.4806   33.1343   51.6061 H   0  0  0  0  0  0  0  0  0  0  0  0
   55.4910   30.3792   53.0727 H   0  0  0  0  0  0  0  0  0  0  0  0
   55.0445   31.1608   51.5183 H   0  0  0  0  0  0  0  0  0  0  0  0
   55.8272   29.5441   51.5183 H   0  0  0  0  0  0  0  0  0  0  0  0
   57.8396   30.5902   53.8630 H   0  0  0  0  0  0  0  0  0  0  0  0
   58.0252   29.3566   52.5711 H   0  0  0  0  0  0  0  0  0  0  0  0
   60.1026   30.8873   53.4275 H   0  0  0  0  0  0  0  0  0  0  0  0
   59.9488   30.3328   51.7183 H   0  0  0  0  0  0  0  0  0  0  0  0
   61.6029   28.3749   45.4544 H   0  0  0  0  0  0  0  0  0  0  0  0
   57.0080   28.3630   45.7550 H   0  0  0  0  0  0  0  0  0  0  0  0
   56.7948   26.4301   43.8466 H   0  0  0  0  0  0  0  0  0  0  0  0
   58.0277   25.6997   44.9548 H   0  0  0  0  0  0  0  0  0  0  0  0
   55.3389   22.7157   46.6902 H   0  0  0  0  0  0  0  0  0  0  0  0
   54.3999   24.0828   47.3958 H   0  0  0  0  0  0  0  0  0  0  0  0
  1  2  1  0
  2  3  2  0
  2  4  1  0
  4  5  1  0
  5  6  2  3
  6  7  1  0
  7  8  2  0
  8  9  1  0
  9 10  1  0
 10 11  2  0
 10 12  1  0
 12 13  1  0
 13 14  2  0
 14 15  1  0
 15 16  2  0
 16 17  1  0
 17 18  1  0
 18 19  1  0
 19 20  1  0
 20 21  1  0
 20 22  1  0
 22 23  1  0
 16 24  1  0
 24 25  2  0
  8 26  1  0
 26 27  1  0
 27 28  2  0
 28 29  1  0
 29 30  2  0
 29 31  1  0
 31 32  1  0
 32 33  1  0
 33 34  2  0
 33 35  1  0
 35 36  1  0
 36 37  1  0
 37 38  1  0
 37 39  1  0
 37 40  1  0
 28  6  1  0
 25  9  1  0
 25 13  1  0
 23 17  1  0
  1 41  1  0
  1 42  1  0
  1 43  1  0
  4 44  1  0
  4 45  1  0
  7 46  1  0
 14 47  1  0
 15 48  1  0
 18 49  1  0
 18 50  1  0
 19 51  1  0
 19 52  1  0
 21 53  1  0
 21 54  1  0
 21 55  1  0
 22 56  1  0
 22 57  1  0
 23 58  1  0
 23 59  1  0
 27 60  1  0
 31 61  1  0
 32 62  1  0
 32 63  1  0
 36 64  1  0
 36 65  1  0
M  CHG  3  12  -1  26  -1  35  -1
M  END
>  <UniqueID>  (77) 
76

>  <SMILES>  (77) 
CC(=O)CN=c1cc(-n2c(=O)[n-]c3ccc(N4CCN(C)CC4)nc32)[n-]cc1C(=O)NCC(=O)[N-]CC(F)(F)F

>  <Energy>  (77) 
123.37852266281648

>  <Genealogy>  (77) 
CC(=O)CN=c1cc(-n2c(=O)[n-]c3ccc(N4CCN(C)CC4)nc32)[n-]cc1C(=O)NCC(=O)[N-]CC(F)(F)F (protonated)
CC(=O)CN=c1cc(-n2c(=O)[n-]c3ccc(N4CCN(C)CC4)nc32)[n-]cc1C(=O)NCC(=O)[N-]CC(F)(F)F (3D coordinates assigned)
CC(=O)CN=c1cc(-n2c(=O)[n-]c3ccc(N4CCN(C)CC4)nc32)[n-]cc1C(=O)NCC(=O)[N-]CC(F)(F)F (nonaromatic ring conformer: 123.37852266281648 kcal/mol)

>  <smiles>  (77) 
CC(=O)CN=c1cc(-n2c(=O)[nH]c3ccc(N4CCN(C)CC4)nc32)[nH]cc1C(=O)NCC(=O)NCC(F)(F)F

>  <score_type>  (77) 
oracle

>  <origin>  (77) 
adg

>  <m_score__min__energy>  (77) 
-11.74

>  <m_primary>  (77) 
energy

$$$$
78:0
     RDKit          3D

 32 34  0  0  0  0  0  0  0  0999 V2000
   56.2870   21.9730   42.6530 N   0  0  0  0  0  0  0  0  0  0  0  0
   56.6410   22.1390   43.8840 C   0  0  0  0  0  0  0  0  0  0  0  0
   56.2720   23.2520   44.6010 C   0  0  0  0  0  0  0  0  0  0  0  0
   56.6700   23.3960   45.9150 C   0  0  0  0  0  0  0  0  0  0  0  0
   56.2290   24.6280   46.6200 C   0  0  0  0  0  0  0  0  0  0  0  0
   57.1510   25.7060   46.1550 C   0  0  0  0  0  0  0  0  0  0  0  0
   58.5150   25.4870   46.0830 C   0  0  0  0  0  0  0  0  0  0  0  0
   59.3420   26.5030   45.6500 C   0  0  0  0  0  0  0  0  0  0  0  0
   58.8420   27.7490   45.2810 C   0  0  0  0  0  0  0  0  0  0  0  0
   57.4790   27.9280   45.3670 C   0  0  0  0  0  0  0  0  0  0  0  0
   56.6280   26.9250   45.7990 C   0  0  0  0  0  0  0  0  0  0  0  0
   57.1730   29.2880   44.9380 C   0  0  0  0  0  0  0  0  0  0  0  0
   56.0300   29.8300   44.8770 O   0  0  0  0  0  0  0  0  0  0  0  0
   58.4120   29.8960   44.5990 N   0  0  0  0  0  0  0  0  0  0  0  0
   59.5130   28.9780   44.7930 C   0  0  0  0  0  0  0  0  0  0  0  0
   57.4280   22.4480   46.5170 N   0  0  0  0  0  0  0  0  0  0  0  0
   57.7790   21.3640   45.7950 C   0  0  0  0  0  0  0  0  0  0  0  0
   58.5030   20.4220   46.3120 N   0  0  0  0  0  0  0  0  0  0  0  0
   57.3920   21.2160   44.5010 N   0  0  0  0  0  0  0  0  0  0  0  0
   56.6150   22.6030   41.9050 H   0  0  0  0  0  0  0  0  0  0  0  0
   55.6573   24.0309   44.1261 H   0  0  0  0  0  0  0  0  0  0  0  0
   55.1893   24.8709   46.3554 H   0  0  0  0  0  0  0  0  0  0  0  0
   56.2619   24.5065   47.7128 H   0  0  0  0  0  0  0  0  0  0  0  0
   58.9364   24.5118   46.3683 H   0  0  0  0  0  0  0  0  0  0  0  0
   60.4259   26.3238   45.5948 H   0  0  0  0  0  0  0  0  0  0  0  0
   55.5440   27.1026   45.8565 H   0  0  0  0  0  0  0  0  0  0  0  0
   58.4880   30.8820   44.2570 H   0  0  0  0  0  0  0  0  0  0  0  0
   60.0423   28.7902   43.8472 H   0  0  0  0  0  0  0  0  0  0  0  0
   60.2772   29.3587   45.4866 H   0  0  0  0  0  0  0  0  0  0  0  0
   57.7240   22.5670   47.5120 H   0  0  0  0  0  0  0  0  0  0  0  0
   58.5430   19.5440   45.7150 H   0  0  0  0  0  0  0  0  0  0  0  0
   57.6680   20.3710   43.9460 H   0  0  0  0  0  0  0  0  0  0  0  0
  1  2  2  3
  2  3  1  0
  3  4  2  0
  4  5  1  0
  5  6  1  0
  6  7  2  0
  7  8  1  0
  8  9  2  0
  9 10  1  0
 10 11  2  0
 10 12  1  0
 12 13  2  0
 12 14  1  0
 14 15  1  0
  4 16  1  0
 16 17  1  0
 17 18  2  3
 17 19  1  0
 19  2  1  0
 11  6  1  0
 15  9  1  0
  1 20  1  0
  3 21  1  0
  5 22  1  0
  5 23  1  0
  7 24  1  0
  8 25  1  0
 11 26  1  0
 14 27  1  0
 15 28  1  0
 15 29  1  0
 16 30  1  0
 18 31  1  0
 19 32  1  0
M  END
>  <smiles>  (78) 
N=c1cc(Cc2ccc3c(c2)C(=O)NC3)[nH]c(=N)[nH]1

>  <score_type>  (78) 
oracle

>  <origin>  (78) 
adg

>  <m_score__min__energy>  (78) 
-7.1200000000000001

>  <m_primary>  (78) 
energy

$$$$
79:0
     RDKit          3D

 45 47  0  0  1  0  0  0  0  0999 V2000
   57.8370   28.6570   43.9630 N   0  0  0  0  0  0  0  0  0  0  0  0
   56.6680   29.9360   43.9930 S   0  0  0  0  0  0  0  0  0  0  0  0
   56.2290   30.3150   42.6120 O   0  0  0  0  0  0  0  0  0  0  0  0
   55.4960   29.4090   44.7730 O   0  0  0  0  0  0  0  0  0  0  0  0
   57.3190   31.3760   44.7600 C   0  0  0  0  0  0  0  0  0  0  0  0
   57.3820   32.5940   44.1010 C   0  0  0  0  0  0  0  0  0  0  0  0
   57.8940   33.7270   44.7040 C   0  0  0  0  0  0  0  0  0  0  0  0
   58.3490   33.6160   45.9980 C   0  0  0  0  0  0  0  0  0  0  0  0
   58.9190   34.7910   46.7260 C   0  0  0  0  0  0  0  0  0  0  0  0
   60.3270   34.8610   46.3390 N   0  0  0  0  0  0  0  0  0  0  0  0
   61.1920   34.2010   47.0380 C   0  0  0  0  0  0  0  0  0  0  0  0
   61.0780   34.0190   48.4030 C   0  0  0  0  0  0  0  0  0  0  0  0
   62.0400   33.3020   49.0860 C   0  0  0  0  0  0  0  0  0  0  0  0
   63.1200   32.7580   48.4520 N   0  0  0  0  0  0  0  0  0  0  0  0
   64.1160   32.0110   49.1970 C   0  0  0  0  0  0  0  0  0  0  0  0
   65.1260   32.9940   49.7330 C   0  0  0  0  0  0  0  0  0  0  0  0
   66.3850   32.2910   50.2150 C   0  0  0  0  0  0  0  0  0  0  0  0
   65.8090   31.1530   51.5280 S   0  0  0  0  0  0  0  0  0  0  0  0
   63.9970   31.3920   51.6290 C   0  0  0  0  0  0  0  0  0  0  0  0
   63.4320   31.2070   50.2410 C   0  0  0  0  0  0  0  0  0  0  0  0
   63.1950   32.9560   47.1350 C   0  0  0  0  0  0  0  0  0  0  0  0
   64.1430   32.4970   46.4790 O   0  0  0  0  0  0  0  0  0  0  0  0
   62.2580   33.6590   46.4380 N   0  0  0  0  0  0  0  0  0  0  0  0
   58.2890   32.3880   46.6690 C   0  0  0  0  0  0  0  0  0  0  0  0
   57.7740   31.2650   46.0540 C   0  0  0  0  0  0  0  0  0  0  0  0
   57.4130   27.7470   43.6800 H   0  0  0  0  0  0  0  0  0  0  0  0
   58.5240   28.8980   43.1880 H   0  0  0  0  0  0  0  0  0  0  0  0
   57.0133   32.6606   43.0668 H   0  0  0  0  0  0  0  0  0  0  0  0
   57.9365   34.6862   44.1673 H   0  0  0  0  0  0  0  0  0  0  0  0
   58.3957   35.7130   46.4325 H   0  0  0  0  0  0  0  0  0  0  0  0
   58.8055   34.6839   47.8149 H   0  0  0  0  0  0  0  0  0  0  0  0
   60.2211   34.4452   48.9452 H   0  0  0  0  0  0  0  0  0  0  0  0
   61.9333   33.1650   50.1722 H   0  0  0  0  0  0  0  0  0  0  0  0
   64.6647   31.2924   48.5704 H   0  0  0  0  0  0  0  0  0  0  0  0
   65.3948   33.7016   48.9348 H   0  0  0  0  0  0  0  0  0  0  0  0
   64.6758   33.5207   50.5873 H   0  0  0  0  0  0  0  0  0  0  0  0
   66.8543   31.7296   49.3937 H   0  0  0  0  0  0  0  0  0  0  0  0
   67.1425   32.9994   50.5815 H   0  0  0  0  0  0  0  0  0  0  0  0
   63.5589   30.6510   52.3138 H   0  0  0  0  0  0  0  0  0  0  0  0
   63.7613   32.3965   52.0104 H   0  0  0  0  0  0  0  0  0  0  0  0
   63.5192   30.1442   49.9712 H   0  0  0  0  0  0  0  0  0  0  0  0
   62.3880   31.5520   50.2744 H   0  0  0  0  0  0  0  0  0  0  0  0
   62.3530   33.7930   45.4070 H   0  0  0  0  0  0  0  0  0  0  0  0
   58.6583   32.3176   47.7028 H   0  0  0  0  0  0  0  0  0  0  0  0
   57.7283   30.3033   46.5859 H   0  0  0  0  0  0  0  0  0  0  0  0
  1  2  1  0
  2  3  2  0
  2  4  2  0
  2  5  1  0
  5  6  2  0
  6  7  1  0
  7  8  2  0
  8  9  1  0
  9 10  1  0
 10 11  2  0
 11 12  1  0
 12 13  2  0
 13 14  1  0
 14 15  1  0
 15 16  1  0
 16 17  1  0
 17 18  1  0
 18 19  1  0
 19 20  1  0
 14 21  1  0
 21 22  2  0
 21 23  1  0
  8 24  1  0
 24 25  2  0
 25  5  1  0
 23 11  1  0
 20 15  1  0
  1 26  1  0
  1 27  1  0
  6 28  1  0
  7 29  1  0
  9 30  1  0
  9 31  1  0
 12 32  1  0
 13 33  1  0
 15 34  1  0
 16 35  1  0
 16 36  1  0
 17 37  1  0
 17 38  1  0
 19 39  1  0
 19 40  1  0
 20 41  1  0
 20 42  1  0
 23 43  1  0
 24 44  1  0
 25 45  1  0
M  END
>  <smiles>  (79) 
NS(=O)(=O)c1ccc(CN=c2ccn(C3CCSCC3)c(=O)[nH]2)cc1

>  <score_type>  (79) 
oracle

>  <origin>  (79) 
adg

>  <m_score__min__energy>  (79) 
-9.0700000000000003

>  <m_primary>  (79) 
energy

$$$$
80:0
     RDKit          3D

 35 37  0  0  0  0  0  0  0  0999 V2000
   55.9560   30.2120   42.9520 O   0  0  0  0  0  0  0  0  0  0  0  0
   56.1070   30.0090   44.1870 C   0  0  0  0  0  0  0  0  0  0  0  0
   55.1420   29.2820   44.8730 O   0  0  0  0  0  0  0  0  0  0  0  0
   57.2930   30.5370   44.8950 C   0  0  0  0  0  0  0  0  0  0  0  0
   57.5210   31.9170   44.9910 C   0  0  0  0  0  0  0  0  0  0  0  0
   58.6440   32.3970   45.6640 C   0  0  0  0  0  0  0  0  0  0  0  0
   59.5480   31.4950   46.2450 C   0  0  0  0  0  0  0  0  0  0  0  0
   60.7540   31.9890   46.9560 C   0  0  0  0  0  0  0  0  0  0  0  0
   61.8710   31.1540   47.1400 C   0  0  0  0  0  0  0  0  0  0  0  0
   63.0040   31.6230   47.8100 C   0  0  0  0  0  0  0  0  0  0  0  0
   63.0360   32.9320   48.3190 C   0  0  0  0  0  0  0  0  0  0  0  0
   64.1600   33.4450   48.9830 O   0  0  0  0  0  0  0  0  0  0  0  0
   65.0040   32.7170   49.8340 C   0  0  0  0  0  0  0  0  0  0  0  0
   64.5250   31.6580   50.6310 C   0  0  0  0  0  0  0  0  0  0  0  0
   65.3960   30.9670   51.4800 C   0  0  0  0  0  0  0  0  0  0  0  0
   66.7430   31.3340   51.5500 C   0  0  0  0  0  0  0  0  0  0  0  0
   67.2200   32.3960   50.7770 C   0  0  0  0  0  0  0  0  0  0  0  0
   66.3510   33.0880   49.9280 C   0  0  0  0  0  0  0  0  0  0  0  0
   61.9350   33.7710   48.1180 C   0  0  0  0  0  0  0  0  0  0  0  0
   60.8000   33.3040   47.4490 C   0  0  0  0  0  0  0  0  0  0  0  0
   59.3100   30.1520   46.1400 N   0  0  0  0  0  0  0  0  0  0  0  0
   58.2180   29.6650   45.4890 C   0  0  0  0  0  0  0  0  0  0  0  0
   56.8120   32.6231   44.5341 H   0  0  0  0  0  0  0  0  0  0  0  0
   58.8207   33.4801   45.7392 H   0  0  0  0  0  0  0  0  0  0  0  0
   61.8524   30.1243   46.7536 H   0  0  0  0  0  0  0  0  0  0  0  0
   63.8752   30.9640   47.9395 H   0  0  0  0  0  0  0  0  0  0  0  0
   63.4633   31.3740   50.5854 H   0  0  0  0  0  0  0  0  0  0  0  0
   65.0207   30.1343   52.0929 H   0  0  0  0  0  0  0  0  0  0  0  0
   67.4280   30.7865   52.2140 H   0  0  0  0  0  0  0  0  0  0  0  0
   68.2790   32.6875   50.8365 H   0  0  0  0  0  0  0  0  0  0  0  0
   66.7283   33.9302   49.3294 H   0  0  0  0  0  0  0  0  0  0  0  0
   61.9626   34.8061   48.4892 H   0  0  0  0  0  0  0  0  0  0  0  0
   59.9366   33.9707   47.3075 H   0  0  0  0  0  0  0  0  0  0  0  0
   59.9600   29.4670   46.5860 H   0  0  0  0  0  0  0  0  0  0  0  0
   58.0594   28.5782   45.4281 H   0  0  0  0  0  0  0  0  0  0  0  0
  1  2  2  0
  2  3  1  0
  2  4  1  0
  4  5  2  0
  5  6  1  0
  6  7  2  0
  7  8  1  0
  8  9  2  0
  9 10  1  0
 10 11  2  0
 11 12  1  0
 12 13  1  0
 13 14  2  0
 14 15  1  0
 15 16  2  0
 16 17  1  0
 17 18  2  0
 11 19  1  0
 19 20  2  0
  7 21  1  0
 21 22  2  0
 22  4  1  0
 20  8  1  0
 18 13  1  0
  5 23  1  0
  6 24  1  0
  9 25  1  0
 10 26  1  0
 14 27  1  0
 15 28  1  0
 16 29  1  0
 17 30  1  0
 18 31  1  0
 19 32  1  0
 20 33  1  0
 21 34  1  0
 22 35  1  0
M  CHG  2   3  -1  21   1
M  END
>  <UniqueID>  (80) 
77

>  <SMILES>  (80) 
O=C([O-])c1ccc(-c2ccc(Oc3ccccc3)cc2)[nH+]c1

>  <Energy>  (80) 
50.14013092874455

>  <Genealogy>  (80) 
O=C([O-])c1ccc(-c2ccc(Oc3ccccc3)cc2)[nH+]c1 (protonated)
O=C([O-])c1ccc(-c2ccc(Oc3ccccc3)cc2)[nH+]c1 (3D coordinates assigned)
O=C([O-])c1ccc(-c2ccc(Oc3ccccc3)cc2)[nH+]c1 (optimized conformer: 50.14013092874455 kcal/mol)

>  <smiles>  (80) 
O=C(O)c1ccc(-c2ccc(Oc3ccccc3)cc2)nc1

>  <score_type>  (80) 
oracle

>  <origin>  (80) 
adg

>  <m_score__min__energy>  (80) 
-7.46

>  <m_primary>  (80) 
energy

$$$$
81:0
     RDKit          3D

 53 57  0  0  0  0  0  0  0  0999 V2000
   57.1020   34.1720   45.2750 C   0  0  0  0  0  0  0  0  0  0  0  0
   57.8840   33.1110   45.4890 C   0  0  0  0  0  0  0  0  0  0  0  0
   57.6670   31.9120   44.9140 N   0  0  0  0  0  0  0  0  0  0  0  0
   58.6620   31.0960   45.3280 C   0  0  0  0  0  0  0  0  0  0  0  0
   58.8170   29.8170   44.9570 C   0  0  0  0  0  0  0  0  0  0  0  0
   57.8380   28.7580   45.2560 C   0  0  0  0  0  0  0  0  0  0  0  0
   56.4490   28.7920   45.1250 C   0  0  0  0  0  0  0  0  0  0  0  0
   55.7050   29.8760   44.6650 O   0  0  0  0  0  0  0  0  0  0  0  0
   55.8710   27.6430   45.5460 N   0  0  0  0  0  0  0  0  0  0  0  0
   56.9030   26.8870   45.9670 C   0  0  0  0  0  0  0  0  0  0  0  0
   56.8280   25.6040   46.5080 C   0  0  0  0  0  0  0  0  0  0  0  0
   58.0270   24.9820   46.9030 C   0  0  0  0  0  0  0  0  0  0  0  0
   59.2620   25.6490   46.7510 C   0  0  0  0  0  0  0  0  0  0  0  0
   59.3110   26.9430   46.2030 C   0  0  0  0  0  0  0  0  0  0  0  0
   58.1060   27.5340   45.8220 C   0  0  0  0  0  0  0  0  0  0  0  0
   59.5280   31.7760   46.1640 C   0  0  0  0  0  0  0  0  0  0  0  0
   59.0340   33.0660   46.2740 C   0  0  0  0  0  0  0  0  0  0  0  0
   59.6150   34.1290   47.1210 C   0  0  0  0  0  0  0  0  0  0  0  0
   58.9080   35.1240   47.4380 O   0  0  0  0  0  0  0  0  0  0  0  0
   60.9530   34.0190   47.6410 N   0  0  0  0  0  0  0  0  0  0  0  0
   61.2330   34.4990   49.0010 C   0  0  0  0  0  0  0  0  0  0  0  0
   62.7310   34.4490   49.3330 C   0  0  0  0  0  0  0  0  0  0  0  0
   63.3260   33.1760   48.8900 N   0  0  0  0  0  0  0  0  0  0  0  0
   64.3900   32.5770   49.6640 C   0  0  0  0  0  0  0  0  0  0  0  0
   64.1520   31.4810   50.5160 C   0  0  0  0  0  0  0  0  0  0  0  0
   65.2090   30.9300   51.2440 C   0  0  0  0  0  0  0  0  0  0  0  0
   66.4910   31.4650   51.1250 C   0  0  0  0  0  0  0  0  0  0  0  0
   66.6980   32.5530   50.2760 C   0  0  0  0  0  0  0  0  0  0  0  0
   65.6580   33.0760   49.5740 N   0  0  0  0  0  0  0  0  0  0  0  0
   62.9680   32.6240   47.5710 C   0  0  0  0  0  0  0  0  0  0  0  0
   62.0600   33.5730   46.7860 C   0  0  0  0  0  0  0  0  0  0  0  0
   57.3249   35.1284   45.7706 H   0  0  0  0  0  0  0  0  0  0  0  0
   56.2349   34.0896   44.6031 H   0  0  0  0  0  0  0  0  0  0  0  0
   56.8950   31.6810   44.2470 H   0  0  0  0  0  0  0  0  0  0  0  0
   59.7247   29.5437   44.3990 H   0  0  0  0  0  0  0  0  0  0  0  0
   55.1720   30.4610   45.2970 H   0  0  0  0  0  0  0  0  0  0  0  0
   55.8605   25.0933   46.6226 H   0  0  0  0  0  0  0  0  0  0  0  0
   58.0018   23.9698   47.3329 H   0  0  0  0  0  0  0  0  0  0  0  0
   60.1926   25.1528   47.0635 H   0  0  0  0  0  0  0  0  0  0  0  0
   60.2676   27.4717   46.0788 H   0  0  0  0  0  0  0  0  0  0  0  0
   60.4306   31.3728   46.6464 H   0  0  0  0  0  0  0  0  0  0  0  0
   60.8845   35.5386   49.0892 H   0  0  0  0  0  0  0  0  0  0  0  0
   60.7068   33.8408   49.7080 H   0  0  0  0  0  0  0  0  0  0  0  0
   63.2404   35.2808   48.8245 H   0  0  0  0  0  0  0  0  0  0  0  0
   62.8521   34.5328   50.4231 H   0  0  0  0  0  0  0  0  0  0  0  0
   63.1393   31.0613   50.6076 H   0  0  0  0  0  0  0  0  0  0  0  0
   65.0300   30.0740   51.9112 H   0  0  0  0  0  0  0  0  0  0  0  0
   67.3289   31.0348   51.6933 H   0  0  0  0  0  0  0  0  0  0  0  0
   67.7034   32.9877   50.1748 H   0  0  0  0  0  0  0  0  0  0  0  0
   63.8891   32.4539   46.9942 H   0  0  0  0  0  0  0  0  0  0  0  0
   62.4223   31.6824   47.7308 H   0  0  0  0  0  0  0  0  0  0  0  0
   62.6418   34.4462   46.4560 H   0  0  0  0  0  0  0  0  0  0  0  0
   61.6541   33.0468   45.9094 H   0  0  0  0  0  0  0  0  0  0  0  0
  1  2  2  0
  2  3  1  0
  3  4  1  0
  4  5  2  3
  5  6  1  0
  6  7  2  0
  7  8  1  0
  7  9  1  0
  9 10  1  0
 10 11  2  0
 11 12  1  0
 12 13  2  0
 13 14  1  0
 14 15  2  0
  4 16  1  0
 16 17  2  0
 17 18  1  0
 18 19  2  0
 18 20  1  0
 20 21  1  0
 21 22  1  0
 22 23  1  0
 23 24  1  0
 24 25  2  0
 25 26  1  0
 26 27  2  0
 27 28  1  0
 28 29  2  0
 23 30  1  0
 30 31  1  0
 17  2  1  0
 31 20  1  0
 15  6  1  0
 29 24  1  0
 15 10  1  0
  1 32  1  0
  1 33  1  0
  3 34  1  0
  5 35  1  0
  8 36  1  0
 11 37  1  0
 12 38  1  0
 13 39  1  0
 14 40  1  0
 16 41  1  0
 21 42  1  0
 21 43  1  0
 22 44  1  0
 22 45  1  0
 25 46  1  0
 26 47  1  0
 27 48  1  0
 28 49  1  0
 30 50  1  0
 30 51  1  0
 31 52  1  0
 31 53  1  0
M  CHG  1   9  -1
M  END
>  <UniqueID>  (81) 
78

>  <SMILES>  (81) 
C=c1[nH]c(=Cc2c(O)[n-]c3ccccc23)cc1C(=O)N1CCN(c2ccccn2)CC1

>  <Energy>  (81) 
130.85250433362035

>  <Genealogy>  (81) 
C=c1[nH]c(=Cc2c(O)[n-]c3ccccc23)cc1C(=O)N1CCN(c2ccccn2)CC1 (protonated)
C=c1[nH]c(=Cc2c(O)[n-]c3ccccc23)cc1C(=O)N1CCN(c2ccccn2)CC1 (3D coordinates assigned)
C=c1[nH]c(=Cc2c(O)[n-]c3ccccc23)cc1C(=O)N1CCN(c2ccccn2)CC1 (nonaromatic ring conformer: 130.85250433362035 kcal/mol)

>  <smiles>  (81) 
C=c1[nH]c(=Cc2c(O)[nH]c3ccccc23)cc1C(=O)N1CCN(c2ccccn2)CC1

>  <score_type>  (81) 
oracle

>  <origin>  (81) 
adg

>  <m_score__min__energy>  (81) 
-12.369999999999999

>  <m_primary>  (81) 
energy

$$$$
82:0
     RDKit          3D

 52 56  0  0  1  0  0  0  0  0999 V2000
   56.5330   24.4470   43.9400 C   0  0  0  0  0  0  0  0  0  0  0  0
   57.4610   25.3130   44.3080 C   0  0  0  0  0  0  0  0  0  0  0  0
   58.3000   25.1170   45.3350 N   0  0  0  0  0  0  0  0  0  0  0  0
   59.0960   26.2190   45.3960 C   0  0  0  0  0  0  0  0  0  0  0  0
   60.1620   26.3700   46.3760 C   0  0  0  0  0  0  0  0  0  0  0  0
   61.3470   26.0090   46.2230 O   0  0  0  0  0  0  0  0  0  0  0  0
   59.8160   26.9830   47.6060 N   0  0  0  0  0  0  0  0  0  0  0  0
   60.7620   27.1890   48.7020 C   0  0  0  0  0  0  0  0  0  0  0  0
   60.2260   28.3810   49.5070 C   0  0  0  0  0  0  0  0  0  0  0  0
   59.7210   29.3910   48.6370 N   0  0  0  0  0  0  0  0  0  0  0  0
   59.5660   30.6460   49.2970 C   0  0  0  0  0  0  0  0  0  0  0  0
   58.6380   29.0200   47.7840 C   0  0  0  0  0  0  0  0  0  0  0  0
   58.4610   27.5010   47.8730 C   0  0  0  0  0  0  0  0  0  0  0  0
   59.2050   33.4910   46.9280 C   0  0  0  0  0  0  0  0  0  0  0  0
   59.6560   34.4900   47.6160 C   0  0  0  0  0  0  0  0  0  0  0  0
   58.5980   29.5010   44.5600 C   0  0  0  0  0  0  0  0  0  0  0  0
   59.4100   30.2890   45.2800 N   0  0  0  0  0  0  0  0  0  0  0  0
   59.0130   31.4910   45.7900 N   0  0  0  0  0  0  0  0  0  0  0  0
   59.7220   32.3150   46.4840 C   0  0  0  0  0  0  0  0  0  0  0  0
   60.9720   32.0610   46.7930 O   0  0  0  0  0  0  0  0  0  0  0  0
   58.6940   27.0540   44.3810 C   0  0  0  0  0  0  0  0  0  0  0  0
   59.1870   28.2380   44.0990 C   0  0  0  0  0  0  0  0  0  0  0  0
   60.4970   34.2330   48.7970 C   0  0  0  0  0  0  0  0  0  0  0  0
   61.8720   34.2690   48.8370 C   0  0  0  0  0  0  0  0  0  0  0  0
   62.4870   34.0110   49.9850 C   0  0  0  0  0  0  0  0  0  0  0  0
   61.7130   33.7180   51.0890 C   0  0  0  0  0  0  0  0  0  0  0  0
   59.9880   33.8270   50.4050 S   0  0  0  0  0  0  0  0  0  0  0  0
   57.4390   33.4450   46.2740 S   0  0  0  0  0  0  0  0  0  0  0  0
   57.7180   31.7640   45.4730 C   0  0  0  0  0  0  0  0  0  0  0  0
   56.8950   31.0490   44.7890 N   0  0  0  0  0  0  0  0  0  0  0  0
   57.2810   29.8470   44.2730 C   0  0  0  0  0  0  0  0  0  0  0  0
   56.5420   29.1190   43.6110 O   0  0  0  0  0  0  0  0  0  0  0  0
   57.6810   26.4910   43.7070 N   0  0  0  0  0  0  0  0  0  0  0  0
   55.8775   24.6730   43.0860 H   0  0  0  0  0  0  0  0  0  0  0  0
   56.4161   23.5002   44.4877 H   0  0  0  0  0  0  0  0  0  0  0  0
   60.8130   26.2917   49.3363 H   0  0  0  0  0  0  0  0  0  0  0  0
   61.7777   27.3815   48.3260 H   0  0  0  0  0  0  0  0  0  0  0  0
   59.4169   28.0359   50.1675 H   0  0  0  0  0  0  0  0  0  0  0  0
   61.0491   28.8052   50.1008 H   0  0  0  0  0  0  0  0  0  0  0  0
   59.5850   30.4924   50.3861 H   0  0  0  0  0  0  0  0  0  0  0  0
   60.3881   31.3168   49.0070 H   0  0  0  0  0  0  0  0  0  0  0  0
   58.6054   31.0966   49.0070 H   0  0  0  0  0  0  0  0  0  0  0  0
   57.7161   29.5226   48.1118 H   0  0  0  0  0  0  0  0  0  0  0  0
   58.8501   29.3189   46.7468 H   0  0  0  0  0  0  0  0  0  0  0  0
   58.1157   27.2029   48.8740 H   0  0  0  0  0  0  0  0  0  0  0  0
   57.7074   27.1145   47.1711 H   0  0  0  0  0  0  0  0  0  0  0  0
   59.4133   35.5216   47.3213 H   0  0  0  0  0  0  0  0  0  0  0  0
   60.0954   28.2862   43.4805 H   0  0  0  0  0  0  0  0  0  0  0  0
   62.4518   34.5075   47.9331 H   0  0  0  0  0  0  0  0  0  0  0  0
   63.5847   34.0303   50.0542 H   0  0  0  0  0  0  0  0  0  0  0  0
   62.0349   33.4803   52.1136 H   0  0  0  0  0  0  0  0  0  0  0  0
   57.1750   26.9100   42.8750 H   0  0  0  0  0  0  0  0  0  0  0  0
  1  2  2  0
  2  3  1  0
  3  4  2  0
  4  5  1  0
  5  6  2  0
  5  7  1  0
  7  8  1  0
  8  9  1  0
  9 10  1  0
 10 11  1  0
 10 12  1  0
 12 13  1  0
  4 14  1  0
 14 15  2  0
 15 16  1  0
 16 17  2  0
 17 18  1  0
 18 19  1  0
 19 20  2  0
 19 21  1  0
 21 22  2  0
 22 23  1  0
 23 24  2  0
 24 25  1  0
 25 26  2  0
 26 27  1  0
 21 28  1  0
 28 29  1  0
 29 30  2  0
 30 31  1  0
 31 32  2  0
 14 33  1  0
 33  2  1  0
 13  7  1  0
 31 16  1  0
 29 18  1  0
 27 23  1  0
  1 34  1  0
  1 35  1  0
  8 36  1  0
  8 37  1  0
  9 38  1  0
  9 39  1  0
 11 40  1  0
 11 41  1  0
 11 42  1  0
 12 43  1  0
 12 44  1  0
 13 45  1  0
 13 46  1  0
 15 47  1  0
 22 48  1  0
 24 49  1  0
 25 50  1  0
 26 51  1  0
 33 52  1  0
M  END
>  <smiles>  (82) 
C=c1nc(C(=O)N2CCN(C)CC2)c(=Cc2nn3c(=O)c(=Cc4cccs4)sc3nc2=O)[nH]1

>  <score_type>  (82) 
oracle

>  <origin>  (82) 
adg

>  <m_score__min__energy>  (82) 
-10.609999999999999

>  <m_primary>  (82) 
energy

$$$$
83:0
     RDKit          3D

 62 65  0  0  0  0  0  0  0  0999 V2000
   59.9980   29.3440   50.6660 H   0  0  0  0  0  0  0  0  0  0  0  0
   59.8300   29.6940   49.6980 N   0  0  0  0  0  0  0  0  0  0  0  0
   59.9410   30.9520   49.4020 C   0  0  0  0  0  0  0  0  0  0  0  0
   60.5220   31.3490   48.1580 N   0  0  0  0  0  0  0  0  0  0  0  0
   61.1910   30.6860   47.7030 H   0  0  0  0  0  0  0  0  0  0  0  0
   60.2830   32.6740   47.5500 C   0  0  2  0  0  0  0  0  0  0  0  0
   59.4820   32.5230   46.2160 C   0  0  0  0  0  0  0  0  0  0  0  0
   59.1910   31.2160   45.7330 C   0  0  0  0  0  0  0  0  0  0  0  0
   59.5117   30.3482   46.3280 H   0  0  0  0  0  0  0  0  0  0  0  0
   58.5130   30.9940   44.5310 C   0  0  0  0  0  0  0  0  0  0  0  0
   58.2260   29.6470   44.1190 N   0  0  0  0  0  0  0  0  0  0  0  0
   57.9570   29.4880   43.1210 H   0  0  0  0  0  0  0  0  0  0  0  0
   58.2830   28.5010   44.9880 C   0  0  0  0  0  0  0  0  0  0  0  0
   59.4600   28.1710   45.6830 C   0  0  0  0  0  0  0  0  0  0  0  0
   60.3669   28.7780   45.5449 H   0  0  0  0  0  0  0  0  0  0  0  0
   59.4810   27.0750   46.5480 C   0  0  0  0  0  0  0  0  0  0  0  0
   60.4055   26.8194   47.0864 H   0  0  0  0  0  0  0  0  0  0  0  0
   58.3320   26.3020   46.7320 C   0  0  0  0  0  0  0  0  0  0  0  0
   58.3535   25.4432   47.4190 H   0  0  0  0  0  0  0  0  0  0  0  0
   57.1510   26.6170   46.0440 C   0  0  0  0  0  0  0  0  0  0  0  0
   55.9220   25.8230   46.2450 C   0  0  0  0  0  0  0  0  0  0  0  0
   54.8100   26.3320   45.9450 O   0  0  0  0  0  0  0  0  0  0  0  0
   55.9530   24.4720   46.7240 N   0  0  0  0  0  0  0  0  0  0  0  0
   56.1040   23.2830   45.8870 C   0  0  0  0  0  0  0  0  0  0  0  0
   55.7017   22.4925   46.5376 H   0  0  0  0  0  0  0  0  0  0  0  0
   55.5410   23.4890   44.4850 C   0  0  0  0  0  0  0  0  0  0  0  0
   54.8605   22.6912   44.1525 H   0  0  0  0  0  0  0  0  0  0  0  0
   54.9076   24.3602   44.2617 H   0  0  0  0  0  0  0  0  0  0  0  0
   56.9450   23.3890   43.9070 C   0  0  0  0  0  0  0  0  0  0  0  0
   57.0933   22.5316   43.2341 H   0  0  0  0  0  0  0  0  0  0  0  0
   57.3381   24.1870   43.2600 H   0  0  0  0  0  0  0  0  0  0  0  0
   57.5090   23.1850   45.3070 C   0  0  0  0  0  0  0  0  0  0  0  0
   57.9906   22.2078   45.4592 H   0  0  0  0  0  0  0  0  0  0  0  0
   58.3133   23.8342   45.6833 H   0  0  0  0  0  0  0  0  0  0  0  0
   57.1260   27.7340   45.1940 C   0  0  0  0  0  0  0  0  0  0  0  0
   56.1910   28.0105   44.6848 H   0  0  0  0  0  0  0  0  0  0  0  0
   58.0650   32.0840   43.7880 C   0  0  0  0  0  0  0  0  0  0  0  0
   57.5000   31.9189   42.8588 H   0  0  0  0  0  0  0  0  0  0  0  0
   58.3290   33.3770   44.2160 C   0  0  0  0  0  0  0  0  0  0  0  0
   57.9697   34.2257   43.6154 H   0  0  0  0  0  0  0  0  0  0  0  0
   59.0460   33.6280   45.4010 C   0  0  0  0  0  0  0  0  0  0  0  0
   59.2220   35.0850   45.7590 C   0  0  0  0  0  0  0  0  0  0  0  0
   59.2352   35.1946   46.8534 H   0  0  0  0  0  0  0  0  0  0  0  0
   60.1711   35.4529   45.3421 H   0  0  0  0  0  0  0  0  0  0  0  0
   58.3878   35.6684   45.3421 H   0  0  0  0  0  0  0  0  0  0  0  0
   61.6770   33.2860   47.2640 C   0  0  0  0  0  0  0  0  0  0  0  0
   61.6232   33.8307   46.3099 H   0  0  0  0  0  0  0  0  0  0  0  0
   62.0350   34.1530   48.2820 F   0  0  0  0  0  0  0  0  0  0  0  0
   62.6320   32.2870   47.1790 F   0  0  0  0  0  0  0  0  0  0  0  0
   59.5010   33.5550   48.5760 C   0  0  0  0  0  0  0  0  0  0  0  0
   59.6927   34.6138   48.3475 H   0  0  0  0  0  0  0  0  0  0  0  0
   58.4344   33.3030   48.4825 H   0  0  0  0  0  0  0  0  0  0  0  0
   59.8810   33.3060   49.9180 O   0  0  0  0  0  0  0  0  0  0  0  0
   59.4980   32.0150   50.3760 C   0  0  0  0  0  0  0  0  0  0  0  0
   60.2230   31.7970   51.7140 C   0  0  0  0  0  0  0  0  0  0  0  0
   59.5315   32.0049   52.5438 H   0  0  0  0  0  0  0  0  0  0  0  0
   60.5695   30.7549   51.7778 H   0  0  0  0  0  0  0  0  0  0  0  0
   61.0867   32.4752   51.7778 H   0  0  0  0  0  0  0  0  0  0  0  0
   57.9750   31.9330   50.6200 C   0  0  0  0  0  0  0  0  0  0  0  0
   57.7771   31.9223   51.7020 H   0  0  0  0  0  0  0  0  0  0  0  0
   57.4834   32.8060   50.1659 H   0  0  0  0  0  0  0  0  0  0  0  0
   57.5799   31.0123   50.1659 H   0  0  0  0  0  0  0  0  0  0  0  0
  1  2  1  0
  2  3  2  0
  3  4  1  0
  4  5  1  0
  4  6  1  0
  6  7  1  0
  7  8  2  0
  8  9  1  0
  8 10  1  0
 10 11  1  0
 11 12  1  0
 11 13  1  0
 13 14  2  0
 14 15  1  0
 14 16  1  0
 16 17  1  0
 16 18  2  0
 18 19  1  0
 18 20  1  0
 20 21  1  0
 21 22  2  0
 21 23  1  0
 23 24  1  0
 24 25  1  0
 24 26  1  0
 26 27  1  0
 26 28  1  0
 26 29  1  0
 29 30  1  0
 29 31  1  0
 29 32  1  0
 32 33  1  0
 32 34  1  0
 20 35  2  0
 35 36  1  0
 10 37  2  0
 37 38  1  0
 37 39  1  0
 39 40  1  0
 39 41  2  0
 41 42  1  0
 42 43  1  0
 42 44  1  0
 42 45  1  0
  6 46  1  6
 46 47  1  0
 46 48  1  0
 46 49  1  0
  6 50  1  0
 50 51  1  0
 50 52  1  0
 50 53  1  0
 53 54  1  0
 54 55  1  0
 55 56  1  0
 55 57  1  0
 55 58  1  0
 54 59  1  0
 59 60  1  0
 59 61  1  0
 59 62  1  0
 54  3  1  0
 41  7  1  0
 35 13  1  0
 32 24  1  0
M  CHG  1  23  -1
M  END
>  <UniqueID>  (83) 
79

>  <SMILES>  (83) 
[H]/N=C1\N[C@](c2cc(Nc3cccc(C(=O)[N-]C4CCC4)c3)ccc2C)(C(F)F)COC1(C)C

>  <Energy>  (83) 
151.94084984031036

>  <Genealogy>  (83) 
Cc1ccc(Nc2cccc(C(=O)[N-]C3CCC3)c2)cc1C1(C(F)F)COC(C)(C)C(=N)N1 (protonated)
Cc1ccc(Nc2cccc(C(=O)[N-]C3CCC3)c2)cc1[C@@]1(C(F)F)COC(C)(C)C(=N)N1 (chirality)
[H]/N=C1\N[C@](c2cc(Nc3cccc(C(=O)[N-]C4CCC4)c3)ccc2C)(C(F)F)COC1(C)C (cis-trans isomerization)
[H]/N=C1\N[C@](c2cc(Nc3cccc(C(=O)[N-]C4CCC4)c3)ccc2C)(C(F)F)COC1(C)C (3D coordinates assigned)
[H]/N=C1\N[C@](c2cc(Nc3cccc(C(=O)[N-]C4CCC4)c3)ccc2C)(C(F)F)COC1(C)C (nonaromatic ring conformer: 151.94084984031036 kcal/mol)

>  <smiles>  (83) 
Cc1ccc(Nc2cccc(C(=O)NC3CCC3)c2)cc1C1(C(F)F)COC(C)(C)C(=N)N1

>  <score_type>  (83) 
oracle

>  <origin>  (83) 
adg

>  <m_score__min__energy>  (83) 
-10.99

>  <m_primary>  (83) 
energy

$$$$
84:0
     RDKit          3D

 45 47  0  0  0  0  0  0  0  0999 V2000
   54.6700   26.1390   45.9680 N   0  0  0  0  0  0  0  0  0  0  0  0
   56.2340   25.4130   46.0510 S   0  0  0  0  0  0  0  0  0  0  0  0
   56.2220   24.3040   47.0660 O   0  0  0  0  0  0  0  0  0  0  0  0
   56.5860   24.8340   44.7100 O   0  0  0  0  0  0  0  0  0  0  0  0
   57.4220   26.6280   46.5100 C   0  0  0  0  0  0  0  0  0  0  0  0
   57.3360   27.9340   46.0170 C   0  0  0  0  0  0  0  0  0  0  0  0
   58.2820   28.8890   46.3960 C   0  0  0  0  0  0  0  0  0  0  0  0
   59.3210   28.5260   47.2690 C   0  0  0  0  0  0  0  0  0  0  0  0
   60.3030   29.4870   47.6980 N   0  0  0  0  0  0  0  0  0  0  0  0
   61.0870   30.2690   46.7330 C   0  0  0  0  0  0  0  0  0  0  0  0
   61.0650   31.7450   47.1340 C   0  0  0  0  0  0  0  0  0  0  0  0
   61.3300   31.9190   48.5710 N   0  0  0  0  0  0  0  0  0  0  0  0
   61.4190   33.2530   49.1100 C   0  0  0  0  0  0  0  0  0  0  0  0
   61.6980   33.4330   50.3270 O   0  0  0  0  0  0  0  0  0  0  0  0
   61.1900   34.3840   48.2610 N   0  0  0  0  0  0  0  0  0  0  0  0
   59.8750   34.9760   48.0650 C   0  0  0  0  0  0  0  0  0  0  0  0
   59.1940   34.3000   46.9110 C   0  0  0  0  0  0  0  0  0  0  0  0
   59.5560   34.6220   45.5910 C   0  0  0  0  0  0  0  0  0  0  0  0
   58.8940   34.0230   44.5150 C   0  0  0  0  0  0  0  0  0  0  0  0
   57.8640   33.1080   44.7470 C   0  0  0  0  0  0  0  0  0  0  0  0
   57.4860   32.7970   46.0560 C   0  0  0  0  0  0  0  0  0  0  0  0
   58.1430   33.3940   47.1360 C   0  0  0  0  0  0  0  0  0  0  0  0
   61.5950   30.7430   49.4160 C   0  0  0  0  0  0  0  0  0  0  0  0
   60.5660   29.6400   49.1370 C   0  0  0  0  0  0  0  0  0  0  0  0
   59.3670   27.2530   47.7530 N   0  0  0  0  0  0  0  0  0  0  0  0
   58.4560   26.3080   47.3990 C   0  0  0  0  0  0  0  0  0  0  0  0
   54.7550   27.0960   46.3790 H   0  0  0  0  0  0  0  0  0  0  0  0
   56.5223   28.2093   45.3299 H   0  0  0  0  0  0  0  0  0  0  0  0
   58.2140   29.9182   46.0136 H   0  0  0  0  0  0  0  0  0  0  0  0
   62.1256   29.9067   46.7253 H   0  0  0  0  0  0  0  0  0  0  0  0
   60.6513   30.1555   45.7294 H   0  0  0  0  0  0  0  0  0  0  0  0
   61.8352   32.2822   46.5612 H   0  0  0  0  0  0  0  0  0  0  0  0
   60.0638   32.1459   46.9173 H   0  0  0  0  0  0  0  0  0  0  0  0
   59.2728   34.8435   48.9759 H   0  0  0  0  0  0  0  0  0  0  0  0
   59.9822   36.0498   47.8520 H   0  0  0  0  0  0  0  0  0  0  0  0
   60.3620   35.3470   45.4044 H   0  0  0  0  0  0  0  0  0  0  0  0
   59.1847   34.2726   43.4839 H   0  0  0  0  0  0  0  0  0  0  0  0
   57.3502   32.6321   43.8988 H   0  0  0  0  0  0  0  0  0  0  0  0
   56.6704   32.0814   46.2368 H   0  0  0  0  0  0  0  0  0  0  0  0
   57.8366   33.1541   48.1649 H   0  0  0  0  0  0  0  0  0  0  0  0
   62.6034   30.3609   49.1991 H   0  0  0  0  0  0  0  0  0  0  0  0
   61.5218   31.0396   50.4727 H   0  0  0  0  0  0  0  0  0  0  0  0
   60.9496   28.6876   49.5317 H   0  0  0  0  0  0  0  0  0  0  0  0
   59.6228   29.9214   49.6281 H   0  0  0  0  0  0  0  0  0  0  0  0
   58.5310   25.2909   47.8112 H   0  0  0  0  0  0  0  0  0  0  0  0
  1  2  1  0
  2  3  2  0
  2  4  2  0
  2  5  1  0
  5  6  2  0
  6  7  1  0
  7  8  2  0
  8  9  1  0
  9 10  1  0
 10 11  1  0
 11 12  1  0
 12 13  1  0
 13 14  2  0
 13 15  1  0
 15 16  1  0
 16 17  1  0
 17 18  2  0
 18 19  1  0
 19 20  2  0
 20 21  1  0
 21 22  2  0
 12 23  1  0
 23 24  1  0
  8 25  1  0
 25 26  2  0
 26  5  1  0
 24  9  1  0
 22 17  1  0
  1 27  1  0
  6 28  1  0
  7 29  1  0
 10 30  1  0
 10 31  1  0
 11 32  1  0
 11 33  1  0
 16 34  1  0
 16 35  1  0
 18 36  1  0
 19 37  1  0
 20 38  1  0
 21 39  1  0
 22 40  1  0
 23 41  1  0
 23 42  1  0
 24 43  1  0
 24 44  1  0
 26 45  1  0
M  CHG  2   1  -1  15  -1
M  END
>  <UniqueID>  (84) 
80

>  <SMILES>  (84) 
[NH-]S(=O)(=O)c1ccc(N2CCN(C(=O)[N-]Cc3ccccc3)CC2)nc1

>  <Energy>  (84) 
47.28777517195064

>  <Genealogy>  (84) 
[NH-]S(=O)(=O)c1ccc(N2CCN(C(=O)[N-]Cc3ccccc3)CC2)nc1 (protonated)
[NH-]S(=O)(=O)c1ccc(N2CCN(C(=O)[N-]Cc3ccccc3)CC2)nc1 (3D coordinates assigned)
[NH-]S(=O)(=O)c1ccc(N2CCN(C(=O)[N-]Cc3ccccc3)CC2)nc1 (nonaromatic ring conformer: 47.28777517195064 kcal/mol)

>  <smiles>  (84) 
NS(=O)(=O)c1ccc(N2CCN(C(=O)NCc3ccccc3)CC2)nc1

>  <score_type>  (84) 
oracle

>  <origin>  (84) 
adg

>  <m_score__min__energy>  (84) 
-11.609999999999999

>  <m_primary>  (84) 
energy

$$$$
85:0
     RDKit          3D

 59 62  0  0  0  0  0  0  0  0999 V2000
   58.6030   28.8200   47.1530 C   0  0  0  0  0  0  0  0  0  0  0  0
   58.1260   28.9530   45.9050 C   0  0  0  0  0  0  0  0  0  0  0  0
   57.9540   27.9170   44.9780 C   0  0  0  0  0  0  0  0  0  0  0  0
   58.2070   26.6060   45.1550 C   0  0  0  0  0  0  0  0  0  0  0  0
   57.4040   25.7320   46.0290 C   0  0  0  0  0  0  0  0  0  0  0  0
   57.9060   24.6480   46.6470 N   0  0  0  0  0  0  0  0  0  0  0  0
   56.8390   24.1320   47.2940 C   0  0  0  0  0  0  0  0  0  0  0  0
   56.9120   23.0990   48.0090 O   0  0  0  0  0  0  0  0  0  0  0  0
   55.6840   24.8090   47.1110 N   0  0  0  0  0  0  0  0  0  0  0  0
   56.0510   25.8120   46.2970 C   0  0  0  0  0  0  0  0  0  0  0  0
   55.1510   26.7430   45.7840 O   0  0  0  0  0  0  0  0  0  0  0  0
   57.4280   28.4970   43.8350 C   0  0  0  0  0  0  0  0  0  0  0  0
   57.3110   29.8460   44.0940 C   0  0  0  0  0  0  0  0  0  0  0  0
   56.7320   30.8410   43.1310 C   0  0  0  0  0  0  0  0  0  0  0  0
   57.7400   30.1330   45.3470 N   0  0  0  0  0  0  0  0  0  0  0  0
   57.7580   31.4770   45.9510 C   0  0  0  0  0  0  0  0  0  0  0  0
   59.1260   32.1590   45.7790 C   0  0  0  0  0  0  0  0  0  0  0  0
   59.4150   33.5200   46.9140 S   0  0  0  0  0  0  0  0  0  0  0  0
   58.1050   33.9630   47.5040 O   0  0  0  0  0  0  0  0  0  0  0  0
   59.9730   34.6660   46.1180 O   0  0  0  0  0  0  0  0  0  0  0  0
   60.5520   33.1690   48.2580 C   0  0  0  0  0  0  0  0  0  0  0  0
   60.2560   31.8860   48.9900 C   0  0  0  0  0  0  0  0  0  0  0  0
   60.5190   30.8010   48.4040 O   0  0  0  0  0  0  0  0  0  0  0  0
   59.6580   31.8450   50.3050 N   0  0  0  0  0  0  0  0  0  0  0  0
   58.9560   33.0040   50.8820 C   0  0  0  0  0  0  0  0  0  0  0  0
   57.6700   32.5840   51.6170 C   0  0  0  0  0  0  0  0  0  0  0  0
   57.7620   31.2190   52.3580 C   0  0  0  0  0  0  0  0  0  0  0  0
   59.2200   30.7570   52.5010 C   0  0  0  0  0  0  0  0  0  0  0  0
   59.8840   30.6430   51.1240 C   0  0  0  0  0  0  0  0  0  0  0  0
   57.0510   30.2460   51.6140 O   0  0  0  0  0  0  0  0  0  0  0  0
   55.9260   29.9280   52.3710 C   0  0  0  0  0  0  0  0  0  0  0  0
   56.2180   30.3960   53.7630 C   0  0  0  0  0  0  0  0  0  0  0  0
   57.2130   31.3640   53.6540 O   0  0  0  0  0  0  0  0  0  0  0  0
   58.6983   29.7027   47.8024 H   0  0  0  0  0  0  0  0  0  0  0  0
   58.8985   27.8283   47.5261 H   0  0  0  0  0  0  0  0  0  0  0  0
   59.0591   26.1636   44.6182 H   0  0  0  0  0  0  0  0  0  0  0  0
   54.7590   27.4750   46.3630 H   0  0  0  0  0  0  0  0  0  0  0  0
   57.1565   27.9813   42.9021 H   0  0  0  0  0  0  0  0  0  0  0  0
   56.2559   31.6592   43.6912 H   0  0  0  0  0  0  0  0  0  0  0  0
   57.5342   31.2482   42.4980 H   0  0  0  0  0  0  0  0  0  0  0  0
   55.9816   30.3448   42.4980 H   0  0  0  0  0  0  0  0  0  0  0  0
   56.9878   32.0957   45.4673 H   0  0  0  0  0  0  0  0  0  0  0  0
   57.5598   31.3720   47.0279 H   0  0  0  0  0  0  0  0  0  0  0  0
   59.9105   31.4044   45.9377 H   0  0  0  0  0  0  0  0  0  0  0  0
   59.1434   32.5833   44.7643 H   0  0  0  0  0  0  0  0  0  0  0  0
   61.5688   33.1042   47.8432 H   0  0  0  0  0  0  0  0  0  0  0  0
   60.4442   33.9847   48.9880 H   0  0  0  0  0  0  0  0  0  0  0  0
   59.6256   33.5074   51.5949 H   0  0  0  0  0  0  0  0  0  0  0  0
   58.6757   33.6788   50.0597 H   0  0  0  0  0  0  0  0  0  0  0  0
   57.4293   33.3607   52.3578 H   0  0  0  0  0  0  0  0  0  0  0  0
   56.8947   32.4675   50.8454 H   0  0  0  0  0  0  0  0  0  0  0  0
   59.7730   31.4870   53.1104 H   0  0  0  0  0  0  0  0  0  0  0  0
   59.2347   29.7699   52.9861 H   0  0  0  0  0  0  0  0  0  0  0  0
   60.9666   30.5046   51.2615 H   0  0  0  0  0  0  0  0  0  0  0  0
   59.4381   29.7846   50.6003 H   0  0  0  0  0  0  0  0  0  0  0  0
   55.0395   30.4433   51.9728 H   0  0  0  0  0  0  0  0  0  0  0  0
   55.7155   28.8486   52.3452 H   0  0  0  0  0  0  0  0  0  0  0  0
   55.3140   30.8295   54.2157 H   0  0  0  0  0  0  0  0  0  0  0  0
   56.5424   29.5624   54.4032 H   0  0  0  0  0  0  0  0  0  0  0  0
  1  2  2  0
  2  3  1  0
  3  4  2  3
  4  5  1  0
  5  6  1  0
  6  7  1  0
  7  8  2  0
  7  9  1  0
  9 10  1  0
 10 11  1  0
  3 12  1  0
 12 13  2  0
 13 14  1  0
 13 15  1  0
 15 16  1  0
 16 17  1  0
 17 18  1  0
 18 19  2  0
 18 20  2  0
 18 21  1  0
 21 22  1  0
 22 23  2  0
 22 24  1  0
 24 25  1  0
 25 26  1  0
 26 27  1  0
 27 28  1  0
 28 29  1  0
 27 30  1  0
 30 31  1  0
 31 32  1  0
 32 33  1  0
 15  2  1  0
 29 24  1  0
 10  5  2  0
 33 27  1  0
  1 34  1  0
  1 35  1  0
  4 36  1  0
 11 37  1  0
 12 38  1  0
 14 39  1  0
 14 40  1  0
 14 41  1  0
 16 42  1  0
 16 43  1  0
 17 44  1  0
 17 45  1  0
 21 46  1  0
 21 47  1  0
 25 48  1  0
 25 49  1  0
 26 50  1  0
 26 51  1  0
 28 52  1  0
 28 53  1  0
 29 54  1  0
 29 55  1  0
 31 56  1  0
 31 57  1  0
 32 58  1  0
 32 59  1  0
M  CHG  2   6  -1   9  -1
M  END
>  <UniqueID>  (85) 
81

>  <SMILES>  (85) 
C=c1c(=Cc2[n-]c(=O)[n-]c2O)cc(C)n1CCS(=O)(=O)CC(=O)N1CCC2(CC1)OCCO2

>  <Energy>  (85) 
116.53077257095075

>  <Genealogy>  (85) 
C=c1c(=Cc2[n-]c(=O)[n-]c2O)cc(C)n1CCS(=O)(=O)CC(=O)N1CCC2(CC1)OCCO2 (protonated)
C=c1c(=Cc2[n-]c(=O)[n-]c2O)cc(C)n1CCS(=O)(=O)CC(=O)N1CCC2(CC1)OCCO2 (3D coordinates assigned)
C=c1c(=Cc2[n-]c(=O)[n-]c2O)cc(C)n1CCS(=O)(=O)CC(=O)N1CCC2(CC1)OCCO2 (nonaromatic ring conformer: 116.53077257095075 kcal/mol)

>  <smiles>  (85) 
C=c1c(=Cc2[nH]c(=O)[nH]c2O)cc(C)n1CCS(=O)(=O)CC(=O)N1CCC2(CC1)OCCO2

>  <score_type>  (85) 
oracle

>  <origin>  (85) 
adg

>  <m_score__min__energy>  (85) 
-15.24

>  <m_primary>  (85) 
energy

$$$$
86:0
     RDKit          3D

 53 55  0  0  0  0  0  0  0  0999 V2000
   59.7310   33.8210   49.7300 C   0  0  0  0  0  0  0  0  0  0  0  0
   59.6760   34.5670   48.6260 C   0  0  0  0  0  0  0  0  0  0  0  0
   59.1450   34.0940   47.3240 C   0  0  0  0  0  0  0  0  0  0  0  0
   59.7940   34.3500   46.0980 C   0  0  0  0  0  0  0  0  0  0  0  0
   59.2570   33.8740   44.9000 C   0  0  0  0  0  0  0  0  0  0  0  0
   58.0730   33.1220   44.9000 C   0  0  0  0  0  0  0  0  0  0  0  0
   57.4700   32.6450   43.6080 C   0  0  0  0  0  0  0  0  0  0  0  0
   58.0660   31.3620   43.2300 N   0  0  0  0  0  0  0  0  0  0  0  0
   57.1490   30.0570   43.9240 S   0  0  0  0  0  0  0  0  0  0  0  0
   56.8050   29.0660   42.8490 O   0  0  0  0  0  0  0  0  0  0  0  0
   55.8750   30.6040   44.5040 O   0  0  0  0  0  0  0  0  0  0  0  0
   58.0860   29.2380   45.1760 C   0  0  0  0  0  0  0  0  0  0  0  0
   58.3110   27.8560   45.1140 C   0  0  0  0  0  0  0  0  0  0  0  0
   59.0450   27.2220   46.1200 C   0  0  0  0  0  0  0  0  0  0  0  0
   59.5440   27.9580   47.1970 C   0  0  0  0  0  0  0  0  0  0  0  0
   59.3070   29.3400   47.2800 C   0  0  0  0  0  0  0  0  0  0  0  0
   59.8160   30.1140   48.4350 C   0  0  0  0  0  0  0  0  0  0  0  0
   59.1060   30.2000   49.4730 O   0  0  0  0  0  0  0  0  0  0  0  0
   61.0990   30.7710   48.3970 N   0  0  0  0  0  0  0  0  0  0  0  0
   61.6350   31.3180   47.1430 C   0  0  0  0  0  0  0  0  0  0  0  0
   62.3360   32.6490   47.4260 C   0  0  0  0  0  0  0  0  0  0  0  0
   63.4450   32.5040   48.4010 N   0  0  0  0  0  0  0  0  0  0  0  0
   63.7010   33.7810   49.0850 C   0  0  0  0  0  0  0  0  0  0  0  0
   63.2790   31.3920   49.3740 C   0  0  0  0  0  0  0  0  0  0  0  0
   61.8080   31.0470   49.6510 C   0  0  0  0  0  0  0  0  0  0  0  0
   58.5990   29.9780   46.2490 C   0  0  0  0  0  0  0  0  0  0  0  0
   57.4260   32.8630   46.1170 C   0  0  0  0  0  0  0  0  0  0  0  0
   57.9620   33.3360   47.3170 C   0  0  0  0  0  0  0  0  0  0  0  0
   60.1395   34.2438   50.6597 H   0  0  0  0  0  0  0  0  0  0  0  0
   59.3679   32.7828   49.7109 H   0  0  0  0  0  0  0  0  0  0  0  0
   60.0486   35.6003   48.6846 H   0  0  0  0  0  0  0  0  0  0  0  0
   60.7295   34.9285   46.0855 H   0  0  0  0  0  0  0  0  0  0  0  0
   59.7663   34.0904   43.9493 H   0  0  0  0  0  0  0  0  0  0  0  0
   56.3844   32.5208   43.7349 H   0  0  0  0  0  0  0  0  0  0  0  0
   57.6670   33.3852   42.8185 H   0  0  0  0  0  0  0  0  0  0  0  0
   59.0280   31.3140   43.6360 H   0  0  0  0  0  0  0  0  0  0  0  0
   57.9099   27.2705   44.2736 H   0  0  0  0  0  0  0  0  0  0  0  0
   59.2305   26.1392   46.0634 H   0  0  0  0  0  0  0  0  0  0  0  0
   60.1248   27.4535   47.9832 H   0  0  0  0  0  0  0  0  0  0  0  0
   62.3562   30.6081   46.7118 H   0  0  0  0  0  0  0  0  0  0  0  0
   60.8115   31.4809   46.4322 H   0  0  0  0  0  0  0  0  0  0  0  0
   62.7431   33.0422   46.4828 H   0  0  0  0  0  0  0  0  0  0  0  0
   61.5937   33.3353   47.8596 H   0  0  0  0  0  0  0  0  0  0  0  0
   63.6700   33.6265   50.1737 H   0  0  0  0  0  0  0  0  0  0  0  0
   64.6928   34.1591   48.7964 H   0  0  0  0  0  0  0  0  0  0  0  0
   62.9316   34.5122   48.7964 H   0  0  0  0  0  0  0  0  0  0  0  0
   63.7784   30.4980   48.9722 H   0  0  0  0  0  0  0  0  0  0  0  0
   63.7233   31.7200   50.3253 H   0  0  0  0  0  0  0  0  0  0  0  0
   61.7604   30.1578   50.2968 H   0  0  0  0  0  0  0  0  0  0  0  0
   61.3298   31.9037   50.1484 H   0  0  0  0  0  0  0  0  0  0  0  0
   58.4461   31.0668   46.2841 H   0  0  0  0  0  0  0  0  0  0  0  0
   56.4908   32.2839   46.1266 H   0  0  0  0  0  0  0  0  0  0  0  0
   57.4528   33.1128   48.2661 H   0  0  0  0  0  0  0  0  0  0  0  0
  1  2  2  0
  2  3  1  0
  3  4  2  0
  4  5  1  0
  5  6  2  0
  6  7  1  0
  7  8  1  0
  8  9  1  0
  9 10  2  0
  9 11  2  0
  9 12  1  0
 12 13  2  0
 13 14  1  0
 14 15  2  0
 15 16  1  0
 16 17  1  0
 17 18  2  0
 17 19  1  0
 19 20  1  0
 20 21  1  0
 21 22  1  0
 22 23  1  0
 22 24  1  0
 24 25  1  0
 16 26  2  0
  6 27  1  0
 27 28  2  0
 28  3  1  0
 26 12  1  0
 25 19  1  0
  1 29  1  0
  1 30  1  0
  2 31  1  0
  4 32  1  0
  5 33  1  0
  7 34  1  0
  7 35  1  0
  8 36  1  0
 13 37  1  0
 14 38  1  0
 15 39  1  0
 20 40  1  0
 20 41  1  0
 21 42  1  0
 21 43  1  0
 23 44  1  0
 23 45  1  0
 23 46  1  0
 24 47  1  0
 24 48  1  0
 25 49  1  0
 25 50  1  0
 26 51  1  0
 27 52  1  0
 28 53  1  0
M  END
>  <UniqueID>  (86) 
82

>  <SMILES>  (86) 
C=Cc1ccc(CNS(=O)(=O)c2cccc(C(=O)N3CCN(C)CC3)c2)cc1

>  <Energy>  (86) 
61.348399907305385

>  <Genealogy>  (86) 
C=Cc1ccc(CNS(=O)(=O)c2cccc(C(=O)N3CCN(C)CC3)c2)cc1 (3D coordinates assigned)
C=Cc1ccc(CNS(=O)(=O)c2cccc(C(=O)N3CCN(C)CC3)c2)cc1 (nonaromatic ring conformer: 61.348399907305385 kcal/mol)

>  <smiles>  (86) 
C=Cc1ccc(CNS(=O)(=O)c2cccc(C(=O)N3CCN(C)CC3)c2)cc1

>  <score_type>  (86) 
oracle

>  <origin>  (86) 
adg

>  <m_score__min__energy>  (86) 
-9.3399999999999999

>  <m_primary>  (86) 
energy

$$$$
87:0
     RDKit          3D

 46 48  0  0  0  0  0  0  0  0999 V2000
   56.2070   27.9150   44.8850 H   0  0  0  0  0  0  0  0  0  0  0  0
   55.6700   27.4750   45.6230 O   0  0  0  0  0  0  0  0  0  0  0  0
   56.0250   26.2190   46.1050 C   0  0  0  0  0  0  0  0  0  0  0  0
   55.1530   25.2130   46.2910 N   0  0  0  0  0  0  0  0  0  0  0  0
   55.9460   24.2150   46.7350 C   0  0  0  0  0  0  0  0  0  0  0  0
   55.5010   23.0750   47.0280 O   0  0  0  0  0  0  0  0  0  0  0  0
   57.2550   24.5330   46.8350 N   0  0  0  0  0  0  0  0  0  0  0  0
   57.2940   25.8240   46.4520 C   0  0  0  0  0  0  0  0  0  0  0  0
   58.5260   26.6250   46.2760 C   0  0  0  0  0  0  0  0  0  0  0  0
   59.3598   26.1496   45.7387 H   0  0  0  0  0  0  0  0  0  0  0  0
   58.7200   27.8990   46.7200 C   0  0  0  0  0  0  0  0  0  0  0  0
   58.1410   28.9810   46.0180 C   0  0  0  0  0  0  0  0  0  0  0  0
   57.4973   28.7812   45.1487 H   0  0  0  0  0  0  0  0  0  0  0  0
   58.3750   30.3000   46.4130 C   0  0  0  0  0  0  0  0  0  0  0  0
   57.7780   31.4390   45.6890 C   0  0  0  0  0  0  0  0  0  0  0  0
   58.2200   32.6040   45.8860 O   0  0  0  0  0  0  0  0  0  0  0  0
   56.7060   31.2380   44.7630 N   0  0  0  0  0  0  0  0  0  0  0  0
   55.9950   30.0810   44.7450 O   0  0  0  0  0  0  0  0  0  0  0  0
   55.8650   29.7200   43.3940 C   0  0  0  0  0  0  0  0  0  0  0  0
   55.4931   28.6871   43.3246 H   0  0  0  0  0  0  0  0  0  0  0  0
   55.1550   30.3994   42.8996 H   0  0  0  0  0  0  0  0  0  0  0  0
   56.8451   29.7908   42.8996 H   0  0  0  0  0  0  0  0  0  0  0  0
   59.1850   30.5430   47.4680 N   0  0  0  0  0  0  0  0  0  0  0  0
   59.8020   29.5610   48.1710 C   0  0  0  0  0  0  0  0  0  0  0  0
   60.5970   29.9110   49.3220 N   0  0  0  0  0  0  0  0  0  0  0  0
   61.6550   30.6710   49.3850 C   0  0  0  0  0  0  0  0  0  0  0  0
   62.4070   30.6290   50.5160 N   0  0  0  0  0  0  0  0  0  0  0  0
   63.5310   31.3760   50.6780 C   0  0  0  0  0  0  0  0  0  0  0  0
   64.1037   31.3075   51.6147 H   0  0  0  0  0  0  0  0  0  0  0  0
   63.9640   32.2340   49.6560 C   0  0  0  0  0  0  0  0  0  0  0  0
   65.2210   33.0700   49.8060 C   0  0  1  0  0  0  0  0  0  0  0  0
   65.4322   33.5377   48.8330 H   0  0  0  0  0  0  0  0  0  0  0  0
   65.0300   34.0980   50.7470 O   0  0  0  0  0  0  0  0  0  0  0  0
   64.9310   33.6840   51.6430 H   0  0  0  0  0  0  0  0  0  0  0  0
   66.4330   32.2000   50.1670 C   0  0  0  0  0  0  0  0  0  0  0  0
   66.5244   32.1344   51.2612 H   0  0  0  0  0  0  0  0  0  0  0  0
   66.2978   31.1914   49.7492 H   0  0  0  0  0  0  0  0  0  0  0  0
   67.3453   32.6507   49.7492 H   0  0  0  0  0  0  0  0  0  0  0  0
   63.2240   32.2760   48.4660 C   0  0  0  0  0  0  0  0  0  0  0  0
   63.5501   32.9279   47.6422 H   0  0  0  0  0  0  0  0  0  0  0  0
   62.0750   31.4950   48.3200 C   0  0  0  0  0  0  0  0  0  0  0  0
   61.5020   31.5224   47.3814 H   0  0  0  0  0  0  0  0  0  0  0  0
   59.5560   28.1990   47.8510 C   0  0  0  0  0  0  0  0  0  0  0  0
   60.0880   27.2420   48.6460 C   0  0  0  0  0  0  0  0  0  0  0  0
   59.9128   26.1797   48.4206 H   0  0  0  0  0  0  0  0  0  0  0  0
   60.6957   27.5263   49.5177 H   0  0  0  0  0  0  0  0  0  0  0  0
  1  2  1  0
  2  3  1  0
  3  4  1  0
  4  5  1  0
  5  6  2  0
  5  7  1  0
  7  8  1  0
  8  9  1  0
  9 10  1  0
  9 11  2  0
 11 12  1  0
 12 13  1  0
 12 14  2  0
 14 15  1  0
 15 16  2  0
 15 17  1  0
 17 18  1  0
 18 19  1  0
 19 20  1  0
 19 21  1  0
 19 22  1  0
 14 23  1  0
 23 24  2  0
 24 25  1  0
 25 26  2  3
 26 27  1  0
 27 28  1  0
 28 29  1  0
 28 30  2  0
 30 31  1  0
 31 32  1  6
 31 33  1  0
 33 34  1  0
 31 35  1  0
 35 36  1  0
 35 37  1  0
 35 38  1  0
 30 39  1  0
 39 40  1  0
 39 41  2  0
 41 42  1  0
 24 43  1  0
 43 44  2  0
 44 45  1  0
 44 46  1  0
  8  3  2  0
 43 11  1  0
 41 26  1  0
M  CHG  4   4  -1   7  -1  17  -1  27  -1
M  END
>  <UniqueID>  (87) 
83

>  <SMILES>  (87) 
C=c1c(N=c2ccc([C@H](C)O)c[n-]2)nc(C(=O)[N-]OC)c/c1=C\c1[n-]c(=O)[n-]c1O

>  <Energy>  (87) 
100.92750036522696

>  <Genealogy>  (87) 
C=c1c(N=c2ccc(C(C)O)c[n-]2)nc(C(=O)[N-]OC)cc1=Cc1[n-]c(=O)[n-]c1O (protonated)
C=c1c(N=c2ccc([C@H](C)O)c[n-]2)nc(C(=O)[N-]OC)cc1=Cc1[n-]c(=O)[n-]c1O (chirality)
C=c1c(N=c2ccc([C@H](C)O)c[n-]2)nc(C(=O)[N-]OC)c/c1=C\c1[n-]c(=O)[n-]c1O (cis-trans isomerization)
C=c1c(N=c2ccc([C@H](C)O)c[n-]2)nc(C(=O)[N-]OC)c/c1=C\c1[n-]c(=O)[n-]c1O (3D coordinates assigned)
C=c1c(N=c2ccc([C@H](C)O)c[n-]2)nc(C(=O)[N-]OC)c/c1=C\c1[n-]c(=O)[n-]c1O (optimized conformer: 100.92750036522696 kcal/mol)

>  <smiles>  (87) 
C=c1c(N=c2ccc(C(C)O)c[nH]2)nc(C(=O)NOC)cc1=Cc1[nH]c(=O)[nH]c1O

>  <score_type>  (87) 
oracle

>  <origin>  (87) 
adg

>  <m_score__min__energy>  (87) 
-14.720000000000001

>  <m_primary>  (87) 
energy

$$$$
88:0
     RDKit          3D

 46 48  0  0  0  0  0  0  0  0999 V2000
   57.7880   27.7820   44.7250 C   0  0  0  0  0  0  0  0  0  0  0  0
   57.3850   29.1930   44.4620 C   0  0  0  0  0  0  0  0  0  0  0  0
   58.1080   30.0690   43.7440 N   0  0  0  0  0  0  0  0  0  0  0  0
   57.3610   31.1870   43.8100 C   0  0  0  0  0  0  0  0  0  0  0  0
   57.7230   32.4820   43.1470 C   0  0  0  0  0  0  0  0  0  0  0  0
   58.5410   33.3930   44.0760 C   0  0  0  0  0  0  0  0  0  0  0  0
   58.1190   33.3310   45.5280 C   0  0  0  0  0  0  0  0  0  0  0  0
   56.8920   33.3240   45.8210 O   0  0  0  0  0  0  0  0  0  0  0  0
   59.1040   33.3110   46.5840 N   0  0  0  0  0  0  0  0  0  0  0  0
   58.6960   33.0070   47.9620 C   0  0  0  0  0  0  0  0  0  0  0  0
   59.7840   32.1960   48.6710 C   0  0  0  0  0  0  0  0  0  0  0  0
   61.1070   32.8340   48.5520 N   0  0  0  0  0  0  0  0  0  0  0  0
   62.1850   32.5180   49.4670 C   0  0  0  0  0  0  0  0  0  0  0  0
   63.1200   33.3500   49.6310 O   0  0  0  0  0  0  0  0  0  0  0  0
   62.2440   31.2400   50.2740 C   0  0  1  0  0  0  0  0  0  0  0  0
   61.3890   31.3150   51.5260 C   0  0  0  0  0  0  0  0  0  0  0  0
   60.9730   29.8910   51.7260 C   0  0  0  0  0  0  0  0  0  0  0  0
   61.0640   29.2960   50.3330 C   0  0  0  0  0  0  0  0  0  0  0  0
   61.8610   30.1200   49.5100 O   0  0  0  0  0  0  0  0  0  0  0  0
   61.2910   33.9390   47.5970 C   0  0  0  0  0  0  0  0  0  0  0  0
   60.4990   33.6900   46.3080 C   0  0  0  0  0  0  0  0  0  0  0  0
   56.2410   30.9970   44.5350 N   0  0  0  0  0  0  0  0  0  0  0  0
   56.2940   29.7560   44.9220 O   0  0  0  0  0  0  0  0  0  0  0  0
   57.8369   27.6109   45.8105 H   0  0  0  0  0  0  0  0  0  0  0  0
   57.0486   27.1003   44.2793 H   0  0  0  0  0  0  0  0  0  0  0  0
   58.7759   27.5937   44.2793 H   0  0  0  0  0  0  0  0  0  0  0  0
   59.0210   29.9200   43.2600 H   0  0  0  0  0  0  0  0  0  0  0  0
   58.3173   32.2666   42.2468 H   0  0  0  0  0  0  0  0  0  0  0  0
   56.7904   33.0059   42.8908 H   0  0  0  0  0  0  0  0  0  0  0  0
   59.5977   33.0947   44.0100 H   0  0  0  0  0  0  0  0  0  0  0  0
   58.3702   34.4261   43.7392 H   0  0  0  0  0  0  0  0  0  0  0  0
   58.5309   33.9478   48.5076 H   0  0  0  0  0  0  0  0  0  0  0  0
   57.7677   32.4173   47.9388 H   0  0  0  0  0  0  0  0  0  0  0  0
   59.5254   32.1085   49.7366 H   0  0  0  0  0  0  0  0  0  0  0  0
   59.8377   31.2059   48.1946 H   0  0  0  0  0  0  0  0  0  0  0  0
   63.2950   31.1206   50.5758 H   0  0  0  0  0  0  0  0  0  0  0  0
   61.9724   31.6820   52.3833 H   0  0  0  0  0  0  0  0  0  0  0  0
   60.5404   32.0089   51.4342 H   0  0  0  0  0  0  0  0  0  0  0  0
   61.6547   29.3759   52.4188 H   0  0  0  0  0  0  0  0  0  0  0  0
   59.9701   29.7958   52.1677 H   0  0  0  0  0  0  0  0  0  0  0  0
   61.5153   28.2946   50.3929 H   0  0  0  0  0  0  0  0  0  0  0  0
   60.0540   29.2235   49.9034 H   0  0  0  0  0  0  0  0  0  0  0  0
   60.9422   34.8747   48.0583 H   0  0  0  0  0  0  0  0  0  0  0  0
   62.3592   34.0085   47.3437 H   0  0  0  0  0  0  0  0  0  0  0  0
   60.5046   34.6095   45.7042 H   0  0  0  0  0  0  0  0  0  0  0  0
   60.9775   32.8584   45.7699 H   0  0  0  0  0  0  0  0  0  0  0  0
  1  2  1  0
  2  3  2  0
  3  4  1  0
  4  5  1  0
  5  6  1  0
  6  7  1  0
  7  8  2  0
  7  9  1  0
  9 10  1  0
 10 11  1  0
 11 12  1  0
 12 13  1  0
 13 14  2  0
 13 15  1  0
 15 16  1  0
 16 17  1  0
 17 18  1  0
 18 19  1  0
 12 20  1  0
 20 21  1  0
  4 22  2  0
 22 23  1  0
 23  2  1  0
 21  9  1  0
 19 15  1  0
  1 24  1  0
  1 25  1  0
  1 26  1  0
  3 27  1  0
  5 28  1  0
  5 29  1  0
  6 30  1  0
  6 31  1  0
 10 32  1  0
 10 33  1  0
 11 34  1  0
 11 35  1  0
 15 36  1  1
 16 37  1  0
 16 38  1  0
 17 39  1  0
 17 40  1  0
 18 41  1  0
 18 42  1  0
 20 43  1  0
 20 44  1  0
 21 45  1  0
 21 46  1  0
M  CHG  1   3   1
M  END
>  <UniqueID>  (88) 
84

>  <SMILES>  (88) 
Cc1[nH+]c(CCC(=O)N2CCN(C(=O)[C@H]3CCCO3)CC2)no1

>  <Energy>  (88) 
79.01333331680196

>  <Genealogy>  (88) 
Cc1[nH+]c(CCC(=O)N2CCN(C(=O)C3CCCO3)CC2)no1 (protonated)
Cc1[nH+]c(CCC(=O)N2CCN(C(=O)[C@H]3CCCO3)CC2)no1 (chirality)
Cc1[nH+]c(CCC(=O)N2CCN(C(=O)[C@H]3CCCO3)CC2)no1 (3D coordinates assigned)
Cc1[nH+]c(CCC(=O)N2CCN(C(=O)[C@H]3CCCO3)CC2)no1 (nonaromatic ring conformer: 79.01333331680196 kcal/mol)

>  <smiles>  (88) 
Cc1nc(CCC(=O)N2CCN(C(=O)C3CCCO3)CC2)no1

>  <score_type>  (88) 
oracle

>  <origin>  (88) 
adg

>  <m_score__min__energy>  (88) 
-6.2699999999999996

>  <m_primary>  (88) 
energy

$$$$
