0:0
     RDKit          3D

 53 55  0  0  0  0  0  0  0  0999 V2000
   61.2050   31.7990   49.0470 C   0  0  0  0  0  0  0  0  0  0  0  0
   61.7100   33.0500   47.8880 S   0  0  0  0  0  0  0  0  0  0  0  0
   62.9070   32.5690   47.1170 O   0  0  0  0  0  0  0  0  0  0  0  0
   62.0860   34.3000   48.6330 O   0  0  0  0  0  0  0  0  0  0  0  0
   60.3840   33.3870   46.7800 C   0  0  0  0  0  0  0  0  0  0  0  0
   59.9800   34.7060   46.5430 C   0  0  0  0  0  0  0  0  0  0  0  0
   58.9220   34.9700   45.6710 C   0  0  0  0  0  0  0  0  0  0  0  0
   58.2580   33.9180   45.0340 C   0  0  0  0  0  0  0  0  0  0  0  0
   58.6450   32.5860   45.2680 C   0  0  0  0  0  0  0  0  0  0  0  0
   57.9350   31.4650   44.5990 C   0  0  0  0  0  0  0  0  0  0  0  0
   57.3200   31.6560   43.3510 C   0  0  0  0  0  0  0  0  0  0  0  0
   56.6580   30.6010   42.7200 C   0  0  0  0  0  0  0  0  0  0  0  0
   56.5960   29.3460   43.3280 C   0  0  0  0  0  0  0  0  0  0  0  0
   57.1920   29.1330   44.5820 C   0  0  0  0  0  0  0  0  0  0  0  0
   57.1370   27.8040   45.2360 C   0  0  0  0  0  0  0  0  0  0  0  0
   56.8390   27.7280   46.4600 O   0  0  0  0  0  0  0  0  0  0  0  0
   57.4030   26.6010   44.4950 N   0  0  0  0  0  0  0  0  0  0  0  0
   57.6120   25.3060   45.1530 C   0  0  2  0  0  0  0  0  0  0  0  0
   56.5540   25.0990   46.2580 C   0  0  0  0  0  0  0  0  0  0  0  0
   55.3210   25.8210   45.9550 N   0  0  0  0  0  0  0  0  0  0  0  0
   59.0560   25.2130   45.6940 C   0  0  0  0  0  0  0  0  0  0  0  0
   59.4950   26.4860   46.3720 C   0  0  0  0  0  0  0  0  0  0  0  0
   59.3010   26.6610   47.7540 C   0  0  0  0  0  0  0  0  0  0  0  0
   59.7310   27.8340   48.3820 C   0  0  0  0  0  0  0  0  0  0  0  0
   60.3570   28.8380   47.6390 C   0  0  0  0  0  0  0  0  0  0  0  0
   60.5580   28.6710   46.2660 C   0  0  0  0  0  0  0  0  0  0  0  0
   61.1680   29.6440   45.5460 F   0  0  0  0  0  0  0  0  0  0  0  0
   60.1300   27.4980   45.6330 C   0  0  0  0  0  0  0  0  0  0  0  0
   57.8690   30.1970   45.2060 C   0  0  0  0  0  0  0  0  0  0  0  0
   59.7130   32.3310   46.1480 C   0  0  0  0  0  0  0  0  0  0  0  0
   61.3539   32.1678   50.0726 H   0  0  0  0  0  0  0  0  0  0  0  0
   60.1416   31.5640   48.8926 H   0  0  0  0  0  0  0  0  0  0  0  0
   61.8073   30.8916   48.8926 H   0  0  0  0  0  0  0  0  0  0  0  0
   60.4974   35.5368   47.0451 H   0  0  0  0  0  0  0  0  0  0  0  0
   58.6103   36.0084   45.4849 H   0  0  0  0  0  0  0  0  0  0  0  0
   57.4276   34.1330   44.3454 H   0  0  0  0  0  0  0  0  0  0  0  0
   57.3601   32.6432   42.8675 H   0  0  0  0  0  0  0  0  0  0  0  0
   56.1836   30.7594   41.7403 H   0  0  0  0  0  0  0  0  0  0  0  0
   56.0771   28.5186   42.8219 H   0  0  0  0  0  0  0  0  0  0  0  0
   57.3940   26.6430   43.4500 H   0  0  0  0  0  0  0  0  0  0  0  0
   57.4856   24.4928   44.4231 H   0  0  0  0  0  0  0  0  0  0  0  0
   56.3291   24.0255   46.3420 H   0  0  0  0  0  0  0  0  0  0  0  0
   56.9598   25.4871   47.2039 H   0  0  0  0  0  0  0  0  0  0  0  0
   55.5140   26.4530   45.1450 H   0  0  0  0  0  0  0  0  0  0  0  0
   55.0950   26.4410   46.7660 H   0  0  0  0  0  0  0  0  0  0  0  0
   59.1094   24.3886   46.4203 H   0  0  0  0  0  0  0  0  0  0  0  0
   59.7256   25.0384   44.8389 H   0  0  0  0  0  0  0  0  0  0  0  0
   58.8094   25.8725   48.3427 H   0  0  0  0  0  0  0  0  0  0  0  0
   59.5761   27.9665   49.4629 H   0  0  0  0  0  0  0  0  0  0  0  0
   60.6920   29.7608   48.1351 H   0  0  0  0  0  0  0  0  0  0  0  0
   60.2916   27.3682   44.5527 H   0  0  0  0  0  0  0  0  0  0  0  0
   58.3528   30.0357   46.1806 H   0  0  0  0  0  0  0  0  0  0  0  0
   60.0241   31.2938   46.3417 H   0  0  0  0  0  0  0  0  0  0  0  0
  1  2  1  0
  2  3  2  0
  2  4  2  0
  2  5  1  0
  5  6  2  0
  6  7  1  0
  7  8  2  0
  8  9  1  0
  9 10  1  0
 10 11  2  0
 11 12  1  0
 12 13  2  0
 13 14  1  0
 14 15  1  0
 15 16  2  0
 15 17  1  0
 17 18  1  0
 18 19  1  0
 19 20  1  0
 18 21  1  0
 21 22  1  0
 22 23  2  0
 23 24  1  0
 24 25  2  0
 25 26  1  0
 26 27  1  0
 26 28  2  0
 14 29  2  0
  9 30  2  0
 30  5  1  0
 29 10  1  0
 28 22  1  0
  1 31  1  0
  1 32  1  0
  1 33  1  0
  6 34  1  0
  7 35  1  0
  8 36  1  0
 11 37  1  0
 12 38  1  0
 13 39  1  0
 17 40  1  0
 18 41  1  6
 19 42  1  0
 19 43  1  0
 20 44  1  0
 20 45  1  0
 21 46  1  0
 21 47  1  0
 23 48  1  0
 24 49  1  0
 25 50  1  0
 28 51  1  0
 29 52  1  0
 30 53  1  0
M  END
>  <UniqueID>  (1) 
1

>  <SMILES>  (1) 
CS(=O)(=O)c1cccc(-c2cccc(C(=O)N[C@H](CN)Cc3cccc(F)c3)c2)c1

>  <Energy>  (1) 
54.570456675415976

>  <Genealogy>  (1) 
CS(=O)(=O)c1cccc(-c2cccc(C(=O)N[C@H](CN)Cc3cccc(F)c3)c2)c1 (chirality)
CS(=O)(=O)c1cccc(-c2cccc(C(=O)N[C@H](CN)Cc3cccc(F)c3)c2)c1 (3D coordinates assigned)
CS(=O)(=O)c1cccc(-c2cccc(C(=O)N[C@H](CN)Cc3cccc(F)c3)c2)c1 (optimized conformer: 54.570456675415976 kcal/mol)

>  <smiles>  (1) 
CS(=O)(=O)c1cccc(-c2cccc(C(=O)NC(CN)Cc3cccc(F)c3)c2)c1

>  <score_type>  (1) 
oracle

>  <origin>  (1) 
adg

>  <m_score__min__energy>  (1) 
-9.6400000000000006

>  <m_primary>  (1) 
energy

$$$$
1:0
     RDKit          3D

 60 64  0  0  0  0  0  0  0  0999 V2000
   57.4362   30.3630   43.5883 H   0  0  0  0  0  0  0  0  0  0  0  0
   57.5730   29.3640   44.0280 C   0  0  0  0  0  0  0  0  0  0  0  0
   57.3039   28.4673   43.4505 H   0  0  0  0  0  0  0  0  0  0  0  0
   58.0690   29.2390   45.2710 C   0  0  0  0  0  0  0  0  0  0  0  0
   58.2990   28.0410   45.9620 C   0  0  0  0  0  0  0  0  0  0  0  0
   58.0680   26.7890   45.5100 C   0  0  0  0  0  0  0  0  0  0  0  0
   58.4780   26.5257   44.5238 H   0  0  0  0  0  0  0  0  0  0  0  0
   57.3090   25.7410   46.2310 C   0  0  0  0  0  0  0  0  0  0  0  0
   57.8240   24.6140   46.7570 N   0  0  0  0  0  0  0  0  0  0  0  0
   56.7430   23.9740   47.2530 C   0  0  0  0  0  0  0  0  0  0  0  0
   56.8220   22.8630   47.8390 O   0  0  0  0  0  0  0  0  0  0  0  0
   55.5690   24.6160   47.0690 N   0  0  0  0  0  0  0  0  0  0  0  0
   55.9450   25.7290   46.4160 C   0  0  0  0  0  0  0  0  0  0  0  0
   55.0580   26.7140   45.9970 O   0  0  0  0  0  0  0  0  0  0  0  0
   58.7780   28.4070   47.2160 C   0  0  0  0  0  0  0  0  0  0  0  0
   59.0588   27.7280   48.0346 H   0  0  0  0  0  0  0  0  0  0  0  0
   58.8330   29.7860   47.2350 C   0  0  0  0  0  0  0  0  0  0  0  0
   59.2790   30.6050   48.4080 C   0  0  0  0  0  0  0  0  0  0  0  0
   58.9999   30.0925   49.3404 H   0  0  0  0  0  0  0  0  0  0  0  0
   60.3710   30.7323   48.3723 H   0  0  0  0  0  0  0  0  0  0  0  0
   58.7935   31.5914   48.3723 H   0  0  0  0  0  0  0  0  0  0  0  0
   58.4000   30.2930   46.0600 N   0  0  0  0  0  0  0  0  0  0  0  0
   58.3130   31.6920   45.7320 C   0  0  0  0  0  0  0  0  0  0  0  0
   57.4400   32.1280   44.7260 C   0  0  0  0  0  0  0  0  0  0  0  0
   56.8024   31.4022   44.2001 H   0  0  0  0  0  0  0  0  0  0  0  0
   57.3780   33.4820   44.3900 C   0  0  0  0  0  0  0  0  0  0  0  0
   56.6963   33.8190   43.5952 H   0  0  0  0  0  0  0  0  0  0  0  0
   58.1790   34.4100   45.0600 C   0  0  0  0  0  0  0  0  0  0  0  0
   58.1313   35.4741   44.7855 H   0  0  0  0  0  0  0  0  0  0  0  0
   59.0460   33.9890   46.0840 C   0  0  0  0  0  0  0  0  0  0  0  0
   59.9130   34.9600   46.7880 C   0  0  0  0  0  0  0  0  0  0  0  0
   59.6410   36.1910   46.7100 O   0  0  0  0  0  0  0  0  0  0  0  0
   61.0660   34.5320   47.5400 N   0  0  0  0  0  0  0  0  0  0  0  0
   62.1710   33.8440   46.8520 C   0  0  0  0  0  0  0  0  0  0  0  0
   63.0668   34.4823   46.8636 H   0  0  0  0  0  0  0  0  0  0  0  0
   61.8878   33.6374   45.8094 H   0  0  0  0  0  0  0  0  0  0  0  0
   62.4620   32.5590   47.5600 C   0  0  0  0  0  0  0  0  0  0  0  0
   62.7760   31.5240   46.9080 O   0  0  0  0  0  0  0  0  0  0  0  0
   62.3730   32.5370   48.9940 N   0  0  0  0  0  0  0  0  0  0  0  0
   62.4170   31.2780   49.7470 C   0  0  0  0  0  0  0  0  0  0  0  0
   61.6298   31.2861   50.5153 H   0  0  0  0  0  0  0  0  0  0  0  0
   62.2560   30.4389   49.0542 H   0  0  0  0  0  0  0  0  0  0  0  0
   63.7550   31.1180   50.4090 C   0  0  0  0  0  0  0  0  0  0  0  0
   63.9340   30.1250   51.3250 N   0  0  0  0  0  0  0  0  0  0  0  0
   65.1240   29.9400   51.9600 C   0  0  0  0  0  0  0  0  0  0  0  0
   65.2346   29.1265   52.6921 H   0  0  0  0  0  0  0  0  0  0  0  0
   66.2050   30.7810   51.6840 C   0  0  0  0  0  0  0  0  0  0  0  0
   67.1693   30.6325   52.1919 H   0  0  0  0  0  0  0  0  0  0  0  0
   66.0470   31.8120   50.7560 C   0  0  0  0  0  0  0  0  0  0  0  0
   66.8879   32.4843   50.5303 H   0  0  0  0  0  0  0  0  0  0  0  0
   64.8170   31.9880   50.1140 C   0  0  0  0  0  0  0  0  0  0  0  0
   64.6828   32.8005   49.3847 H   0  0  0  0  0  0  0  0  0  0  0  0
   62.1800   33.8240   49.6720 C   0  0  0  0  0  0  0  0  0  0  0  0
   63.1033   34.4171   49.5960 H   0  0  0  0  0  0  0  0  0  0  0  0
   61.9383   33.6408   50.7294 H   0  0  0  0  0  0  0  0  0  0  0  0
   61.0220   34.5990   49.0180 C   0  0  0  0  0  0  0  0  0  0  0  0
   61.0829   35.6531   49.3264 H   0  0  0  0  0  0  0  0  0  0  0  0
   60.0794   34.1380   49.3481 H   0  0  0  0  0  0  0  0  0  0  0  0
   59.1180   32.6230   46.4030 C   0  0  0  0  0  0  0  0  0  0  0  0
   59.8115   32.2811   47.1854 H   0  0  0  0  0  0  0  0  0  0  0  0
  1  2  1  0
  2  3  1  0
  2  4  2  0
  4  5  1  0
  5  6  2  0
  6  7  1  0
  6  8  1  0
  8  9  1  0
  9 10  1  0
 10 11  2  0
 10 12  1  0
 12 13  1  0
 13 14  1  0
  5 15  1  0
 15 16  1  0
 15 17  2  0
 17 18  1  0
 18 19  1  0
 18 20  1  0
 18 21  1  0
 17 22  1  0
 22 23  1  0
 23 24  2  0
 24 25  1  0
 24 26  1  0
 26 27  1  0
 26 28  2  0
 28 29  1  0
 28 30  1  0
 30 31  1  0
 31 32  2  0
 31 33  1  0
 33 34  1  0
 34 35  1  0
 34 36  1  0
 34 37  1  0
 37 38  2  0
 37 39  1  0
 39 40  1  0
 40 41  1  0
 40 42  1  0
 40 43  1  0
 43 44  2  0
 44 45  1  0
 45 46  1  0
 45 47  2  0
 47 48  1  0
 47 49  1  0
 49 50  1  0
 49 51  2  0
 51 52  1  0
 39 53  1  0
 53 54  1  0
 53 55  1  0
 53 56  1  0
 56 57  1  0
 56 58  1  0
 30 59  2  0
 59 60  1  0
 22  4  1  0
 59 23  1  0
 13  8  2  0
 56 33  1  0
 51 43  1  0
M  CHG  3   9  -1  12  -1  14  -1
M  END
>  <UniqueID>  (2) 
2

>  <SMILES>  (2) 
C=c1/c(=C/c2[n-]c(=O)[n-]c2[O-])cc(C)n1-c1cccc(C(=O)N2CCN(Cc3ccccn3)C(=O)C2)c1

>  <Energy>  (2) 
139.64531413698967

>  <Genealogy>  (2) 
C=c1c(=Cc2[n-]c(=O)[n-]c2[O-])cc(C)n1-c1cccc(C(=O)N2CCN(Cc3ccccn3)C(=O)C2)c1 (protonated)
C=c1/c(=C/c2[n-]c(=O)[n-]c2[O-])cc(C)n1-c1cccc(C(=O)N2CCN(Cc3ccccn3)C(=O)C2)c1 (cis-trans isomerization)
C=c1/c(=C/c2[n-]c(=O)[n-]c2[O-])cc(C)n1-c1cccc(C(=O)N2CCN(Cc3ccccn3)C(=O)C2)c1 (3D coordinates assigned)
C=c1/c(=C/c2[n-]c(=O)[n-]c2[O-])cc(C)n1-c1cccc(C(=O)N2CCN(Cc3ccccn3)C(=O)C2)c1 (nonaromatic ring conformer: 139.64531413698967 kcal/mol)

>  <smiles>  (2) 
C=c1c(=Cc2[nH]c(=O)[nH]c2O)cc(C)n1-c1cccc(C(=O)N2CCN(Cc3ccccn3)C(=O)C2)c1

>  <score_type>  (2) 
oracle

>  <origin>  (2) 
adg

>  <m_score__min__energy>  (2) 
-19.420000000000002

>  <m_primary>  (2) 
energy

$$$$
2:0
     RDKit          3D

 36 38  0  0  0  0  0  0  0  0999 V2000
   55.3270   24.1800   46.7260 O   0  0  0  0  0  0  0  0  0  0  0  0
   55.8740   25.2550   46.3690 C   0  0  0  0  0  0  0  0  0  0  0  0
   55.1750   26.3440   45.9850 N   0  0  0  0  0  0  0  0  0  0  0  0
   56.0090   27.3660   45.6570 C   0  0  0  0  0  0  0  0  0  0  0  0
   55.5220   28.5970   45.2360 O   0  0  0  0  0  0  0  0  0  0  0  0
   57.3700   27.0840   45.7730 C   0  0  0  0  0  0  0  0  0  0  0  0
   58.5000   28.0380   45.5300 C   0  0  0  0  0  0  0  0  0  0  0  0
   59.0790   28.5130   46.8400 C   0  0  0  0  0  0  0  0  0  0  0  0
   60.0180   27.7090   47.5070 C   0  0  0  0  0  0  0  0  0  0  0  0
   60.5880   28.1320   48.7080 C   0  0  0  0  0  0  0  0  0  0  0  0
   60.2280   29.3620   49.2600 C   0  0  0  0  0  0  0  0  0  0  0  0
   60.8010   29.7660   50.4630 O   0  0  0  0  0  0  0  0  0  0  0  0
   59.2980   30.1760   48.6020 C   0  0  0  0  0  0  0  0  0  0  0  0
   58.7220   29.7690   47.3830 C   0  0  0  0  0  0  0  0  0  0  0  0
   57.7930   30.5700   46.6920 O   0  0  0  0  0  0  0  0  0  0  0  0
   58.0300   31.2440   45.4550 C   0  0  0  0  0  0  0  0  0  0  0  0
   58.5770   32.6260   45.6950 C   0  0  0  0  0  0  0  0  0  0  0  0
   59.1980   32.9310   46.9160 C   0  0  0  0  0  0  0  0  0  0  0  0
   59.7030   34.2130   47.1520 C   0  0  0  0  0  0  0  0  0  0  0  0
   59.6010   35.1970   46.1650 C   0  0  0  0  0  0  0  0  0  0  0  0
   59.0000   34.8970   44.9390 C   0  0  0  0  0  0  0  0  0  0  0  0
   58.4940   33.6160   44.7010 C   0  0  0  0  0  0  0  0  0  0  0  0
   57.5350   25.5010   46.3210 S   0  0  0  0  0  0  0  0  0  0  0  0
   59.2846   27.5301   44.9500 H   0  0  0  0  0  0  0  0  0  0  0  0
   58.1197   28.9066   44.9724 H   0  0  0  0  0  0  0  0  0  0  0  0
   60.3063   26.7377   47.0788 H   0  0  0  0  0  0  0  0  0  0  0  0
   61.3230   27.4944   49.2211 H   0  0  0  0  0  0  0  0  0  0  0  0
   60.3520   30.4500   51.0620 H   0  0  0  0  0  0  0  0  0  0  0  0
   59.0143   31.1435   49.0418 H   0  0  0  0  0  0  0  0  0  0  0  0
   58.7556   30.6668   44.8631 H   0  0  0  0  0  0  0  0  0  0  0  0
   57.0768   31.3315   44.9130 H   0  0  0  0  0  0  0  0  0  0  0  0
   59.2879   32.1566   47.6920 H   0  0  0  0  0  0  0  0  0  0  0  0
   60.1807   34.4472   48.1148 H   0  0  0  0  0  0  0  0  0  0  0  0
   59.9935   36.2073   46.3527 H   0  0  0  0  0  0  0  0  0  0  0  0
   58.9252   35.6704   44.1603 H   0  0  0  0  0  0  0  0  0  0  0  0
   58.0290   33.3819   43.7320 H   0  0  0  0  0  0  0  0  0  0  0  0
  1  2  2  0
  2  3  1  0
  3  4  1  0
  4  5  1  0
  4  6  2  0
  6  7  1  0
  7  8  1  0
  8  9  2  0
  9 10  1  0
 10 11  2  0
 11 12  1  0
 11 13  1  0
 13 14  2  0
 14 15  1  0
 15 16  1  0
 16 17  1  0
 17 18  2  0
 18 19  1  0
 19 20  2  0
 20 21  1  0
 21 22  2  0
  6 23  1  0
 23  2  1  0
 14  8  1  0
 22 17  1  0
  7 24  1  0
  7 25  1  0
  9 26  1  0
 10 27  1  0
 12 28  1  0
 13 29  1  0
 16 30  1  0
 16 31  1  0
 18 32  1  0
 19 33  1  0
 20 34  1  0
 21 35  1  0
 22 36  1  0
M  CHG  2   3  -1   5  -1
M  END
>  <UniqueID>  (3) 
3

>  <SMILES>  (3) 
O=c1[n-]c([O-])c(Cc2ccc(O)cc2OCc2ccccc2)s1

>  <Energy>  (3) 
66.93167259557042

>  <Genealogy>  (3) 
O=c1[n-]c([O-])c(Cc2ccc(O)cc2OCc2ccccc2)s1 (protonated)
O=c1[n-]c([O-])c(Cc2ccc(O)cc2OCc2ccccc2)s1 (3D coordinates assigned)
O=c1[n-]c([O-])c(Cc2ccc(O)cc2OCc2ccccc2)s1 (optimized conformer: 66.93167259557042 kcal/mol)

>  <smiles>  (3) 
O=c1[nH]c(O)c(Cc2ccc(O)cc2OCc2ccccc2)s1

>  <score_type>  (3) 
oracle

>  <origin>  (3) 
adg

>  <m_score__min__energy>  (3) 
-13.789999999999999

>  <m_primary>  (3) 
energy

$$$$
3:0
     RDKit          3D

 50 52  0  0  0  0  0  0  0  0999 V2000
   59.4310   33.8350   51.6230 C   0  0  0  0  0  0  0  0  0  0  0  0
   58.7310   33.2170   52.5770 C   0  0  0  0  0  0  0  0  0  0  0  0
   57.3080   32.7910   52.3530 C   0  0  0  0  0  0  0  0  0  0  0  0
   57.0930   31.4690   52.8460 O   0  0  0  0  0  0  0  0  0  0  0  0
   56.7060   30.4000   52.0310 C   0  0  0  0  0  0  0  0  0  0  0  0
   55.4960   30.0410   51.9830 O   0  0  0  0  0  0  0  0  0  0  0  0
   57.7080   29.7270   51.2550 N   0  0  0  0  0  0  0  0  0  0  0  0
   58.5490   30.2880   50.4390 C   0  0  0  0  0  0  0  0  0  0  0  0
   58.2780   31.3870   49.7000 N   0  0  0  0  0  0  0  0  0  0  0  0
   59.3480   31.7510   48.9420 C   0  0  0  0  0  0  0  0  0  0  0  0
   59.3160   32.9670   48.0690 C   0  0  0  0  0  0  0  0  0  0  0  0
   60.2240   32.6720   46.5110 S   0  0  0  0  0  0  0  0  0  0  0  0
   59.1180   31.3760   45.9390 C   0  0  0  0  0  0  0  0  0  0  0  0
   59.2430   30.0900   46.3030 N   0  0  0  0  0  0  0  0  0  0  0  0
   58.2490   29.4080   45.7020 C   0  0  0  0  0  0  0  0  0  0  0  0
   58.1030   27.9430   45.8260 C   0  0  0  0  0  0  0  0  0  0  0  0
   57.9150   27.1390   44.6880 C   0  0  0  0  0  0  0  0  0  0  0  0
   57.8060   25.7510   44.8160 C   0  0  0  0  0  0  0  0  0  0  0  0
   57.8970   25.1540   46.0770 C   0  0  0  0  0  0  0  0  0  0  0  0
   58.1050   25.9440   47.2110 C   0  0  0  0  0  0  0  0  0  0  0  0
   58.2150   27.3330   47.0860 C   0  0  0  0  0  0  0  0  0  0  0  0
   57.4670   30.2760   44.9390 C   0  0  0  0  0  0  0  0  0  0  0  0
   56.2330   29.9500   44.1950 C   0  0  0  0  0  0  0  0  0  0  0  0
   55.1290   29.3440   44.8620 N   0  0  0  0  0  0  0  0  0  0  0  0
   56.1380   30.2240   42.9690 O   0  0  0  0  0  0  0  0  0  0  0  0
   58.0310   31.5400   45.0980 C   0  0  0  0  0  0  0  0  0  0  0  0
   57.5780   32.8350   44.4800 C   0  0  0  0  0  0  0  0  0  0  0  0
   57.0410   33.7820   45.5480 C   0  0  0  0  0  0  0  0  0  0  0  0
   60.4760   30.9440   49.0840 C   0  0  0  0  0  0  0  0  0  0  0  0
   60.1120   29.7300   50.1920 S   0  0  0  0  0  0  0  0  0  0  0  0
   60.4717   34.1367   51.8125 H   0  0  0  0  0  0  0  0  0  0  0  0
   58.9671   34.0425   50.6474 H   0  0  0  0  0  0  0  0  0  0  0  0
   59.2065   33.0153   53.5482 H   0  0  0  0  0  0  0  0  0  0  0  0
   56.6362   33.4858   52.8783 H   0  0  0  0  0  0  0  0  0  0  0  0
   57.1013   32.8032   51.2727 H   0  0  0  0  0  0  0  0  0  0  0  0
   58.2703   33.2157   47.8353 H   0  0  0  0  0  0  0  0  0  0  0  0
   59.7969   33.7984   48.6051 H   0  0  0  0  0  0  0  0  0  0  0  0
   59.9860   29.6950   46.9230 H   0  0  0  0  0  0  0  0  0  0  0  0
   57.8534   27.6039   43.6930 H   0  0  0  0  0  0  0  0  0  0  0  0
   57.6484   25.1278   43.9234 H   0  0  0  0  0  0  0  0  0  0  0  0
   57.8049   24.0624   46.1766 H   0  0  0  0  0  0  0  0  0  0  0  0
   58.1822   25.4734   48.2022 H   0  0  0  0  0  0  0  0  0  0  0  0
   58.3901   27.9506   47.9793 H   0  0  0  0  0  0  0  0  0  0  0  0
   55.2790   28.6500   45.6280 H   0  0  0  0  0  0  0  0  0  0  0  0
   58.4298   33.3100   43.9713 H   0  0  0  0  0  0  0  0  0  0  0  0
   56.7746   32.6216   43.7596 H   0  0  0  0  0  0  0  0  0  0  0  0
   57.2701   33.3779   46.5451 H   0  0  0  0  0  0  0  0  0  0  0  0
   57.5140   34.7686   45.4346 H   0  0  0  0  0  0  0  0  0  0  0  0
   55.9515   33.8826   45.4346 H   0  0  0  0  0  0  0  0  0  0  0  0
   61.4357   31.0772   48.5632 H   0  0  0  0  0  0  0  0  0  0  0  0
  1  2  2  0
  2  3  1  0
  3  4  1  0
  4  5  1  0
  5  6  2  0
  5  7  1  0
  7  8  2  3
  8  9  1  0
  9 10  1  0
 10 11  1  0
 11 12  1  0
 12 13  1  0
 13 14  1  0
 14 15  1  0
 15 16  1  0
 16 17  2  0
 17 18  1  0
 18 19  2  0
 19 20  1  0
 20 21  2  0
 15 22  2  0
 22 23  1  0
 23 24  1  0
 23 25  2  0
 22 26  1  0
 26 27  1  0
 27 28  1  0
 10 29  2  0
 29 30  1  0
 30  8  1  0
 26 13  2  0
 21 16  1  0
  1 31  1  0
  1 32  1  0
  2 33  1  0
  3 34  1  0
  3 35  1  0
 11 36  1  0
 11 37  1  0
 14 38  1  0
 17 39  1  0
 18 40  1  0
 19 41  1  0
 20 42  1  0
 21 43  1  0
 24 44  1  0
 27 45  1  0
 27 46  1  0
 28 47  1  0
 28 48  1  0
 28 49  1  0
 29 50  1  0
M  CHG  2   9  -1  24  -1
M  END
>  <UniqueID>  (4) 
4

>  <SMILES>  (4) 
C=CCOC(=O)N=c1[n-]c(CSc2[nH]c(-c3ccccc3)c(C([NH-])=O)c2CC)cs1

>  <Energy>  (4) 
101.24305845378227

>  <Genealogy>  (4) 
C=CCOC(=O)N=c1[n-]c(CSc2[nH]c(-c3ccccc3)c(C([NH-])=O)c2CC)cs1 (protonated)
C=CCOC(=O)N=c1[n-]c(CSc2[nH]c(-c3ccccc3)c(C([NH-])=O)c2CC)cs1 (3D coordinates assigned)
C=CCOC(=O)N=c1[n-]c(CSc2[nH]c(-c3ccccc3)c(C([NH-])=O)c2CC)cs1 (optimized conformer: 101.24305845378227 kcal/mol)

>  <smiles>  (4) 
C=CCOC(=O)N=c1[nH]c(CSc2[nH]c(-c3ccccc3)c(C(N)=O)c2CC)cs1

>  <score_type>  (4) 
oracle

>  <origin>  (4) 
adg

>  <m_score__min__energy>  (4) 
-12.18

>  <m_primary>  (4) 
energy

$$$$
4:0
     RDKit          3D

 57 59  0  0  0  0  0  0  0  0999 V2000
   65.9300   32.7050   50.1360 C   0  0  0  0  0  0  0  0  0  0  0  0
   64.4660   33.0680   49.8880 C   0  0  0  0  0  0  0  0  0  0  0  0
   64.1500   33.2920   48.4020 C   0  0  0  0  0  0  0  0  0  0  0  0
   62.7640   33.9100   48.1780 C   0  0  0  0  0  0  0  0  0  0  0  0
   61.7820   32.8570   47.7380 C   0  0  0  0  0  0  0  0  0  0  0  0
   62.2130   31.5430   47.4960 C   0  0  0  0  0  0  0  0  0  0  0  0
   61.2960   30.5570   47.1250 C   0  0  0  0  0  0  0  0  0  0  0  0
   59.9340   30.8690   46.9850 C   0  0  0  0  0  0  0  0  0  0  0  0
   58.9660   29.8210   46.5890 C   0  0  0  0  0  0  0  0  0  0  0  0
   58.0110   29.5350   47.3610 O   0  0  0  0  0  0  0  0  0  0  0  0
   59.0910   29.1240   45.3360 N   0  0  0  0  0  0  0  0  0  0  0  0
   59.5500   27.7220   45.3410 C   0  0  0  0  0  0  0  0  0  0  0  0
   58.4700   26.7970   45.8440 C   0  0  0  0  0  0  0  0  0  0  0  0
   58.8010   25.5440   46.3820 C   0  0  0  0  0  0  0  0  0  0  0  0
   57.7950   24.6710   46.8070 C   0  0  0  0  0  0  0  0  0  0  0  0
   56.4490   25.0410   46.7010 C   0  0  0  0  0  0  0  0  0  0  0  0
   55.4410   24.1730   47.1140 O   0  0  0  0  0  0  0  0  0  0  0  0
   56.1130   26.2950   46.1740 C   0  0  0  0  0  0  0  0  0  0  0  0
   54.7800   26.6730   46.0680 O   0  0  0  0  0  0  0  0  0  0  0  0
   57.1180   27.1690   45.7510 C   0  0  0  0  0  0  0  0  0  0  0  0
   58.6270   29.8130   44.1110 C   0  0  0  0  0  0  0  0  0  0  0  0
   57.4000   29.1120   43.4690 C   0  0  0  0  0  0  0  0  0  0  0  0
   56.0140   29.6460   43.9070 C   0  0  0  0  0  0  0  0  0  0  0  0
   56.0900   30.8630   44.7260 N   0  0  0  0  0  0  0  0  0  0  0  0
   57.0220   31.8220   44.1360 C   0  0  0  0  0  0  0  0  0  0  0  0
   58.4560   31.3350   44.3430 C   0  0  0  0  0  0  0  0  0  0  0  0
   59.5000   32.1780   47.2510 C   0  0  0  0  0  0  0  0  0  0  0  0
   60.4180   33.1640   47.6270 C   0  0  0  0  0  0  0  0  0  0  0  0
   66.1179   32.6584   51.2188 H   0  0  0  0  0  0  0  0  0  0  0  0
   66.1467   31.7259   49.6838 H   0  0  0  0  0  0  0  0  0  0  0  0
   66.5790   33.4694   49.6838 H   0  0  0  0  0  0  0  0  0  0  0  0
   63.8331   32.2497   50.2621 H   0  0  0  0  0  0  0  0  0  0  0  0
   64.2662   34.0130   50.4144 H   0  0  0  0  0  0  0  0  0  0  0  0
   64.9087   33.9667   47.9787 H   0  0  0  0  0  0  0  0  0  0  0  0
   64.1591   32.3089   47.9086 H   0  0  0  0  0  0  0  0  0  0  0  0
   62.4132   34.3622   49.1174 H   0  0  0  0  0  0  0  0  0  0  0  0
   62.8390   34.6768   47.3929 H   0  0  0  0  0  0  0  0  0  0  0  0
   63.2782   31.2887   47.5991 H   0  0  0  0  0  0  0  0  0  0  0  0
   61.6429   29.5294   46.9413 H   0  0  0  0  0  0  0  0  0  0  0  0
   59.8239   27.4303   44.3163 H   0  0  0  0  0  0  0  0  0  0  0  0
   60.4181   27.6418   46.0119 H   0  0  0  0  0  0  0  0  0  0  0  0
   59.8566   25.2473   46.4698 H   0  0  0  0  0  0  0  0  0  0  0  0
   58.0621   23.6897   47.2262 H   0  0  0  0  0  0  0  0  0  0  0  0
   54.4720   24.4680   47.1580 H   0  0  0  0  0  0  0  0  0  0  0  0
   56.8491   28.1544   45.3427 H   0  0  0  0  0  0  0  0  0  0  0  0
   59.4181   29.7249   43.3517 H   0  0  0  0  0  0  0  0  0  0  0  0
   57.4773   29.2285   42.3779 H   0  0  0  0  0  0  0  0  0  0  0  0
   57.4397   28.0673   43.8110 H   0  0  0  0  0  0  0  0  0  0  0  0
   55.4253   29.8689   43.0050 H   0  0  0  0  0  0  0  0  0  0  0  0
   55.5465   28.8664   44.5264 H   0  0  0  0  0  0  0  0  0  0  0  0
   55.1400   31.3000   44.7410 H   0  0  0  0  0  0  0  0  0  0  0  0
   56.8187   31.9154   43.0590 H   0  0  0  0  0  0  0  0  0  0  0  0
   56.8947   32.8014   44.6203 H   0  0  0  0  0  0  0  0  0  0  0  0
   59.1113   31.8708   43.6405 H   0  0  0  0  0  0  0  0  0  0  0  0
   58.7195   31.5358   45.3919 H   0  0  0  0  0  0  0  0  0  0  0  0
   58.4326   32.4291   47.1632 H   0  0  0  0  0  0  0  0  0  0  0  0
   60.0683   34.1856   47.8368 H   0  0  0  0  0  0  0  0  0  0  0  0
  1  2  1  0
  2  3  1  0
  3  4  1  0
  4  5  1  0
  5  6  2  0
  6  7  1  0
  7  8  2  0
  8  9  1  0
  9 10  2  0
  9 11  1  0
 11 12  1  0
 12 13  1  0
 13 14  2  0
 14 15  1  0
 15 16  2  0
 16 17  1  0
 16 18  1  0
 18 19  1  0
 18 20  2  0
 11 21  1  0
 21 22  1  0
 22 23  1  0
 23 24  1  0
 24 25  1  0
 25 26  1  0
  8 27  1  0
 27 28  2  0
 28  5  1  0
 20 13  1  0
 26 21  1  0
  1 29  1  0
  1 30  1  0
  1 31  1  0
  2 32  1  0
  2 33  1  0
  3 34  1  0
  3 35  1  0
  4 36  1  0
  4 37  1  0
  6 38  1  0
  7 39  1  0
 12 40  1  0
 12 41  1  0
 14 42  1  0
 15 43  1  0
 17 44  1  0
 20 45  1  0
 21 46  1  0
 22 47  1  0
 22 48  1  0
 23 49  1  0
 23 50  1  0
 24 51  1  0
 25 52  1  0
 25 53  1  0
 26 54  1  0
 26 55  1  0
 27 56  1  0
 28 57  1  0
M  CHG  1  19  -1
M  END
>  <UniqueID>  (5) 
5

>  <SMILES>  (5) 
CCCCc1ccc(C(=O)N(Cc2ccc(O)c([O-])c2)C2CCNCC2)cc1

>  <Energy>  (5) 
63.27334352865519

>  <Genealogy>  (5) 
CCCCc1ccc(C(=O)N(Cc2ccc(O)c([O-])c2)C2CCNCC2)cc1 (protonated)
CCCCc1ccc(C(=O)N(Cc2ccc(O)c([O-])c2)C2CCNCC2)cc1 (3D coordinates assigned)
CCCCc1ccc(C(=O)N(Cc2ccc(O)c([O-])c2)C2CCNCC2)cc1 (nonaromatic ring conformer: 63.27334352865519 kcal/mol)

>  <smiles>  (5) 
CCCCc1ccc(C(=O)N(Cc2ccc(O)c(O)c2)C2CCNCC2)cc1

>  <score_type>  (5) 
oracle

>  <origin>  (5) 
adg

>  <m_score__min__energy>  (5) 
-12.75

>  <m_primary>  (5) 
energy

$$$$
5:0
     RDKit          3D

 56 59  0  0  0  0  0  0  0  0999 V2000
   61.2940   28.3690   50.4780 O   0  0  0  0  0  0  0  0  0  0  0  0
   61.3180   29.3510   49.6870 C   0  0  0  0  0  0  0  0  0  0  0  0
   62.2440   30.4270   49.9130 N   0  0  0  0  0  0  0  0  0  0  0  0
   63.1660   30.4410   51.0480 C   0  0  0  0  0  0  0  0  0  0  0  0
   62.9400   31.6640   51.8810 C   0  0  0  0  0  0  0  0  0  0  0  0
   61.7190   32.1200   52.3360 C   0  0  0  0  0  0  0  0  0  0  0  0
   61.9870   33.2920   53.0120 C   0  0  0  0  0  0  0  0  0  0  0  0
   63.3520   33.4750   52.9280 C   0  0  0  0  0  0  0  0  0  0  0  0
   63.8920   32.4890   52.2470 O   0  0  0  0  0  0  0  0  0  0  0  0
   60.3780   29.3790   48.5440 C   0  0  0  0  0  0  0  0  0  0  0  0
   60.7810   29.9390   47.3200 C   0  0  0  0  0  0  0  0  0  0  0  0
   59.8970   29.9870   46.2380 C   0  0  0  0  0  0  0  0  0  0  0  0
   58.5940   29.4880   46.3680 C   0  0  0  0  0  0  0  0  0  0  0  0
   57.4410   29.6180   45.0390 S   0  0  0  0  0  0  0  0  0  0  0  0
   56.2840   28.7000   45.3340 O   0  0  0  0  0  0  0  0  0  0  0  0
   58.0830   29.1960   43.7400 O   0  0  0  0  0  0  0  0  0  0  0  0
   56.8470   31.2440   44.8860 N   0  0  0  0  0  0  0  0  0  0  0  0
   57.5820   32.4060   45.2930 C   0  0  0  0  0  0  0  0  0  0  0  0
   57.7540   33.5020   44.4310 C   0  0  0  0  0  0  0  0  0  0  0  0
   58.5280   34.5970   44.8300 C   0  0  0  0  0  0  0  0  0  0  0  0
   59.1190   34.6120   46.0970 C   0  0  0  0  0  0  0  0  0  0  0  0
   58.9200   33.5400   46.9820 C   0  0  0  0  0  0  0  0  0  0  0  0
   59.6650   33.5560   48.5840 S   0  0  0  0  0  0  0  0  0  0  0  0
   58.8920   32.6390   49.4930 O   0  0  0  0  0  0  0  0  0  0  0  0
   59.5880   34.9470   49.1540 O   0  0  0  0  0  0  0  0  0  0  0  0
   61.3360   33.0480   48.5300 N   0  0  0  0  0  0  0  0  0  0  0  0
   61.8180   33.0050   47.1390 C   0  0  0  0  0  0  0  0  0  0  0  0
   63.3290   32.6910   47.0970 C   0  0  0  0  0  0  0  0  0  0  0  0
   63.8370   32.4180   48.3900 O   0  0  0  0  0  0  0  0  0  0  0  0
   63.6610   33.5510   49.2210 C   0  0  0  0  0  0  0  0  0  0  0  0
   62.1750   33.9550   49.3330 C   0  0  0  0  0  0  0  0  0  0  0  0
   58.1390   32.4450   46.5780 C   0  0  0  0  0  0  0  0  0  0  0  0
   58.1860   28.9300   47.5860 C   0  0  0  0  0  0  0  0  0  0  0  0
   59.0690   28.8770   48.6690 C   0  0  0  0  0  0  0  0  0  0  0  0
   62.2370   31.2590   49.2820 H   0  0  0  0  0  0  0  0  0  0  0  0
   62.9979   29.5453   51.6641 H   0  0  0  0  0  0  0  0  0  0  0  0
   64.1995   30.4485   50.6715 H   0  0  0  0  0  0  0  0  0  0  0  0
   60.7367   31.6470   52.1898 H   0  0  0  0  0  0  0  0  0  0  0  0
   61.2607   33.9471   53.5154 H   0  0  0  0  0  0  0  0  0  0  0  0
   63.9052   34.3193   53.3653 H   0  0  0  0  0  0  0  0  0  0  0  0
   61.7987   30.3423   47.2124 H   0  0  0  0  0  0  0  0  0  0  0  0
   60.2256   30.4182   45.2808 H   0  0  0  0  0  0  0  0  0  0  0  0
   57.2785   33.4992   43.4391 H   0  0  0  0  0  0  0  0  0  0  0  0
   58.6717   35.4467   44.1464 H   0  0  0  0  0  0  0  0  0  0  0  0
   59.7417   35.4661   46.4015 H   0  0  0  0  0  0  0  0  0  0  0  0
   61.2710   32.2237   46.5909 H   0  0  0  0  0  0  0  0  0  0  0  0
   61.6468   33.9870   46.6738 H   0  0  0  0  0  0  0  0  0  0  0  0
   63.4942   31.8131   46.4551 H   0  0  0  0  0  0  0  0  0  0  0  0
   63.8541   33.5714   46.6980 H   0  0  0  0  0  0  0  0  0  0  0  0
   64.0434   33.3184   50.2258 H   0  0  0  0  0  0  0  0  0  0  0  0
   64.2110   34.3919   48.7734 H   0  0  0  0  0  0  0  0  0  0  0  0
   61.8627   33.9007   50.3863 H   0  0  0  0  0  0  0  0  0  0  0  0
   62.0541   34.9814   48.9562 H   0  0  0  0  0  0  0  0  0  0  0  0
   57.9634   31.6124   47.2751 H   0  0  0  0  0  0  0  0  0  0  0  0
   57.1661   28.5315   47.6912 H   0  0  0  0  0  0  0  0  0  0  0  0
   58.7390   28.4408   49.6234 H   0  0  0  0  0  0  0  0  0  0  0  0
  1  2  2  0
  2  3  1  0
  3  4  1  0
  4  5  1  0
  5  6  2  0
  6  7  1  0
  7  8  2  0
  8  9  1  0
  2 10  1  0
 10 11  2  0
 11 12  1  0
 12 13  2  0
 13 14  1  0
 14 15  2  0
 14 16  2  0
 14 17  1  0
 17 18  1  0
 18 19  2  0
 19 20  1  0
 20 21  2  0
 21 22  1  0
 22 23  1  0
 23 24  2  0
 23 25  2  0
 23 26  1  0
 26 27  1  0
 27 28  1  0
 28 29  1  0
 29 30  1  0
 30 31  1  0
 22 32  2  0
 13 33  1  0
 33 34  2  0
  9  5  1  0
 34 10  1  0
 32 18  1  0
 31 26  1  0
  3 35  1  0
  4 36  1  0
  4 37  1  0
  6 38  1  0
  7 39  1  0
  8 40  1  0
 11 41  1  0
 12 42  1  0
 19 43  1  0
 20 44  1  0
 21 45  1  0
 27 46  1  0
 27 47  1  0
 28 48  1  0
 28 49  1  0
 30 50  1  0
 30 51  1  0
 31 52  1  0
 31 53  1  0
 32 54  1  0
 33 55  1  0
 34 56  1  0
M  CHG  1  17  -1
M  END
>  <UniqueID>  (6) 
6

>  <SMILES>  (6) 
O=C(NCc1ccco1)c1ccc(S(=O)(=O)[N-]c2cccc(S(=O)(=O)N3CCOCC3)c2)cc1

>  <Energy>  (6) 
98.62997686118229

>  <Genealogy>  (6) 
O=C(NCc1ccco1)c1ccc(S(=O)(=O)[N-]c2cccc(S(=O)(=O)N3CCOCC3)c2)cc1 (protonated)
O=C(NCc1ccco1)c1ccc(S(=O)(=O)[N-]c2cccc(S(=O)(=O)N3CCOCC3)c2)cc1 (3D coordinates assigned)
O=C(NCc1ccco1)c1ccc(S(=O)(=O)[N-]c2cccc(S(=O)(=O)N3CCOCC3)c2)cc1 (nonaromatic ring conformer: 98.62997686118229 kcal/mol)

>  <smiles>  (6) 
O=C(NCc1ccco1)c1ccc(S(=O)(=O)Nc2cccc(S(=O)(=O)N3CCOCC3)c2)cc1

>  <score_type>  (6) 
oracle

>  <origin>  (6) 
adg

>  <m_score__min__energy>  (6) 
-11.5

>  <m_primary>  (6) 
energy

$$$$
6:0
     RDKit          3D

 54 56  0  0  0  0  0  0  0  0999 V2000
   56.9510   22.0450   43.3460 C   0  0  0  0  0  0  0  0  0  0  0  0
   56.0370   23.2660   43.3820 C   0  0  0  0  0  0  0  0  0  0  0  0
   55.2030   23.2970   44.6670 C   0  0  0  0  0  0  0  0  0  0  0  0
   55.5500   24.5060   45.4920 C   0  0  0  0  0  0  0  0  0  0  0  0
   54.6260   25.1990   45.9940 O   0  0  0  0  0  0  0  0  0  0  0  0
   56.9050   24.9650   45.6010 N   0  0  0  0  0  0  0  0  0  0  0  0
   57.3530   26.1560   45.3190 C   0  0  0  0  0  0  0  0  0  0  0  0
   57.7940   26.5170   44.0280 C   0  0  0  0  0  0  0  0  0  0  0  0
   58.2560   27.8120   43.7970 C   0  0  0  0  0  0  0  0  0  0  0  0
   58.2960   28.7440   44.8440 C   0  0  0  0  0  0  0  0  0  0  0  0
   58.7090   30.1030   44.6240 N   0  0  0  0  0  0  0  0  0  0  0  0
   57.8790   31.2400   44.9040 C   0  0  0  0  0  0  0  0  0  0  0  0
   56.6240   31.1230   44.8710 O   0  0  0  0  0  0  0  0  0  0  0  0
   58.4850   32.5600   45.1930 C   0  0  0  0  0  0  0  0  0  0  0  0
   57.9630   33.7240   44.6080 C   0  0  0  0  0  0  0  0  0  0  0  0
   58.5330   34.9690   44.8830 C   0  0  0  0  0  0  0  0  0  0  0  0
   59.6150   35.0660   45.7580 C   0  0  0  0  0  0  0  0  0  0  0  0
   60.1360   33.9220   46.3710 C   0  0  0  0  0  0  0  0  0  0  0  0
   61.2340   34.0720   47.2810 N   0  0  0  0  0  0  0  0  0  0  0  0
   62.0780   32.7680   48.0550 S   0  0  0  0  0  0  0  0  0  0  0  0
   62.7650   33.2960   49.2840 O   0  0  0  0  0  0  0  0  0  0  0  0
   63.0870   32.1970   47.0990 O   0  0  0  0  0  0  0  0  0  0  0  0
   60.9390   31.4920   48.5150 C   0  0  0  0  0  0  0  0  0  0  0  0
   61.1390   30.1910   48.0220 C   0  0  0  0  0  0  0  0  0  0  0  0
   60.2540   29.1620   48.3490 C   0  0  0  0  0  0  0  0  0  0  0  0
   59.1590   29.4180   49.1710 C   0  0  0  0  0  0  0  0  0  0  0  0
   58.9480   30.7020   49.6780 C   0  0  0  0  0  0  0  0  0  0  0  0
   59.8370   31.7470   49.3710 C   0  0  0  0  0  0  0  0  0  0  0  0
   59.5580   33.1220   49.9200 C   0  0  0  0  0  0  0  0  0  0  0  0
   59.5720   32.6660   46.0800 C   0  0  0  0  0  0  0  0  0  0  0  0
   57.8550   28.3470   46.1110 C   0  0  0  0  0  0  0  0  0  0  0  0
   57.4140   27.0770   46.3180 N   0  0  0  0  0  0  0  0  0  0  0  0
   57.1853   21.7320   44.3742 H   0  0  0  0  0  0  0  0  0  0  0  0
   56.4443   21.2231   42.8189 H   0  0  0  0  0  0  0  0  0  0  0  0
   57.8823   22.2996   42.8189 H   0  0  0  0  0  0  0  0  0  0  0  0
   56.6524   24.1763   43.3318 H   0  0  0  0  0  0  0  0  0  0  0  0
   55.3515   23.2130   42.5234 H   0  0  0  0  0  0  0  0  0  0  0  0
   54.1353   23.3322   44.4047 H   0  0  0  0  0  0  0  0  0  0  0  0
   55.4201   22.3921   45.2536 H   0  0  0  0  0  0  0  0  0  0  0  0
   57.7734   25.7820   43.2099 H   0  0  0  0  0  0  0  0  0  0  0  0
   58.5902   28.1035   42.7904 H   0  0  0  0  0  0  0  0  0  0  0  0
   59.6370   30.2710   44.1720 H   0  0  0  0  0  0  0  0  0  0  0  0
   57.1002   33.6554   43.9292 H   0  0  0  0  0  0  0  0  0  0  0  0
   58.1278   35.8750   44.4086 H   0  0  0  0  0  0  0  0  0  0  0  0
   60.0616   36.0492   45.9673 H   0  0  0  0  0  0  0  0  0  0  0  0
   62.0014   29.9815   47.3721 H   0  0  0  0  0  0  0  0  0  0  0  0
   60.4216   28.1479   47.9571 H   0  0  0  0  0  0  0  0  0  0  0  0
   58.4591   28.6072   49.4213 H   0  0  0  0  0  0  0  0  0  0  0  0
   58.0787   30.8975   50.3231 H   0  0  0  0  0  0  0  0  0  0  0  0
   59.5652   33.0863   51.0194 H   0  0  0  0  0  0  0  0  0  0  0  0
   60.3327   33.8204   49.5707 H   0  0  0  0  0  0  0  0  0  0  0  0
   58.5723   33.4632   49.5707 H   0  0  0  0  0  0  0  0  0  0  0  0
   59.9840   31.7605   46.5494 H   0  0  0  0  0  0  0  0  0  0  0  0
   57.8649   29.0655   46.9439 H   0  0  0  0  0  0  0  0  0  0  0  0
  1  2  1  0
  2  3  1  0
  3  4  1  0
  4  5  2  0
  4  6  1  0
  6  7  2  3
  7  8  1  0
  8  9  2  0
  9 10  1  0
 10 11  1  0
 11 12  1  0
 12 13  2  0
 12 14  1  0
 14 15  2  0
 15 16  1  0
 16 17  2  0
 17 18  1  0
 18 19  1  0
 19 20  1  0
 20 21  2  0
 20 22  2  0
 20 23  1  0
 23 24  2  0
 24 25  1  0
 25 26  2  0
 26 27  1  0
 27 28  2  0
 28 29  1  0
 18 30  2  0
 10 31  2  0
 31 32  1  0
 32  7  1  0
 30 14  1  0
 28 23  1  0
  1 33  1  0
  1 34  1  0
  1 35  1  0
  2 36  1  0
  2 37  1  0
  3 38  1  0
  3 39  1  0
  8 40  1  0
  9 41  1  0
 11 42  1  0
 15 43  1  0
 16 44  1  0
 17 45  1  0
 24 46  1  0
 25 47  1  0
 26 48  1  0
 27 49  1  0
 29 50  1  0
 29 51  1  0
 29 52  1  0
 30 53  1  0
 31 54  1  0
M  CHG  2  19  -1  32  -1
M  END
>  <UniqueID>  (7) 
7

>  <SMILES>  (7) 
CCCC(=O)N=c1ccc(NC(=O)c2cccc([N-]S(=O)(=O)c3ccccc3C)c2)c[n-]1

>  <Energy>  (7) 
72.06179873420032

>  <Genealogy>  (7) 
CCCC(=O)N=c1ccc(NC(=O)c2cccc([N-]S(=O)(=O)c3ccccc3C)c2)c[n-]1 (protonated)
CCCC(=O)N=c1ccc(NC(=O)c2cccc([N-]S(=O)(=O)c3ccccc3C)c2)c[n-]1 (3D coordinates assigned)
CCCC(=O)N=c1ccc(NC(=O)c2cccc([N-]S(=O)(=O)c3ccccc3C)c2)c[n-]1 (optimized conformer: 72.06179873420032 kcal/mol)

>  <smiles>  (7) 
CCCC(=O)N=c1ccc(NC(=O)c2cccc(NS(=O)(=O)c3ccccc3C)c2)c[nH]1

>  <score_type>  (7) 
oracle

>  <origin>  (7) 
adg

>  <m_score__min__energy>  (7) 
-12.4

>  <m_primary>  (7) 
energy

$$$$
7:0
     RDKit          3D

 51 54  0  0  0  0  0  0  0  0999 V2000
   54.6770   30.8550   51.3200 C   0  0  0  0  0  0  0  0  0  0  0  0
   54.5280   30.5760   52.6240 C   0  0  0  0  0  0  0  0  0  0  0  0
   53.3270   30.4950   53.3510 C   0  0  0  0  0  0  0  0  0  0  0  0
   52.0440   30.5170   52.9430 C   0  0  0  0  0  0  0  0  0  0  0  0
   51.5790   30.8570   51.5900 C   0  0  0  0  0  0  0  0  0  0  0  0
   51.8010   30.0820   50.5120 N   0  0  0  0  0  0  0  0  0  0  0  0
   51.3240   30.8300   49.4910 C   0  0  0  0  0  0  0  0  0  0  0  0
   51.3380   30.4310   48.2970 O   0  0  0  0  0  0  0  0  0  0  0  0
   50.8410   32.0390   49.8490 N   0  0  0  0  0  0  0  0  0  0  0  0
   51.0240   32.0470   51.1780 C   0  0  0  0  0  0  0  0  0  0  0  0
   50.7160   33.1300   51.9940 O   0  0  0  0  0  0  0  0  0  0  0  0
   53.6880   30.3680   54.6830 C   0  0  0  0  0  0  0  0  0  0  0  0
   55.0660   30.3200   54.7220 C   0  0  0  0  0  0  0  0  0  0  0  0
   55.8850   30.1870   55.9700 C   0  0  0  0  0  0  0  0  0  0  0  0
   55.5740   30.4350   53.4770 N   0  0  0  0  0  0  0  0  0  0  0  0
   56.9740   30.5040   53.1580 C   0  0  0  0  0  0  0  0  0  0  0  0
   57.6200   31.7450   53.1030 C   0  0  0  0  0  0  0  0  0  0  0  0
   58.9830   31.8170   52.8070 C   0  0  0  0  0  0  0  0  0  0  0  0
   59.7240   30.6460   52.5670 C   0  0  0  0  0  0  0  0  0  0  0  0
   61.1290   30.7320   52.2510 N   0  0  0  0  0  0  0  0  0  0  0  0
   62.0070   31.8470   52.5930 C   0  0  0  0  0  0  0  0  0  0  0  0
   63.3640   31.5360   51.8980 C   0  0  2  0  0  0  0  0  0  0  0  0
   63.7230   32.5920   50.8440 C   0  0  0  0  0  0  0  0  0  0  0  0
   62.9670   32.3740   49.6150 N   0  0  0  0  0  0  0  0  0  0  0  0
   63.4700   32.6630   48.3060 C   0  0  0  0  0  0  0  0  0  0  0  0
   63.1610   31.7400   47.1760 C   0  0  0  0  0  0  0  0  0  0  0  0
   64.1440   33.7070   48.0930 O   0  0  0  0  0  0  0  0  0  0  0  0
   63.1880   30.2620   51.2880 O   0  0  0  0  0  0  0  0  0  0  0  0
   61.9040   29.8170   51.4990 C   0  0  0  0  0  0  0  0  0  0  0  0
   61.4940   28.6920   51.1110 O   0  0  0  0  0  0  0  0  0  0  0  0
   59.0650   29.4030   52.6100 C   0  0  0  0  0  0  0  0  0  0  0  0
   57.7010   29.3320   52.9100 C   0  0  0  0  0  0  0  0  0  0  0  0
   57.0830   28.1240   52.9380 F   0  0  0  0  0  0  0  0  0  0  0  0
   55.6828   30.8864   50.8757 H   0  0  0  0  0  0  0  0  0  0  0  0
   53.7934   31.0523   50.6953 H   0  0  0  0  0  0  0  0  0  0  0  0
   51.2764   30.2579   53.6870 H   0  0  0  0  0  0  0  0  0  0  0  0
   53.0060   30.3155   55.5445 H   0  0  0  0  0  0  0  0  0  0  0  0
   55.2329   30.2929   56.8495 H   0  0  0  0  0  0  0  0  0  0  0  0
   56.3676   29.1987   55.9883 H   0  0  0  0  0  0  0  0  0  0  0  0
   56.6556   30.9718   55.9883 H   0  0  0  0  0  0  0  0  0  0  0  0
   57.0516   32.6672   53.2937 H   0  0  0  0  0  0  0  0  0  0  0  0
   59.4807   32.7969   52.7612 H   0  0  0  0  0  0  0  0  0  0  0  0
   61.5907   32.7933   52.2173 H   0  0  0  0  0  0  0  0  0  0  0  0
   62.1218   31.9570   53.6814 H   0  0  0  0  0  0  0  0  0  0  0  0
   64.1907   31.5436   52.6237 H   0  0  0  0  0  0  0  0  0  0  0  0
   63.4881   33.5911   51.2397 H   0  0  0  0  0  0  0  0  0  0  0  0
   64.7964   32.5133   50.6168 H   0  0  0  0  0  0  0  0  0  0  0  0
   62.8356   30.7680   47.5750 H   0  0  0  0  0  0  0  0  0  0  0  0
   62.3581   32.1708   46.5598 H   0  0  0  0  0  0  0  0  0  0  0  0
   64.0614   31.6005   46.5598 H   0  0  0  0  0  0  0  0  0  0  0  0
   59.6275   28.4800   52.4060 H   0  0  0  0  0  0  0  0  0  0  0  0
  1  2  2  0
  2  3  1  0
  3  4  2  3
  4  5  1  0
  5  6  1  0
  6  7  1  0
  7  8  2  0
  7  9  1  0
  9 10  1  0
 10 11  1  0
  3 12  1  0
 12 13  2  0
 13 14  1  0
 13 15  1  0
 15 16  1  0
 16 17  2  0
 17 18  1  0
 18 19  2  0
 19 20  1  0
 20 21  1  0
 21 22  1  0
 22 23  1  0
 23 24  1  0
 24 25  1  0
 25 26  1  0
 25 27  2  0
 22 28  1  0
 28 29  1  0
 29 30  2  0
 19 31  1  0
 31 32  2  0
 32 33  1  0
 15  2  1  0
 32 16  1  0
 10  5  2  0
 29 20  1  0
  1 34  1  0
  1 35  1  0
  4 36  1  0
 12 37  1  0
 14 38  1  0
 14 39  1  0
 14 40  1  0
 17 41  1  0
 18 42  1  0
 21 43  1  0
 21 44  1  0
 22 45  1  1
 23 46  1  0
 23 47  1  0
 26 48  1  0
 26 49  1  0
 26 50  1  0
 31 51  1  0
M  CHG  4   6  -1   9  -1  11  -1  24  -1
M  END
>  <UniqueID>  (8) 
8

>  <SMILES>  (8) 
C=c1c(=Cc2[n-]c(=O)[n-]c2[O-])cc(C)n1-c1ccc(N2C[C@H](C[N-]C(C)=O)OC2=O)cc1F

>  <Energy>  (8) 
144.86727193789164

>  <Genealogy>  (8) 
C=c1c(=Cc2[n-]c(=O)[n-]c2[O-])cc(C)n1-c1ccc(N2CC(C[N-]C(C)=O)OC2=O)cc1F (protonated)
C=c1c(=Cc2[n-]c(=O)[n-]c2[O-])cc(C)n1-c1ccc(N2C[C@H](C[N-]C(C)=O)OC2=O)cc1F (chirality)
C=c1c(=Cc2[n-]c(=O)[n-]c2[O-])cc(C)n1-c1ccc(N2C[C@H](C[N-]C(C)=O)OC2=O)cc1F (3D coordinates assigned)
C=c1c(=Cc2[n-]c(=O)[n-]c2[O-])cc(C)n1-c1ccc(N2C[C@H](C[N-]C(C)=O)OC2=O)cc1F (nonaromatic ring conformer: 144.86727193789164 kcal/mol)

>  <smiles>  (8) 
C=c1c(=Cc2[nH]c(=O)[nH]c2O)cc(C)n1-c1ccc(N2CC(CNC(C)=O)OC2=O)cc1F

>  <score_type>  (8) 
oracle

>  <origin>  (8) 
adg

>  <m_score__min__energy>  (8) 
-16.149999999999999

>  <m_primary>  (8) 
energy

$$$$
8:0
     RDKit          3D

 57 59  0  0  0  0  0  0  0  0999 V2000
   57.7312   33.4129   49.5796 H   0  0  0  0  0  0  0  0  0  0  0  0
   58.0710   32.3680   49.5280 C   0  0  0  0  0  0  0  0  0  0  0  0
   57.7880   31.5130   50.5370 N   0  0  0  0  0  0  0  0  0  0  0  0
   58.1860   30.2150   50.5010 C   0  0  0  0  0  0  0  0  0  0  0  0
   57.9050   29.4060   51.4810 N   0  0  0  0  0  0  0  0  0  0  0  0
   57.4640   29.8230   52.8120 C   0  0  0  0  0  0  0  0  0  0  0  0
   58.2976   29.7104   53.5208 H   0  0  0  0  0  0  0  0  0  0  0  0
   57.1430   30.8741   52.7662 H   0  0  0  0  0  0  0  0  0  0  0  0
   56.2840   28.9660   53.2820 C   0  0  0  0  0  0  0  0  0  0  0  0
   56.4102   27.9396   52.9070 H   0  0  0  0  0  0  0  0  0  0  0  0
   56.2590   28.9679   54.3817 H   0  0  0  0  0  0  0  0  0  0  0  0
   54.9860   29.5260   52.7650 C   0  0  0  0  0  0  0  0  0  0  0  0
   54.9750   30.7110   52.0100 C   0  0  0  0  0  0  0  0  0  0  0  0
   55.9158   31.2479   51.8187 H   0  0  0  0  0  0  0  0  0  0  0  0
   53.7720   31.2100   51.5010 C   0  0  0  0  0  0  0  0  0  0  0  0
   53.7677   32.1417   50.9162 H   0  0  0  0  0  0  0  0  0  0  0  0
   52.5750   30.5270   51.7340 C   0  0  0  0  0  0  0  0  0  0  0  0
   51.4100   31.0120   51.2390 F   0  0  0  0  0  0  0  0  0  0  0  0
   52.5810   29.3410   52.4730 C   0  0  0  0  0  0  0  0  0  0  0  0
   51.6391   28.8025   52.6541 H   0  0  0  0  0  0  0  0  0  0  0  0
   53.7820   28.8370   52.9830 C   0  0  0  0  0  0  0  0  0  0  0  0
   53.7833   27.8983   53.5564 H   0  0  0  0  0  0  0  0  0  0  0  0
   58.9080   29.7510   49.3900 C   0  0  0  0  0  0  0  0  0  0  0  0
   59.2670   28.5410   49.3520 O   0  0  0  0  0  0  0  0  0  0  0  0
   59.2120   30.6070   48.3540 N   0  0  0  0  0  0  0  0  0  0  0  0
   59.9180   30.0970   47.1590 C   0  0  0  0  0  0  0  0  0  0  0  0
   60.4640   30.9240   46.6814 H   0  0  0  0  0  0  0  0  0  0  0  0
   60.6183   29.3082   47.4709 H   0  0  0  0  0  0  0  0  0  0  0  0
   58.9430   29.5170   46.1760 C   0  0  0  0  0  0  0  0  0  0  0  0
   58.8190   30.0450   45.0390 O   0  0  0  0  0  0  0  0  0  0  0  0
   58.1590   28.3680   46.5310 N   0  0  0  0  0  0  0  0  0  0  0  0
   58.3190   27.9250   47.4630 H   0  0  0  0  0  0  0  0  0  0  0  0
   57.1550   27.8020   45.6250 C   0  0  2  0  0  0  0  0  0  0  0  0
   56.4666   28.6063   45.3263 H   0  0  0  0  0  0  0  0  0  0  0  0
   56.3760   26.7230   46.3220 C   0  0  0  0  0  0  0  0  0  0  0  0
   56.9450   25.9520   47.1400 O   0  0  0  0  0  0  0  0  0  0  0  0
   55.0280   26.5480   46.0360 O   0  0  0  0  0  0  0  0  0  0  0  0
   57.8200   27.2360   44.3680 C   0  0  0  0  0  0  0  0  0  0  0  0
   58.6279   26.5484   44.6586 H   0  0  0  0  0  0  0  0  0  0  0  0
   57.0729   26.6925   43.7710 H   0  0  0  0  0  0  0  0  0  0  0  0
   58.2371   28.0604   43.7710 H   0  0  0  0  0  0  0  0  0  0  0  0
   58.7970   31.9210   48.4180 C   0  0  0  0  0  0  0  0  0  0  0  0
   59.0740   32.8930   47.3380 C   0  0  0  0  0  0  0  0  0  0  0  0
   59.9310   33.9780   47.5640 C   0  0  0  0  0  0  0  0  0  0  0  0
   60.4114   34.1025   48.5457 H   0  0  0  0  0  0  0  0  0  0  0  0
   60.1770   34.9020   46.5460 C   0  0  0  0  0  0  0  0  0  0  0  0
   60.8598   35.7460   46.7236 H   0  0  0  0  0  0  0  0  0  0  0  0
   59.5570   34.7560   45.3020 C   0  0  0  0  0  0  0  0  0  0  0  0
   59.7593   35.4839   44.5025 H   0  0  0  0  0  0  0  0  0  0  0  0
   58.6810   33.6910   45.0660 C   0  0  0  0  0  0  0  0  0  0  0  0
   58.0700   33.5970   43.8060 O   0  0  0  0  0  0  0  0  0  0  0  0
   57.8890   32.3800   43.0890 C   0  0  0  0  0  0  0  0  0  0  0  0
   57.7656   31.5502   43.8004 H   0  0  0  0  0  0  0  0  0  0  0  0
   56.9924   32.4570   42.4564 H   0  0  0  0  0  0  0  0  0  0  0  0
   58.7692   32.1928   42.4564 H   0  0  0  0  0  0  0  0  0  0  0  0
   58.4390   32.7580   46.0940 C   0  0  0  0  0  0  0  0  0  0  0  0
   57.7486   31.9194   45.9203 H   0  0  0  0  0  0  0  0  0  0  0  0
  1  2  1  0
  2  3  1  0
  3  4  1  0
  4  5  2  0
  5  6  1  0
  6  7  1  0
  6  8  1  0
  6  9  1  0
  9 10  1  0
  9 11  1  0
  9 12  1  0
 12 13  2  0
 13 14  1  0
 13 15  1  0
 15 16  1  0
 15 17  2  0
 17 18  1  0
 17 19  1  0
 19 20  1  0
 19 21  2  0
 21 22  1  0
  4 23  1  0
 23 24  2  0
 23 25  1  0
 25 26  1  0
 26 27  1  0
 26 28  1  0
 26 29  1  0
 29 30  2  0
 29 31  1  0
 31 32  1  0
 31 33  1  0
 33 34  1  6
 33 35  1  0
 35 36  2  0
 35 37  1  0
 33 38  1  0
 38 39  1  0
 38 40  1  0
 38 41  1  0
 25 42  1  0
 42 43  1  0
 43 44  2  0
 44 45  1  0
 44 46  1  0
 46 47  1  0
 46 48  2  0
 48 49  1  0
 48 50  1  0
 50 51  1  0
 51 52  1  0
 52 53  1  0
 52 54  1  0
 52 55  1  0
 50 56  2  0
 56 57  1  0
 42  2  2  0
 56 43  1  0
 21 12  1  0
M  CHG  2   3  -1  37  -1
M  END
>  <UniqueID>  (9) 
9

>  <SMILES>  (9) 
COc1cccc(-c2c[n-]/c(=N\CCc3ccc(F)cc3)c(=O)n2CC(=O)N[C@@H](C)C(=O)[O-])c1

>  <Energy>  (9) 
61.87479245192603

>  <Genealogy>  (9) 
COc1cccc(-c2c[n-]c(=NCCc3ccc(F)cc3)c(=O)n2CC(=O)NC(C)C(=O)[O-])c1 (protonated)
COc1cccc(-c2c[n-]c(=NCCc3ccc(F)cc3)c(=O)n2CC(=O)N[C@@H](C)C(=O)[O-])c1 (chirality)
COc1cccc(-c2c[n-]/c(=N\CCc3ccc(F)cc3)c(=O)n2CC(=O)N[C@@H](C)C(=O)[O-])c1 (cis-trans isomerization)
COc1cccc(-c2c[n-]/c(=N\CCc3ccc(F)cc3)c(=O)n2CC(=O)N[C@@H](C)C(=O)[O-])c1 (3D coordinates assigned)
COc1cccc(-c2c[n-]/c(=N\CCc3ccc(F)cc3)c(=O)n2CC(=O)N[C@@H](C)C(=O)[O-])c1 (optimized conformer: 61.87479245192603 kcal/mol)

>  <smiles>  (9) 
COc1cccc(-c2c[nH]c(=NCCc3ccc(F)cc3)c(=O)n2CC(=O)NC(C)C(=O)O)c1

>  <score_type>  (9) 
oracle

>  <origin>  (9) 
adg

>  <m_score__min__energy>  (9) 
-11.85

>  <m_primary>  (9) 
energy

$$$$
9:0
     RDKit          3D

 47 50  0  0  0  0  0  0  0  0999 V2000
   58.6550   30.2510   47.5650 N   0  0  0  0  0  0  0  0  0  0  0  0
   59.4910   27.0870   46.3110 C   0  0  0  0  0  0  0  0  0  0  0  0
   58.1590   29.2950   45.5230 C   0  0  0  0  0  0  0  0  0  0  0  0
   57.4790   30.4290   45.1290 C   0  0  0  0  0  0  0  0  0  0  0  0
   57.4200   31.4750   46.0260 O   0  0  0  0  0  0  0  0  0  0  0  0
   58.1430   32.6440   45.9720 C   0  0  0  0  0  0  0  0  0  0  0  0
   58.3790   33.1660   44.6980 C   0  0  0  0  0  0  0  0  0  0  0  0
   59.0880   34.3300   44.4990 C   0  0  0  0  0  0  0  0  0  0  0  0
   59.5690   34.9810   45.6140 C   0  0  0  0  0  0  0  0  0  0  0  0
   59.3390   34.4660   46.8950 C   0  0  0  0  0  0  0  0  0  0  0  0
   58.6220   33.2900   47.0800 C   0  0  0  0  0  0  0  0  0  0  0  0
   58.4210   32.7760   48.3900 N   0  0  0  0  0  0  0  0  0  0  0  0
   59.7450   32.4040   49.4320 S   0  0  0  0  0  0  0  0  0  0  0  0
   59.6190   33.2600   50.6780 O   0  0  0  0  0  0  0  0  0  0  0  0
   59.6210   30.9490   49.8080 O   0  0  0  0  0  0  0  0  0  0  0  0
   61.2800   32.7080   48.6540 C   0  0  0  0  0  0  0  0  0  0  0  0
   62.0080   33.8790   48.8830 C   0  0  0  0  0  0  0  0  0  0  0  0
   63.2200   34.1140   48.2660 C   0  0  0  0  0  0  0  0  0  0  0  0
   63.7620   33.2000   47.3970 C   0  0  0  0  0  0  0  0  0  0  0  0
   63.0470   32.0430   47.1690 C   0  0  0  0  0  0  0  0  0  0  0  0
   61.8210   31.8070   47.7930 C   0  0  0  0  0  0  0  0  0  0  0  0
   61.2170   30.6380   47.4850 F   0  0  0  0  0  0  0  0  0  0  0  0
   56.9130   30.4350   43.8770 C   0  0  0  0  0  0  0  0  0  0  0  0
   57.0170   29.3440   43.0320 C   0  0  0  0  0  0  0  0  0  0  0  0
   57.6890   28.2070   43.4090 C   0  0  0  0  0  0  0  0  0  0  0  0
   58.2570   28.2100   44.6730 C   0  0  0  0  0  0  0  0  0  0  0  0
   58.9310   27.0990   45.0770 N   0  0  0  0  0  0  0  0  0  0  0  0
   58.7490   29.2490   46.7900 C   0  0  0  0  0  0  0  0  0  0  0  0
   60.1320   26.0640   46.7290 O   0  0  0  0  0  0  0  0  0  0  0  0
   59.4120   28.1210   47.1520 N   0  0  0  0  0  0  0  0  0  0  0  0
   59.9930   28.0910   48.4150 N   0  0  0  0  0  0  0  0  0  0  0  0
   57.8090   30.8580   47.4960 H   0  0  0  0  0  0  0  0  0  0  0  0
   57.9848   32.6286   43.8229 H   0  0  0  0  0  0  0  0  0  0  0  0
   59.2637   34.7251   43.4876 H   0  0  0  0  0  0  0  0  0  0  0  0
   60.1392   35.9143   45.4963 H   0  0  0  0  0  0  0  0  0  0  0  0
   59.7329   35.0018   47.7712 H   0  0  0  0  0  0  0  0  0  0  0  0
   57.4330   32.6160   48.7140 H   0  0  0  0  0  0  0  0  0  0  0  0
   61.6040   34.6338   49.5737 H   0  0  0  0  0  0  0  0  0  0  0  0
   63.7606   35.0491   48.4740 H   0  0  0  0  0  0  0  0  0  0  0  0
   64.7274   33.3830   46.9026 H   0  0  0  0  0  0  0  0  0  0  0  0
   63.4525   31.2883   46.4791 H   0  0  0  0  0  0  0  0  0  0  0  0
   56.3650   31.3268   43.5388 H   0  0  0  0  0  0  0  0  0  0  0  0
   56.5512   29.3884   42.0365 H   0  0  0  0  0  0  0  0  0  0  0  0
   57.7722   27.3372   42.7408 H   0  0  0  0  0  0  0  0  0  0  0  0
   59.0220   26.2590   44.4510 H   0  0  0  0  0  0  0  0  0  0  0  0
   59.9070   28.9250   49.0160 H   0  0  0  0  0  0  0  0  0  0  0  0
   60.5140   27.2460   48.7700 H   0  0  0  0  0  0  0  0  0  0  0  0
  1  2  2  3
  2  3  1  0
  3  4  2  0
  4  5  1  0
  5  6  1  0
  6  7  2  0
  7  8  1  0
  8  9  2  0
  9 10  1  0
 10 11  2  0
 11 12  1  0
 12 13  1  0
 13 14  2  0
 13 15  2  0
 13 16  1  0
 16 17  2  0
 17 18  1  0
 18 19  2  0
 19 20  1  0
 20 21  2  0
 21 22  1  0
  4 23  1  0
 23 24  2  0
 24 25  1  0
 25 26  2  0
 26 27  1  0
 27 28  1  0
 28 29  2  0
 28 30  1  0
 30 31  1  0
 30  2  1  0
 26  3  1  0
 11  6  1  0
 21 16  1  0
  1 32  1  0
  7 33  1  0
  8 34  1  0
  9 35  1  0
 10 36  1  0
 12 37  1  0
 17 38  1  0
 18 39  1  0
 19 40  1  0
 20 41  1  0
 23 42  1  0
 24 43  1  0
 25 44  1  0
 27 45  1  0
 31 46  1  0
 31 47  1  0
M  END
>  <smiles>  (10) 
N=c1c2c(Oc3ccccc3NS(=O)(=O)c3ccccc3F)cccc2[nH]c(=O)n1N

>  <score_type>  (10) 
oracle

>  <origin>  (10) 
adg

>  <m_score__min__energy>  (10) 
-8.5199999999999996

>  <m_primary>  (10) 
energy

$$$$
10:0
     RDKit          3D

 33 36  0  0  0  0  0  0  0  0999 V2000
   58.6290   34.2380   44.7440 C   0  0  0  0  0  0  0  0  0  0  0  0
   58.2750   32.7890   44.9090 C   0  0  0  0  0  0  0  0  0  0  0  0
   57.6300   32.0970   43.8750 C   0  0  0  0  0  0  0  0  0  0  0  0
   57.2670   30.7570   44.0400 C   0  0  0  0  0  0  0  0  0  0  0  0
   57.5400   30.0880   45.2480 C   0  0  0  0  0  0  0  0  0  0  0  0
   57.1630   28.7110   45.4420 N   0  0  0  0  0  0  0  0  0  0  0  0
   55.9030   28.2850   45.3770 N   0  0  0  0  0  0  0  0  0  0  0  0
   55.9340   26.9620   45.6220 C   0  0  0  0  0  0  0  0  0  0  0  0
   54.8670   26.1280   45.6610 N   0  0  0  0  0  0  0  0  0  0  0  0
   55.0670   24.8030   45.9390 C   0  0  0  0  0  0  0  0  0  0  0  0
   53.9740   23.9310   45.9790 C   0  0  0  0  0  0  0  0  0  0  0  0
   54.1660   22.5770   46.2640 C   0  0  0  0  0  0  0  0  0  0  0  0
   55.4490   22.0820   46.5110 C   0  0  0  0  0  0  0  0  0  0  0  0
   56.5560   22.9370   46.4760 C   0  0  0  0  0  0  0  0  0  0  0  0
   56.3850   24.3030   46.1900 C   0  0  0  0  0  0  0  0  0  0  0  0
   57.4820   25.1970   46.1480 C   0  0  0  0  0  0  0  0  0  0  0  0
   58.6640   24.8140   46.3660 O   0  0  0  0  0  0  0  0  0  0  0  0
   57.2070   26.5280   45.8540 C   0  0  0  0  0  0  0  0  0  0  0  0
   57.9730   27.6630   45.7390 C   0  0  0  0  0  0  0  0  0  0  0  0
   59.2180   27.7340   45.9230 O   0  0  0  0  0  0  0  0  0  0  0  0
   58.1560   30.7970   46.2930 C   0  0  0  0  0  0  0  0  0  0  0  0
   58.5190   32.1370   46.1260 C   0  0  0  0  0  0  0  0  0  0  0  0
   58.7426   34.7028   45.7345 H   0  0  0  0  0  0  0  0  0  0  0  0
   59.5744   34.3235   44.1883 H   0  0  0  0  0  0  0  0  0  0  0  0
   57.8295   34.7498   44.1883 H   0  0  0  0  0  0  0  0  0  0  0  0
   57.4081   32.6111   42.9282 H   0  0  0  0  0  0  0  0  0  0  0  0
   56.7648   30.2220   43.2205 H   0  0  0  0  0  0  0  0  0  0  0  0
   52.9606   24.3125   45.7855 H   0  0  0  0  0  0  0  0  0  0  0  0
   53.3022   21.8966   46.2941 H   0  0  0  0  0  0  0  0  0  0  0  0
   55.5896   21.0141   46.7342 H   0  0  0  0  0  0  0  0  0  0  0  0
   57.5626   22.5395   46.6727 H   0  0  0  0  0  0  0  0  0  0  0  0
   58.3544   30.2936   47.2507 H   0  0  0  0  0  0  0  0  0  0  0  0
   58.9980   32.6819   46.9529 H   0  0  0  0  0  0  0  0  0  0  0  0
  1  2  1  0
  2  3  2  0
  3  4  1  0
  4  5  2  0
  5  6  1  0
  6  7  1  0
  7  8  1  0
  8  9  1  0
  9 10  1  0
 10 11  2  0
 11 12  1  0
 12 13  2  0
 13 14  1  0
 14 15  2  0
 15 16  1  0
 16 17  2  0
 16 18  1  0
 18 19  1  0
 19 20  2  0
  5 21  1  0
 21 22  2  0
 22  2  1  0
 19  6  1  0
 18  8  2  0
 15 10  1  0
  1 23  1  0
  1 24  1  0
  1 25  1  0
  3 26  1  0
  4 27  1  0
 11 28  1  0
 12 29  1  0
 13 30  1  0
 14 31  1  0
 21 32  1  0
 22 33  1  0
M  CHG  2   7  -1   9  -1
M  END
>  <UniqueID>  (11) 
10

>  <SMILES>  (11) 
Cc1ccc(-n2[n-]c3[n-]c4ccccc4c(=O)c3c2=O)cc1

>  <Energy>  (11) 
88.12506205693961

>  <Genealogy>  (11) 
Cc1ccc(-n2[n-]c3[n-]c4ccccc4c(=O)c3c2=O)cc1 (protonated)
Cc1ccc(-n2[n-]c3[n-]c4ccccc4c(=O)c3c2=O)cc1 (3D coordinates assigned)
Cc1ccc(-n2[n-]c3[n-]c4ccccc4c(=O)c3c2=O)cc1 (optimized conformer: 88.12506205693961 kcal/mol)

>  <smiles>  (11) 
Cc1ccc(-n2[nH]c3[nH]c4ccccc4c(=O)c3c2=O)cc1

>  <score_type>  (11) 
oracle

>  <origin>  (11) 
adg

>  <m_score__min__energy>  (11) 
-11.1

>  <m_primary>  (11) 
energy

$$$$
11:0
     RDKit          3D

 56 59  0  0  0  0  0  0  0  0999 V2000
   64.0350   33.2800   46.9400 O   0  0  0  0  0  0  0  0  0  0  0  0
   62.8670   33.5810   47.3000 C   0  0  0  0  0  0  0  0  0  0  0  0
   61.8410   33.6960   46.3070 N   0  0  0  0  0  0  0  0  0  0  0  0
   60.7160   34.6130   46.4340 C   0  0  0  0  0  0  0  0  0  0  0  0
   59.4410   33.9490   45.9850 C   0  0  0  0  0  0  0  0  0  0  0  0
   58.5250   34.6370   45.1670 C   0  0  0  0  0  0  0  0  0  0  0  0
   57.3080   34.0460   44.8180 C   0  0  0  0  0  0  0  0  0  0  0  0
   57.0030   32.7610   45.2730 C   0  0  0  0  0  0  0  0  0  0  0  0
   57.9150   32.0660   46.0740 C   0  0  0  0  0  0  0  0  0  0  0  0
   59.1300   32.6560   46.4300 C   0  0  0  0  0  0  0  0  0  0  0  0
   62.5450   33.7900   48.6510 O   0  0  0  0  0  0  0  0  0  0  0  0
   61.4010   33.3640   49.3470 C   0  0  0  0  0  0  0  0  0  0  0  0
   60.4690   34.2400   49.9380 C   0  0  0  0  0  0  0  0  0  0  0  0
   59.3930   33.7280   50.6660 C   0  0  0  0  0  0  0  0  0  0  0  0
   59.2060   32.3470   50.7760 C   0  0  0  0  0  0  0  0  0  0  0  0
   60.0830   31.4660   50.1370 C   0  0  0  0  0  0  0  0  0  0  0  0
   59.8570   30.0530   50.2420 N   0  0  0  0  0  0  0  0  0  0  0  0
   59.5690   29.3550   51.4620 C   0  0  0  0  0  0  0  0  0  0  0  0
   60.4430   28.6030   51.9790 O   0  0  0  0  0  0  0  0  0  0  0  0
   58.2360   29.4730   52.0940 C   0  0  0  0  0  0  0  0  0  0  0  0
   57.8610   28.5910   53.1240 C   0  0  0  0  0  0  0  0  0  0  0  0
   56.6060   28.7000   53.7280 C   0  0  0  0  0  0  0  0  0  0  0  0
   55.7020   29.6880   53.3110 C   0  0  0  0  0  0  0  0  0  0  0  0
   54.3720   29.8290   53.9410 C   0  0  0  0  0  0  0  0  0  0  0  0
   53.2020   29.5420   53.3450 C   0  0  0  0  0  0  0  0  0  0  0  0
   52.5340   30.3740   52.3190 C   0  0  0  0  0  0  0  0  0  0  0  0
   52.4850   29.9160   50.9910 C   0  0  0  0  0  0  0  0  0  0  0  0
   51.8460   30.6730   50.0060 C   0  0  0  0  0  0  0  0  0  0  0  0
   51.2330   31.8850   50.3380 C   0  0  0  0  0  0  0  0  0  0  0  0
   50.6020   32.6320   49.3540 O   0  0  0  0  0  0  0  0  0  0  0  0
   51.2520   32.3370   51.6640 C   0  0  0  0  0  0  0  0  0  0  0  0
   50.6380   33.5370   52.0030 O   0  0  0  0  0  0  0  0  0  0  0  0
   51.8840   31.5760   52.6540 C   0  0  0  0  0  0  0  0  0  0  0  0
   56.0890   30.5940   52.3130 C   0  0  0  0  0  0  0  0  0  0  0  0
   57.3380   30.4790   51.6960 C   0  0  0  0  0  0  0  0  0  0  0  0
   61.1870   31.9840   49.4390 C   0  0  0  0  0  0  0  0  0  0  0  0
   60.6144   34.9178   47.4860 H   0  0  0  0  0  0  0  0  0  0  0  0
   60.9010   35.4930   45.8004 H   0  0  0  0  0  0  0  0  0  0  0  0
   58.7686   35.6452   44.8006 H   0  0  0  0  0  0  0  0  0  0  0  0
   56.5915   34.5915   44.1862 H   0  0  0  0  0  0  0  0  0  0  0  0
   56.0444   32.2951   45.0010 H   0  0  0  0  0  0  0  0  0  0  0  0
   57.6746   31.0515   46.4247 H   0  0  0  0  0  0  0  0  0  0  0  0
   59.8439   32.1056   47.0603 H   0  0  0  0  0  0  0  0  0  0  0  0
   60.5891   35.3277   49.8259 H   0  0  0  0  0  0  0  0  0  0  0  0
   58.6881   34.4157   51.1560 H   0  0  0  0  0  0  0  0  0  0  0  0
   58.3663   31.9526   51.3671 H   0  0  0  0  0  0  0  0  0  0  0  0
   58.5609   27.8101   53.4561 H   0  0  0  0  0  0  0  0  0  0  0  0
   56.3253   28.0072   54.5350 H   0  0  0  0  0  0  0  0  0  0  0  0
   54.3373   30.1970   54.9770 H   0  0  0  0  0  0  0  0  0  0  0  0
   52.6987   28.6109   53.6447 H   0  0  0  0  0  0  0  0  0  0  0  0
   52.9524   28.9562   50.7259 H   0  0  0  0  0  0  0  0  0  0  0  0
   51.8251   30.3145   48.9663 H   0  0  0  0  0  0  0  0  0  0  0  0
   51.8725   31.9193   53.6990 H   0  0  0  0  0  0  0  0  0  0  0  0
   55.4045   31.4013   52.0134 H   0  0  0  0  0  0  0  0  0  0  0  0
   57.6196   31.1788   50.8954 H   0  0  0  0  0  0  0  0  0  0  0  0
   61.8947   31.2935   48.9569 H   0  0  0  0  0  0  0  0  0  0  0  0
  1  2  2  0
  2  3  1  0
  3  4  1  0
  4  5  1  0
  5  6  2  0
  6  7  1  0
  7  8  2  0
  8  9  1  0
  9 10  2  0
  2 11  1  0
 11 12  1  0
 12 13  2  0
 13 14  1  0
 14 15  2  0
 15 16  1  0
 16 17  1  0
 17 18  1  0
 18 19  2  0
 18 20  1  0
 20 21  2  0
 21 22  1  0
 22 23  2  0
 23 24  1  0
 24 25  2  3
 25 26  1  0
 26 27  2  0
 27 28  1  0
 28 29  2  0
 29 30  1  0
 29 31  1  0
 31 32  1  0
 31 33  2  0
 23 34  1  0
 34 35  2  0
 16 36  2  0
 10  5  1  0
 36 12  1  0
 35 20  1  0
 33 26  1  0
  4 37  1  0
  4 38  1  0
  6 39  1  0
  7 40  1  0
  8 41  1  0
  9 42  1  0
 10 43  1  0
 13 44  1  0
 14 45  1  0
 15 46  1  0
 21 47  1  0
 22 48  1  0
 24 49  1  0
 25 50  1  0
 27 51  1  0
 28 52  1  0
 33 53  1  0
 34 54  1  0
 35 55  1  0
 36 56  1  0
M  CHG  4   3  -1  17  -1  30  -1  32  -1
M  END
>  <UniqueID>  (12) 
11

>  <SMILES>  (12) 
O=C([N-]Cc1ccccc1)Oc1cccc([N-]C(=O)c2ccc(C=Cc3ccc([O-])c([O-])c3)cc2)c1

>  <Energy>  (12) 
77.98623760303222

>  <Genealogy>  (12) 
O=C([N-]Cc1ccccc1)Oc1cccc([N-]C(=O)c2ccc(C=Cc3ccc([O-])c([O-])c3)cc2)c1 (protonated)
O=C([N-]Cc1ccccc1)Oc1cccc([N-]C(=O)c2ccc(C=Cc3ccc([O-])c([O-])c3)cc2)c1 (3D coordinates assigned)
O=C([N-]Cc1ccccc1)Oc1cccc([N-]C(=O)c2ccc(C=Cc3ccc([O-])c([O-])c3)cc2)c1 (optimized conformer: 77.98623760303222 kcal/mol)

>  <smiles>  (12) 
O=C(NCc1ccccc1)Oc1cccc(NC(=O)c2ccc(C=Cc3ccc(O)c(O)c3)cc2)c1

>  <score_type>  (12) 
oracle

>  <origin>  (12) 
adg

>  <m_score__min__energy>  (12) 
-21.550000000000001

>  <m_primary>  (12) 
energy

$$$$
12:0
     RDKit          3D

 52 55  0  0  0  0  0  0  0  0999 V2000
   61.4990   31.3590   46.7480 O   0  0  0  0  0  0  0  0  0  0  0  0
   60.8560   30.7490   47.6450 C   0  0  0  0  0  0  0  0  0  0  0  0
   61.0610   31.1480   49.0080 N   0  0  0  0  0  0  0  0  0  0  0  0
   60.7880   32.4460   49.6240 C   0  0  0  0  0  0  0  0  0  0  0  0
   59.3220   32.5990   50.0570 C   0  0  0  0  0  0  0  0  0  0  0  0
   58.5040   31.3050   49.9320 C   0  0  0  0  0  0  0  0  0  0  0  0
   58.2420   30.7500   51.2600 N   0  0  0  0  0  0  0  0  0  0  0  0
   57.0600   30.4310   51.7000 C   0  0  0  0  0  0  0  0  0  0  0  0
   56.7970   29.2640   52.3460 N   0  0  0  0  0  0  0  0  0  0  0  0
   55.4730   29.3410   52.5430 C   0  0  0  0  0  0  0  0  0  0  0  0
   54.6470   28.3950   53.1420 C   0  0  0  0  0  0  0  0  0  0  0  0
   53.2680   28.6690   53.1890 C   0  0  0  0  0  0  0  0  0  0  0  0
   52.7590   29.8700   52.6460 C   0  0  0  0  0  0  0  0  0  0  0  0
   53.6270   30.8090   52.0580 C   0  0  0  0  0  0  0  0  0  0  0  0
   54.9860   30.5040   52.0300 C   0  0  0  0  0  0  0  0  0  0  0  0
   55.9780   31.2270   51.4900 N   0  0  0  0  0  0  0  0  0  0  0  0
   59.9410   29.6600   47.2410 C   0  0  0  0  0  0  0  0  0  0  0  0
   59.2940   28.8020   48.1130 C   0  0  0  0  0  0  0  0  0  0  0  0
   58.4930   28.0000   47.3300 C   0  0  0  0  0  0  0  0  0  0  0  0
   58.7020   28.4190   46.0310 C   0  0  0  0  0  0  0  0  0  0  0  0
   57.9670   27.9310   44.8250 C   0  0  0  0  0  0  0  0  0  0  0  0
   58.0900   28.9320   43.7630 N   0  0  0  0  0  0  0  0  0  0  0  0
   56.8960   30.1880   43.9340 S   0  0  0  0  0  0  0  0  0  0  0  0
   56.2680   30.5230   42.6090 O   0  0  0  0  0  0  0  0  0  0  0  0
   55.8280   29.6960   44.8730 O   0  0  0  0  0  0  0  0  0  0  0  0
   57.6400   31.6290   44.6250 C   0  0  0  0  0  0  0  0  0  0  0  0
   57.7710   31.7530   46.0190 C   0  0  0  0  0  0  0  0  0  0  0  0
   58.3850   32.8830   46.5710 C   0  0  0  0  0  0  0  0  0  0  0  0
   58.8660   33.8970   45.7370 C   0  0  0  0  0  0  0  0  0  0  0  0
   59.6550   35.3020   46.4310 Cl  0  0  0  0  0  0  0  0  0  0  0  0
   58.7180   33.7860   44.3470 C   0  0  0  0  0  0  0  0  0  0  0  0
   58.1120   32.6550   43.7930 C   0  0  0  0  0  0  0  0  0  0  0  0
   59.5760   29.3970   46.0060 O   0  0  0  0  0  0  0  0  0  0  0  0
   61.4303   32.5573   50.5100 H   0  0  0  0  0  0  0  0  0  0  0  0
   60.9954   33.2214   48.8719 H   0  0  0  0  0  0  0  0  0  0  0  0
   59.3021   32.9224   51.1082 H   0  0  0  0  0  0  0  0  0  0  0  0
   58.8625   33.3367   49.3827 H   0  0  0  0  0  0  0  0  0  0  0  0
   57.5483   31.5246   49.4337 H   0  0  0  0  0  0  0  0  0  0  0  0
   59.0731   30.5731   49.3400 H   0  0  0  0  0  0  0  0  0  0  0  0
   55.0577   27.4658   53.5638 H   0  0  0  0  0  0  0  0  0  0  0  0
   52.5819   27.9440   53.6512 H   0  0  0  0  0  0  0  0  0  0  0  0
   51.6784   30.0722   52.6830 H   0  0  0  0  0  0  0  0  0  0  0  0
   53.2458   31.7504   51.6355 H   0  0  0  0  0  0  0  0  0  0  0  0
   59.3980   28.7674   49.2075 H   0  0  0  0  0  0  0  0  0  0  0  0
   57.8259   27.1938   47.6690 H   0  0  0  0  0  0  0  0  0  0  0  0
   58.4009   26.9782   44.4876 H   0  0  0  0  0  0  0  0  0  0  0  0
   56.9064   27.7738   45.0707 H   0  0  0  0  0  0  0  0  0  0  0  0
   59.0310   29.3840   43.8520 H   0  0  0  0  0  0  0  0  0  0  0  0
   57.3897   30.9593   46.6782 H   0  0  0  0  0  0  0  0  0  0  0  0
   58.4893   32.9736   47.6623 H   0  0  0  0  0  0  0  0  0  0  0  0
   59.0799   34.5913   43.6908 H   0  0  0  0  0  0  0  0  0  0  0  0
   58.0049   32.5692   42.7016 H   0  0  0  0  0  0  0  0  0  0  0  0
  1  2  2  0
  2  3  1  0
  3  4  1  0
  4  5  1  0
  5  6  1  0
  6  7  1  0
  7  8  2  3
  8  9  1  0
  9 10  1  0
 10 11  2  0
 11 12  1  0
 12 13  2  0
 13 14  1  0
 14 15  2  0
 15 16  1  0
  2 17  1  0
 17 18  2  0
 18 19  1  0
 19 20  2  0
 20 21  1  0
 21 22  1  0
 22 23  1  0
 23 24  2  0
 23 25  2  0
 23 26  1  0
 26 27  2  0
 27 28  1  0
 28 29  2  0
 29 30  1  0
 29 31  1  0
 31 32  2  0
 20 33  1  0
 16  8  1  0
 33 17  1  0
 15 10  1  0
 32 26  1  0
  4 34  1  0
  4 35  1  0
  5 36  1  0
  5 37  1  0
  6 38  1  0
  6 39  1  0
 11 40  1  0
 12 41  1  0
 13 42  1  0
 14 43  1  0
 18 44  1  0
 19 45  1  0
 21 46  1  0
 21 47  1  0
 22 48  1  0
 27 49  1  0
 28 50  1  0
 31 51  1  0
 32 52  1  0
M  CHG  3   3  -1   9  -1  16  -1
M  END
>  <UniqueID>  (13) 
12

>  <SMILES>  (13) 
O=C([N-]CCCN=c1[n-]c2ccccc2[n-]1)c1ccc(CNS(=O)(=O)c2ccc(Cl)cc2)o1

>  <Energy>  (13) 
102.78601515986901

>  <Genealogy>  (13) 
O=C([N-]CCCN=c1[n-]c2ccccc2[n-]1)c1ccc(CNS(=O)(=O)c2ccc(Cl)cc2)o1 (protonated)
O=C([N-]CCCN=c1[n-]c2ccccc2[n-]1)c1ccc(CNS(=O)(=O)c2ccc(Cl)cc2)o1 (3D coordinates assigned)
O=C([N-]CCCN=c1[n-]c2ccccc2[n-]1)c1ccc(CNS(=O)(=O)c2ccc(Cl)cc2)o1 (optimized conformer: 102.78601515986901 kcal/mol)

>  <smiles>  (13) 
O=C(NCCCN=c1[nH]c2ccccc2[nH]1)c1ccc(CNS(=O)(=O)c2ccc(Cl)cc2)o1

>  <score_type>  (13) 
oracle

>  <origin>  (13) 
adg

>  <m_score__min__energy>  (13) 
-13.039999999999999

>  <m_primary>  (13) 
energy

$$$$
13:0
     RDKit          3D

 27 28  0  0  0  0  0  0  0  0999 V2000
   61.6540   33.8180   50.7640 H   0  0  0  0  0  0  0  0  0  0  0  0
   60.9820   33.0420   50.5700 N   0  0  0  0  0  0  0  0  0  0  0  0
   61.0290   32.3310   49.4850 C   0  0  0  0  0  0  0  0  0  0  0  0
   62.0140   32.6310   48.5350 C   0  0  0  0  0  0  0  0  0  0  0  0
   62.8400   33.5670   48.7100 O   0  0  0  0  0  0  0  0  0  0  0  0
   62.0740   31.7070   47.1300 S   0  0  0  0  0  0  0  0  0  0  0  0
   60.8820   30.5180   47.1260 C   0  0  0  0  0  0  0  0  0  0  0  0
   60.7140   29.6020   45.9500 C   0  0  0  0  0  0  0  0  0  0  0  0
   61.2171   30.0387   45.0747 H   0  0  0  0  0  0  0  0  0  0  0  0
   61.1582   28.6248   46.1904 H   0  0  0  0  0  0  0  0  0  0  0  0
   59.2540   29.4140   45.6410 C   0  0  0  0  0  0  0  0  0  0  0  0
   58.5040   30.4710   45.1090 C   0  0  0  0  0  0  0  0  0  0  0  0
   58.9910   31.4326   44.8898 H   0  0  0  0  0  0  0  0  0  0  0  0
   57.1400   30.3080   44.8560 C   0  0  0  0  0  0  0  0  0  0  0  0
   56.5601   31.1402   44.4303 H   0  0  0  0  0  0  0  0  0  0  0  0
   56.5070   29.0950   45.1400 C   0  0  0  0  0  0  0  0  0  0  0  0
   55.1480   28.9700   44.8740 O   0  0  0  0  0  0  0  0  0  0  0  0
   57.2460   28.0230   45.6880 C   0  0  0  0  0  0  0  0  0  0  0  0
   56.6280   26.7210   46.0150 C   0  0  0  0  0  0  0  0  0  0  0  0
   57.2756   25.8692   46.2701 H   0  0  0  0  0  0  0  0  0  0  0  0
   55.3780   26.5620   46.0090 O   0  0  0  0  0  0  0  0  0  0  0  0
   58.6180   28.1980   45.9380 C   0  0  0  0  0  0  0  0  0  0  0  0
   59.2007   27.3720   46.3717 H   0  0  0  0  0  0  0  0  0  0  0  0
   60.0220   30.4700   48.2270 C   0  0  0  0  0  0  0  0  0  0  0  0
   59.2250   29.7119   48.2312 H   0  0  0  0  0  0  0  0  0  0  0  0
   60.1170   31.3150   49.3010 N   0  0  0  0  0  0  0  0  0  0  0  0
   59.4090   31.1590   50.0550 H   0  0  0  0  0  0  0  0  0  0  0  0
  1  2  1  0
  2  3  2  0
  3  4  1  0
  4  5  2  0
  4  6  1  0
  6  7  1  0
  7  8  1  0
  8  9  1  0
  8 10  1  0
  8 11  1  0
 11 12  2  0
 12 13  1  0
 12 14  1  0
 14 15  1  0
 14 16  2  0
 16 17  1  0
 16 18  1  0
 18 19  1  0
 19 20  1  0
 19 21  2  0
 18 22  2  0
 22 23  1  0
  7 24  2  0
 24 25  1  0
 24 26  1  0
 26 27  1  0
 26  3  1  0
 22 11  1  0
M  CHG  1  17  -1
M  END
>  <UniqueID>  (14) 
13

>  <SMILES>  (14) 
[H]/N=c1\[nH]cc(Cc2ccc([O-])c(C=O)c2)sc1=O

>  <Energy>  (14) 
31.93581038043747

>  <Genealogy>  (14) 
N=c1[nH]cc(Cc2ccc([O-])c(C=O)c2)sc1=O (protonated)
[H]/N=c1\[nH]cc(Cc2ccc([O-])c(C=O)c2)sc1=O (cis-trans isomerization)
[H]/N=c1\[nH]cc(Cc2ccc([O-])c(C=O)c2)sc1=O (3D coordinates assigned)
[H]/N=c1\[nH]cc(Cc2ccc([O-])c(C=O)c2)sc1=O (optimized conformer: 31.93581038043747 kcal/mol)

>  <smiles>  (14) 
N=c1[nH]cc(Cc2ccc(O)c(C=O)c2)sc1=O

>  <score_type>  (14) 
oracle

>  <origin>  (14) 
adg

>  <m_score__min__energy>  (14) 
-9.9499999999999993

>  <m_primary>  (14) 
energy

$$$$
14:0
     RDKit          3D

 58 63  0  0  0  0  0  0  0  0999 V2000
   57.7090   32.5560   43.0550 O   0  0  0  0  0  0  0  0  0  0  0  0
   57.6860   32.4490   44.3120 C   0  0  0  0  0  0  0  0  0  0  0  0
   57.7730   33.7160   45.1250 C   0  0  0  0  0  0  0  0  0  0  0  0
   59.0030   33.7130   45.9330 N   0  0  0  0  0  0  0  0  0  0  0  0
   60.2140   33.8680   45.3000 C   0  0  0  0  0  0  0  0  0  0  0  0
   61.3780   33.8610   46.0060 N   0  0  0  0  0  0  0  0  0  0  0  0
   61.3330   33.6750   47.3440 C   0  0  0  0  0  0  0  0  0  0  0  0
   62.6350   33.6590   48.4010 S   0  0  0  0  0  0  0  0  0  0  0  0
   61.6930   33.3970   49.7790 C   0  0  0  0  0  0  0  0  0  0  0  0
   60.3460   33.3070   49.4130 C   0  0  0  0  0  0  0  0  0  0  0  0
   59.2870   33.0360   50.4030 C   0  0  0  0  0  0  0  0  0  0  0  0
   59.1220   33.8970   51.5010 C   0  0  0  0  0  0  0  0  0  0  0  0
   58.1320   33.6410   52.4530 C   0  0  0  0  0  0  0  0  0  0  0  0
   57.3090   32.5180   52.3240 C   0  0  0  0  0  0  0  0  0  0  0  0
   57.4800   31.6460   51.2460 C   0  0  0  0  0  0  0  0  0  0  0  0
   58.4700   31.8970   50.2890 C   0  0  0  0  0  0  0  0  0  0  0  0
   58.6390   31.0250   49.2620 F   0  0  0  0  0  0  0  0  0  0  0  0
   60.1510   33.4840   48.0260 C   0  0  0  0  0  0  0  0  0  0  0  0
   58.9530   33.5230   47.2960 C   0  0  0  0  0  0  0  0  0  0  0  0
   57.8430   33.4010   47.8850 O   0  0  0  0  0  0  0  0  0  0  0  0
   57.5490   31.1420   44.9210 N   0  0  0  0  0  0  0  0  0  0  0  0
   57.8670   30.9360   46.3440 C   0  0  0  0  0  0  0  0  0  0  0  0
   57.7690   29.4560   46.7410 C   0  0  0  0  0  0  0  0  0  0  0  0
   58.5660   28.5460   45.7670 C   0  0  0  0  0  0  0  0  0  0  0  0
   58.2130   28.8680   44.2720 C   0  0  0  0  0  0  0  0  0  0  0  0
   57.1660   29.9770   44.1100 C   0  0  0  0  0  0  0  0  0  0  0  0
   59.9500   28.8270   46.0050 O   0  0  0  0  0  0  0  0  0  0  0  0
   60.8130   27.8100   45.5290 C   0  0  0  0  0  0  0  0  0  0  0  0
   60.6420   26.5450   46.3630 C   0  0  0  0  0  0  0  0  0  0  0  0
   59.2050   26.1440   46.3590 C   0  0  0  0  0  0  0  0  0  0  0  0
   58.8530   24.8640   46.6500 N   0  0  0  0  0  0  0  0  0  0  0  0
   57.5500   24.4780   46.6670 C   0  0  0  0  0  0  0  0  0  0  0  0
   57.2510   23.2860   46.9400 O   0  0  0  0  0  0  0  0  0  0  0  0
   56.5520   25.4100   46.3790 C   0  0  0  0  0  0  0  0  0  0  0  0
   56.9020   26.6940   46.0990 N   0  0  0  0  0  0  0  0  0  0  0  0
   58.2050   27.0950   46.0970 C   0  0  0  0  0  0  0  0  0  0  0  0
   57.7841   34.5830   44.4481 H   0  0  0  0  0  0  0  0  0  0  0  0
   56.9020   33.7758   45.7941 H   0  0  0  0  0  0  0  0  0  0  0  0
   60.2425   33.9994   44.2083 H   0  0  0  0  0  0  0  0  0  0  0  0
   62.2930   33.9980   45.5190 H   0  0  0  0  0  0  0  0  0  0  0  0
   62.0793   33.3106   50.8053 H   0  0  0  0  0  0  0  0  0  0  0  0
   59.7745   34.7756   51.6115 H   0  0  0  0  0  0  0  0  0  0  0  0
   57.9998   34.3238   53.3052 H   0  0  0  0  0  0  0  0  0  0  0  0
   56.5265   32.3210   53.0717 H   0  0  0  0  0  0  0  0  0  0  0  0
   56.8351   30.7601   51.1491 H   0  0  0  0  0  0  0  0  0  0  0  0
   58.8912   31.2889   46.5348 H   0  0  0  0  0  0  0  0  0  0  0  0
   57.1369   31.5000   46.9430 H   0  0  0  0  0  0  0  0  0  0  0  0
   58.1734   29.3318   47.7564 H   0  0  0  0  0  0  0  0  0  0  0  0
   56.7107   29.1591   46.6991 H   0  0  0  0  0  0  0  0  0  0  0  0
   59.1334   29.1818   43.7578 H   0  0  0  0  0  0  0  0  0  0  0  0
   57.7813   27.9532   43.8398 H   0  0  0  0  0  0  0  0  0  0  0  0
   57.1062   30.2717   43.0519 H   0  0  0  0  0  0  0  0  0  0  0  0
   56.1866   29.6054   44.4457 H   0  0  0  0  0  0  0  0  0  0  0  0
   60.5706   27.5891   44.4790 H   0  0  0  0  0  0  0  0  0  0  0  0
   61.8544   28.1553   45.6080 H   0  0  0  0  0  0  0  0  0  0  0  0
   61.2507   25.7360   45.9330 H   0  0  0  0  0  0  0  0  0  0  0  0
   60.9688   26.7368   47.3957 H   0  0  0  0  0  0  0  0  0  0  0  0
   55.4939   25.1094   46.3785 H   0  0  0  0  0  0  0  0  0  0  0  0
  1  2  2  0
  2  3  1  0
  3  4  1  0
  4  5  1  0
  5  6  2  0
  6  7  1  0
  7  8  1  0
  8  9  1  0
  9 10  2  0
 10 11  1  0
 11 12  2  0
 12 13  1  0
 13 14  2  0
 14 15  1  0
 15 16  2  0
 16 17  1  0
 10 18  1  0
 18 19  1  0
 19 20  2  0
  2 21  1  0
 21 22  1  0
 22 23  1  0
 23 24  1  0
 24 25  1  0
 25 26  1  0
 24 27  1  0
 27 28  1  0
 28 29  1  0
 29 30  1  0
 30 31  1  0
 31 32  1  0
 32 33  2  0
 32 34  1  0
 34 35  2  0
 35 36  1  0
 19  4  1  0
 26 21  1  0
 36 30  2  0
 18  7  2  0
 36 24  1  0
 16 11  1  0
  3 37  1  0
  3 38  1  0
  5 39  1  0
  6 40  1  0
  9 41  1  0
 12 42  1  0
 13 43  1  0
 14 44  1  0
 15 45  1  0
 22 46  1  0
 22 47  1  0
 23 48  1  0
 23 49  1  0
 25 50  1  0
 25 51  1  0
 26 52  1  0
 26 53  1  0
 28 54  1  0
 28 55  1  0
 29 56  1  0
 29 57  1  0
 34 58  1  0
M  CHG  2   6   1  31  -1
M  END
>  <UniqueID>  (15) 
14

>  <SMILES>  (15) 
O=C(Cn1c[nH+]c2scc(-c3ccccc3F)c2c1=O)N1CCC2(CC1)OCCc1[n-]c(=O)cnc12

>  <Energy>  (15) 
121.55344735948182

>  <Genealogy>  (15) 
O=C(Cn1c[nH+]c2scc(-c3ccccc3F)c2c1=O)N1CCC2(CC1)OCCc1[n-]c(=O)cnc12 (protonated)
O=C(Cn1c[nH+]c2scc(-c3ccccc3F)c2c1=O)N1CCC2(CC1)OCCc1[n-]c(=O)cnc12 (3D coordinates assigned)
O=C(Cn1c[nH+]c2scc(-c3ccccc3F)c2c1=O)N1CCC2(CC1)OCCc1[n-]c(=O)cnc12 (nonaromatic ring conformer: 121.55344735948182 kcal/mol)

>  <smiles>  (15) 
O=C(Cn1cnc2scc(-c3ccccc3F)c2c1=O)N1CCC2(CC1)OCCc1[nH]c(=O)cnc12

>  <score_type>  (15) 
oracle

>  <origin>  (15) 
adg

>  <m_score__min__energy>  (15) 
-9.4499999999999993

>  <m_primary>  (15) 
energy

$$$$
15:0
     RDKit          3D

 42 45  0  0  0  0  0  0  0  0999 V2000
   55.1210   26.4230   45.9870 N   0  0  0  0  0  0  0  0  0  0  0  0
   56.2400   25.6540   46.4230 C   0  0  0  0  0  0  0  0  0  0  0  0
   56.0420   24.5370   46.9720 O   0  0  0  0  0  0  0  0  0  0  0  0
   57.6200   26.1490   46.2340 C   0  0  0  0  0  0  0  0  0  0  0  0
   58.7390   25.2950   46.2300 C   0  0  0  0  0  0  0  0  0  0  0  0
   59.9490   25.9530   46.0320 C   0  0  0  0  0  0  0  0  0  0  0  0
   59.6450   27.5960   45.8630 S   0  0  0  0  0  0  0  0  0  0  0  0
   57.9710   27.4870   46.0450 C   0  0  0  0  0  0  0  0  0  0  0  0
   57.0450   28.5800   46.0010 N   0  0  0  0  0  0  0  0  0  0  0  0
   56.4500   29.1410   44.8240 C   0  0  0  0  0  0  0  0  0  0  0  0
   55.2040   29.1830   44.6920 O   0  0  0  0  0  0  0  0  0  0  0  0
   57.3320   29.6450   43.7210 C   0  0  0  0  0  0  0  0  0  0  0  0
   57.4050   31.1800   43.6960 C   0  0  0  0  0  0  0  0  0  0  0  0
   58.2860   31.7190   44.7840 C   0  0  0  0  0  0  0  0  0  0  0  0
   59.2060   30.8980   45.3790 N   0  0  0  0  0  0  0  0  0  0  0  0
   60.0390   31.3450   46.3640 C   0  0  0  0  0  0  0  0  0  0  0  0
   60.8500   30.5470   46.9080 O   0  0  0  0  0  0  0  0  0  0  0  0
   59.9530   32.6870   46.7620 C   0  0  0  0  0  0  0  0  0  0  0  0
   60.6770   33.3740   47.7610 C   0  0  0  0  0  0  0  0  0  0  0  0
   61.7920   32.8190   48.5550 C   0  0  0  0  0  0  0  0  0  0  0  0
   63.1150   33.1900   48.2650 C   0  0  0  0  0  0  0  0  0  0  0  0
   64.1780   32.6410   48.9920 C   0  0  0  0  0  0  0  0  0  0  0  0
   63.9280   31.7040   49.9990 C   0  0  0  0  0  0  0  0  0  0  0  0
   62.6150   31.3130   50.2790 C   0  0  0  0  0  0  0  0  0  0  0  0
   61.5470   31.8680   49.5580 C   0  0  0  0  0  0  0  0  0  0  0  0
   60.2460   34.6980   47.9140 C   0  0  0  0  0  0  0  0  0  0  0  0
   59.0030   35.0210   46.8080 S   0  0  0  0  0  0  0  0  0  0  0  0
   58.9990   33.4820   46.1500 C   0  0  0  0  0  0  0  0  0  0  0  0
   58.1780   33.0190   45.1770 N   0  0  0  0  0  0  0  0  0  0  0  0
   55.1530   27.4670   46.0000 H   0  0  0  0  0  0  0  0  0  0  0  0
   58.6638   24.2066   46.3706 H   0  0  0  0  0  0  0  0  0  0  0  0
   60.9396   25.4764   45.9927 H   0  0  0  0  0  0  0  0  0  0  0  0
   58.3459   29.2438   43.8660 H   0  0  0  0  0  0  0  0  0  0  0  0
   56.9039   29.3102   42.7646 H   0  0  0  0  0  0  0  0  0  0  0  0
   57.8058   31.5006   42.7231 H   0  0  0  0  0  0  0  0  0  0  0  0
   56.3894   31.5709   43.8566 H   0  0  0  0  0  0  0  0  0  0  0  0
   63.3170   33.9152   47.4630 H   0  0  0  0  0  0  0  0  0  0  0  0
   65.2111   32.9472   48.7707 H   0  0  0  0  0  0  0  0  0  0  0  0
   64.7638   31.2745   50.5708 H   0  0  0  0  0  0  0  0  0  0  0  0
   62.4192   30.5693   51.0655 H   0  0  0  0  0  0  0  0  0  0  0  0
   60.5153   31.5572   49.7792 H   0  0  0  0  0  0  0  0  0  0  0  0
   60.6519   35.4175   48.6403 H   0  0  0  0  0  0  0  0  0  0  0  0
  1  2  1  0
  2  3  2  0
  2  4  1  0
  4  5  1  0
  5  6  2  0
  6  7  1  0
  7  8  1  0
  8  9  1  0
  9 10  1  0
 10 11  2  0
 10 12  1  0
 12 13  1  0
 13 14  1  0
 14 15  2  0
 15 16  1  0
 16 17  2  0
 16 18  1  0
 18 19  1  0
 19 20  1  0
 20 21  2  0
 21 22  1  0
 22 23  2  0
 23 24  1  0
 24 25  2  0
 19 26  2  0
 26 27  1  0
 27 28  1  0
 28 29  1  0
  8  4  2  0
 29 14  1  0
 28 18  2  0
 25 20  1  0
  1 30  1  0
  5 31  1  0
  6 32  1  0
 12 33  1  0
 12 34  1  0
 13 35  1  0
 13 36  1  0
 21 37  1  0
 22 38  1  0
 23 39  1  0
 24 40  1  0
 25 41  1  0
 26 42  1  0
M  CHG  3   1  -1   9  -1  29  -1
M  END
>  <UniqueID>  (16) 
15

>  <SMILES>  (16) 
[NH-]C(=O)c1ccsc1[N-]C(=O)CCc1nc(=O)c2c(-c3ccccc3)csc2[n-]1

>  <Energy>  (16) 
111.49936708222718

>  <Genealogy>  (16) 
[NH-]C(=O)c1ccsc1[N-]C(=O)CCc1nc(=O)c2c(-c3ccccc3)csc2[n-]1 (protonated)
[NH-]C(=O)c1ccsc1[N-]C(=O)CCc1nc(=O)c2c(-c3ccccc3)csc2[n-]1 (3D coordinates assigned)
[NH-]C(=O)c1ccsc1[N-]C(=O)CCc1nc(=O)c2c(-c3ccccc3)csc2[n-]1 (optimized conformer: 111.49936708222718 kcal/mol)

>  <smiles>  (16) 
NC(=O)c1ccsc1NC(=O)CCc1nc(=O)c2c(-c3ccccc3)csc2[nH]1

>  <score_type>  (16) 
oracle

>  <origin>  (16) 
adg

>  <m_score__min__energy>  (16) 
-15.74

>  <m_primary>  (16) 
energy

$$$$
16:0
     RDKit          3D

 49 52  0  0  1  0  0  0  0  0999 V2000
   59.2580   35.6740   44.8740 O   0  0  0  0  0  0  0  0  0  0  0  0
   59.6130   34.5120   45.1850 C   0  0  0  0  0  0  0  0  0  0  0  0
   60.8270   34.4290   45.9680 N   0  0  0  0  0  0  0  0  0  0  0  0
   60.7560   33.8600   47.1480 C   0  0  0  0  0  0  0  0  0  0  0  0
   61.4950   33.0330   47.8550 N   0  0  0  0  0  0  0  0  0  0  0  0
   61.0480   32.7060   49.0110 N   0  0  0  0  0  0  0  0  0  0  0  0
   60.0360   33.0530   49.5490 C   0  0  0  0  0  0  0  0  0  0  0  0
   59.2640   32.8790   50.7970 C   0  0  0  0  0  0  0  0  0  0  0  0
   59.3960   33.7920   51.8160 C   0  0  0  0  0  0  0  0  0  0  0  0
   58.6700   33.6230   53.0150 C   0  0  0  0  0  0  0  0  0  0  0  0
   57.8380   32.5130   53.1070 C   0  0  0  0  0  0  0  0  0  0  0  0
   57.7340   31.6190   52.0560 C   0  0  0  0  0  0  0  0  0  0  0  0
   58.4480   31.7950   50.8880 C   0  0  0  0  0  0  0  0  0  0  0  0
   59.2820   34.1990   48.2550 S   0  0  0  0  0  0  0  0  0  0  0  0
   58.8370   33.3720   44.7720 C   0  0  0  0  0  0  0  0  0  0  0  0
   58.4120   32.5170   45.7960 C   0  0  0  0  0  0  0  0  0  0  0  0
   57.6920   31.4010   45.4850 C   0  0  0  0  0  0  0  0  0  0  0  0
   57.3560   31.0730   44.1580 C   0  0  0  0  0  0  0  0  0  0  0  0
   56.4580   29.5950   43.9850 S   0  0  0  0  0  0  0  0  0  0  0  0
   55.5890   29.3600   45.2060 O   0  0  0  0  0  0  0  0  0  0  0  0
   55.5480   29.7200   42.7790 O   0  0  0  0  0  0  0  0  0  0  0  0
   57.4540   28.2360   43.7930 N   0  0  0  0  0  0  0  0  0  0  0  0
   57.7610   27.6110   45.0420 C   0  0  0  0  0  0  0  0  0  0  0  0
   58.7330   28.4310   45.8370 C   0  0  0  0  0  0  0  0  0  0  0  0
   58.5200   28.6900   47.1670 C   0  0  0  0  0  0  0  0  0  0  0  0
   59.3810   29.4250   47.9690 C   0  0  0  0  0  0  0  0  0  0  0  0
   60.5400   29.9140   47.3350 C   0  0  0  0  0  0  0  0  0  0  0  0
   60.7850   29.6680   45.9980 C   0  0  0  0  0  0  0  0  0  0  0  0
   59.8890   28.9220   45.2130 C   0  0  0  0  0  0  0  0  0  0  0  0
   57.7720   31.9060   43.1940 C   0  0  0  0  0  0  0  0  0  0  0  0
   58.5150   33.0660   43.4550 C   0  0  0  0  0  0  0  0  0  0  0  0
   62.4290   32.6580   47.4720 H   0  0  0  0  0  0  0  0  0  0  0  0
   60.0678   34.6549   51.6972 H   0  0  0  0  0  0  0  0  0  0  0  0
   58.7591   34.3411   53.8435 H   0  0  0  0  0  0  0  0  0  0  0  0
   57.2562   32.3436   54.0251 H   0  0  0  0  0  0  0  0  0  0  0  0
   57.0678   30.7491   52.1535 H   0  0  0  0  0  0  0  0  0  0  0  0
   58.3597   31.0804   50.0564 H   0  0  0  0  0  0  0  0  0  0  0  0
   58.6570   32.7437   46.8441 H   0  0  0  0  0  0  0  0  0  0  0  0
   57.3634   30.7360   46.2973 H   0  0  0  0  0  0  0  0  0  0  0  0
   57.2100   27.6080   43.0180 H   0  0  0  0  0  0  0  0  0  0  0  0
   56.8334   27.4933   45.6214 H   0  0  0  0  0  0  0  0  0  0  0  0
   58.2186   26.6319   44.8372 H   0  0  0  0  0  0  0  0  0  0  0  0
   57.6058   28.2883   47.6284 H   0  0  0  0  0  0  0  0  0  0  0  0
   59.1719   29.6139   49.0323 H   0  0  0  0  0  0  0  0  0  0  0  0
   61.2644   30.5035   47.9162 H   0  0  0  0  0  0  0  0  0  0  0  0
   61.7017   30.0648   45.5374 H   0  0  0  0  0  0  0  0  0  0  0  0
   60.0872   28.7303   44.1481 H   0  0  0  0  0  0  0  0  0  0  0  0
   57.5189   31.6687   42.1501 H   0  0  0  0  0  0  0  0  0  0  0  0
   58.8371   33.7218   42.6327 H   0  0  0  0  0  0  0  0  0  0  0  0
  1  2  2  0
  2  3  1  0
  3  4  2  0
  4  5  1  0
  5  6  1  0
  6  7  2  0
  7  8  1  0
  8  9  2  0
  9 10  1  0
 10 11  2  0
 11 12  1  0
 12 13  2  0
  7 14  1  0
  2 15  1  0
 15 16  2  0
 16 17  1  0
 17 18  2  0
 18 19  1  0
 19 20  2  0
 19 21  2  0
 19 22  1  0
 22 23  1  0
 23 24  1  0
 24 25  2  0
 25 26  1  0
 26 27  2  0
 27 28  1  0
 28 29  2  0
 18 30  1  0
 30 31  2  0
 14  4  1  0
 31 15  1  0
 13  8  1  0
 29 24  1  0
  5 32  1  0
  9 33  1  0
 10 34  1  0
 11 35  1  0
 12 36  1  0
 13 37  1  0
 16 38  1  0
 17 39  1  0
 22 40  1  0
 23 41  1  0
 23 42  1  0
 25 43  1  0
 26 44  1  0
 27 45  1  0
 28 46  1  0
 29 47  1  0
 30 48  1  0
 31 49  1  0
M  END
>  <smiles>  (17) 
O=C(N=c1[nH]nc(-c2ccccc2)s1)c1ccc(S(=O)(=O)NCc2ccccc2)cc1

>  <score_type>  (17) 
oracle

>  <origin>  (17) 
adg

>  <m_score__min__energy>  (17) 
-10.56

>  <m_primary>  (17) 
energy

$$$$
17:0
     RDKit          3D

 69 72  0  0  0  0  0  0  0  0999 V2000
   55.2120   31.6410   52.0240 C   0  0  0  0  0  0  0  0  0  0  0  0
   54.9310   30.4600   52.5950 C   0  0  0  0  0  0  0  0  0  0  0  0
   53.6600   29.9840   52.9360 C   0  0  0  0  0  0  0  0  0  0  0  0
   52.4780   30.5990   52.7340 C   0  0  0  0  0  0  0  0  0  0  0  0
   51.8770   30.8080   51.4050 C   0  0  0  0  0  0  0  0  0  0  0  0
   52.0100   29.9370   50.3870 N   0  0  0  0  0  0  0  0  0  0  0  0
   51.3960   30.5630   49.3570 C   0  0  0  0  0  0  0  0  0  0  0  0
   51.3090   30.0530   48.2100 O   0  0  0  0  0  0  0  0  0  0  0  0
   50.9030   31.7860   49.6500 N   0  0  0  0  0  0  0  0  0  0  0  0
   51.2260   31.9330   50.9450 C   0  0  0  0  0  0  0  0  0  0  0  0
   50.9770   33.0910   51.6730 O   0  0  0  0  0  0  0  0  0  0  0  0
   53.8490   28.7130   53.4660 C   0  0  0  0  0  0  0  0  0  0  0  0
   55.2090   28.4740   53.4440 C   0  0  0  0  0  0  0  0  0  0  0  0
   55.8550   27.1960   53.8760 C   0  0  0  0  0  0  0  0  0  0  0  0
   55.8650   29.5310   52.9150 N   0  0  0  0  0  0  0  0  0  0  0  0
   57.2860   29.6230   52.7090 C   0  0  0  0  0  0  0  0  0  0  0  0
   57.8060   29.6630   51.4080 C   0  0  0  0  0  0  0  0  0  0  0  0
   59.1910   29.8000   51.1890 C   0  0  0  0  0  0  0  0  0  0  0  0
   59.7150   29.8360   49.7960 C   0  0  0  0  0  0  0  0  0  0  0  0
   59.8910   28.7390   49.1920 O   0  0  0  0  0  0  0  0  0  0  0  0
   60.0270   31.0890   49.1260 N   0  0  0  0  0  0  0  0  0  0  0  0
   61.0630   30.8920   48.0910 C   0  0  0  0  0  0  0  0  0  0  0  0
   60.5480   30.0820   46.8820 C   0  0  0  0  0  0  0  0  0  0  0  0
   59.0850   30.2330   46.6660 N   0  0  0  0  0  0  0  0  0  0  0  0
   58.5880   29.7950   45.3200 C   0  0  0  0  0  0  0  0  0  0  0  0
   58.1850   31.0080   44.4340 C   0  0  0  0  0  0  0  0  0  0  0  0
   59.6730   28.9760   44.5790 C   0  0  0  0  0  0  0  0  0  0  0  0
   57.4010   28.8570   45.5290 C   0  0  0  0  0  0  0  0  0  0  0  0
   56.2400   29.2700   45.2580 O   0  0  0  0  0  0  0  0  0  0  0  0
   57.5650   27.5060   46.0000 N   0  0  0  0  0  0  0  0  0  0  0  0
   57.8930   27.2450   47.4040 C   0  0  0  0  0  0  0  0  0  0  0  0
   57.0250   26.4050   45.2070 C   0  0  0  0  0  0  0  0  0  0  0  0
   58.6270   31.5770   47.0690 C   0  0  0  0  0  0  0  0  0  0  0  0
   58.8120   31.7630   48.5880 C   0  0  0  0  0  0  0  0  0  0  0  0
   60.0450   29.8880   52.3040 C   0  0  0  0  0  0  0  0  0  0  0  0
   59.5280   29.8280   53.6000 C   0  0  0  0  0  0  0  0  0  0  0  0
   58.1540   29.6930   53.8050 C   0  0  0  0  0  0  0  0  0  0  0  0
   57.6670   29.6310   55.0690 F   0  0  0  0  0  0  0  0  0  0  0  0
   56.2550   31.9095   51.8004 H   0  0  0  0  0  0  0  0  0  0  0  0
   54.3994   32.3409   51.7794 H   0  0  0  0  0  0  0  0  0  0  0  0
   51.9293   30.9668   53.6135 H   0  0  0  0  0  0  0  0  0  0  0  0
   53.0676   28.0306   53.8317 H   0  0  0  0  0  0  0  0  0  0  0  0
   55.8782   27.1500   54.9748 H   0  0  0  0  0  0  0  0  0  0  0  0
   55.2794   26.3439   53.4855 H   0  0  0  0  0  0  0  0  0  0  0  0
   56.8825   27.1542   53.4855 H   0  0  0  0  0  0  0  0  0  0  0  0
   57.1247   29.5865   50.5478 H   0  0  0  0  0  0  0  0  0  0  0  0
   60.4220   31.7400   49.8440 H   0  0  0  0  0  0  0  0  0  0  0  0
   61.3993   31.8777   47.7371 H   0  0  0  0  0  0  0  0  0  0  0  0
   61.8858   30.3223   48.5475 H   0  0  0  0  0  0  0  0  0  0  0  0
   61.0736   30.4264   45.9791 H   0  0  0  0  0  0  0  0  0  0  0  0
   60.7434   29.0195   47.0889 H   0  0  0  0  0  0  0  0  0  0  0  0
   57.9037   31.8547   45.0775 H   0  0  0  0  0  0  0  0  0  0  0  0
   59.0355   31.2968   43.7989 H   0  0  0  0  0  0  0  0  0  0  0  0
   57.3308   30.7305   43.7989 H   0  0  0  0  0  0  0  0  0  0  0  0
   60.3261   28.4830   45.3141 H   0  0  0  0  0  0  0  0  0  0  0  0
   59.1908   28.2147   43.9482 H   0  0  0  0  0  0  0  0  0  0  0  0
   60.2730   29.6484   43.9482 H   0  0  0  0  0  0  0  0  0  0  0  0
   57.1975   27.7984   48.0520 H   0  0  0  0  0  0  0  0  0  0  0  0
   57.8047   26.1675   47.6070 H   0  0  0  0  0  0  0  0  0  0  0  0
   58.9231   27.5731   47.6070 H   0  0  0  0  0  0  0  0  0  0  0  0
   56.6414   25.6229   45.8788 H   0  0  0  0  0  0  0  0  0  0  0  0
   56.2070   26.7769   44.5725 H   0  0  0  0  0  0  0  0  0  0  0  0
   57.8198   25.9859   44.5725 H   0  0  0  0  0  0  0  0  0  0  0  0
   59.2149   32.3377   46.5345 H   0  0  0  0  0  0  0  0  0  0  0  0
   57.5613   31.6856   46.8189 H   0  0  0  0  0  0  0  0  0  0  0  0
   58.8884   32.8396   48.8001 H   0  0  0  0  0  0  0  0  0  0  0  0
   57.9422   31.3017   49.0786 H   0  0  0  0  0  0  0  0  0  0  0  0
   61.1284   30.0050   52.1536 H   0  0  0  0  0  0  0  0  0  0  0  0
   60.2070   29.8874   54.4634 H   0  0  0  0  0  0  0  0  0  0  0  0
  1  2  2  0
  2  3  1  0
  3  4  2  3
  4  5  1  0
  5  6  1  0
  6  7  1  0
  7  8  2  0
  7  9  1  0
  9 10  1  0
 10 11  1  0
  3 12  1  0
 12 13  2  0
 13 14  1  0
 13 15  1  0
 15 16  1  0
 16 17  2  0
 17 18  1  0
 18 19  1  0
 19 20  2  0
 19 21  1  0
 21 22  1  0
 22 23  1  0
 23 24  1  0
 24 25  1  0
 25 26  1  0
 25 27  1  0
 25 28  1  0
 28 29  2  0
 28 30  1  0
 30 31  1  0
 30 32  1  0
 24 33  1  0
 33 34  1  0
 18 35  2  0
 35 36  1  0
 36 37  2  0
 37 38  1  0
 15  2  1  0
 37 16  1  0
 10  5  2  0
 34 21  1  0
  1 39  1  0
  1 40  1  0
  4 41  1  0
 12 42  1  0
 14 43  1  0
 14 44  1  0
 14 45  1  0
 17 46  1  0
 21 47  1  0
 22 48  1  0
 22 49  1  0
 23 50  1  0
 23 51  1  0
 26 52  1  0
 26 53  1  0
 26 54  1  0
 27 55  1  0
 27 56  1  0
 27 57  1  0
 31 58  1  0
 31 59  1  0
 31 60  1  0
 32 61  1  0
 32 62  1  0
 32 63  1  0
 33 64  1  0
 33 65  1  0
 34 66  1  0
 34 67  1  0
 35 68  1  0
 36 69  1  0
M  CHG  4   6  -1   9  -1  11  -1  21   1
M  END
>  <UniqueID>  (18) 
16

>  <SMILES>  (18) 
C=c1c(=Cc2[n-]c(=O)[n-]c2[O-])cc(C)n1-c1cc(C(=O)[NH+]2CCN(C(C)(C)C(=O)N(C)C)CC2)ccc1F

>  <Energy>  (18) 
169.3399254357228

>  <Genealogy>  (18) 
C=c1c(=Cc2[n-]c(=O)[n-]c2[O-])cc(C)n1-c1cc(C(=O)[NH+]2CCN(C(C)(C)C(=O)N(C)C)CC2)ccc1F (protonated)
C=c1c(=Cc2[n-]c(=O)[n-]c2[O-])cc(C)n1-c1cc(C(=O)[NH+]2CCN(C(C)(C)C(=O)N(C)C)CC2)ccc1F (3D coordinates assigned)
C=c1c(=Cc2[n-]c(=O)[n-]c2[O-])cc(C)n1-c1cc(C(=O)[NH+]2CCN(C(C)(C)C(=O)N(C)C)CC2)ccc1F (nonaromatic ring conformer: 169.3399254357228 kcal/mol)

>  <smiles>  (18) 
C=c1c(=Cc2[nH]c(=O)[nH]c2O)cc(C)n1-c1cc(C(=O)N2CCN(C(C)(C)C(=O)N(C)C)CC2)ccc1F

>  <score_type>  (18) 
oracle

>  <origin>  (18) 
adg

>  <m_score__min__energy>  (18) 
-16.98

>  <m_primary>  (18) 
energy

$$$$
18:0
     RDKit          3D

 50 53  0  0  0  0  0  0  0  0999 V2000
   57.4550   29.9990   43.7240 C   0  0  0  0  0  0  0  0  0  0  0  0
   57.9350   30.2690   44.9450 C   0  0  0  0  0  0  0  0  0  0  0  0
   58.4400   29.3400   45.8620 C   0  0  0  0  0  0  0  0  0  0  0  0
   58.5000   28.0010   45.7200 C   0  0  0  0  0  0  0  0  0  0  0  0
   57.3370   27.1050   45.8650 C   0  0  0  0  0  0  0  0  0  0  0  0
   57.4090   25.8860   46.4300 N   0  0  0  0  0  0  0  0  0  0  0  0
   56.1200   25.4860   46.4780 C   0  0  0  0  0  0  0  0  0  0  0  0
   55.7740   24.3690   46.9420 O   0  0  0  0  0  0  0  0  0  0  0  0
   55.2310   26.3830   46.0030 N   0  0  0  0  0  0  0  0  0  0  0  0
   56.0140   27.4060   45.6290 C   0  0  0  0  0  0  0  0  0  0  0  0
   55.5200   28.6060   45.1320 O   0  0  0  0  0  0  0  0  0  0  0  0
   58.8330   30.0660   46.9750 C   0  0  0  0  0  0  0  0  0  0  0  0
   58.5480   31.3890   46.7070 C   0  0  0  0  0  0  0  0  0  0  0  0
   58.7980   32.4800   47.6760 C   0  0  0  0  0  0  0  0  0  0  0  0
   58.3070   32.3420   48.8310 O   0  0  0  0  0  0  0  0  0  0  0  0
   59.5940   33.6610   47.3550 N   0  0  0  0  0  0  0  0  0  0  0  0
   59.8610   34.5370   48.5230 C   0  0  0  0  0  0  0  0  0  0  0  0
   60.8120   33.8840   49.5380 C   0  0  0  0  0  0  0  0  0  0  0  0
   62.0190   33.4050   48.8610 N   0  0  0  0  0  0  0  0  0  0  0  0
   63.2830   33.3950   49.5490 C   0  0  0  0  0  0  0  0  0  0  0  0
   64.3690   32.6630   49.0400 C   0  0  0  0  0  0  0  0  0  0  0  0
   65.5870   32.6420   49.7240 C   0  0  0  0  0  0  0  0  0  0  0  0
   65.7330   33.3540   50.9180 C   0  0  0  0  0  0  0  0  0  0  0  0
   66.9160   33.3370   51.5790 F   0  0  0  0  0  0  0  0  0  0  0  0
   64.6590   34.0860   51.4290 C   0  0  0  0  0  0  0  0  0  0  0  0
   63.4380   34.1060   50.7510 C   0  0  0  0  0  0  0  0  0  0  0  0
   61.8440   32.6020   47.6470 C   0  0  0  0  0  0  0  0  0  0  0  0
   60.8740   33.3110   46.6910 C   0  0  0  0  0  0  0  0  0  0  0  0
   58.0250   31.5210   45.4650 N   0  0  0  0  0  0  0  0  0  0  0  0
   57.7110   32.7700   44.7620 C   0  0  0  0  0  0  0  0  0  0  0  0
   57.0824   30.8145   43.0868 H   0  0  0  0  0  0  0  0  0  0  0  0
   57.4334   28.9617   43.3585 H   0  0  0  0  0  0  0  0  0  0  0  0
   59.4743   27.5493   45.4818 H   0  0  0  0  0  0  0  0  0  0  0  0
   59.2848   29.6650   47.8943 H   0  0  0  0  0  0  0  0  0  0  0  0
   59.0460   34.2220   46.6620 H   0  0  0  0  0  0  0  0  0  0  0  0
   60.3139   35.4737   48.1661 H   0  0  0  0  0  0  0  0  0  0  0  0
   58.9028   34.7213   49.0308 H   0  0  0  0  0  0  0  0  0  0  0  0
   61.0927   34.6241   50.3018 H   0  0  0  0  0  0  0  0  0  0  0  0
   60.3028   33.0318   50.0118 H   0  0  0  0  0  0  0  0  0  0  0  0
   64.2597   32.1041   48.0989 H   0  0  0  0  0  0  0  0  0  0  0  0
   66.4325   32.0642   49.3223 H   0  0  0  0  0  0  0  0  0  0  0  0
   64.7749   34.6480   52.3675 H   0  0  0  0  0  0  0  0  0  0  0  0
   62.5940   34.6809   51.1599 H   0  0  0  0  0  0  0  0  0  0  0  0
   62.8172   32.4731   47.1508 H   0  0  0  0  0  0  0  0  0  0  0  0
   61.4334   31.6181   47.9179 H   0  0  0  0  0  0  0  0  0  0  0  0
   61.3477   34.2337   46.3246 H   0  0  0  0  0  0  0  0  0  0  0  0
   60.6496   32.6224   45.8630 H   0  0  0  0  0  0  0  0  0  0  0  0
   57.5114   33.5640   45.4966 H   0  0  0  0  0  0  0  0  0  0  0  0
   58.5641   33.0602   44.1312 H   0  0  0  0  0  0  0  0  0  0  0  0
   56.8221   32.6222   44.1312 H   0  0  0  0  0  0  0  0  0  0  0  0
  1  2  2  0
  2  3  1  0
  3  4  2  3
  4  5  1  0
  5  6  1  0
  6  7  1  0
  7  8  2  0
  7  9  1  0
  9 10  1  0
 10 11  1  0
  3 12  1  0
 12 13  2  0
 13 14  1  0
 14 15  2  0
 14 16  1  0
 16 17  1  0
 17 18  1  0
 18 19  1  0
 19 20  1  0
 20 21  2  0
 21 22  1  0
 22 23  2  0
 23 24  1  0
 23 25  1  0
 25 26  2  0
 19 27  1  0
 27 28  1  0
 13 29  1  0
 29 30  1  0
 29  2  1  0
 10  5  2  0
 28 16  1  0
 26 20  1  0
  1 31  1  0
  1 32  1  0
  4 33  1  0
 12 34  1  0
 16 35  1  0
 17 36  1  0
 17 37  1  0
 18 38  1  0
 18 39  1  0
 21 40  1  0
 22 41  1  0
 25 42  1  0
 26 43  1  0
 27 44  1  0
 27 45  1  0
 28 46  1  0
 28 47  1  0
 30 48  1  0
 30 49  1  0
 30 50  1  0
M  CHG  4   6  -1   9  -1  11  -1  16   1
M  END
>  <UniqueID>  (19) 
17

>  <SMILES>  (19) 
C=c1c(=Cc2[n-]c(=O)[n-]c2[O-])cc(C(=O)[NH+]2CCN(c3ccc(F)cc3)CC2)n1C

>  <Energy>  (19) 
135.80156297159638

>  <Genealogy>  (19) 
C=c1c(=Cc2[n-]c(=O)[n-]c2[O-])cc(C(=O)[NH+]2CCN(c3ccc(F)cc3)CC2)n1C (protonated)
C=c1c(=Cc2[n-]c(=O)[n-]c2[O-])cc(C(=O)[NH+]2CCN(c3ccc(F)cc3)CC2)n1C (3D coordinates assigned)
C=c1c(=Cc2[n-]c(=O)[n-]c2[O-])cc(C(=O)[NH+]2CCN(c3ccc(F)cc3)CC2)n1C (nonaromatic ring conformer: 135.80156297159638 kcal/mol)

>  <smiles>  (19) 
C=c1c(=Cc2[nH]c(=O)[nH]c2O)cc(C(=O)N2CCN(c3ccc(F)cc3)CC2)n1C

>  <score_type>  (19) 
oracle

>  <origin>  (19) 
adg

>  <m_score__min__energy>  (19) 
-16.809999999999999

>  <m_primary>  (19) 
energy

$$$$
19:0
     RDKit          3D

 56 59  0  0  0  0  0  0  0  0999 V2000
   56.6710   29.3710   43.8660 C   0  0  0  0  0  0  0  0  0  0  0  0
   57.7320   29.0330   44.6170 C   0  0  0  0  0  0  0  0  0  0  0  0
   58.1950   27.7380   44.9050 C   0  0  0  0  0  0  0  0  0  0  0  0
   57.6340   26.5300   44.6920 C   0  0  0  0  0  0  0  0  0  0  0  0
   57.2230   25.5840   45.7480 C   0  0  0  0  0  0  0  0  0  0  0  0
   55.9620   25.6990   46.3490 C   0  0  0  0  0  0  0  0  0  0  0  0
   55.0910   26.7160   45.9760 O   0  0  0  0  0  0  0  0  0  0  0  0
   55.5850   24.8140   47.3080 N   0  0  0  0  0  0  0  0  0  0  0  0
   56.4040   23.7970   47.6860 C   0  0  0  0  0  0  0  0  0  0  0  0
   56.0340   22.9890   48.5770 O   0  0  0  0  0  0  0  0  0  0  0  0
   57.6190   23.6490   47.0990 N   0  0  0  0  0  0  0  0  0  0  0  0
   58.0420   24.5080   46.1370 C   0  0  0  0  0  0  0  0  0  0  0  0
   59.1660   24.3240   45.5940 O   0  0  0  0  0  0  0  0  0  0  0  0
   59.4200   27.8960   45.5360 C   0  0  0  0  0  0  0  0  0  0  0  0
   59.6290   29.2530   45.6730 C   0  0  0  0  0  0  0  0  0  0  0  0
   60.8040   29.8700   46.3670 C   0  0  0  0  0  0  0  0  0  0  0  0
   58.6100   29.9430   45.1160 N   0  0  0  0  0  0  0  0  0  0  0  0
   58.4420   31.3720   45.1480 C   0  0  0  0  0  0  0  0  0  0  0  0
   57.8030   32.0410   44.0950 C   0  0  0  0  0  0  0  0  0  0  0  0
   57.6540   33.4300   44.1370 C   0  0  0  0  0  0  0  0  0  0  0  0
   58.1320   34.1560   45.2340 C   0  0  0  0  0  0  0  0  0  0  0  0
   58.7610   33.4950   46.3010 C   0  0  0  0  0  0  0  0  0  0  0  0
   59.2730   34.2550   47.4630 C   0  0  0  0  0  0  0  0  0  0  0  0
   59.1190   35.5070   47.5020 O   0  0  0  0  0  0  0  0  0  0  0  0
   59.9710   33.5940   48.5330 N   0  0  0  0  0  0  0  0  0  0  0  0
   61.1680   34.2110   49.1100 C   0  0  0  0  0  0  0  0  0  0  0  0
   62.2090   33.1300   49.4220 C   0  0  0  0  0  0  0  0  0  0  0  0
   61.6160   31.9790   50.1240 N   0  0  0  0  0  0  0  0  0  0  0  0
   62.5000   30.9420   50.6120 C   0  0  0  0  0  0  0  0  0  0  0  0
   62.0260   29.8670   51.5470 C   0  0  0  0  0  0  0  0  0  0  0  0
   63.7060   30.9200   50.2410 O   0  0  0  0  0  0  0  0  0  0  0  0
   60.1690   31.9670   50.4070 C   0  0  0  0  0  0  0  0  0  0  0  0
   59.3750   32.4070   49.1680 C   0  0  0  0  0  0  0  0  0  0  0  0
   58.9330   32.1030   46.2380 C   0  0  0  0  0  0  0  0  0  0  0  0
   56.4161   30.4310   43.7195 H   0  0  0  0  0  0  0  0  0  0  0  0
   56.0569   28.5878   43.3975 H   0  0  0  0  0  0  0  0  0  0  0  0
   57.4696   26.2254   43.6479 H   0  0  0  0  0  0  0  0  0  0  0  0
   60.0959   27.0928   45.8645 H   0  0  0  0  0  0  0  0  0  0  0  0
   60.6662   29.7976   47.4559 H   0  0  0  0  0  0  0  0  0  0  0  0
   61.7220   29.3376   46.0774 H   0  0  0  0  0  0  0  0  0  0  0  0
   60.8869   30.9280   46.0774 H   0  0  0  0  0  0  0  0  0  0  0  0
   57.4187   31.4726   43.2353 H   0  0  0  0  0  0  0  0  0  0  0  0
   57.1597   33.9540   43.3057 H   0  0  0  0  0  0  0  0  0  0  0  0
   58.0143   35.2494   45.2603 H   0  0  0  0  0  0  0  0  0  0  0  0
   61.5910   34.9292   48.3922 H   0  0  0  0  0  0  0  0  0  0  0  0
   60.8961   34.7330   50.0393 H   0  0  0  0  0  0  0  0  0  0  0  0
   62.6518   32.7803   48.4777 H   0  0  0  0  0  0  0  0  0  0  0  0
   62.9718   33.5726   50.0794 H   0  0  0  0  0  0  0  0  0  0  0  0
   62.1708   30.1954   52.5868 H   0  0  0  0  0  0  0  0  0  0  0  0
   60.9582   29.6714   51.3696 H   0  0  0  0  0  0  0  0  0  0  0  0
   62.6018   28.9467   51.3696 H   0  0  0  0  0  0  0  0  0  0  0  0
   59.8639   30.9487   50.6897 H   0  0  0  0  0  0  0  0  0  0  0  0
   59.9615   32.6671   51.2297 H   0  0  0  0  0  0  0  0  0  0  0  0
   59.3629   31.5818   48.4407 H   0  0  0  0  0  0  0  0  0  0  0  0
   58.3548   32.6651   49.4882 H   0  0  0  0  0  0  0  0  0  0  0  0
   59.4580   31.5814   47.0518 H   0  0  0  0  0  0  0  0  0  0  0  0
  1  2  2  0
  2  3  1  0
  3  4  2  3
  4  5  1  0
  5  6  2  0
  6  7  1  0
  6  8  1  0
  8  9  1  0
  9 10  2  0
  9 11  1  0
 11 12  1  0
 12 13  2  0
  3 14  1  0
 14 15  2  0
 15 16  1  0
 15 17  1  0
 17 18  1  0
 18 19  2  0
 19 20  1  0
 20 21  2  0
 21 22  1  0
 22 23  1  0
 23 24  2  0
 23 25  1  0
 25 26  1  0
 26 27  1  0
 27 28  1  0
 28 29  1  0
 29 30  1  0
 29 31  2  0
 28 32  1  0
 32 33  1  0
 22 34  2  0
 17  2  1  0
 34 18  1  0
 12  5  1  0
 33 25  1  0
  1 35  1  0
  1 36  1  0
  4 37  1  0
 14 38  1  0
 16 39  1  0
 16 40  1  0
 16 41  1  0
 19 42  1  0
 20 43  1  0
 21 44  1  0
 26 45  1  0
 26 46  1  0
 27 47  1  0
 27 48  1  0
 30 49  1  0
 30 50  1  0
 30 51  1  0
 32 52  1  0
 32 53  1  0
 33 54  1  0
 33 55  1  0
 34 56  1  0
M  CHG  3   7  -1   8  -1  11  -1
M  END
>  <UniqueID>  (20) 
18

>  <SMILES>  (20) 
C=c1c(=Cc2c([O-])[n-]c(=O)[n-]c2=O)cc(C)n1-c1cccc(C(=O)N2CCN(C(C)=O)CC2)c1

>  <Energy>  (20) 
111.12643716347495

>  <Genealogy>  (20) 
C=c1c(=Cc2c([O-])[n-]c(=O)[n-]c2=O)cc(C)n1-c1cccc(C(=O)N2CCN(C(C)=O)CC2)c1 (protonated)
C=c1c(=Cc2c([O-])[n-]c(=O)[n-]c2=O)cc(C)n1-c1cccc(C(=O)N2CCN(C(C)=O)CC2)c1 (3D coordinates assigned)
C=c1c(=Cc2c([O-])[n-]c(=O)[n-]c2=O)cc(C)n1-c1cccc(C(=O)N2CCN(C(C)=O)CC2)c1 (nonaromatic ring conformer: 111.12643716347495 kcal/mol)

>  <smiles>  (20) 
C=c1c(=Cc2c(O)[nH]c(=O)[nH]c2=O)cc(C)n1-c1cccc(C(=O)N2CCN(C(C)=O)CC2)c1

>  <score_type>  (20) 
oracle

>  <origin>  (20) 
adg

>  <m_score__min__energy>  (20) 
-17.16

>  <m_primary>  (20) 
energy

$$$$
20:0
     RDKit          3D

 62 66  0  0  0  0  0  0  0  0999 V2000
   60.3920   34.9510   46.3750 C   0  0  0  0  0  0  0  0  0  0  0  0
   59.9120   34.1920   47.5700 C   0  0  0  0  0  0  0  0  0  0  0  0
   60.2050   34.5530   48.8340 N   0  0  0  0  0  0  0  0  0  0  0  0
   59.6090   33.6900   49.6420 N   0  0  0  0  0  0  0  0  0  0  0  0
   59.6330   33.7900   51.0950 C   0  0  0  0  0  0  0  0  0  0  0  0
   58.9160   32.7860   48.9280 C   0  0  0  0  0  0  0  0  0  0  0  0
   59.1000   33.0600   47.5860 C   0  0  0  0  0  0  0  0  0  0  0  0
   58.5150   32.3120   46.4500 C   0  0  0  0  0  0  0  0  0  0  0  0
   57.5950   32.9190   45.5790 C   0  0  0  0  0  0  0  0  0  0  0  0
   57.0590   32.2040   44.5070 C   0  0  0  0  0  0  0  0  0  0  0  0
   57.4460   30.8820   44.2820 C   0  0  0  0  0  0  0  0  0  0  0  0
   58.3900   30.2680   45.1190 C   0  0  0  0  0  0  0  0  0  0  0  0
   58.8200   28.8770   44.8520 C   0  0  0  0  0  0  0  0  0  0  0  0
   60.0550   28.6300   44.7820 O   0  0  0  0  0  0  0  0  0  0  0  0
   57.8680   27.7990   44.7010 N   0  0  0  0  0  0  0  0  0  0  0  0
   56.6010   27.7850   45.4520 C   0  0  0  0  0  0  0  0  0  0  0  0
   56.5160   26.5430   46.3690 C   0  0  0  0  0  0  0  0  0  0  0  0
   57.8960   25.8850   46.6150 C   0  0  0  0  0  0  0  0  0  0  0  0
   58.8380   26.7440   47.4410 C   0  0  0  0  0  0  0  0  0  0  0  0
   58.6040   28.0090   47.9530 C   0  0  0  0  0  0  0  0  0  0  0  0
   59.7790   28.3380   48.5940 C   0  0  0  0  0  0  0  0  0  0  0  0
   60.0960   29.6140   49.2590 C   0  0  0  0  0  0  0  0  0  0  0  0
   59.1640   30.2700   49.7970 O   0  0  0  0  0  0  0  0  0  0  0  0
   61.4470   30.0990   49.3260 N   0  0  0  0  0  0  0  0  0  0  0  0
   61.7930   31.3530   49.9890 C   0  0  0  0  0  0  0  0  0  0  0  0
   62.5180   32.2580   49.0380 C   0  0  0  0  0  0  0  0  0  0  0  0
   62.6820   31.9600   47.6760 C   0  0  0  0  0  0  0  0  0  0  0  0
   63.3580   32.9460   46.9710 C   0  0  0  0  0  0  0  0  0  0  0  0
   63.7390   34.1840   48.0420 S   0  0  0  0  0  0  0  0  0  0  0  0
   63.0560   33.4850   49.4090 C   0  0  0  0  0  0  0  0  0  0  0  0
   60.6470   27.3130   48.5010 N   0  0  0  0  0  0  0  0  0  0  0  0
   60.0730   26.3430   47.8040 N   0  0  0  0  0  0  0  0  0  0  0  0
   58.5410   25.4850   45.2590 C   0  0  0  0  0  0  0  0  0  0  0  0
   58.2960   26.5150   44.1350 C   0  0  0  0  0  0  0  0  0  0  0  0
   58.9100   30.9840   46.2100 C   0  0  0  0  0  0  0  0  0  0  0  0
   60.9529   35.8379   46.7049 H   0  0  0  0  0  0  0  0  0  0  0  0
   61.0473   34.3068   45.7704 H   0  0  0  0  0  0  0  0  0  0  0  0
   59.5291   35.2669   45.7704 H   0  0  0  0  0  0  0  0  0  0  0  0
   59.3976   32.8092   51.5340 H   0  0  0  0  0  0  0  0  0  0  0  0
   60.6331   34.1086   51.4241 H   0  0  0  0  0  0  0  0  0  0  0  0
   58.8864   34.5277   51.4241 H   0  0  0  0  0  0  0  0  0  0  0  0
   58.3070   31.9684   49.3411 H   0  0  0  0  0  0  0  0  0  0  0  0
   57.2952   33.9646   45.7430 H   0  0  0  0  0  0  0  0  0  0  0  0
   56.3296   32.6836   43.8376 H   0  0  0  0  0  0  0  0  0  0  0  0
   57.0088   30.3187   43.4444 H   0  0  0  0  0  0  0  0  0  0  0  0
   56.5384   28.6933   46.0693 H   0  0  0  0  0  0  0  0  0  0  0  0
   55.7679   27.7494   44.7346 H   0  0  0  0  0  0  0  0  0  0  0  0
   56.0947   26.8493   47.3378 H   0  0  0  0  0  0  0  0  0  0  0  0
   55.8798   25.8009   45.8645 H   0  0  0  0  0  0  0  0  0  0  0  0
   57.7184   24.9812   47.2164 H   0  0  0  0  0  0  0  0  0  0  0  0
   57.6890   28.6136   47.8676 H   0  0  0  0  0  0  0  0  0  0  0  0
   62.2270   29.5240   48.9380 H   0  0  0  0  0  0  0  0  0  0  0  0
   60.8729   31.8486   50.3323 H   0  0  0  0  0  0  0  0  0  0  0  0
   62.4457   31.1371   50.8477 H   0  0  0  0  0  0  0  0  0  0  0  0
   62.3105   31.0343   47.2123 H   0  0  0  0  0  0  0  0  0  0  0  0
   63.6018   32.9215   45.8986 H   0  0  0  0  0  0  0  0  0  0  0  0
   63.0378   33.9211   50.4187 H   0  0  0  0  0  0  0  0  0  0  0  0
   59.6262   25.3814   45.4063 H   0  0  0  0  0  0  0  0  0  0  0  0
   58.0720   24.5417   44.9424 H   0  0  0  0  0  0  0  0  0  0  0  0
   59.2274   26.6613   43.5684 H   0  0  0  0  0  0  0  0  0  0  0  0
   57.5047   26.1366   43.4712 H   0  0  0  0  0  0  0  0  0  0  0  0
   59.6334   30.5010   46.8833 H   0  0  0  0  0  0  0  0  0  0  0  0
  1  2  1  0
  2  3  2  0
  3  4  1  0
  4  5  1  0
  4  6  1  0
  6  7  2  0
  7  8  1  0
  8  9  2  0
  9 10  1  0
 10 11  2  0
 11 12  1  0
 12 13  1  0
 13 14  2  0
 13 15  1  0
 15 16  1  0
 16 17  1  0
 17 18  1  0
 18 19  1  0
 19 20  1  0
 20 21  2  0
 21 22  1  0
 22 23  2  0
 22 24  1  0
 24 25  1  0
 25 26  1  0
 26 27  1  0
 27 28  2  0
 28 29  1  0
 29 30  1  0
 21 31  1  0
 31 32  1  0
 18 33  1  0
 33 34  1  0
 12 35  2  0
  7  2  1  0
 35  8  1  0
 34 15  1  0
 32 19  2  0
 30 26  2  0
  1 36  1  0
  1 37  1  0
  1 38  1  0
  5 39  1  0
  5 40  1  0
  5 41  1  0
  6 42  1  0
  9 43  1  0
 10 44  1  0
 11 45  1  0
 16 46  1  0
 16 47  1  0
 17 48  1  0
 17 49  1  0
 18 50  1  0
 20 51  1  0
 24 52  1  0
 25 53  1  0
 25 54  1  0
 27 55  1  0
 28 56  1  0
 30 57  1  0
 33 58  1  0
 33 59  1  0
 34 60  1  0
 34 61  1  0
 35 62  1  0
M  CHG  1  31  -1
M  END
>  <UniqueID>  (21) 
19

>  <SMILES>  (21) 
Cc1nn(C)cc1-c1cccc(C(=O)N2CCC(c3cc(C(=O)NCc4ccsc4)[n-]n3)CC2)c1

>  <Energy>  (21) 
158.8282830402584

>  <Genealogy>  (21) 
Cc1nn(C)cc1-c1cccc(C(=O)N2CCC(c3cc(C(=O)NCc4ccsc4)[n-]n3)CC2)c1 (protonated)
Cc1nn(C)cc1-c1cccc(C(=O)N2CCC(c3cc(C(=O)NCc4ccsc4)[n-]n3)CC2)c1 (3D coordinates assigned)
Cc1nn(C)cc1-c1cccc(C(=O)N2CCC(c3cc(C(=O)NCc4ccsc4)[n-]n3)CC2)c1 (nonaromatic ring conformer: 158.8282830402584 kcal/mol)

>  <smiles>  (21) 
Cc1nn(C)cc1-c1cccc(C(=O)N2CCC(c3cc(C(=O)NCc4ccsc4)[nH]n3)CC2)c1

>  <score_type>  (21) 
oracle

>  <origin>  (21) 
adg

>  <m_score__min__energy>  (21) 
-10.99

>  <m_primary>  (21) 
energy

$$$$
21:0
     RDKit          3D

 37 39  0  0  0  0  0  0  0  0999 V2000
   59.6540   28.1380   54.9180 H   0  0  0  0  0  0  0  0  0  0  0  0
   59.8650   27.9770   53.9400 O   0  0  0  0  0  0  0  0  0  0  0  0
   59.1310   28.6120   52.9460 C   0  0  0  0  0  0  0  0  0  0  0  0
   59.6780   29.2180   51.8790 N   0  0  0  0  0  0  0  0  0  0  0  0
   58.5970   29.6640   51.2040 C   0  0  0  0  0  0  0  0  0  0  0  0
   58.6870   30.2950   50.1200 O   0  0  0  0  0  0  0  0  0  0  0  0
   57.4100   29.3730   51.7800 N   0  0  0  0  0  0  0  0  0  0  0  0
   57.7610   28.7120   52.8980 C   0  0  0  0  0  0  0  0  0  0  0  0
   56.7850   28.1220   53.8720 C   0  0  0  0  0  0  0  0  0  0  0  0
   57.0051   28.5066   54.8788 H   0  0  0  0  0  0  0  0  0  0  0  0
   56.8844   27.0268   53.8463 H   0  0  0  0  0  0  0  0  0  0  0  0
   55.3640   28.4840   53.5050 C   0  0  0  0  0  0  0  0  0  0  0  0
   54.4690   27.4650   53.4350 N   0  0  0  0  0  0  0  0  0  0  0  0
   53.1640   27.6510   53.1260 C   0  0  0  0  0  0  0  0  0  0  0  0
   52.2300   26.4760   53.1290 C   0  0  0  0  0  0  0  0  0  0  0  0
   52.7260   25.6196   52.6487 H   0  0  0  0  0  0  0  0  0  0  0  0
   51.9713   26.2334   54.1703 H   0  0  0  0  0  0  0  0  0  0  0  0
   50.9490   26.8020   52.3700 C   0  0  0  0  0  0  0  0  0  0  0  0
   50.1404   27.0078   53.0868 H   0  0  0  0  0  0  0  0  0  0  0  0
   51.1126   27.6871   51.7377 H   0  0  0  0  0  0  0  0  0  0  0  0
   50.6696   25.9463   51.7377 H   0  0  0  0  0  0  0  0  0  0  0  0
   52.7040   28.9300   52.8130 C   0  0  0  0  0  0  0  0  0  0  0  0
   51.6372   29.0898   52.5977 H   0  0  0  0  0  0  0  0  0  0  0  0
   53.5970   30.0180   52.7710 C   0  0  0  0  0  0  0  0  0  0  0  0
   53.1260   31.1710   52.2300 C   0  0  0  0  0  0  0  0  0  0  0  0
   53.4005   32.1098   52.7333 H   0  0  0  0  0  0  0  0  0  0  0  0
   52.2780   31.2760   51.0260 C   0  0  0  0  0  0  0  0  0  0  0  0
   52.2320   30.3670   50.0330 N   0  0  0  0  0  0  0  0  0  0  0  0
   51.2500   30.8300   49.2310 C   0  0  0  0  0  0  0  0  0  0  0  0
   50.9120   30.2470   48.1690 O   0  0  0  0  0  0  0  0  0  0  0  0
   50.6530   31.9620   49.6610 N   0  0  0  0  0  0  0  0  0  0  0  0
   51.3080   32.2230   50.8040 C   0  0  0  0  0  0  0  0  0  0  0  0
   51.0240   33.3040   51.6290 O   0  0  0  0  0  0  0  0  0  0  0  0
   54.9300   29.8210   53.2610 C   0  0  0  0  0  0  0  0  0  0  0  0
   55.7140   30.8580   53.6220 C   0  0  0  0  0  0  0  0  0  0  0  0
   55.3818   31.8898   53.4350 H   0  0  0  0  0  0  0  0  0  0  0  0
   56.6854   30.6716   54.1033 H   0  0  0  0  0  0  0  0  0  0  0  0
  1  2  1  0
  2  3  1  0
  3  4  1  0
  4  5  1  0
  5  6  2  0
  5  7  1  0
  7  8  1  0
  8  9  1  0
  9 10  1  0
  9 11  1  0
  9 12  1  0
 12 13  2  0
 13 14  1  0
 14 15  1  0
 15 16  1  0
 15 17  1  0
 15 18  1  0
 18 19  1  0
 18 20  1  0
 18 21  1  0
 14 22  2  0
 22 23  1  0
 22 24  1  0
 24 25  2  0
 25 26  1  0
 25 27  1  0
 27 28  1  0
 28 29  1  0
 29 30  2  0
 29 31  1  0
 31 32  1  0
 32 33  1  0
 24 34  1  0
 34 35  2  0
 35 36  1  0
 35 37  1  0
  8  3  2  0
 34 12  1  0
 32 27  2  0
M  CHG  5   4  -1   7  -1  28  -1  31  -1  33  -1
M  END
>  <UniqueID>  (22) 
20

>  <SMILES>  (22) 
C=c1c(Cc2[n-]c(=O)[n-]c2O)nc(CC)c/c1=C/c1[n-]c(=O)[n-]c1[O-]

>  <Energy>  (22) 
116.0292879937195

>  <Genealogy>  (22) 
C=c1c(Cc2[n-]c(=O)[n-]c2O)nc(CC)cc1=Cc1[n-]c(=O)[n-]c1[O-] (protonated)
C=c1c(Cc2[n-]c(=O)[n-]c2O)nc(CC)c/c1=C/c1[n-]c(=O)[n-]c1[O-] (cis-trans isomerization)
C=c1c(Cc2[n-]c(=O)[n-]c2O)nc(CC)c/c1=C/c1[n-]c(=O)[n-]c1[O-] (3D coordinates assigned)
C=c1c(Cc2[n-]c(=O)[n-]c2O)nc(CC)c/c1=C/c1[n-]c(=O)[n-]c1[O-] (optimized conformer: 116.0292879937195 kcal/mol)

>  <smiles>  (22) 
C=c1c(Cc2[nH]c(=O)[nH]c2O)nc(CC)cc1=Cc1[nH]c(=O)[nH]c1O

>  <score_type>  (22) 
oracle

>  <origin>  (22) 
adg

>  <m_score__min__energy>  (22) 
-16.969999999999999

>  <m_primary>  (22) 
energy

$$$$
22:0
     RDKit          3D

 49 51  0  0  0  0  0  0  0  0999 V2000
   57.3550   25.8010   47.4390 C   0  0  0  0  0  0  0  0  0  0  0  0
   57.8360   26.1940   46.2490 C   0  0  0  0  0  0  0  0  0  0  0  0
   57.5050   25.6830   44.9830 C   0  0  0  0  0  0  0  0  0  0  0  0
   56.7660   24.6150   44.6220 C   0  0  0  0  0  0  0  0  0  0  0  0
   55.3890   24.3350   45.0550 C   0  0  0  0  0  0  0  0  0  0  0  0
   54.7210   23.1950   44.7980 N   0  0  0  0  0  0  0  0  0  0  0  0
   53.4800   23.4500   45.2640 C   0  0  0  0  0  0  0  0  0  0  0  0
   52.5510   22.6020   45.2190 O   0  0  0  0  0  0  0  0  0  0  0  0
   53.3080   24.6890   45.7740 N   0  0  0  0  0  0  0  0  0  0  0  0
   54.5220   25.2390   45.6190 C   0  0  0  0  0  0  0  0  0  0  0  0
   54.8330   26.5430   45.9840 O   0  0  0  0  0  0  0  0  0  0  0  0
   58.1060   26.5240   44.0590 C   0  0  0  0  0  0  0  0  0  0  0  0
   58.8180   27.4650   44.7740 C   0  0  0  0  0  0  0  0  0  0  0  0
   59.5800   28.6050   44.1710 C   0  0  0  0  0  0  0  0  0  0  0  0
   58.6510   27.2680   46.0990 N   0  0  0  0  0  0  0  0  0  0  0  0
   59.1250   28.1500   47.1340 C   0  0  0  0  0  0  0  0  0  0  0  0
   60.0030   27.6570   48.1120 C   0  0  0  0  0  0  0  0  0  0  0  0
   60.4240   26.3690   48.0640 F   0  0  0  0  0  0  0  0  0  0  0  0
   60.4380   28.4880   49.1480 C   0  0  0  0  0  0  0  0  0  0  0  0
   59.9980   29.8110   49.2170 C   0  0  0  0  0  0  0  0  0  0  0  0
   59.1260   30.3130   48.2490 C   0  0  0  0  0  0  0  0  0  0  0  0
   58.6830   29.4910   47.2010 C   0  0  0  0  0  0  0  0  0  0  0  0
   57.7790   30.0410   46.1720 C   0  0  0  0  0  0  0  0  0  0  0  0
   56.7150   29.4270   45.8980 O   0  0  0  0  0  0  0  0  0  0  0  0
   58.0540   31.2770   45.5030 N   0  0  0  0  0  0  0  0  0  0  0  0
   57.0740   32.3250   45.2300 C   0  0  0  0  0  0  0  0  0  0  0  0
   57.7170   33.6920   45.4280 C   0  0  0  0  0  0  0  0  0  0  0  0
   59.1620   33.5740   45.2440 N   0  0  0  0  0  0  0  0  0  0  0  0
   59.9960   34.5670   46.3960 S   0  0  0  0  0  0  0  0  0  0  0  0
   59.3080   34.2650   48.0080 C   0  0  0  0  0  0  0  0  0  0  0  0
   61.4590   34.2250   46.4080 O   0  0  0  0  0  0  0  0  0  0  0  0
   59.8210   36.0190   46.0460 O   0  0  0  0  0  0  0  0  0  0  0  0
   57.7020   26.2900   48.3612 H   0  0  0  0  0  0  0  0  0  0  0  0
   56.6138   24.9899   47.4920 H   0  0  0  0  0  0  0  0  0  0  0  0
   57.2350   23.8879   43.9427 H   0  0  0  0  0  0  0  0  0  0  0  0
   58.0297   26.4543   42.9639 H   0  0  0  0  0  0  0  0  0  0  0  0
   59.9985   29.2311   44.9728 H   0  0  0  0  0  0  0  0  0  0  0  0
   60.3972   28.2114   43.5487 H   0  0  0  0  0  0  0  0  0  0  0  0
   58.9038   29.2096   43.5487 H   0  0  0  0  0  0  0  0  0  0  0  0
   61.1285   28.0988   49.9107 H   0  0  0  0  0  0  0  0  0  0  0  0
   60.3394   30.4602   50.0367 H   0  0  0  0  0  0  0  0  0  0  0  0
   58.7847   31.3571   48.3079 H   0  0  0  0  0  0  0  0  0  0  0  0
   56.7204   32.2339   44.1924 H   0  0  0  0  0  0  0  0  0  0  0  0
   56.2241   32.2183   45.9201 H   0  0  0  0  0  0  0  0  0  0  0  0
   57.3090   34.4006   44.6922 H   0  0  0  0  0  0  0  0  0  0  0  0
   57.5021   34.0582   46.4427 H   0  0  0  0  0  0  0  0  0  0  0  0
   60.0269   34.5806   48.7785 H   0  0  0  0  0  0  0  0  0  0  0  0
   58.3748   34.8362   48.1213 H   0  0  0  0  0  0  0  0  0  0  0  0
   59.0968   33.1914   48.1213 H   0  0  0  0  0  0  0  0  0  0  0  0
  1  2  2  0
  2  3  1  0
  3  4  2  3
  4  5  1  0
  5  6  1  0
  6  7  1  0
  7  8  2  0
  7  9  1  0
  9 10  1  0
 10 11  1  0
  3 12  1  0
 12 13  2  0
 13 14  1  0
 13 15  1  0
 15 16  1  0
 16 17  2  0
 17 18  1  0
 17 19  1  0
 19 20  2  0
 20 21  1  0
 21 22  2  0
 22 23  1  0
 23 24  2  0
 23 25  1  0
 25 26  1  0
 26 27  1  0
 27 28  1  0
 28 29  1  0
 29 30  1  0
 29 31  2  0
 29 32  2  0
 15  2  1  0
 22 16  1  0
 10  5  2  0
  1 33  1  0
  1 34  1  0
  4 35  1  0
 12 36  1  0
 14 37  1  0
 14 38  1  0
 14 39  1  0
 19 40  1  0
 20 41  1  0
 21 42  1  0
 26 43  1  0
 26 44  1  0
 27 45  1  0
 27 46  1  0
 30 47  1  0
 30 48  1  0
 30 49  1  0
M  CHG  5   6  -1   9  -1  11  -1  25  -1  28  -1
M  END
>  <UniqueID>  (23) 
21

>  <SMILES>  (23) 
C=c1c(=Cc2[n-]c(=O)[n-]c2[O-])cc(C)n1-c1c(F)cccc1C(=O)[N-]CC[N-]S(C)(=O)=O

>  <Energy>  (23) 
119.54838028920682

>  <Genealogy>  (23) 
C=c1c(=Cc2[n-]c(=O)[n-]c2[O-])cc(C)n1-c1c(F)cccc1C(=O)[N-]CC[N-]S(C)(=O)=O (protonated)
C=c1c(=Cc2[n-]c(=O)[n-]c2[O-])cc(C)n1-c1c(F)cccc1C(=O)[N-]CC[N-]S(C)(=O)=O (3D coordinates assigned)
C=c1c(=Cc2[n-]c(=O)[n-]c2[O-])cc(C)n1-c1c(F)cccc1C(=O)[N-]CC[N-]S(C)(=O)=O (optimized conformer: 119.54838028920682 kcal/mol)

>  <smiles>  (23) 
C=c1c(=Cc2[nH]c(=O)[nH]c2O)cc(C)n1-c1c(F)cccc1C(=O)NCCNS(C)(=O)=O

>  <score_type>  (23) 
oracle

>  <origin>  (23) 
adg

>  <m_score__min__energy>  (23) 
-17.690000000000001

>  <m_primary>  (23) 
energy

$$$$
23:0
     RDKit          3D

 63 68  0  0  0  0  0  0  0  0999 V2000
   54.8992   24.1610   42.7678 H   0  0  0  0  0  0  0  0  0  0  0  0
   55.3260   23.5410   43.5700 C   0  0  0  0  0  0  0  0  0  0  0  0
   56.1270   22.4720   43.3830 N   0  0  0  0  0  0  0  0  0  0  0  0
   56.3820   22.0220   44.6300 C   0  0  0  0  0  0  0  0  0  0  0  0
   57.0193   21.1516   44.8453 H   0  0  0  0  0  0  0  0  0  0  0  0
   55.7700   22.7560   45.5850 N   0  0  0  0  0  0  0  0  0  0  0  0
   55.8110   22.4770   47.0220 C   0  0  0  0  0  0  0  0  0  0  0  0
   55.6733   23.4140   47.5815 H   0  0  0  0  0  0  0  0  0  0  0  0
   55.0066   21.7731   47.2820 H   0  0  0  0  0  0  0  0  0  0  0  0
   56.7838   22.0343   47.2820 H   0  0  0  0  0  0  0  0  0  0  0  0
   55.1230   23.7390   44.9220 C   0  0  0  0  0  0  0  0  0  0  0  0
   54.2760   24.8080   45.5050 C   0  0  0  0  0  0  0  0  0  0  0  0
   53.0430   24.5930   45.6440 O   0  0  0  0  0  0  0  0  0  0  0  0
   54.8050   26.0680   45.9410 N   0  0  0  0  0  0  0  0  0  0  0  0
   56.1880   26.3780   46.1460 C   0  0  0  0  0  0  0  0  0  0  0  0
   56.7020   27.5650   45.6070 C   0  0  0  0  0  0  0  0  0  0  0  0
   56.0689   28.1926   44.9626 H   0  0  0  0  0  0  0  0  0  0  0  0
   58.0140   27.9550   45.8840 C   0  0  0  0  0  0  0  0  0  0  0  0
   58.4009   28.9027   45.4814 H   0  0  0  0  0  0  0  0  0  0  0  0
   58.8410   27.1410   46.6750 C   0  0  0  0  0  0  0  0  0  0  0  0
   60.1790   27.6540   47.1290 C   0  0  0  0  0  0  0  0  0  0  0  0
   60.8127   26.8087   47.4354 H   0  0  0  0  0  0  0  0  0  0  0  0
   60.6676   28.1936   46.3043 H   0  0  0  0  0  0  0  0  0  0  0  0
   58.0820   32.5970   47.0350 N   0  0  0  0  0  0  0  0  0  0  0  0
   59.0590   31.9150   47.5510 C   0  0  0  0  0  0  0  0  0  0  0  0
   61.0970   30.5210   48.6860 N   0  0  0  0  0  0  0  0  0  0  0  0
   61.1680   31.8790   48.6110 C   0  0  0  0  0  0  0  0  0  0  0  0
   62.3250   32.5840   49.1100 N   0  0  0  0  0  0  0  0  0  0  0  0
   63.6270   31.8930   49.1390 C   0  0  0  0  0  0  0  0  0  0  0  0
   64.0194   31.8434   48.1126 H   0  0  0  0  0  0  0  0  0  0  0  0
   63.4570   30.8932   49.5651 H   0  0  0  0  0  0  0  0  0  0  0  0
   64.6490   32.5850   50.0110 C   0  0  0  0  0  0  0  0  0  0  0  0
   65.9300   32.0200   50.1280 C   0  0  0  0  0  0  0  0  0  0  0  0
   66.1754   31.1031   49.5721 H   0  0  0  0  0  0  0  0  0  0  0  0
   66.8950   32.6150   50.9460 C   0  0  0  0  0  0  0  0  0  0  0  0
   67.8931   32.1617   51.0374 H   0  0  0  0  0  0  0  0  0  0  0  0
   66.5930   33.7840   51.6470 C   0  0  0  0  0  0  0  0  0  0  0  0
   67.3551   34.2522   52.2873 H   0  0  0  0  0  0  0  0  0  0  0  0
   65.3240   34.3610   51.5370 C   0  0  0  0  0  0  0  0  0  0  0  0
   65.0880   35.2773   52.0979 H   0  0  0  0  0  0  0  0  0  0  0  0
   64.3490   33.7740   50.7120 C   0  0  0  0  0  0  0  0  0  0  0  0
   62.9700   34.3680   50.6600 C   0  0  0  0  0  0  0  0  0  0  0  0
   63.0449   35.4609   50.7595 H   0  0  0  0  0  0  0  0  0  0  0  0
   62.3751   33.9464   51.4836 H   0  0  0  0  0  0  0  0  0  0  0  0
   62.2810   34.0330   49.3410 C   0  0  0  0  0  0  0  0  0  0  0  0
   62.7968   34.5496   48.5182 H   0  0  0  0  0  0  0  0  0  0  0  0
   61.2322   34.3616   49.3858 H   0  0  0  0  0  0  0  0  0  0  0  0
   60.1380   32.5680   48.0480 N   0  0  0  0  0  0  0  0  0  0  0  0
   60.0240   29.8570   48.1910 C   0  0  0  0  0  0  0  0  0  0  0  0
   59.9870   28.5580   48.2630 N   0  0  0  0  0  0  0  0  0  0  0  0
   58.2070   33.9880   46.6040 C   0  0  0  0  0  0  0  0  0  0  0  0
   58.0271   34.4612   47.5806 H   0  0  0  0  0  0  0  0  0  0  0  0
   59.2120   34.1850   45.4800 C   0  0  0  0  0  0  0  0  0  0  0  0
   59.8062   35.1093   45.4286 H   0  0  0  0  0  0  0  0  0  0  0  0
   60.0682   33.6137   45.0919 H   0  0  0  0  0  0  0  0  0  0  0  0
   57.7190   34.2220   45.1860 C   0  0  0  0  0  0  0  0  0  0  0  0
   57.2341   35.1732   44.9212 H   0  0  0  0  0  0  0  0  0  0  0  0
   57.0488   33.6882   44.4962 H   0  0  0  0  0  0  0  0  0  0  0  0
   59.0090   30.5570   47.6180 N   0  0  0  0  0  0  0  0  0  0  0  0
   58.3490   25.9140   47.1510 C   0  0  0  0  0  0  0  0  0  0  0  0
   59.0057   25.2493   47.7315 H   0  0  0  0  0  0  0  0  0  0  0  0
   57.0310   25.5340   46.8910 C   0  0  0  0  0  0  0  0  0  0  0  0
   56.6514   24.5734   47.2693 H   0  0  0  0  0  0  0  0  0  0  0  0
  1  2  1  0
  2  3  1  0
  3  4  2  0
  4  5  1  0
  4  6  1  0
  6  7  1  0
  7  8  1  0
  7  9  1  0
  7 10  1  0
  6 11  1  0
 11 12  1  0
 12 13  2  0
 12 14  1  0
 14 15  1  0
 15 16  2  0
 16 17  1  0
 16 18  1  0
 18 19  1  0
 18 20  2  0
 20 21  1  0
 21 22  1  0
 21 23  1  0
 21 24  1  0
 24 25  2  0
 25 26  1  0
 26 27  1  0
 27 28  1  0
 28 29  1  0
 29 30  1  0
 29 31  1  0
 29 32  1  0
 32 33  2  0
 33 34  1  0
 33 35  1  0
 35 36  1  0
 35 37  2  0
 37 38  1  0
 37 39  1  0
 39 40  1  0
 39 41  2  0
 41 42  1  0
 42 43  1  0
 42 44  1  0
 42 45  1  0
 45 46  1  0
 45 47  1  0
 27 48  2  0
 48 49  1  0
 49 50  2  0
 50 51  1  0
 51 52  1  0
 51 53  1  0
 53 54  1  0
 53 55  1  0
 53 56  1  0
 56 57  1  0
 56 58  1  0
 49 59  1  0
 20 60  1  0
 60 61  1  0
 60 62  2  0
 62 63  1  0
 11  2  2  0
 62 15  1  0
 59 25  1  0
 45 28  1  0
 56 51  1  0
 41 32  1  0
M  CHG  3  14  -1  26  -1  59  -1
M  END
>  <UniqueID>  (24) 
22

>  <SMILES>  (24) 
Cn1cncc1C(=O)[N-]c1ccc(C/N=c2/[n-]c(N3CCc4ccccc4C3)n/c(=N/C3CC3)[n-]2)cc1

>  <Energy>  (24) 
371.45732168441884

>  <Genealogy>  (24) 
Cn1cncc1C(=O)[N-]c1ccc(CN=c2[n-]c(N3CCc4ccccc4C3)nc(=NC3CC3)[n-]2)cc1 (protonated)
Cn1cncc1C(=O)[N-]c1ccc(C/N=c2/[n-]c(N3CCc4ccccc4C3)n/c(=N/C3CC3)[n-]2)cc1 (cis-trans isomerization)
Cn1cncc1C(=O)[N-]c1ccc(C/N=c2/[n-]c(N3CCc4ccccc4C3)n/c(=N/C3CC3)[n-]2)cc1 (3D coordinates assigned)
Cn1cncc1C(=O)[N-]c1ccc(C/N=c2/[n-]c(N3CCc4ccccc4C3)n/c(=N/C3CC3)[n-]2)cc1 (nonaromatic ring conformer: 371.45732168441884 kcal/mol)

>  <smiles>  (24) 
Cn1cncc1C(=O)Nc1ccc(CN=c2[nH]c(N3CCc4ccccc4C3)nc(=NC3CC3)[nH]2)cc1

>  <score_type>  (24) 
oracle

>  <origin>  (24) 
adg

>  <m_score__min__energy>  (24) 
-13.07

>  <m_primary>  (24) 
energy

$$$$
24:0
     RDKit          3D

 65 69  0  0  0  0  0  0  0  0999 V2000
   54.0380   26.3340   46.3710 H   0  0  0  0  0  0  0  0  0  0  0  0
   54.9990   26.5250   46.1110 O   0  0  0  0  0  0  0  0  0  0  0  0
   56.0330   25.6480   46.4290 C   0  0  0  0  0  0  0  0  0  0  0  0
   55.8370   24.4800   47.0620 N   0  0  0  0  0  0  0  0  0  0  0  0
   57.0850   23.9790   47.1610 C   0  0  0  0  0  0  0  0  0  0  0  0
   57.3300   22.8690   47.7000 O   0  0  0  0  0  0  0  0  0  0  0  0
   58.0500   24.7580   46.6310 N   0  0  0  0  0  0  0  0  0  0  0  0
   57.3760   25.8220   46.1540 C   0  0  0  0  0  0  0  0  0  0  0  0
   57.9950   27.0140   45.5370 C   0  0  0  0  0  0  0  0  0  0  0  0
   58.3051   26.9393   44.4843 H   0  0  0  0  0  0  0  0  0  0  0  0
   58.2080   28.1870   46.1690 C   0  0  0  0  0  0  0  0  0  0  0  0
   58.3560   28.3850   47.5390 C   0  0  0  0  0  0  0  0  0  0  0  0
   58.3125   27.6137   48.3221 H   0  0  0  0  0  0  0  0  0  0  0  0
   58.5680   29.7370   47.7250 C   0  0  0  0  0  0  0  0  0  0  0  0
   58.9040   30.3700   49.0410 C   0  0  0  0  0  0  0  0  0  0  0  0
   58.5592   29.7204   49.8590 H   0  0  0  0  0  0  0  0  0  0  0  0
   59.9930   30.5060   49.1150 H   0  0  0  0  0  0  0  0  0  0  0  0
   58.4064   31.3482   49.1150 H   0  0  0  0  0  0  0  0  0  0  0  0
   58.5610   30.3800   46.5380 N   0  0  0  0  0  0  0  0  0  0  0  0
   58.7610   31.7910   46.3440 C   0  0  0  0  0  0  0  0  0  0  0  0
   57.6880   32.5740   45.8950 C   0  0  0  0  0  0  0  0  0  0  0  0
   56.7160   32.1025   45.6882 H   0  0  0  0  0  0  0  0  0  0  0  0
   57.8460   33.9480   45.7090 C   0  0  0  0  0  0  0  0  0  0  0  0
   56.9976   34.5569   45.3634 H   0  0  0  0  0  0  0  0  0  0  0  0
   59.0790   34.5500   45.9610 C   0  0  0  0  0  0  0  0  0  0  0  0
   59.2033   35.6321   45.8074 H   0  0  0  0  0  0  0  0  0  0  0  0
   60.1560   33.7810   46.4080 C   0  0  0  0  0  0  0  0  0  0  0  0
   61.1291   34.2603   46.5904 H   0  0  0  0  0  0  0  0  0  0  0  0
   60.0080   32.4000   46.6270 C   0  0  0  0  0  0  0  0  0  0  0  0
   61.1770   31.6050   47.0680 C   0  0  0  0  0  0  0  0  0  0  0  0
   61.2800   30.4110   46.6810 O   0  0  0  0  0  0  0  0  0  0  0  0
   62.2250   32.1750   47.8840 N   0  0  0  0  0  0  0  0  0  0  0  0
   63.5240   32.6100   47.3850 C   0  0  1  0  0  0  0  0  0  0  0  0
   63.9480   31.9166   46.6438 H   0  0  0  0  0  0  0  0  0  0  0  0
   63.3900   33.9610   46.6810 C   0  0  0  0  0  0  0  0  0  0  0  0
   63.3108   34.7600   47.4329 H   0  0  0  0  0  0  0  0  0  0  0  0
   64.2752   34.1360   46.0519 H   0  0  0  0  0  0  0  0  0  0  0  0
   62.4877   33.9587   46.0519 H   0  0  0  0  0  0  0  0  0  0  0  0
   64.4160   32.7060   48.6260 C   0  0  0  0  0  0  0  0  0  0  0  0
   65.0246   31.7959   48.7321 H   0  0  0  0  0  0  0  0  0  0  0  0
   65.1128   33.5546   48.5602 H   0  0  0  0  0  0  0  0  0  0  0  0
   63.4640   32.8500   49.8090 C   0  0  0  0  0  0  0  0  0  0  0  0
   63.8386   32.2821   50.6734 H   0  0  0  0  0  0  0  0  0  0  0  0
   63.3690   33.8988   50.1268 H   0  0  0  0  0  0  0  0  0  0  0  0
   62.1220   32.2800   49.3370 C   0  0  1  0  0  0  0  0  0  0  0  0
   61.9149   31.3002   49.7920 H   0  0  0  0  0  0  0  0  0  0  0  0
   60.9770   33.1780   49.7480 C   0  0  0  0  0  0  0  0  0  0  0  0
   60.8180   34.2800   49.1530 O   0  0  0  0  0  0  0  0  0  0  0  0
   60.0980   32.8270   50.8310 N   0  0  0  0  0  0  0  0  0  0  0  0
   58.9450   33.6300   51.2010 C   0  0  0  0  0  0  0  0  0  0  0  0
   59.2672   34.6001   51.6072 H   0  0  0  0  0  0  0  0  0  0  0  0
   58.3016   33.8418   50.3343 H   0  0  0  0  0  0  0  0  0  0  0  0
   58.2100   32.8260   52.2650 C   0  0  0  0  0  0  0  0  0  0  0  0
   57.8821   33.4832   53.0839 H   0  0  0  0  0  0  0  0  0  0  0  0
   57.3094   32.3427   51.8584 H   0  0  0  0  0  0  0  0  0  0  0  0
   59.2170   31.8000   52.7770 C   0  0  0  0  0  0  0  0  0  0  0  0
   59.6881   32.1559   53.7051 H   0  0  0  0  0  0  0  0  0  0  0  0
   58.7342   30.8386   53.0066 H   0  0  0  0  0  0  0  0  0  0  0  0
   60.2590   31.6550   51.6750 C   0  0  0  0  0  0  0  0  0  0  0  0
   61.2713   31.6268   52.1045 H   0  0  0  0  0  0  0  0  0  0  0  0
   60.1253   30.7222   51.1075 H   0  0  0  0  0  0  0  0  0  0  0  0
   58.3670   29.4460   45.5760 C   0  0  0  0  0  0  0  0  0  0  0  0
   58.3610   29.7200   44.2620 C   0  0  0  0  0  0  0  0  0  0  0  0
   58.4966   30.7551   43.9154 H   0  0  0  0  0  0  0  0  0  0  0  0
   58.2205   28.9094   43.5318 H   0  0  0  0  0  0  0  0  0  0  0  0
  1  2  1  0
  2  3  1  0
  3  4  1  0
  4  5  1  0
  5  6  2  0
  5  7  1  0
  7  8  1  0
  8  9  1  0
  9 10  1  0
  9 11  2  0
 11 12  1  0
 12 13  1  0
 12 14  2  0
 14 15  1  0
 15 16  1  0
 15 17  1  0
 15 18  1  0
 14 19  1  0
 19 20  1  0
 20 21  2  0
 21 22  1  0
 21 23  1  0
 23 24  1  0
 23 25  2  0
 25 26  1  0
 25 27  1  0
 27 28  1  0
 27 29  2  0
 29 30  1  0
 30 31  2  0
 30 32  1  0
 32 33  1  0
 33 34  1  6
 33 35  1  0
 35 36  1  0
 35 37  1  0
 35 38  1  0
 33 39  1  0
 39 40  1  0
 39 41  1  0
 39 42  1  0
 42 43  1  0
 42 44  1  0
 42 45  1  0
 45 46  1  1
 45 47  1  0
 47 48  2  0
 47 49  1  0
 49 50  1  0
 50 51  1  0
 50 52  1  0
 50 53  1  0
 53 54  1  0
 53 55  1  0
 53 56  1  0
 56 57  1  0
 56 58  1  0
 56 59  1  0
 59 60  1  0
 59 61  1  0
 19 62  1  0
 62 63  2  0
 63 64  1  0
 63 65  1  0
  8  3  2  0
 62 11  1  0
 29 20  1  0
 45 32  1  0
 59 49  1  0
M  CHG  2   4  -1   7  -1
M  END
>  <UniqueID>  (25) 
23

>  <SMILES>  (25) 
C=c1/c(=C/c2[n-]c(=O)[n-]c2O)cc(C)n1-c1ccccc1C(=O)N1[C@@H](C)CC[C@H]1C(=O)N1CCCC1

>  <Energy>  (25) 
140.5780882835711

>  <Genealogy>  (25) 
C=c1c(=Cc2[n-]c(=O)[n-]c2O)cc(C)n1-c1ccccc1C(=O)N1C(C)CCC1C(=O)N1CCCC1 (protonated)
C=c1c(=Cc2[n-]c(=O)[n-]c2O)cc(C)n1-c1ccccc1C(=O)N1[C@@H](C)CC[C@H]1C(=O)N1CCCC1 (chirality)
C=c1/c(=C/c2[n-]c(=O)[n-]c2O)cc(C)n1-c1ccccc1C(=O)N1[C@@H](C)CC[C@H]1C(=O)N1CCCC1 (cis-trans isomerization)
C=c1/c(=C/c2[n-]c(=O)[n-]c2O)cc(C)n1-c1ccccc1C(=O)N1[C@@H](C)CC[C@H]1C(=O)N1CCCC1 (3D coordinates assigned)
C=c1/c(=C/c2[n-]c(=O)[n-]c2O)cc(C)n1-c1ccccc1C(=O)N1[C@@H](C)CC[C@H]1C(=O)N1CCCC1 (nonaromatic ring conformer: 140.5780882835711 kcal/mol)

>  <smiles>  (25) 
C=c1c(=Cc2[nH]c(=O)[nH]c2O)cc(C)n1-c1ccccc1C(=O)N1C(C)CCC1C(=O)N1CCCC1

>  <score_type>  (25) 
oracle

>  <origin>  (25) 
adg

>  <m_score__min__energy>  (25) 
-15.199999999999999

>  <m_primary>  (25) 
energy

$$$$
25:0
     RDKit          3D

 51 54  0  0  0  0  0  0  0  0999 V2000
   58.9820   34.9820   47.2030 O   0  0  0  0  0  0  0  0  0  0  0  0
   58.6700   34.0300   46.4380 C   0  0  0  0  0  0  0  0  0  0  0  0
   57.4480   34.1420   45.5810 C   0  0  0  0  0  0  0  0  0  0  0  0
   57.3970   32.9980   44.6240 C   0  0  0  0  0  0  0  0  0  0  0  0
   57.8030   33.0640   43.3430 N   0  0  0  0  0  0  0  0  0  0  0  0
   57.5920   31.8640   42.8260 N   0  0  0  0  0  0  0  0  0  0  0  0
   57.0680   31.1140   43.8130 C   0  0  0  0  0  0  0  0  0  0  0  0
   56.6590   29.6870   43.6540 C   0  0  0  0  0  0  0  0  0  0  0  0
   56.2550   29.1460   44.9110 O   0  0  0  0  0  0  0  0  0  0  0  0
   56.9170   28.1210   45.6080 C   0  0  0  0  0  0  0  0  0  0  0  0
   58.2660   28.3080   45.9320 C   0  0  0  0  0  0  0  0  0  0  0  0
   58.9700   27.3260   46.6320 C   0  0  0  0  0  0  0  0  0  0  0  0
   58.3260   26.1540   47.0340 C   0  0  0  0  0  0  0  0  0  0  0  0
   56.9730   25.9550   46.7410 C   0  0  0  0  0  0  0  0  0  0  0  0
   56.3410   24.7450   47.1850 N   0  0  0  0  0  0  0  0  0  0  0  0
   56.7330   23.4050   46.8510 C   0  0  0  0  0  0  0  0  0  0  0  0
   57.0320   22.6150   47.7870 O   0  0  0  0  0  0  0  0  0  0  0  0
   56.7680   22.9140   45.4530 C   0  0  0  0  0  0  0  0  0  0  0  0
   55.8650   23.4400   44.5110 C   0  0  0  0  0  0  0  0  0  0  0  0
   55.8600   22.9730   43.1950 C   0  0  0  0  0  0  0  0  0  0  0  0
   56.7700   21.9920   42.7970 C   0  0  0  0  0  0  0  0  0  0  0  0
   57.6950   21.4840   43.7130 C   0  0  0  0  0  0  0  0  0  0  0  0
   57.7010   21.9430   45.0370 C   0  0  0  0  0  0  0  0  0  0  0  0
   58.6440   21.4670   45.8930 F   0  0  0  0  0  0  0  0  0  0  0  0
   56.2770   26.9260   45.9980 C   0  0  0  0  0  0  0  0  0  0  0  0
   56.9380   31.8050   44.9180 O   0  0  0  0  0  0  0  0  0  0  0  0
   59.4990   32.8610   46.3530 N   0  0  0  0  0  0  0  0  0  0  0  0
   60.8680   32.8240   46.7900 C   0  0  0  0  0  0  0  0  0  0  0  0
   61.7750   33.8440   46.4390 C   0  0  0  0  0  0  0  0  0  0  0  0
   63.1120   33.7610   46.8350 C   0  0  0  0  0  0  0  0  0  0  0  0
   63.5570   32.6630   47.5760 C   0  0  0  0  0  0  0  0  0  0  0  0
   62.6660   31.6390   47.9120 C   0  0  0  0  0  0  0  0  0  0  0  0
   61.3300   31.7140   47.5130 C   0  0  0  0  0  0  0  0  0  0  0  0
   56.5517   34.1254   46.2185 H   0  0  0  0  0  0  0  0  0  0  0  0
   57.4839   35.0862   45.0178 H   0  0  0  0  0  0  0  0  0  0  0  0
   55.8193   29.6266   42.9460 H   0  0  0  0  0  0  0  0  0  0  0  0
   57.5142   29.1093   43.2734 H   0  0  0  0  0  0  0  0  0  0  0  0
   58.7755   29.2359   45.6328 H   0  0  0  0  0  0  0  0  0  0  0  0
   60.0340   27.4760   46.8672 H   0  0  0  0  0  0  0  0  0  0  0  0
   58.8858   25.3832   47.5840 H   0  0  0  0  0  0  0  0  0  0  0  0
   55.1571   24.2256   44.8137 H   0  0  0  0  0  0  0  0  0  0  0  0
   55.1380   23.3787   42.4710 H   0  0  0  0  0  0  0  0  0  0  0  0
   56.7589   21.6189   41.7623 H   0  0  0  0  0  0  0  0  0  0  0  0
   58.4207   20.7214   43.3938 H   0  0  0  0  0  0  0  0  0  0  0  0
   55.2271   26.7522   45.7195 H   0  0  0  0  0  0  0  0  0  0  0  0
   59.0720   31.9790   45.9910 H   0  0  0  0  0  0  0  0  0  0  0  0
   61.4293   34.7075   45.8518 H   0  0  0  0  0  0  0  0  0  0  0  0
   63.8158   34.5614   46.5630 H   0  0  0  0  0  0  0  0  0  0  0  0
   64.6081   32.6042   47.8950 H   0  0  0  0  0  0  0  0  0  0  0  0
   63.0182   30.7729   48.4916 H   0  0  0  0  0  0  0  0  0  0  0  0
   60.6364   30.8988   47.7668 H   0  0  0  0  0  0  0  0  0  0  0  0
  1  2  2  0
  2  3  1  0
  3  4  1  0
  4  5  2  0
  5  6  1  0
  6  7  2  0
  7  8  1  0
  8  9  1  0
  9 10  1  0
 10 11  2  0
 11 12  1  0
 12 13  2  0
 13 14  1  0
 14 15  1  0
 15 16  1  0
 16 17  2  0
 16 18  1  0
 18 19  2  0
 19 20  1  0
 20 21  2  0
 21 22  1  0
 22 23  2  0
 23 24  1  0
 14 25  2  0
  7 26  1  0
  2 27  1  0
 27 28  1  0
 28 29  2  0
 29 30  1  0
 30 31  2  0
 31 32  1  0
 32 33  2  0
 26  4  1  0
 33 28  1  0
 25 10  1  0
 23 18  1  0
  3 34  1  0
  3 35  1  0
  8 36  1  0
  8 37  1  0
 11 38  1  0
 12 39  1  0
 13 40  1  0
 19 41  1  0
 20 42  1  0
 21 43  1  0
 22 44  1  0
 25 45  1  0
 27 46  1  0
 29 47  1  0
 30 48  1  0
 31 49  1  0
 32 50  1  0
 33 51  1  0
M  CHG  1  15  -1
M  END
>  <UniqueID>  (26) 
24

>  <SMILES>  (26) 
O=C(Cc1nnc(COc2cccc([N-]C(=O)c3ccccc3F)c2)o1)Nc1ccccc1

>  <Energy>  (26) 
94.05803042459833

>  <Genealogy>  (26) 
O=C(Cc1nnc(COc2cccc([N-]C(=O)c3ccccc3F)c2)o1)Nc1ccccc1 (protonated)
O=C(Cc1nnc(COc2cccc([N-]C(=O)c3ccccc3F)c2)o1)Nc1ccccc1 (3D coordinates assigned)
O=C(Cc1nnc(COc2cccc([N-]C(=O)c3ccccc3F)c2)o1)Nc1ccccc1 (optimized conformer: 94.05803042459833 kcal/mol)

>  <smiles>  (26) 
O=C(Cc1nnc(COc2cccc(NC(=O)c3ccccc3F)c2)o1)Nc1ccccc1

>  <score_type>  (26) 
oracle

>  <origin>  (26) 
adg

>  <m_score__min__energy>  (26) 
-11.51

>  <m_primary>  (26) 
energy

$$$$
26:0
     RDKit          3D

 47 50  0  0  0  0  0  0  0  0999 V2000
   56.2420   29.3720   42.2610 N   0  0  0  0  0  0  0  0  0  0  0  0
   56.9020   29.2430   43.3630 C   0  0  0  0  0  0  0  0  0  0  0  0
   58.0470   28.5660   43.4060 N   0  0  0  0  0  0  0  0  0  0  0  0
   58.7320   28.4290   44.5660 C   0  0  0  0  0  0  0  0  0  0  0  0
   58.2830   28.9810   45.7540 C   0  0  0  0  0  0  0  0  0  0  0  0
   59.0300   28.8500   47.0080 C   0  0  0  0  0  0  0  0  0  0  0  0
   59.6760   27.6690   47.3490 C   0  0  0  0  0  0  0  0  0  0  0  0
   60.4090   27.5240   48.5070 C   0  0  0  0  0  0  0  0  0  0  0  0
   60.4840   28.6120   49.3380 C   0  0  0  0  0  0  0  0  0  0  0  0
   59.8810   29.8160   49.0900 C   0  0  0  0  0  0  0  0  0  0  0  0
   59.9060   30.9070   49.8410 O   0  0  0  0  0  0  0  0  0  0  0  0
   60.2920   32.1920   49.7540 C   0  0  0  0  0  0  0  0  0  0  0  0
   61.2160   32.5070   48.6260 C   0  0  0  0  0  0  0  0  0  0  0  0
   62.4320   31.8110   48.6220 C   0  0  0  0  0  0  0  0  0  0  0  0
   63.4190   32.1240   47.6980 C   0  0  0  0  0  0  0  0  0  0  0  0
   63.2150   33.1430   46.7520 C   0  0  0  0  0  0  0  0  0  0  0  0
   61.9960   33.8280   46.7640 C   0  0  0  0  0  0  0  0  0  0  0  0
   61.0080   33.4950   47.7050 C   0  0  0  0  0  0  0  0  0  0  0  0
   59.7470   34.2070   47.5560 C   0  0  0  0  0  0  0  0  0  0  0  0
   59.2720   35.1030   48.2280 O   0  0  0  0  0  0  0  0  0  0  0  0
   58.9180   33.7400   46.3950 C   0  0  0  0  0  0  0  0  0  0  0  0
   57.8420   32.9120   46.4090 C   0  0  0  0  0  0  0  0  0  0  0  0
   57.4580   32.7360   45.1240 N   0  0  0  0  0  0  0  0  0  0  0  0
   58.2680   33.4370   44.3050 C   0  0  0  0  0  0  0  0  0  0  0  0
   59.1670   34.0580   45.0850 N   0  0  0  0  0  0  0  0  0  0  0  0
   59.1460   29.8940   47.8830 C   0  0  0  0  0  0  0  0  0  0  0  0
   57.1150   29.6650   45.6790 N   0  0  0  0  0  0  0  0  0  0  0  0
   56.4260   29.8030   44.5160 C   0  0  0  0  0  0  0  0  0  0  0  0
   55.3270   30.4710   44.4910 N   0  0  0  0  0  0  0  0  0  0  0  0
   55.2860   29.7410   42.2220 H   0  0  0  0  0  0  0  0  0  0  0  0
   58.4290   28.1270   42.5460 H   0  0  0  0  0  0  0  0  0  0  0  0
   59.6744   27.8616   44.5646 H   0  0  0  0  0  0  0  0  0  0  0  0
   59.5993   26.8113   46.6646 H   0  0  0  0  0  0  0  0  0  0  0  0
   60.9117   26.5772   48.7537 H   0  0  0  0  0  0  0  0  0  0  0  0
   61.0672   28.5109   50.2652 H   0  0  0  0  0  0  0  0  0  0  0  0
   59.3898   32.8103   49.6366 H   0  0  0  0  0  0  0  0  0  0  0  0
   60.8551   32.4026   50.6752 H   0  0  0  0  0  0  0  0  0  0  0  0
   62.6056   31.0108   49.3565 H   0  0  0  0  0  0  0  0  0  0  0  0
   64.3691   31.5697   47.7062 H   0  0  0  0  0  0  0  0  0  0  0  0
   63.9957   33.3958   46.0195 H   0  0  0  0  0  0  0  0  0  0  0  0
   61.8104   34.6300   46.0343 H   0  0  0  0  0  0  0  0  0  0  0  0
   57.3710   32.4678   47.2983 H   0  0  0  0  0  0  0  0  0  0  0  0
   56.6510   32.1420   44.7780 H   0  0  0  0  0  0  0  0  0  0  0  0
   58.2044   33.4899   43.2081 H   0  0  0  0  0  0  0  0  0  0  0  0
   58.6435   30.8410   47.6369 H   0  0  0  0  0  0  0  0  0  0  0  0
   56.6940   30.1150   46.4990 H   0  0  0  0  0  0  0  0  0  0  0  0
   54.6220   30.3700   43.7500 H   0  0  0  0  0  0  0  0  0  0  0  0
  1  2  2  3
  2  3  1  0
  3  4  1  0
  4  5  2  0
  5  6  1  0
  6  7  2  0
  7  8  1  0
  8  9  2  0
  9 10  1  0
 10 11  1  0
 11 12  1  0
 12 13  1  0
 13 14  2  0
 14 15  1  0
 15 16  2  0
 16 17  1  0
 17 18  2  0
 18 19  1  0
 19 20  2  0
 19 21  1  0
 21 22  2  0
 22 23  1  0
 23 24  1  0
 24 25  2  0
 10 26  2  0
  5 27  1  0
 27 28  1  0
 28 29  2  3
 28  2  1  0
 26  6  1  0
 18 13  1  0
 25 21  1  0
  1 30  1  0
  3 31  1  0
  4 32  1  0
  7 33  1  0
  8 34  1  0
  9 35  1  0
 12 36  1  0
 12 37  1  0
 14 38  1  0
 15 39  1  0
 16 40  1  0
 17 41  1  0
 22 42  1  0
 23 43  1  0
 24 44  1  0
 26 45  1  0
 27 46  1  0
 29 47  1  0
M  END
>  <smiles>  (27) 
N=c1[nH]cc(-c2cccc(OCc3ccccc3C(=O)c3c[nH]cn3)c2)[nH]c1=N

>  <score_type>  (27) 
oracle

>  <origin>  (27) 
adg

>  <m_score__min__energy>  (27) 
-9.0700000000000003

>  <m_primary>  (27) 
energy

$$$$
27:0
     RDKit          3D

 56 59  0  0  1  0  0  0  0  0999 V2000
   59.4800   27.7580   47.3210 C   0  0  0  0  0  0  0  0  0  0  0  0
   58.5490   28.1100   46.4730 C   0  0  0  0  0  0  0  0  0  0  0  0
   62.6810   34.2030   49.1390 C   0  0  0  0  0  0  0  0  0  0  0  0
   56.9580   26.2830   46.5870 C   0  0  0  0  0  0  0  0  0  0  0  0
   56.7020   25.1350   45.7240 C   0  0  0  0  0  0  0  0  0  0  0  0
   55.3740   24.9450   45.3030 C   0  0  0  0  0  0  0  0  0  0  0  0
   54.3750   25.8430   45.6520 O   0  0  0  0  0  0  0  0  0  0  0  0
   55.1360   23.8470   44.5400 N   0  0  0  0  0  0  0  0  0  0  0  0
   56.1240   22.9890   44.2040 C   0  0  0  0  0  0  0  0  0  0  0  0
   55.9140   21.9660   43.4940 O   0  0  0  0  0  0  0  0  0  0  0  0
   57.3970   23.1810   44.6110 N   0  0  0  0  0  0  0  0  0  0  0  0
   57.6970   24.2620   45.3790 C   0  0  0  0  0  0  0  0  0  0  0  0
   58.8950   24.3790   45.7200 O   0  0  0  0  0  0  0  0  0  0  0  0
   56.6240   28.2010   45.2540 C   0  0  0  0  0  0  0  0  0  0  0  0
   57.4100   29.3090   45.0050 C   0  0  0  0  0  0  0  0  0  0  0  0
   57.0770   30.4320   44.0520 C   0  0  0  0  0  0  0  0  0  0  0  0
   58.5490   29.2310   45.7410 N   0  0  0  0  0  0  0  0  0  0  0  0
   59.5760   30.2390   45.6450 C   0  0  0  0  0  0  0  0  0  0  0  0
   59.6140   31.2640   46.6820 C   0  0  0  0  0  0  0  0  0  0  0  0
   59.2020   32.5640   46.5790 C   0  0  0  0  0  0  0  0  0  0  0  0
   59.3900   33.5240   47.5600 C   0  0  0  0  0  0  0  0  0  0  0  0
   60.0200   33.1460   48.6890 C   0  0  0  0  0  0  0  0  0  0  0  0
   60.3910   34.0730   49.7920 C   0  0  0  0  0  0  0  0  0  0  0  0
   59.8570   34.2170   50.8570 O   0  0  0  0  0  0  0  0  0  0  0  0
   61.5810   34.8390   49.3450 N   0  0  0  0  0  0  0  0  0  0  0  0
   57.3660   27.4520   46.1860 C   0  0  0  0  0  0  0  0  0  0  0  0
   63.2860   33.6110   48.1880 N   0  0  0  0  0  0  0  0  0  0  0  0
   64.3880   32.9490   48.3980 N   0  0  0  0  0  0  0  0  0  0  0  0
   64.9200   32.8350   49.4830 C   0  0  0  0  0  0  0  0  0  0  0  0
   66.0970   32.2370   50.1870 C   0  0  0  0  0  0  0  0  0  0  0  0
   67.2480   33.0950   50.4640 C   0  0  0  0  0  0  0  0  0  0  0  0
   63.7560   33.8340   50.6350 S   0  0  0  0  0  0  0  0  0  0  0  0
   60.4670   31.8490   48.8850 C   0  0  0  0  0  0  0  0  0  0  0  0
   60.2610   30.9190   47.8830 C   0  0  0  0  0  0  0  0  0  0  0  0
   60.3753   28.3846   47.4462 H   0  0  0  0  0  0  0  0  0  0  0  0
   59.3679   26.8352   47.9092 H   0  0  0  0  0  0  0  0  0  0  0  0
   56.7924   26.1495   47.6662 H   0  0  0  0  0  0  0  0  0  0  0  0
   53.6940   25.6610   46.3730 H   0  0  0  0  0  0  0  0  0  0  0  0
   54.1690   23.6340   44.1850 H   0  0  0  0  0  0  0  0  0  0  0  0
   58.1310   22.4820   44.3270 H   0  0  0  0  0  0  0  0  0  0  0  0
   55.6417   27.9591   44.8221 H   0  0  0  0  0  0  0  0  0  0  0  0
   56.8101   31.3322   44.6251 H   0  0  0  0  0  0  0  0  0  0  0  0
   57.9503   30.6463   43.4184 H   0  0  0  0  0  0  0  0  0  0  0  0
   56.2281   30.1356   43.4184 H   0  0  0  0  0  0  0  0  0  0  0  0
   60.5469   29.7221   45.6572 H   0  0  0  0  0  0  0  0  0  0  0  0
   59.3452   30.7862   44.7191 H   0  0  0  0  0  0  0  0  0  0  0  0
   58.6870   32.8676   45.6556 H   0  0  0  0  0  0  0  0  0  0  0  0
   59.0378   34.5569   47.4220 H   0  0  0  0  0  0  0  0  0  0  0  0
   62.8760   33.6350   47.1700 H   0  0  0  0  0  0  0  0  0  0  0  0
   65.7378   31.8520   51.1528 H   0  0  0  0  0  0  0  0  0  0  0  0
   66.4820   31.4854   49.4821 H   0  0  0  0  0  0  0  0  0  0  0  0
   67.3791   33.1927   51.5518 H   0  0  0  0  0  0  0  0  0  0  0  0
   68.1522   32.6488   50.0243 H   0  0  0  0  0  0  0  0  0  0  0  0
   67.0786   34.0890   50.0243 H   0  0  0  0  0  0  0  0  0  0  0  0
   60.9752   31.5653   49.8184 H   0  0  0  0  0  0  0  0  0  0  0  0
   60.6107   29.8862   48.0279 H   0  0  0  0  0  0  0  0  0  0  0  0
  1  2  2  0
  2  3  1  0
  3  4  2  0
  4  5  1  0
  5  6  2  0
  6  7  1  0
  6  8  1  0
  8  9  1  0
  9 10  2  0
  9 11  1  0
 11 12  1  0
 12 13  2  0
  3 14  1  0
 14 15  2  0
 15 16  1  0
 15 17  1  0
 17 18  1  0
 18 19  1  0
 19 20  2  0
 20 21  1  0
 21 22  2  0
 22 23  1  0
 23 24  2  0
 23 25  1  0
 25 26  2  0
 26 27  1  0
 27 28  1  0
 28 29  2  0
 29 30  1  0
 30 31  1  0
 29 32  1  0
 22 33  1  0
 33 34  2  0
 17  2  1  0
 34 19  1  0
 12  5  1  0
 32 26  1  0
  1 35  1  0
  1 36  1  0
  4 37  1  0
  7 38  1  0
  8 39  1  0
 11 40  1  0
 14 41  1  0
 16 42  1  0
 16 43  1  0
 16 44  1  0
 18 45  1  0
 18 46  1  0
 20 47  1  0
 21 48  1  0
 27 49  1  0
 30 50  1  0
 30 51  1  0
 31 52  1  0
 31 53  1  0
 31 54  1  0
 33 55  1  0
 34 56  1  0
M  END
>  <smiles>  (28) 
C=c1c(=Cc2c(O)[nH]c(=O)[nH]c2=O)cc(C)n1Cc1ccc(C(=O)N=c2[nH]nc(CC)s2)cc1

>  <score_type>  (28) 
oracle

>  <origin>  (28) 
adg

>  <m_score__min__energy>  (28) 
-10.130000000000001

>  <m_primary>  (28) 
energy

$$$$
28:0
     RDKit          3D

 48 50  0  0  0  0  0  0  0  0999 V2000
   55.3060   30.4780   44.5020 O   0  0  0  0  0  0  0  0  0  0  0  0
   56.3830   29.8360   44.6180 C   0  0  0  0  0  0  0  0  0  0  0  0
   57.6520   30.4400   44.0790 C   0  0  0  0  0  0  0  0  0  0  0  0
   57.9350   31.7490   44.7630 C   0  0  0  0  0  0  0  0  0  0  0  0
   57.5360   32.9610   44.1830 C   0  0  0  0  0  0  0  0  0  0  0  0
   57.7620   34.1380   44.8260 N   0  0  0  0  0  0  0  0  0  0  0  0
   58.3760   34.1810   46.0390 C   0  0  0  0  0  0  0  0  0  0  0  0
   58.8010   32.9980   46.6640 C   0  0  0  0  0  0  0  0  0  0  0  0
   59.4590   33.0310   47.9900 C   0  0  0  0  0  0  0  0  0  0  0  0
   58.7480   32.9780   49.0310 O   0  0  0  0  0  0  0  0  0  0  0  0
   60.8880   33.1450   48.1170 N   0  0  0  0  0  0  0  0  0  0  0  0
   61.4410   33.9660   49.2050 C   0  0  0  0  0  0  0  0  0  0  0  0
   62.9750   34.0030   49.1660 C   0  0  0  0  0  0  0  0  0  0  0  0
   63.4630   34.1870   47.7250 C   0  0  0  0  0  0  0  0  0  0  0  0
   62.9850   33.0530   46.7930 C   0  0  0  0  0  0  0  0  0  0  0  0
   61.7770   32.2700   47.3380 C   0  0  0  0  0  0  0  0  0  0  0  0
   58.5570   31.7760   46.0200 C   0  0  0  0  0  0  0  0  0  0  0  0
   56.3460   28.5370   45.2240 N   0  0  0  0  0  0  0  0  0  0  0  0
   57.4900   27.6450   45.3680 C   0  0  0  0  0  0  0  0  0  0  0  0
   58.4450   28.2160   46.3760 C   0  0  0  0  0  0  0  0  0  0  0  0
   59.6740   28.7550   45.9650 C   0  0  0  0  0  0  0  0  0  0  0  0
   60.5730   29.2620   46.9080 C   0  0  0  0  0  0  0  0  0  0  0  0
   60.2560   29.2230   48.2700 C   0  0  0  0  0  0  0  0  0  0  0  0
   61.3840   29.8580   49.4520 Cl  0  0  0  0  0  0  0  0  0  0  0  0
   59.0400   28.6720   48.6880 C   0  0  0  0  0  0  0  0  0  0  0  0
   58.1390   28.1660   47.7470 C   0  0  0  0  0  0  0  0  0  0  0  0
   58.4883   29.7482   44.2579 H   0  0  0  0  0  0  0  0  0  0  0  0
   57.5354   30.6167   42.9996 H   0  0  0  0  0  0  0  0  0  0  0  0
   57.0374   32.9603   43.2025 H   0  0  0  0  0  0  0  0  0  0  0  0
   57.4510   35.0290   44.3800 H   0  0  0  0  0  0  0  0  0  0  0  0
   58.5407   35.1496   46.5337 H   0  0  0  0  0  0  0  0  0  0  0  0
   61.0572   34.9922   49.1074 H   0  0  0  0  0  0  0  0  0  0  0  0
   61.1333   33.5190   50.1618 H   0  0  0  0  0  0  0  0  0  0  0  0
   63.3341   34.8412   49.7811 H   0  0  0  0  0  0  0  0  0  0  0  0
   63.3672   33.0536   49.5595 H   0  0  0  0  0  0  0  0  0  0  0  0
   63.0801   35.1444   47.3418 H   0  0  0  0  0  0  0  0  0  0  0  0
   64.5628   34.1693   47.7383 H   0  0  0  0  0  0  0  0  0  0  0  0
   62.7045   33.4942   45.8252 H   0  0  0  0  0  0  0  0  0  0  0  0
   63.8168   32.3387   46.7042 H   0  0  0  0  0  0  0  0  0  0  0  0
   61.2138   31.8449   46.4941 H   0  0  0  0  0  0  0  0  0  0  0  0
   62.1467   31.4707   47.9972 H   0  0  0  0  0  0  0  0  0  0  0  0
   58.8550   30.8338   46.5033 H   0  0  0  0  0  0  0  0  0  0  0  0
   57.1447   26.6576   45.7082 H   0  0  0  0  0  0  0  0  0  0  0  0
   57.9987   27.5411   44.3983 H   0  0  0  0  0  0  0  0  0  0  0  0
   59.9311   28.7786   44.8957 H   0  0  0  0  0  0  0  0  0  0  0  0
   61.5305   29.6920   46.5787 H   0  0  0  0  0  0  0  0  0  0  0  0
   58.7925   28.6369   49.7592 H   0  0  0  0  0  0  0  0  0  0  0  0
   57.1871   27.7271   48.0805 H   0  0  0  0  0  0  0  0  0  0  0  0
  1  2  2  0
  2  3  1  0
  3  4  1  0
  4  5  2  0
  5  6  1  0
  6  7  2  0
  7  8  1  0
  8  9  1  0
  9 10  2  0
  9 11  1  0
 11 12  1  0
 12 13  1  0
 13 14  1  0
 14 15  1  0
 15 16  1  0
  8 17  2  0
  2 18  1  0
 18 19  1  0
 19 20  1  0
 20 21  2  0
 21 22  1  0
 22 23  2  0
 23 24  1  0
 23 25  1  0
 25 26  2  0
 17  4  1  0
 26 20  1  0
 16 11  1  0
  3 27  1  0
  3 28  1  0
  5 29  1  0
  6 30  1  0
  7 31  1  0
 12 32  1  0
 12 33  1  0
 13 34  1  0
 13 35  1  0
 14 36  1  0
 14 37  1  0
 15 38  1  0
 15 39  1  0
 16 40  1  0
 16 41  1  0
 17 42  1  0
 19 43  1  0
 19 44  1  0
 21 45  1  0
 22 46  1  0
 25 47  1  0
 26 48  1  0
M  CHG  2   6   1  18  -1
M  END
>  <UniqueID>  (29) 
25

>  <SMILES>  (29) 
O=C(Cc1c[nH+]cc(C(=O)N2CCCCC2)c1)[N-]Cc1ccc(Cl)cc1

>  <Energy>  (29) 
50.93597921754752

>  <Genealogy>  (29) 
O=C(Cc1c[nH+]cc(C(=O)N2CCCCC2)c1)[N-]Cc1ccc(Cl)cc1 (protonated)
O=C(Cc1c[nH+]cc(C(=O)N2CCCCC2)c1)[N-]Cc1ccc(Cl)cc1 (3D coordinates assigned)
O=C(Cc1c[nH+]cc(C(=O)N2CCCCC2)c1)[N-]Cc1ccc(Cl)cc1 (nonaromatic ring conformer: 50.93597921754752 kcal/mol)

>  <smiles>  (29) 
O=C(Cc1cncc(C(=O)N2CCCCC2)c1)NCc1ccc(Cl)cc1

>  <score_type>  (29) 
oracle

>  <origin>  (29) 
adg

>  <m_score__min__energy>  (29) 
-9.4600000000000009

>  <m_primary>  (29) 
energy

$$$$
29:0
     RDKit          3D

 64 67  0  0  0  0  0  0  0  0999 V2000
   62.0930   33.5300   46.9510 C   0  0  0  0  0  0  0  0  0  0  0  0
   61.0310   34.4670   46.8060 O   0  0  0  0  0  0  0  0  0  0  0  0
   59.7180   34.1360   46.4350 C   0  0  0  0  0  0  0  0  0  0  0  0
   59.1930   34.4920   45.1750 C   0  0  0  0  0  0  0  0  0  0  0  0
   57.8680   34.1970   44.8520 C   0  0  0  0  0  0  0  0  0  0  0  0
   57.0470   33.5510   45.7770 C   0  0  0  0  0  0  0  0  0  0  0  0
   57.5560   33.1860   47.0270 C   0  0  0  0  0  0  0  0  0  0  0  0
   58.8920   33.4490   47.3550 C   0  0  0  0  0  0  0  0  0  0  0  0
   59.3650   33.0530   48.6500 N   0  0  0  0  0  0  0  0  0  0  0  0
   59.5460   31.7030   49.0970 C   0  0  0  0  0  0  0  0  0  0  0  0
   59.1670   31.3910   50.2560 O   0  0  0  0  0  0  0  0  0  0  0  0
   60.0950   30.6940   48.2280 N   0  0  0  0  0  0  0  0  0  0  0  0
   60.9670   29.6450   48.7720 C   0  0  0  0  0  0  0  0  0  0  0  0
   60.3810   28.2640   48.4630 C   0  0  0  0  0  0  0  0  0  0  0  0
   59.8800   28.1820   47.0810 N   0  0  0  0  0  0  0  0  0  0  0  0
   59.3130   26.9340   46.6330 C   0  0  0  0  0  0  0  0  0  0  0  0
   59.7830   25.8510   47.0820 O   0  0  0  0  0  0  0  0  0  0  0  0
   58.0860   26.8940   45.7440 C   0  0  2  0  0  0  0  0  0  0  0  0
   57.0700   27.9840   46.1480 C   0  0  0  0  0  0  0  0  0  0  0  0
   56.6720   28.8720   45.0030 C   0  0  0  0  0  0  0  0  0  0  0  0
   57.4440   29.2020   43.9140 C   0  0  0  0  0  0  0  0  0  0  0  0
   56.7190   29.9660   43.0800 N   0  0  0  0  0  0  0  0  0  0  0  0
   55.5220   30.0790   43.6960 C   0  0  0  0  0  0  0  0  0  0  0  0
   55.4510   29.4190   44.8700 N   0  0  0  0  0  0  0  0  0  0  0  0
   57.4720   25.5670   45.7960 N   0  0  0  0  0  0  0  0  0  0  0  0
   56.2940   25.2770   46.5510 C   0  0  0  0  0  0  0  0  0  0  0  0
   56.4110   24.8010   47.7120 O   0  0  0  0  0  0  0  0  0  0  0  0
   55.0290   25.5070   45.9970 O   0  0  0  0  0  0  0  0  0  0  0  0
   54.2560   24.4960   45.3550 C   0  0  0  0  0  0  0  0  0  0  0  0
   55.1640   23.4610   44.7520 C   0  0  0  0  0  0  0  0  0  0  0  0
   55.7470   23.6870   43.4940 C   0  0  0  0  0  0  0  0  0  0  0  0
   56.6220   22.7450   42.9420 C   0  0  0  0  0  0  0  0  0  0  0  0
   56.9290   21.5780   43.6470 C   0  0  0  0  0  0  0  0  0  0  0  0
   56.3640   21.3520   44.9060 C   0  0  0  0  0  0  0  0  0  0  0  0
   55.4850   22.2910   45.4600 C   0  0  0  0  0  0  0  0  0  0  0  0
   60.0900   29.3140   46.1640 C   0  0  0  0  0  0  0  0  0  0  0  0
   59.6400   30.6180   46.8310 C   0  0  0  0  0  0  0  0  0  0  0  0
   62.2873   33.3586   48.0200 H   0  0  0  0  0  0  0  0  0  0  0  0
   61.8119   32.5802   46.4725 H   0  0  0  0  0  0  0  0  0  0  0  0
   63.0003   33.9272   46.4725 H   0  0  0  0  0  0  0  0  0  0  0  0
   59.8325   35.0057   44.4421 H   0  0  0  0  0  0  0  0  0  0  0  0
   57.4694   34.4746   43.8650 H   0  0  0  0  0  0  0  0  0  0  0  0
   56.0000   33.3290   45.5229 H   0  0  0  0  0  0  0  0  0  0  0  0
   56.9022   32.6885   47.7584 H   0  0  0  0  0  0  0  0  0  0  0  0
   61.9645   29.7278   48.3159 H   0  0  0  0  0  0  0  0  0  0  0  0
   61.0438   29.7689   49.8623 H   0  0  0  0  0  0  0  0  0  0  0  0
   61.1643   27.5047   48.6039 H   0  0  0  0  0  0  0  0  0  0  0  0
   59.5358   28.0896   49.1451 H   0  0  0  0  0  0  0  0  0  0  0  0
   58.3999   27.0983   44.7097 H   0  0  0  0  0  0  0  0  0  0  0  0
   56.1673   27.4930   46.5405 H   0  0  0  0  0  0  0  0  0  0  0  0
   57.5543   28.6201   46.9036 H   0  0  0  0  0  0  0  0  0  0  0  0
   58.4865   28.8908   43.7519 H   0  0  0  0  0  0  0  0  0  0  0  0
   54.6833   30.6557   43.2789 H   0  0  0  0  0  0  0  0  0  0  0  0
   53.5971   24.0167   46.0940 H   0  0  0  0  0  0  0  0  0  0  0  0
   53.6514   24.9544   44.5586 H   0  0  0  0  0  0  0  0  0  0  0  0
   55.5145   24.6087   42.9404 H   0  0  0  0  0  0  0  0  0  0  0  0
   57.0685   22.9231   41.9526 H   0  0  0  0  0  0  0  0  0  0  0  0
   57.6154   20.8370   43.2113 H   0  0  0  0  0  0  0  0  0  0  0  0
   56.6103   20.4354   45.4620 H   0  0  0  0  0  0  0  0  0  0  0  0
   55.0448   22.1119   46.4521 H   0  0  0  0  0  0  0  0  0  0  0  0
   61.1580   29.3841   45.9102 H   0  0  0  0  0  0  0  0  0  0  0  0
   59.4996   29.1531   45.2499 H   0  0  0  0  0  0  0  0  0  0  0  0
   60.0582   31.4682   46.2721 H   0  0  0  0  0  0  0  0  0  0  0  0
   58.5404   30.6476   46.8241 H   0  0  0  0  0  0  0  0  0  0  0  0
  1  2  1  0
  2  3  1  0
  3  4  2  0
  4  5  1  0
  5  6  2  0
  6  7  1  0
  7  8  2  0
  8  9  1  0
  9 10  1  0
 10 11  2  0
 10 12  1  0
 12 13  1  0
 13 14  1  0
 14 15  1  0
 15 16  1  0
 16 17  2  0
 16 18  1  0
 18 19  1  0
 19 20  1  0
 20 21  2  0
 21 22  1  0
 22 23  1  0
 23 24  2  0
 18 25  1  0
 25 26  1  0
 26 27  2  0
 26 28  1  0
 28 29  1  0
 29 30  1  0
 30 31  2  0
 31 32  1  0
 32 33  2  0
 33 34  1  0
 34 35  2  0
 15 36  1  0
 36 37  1  0
  8  3  1  0
 37 12  1  0
 24 20  1  0
 35 30  1  0
  1 38  1  0
  1 39  1  0
  1 40  1  0
  4 41  1  0
  5 42  1  0
  6 43  1  0
  7 44  1  0
 13 45  1  0
 13 46  1  0
 14 47  1  0
 14 48  1  0
 18 49  1  6
 19 50  1  0
 19 51  1  0
 21 52  1  0
 23 53  1  0
 29 54  1  0
 29 55  1  0
 31 56  1  0
 32 57  1  0
 33 58  1  0
 34 59  1  0
 35 60  1  0
 36 61  1  0
 36 62  1  0
 37 63  1  0
 37 64  1  0
M  CHG  3   9  -1  22  -1  25  -1
M  END
>  <UniqueID>  (30) 
26

>  <SMILES>  (30) 
COc1ccccc1[N-]C(=O)N1CCN(C(=O)[C@H](Cc2c[n-]cn2)[N-]C(=O)OCc2ccccc2)CC1

>  <Energy>  (30) 
98.24361791040593

>  <Genealogy>  (30) 
COc1ccccc1[N-]C(=O)N1CCN(C(=O)C(Cc2c[n-]cn2)[N-]C(=O)OCc2ccccc2)CC1 (protonated)
COc1ccccc1[N-]C(=O)N1CCN(C(=O)[C@H](Cc2c[n-]cn2)[N-]C(=O)OCc2ccccc2)CC1 (chirality)
COc1ccccc1[N-]C(=O)N1CCN(C(=O)[C@H](Cc2c[n-]cn2)[N-]C(=O)OCc2ccccc2)CC1 (3D coordinates assigned)
COc1ccccc1[N-]C(=O)N1CCN(C(=O)[C@H](Cc2c[n-]cn2)[N-]C(=O)OCc2ccccc2)CC1 (nonaromatic ring conformer: 98.24361791040593 kcal/mol)

>  <smiles>  (30) 
COc1ccccc1NC(=O)N1CCN(C(=O)C(Cc2c[nH]cn2)NC(=O)OCc2ccccc2)CC1

>  <score_type>  (30) 
oracle

>  <origin>  (30) 
adg

>  <m_score__min__energy>  (30) 
-13.699999999999999

>  <m_primary>  (30) 
energy

$$$$
30:0
     RDKit          3D

 36 38  0  0  0  0  0  0  0  0999 V2000
   58.9340   32.4380   45.8210 C   0  0  0  0  0  0  0  0  0  0  0  0
   58.9140   31.1390   46.1920 C   0  0  0  0  0  0  0  0  0  0  0  0
   57.8930   30.2890   45.6980 C   0  0  0  0  0  0  0  0  0  0  0  0
   57.0490   30.7320   44.8690 O   0  0  0  0  0  0  0  0  0  0  0  0
   57.8710   28.9350   46.1040 C   0  0  0  0  0  0  0  0  0  0  0  0
   56.9350   28.0370   45.7310 C   0  0  0  0  0  0  0  0  0  0  0  0
   56.7420   26.6880   46.2960 C   0  0  0  0  0  0  0  0  0  0  0  0
   57.7100   25.9230   46.8300 N   0  0  0  0  0  0  0  0  0  0  0  0
   57.1140   24.7370   47.0650 C   0  0  0  0  0  0  0  0  0  0  0  0
   57.7170   23.7550   47.5730 O   0  0  0  0  0  0  0  0  0  0  0  0
   55.8170   24.6870   46.6910 N   0  0  0  0  0  0  0  0  0  0  0  0
   55.6040   25.9210   46.1950 C   0  0  0  0  0  0  0  0  0  0  0  0
   54.3940   26.3350   45.6510 O   0  0  0  0  0  0  0  0  0  0  0  0
   58.8750   28.4840   46.8960 N   0  0  0  0  0  0  0  0  0  0  0  0
   59.8620   29.2890   47.3540 C   0  0  0  0  0  0  0  0  0  0  0  0
   60.7550   28.7950   48.0970 O   0  0  0  0  0  0  0  0  0  0  0  0
   59.8830   30.6180   47.0260 N   0  0  0  0  0  0  0  0  0  0  0  0
   60.9380   31.4380   47.5690 C   0  0  0  0  0  0  0  0  0  0  0  0
   62.2560   31.2790   47.1200 C   0  0  0  0  0  0  0  0  0  0  0  0
   63.2780   32.0730   47.6490 C   0  0  0  0  0  0  0  0  0  0  0  0
   62.9990   33.0320   48.6310 C   0  0  0  0  0  0  0  0  0  0  0  0
   64.0590   33.8040   49.1280 O   0  0  0  0  0  0  0  0  0  0  0  0
   64.8680   33.4370   50.2400 C   0  0  0  0  0  0  0  0  0  0  0  0
   61.6730   33.1870   49.0830 C   0  0  0  0  0  0  0  0  0  0  0  0
   60.6520   32.3930   48.5540 C   0  0  0  0  0  0  0  0  0  0  0  0
   59.7222   33.1058   46.1989 H   0  0  0  0  0  0  0  0  0  0  0  0
   58.1621   32.8277   45.1411 H   0  0  0  0  0  0  0  0  0  0  0  0
   56.2487   28.3408   44.9268 H   0  0  0  0  0  0  0  0  0  0  0  0
   58.7130   26.1700   46.9840 H   0  0  0  0  0  0  0  0  0  0  0  0
   62.4869   30.5281   46.3500 H   0  0  0  0  0  0  0  0  0  0  0  0
   64.3100   31.9434   47.2909 H   0  0  0  0  0  0  0  0  0  0  0  0
   64.3385   33.6772   51.1738 H   0  0  0  0  0  0  0  0  0  0  0  0
   65.0743   32.3572   50.2028 H   0  0  0  0  0  0  0  0  0  0  0  0
   65.8164   33.9930   50.2028 H   0  0  0  0  0  0  0  0  0  0  0  0
   61.4410   33.9356   49.8549 H   0  0  0  0  0  0  0  0  0  0  0  0
   59.6195   32.5181   48.9122 H   0  0  0  0  0  0  0  0  0  0  0  0
  1  2  2  0
  2  3  1  0
  3  4  2  0
  3  5  1  0
  5  6  2  3
  6  7  1  0
  7  8  1  0
  8  9  1  0
  9 10  2  0
  9 11  1  0
 11 12  1  0
 12 13  1  0
  5 14  1  0
 14 15  1  0
 15 16  2  0
 15 17  1  0
 17 18  1  0
 18 19  2  0
 19 20  1  0
 20 21  2  0
 21 22  1  0
 22 23  1  0
 21 24  1  0
 24 25  2  0
 17  2  1  0
 25 18  1  0
 12  7  2  0
  1 26  1  0
  1 27  1  0
  6 28  1  0
  8 29  1  0
 19 30  1  0
 20 31  1  0
 23 32  1  0
 23 33  1  0
 23 34  1  0
 24 35  1  0
 25 36  1  0
M  CHG  3  11  -1  13  -1  14  -1
M  END
>  <UniqueID>  (31) 
27

>  <SMILES>  (31) 
C=c1c(=O)c(=Cc2[nH]c(=O)[n-]c2[O-])[n-]c(=O)n1-c1ccc(OC)cc1

>  <Energy>  (31) 
96.30796707346296

>  <Genealogy>  (31) 
C=c1c(=O)c(=Cc2[nH]c(=O)[n-]c2[O-])[n-]c(=O)n1-c1ccc(OC)cc1 (protonated)
C=c1c(=O)c(=Cc2[nH]c(=O)[n-]c2[O-])[n-]c(=O)n1-c1ccc(OC)cc1 (3D coordinates assigned)
C=c1c(=O)c(=Cc2[nH]c(=O)[n-]c2[O-])[n-]c(=O)n1-c1ccc(OC)cc1 (optimized conformer: 96.30796707346296 kcal/mol)

>  <smiles>  (31) 
C=c1c(=O)c(=Cc2[nH]c(=O)[nH]c2O)[nH]c(=O)n1-c1ccc(OC)cc1

>  <score_type>  (31) 
oracle

>  <origin>  (31) 
adg

>  <m_score__min__energy>  (31) 
-13.960000000000001

>  <m_primary>  (31) 
energy

$$$$
31:0
     RDKit          3D

 43 44  0  0  0  0  0  0  0  0999 V2000
   57.6200   20.1440   46.9470 C   0  0  0  0  0  0  0  0  0  0  0  0
   57.4490   21.3590   46.0920 C   0  0  0  0  0  0  0  0  0  0  0  0
   57.3900   21.2460   44.6980 C   0  0  0  0  0  0  0  0  0  0  0  0
   57.2660   22.4020   43.9250 C   0  0  0  0  0  0  0  0  0  0  0  0
   57.2140   23.6520   44.5450 C   0  0  0  0  0  0  0  0  0  0  0  0
   57.2870   23.7350   45.9420 C   0  0  0  0  0  0  0  0  0  0  0  0
   57.2600   24.9090   46.5080 N   0  0  0  0  0  0  0  0  0  0  0  0
   56.4270   26.0470   46.2140 C   0  0  0  0  0  0  0  0  0  0  0  0
   55.1770   25.8980   46.2640 O   0  0  0  0  0  0  0  0  0  0  0  0
   56.9650   27.4020   45.8530 C   0  0  0  0  0  0  0  0  0  0  0  0
   55.9110   28.2040   45.2470 N   0  0  0  0  0  0  0  0  0  0  0  0
   56.1150   29.5490   44.8080 C   0  0  0  0  0  0  0  0  0  0  0  0
   55.1320   30.2750   44.4940 O   0  0  0  0  0  0  0  0  0  0  0  0
   57.4970   30.1090   44.7520 C   0  0  0  0  0  0  0  0  0  0  0  0
   57.4340   31.5090   44.3560 N   0  0  0  0  0  0  0  0  0  0  0  0
   57.6080   32.5900   45.2760 C   0  0  0  0  0  0  0  0  0  0  0  0
   56.6670   33.4090   45.4640 O   0  0  0  0  0  0  0  0  0  0  0  0
   58.8920   32.7560   45.9960 C   0  0  0  0  0  0  0  0  0  0  0  0
   59.5690   33.9890   45.9770 C   0  0  0  0  0  0  0  0  0  0  0  0
   60.7760   34.1470   46.6650 C   0  0  0  0  0  0  0  0  0  0  0  0
   61.3290   33.0760   47.3740 C   0  0  0  0  0  0  0  0  0  0  0  0
   62.8420   33.2900   48.2510 S   0  0  0  0  0  0  0  0  0  0  0  0
   64.1400   33.4730   47.1240 N   0  0  0  0  0  0  0  0  0  0  0  0
   63.0940   32.0930   49.1220 O   0  0  0  0  0  0  0  0  0  0  0  0
   62.7630   34.5130   49.1210 O   0  0  0  0  0  0  0  0  0  0  0  0
   60.6600   31.8450   47.4000 C   0  0  0  0  0  0  0  0  0  0  0  0
   59.4530   31.6840   46.7140 C   0  0  0  0  0  0  0  0  0  0  0  0
   57.4070   22.5890   46.6710 N   0  0  0  0  0  0  0  0  0  0  0  0
   57.5793   20.4332   48.0075 H   0  0  0  0  0  0  0  0  0  0  0  0
   56.8139   19.4274   46.7312 H   0  0  0  0  0  0  0  0  0  0  0  0
   58.5926   19.6777   46.7312 H   0  0  0  0  0  0  0  0  0  0  0  0
   57.4407   20.2579   44.2172 H   0  0  0  0  0  0  0  0  0  0  0  0
   57.2093   22.3281   42.8289 H   0  0  0  0  0  0  0  0  0  0  0  0
   57.1163   24.5659   43.9406 H   0  0  0  0  0  0  0  0  0  0  0  0
   57.3300   27.9041   46.7611 H   0  0  0  0  0  0  0  0  0  0  0  0
   57.7918   27.2863   45.1367 H   0  0  0  0  0  0  0  0  0  0  0  0
   57.9664   30.0285   45.7435 H   0  0  0  0  0  0  0  0  0  0  0  0
   58.0932   29.5455   44.0192 H   0  0  0  0  0  0  0  0  0  0  0  0
   59.1455   34.8355   45.4165 H   0  0  0  0  0  0  0  0  0  0  0  0
   61.2928   35.1179   46.6485 H   0  0  0  0  0  0  0  0  0  0  0  0
   64.7790   32.6580   47.2640 H   0  0  0  0  0  0  0  0  0  0  0  0
   61.0867   31.0017   47.9628 H   0  0  0  0  0  0  0  0  0  0  0  0
   58.9380   30.7122   46.7356 H   0  0  0  0  0  0  0  0  0  0  0  0
  1  2  1  0
  2  3  2  0
  3  4  1  0
  4  5  2  0
  5  6  1  0
  6  7  2  3
  7  8  1  0
  8  9  2  0
  8 10  1  0
 10 11  1  0
 11 12  1  0
 12 13  2  0
 12 14  1  0
 14 15  1  0
 15 16  1  0
 16 17  2  0
 16 18  1  0
 18 19  2  0
 19 20  1  0
 20 21  2  0
 21 22  1  0
 22 23  1  0
 22 24  2  0
 22 25  2  0
 21 26  1  0
 26 27  2  0
  6 28  1  0
 28  2  1  0
 27 18  1  0
  1 29  1  0
  1 30  1  0
  1 31  1  0
  3 32  1  0
  4 33  1  0
  5 34  1  0
 10 35  1  0
 10 36  1  0
 14 37  1  0
 14 38  1  0
 19 39  1  0
 20 40  1  0
 23 41  1  0
 26 42  1  0
 27 43  1  0
M  CHG  4  11  -1  15  -1  23  -1  28  -1
M  END
>  <UniqueID>  (32) 
28

>  <SMILES>  (32) 
Cc1cccc(=NC(=O)C[N-]C(=O)C[N-]C(=O)c2ccc(S([NH-])(=O)=O)cc2)[n-]1

>  <Energy>  (32) 
38.32081112508361

>  <Genealogy>  (32) 
Cc1cccc(=NC(=O)C[N-]C(=O)C[N-]C(=O)c2ccc(S([NH-])(=O)=O)cc2)[n-]1 (protonated)
Cc1cccc(=NC(=O)C[N-]C(=O)C[N-]C(=O)c2ccc(S([NH-])(=O)=O)cc2)[n-]1 (3D coordinates assigned)
Cc1cccc(=NC(=O)C[N-]C(=O)C[N-]C(=O)c2ccc(S([NH-])(=O)=O)cc2)[n-]1 (optimized conformer: 38.32081112508361 kcal/mol)

>  <smiles>  (32) 
Cc1cccc(=NC(=O)CNC(=O)CNC(=O)c2ccc(S(N)(=O)=O)cc2)[nH]1

>  <score_type>  (32) 
oracle

>  <origin>  (32) 
adg

>  <m_score__min__energy>  (32) 
-14.15

>  <m_primary>  (32) 
energy

$$$$
32:0
     RDKit          3D

 35 37  0  0  0  0  0  0  0  0999 V2000
   58.5500   33.6010   47.8570 N   0  0  0  0  0  0  0  0  0  0  0  0
   59.6280   33.3990   49.1930 S   0  0  0  0  0  0  0  0  0  0  0  0
   61.0360   33.6820   48.7470 O   0  0  0  0  0  0  0  0  0  0  0  0
   59.2660   34.3630   50.2870 O   0  0  0  0  0  0  0  0  0  0  0  0
   59.5140   31.7470   49.7900 C   0  0  0  0  0  0  0  0  0  0  0  0
   60.4990   30.8090   49.4570 C   0  0  0  0  0  0  0  0  0  0  0  0
   60.4150   29.5030   49.9420 C   0  0  0  0  0  0  0  0  0  0  0  0
   59.3520   29.1250   50.7650 C   0  0  0  0  0  0  0  0  0  0  0  0
   58.3560   30.0560   51.1180 C   0  0  0  0  0  0  0  0  0  0  0  0
   57.2290   29.6590   51.9980 C   0  0  0  0  0  0  0  0  0  0  0  0
   56.0250   30.2860   51.8950 N   0  0  0  0  0  0  0  0  0  0  0  0
   54.9670   29.9480   52.6820 C   0  0  0  0  0  0  0  0  0  0  0  0
   53.6810   30.6760   52.5230 C   0  0  0  0  0  0  0  0  0  0  0  0
   53.3770   31.2960   51.2950 C   0  0  0  0  0  0  0  0  0  0  0  0
   52.1680   31.9780   51.1230 C   0  0  0  0  0  0  0  0  0  0  0  0
   51.2460   32.0430   52.1690 C   0  0  0  0  0  0  0  0  0  0  0  0
   50.0460   32.7210   51.9970 O   0  0  0  0  0  0  0  0  0  0  0  0
   51.5290   31.4230   53.3890 C   0  0  0  0  0  0  0  0  0  0  0  0
   52.7360   30.7400   53.5660 C   0  0  0  0  0  0  0  0  0  0  0  0
   55.1300   28.9320   53.6380 C   0  0  0  0  0  0  0  0  0  0  0  0
   56.3690   28.2960   53.7320 C   0  0  0  0  0  0  0  0  0  0  0  0
   56.5460   27.3810   54.5780 O   0  0  0  0  0  0  0  0  0  0  0  0
   57.3870   28.6680   52.9160 N   0  0  0  0  0  0  0  0  0  0  0  0
   58.4510   31.3720   50.6240 C   0  0  0  0  0  0  0  0  0  0  0  0
   58.8990   32.9890   47.0860 H   0  0  0  0  0  0  0  0  0  0  0  0
   57.6230   33.2150   48.1510 H   0  0  0  0  0  0  0  0  0  0  0  0
   61.3405   31.1020   48.8120 H   0  0  0  0  0  0  0  0  0  0  0  0
   61.1891   28.7686   49.6749 H   0  0  0  0  0  0  0  0  0  0  0  0
   59.2922   28.0927   51.1402 H   0  0  0  0  0  0  0  0  0  0  0  0
   54.0964   31.2433   50.4645 H   0  0  0  0  0  0  0  0  0  0  0  0
   51.9434   32.4639   50.1620 H   0  0  0  0  0  0  0  0  0  0  0  0
   50.8006   31.4725   54.2118 H   0  0  0  0  0  0  0  0  0  0  0  0
   52.9494   30.2489   54.5269 H   0  0  0  0  0  0  0  0  0  0  0  0
   54.2990   28.6436   54.2985 H   0  0  0  0  0  0  0  0  0  0  0  0
   57.6840   32.1124   50.8951 H   0  0  0  0  0  0  0  0  0  0  0  0
  1  2  1  0
  2  3  2  0
  2  4  2  0
  2  5  1  0
  5  6  2  0
  6  7  1  0
  7  8  2  0
  8  9  1  0
  9 10  1  0
 10 11  2  0
 11 12  1  0
 12 13  1  0
 13 14  2  0
 14 15  1  0
 15 16  2  0
 16 17  1  0
 16 18  1  0
 18 19  2  0
 12 20  2  0
 20 21  1  0
 21 22  2  0
 21 23  1  0
  9 24  2  0
 24  5  1  0
 23 10  1  0
 19 13  1  0
  1 25  1  0
  1 26  1  0
  6 27  1  0
  7 28  1  0
  8 29  1  0
 14 30  1  0
 15 31  1  0
 18 32  1  0
 19 33  1  0
 20 34  1  0
 24 35  1  0
M  CHG  2  17  -1  23  -1
M  END
>  <UniqueID>  (33) 
29

>  <SMILES>  (33) 
NS(=O)(=O)c1cccc(-c2nc(-c3ccc([O-])cc3)cc(=O)[n-]2)c1

>  <Energy>  (33) 
42.90446653810463

>  <Genealogy>  (33) 
NS(=O)(=O)c1cccc(-c2nc(-c3ccc([O-])cc3)cc(=O)[n-]2)c1 (protonated)
NS(=O)(=O)c1cccc(-c2nc(-c3ccc([O-])cc3)cc(=O)[n-]2)c1 (3D coordinates assigned)
NS(=O)(=O)c1cccc(-c2nc(-c3ccc([O-])cc3)cc(=O)[n-]2)c1 (optimized conformer: 42.90446653810463 kcal/mol)

>  <smiles>  (33) 
NS(=O)(=O)c1cccc(-c2nc(-c3ccc(O)cc3)cc(=O)[nH]2)c1

>  <score_type>  (33) 
oracle

>  <origin>  (33) 
adg

>  <m_score__min__energy>  (33) 
-11.58

>  <m_primary>  (33) 
energy

$$$$
33:0
     RDKit          3D

 61 65  0  0  0  0  0  0  0  0999 V2000
   58.2260   32.7110   51.0460 C   0  0  0  0  0  0  0  0  0  0  0  0
   59.4670   32.9060   50.2860 N   0  0  0  0  0  0  0  0  0  0  0  0
   59.6510   34.1350   49.5020 C   0  0  0  0  0  0  0  0  0  0  0  0
   59.2320   33.9270   48.0670 C   0  0  0  0  0  0  0  0  0  0  0  0
   58.1880   33.0400   47.7490 C   0  0  0  0  0  0  0  0  0  0  0  0
   57.7790   32.8750   46.4220 C   0  0  0  0  0  0  0  0  0  0  0  0
   58.4090   33.5910   45.4010 C   0  0  0  0  0  0  0  0  0  0  0  0
   58.0080   33.4340   44.1130 F   0  0  0  0  0  0  0  0  0  0  0  0
   59.4540   34.4690   45.7060 C   0  0  0  0  0  0  0  0  0  0  0  0
   59.8650   34.6380   47.0320 C   0  0  0  0  0  0  0  0  0  0  0  0
   60.4130   31.8220   50.1680 C   0  0  0  0  0  0  0  0  0  0  0  0
   61.2070   31.5780   51.1180 O   0  0  0  0  0  0  0  0  0  0  0  0
   60.4830   30.9810   48.9550 C   0  0  0  0  0  0  0  0  0  0  0  0
   61.3690   31.3250   47.9080 C   0  0  0  0  0  0  0  0  0  0  0  0
   61.4610   30.5220   46.7610 C   0  0  0  0  0  0  0  0  0  0  0  0
   60.6720   29.3740   46.6770 C   0  0  0  0  0  0  0  0  0  0  0  0
   59.8270   29.0310   47.6990 C   0  0  0  0  0  0  0  0  0  0  0  0
   59.7130   29.8050   48.8540 C   0  0  0  0  0  0  0  0  0  0  0  0
   59.1530   27.8020   47.3630 C   0  0  0  0  0  0  0  0  0  0  0  0
   58.3130   27.2230   48.1020 O   0  0  0  0  0  0  0  0  0  0  0  0
   59.5970   27.3090   46.0080 C   0  0  1  0  0  0  0  0  0  0  0  0
   60.2090   25.8850   46.1190 C   0  0  0  0  0  0  0  0  0  0  0  0
   59.1280   25.0080   45.6100 C   0  0  0  0  0  0  0  0  0  0  0  0
   59.0910   23.6130   45.6550 C   0  0  0  0  0  0  0  0  0  0  0  0
   57.9950   22.9470   45.0840 C   0  0  0  0  0  0  0  0  0  0  0  0
   56.9640   23.6770   44.4560 C   0  0  0  0  0  0  0  0  0  0  0  0
   55.8170   22.9820   43.8440 C   0  0  0  0  0  0  0  0  0  0  0  0
   56.0340   22.0270   43.0530 O   0  0  0  0  0  0  0  0  0  0  0  0
   54.4610   23.3530   44.1220 N   0  0  0  0  0  0  0  0  0  0  0  0
   53.9050   24.0720   45.6010 S   0  0  0  0  0  0  0  0  0  0  0  0
   54.4950   23.1620   47.0140 C   0  0  0  0  0  0  0  0  0  0  0  0
   52.4020   24.0320   45.6130 O   0  0  0  0  0  0  0  0  0  0  0  0
   54.3570   25.5030   45.6820 O   0  0  0  0  0  0  0  0  0  0  0  0
   57.0210   25.0850   44.4370 C   0  0  0  0  0  0  0  0  0  0  0  0
   58.1170   25.7250   45.0200 C   0  0  0  0  0  0  0  0  0  0  0  0
   58.3790   27.1840   45.0500 C   0  0  0  0  0  0  0  0  0  0  0  0
   60.6330   28.3910   45.5500 C   0  0  0  0  0  0  0  0  0  0  0  0
   58.4464   32.7456   52.1231 H   0  0  0  0  0  0  0  0  0  0  0  0
   57.5115   33.5079   50.7921 H   0  0  0  0  0  0  0  0  0  0  0  0
   57.7903   31.7334   50.7921 H   0  0  0  0  0  0  0  0  0  0  0  0
   59.0412   34.9376   49.9424 H   0  0  0  0  0  0  0  0  0  0  0  0
   60.7166   34.4073   49.5207 H   0  0  0  0  0  0  0  0  0  0  0  0
   57.6901   32.4725   48.5490 H   0  0  0  0  0  0  0  0  0  0  0  0
   56.9603   32.1807   46.1817 H   0  0  0  0  0  0  0  0  0  0  0  0
   59.9538   35.0279   44.9011 H   0  0  0  0  0  0  0  0  0  0  0  0
   60.6871   35.3302   47.2664 H   0  0  0  0  0  0  0  0  0  0  0  0
   61.9905   32.2286   47.9933 H   0  0  0  0  0  0  0  0  0  0  0  0
   62.1435   30.7928   45.9419 H   0  0  0  0  0  0  0  0  0  0  0  0
   59.0370   29.5040   49.6679 H   0  0  0  0  0  0  0  0  0  0  0  0
   61.1135   25.7955   45.4994 H   0  0  0  0  0  0  0  0  0  0  0  0
   60.5237   25.6305   47.1418 H   0  0  0  0  0  0  0  0  0  0  0  0
   59.9058   23.0462   46.1292 H   0  0  0  0  0  0  0  0  0  0  0  0
   57.9398   21.8492   45.1265 H   0  0  0  0  0  0  0  0  0  0  0  0
   54.1689   23.6650   47.9363 H   0  0  0  0  0  0  0  0  0  0  0  0
   54.0866   22.1409   46.9891 H   0  0  0  0  0  0  0  0  0  0  0  0
   55.5938   23.1181   46.9891 H   0  0  0  0  0  0  0  0  0  0  0  0
   56.2151   25.6706   43.9704 H   0  0  0  0  0  0  0  0  0  0  0  0
   58.6266   27.5606   44.0466 H   0  0  0  0  0  0  0  0  0  0  0  0
   57.5093   27.7708   45.3806 H   0  0  0  0  0  0  0  0  0  0  0  0
   61.6237   27.9391   45.3939 H   0  0  0  0  0  0  0  0  0  0  0  0
   60.3528   28.8604   44.5954 H   0  0  0  0  0  0  0  0  0  0  0  0
  1  2  1  0
  2  3  1  0
  3  4  1  0
  4  5  2  0
  5  6  1  0
  6  7  2  0
  7  8  1  0
  7  9  1  0
  9 10  2  0
  2 11  1  0
 11 12  2  0
 11 13  1  0
 13 14  2  0
 14 15  1  0
 15 16  2  0
 16 17  1  0
 17 18  2  0
 17 19  1  0
 19 20  2  0
 19 21  1  0
 21 22  1  1
 22 23  1  0
 23 24  2  0
 24 25  1  0
 25 26  2  0
 26 27  1  0
 27 28  2  0
 27 29  1  0
 29 30  1  0
 30 31  1  0
 30 32  2  0
 30 33  2  0
 26 34  1  0
 34 35  2  0
 35 36  1  0
 21 37  1  0
 10  4  1  0
 18 13  1  0
 36 21  1  0
 37 16  1  0
 35 23  1  0
  1 38  1  0
  1 39  1  0
  1 40  1  0
  3 41  1  0
  3 42  1  0
  5 43  1  0
  6 44  1  0
  9 45  1  0
 10 46  1  0
 14 47  1  0
 15 48  1  0
 18 49  1  0
 22 50  1  0
 22 51  1  0
 24 52  1  0
 25 53  1  0
 31 54  1  0
 31 55  1  0
 31 56  1  0
 34 57  1  0
 36 58  1  0
 36 59  1  0
 37 60  1  0
 37 61  1  0
M  CHG  1  29  -1
M  END
>  <UniqueID>  (34) 
30

>  <SMILES>  (34) 
CN(Cc1ccc(F)cc1)C(=O)c1ccc2c(c1)C(=O)[C@]1(Cc3ccc(C(=O)[N-]S(C)(=O)=O)cc3C1)C2

>  <Energy>  (34) 
98.54044370179919

>  <Genealogy>  (34) 
CN(Cc1ccc(F)cc1)C(=O)c1ccc2c(c1)C(=O)C1(Cc3ccc(C(=O)[N-]S(C)(=O)=O)cc3C1)C2 (protonated)
CN(Cc1ccc(F)cc1)C(=O)c1ccc2c(c1)C(=O)[C@]1(Cc3ccc(C(=O)[N-]S(C)(=O)=O)cc3C1)C2 (chirality)
CN(Cc1ccc(F)cc1)C(=O)c1ccc2c(c1)C(=O)[C@]1(Cc3ccc(C(=O)[N-]S(C)(=O)=O)cc3C1)C2 (3D coordinates assigned)
CN(Cc1ccc(F)cc1)C(=O)c1ccc2c(c1)C(=O)[C@]1(Cc3ccc(C(=O)[N-]S(C)(=O)=O)cc3C1)C2 (nonaromatic ring conformer: 98.54044370179919 kcal/mol)

>  <smiles>  (34) 
CN(Cc1ccc(F)cc1)C(=O)c1ccc2c(c1)C(=O)C1(Cc3ccc(C(=O)NS(C)(=O)=O)cc3C1)C2

>  <score_type>  (34) 
oracle

>  <origin>  (34) 
adg

>  <m_score__min__energy>  (34) 
-12.06

>  <m_primary>  (34) 
energy

$$$$
34:0
     RDKit          3D

 55 58  0  0  0  0  0  0  0  0999 V2000
   55.1280   27.4470   46.2770 H   0  0  0  0  0  0  0  0  0  0  0  0
   55.9430   27.4350   45.6250 N   0  0  0  0  0  0  0  0  0  0  0  0
   56.6670   28.6270   45.3360 C   0  0  0  0  0  0  0  0  0  0  0  0
   56.0370   29.6950   45.0970 O   0  0  0  0  0  0  0  0  0  0  0  0
   58.1440   28.6370   45.3930 C   0  0  0  0  0  0  0  0  0  0  0  0
   58.8580   28.4800   44.1900 C   0  0  0  0  0  0  0  0  0  0  0  0
   58.3129   28.2919   43.2533 H   0  0  0  0  0  0  0  0  0  0  0  0
   60.2530   28.5610   44.1750 C   0  0  0  0  0  0  0  0  0  0  0  0
   60.7992   28.4407   43.2278 H   0  0  0  0  0  0  0  0  0  0  0  0
   60.9550   28.7940   45.3580 C   0  0  0  0  0  0  0  0  0  0  0  0
   62.0521   28.8724   45.3401 H   0  0  0  0  0  0  0  0  0  0  0  0
   60.2640   28.9280   46.5670 C   0  0  0  0  0  0  0  0  0  0  0  0
   60.8233   29.1101   47.4965 H   0  0  0  0  0  0  0  0  0  0  0  0
   58.8580   28.8320   46.6060 C   0  0  0  0  0  0  0  0  0  0  0  0
   58.1660   28.9620   47.9400 C   0  0  0  0  0  0  0  0  0  0  0  0
   57.8407   30.0027   48.0852 H   0  0  0  0  0  0  0  0  0  0  0  0
   57.2889   28.2986   47.9662 H   0  0  0  0  0  0  0  0  0  0  0  0
   59.0940   28.5880   49.0040 N   0  0  0  0  0  0  0  0  0  0  0  0
   59.2600   29.2560   50.1050 C   0  0  0  0  0  0  0  0  0  0  0  0
   58.2250   29.3710   50.9750 N   0  0  0  0  0  0  0  0  0  0  0  0
   58.3740   30.0540   52.1390 C   0  0  0  0  0  0  0  0  0  0  0  0
   57.3690   30.1310   52.9620 N   0  0  0  0  0  0  0  0  0  0  0  0
   55.9770   30.3000   52.6340 C   0  0  0  0  0  0  0  0  0  0  0  0
   55.4250   31.5580   52.3110 C   0  0  0  0  0  0  0  0  0  0  0  0
   56.0613   32.4552   52.3238 H   0  0  0  0  0  0  0  0  0  0  0  0
   54.0730   31.6680   51.9750 C   0  0  0  0  0  0  0  0  0  0  0  0
   53.6434   32.6546   51.7467 H   0  0  0  0  0  0  0  0  0  0  0  0
   53.2630   30.5260   51.9280 C   0  0  0  0  0  0  0  0  0  0  0  0
   51.5720   30.6680   51.4440 S   0  0  0  0  0  0  0  0  0  0  0  0
   50.6990   29.8850   52.3840 O   0  0  0  0  0  0  0  0  0  0  0  0
   51.4090   30.1310   50.0480 O   0  0  0  0  0  0  0  0  0  0  0  0
   51.0820   32.3270   51.4860 N   0  0  0  0  0  0  0  0  0  0  0  0
   51.0270   32.6510   50.4940 H   0  0  0  0  0  0  0  0  0  0  0  0
   53.8160   29.2720   52.2070 C   0  0  0  0  0  0  0  0  0  0  0  0
   53.1879   28.3708   52.1496 H   0  0  0  0  0  0  0  0  0  0  0  0
   55.1660   29.1600   52.5590 C   0  0  0  0  0  0  0  0  0  0  0  0
   55.5931   28.1703   52.7782 H   0  0  0  0  0  0  0  0  0  0  0  0
   59.5810   30.6020   52.4410 N   0  0  0  0  0  0  0  0  0  0  0  0
   60.6240   30.4940   51.5760 C   0  0  0  0  0  0  0  0  0  0  0  0
   61.7820   31.0040   51.8630 N   0  0  0  0  0  0  0  0  0  0  0  0
   63.0180   30.6690   51.1580 C   0  0  0  0  0  0  0  0  0  0  0  0
   63.8765   30.8248   51.8278 H   0  0  0  0  0  0  0  0  0  0  0  0
   62.9874   29.6157   50.8422 H   0  0  0  0  0  0  0  0  0  0  0  0
   63.1580   31.5540   49.9470 C   0  0  0  0  0  0  0  0  0  0  0  0
   62.2690   31.4000   48.8660 C   0  0  0  0  0  0  0  0  0  0  0  0
   61.4987   30.6154   48.8988 H   0  0  0  0  0  0  0  0  0  0  0  0
   62.3600   32.2390   47.7510 C   0  0  0  0  0  0  0  0  0  0  0  0
   61.6651   32.1097   46.9081 H   0  0  0  0  0  0  0  0  0  0  0  0
   63.3340   33.2430   47.7060 C   0  0  0  0  0  0  0  0  0  0  0  0
   63.4080   33.8980   46.8254 H   0  0  0  0  0  0  0  0  0  0  0  0
   64.2140   33.4140   48.7810 C   0  0  0  0  0  0  0  0  0  0  0  0
   64.9783   34.2042   48.7430 H   0  0  0  0  0  0  0  0  0  0  0  0
   64.1250   32.5820   49.9060 C   0  0  0  0  0  0  0  0  0  0  0  0
   64.9940   32.7850   50.9770 O   0  0  0  0  0  0  0  0  0  0  0  0
   60.4570   29.8260   50.4060 N   0  0  0  0  0  0  0  0  0  0  0  0
  1  2  1  0
  2  3  1  0
  3  4  2  0
  3  5  1  0
  5  6  2  0
  6  7  1  0
  6  8  1  0
  8  9  1  0
  8 10  2  0
 10 11  1  0
 10 12  1  0
 12 13  1  0
 12 14  2  0
 14 15  1  0
 15 16  1  0
 15 17  1  0
 15 18  1  0
 18 19  2  0
 19 20  1  0
 20 21  1  0
 21 22  2  3
 22 23  1  0
 23 24  2  0
 24 25  1  0
 24 26  1  0
 26 27  1  0
 26 28  2  0
 28 29  1  0
 29 30  2  0
 29 31  2  0
 29 32  1  0
 32 33  1  0
 28 34  1  0
 34 35  1  0
 34 36  2  0
 36 37  1  0
 21 38  1  0
 38 39  1  0
 39 40  2  3
 40 41  1  0
 41 42  1  0
 41 43  1  0
 41 44  1  0
 44 45  2  0
 45 46  1  0
 45 47  1  0
 47 48  1  0
 47 49  2  0
 49 50  1  0
 49 51  1  0
 51 52  1  0
 51 53  2  0
 53 54  1  0
 39 55  1  0
 14  5  1  0
 55 19  1  0
 36 23  1  0
 53 44  1  0
M  CHG  6   2  -1  20  -1  32  -1  38  -1  54  -1  55  -1
M  END
>  <UniqueID>  (35) 
31

>  <SMILES>  (35) 
[NH-]C(=O)c1ccccc1C/N=c1\[n-]c(=NCc2ccccc2[O-])[n-]c(=Nc2ccc(S([NH-])(=O)=O)cc2)[n-]1

>  <Energy>  (35) 
70.72811896327119

>  <Genealogy>  (35) 
[NH-]C(=O)c1ccccc1CN=c1[n-]c(=NCc2ccccc2[O-])[n-]c(=Nc2ccc(S([NH-])(=O)=O)cc2)[n-]1 (protonated)
[NH-]C(=O)c1ccccc1C/N=c1\[n-]c(=NCc2ccccc2[O-])[n-]c(=Nc2ccc(S([NH-])(=O)=O)cc2)[n-]1 (cis-trans isomerization)
[NH-]C(=O)c1ccccc1C/N=c1\[n-]c(=NCc2ccccc2[O-])[n-]c(=Nc2ccc(S([NH-])(=O)=O)cc2)[n-]1 (3D coordinates assigned)
[NH-]C(=O)c1ccccc1C/N=c1\[n-]c(=NCc2ccccc2[O-])[n-]c(=Nc2ccc(S([NH-])(=O)=O)cc2)[n-]1 (optimized conformer: 70.72811896327119 kcal/mol)

>  <smiles>  (35) 
NC(=O)c1ccccc1CN=c1[nH]c(=NCc2ccccc2O)[nH]c(=Nc2ccc(S(N)(=O)=O)cc2)[nH]1

>  <score_type>  (35) 
oracle

>  <origin>  (35) 
adg

>  <m_score__min__energy>  (35) 
-18.510000000000002

>  <m_primary>  (35) 
energy

$$$$
35:0
     RDKit          3D

 59 62  0  0  0  0  0  0  0  0999 V2000
   56.5960   28.9980   44.1110 C   0  0  0  0  0  0  0  0  0  0  0  0
   57.7520   28.5930   44.6600 C   0  0  0  0  0  0  0  0  0  0  0  0
   58.2160   27.2730   44.7730 C   0  0  0  0  0  0  0  0  0  0  0  0
   57.5990   26.0950   44.5500 C   0  0  0  0  0  0  0  0  0  0  0  0
   57.0600   25.2020   45.5860 C   0  0  0  0  0  0  0  0  0  0  0  0
   57.7730   24.2200   46.1670 N   0  0  0  0  0  0  0  0  0  0  0  0
   56.9510   23.7710   47.1390 C   0  0  0  0  0  0  0  0  0  0  0  0
   57.2650   22.8250   47.9080 O   0  0  0  0  0  0  0  0  0  0  0  0
   55.7740   24.4250   47.2360 N   0  0  0  0  0  0  0  0  0  0  0  0
   55.8640   25.3410   46.2580 C   0  0  0  0  0  0  0  0  0  0  0  0
   54.8890   26.2990   45.9960 O   0  0  0  0  0  0  0  0  0  0  0  0
   59.5170   27.3560   45.2380 C   0  0  0  0  0  0  0  0  0  0  0  0
   59.7750   28.6920   45.4650 C   0  0  0  0  0  0  0  0  0  0  0  0
   61.0440   29.2200   46.0630 C   0  0  0  0  0  0  0  0  0  0  0  0
   58.7120   29.4490   45.1060 N   0  0  0  0  0  0  0  0  0  0  0  0
   58.5920   30.9020   45.3030 C   0  0  0  0  0  0  0  0  0  0  0  0
   58.5070   31.5970   43.9420 C   0  0  0  0  0  0  0  0  0  0  0  0
   57.4420   32.7090   43.9280 C   0  0  0  0  0  0  0  0  0  0  0  0
   57.8620   33.9330   44.6440 N   0  0  0  0  0  0  0  0  0  0  0  0
   57.2100   34.1670   45.9500 C   0  0  0  0  0  0  0  0  0  0  0  0
   57.9380   33.4800   47.1190 C   0  0  0  0  0  0  0  0  0  0  0  0
   59.3870   33.4410   46.9050 N   0  0  0  0  0  0  0  0  0  0  0  0
   60.1890   32.4770   47.6130 C   0  0  0  0  0  0  0  0  0  0  0  0
   59.7360   31.3140   47.7950 O   0  0  0  0  0  0  0  0  0  0  0  0
   61.5270   32.8190   48.1450 C   0  0  0  0  0  0  0  0  0  0  0  0
   61.6750   33.3010   49.4560 C   0  0  0  0  0  0  0  0  0  0  0  0
   62.9460   33.6000   49.9570 C   0  0  0  0  0  0  0  0  0  0  0  0
   64.0760   33.4130   49.1590 C   0  0  0  0  0  0  0  0  0  0  0  0
   63.9400   32.9230   47.8600 C   0  0  0  0  0  0  0  0  0  0  0  0
   62.6730   32.6200   47.3540 C   0  0  0  0  0  0  0  0  0  0  0  0
   59.9830   34.3750   45.9470 C   0  0  0  0  0  0  0  0  0  0  0  0
   59.3140   34.2280   44.5730 C   0  0  0  0  0  0  0  0  0  0  0  0
   56.3457   30.0688   44.0833 H   0  0  0  0  0  0  0  0  0  0  0  0
   55.8990   28.2591   43.6888 H   0  0  0  0  0  0  0  0  0  0  0  0
   57.4896   25.7748   43.5033 H   0  0  0  0  0  0  0  0  0  0  0  0
   54.3290   26.6850   46.7450 H   0  0  0  0  0  0  0  0  0  0  0  0
   60.2116   26.5179   45.3961 H   0  0  0  0  0  0  0  0  0  0  0  0
   60.9724   29.1902   47.1603 H   0  0  0  0  0  0  0  0  0  0  0  0
   61.8905   28.5994   45.7338 H   0  0  0  0  0  0  0  0  0  0  0  0
   61.2004   30.2579   45.7338 H   0  0  0  0  0  0  0  0  0  0  0  0
   57.6829   31.1194   45.8829 H   0  0  0  0  0  0  0  0  0  0  0  0
   59.4727   31.2716   45.8487 H   0  0  0  0  0  0  0  0  0  0  0  0
   59.4862   32.0400   43.7076 H   0  0  0  0  0  0  0  0  0  0  0  0
   58.2217   30.8437   43.1929 H   0  0  0  0  0  0  0  0  0  0  0  0
   57.2273   32.9732   42.8820 H   0  0  0  0  0  0  0  0  0  0  0  0
   56.5556   32.3165   44.4478 H   0  0  0  0  0  0  0  0  0  0  0  0
   57.1860   35.2501   46.1404 H   0  0  0  0  0  0  0  0  0  0  0  0
   56.1993   33.7366   45.8942 H   0  0  0  0  0  0  0  0  0  0  0  0
   57.7289   34.0353   48.0453 H   0  0  0  0  0  0  0  0  0  0  0  0
   57.5732   32.4447   47.1902 H   0  0  0  0  0  0  0  0  0  0  0  0
   60.7881   33.4438   50.0908 H   0  0  0  0  0  0  0  0  0  0  0  0
   63.0555   33.9834   50.9822 H   0  0  0  0  0  0  0  0  0  0  0  0
   65.0741   33.6521   49.5547 H   0  0  0  0  0  0  0  0  0  0  0  0
   64.8315   32.7749   47.2329 H   0  0  0  0  0  0  0  0  0  0  0  0
   62.5715   32.2242   46.3327 H   0  0  0  0  0  0  0  0  0  0  0  0
   59.8448   35.4043   46.3097 H   0  0  0  0  0  0  0  0  0  0  0  0
   61.0554   34.1510   45.8487 H   0  0  0  0  0  0  0  0  0  0  0  0
   59.4504   35.1680   44.0182 H   0  0  0  0  0  0  0  0  0  0  0  0
   59.7914   33.3720   44.0735 H   0  0  0  0  0  0  0  0  0  0  0  0
  1  2  2  0
  2  3  1  0
  3  4  2  3
  4  5  1  0
  5  6  1  0
  6  7  1  0
  7  8  2  0
  7  9  1  0
  9 10  1  0
 10 11  1  0
  3 12  1  0
 12 13  2  0
 13 14  1  0
 13 15  1  0
 15 16  1  0
 16 17  1  0
 17 18  1  0
 18 19  1  0
 19 20  1  0
 20 21  1  0
 21 22  1  0
 22 23  1  0
 23 24  2  0
 23 25  1  0
 25 26  2  0
 26 27  1  0
 27 28  2  0
 28 29  1  0
 29 30  2  0
 22 31  1  0
 31 32  1  0
 15  2  1  0
 32 19  1  0
 10  5  2  0
 30 25  1  0
  1 33  1  0
  1 34  1  0
  4 35  1  0
 11 36  1  0
 12 37  1  0
 14 38  1  0
 14 39  1  0
 14 40  1  0
 16 41  1  0
 16 42  1  0
 17 43  1  0
 17 44  1  0
 18 45  1  0
 18 46  1  0
 20 47  1  0
 20 48  1  0
 21 49  1  0
 21 50  1  0
 26 51  1  0
 27 52  1  0
 28 53  1  0
 29 54  1  0
 30 55  1  0
 31 56  1  0
 31 57  1  0
 32 58  1  0
 32 59  1  0
M  CHG  2   6  -1   9  -1
M  END
>  <UniqueID>  (36) 
32

>  <SMILES>  (36) 
C=c1c(=Cc2[n-]c(=O)[n-]c2O)cc(C)n1CCCN1CCN(C(=O)c2ccccc2)CC1

>  <Energy>  (36) 
142.83819879860891

>  <Genealogy>  (36) 
C=c1c(=Cc2[n-]c(=O)[n-]c2O)cc(C)n1CCCN1CCN(C(=O)c2ccccc2)CC1 (protonated)
C=c1c(=Cc2[n-]c(=O)[n-]c2O)cc(C)n1CCCN1CCN(C(=O)c2ccccc2)CC1 (3D coordinates assigned)
C=c1c(=Cc2[n-]c(=O)[n-]c2O)cc(C)n1CCCN1CCN(C(=O)c2ccccc2)CC1 (nonaromatic ring conformer: 142.83819879860891 kcal/mol)

>  <smiles>  (36) 
C=c1c(=Cc2[nH]c(=O)[nH]c2O)cc(C)n1CCCN1CCN(C(=O)c2ccccc2)CC1

>  <score_type>  (36) 
oracle

>  <origin>  (36) 
adg

>  <m_score__min__energy>  (36) 
-14.039999999999999

>  <m_primary>  (36) 
energy

$$$$
36:0
     RDKit          3D

 34 36  0  0  0  0  0  0  0  0999 V2000
   55.5180   28.6290   45.0950 O   0  0  0  0  0  0  0  0  0  0  0  0
   56.6700   28.2620   45.4580 C   0  0  0  0  0  0  0  0  0  0  0  0
   57.7980   29.1370   45.2820 N   0  0  0  0  0  0  0  0  0  0  0  0
   57.8730   30.4090   45.5450 C   0  0  0  0  0  0  0  0  0  0  0  0
   57.1330   31.3180   44.8730 N   0  0  0  0  0  0  0  0  0  0  0  0
   57.3680   32.5860   45.3080 C   0  0  0  0  0  0  0  0  0  0  0  0
   58.2930   32.6840   46.3420 C   0  0  0  0  0  0  0  0  0  0  0  0
   58.7900   33.9550   46.9550 C   0  0  0  0  0  0  0  0  0  0  0  0
   60.2290   33.8020   47.3640 C   0  0  0  0  0  0  0  0  0  0  0  0
   60.5580   33.4820   48.6910 C   0  0  0  0  0  0  0  0  0  0  0  0
   61.8940   33.3050   49.0620 C   0  0  0  0  0  0  0  0  0  0  0  0
   62.9140   33.4340   48.1140 C   0  0  0  0  0  0  0  0  0  0  0  0
   64.2380   33.2530   48.5120 O   0  0  0  0  0  0  0  0  0  0  0  0
   62.5900   33.7400   46.7820 C   0  0  0  0  0  0  0  0  0  0  0  0
   63.5890   33.8660   45.8230 O   0  0  0  0  0  0  0  0  0  0  0  0
   61.2530   33.9180   46.4100 C   0  0  0  0  0  0  0  0  0  0  0  0
   58.8560   31.1420   46.7090 S   0  0  0  0  0  0  0  0  0  0  0  0
   56.8470   26.9170   46.0690 C   0  0  0  0  0  0  0  0  0  0  0  0
   58.1230   26.5140   46.5080 C   0  0  0  0  0  0  0  0  0  0  0  0
   58.3120   25.2590   47.0850 C   0  0  0  0  0  0  0  0  0  0  0  0
   57.2230   24.4000   47.2240 C   0  0  0  0  0  0  0  0  0  0  0  0
   57.3750   23.2630   47.7410 O   0  0  0  0  0  0  0  0  0  0  0  0
   55.9950   24.7900   46.7990 N   0  0  0  0  0  0  0  0  0  0  0  0
   55.7760   26.0080   46.2320 C   0  0  0  0  0  0  0  0  0  0  0  0
   54.4870   26.3280   45.8250 O   0  0  0  0  0  0  0  0  0  0  0  0
   56.8659   33.4641   44.8758 H   0  0  0  0  0  0  0  0  0  0  0  0
   58.7047   34.7705   46.2217 H   0  0  0  0  0  0  0  0  0  0  0  0
   58.1852   34.1870   47.8441 H   0  0  0  0  0  0  0  0  0  0  0  0
   59.7615   33.3702   49.4414 H   0  0  0  0  0  0  0  0  0  0  0  0
   62.1444   33.0629   50.1054 H   0  0  0  0  0  0  0  0  0  0  0  0
   64.9850   33.1090   47.8430 H   0  0  0  0  0  0  0  0  0  0  0  0
   61.0025   34.1501   45.3643 H   0  0  0  0  0  0  0  0  0  0  0  0
   58.9787   27.1959   46.3946 H   0  0  0  0  0  0  0  0  0  0  0  0
   59.3106   24.9497   47.4272 H   0  0  0  0  0  0  0  0  0  0  0  0
  1  2  2  0
  2  3  1  0
  3  4  2  3
  4  5  1  0
  5  6  1  0
  6  7  2  0
  7  8  1  0
  8  9  1  0
  9 10  2  0
 10 11  1  0
 11 12  2  0
 12 13  1  0
 12 14  1  0
 14 15  1  0
 14 16  2  0
  7 17  1  0
  2 18  1  0
 18 19  1  0
 19 20  2  0
 20 21  1  0
 21 22  2  0
 21 23  1  0
 23 24  1  0
 24 25  1  0
 17  4  1  0
 24 18  2  0
 16  9  1  0
  6 26  1  0
  8 27  1  0
  8 28  1  0
 10 29  1  0
 11 30  1  0
 13 31  1  0
 16 32  1  0
 19 33  1  0
 20 34  1  0
M  CHG  4   5  -1  15  -1  23  -1  25  -1
M  END
>  <UniqueID>  (37) 
33

>  <SMILES>  (37) 
O=C(N=c1[n-]cc(Cc2ccc(O)c([O-])c2)s1)c1ccc(=O)[n-]c1[O-]

>  <Energy>  (37) 
72.5739800653006

>  <Genealogy>  (37) 
O=C(N=c1[n-]cc(Cc2ccc(O)c([O-])c2)s1)c1ccc(=O)[n-]c1[O-] (protonated)
O=C(N=c1[n-]cc(Cc2ccc(O)c([O-])c2)s1)c1ccc(=O)[n-]c1[O-] (3D coordinates assigned)
O=C(N=c1[n-]cc(Cc2ccc(O)c([O-])c2)s1)c1ccc(=O)[n-]c1[O-] (optimized conformer: 72.5739800653006 kcal/mol)

>  <smiles>  (37) 
O=C(N=c1[nH]cc(Cc2ccc(O)c(O)c2)s1)c1ccc(=O)[nH]c1O

>  <score_type>  (37) 
oracle

>  <origin>  (37) 
adg

>  <m_score__min__energy>  (37) 
-16.140000000000001

>  <m_primary>  (37) 
energy

$$$$
37:0
     RDKit          3D

 64 68  0  0  0  0  0  0  0  0999 V2000
   54.1090   26.7150   46.7640 H   0  0  0  0  0  0  0  0  0  0  0  0
   54.8160   26.4510   46.0890 O   0  0  0  0  0  0  0  0  0  0  0  0
   55.8710   25.6090   46.4310 C   0  0  0  0  0  0  0  0  0  0  0  0
   55.7100   24.3130   46.7430 N   0  0  0  0  0  0  0  0  0  0  0  0
   56.9740   23.9030   46.9740 C   0  0  0  0  0  0  0  0  0  0  0  0
   57.2550   22.7200   47.3000 O   0  0  0  0  0  0  0  0  0  0  0  0
   57.9120   24.8560   46.8200 N   0  0  0  0  0  0  0  0  0  0  0  0
   57.2050   25.9520   46.4920 C   0  0  0  0  0  0  0  0  0  0  0  0
   57.7960   27.2280   46.0450 C   0  0  0  0  0  0  0  0  0  0  0  0
   57.3921   27.6756   45.1249 H   0  0  0  0  0  0  0  0  0  0  0  0
   58.7880   27.8900   46.6690 C   0  0  0  0  0  0  0  0  0  0  0  0
   59.2590   27.5280   47.9170 C   0  0  0  0  0  0  0  0  0  0  0  0
   58.9793   26.6302   48.4877 H   0  0  0  0  0  0  0  0  0  0  0  0
   60.1470   28.5080   48.3100 C   0  0  0  0  0  0  0  0  0  0  0  0
   60.7750   28.5420   49.6480 C   0  0  0  0  0  0  0  0  0  0  0  0
   61.1690   27.4700   50.1790 O   0  0  0  0  0  0  0  0  0  0  0  0
   61.0360   29.7950   50.3010 N   0  0  0  0  0  0  0  0  0  0  0  0
   60.0110   30.8470   50.3440 C   0  0  0  0  0  0  0  0  0  0  0  0
   59.2093   30.5963   49.6337 H   0  0  0  0  0  0  0  0  0  0  0  0
   59.6158   30.9071   51.3688 H   0  0  0  0  0  0  0  0  0  0  0  0
   60.6040   32.2160   49.9690 C   0  0  0  0  0  0  0  0  0  0  0  0
   60.4901   32.3575   48.8841 H   0  0  0  0  0  0  0  0  0  0  0  0
   60.0578   32.9717   50.5527 H   0  0  0  0  0  0  0  0  0  0  0  0
   62.1070   32.3690   50.3270 C   0  0  0  0  0  0  0  0  0  0  0  0
   62.7052   32.0836   49.4491 H   0  0  0  0  0  0  0  0  0  0  0  0
   62.4340   33.8410   50.6640 C   0  0  0  0  0  0  0  0  0  0  0  0
   62.2331   34.4606   49.7776 H   0  0  0  0  0  0  0  0  0  0  0  0
   61.8030   34.1417   51.5134 H   0  0  0  0  0  0  0  0  0  0  0  0
   63.8750   34.0250   51.0690 C   0  0  0  0  0  0  0  0  0  0  0  0
   64.2150   34.9620   52.0610 C   0  0  0  0  0  0  0  0  0  0  0  0
   63.4249   35.5433   52.5590 H   0  0  0  0  0  0  0  0  0  0  0  0
   65.5520   35.1580   52.4170 C   0  0  0  0  0  0  0  0  0  0  0  0
   65.8123   35.8881   53.1975 H   0  0  0  0  0  0  0  0  0  0  0  0
   66.5580   34.4260   51.7810 C   0  0  0  0  0  0  0  0  0  0  0  0
   67.6107   34.5817   52.0596 H   0  0  0  0  0  0  0  0  0  0  0  0
   66.2280   33.4960   50.7910 C   0  0  0  0  0  0  0  0  0  0  0  0
   67.0221   32.9226   50.2903 H   0  0  0  0  0  0  0  0  0  0  0  0
   64.8930   33.2930   50.4360 C   0  0  0  0  0  0  0  0  0  0  0  0
   64.6378   32.5579   49.6585 H   0  0  0  0  0  0  0  0  0  0  0  0
   62.5050   31.4180   51.4750 C   0  0  0  0  0  0  0  0  0  0  0  0
   63.5665   31.5693   51.7206 H   0  0  0  0  0  0  0  0  0  0  0  0
   61.8812   31.6362   52.3543 H   0  0  0  0  0  0  0  0  0  0  0  0
   62.2850   29.9590   51.0550 C   0  0  0  0  0  0  0  0  0  0  0  0
   63.1272   29.6384   50.4242 H   0  0  0  0  0  0  0  0  0  0  0  0
   62.2197   29.3454   51.9656 H   0  0  0  0  0  0  0  0  0  0  0  0
   60.2890   29.4420   47.3350 N   0  0  0  0  0  0  0  0  0  0  0  0
   61.2440   30.5630   47.3280 C   0  0  0  0  0  0  0  0  0  0  0  0
   61.7470   30.6027   48.3054 H   0  0  0  0  0  0  0  0  0  0  0  0
   61.9576   30.3861   46.5098 H   0  0  0  0  0  0  0  0  0  0  0  0
   60.5770   31.8980   47.0720 C   0  0  0  0  0  0  0  0  0  0  0  0
   61.3810   33.0030   46.7430 C   0  0  0  0  0  0  0  0  0  0  0  0
   62.4755   32.8952   46.7224 H   0  0  0  0  0  0  0  0  0  0  0  0
   60.8000   34.2370   46.4420 C   0  0  0  0  0  0  0  0  0  0  0  0
   61.4375   35.0974   46.1904 H   0  0  0  0  0  0  0  0  0  0  0  0
   59.4110   34.3800   46.4600 C   0  0  0  0  0  0  0  0  0  0  0  0
   58.9558   35.3540   46.2275 H   0  0  0  0  0  0  0  0  0  0  0  0
   58.5990   33.2870   46.7730 C   0  0  0  0  0  0  0  0  0  0  0  0
   57.5051   33.4015   46.7879 H   0  0  0  0  0  0  0  0  0  0  0  0
   59.1750   32.0490   47.0670 C   0  0  0  0  0  0  0  0  0  0  0  0
   58.5313   31.1869   47.2959 H   0  0  0  0  0  0  0  0  0  0  0  0
   59.4900   29.0490   46.3050 C   0  0  0  0  0  0  0  0  0  0  0  0
   59.5270   29.6070   45.0840 C   0  0  0  0  0  0  0  0  0  0  0  0
   60.1147   30.5213   44.9147 H   0  0  0  0  0  0  0  0  0  0  0  0
   58.9696   29.1497   44.2532 H   0  0  0  0  0  0  0  0  0  0  0  0
  1  2  1  0
  2  3  1  0
  3  4  1  0
  4  5  1  0
  5  6  2  0
  5  7  1  0
  7  8  1  0
  8  9  1  0
  9 10  1  0
  9 11  2  0
 11 12  1  0
 12 13  1  0
 12 14  2  0
 14 15  1  0
 15 16  2  0
 15 17  1  0
 17 18  1  0
 18 19  1  0
 18 20  1  0
 18 21  1  0
 21 22  1  0
 21 23  1  0
 21 24  1  0
 24 25  1  0
 24 26  1  0
 26 27  1  0
 26 28  1  0
 26 29  1  0
 29 30  2  0
 30 31  1  0
 30 32  1  0
 32 33  1  0
 32 34  2  0
 34 35  1  0
 34 36  1  0
 36 37  1  0
 36 38  2  0
 38 39  1  0
 24 40  1  0
 40 41  1  0
 40 42  1  0
 40 43  1  0
 43 44  1  0
 43 45  1  0
 14 46  1  0
 46 47  1  0
 47 48  1  0
 47 49  1  0
 47 50  1  0
 50 51  2  0
 51 52  1  0
 51 53  1  0
 53 54  1  0
 53 55  2  0
 55 56  1  0
 55 57  1  0
 57 58  1  0
 57 59  2  0
 59 60  1  0
 46 61  1  0
 61 62  2  0
 62 63  1  0
 62 64  1  0
  8  3  2  0
 61 11  1  0
 43 17  1  0
 59 50  1  0
 38 29  1  0
M  CHG  2   4  -1   7  -1
M  END
>  <UniqueID>  (38) 
34

>  <SMILES>  (38) 
C=c1/c(=C\c2[n-]c(=O)[n-]c2O)cc(C(=O)N2CCC(Cc3ccccc3)CC2)n1Cc1ccccc1

>  <Energy>  (38) 
144.97246178456615

>  <Genealogy>  (38) 
C=c1c(=Cc2[n-]c(=O)[n-]c2O)cc(C(=O)N2CCC(Cc3ccccc3)CC2)n1Cc1ccccc1 (protonated)
C=c1/c(=C\c2[n-]c(=O)[n-]c2O)cc(C(=O)N2CCC(Cc3ccccc3)CC2)n1Cc1ccccc1 (cis-trans isomerization)
C=c1/c(=C\c2[n-]c(=O)[n-]c2O)cc(C(=O)N2CCC(Cc3ccccc3)CC2)n1Cc1ccccc1 (3D coordinates assigned)
C=c1/c(=C\c2[n-]c(=O)[n-]c2O)cc(C(=O)N2CCC(Cc3ccccc3)CC2)n1Cc1ccccc1 (nonaromatic ring conformer: 144.97246178456615 kcal/mol)

>  <smiles>  (38) 
C=c1c(=Cc2[nH]c(=O)[nH]c2O)cc(C(=O)N2CCC(Cc3ccccc3)CC2)n1Cc1ccccc1

>  <score_type>  (38) 
oracle

>  <origin>  (38) 
adg

>  <m_score__min__energy>  (38) 
-14.6

>  <m_primary>  (38) 
energy

$$$$
38:0
     RDKit          3D

 51 54  0  0  0  0  0  0  0  0999 V2000
   55.0890   29.3150   44.2470 O   0  0  0  0  0  0  0  0  0  0  0  0
   56.0750   29.7960   44.8660 C   0  0  0  0  0  0  0  0  0  0  0  0
   56.6520   31.0200   44.4010 N   0  0  0  0  0  0  0  0  0  0  0  0
   57.4360   31.9340   45.1840 C   0  0  0  0  0  0  0  0  0  0  0  0
   57.1770   33.3150   45.1900 C   0  0  0  0  0  0  0  0  0  0  0  0
   57.9730   34.1740   45.9510 C   0  0  0  0  0  0  0  0  0  0  0  0
   59.0430   33.6690   46.6930 C   0  0  0  0  0  0  0  0  0  0  0  0
   59.3410   32.2970   46.6630 C   0  0  0  0  0  0  0  0  0  0  0  0
   60.4740   31.7520   47.4440 C   0  0  0  0  0  0  0  0  0  0  0  0
   60.4050   30.5690   47.8750 O   0  0  0  0  0  0  0  0  0  0  0  0
   61.6550   32.5330   47.7120 N   0  0  0  0  0  0  0  0  0  0  0  0
   62.3200   32.4530   49.0150 C   0  0  0  0  0  0  0  0  0  0  0  0
   63.8390   32.4800   48.8190 C   0  0  0  0  0  0  0  0  0  0  0  0
   64.2250   33.5870   48.0240 O   0  0  0  0  0  0  0  0  0  0  0  0
   63.6970   33.4460   46.7170 C   0  0  0  0  0  0  0  0  0  0  0  0
   62.1670   33.5060   46.7400 C   0  0  0  0  0  0  0  0  0  0  0  0
   58.5250   31.4360   45.9090 C   0  0  0  0  0  0  0  0  0  0  0  0
   56.6760   29.0720   45.9470 N   0  0  0  0  0  0  0  0  0  0  0  0
   57.5700   27.9540   45.8320 C   0  0  0  0  0  0  0  0  0  0  0  0
   58.8710   28.0850   46.3250 C   0  0  0  0  0  0  0  0  0  0  0  0
   59.7620   27.0120   46.2620 C   0  0  0  0  0  0  0  0  0  0  0  0
   59.3540   25.7930   45.7150 C   0  0  0  0  0  0  0  0  0  0  0  0
   58.0460   25.6320   45.2250 C   0  0  0  0  0  0  0  0  0  0  0  0
   57.6210   24.3210   44.6710 C   0  0  0  0  0  0  0  0  0  0  0  0
   58.2530   23.1210   45.0450 C   0  0  0  0  0  0  0  0  0  0  0  0
   57.8150   21.9120   44.5000 C   0  0  0  0  0  0  0  0  0  0  0  0
   56.7490   21.9000   43.5940 C   0  0  0  0  0  0  0  0  0  0  0  0
   56.2950   20.7070   43.0370 O   0  0  0  0  0  0  0  0  0  0  0  0
   56.1370   23.1070   43.2530 C   0  0  0  0  0  0  0  0  0  0  0  0
   56.5780   24.2740   43.7930 N   0  0  0  0  0  0  0  0  0  0  0  0
   57.1510   26.7190   45.3040 C   0  0  0  0  0  0  0  0  0  0  0  0
   56.3458   33.7203   44.5943 H   0  0  0  0  0  0  0  0  0  0  0  0
   57.7564   35.2524   45.9660 H   0  0  0  0  0  0  0  0  0  0  0  0
   59.6551   34.3490   47.3037 H   0  0  0  0  0  0  0  0  0  0  0  0
   62.0155   33.3094   49.6346 H   0  0  0  0  0  0  0  0  0  0  0  0
   62.0327   31.5162   49.5149 H   0  0  0  0  0  0  0  0  0  0  0  0
   64.3279   32.5539   49.8016 H   0  0  0  0  0  0  0  0  0  0  0  0
   64.1445   31.5554   48.3073 H   0  0  0  0  0  0  0  0  0  0  0  0
   64.0804   34.2593   46.0833 H   0  0  0  0  0  0  0  0  0  0  0  0
   64.0059   32.4698   46.3150 H   0  0  0  0  0  0  0  0  0  0  0  0
   61.8438   34.5172   47.0281 H   0  0  0  0  0  0  0  0  0  0  0  0
   61.7751   33.2673   45.7403 H   0  0  0  0  0  0  0  0  0  0  0  0
   58.7447   30.3584   45.8884 H   0  0  0  0  0  0  0  0  0  0  0  0
   59.1951   29.0394   46.7654 H   0  0  0  0  0  0  0  0  0  0  0  0
   60.7872   27.1266   46.6438 H   0  0  0  0  0  0  0  0  0  0  0  0
   60.0618   24.9523   45.6673 H   0  0  0  0  0  0  0  0  0  0  0  0
   59.0869   23.1349   45.7622 H   0  0  0  0  0  0  0  0  0  0  0  0
   58.3077   20.9701   44.7828 H   0  0  0  0  0  0  0  0  0  0  0  0
   56.8030   19.8390   43.1610 H   0  0  0  0  0  0  0  0  0  0  0  0
   55.2951   23.1141   42.5450 H   0  0  0  0  0  0  0  0  0  0  0  0
   56.1164   26.6003   44.9498 H   0  0  0  0  0  0  0  0  0  0  0  0
  1  2  2  0
  2  3  1  0
  3  4  1  0
  4  5  2  0
  5  6  1  0
  6  7  2  0
  7  8  1  0
  8  9  1  0
  9 10  2  0
  9 11  1  0
 11 12  1  0
 12 13  1  0
 13 14  1  0
 14 15  1  0
 15 16  1  0
  8 17  2  0
  2 18  1  0
 18 19  1  0
 19 20  2  0
 20 21  1  0
 21 22  2  0
 22 23  1  0
 23 24  1  0
 24 25  2  0
 25 26  1  0
 26 27  2  0
 27 28  1  0
 27 29  1  0
 29 30  2  0
 23 31  2  0
 17  4  1  0
 31 19  1  0
 16 11  1  0
 30 24  1  0
  5 32  1  0
  6 33  1  0
  7 34  1  0
 12 35  1  0
 12 36  1  0
 13 37  1  0
 13 38  1  0
 15 39  1  0
 15 40  1  0
 16 41  1  0
 16 42  1  0
 17 43  1  0
 20 44  1  0
 21 45  1  0
 22 46  1  0
 25 47  1  0
 26 48  1  0
 28 49  1  0
 29 50  1  0
 31 51  1  0
M  CHG  2   3  -1  18  -1
M  END
>  <UniqueID>  (39) 
35

>  <SMILES>  (39) 
O=C([N-]c1cccc(C(=O)N2CCOCC2)c1)[N-]c1cccc(-c2ccc(O)cn2)c1

>  <Energy>  (39) 
72.46635032256113

>  <Genealogy>  (39) 
O=C([N-]c1cccc(C(=O)N2CCOCC2)c1)[N-]c1cccc(-c2ccc(O)cn2)c1 (protonated)
O=C([N-]c1cccc(C(=O)N2CCOCC2)c1)[N-]c1cccc(-c2ccc(O)cn2)c1 (3D coordinates assigned)
O=C([N-]c1cccc(C(=O)N2CCOCC2)c1)[N-]c1cccc(-c2ccc(O)cn2)c1 (nonaromatic ring conformer: 72.46635032256113 kcal/mol)

>  <smiles>  (39) 
O=C(Nc1cccc(C(=O)N2CCOCC2)c1)Nc1cccc(-c2ccc(O)cn2)c1

>  <score_type>  (39) 
oracle

>  <origin>  (39) 
adg

>  <m_score__min__energy>  (39) 
-13.23

>  <m_primary>  (39) 
energy

$$$$
39:0
     RDKit          3D

 52 55  0  0  0  0  0  0  0  0999 V2000
   60.6640   26.5090   45.9960 C   0  0  0  0  0  0  0  0  0  0  0  0
   60.5920   27.9740   46.1380 N   0  0  0  0  0  0  0  0  0  0  0  0
   59.4680   28.3520   47.0220 C   0  0  0  0  0  0  0  0  0  0  0  0
   58.4310   27.2620   47.0220 C   0  0  0  0  0  0  0  0  0  0  0  0
   58.6600   26.0520   47.6950 C   0  0  0  0  0  0  0  0  0  0  0  0
   57.6800   25.0550   47.7040 C   0  0  0  0  0  0  0  0  0  0  0  0
   56.4640   25.2590   47.0450 C   0  0  0  0  0  0  0  0  0  0  0  0
   55.4940   24.2640   47.0570 O   0  0  0  0  0  0  0  0  0  0  0  0
   56.2260   26.4660   46.3750 C   0  0  0  0  0  0  0  0  0  0  0  0
   55.0180   26.6770   45.7210 O   0  0  0  0  0  0  0  0  0  0  0  0
   57.2060   27.4650   46.3650 C   0  0  0  0  0  0  0  0  0  0  0  0
   60.4710   28.6050   44.8080 C   0  0  0  0  0  0  0  0  0  0  0  0
   59.2400   29.4880   44.7450 C   0  0  0  0  0  0  0  0  0  0  0  0
   59.3180   30.7680   45.3250 C   0  0  0  0  0  0  0  0  0  0  0  0
   58.2450   31.6690   45.2530 C   0  0  0  0  0  0  0  0  0  0  0  0
   58.3570   33.0600   45.8550 C   0  0  2  0  0  0  0  0  0  0  0  0
   59.2120   33.9450   44.9210 C   0  0  0  0  0  0  0  0  0  0  0  0
   59.5330   35.2600   45.5600 C   0  0  0  0  0  0  0  0  0  0  0  0
   59.6510   36.2990   44.8580 O   0  0  0  0  0  0  0  0  0  0  0  0
   59.7940   35.3170   46.9610 N   0  0  0  0  0  0  0  0  0  0  0  0
   59.5510   34.1840   47.7990 C   0  0  0  0  0  0  0  0  0  0  0  0
   59.9560   34.2250   49.1380 C   0  0  0  0  0  0  0  0  0  0  0  0
   59.6830   33.1510   49.9880 C   0  0  0  0  0  0  0  0  0  0  0  0
   60.0930   33.1930   51.3150 O   0  0  0  0  0  0  0  0  0  0  0  0
   58.9870   32.0400   49.5070 C   0  0  0  0  0  0  0  0  0  0  0  0
   58.5710   31.9950   48.1750 C   0  0  0  0  0  0  0  0  0  0  0  0
   58.8820   33.0480   47.2900 C   0  0  0  0  0  0  0  0  0  0  0  0
   57.0810   31.2870   44.5760 C   0  0  0  0  0  0  0  0  0  0  0  0
   56.9820   30.0210   44.0000 C   0  0  0  0  0  0  0  0  0  0  0  0
   58.0410   29.1030   44.0790 C   0  0  0  0  0  0  0  0  0  0  0  0
   57.8300   27.7810   43.4380 C   0  0  0  0  0  0  0  0  0  0  0  0
   58.7590   27.1470   42.8750 O   0  0  0  0  0  0  0  0  0  0  0  0
   60.6868   26.0447   46.9929 H   0  0  0  0  0  0  0  0  0  0  0  0
   59.7824   26.1503   45.4445 H   0  0  0  0  0  0  0  0  0  0  0  0
   61.5765   26.2385   45.4445 H   0  0  0  0  0  0  0  0  0  0  0  0
   59.8423   28.5000   48.0457 H   0  0  0  0  0  0  0  0  0  0  0  0
   59.0148   29.2846   46.6547 H   0  0  0  0  0  0  0  0  0  0  0  0
   59.6140   25.8874   48.2173 H   0  0  0  0  0  0  0  0  0  0  0  0
   57.8662   24.1076   48.2310 H   0  0  0  0  0  0  0  0  0  0  0  0
   57.0163   28.4131   45.8405 H   0  0  0  0  0  0  0  0  0  0  0  0
   61.3647   29.2168   44.6157 H   0  0  0  0  0  0  0  0  0  0  0  0
   60.3793   27.8149   44.0482 H   0  0  0  0  0  0  0  0  0  0  0  0
   60.2394   31.0682   45.8456 H   0  0  0  0  0  0  0  0  0  0  0  0
   57.3472   33.4896   45.9305 H   0  0  0  0  0  0  0  0  0  0  0  0
   60.1508   33.4201   44.6906 H   0  0  0  0  0  0  0  0  0  0  0  0
   58.6374   34.1366   44.0028 H   0  0  0  0  0  0  0  0  0  0  0  0
   60.4911   35.1060   49.5222 H   0  0  0  0  0  0  0  0  0  0  0  0
   58.7659   31.1980   50.1794 H   0  0  0  0  0  0  0  0  0  0  0  0
   57.9955   31.1304   47.8126 H   0  0  0  0  0  0  0  0  0  0  0  0
   56.2387   31.9902   44.4978 H   0  0  0  0  0  0  0  0  0  0  0  0
   56.0582   29.7368   43.4747 H   0  0  0  0  0  0  0  0  0  0  0  0
   56.8229   27.3389   43.4560 H   0  0  0  0  0  0  0  0  0  0  0  0
  1  2  1  0
  2  3  1  0
  3  4  1  0
  4  5  2  0
  5  6  1  0
  6  7  2  0
  7  8  1  0
  7  9  1  0
  9 10  1  0
  9 11  2  0
  2 12  1  0
 12 13  1  0
 13 14  2  0
 14 15  1  0
 15 16  1  0
 16 17  1  0
 17 18  1  0
 18 19  2  0
 18 20  1  0
 20 21  1  0
 21 22  2  0
 22 23  1  0
 23 24  1  0
 23 25  2  0
 25 26  1  0
 26 27  2  0
 15 28  2  0
 28 29  1  0
 29 30  2  0
 30 31  1  0
 31 32  2  0
 11  4  1  0
 30 13  1  0
 27 16  1  0
 27 21  1  0
  1 33  1  0
  1 34  1  0
  1 35  1  0
  3 36  1  0
  3 37  1  0
  5 38  1  0
  6 39  1  0
 11 40  1  0
 12 41  1  0
 12 42  1  0
 14 43  1  0
 16 44  1  1
 17 45  1  0
 17 46  1  0
 22 47  1  0
 25 48  1  0
 26 49  1  0
 28 50  1  0
 29 51  1  0
 31 52  1  0
M  CHG  4   8  -1  10  -1  20  -1  24  -1
M  END
>  <UniqueID>  (40) 
36

>  <SMILES>  (40) 
CN(Cc1ccc([O-])c([O-])c1)Cc1cc([C@@H]2CC(=O)[N-]c3cc([O-])ccc32)ccc1C=O

>  <Energy>  (40) 
63.68245630296858

>  <Genealogy>  (40) 
CN(Cc1ccc([O-])c([O-])c1)Cc1cc(C2CC(=O)[N-]c3cc([O-])ccc32)ccc1C=O (protonated)
CN(Cc1ccc([O-])c([O-])c1)Cc1cc([C@@H]2CC(=O)[N-]c3cc([O-])ccc32)ccc1C=O (chirality)
CN(Cc1ccc([O-])c([O-])c1)Cc1cc([C@@H]2CC(=O)[N-]c3cc([O-])ccc32)ccc1C=O (3D coordinates assigned)
CN(Cc1ccc([O-])c([O-])c1)Cc1cc([C@@H]2CC(=O)[N-]c3cc([O-])ccc32)ccc1C=O (nonaromatic ring conformer: 63.68245630296858 kcal/mol)

>  <smiles>  (40) 
CN(Cc1ccc(O)c(O)c1)Cc1cc(C2CC(=O)Nc3cc(O)ccc32)ccc1C=O

>  <score_type>  (40) 
oracle

>  <origin>  (40) 
adg

>  <m_score__min__energy>  (40) 
-18.84

>  <m_primary>  (40) 
energy

$$$$
40:0
     RDKit          3D

 66 70  0  0  0  0  0  0  0  0999 V2000
   56.8936   23.3344   49.3944 H   0  0  0  0  0  0  0  0  0  0  0  0
   57.0610   23.4870   48.3180 C   0  0  0  0  0  0  0  0  0  0  0  0
   57.0090   22.4300   47.4680 N   0  0  0  0  0  0  0  0  0  0  0  0
   57.2200   22.5760   46.1350 C   0  0  0  0  0  0  0  0  0  0  0  0
   57.1618   21.6984   45.4744 H   0  0  0  0  0  0  0  0  0  0  0  0
   57.5120   23.8380   45.5920 C   0  0  0  0  0  0  0  0  0  0  0  0
   57.7720   23.9540   44.1130 C   0  0  0  0  0  0  0  0  0  0  0  0
   58.7653   24.3972   43.9490 H   0  0  0  0  0  0  0  0  0  0  0  0
   57.7362   22.9546   43.6549 H   0  0  0  0  0  0  0  0  0  0  0  0
   57.0043   24.5950   43.6549 H   0  0  0  0  0  0  0  0  0  0  0  0
   57.5400   24.9600   46.4570 C   0  0  0  0  0  0  0  0  0  0  0  0
   57.8090   26.3320   45.9670 C   0  0  0  0  0  0  0  0  0  0  0  0
   59.1270   26.7860   45.7980 C   0  0  0  0  0  0  0  0  0  0  0  0
   59.9681   26.1146   46.0256 H   0  0  0  0  0  0  0  0  0  0  0  0
   59.3800   28.0840   45.3430 C   0  0  0  0  0  0  0  0  0  0  0  0
   60.4168   28.4329   45.2274 H   0  0  0  0  0  0  0  0  0  0  0  0
   58.3150   28.9410   45.0340 C   0  0  0  0  0  0  0  0  0  0  0  0
   58.5510   30.2490   44.5890 C   0  0  0  0  0  0  0  0  0  0  0  0
   59.5810   30.6191   44.4787 H   0  0  0  0  0  0  0  0  0  0  0  0
   57.4670   31.0810   44.2860 C   0  0  0  0  0  0  0  0  0  0  0  0
   57.6890   32.3120   43.9230 N   0  0  0  0  0  0  0  0  0  0  0  0
   57.7450   33.4370   44.8110 C   0  0  0  0  0  0  0  0  0  0  0  0
   58.3970   34.4580   44.4730 O   0  0  0  0  0  0  0  0  0  0  0  0
   57.0210   33.4230   46.0450 N   0  0  0  0  0  0  0  0  0  0  0  0
   57.6580   33.4980   47.3550 C   0  0  0  0  0  0  0  0  0  0  0  0
   57.4801   34.4888   47.7984 H   0  0  0  0  0  0  0  0  0  0  0  0
   57.2395   32.7310   48.0232 H   0  0  0  0  0  0  0  0  0  0  0  0
   59.1330   33.2790   47.1780 C   0  0  0  0  0  0  0  0  0  0  0  0
   59.9870   34.3670   46.9350 C   0  0  0  0  0  0  0  0  0  0  0  0
   59.5650   35.3706   46.7779 H   0  0  0  0  0  0  0  0  0  0  0  0
   61.3720   34.1790   46.8920 C   0  0  0  0  0  0  0  0  0  0  0  0
   62.0340   35.0335   46.6878 H   0  0  0  0  0  0  0  0  0  0  0  0
   61.9220   32.9060   47.1080 C   0  0  0  0  0  0  0  0  0  0  0  0
   63.4160   32.7080   47.1090 C   0  0  0  0  0  0  0  0  0  0  0  0
   63.6462   31.7075   46.7140 H   0  0  0  0  0  0  0  0  0  0  0  0
   63.8724   33.4862   46.4795 H   0  0  0  0  0  0  0  0  0  0  0  0
   63.9660   32.8260   48.4740 N   0  0  0  0  0  0  0  0  0  0  0  0
   63.4870   34.0570   49.1450 C   0  0  0  0  0  0  0  0  0  0  0  0
   64.0463   34.9167   48.7474 H   0  0  0  0  0  0  0  0  0  0  0  0
   62.4093   34.1505   48.9453 H   0  0  0  0  0  0  0  0  0  0  0  0
   63.6800   34.0050   50.6780 C   0  0  0  0  0  0  0  0  0  0  0  0
   63.9874   35.0014   51.0283 H   0  0  0  0  0  0  0  0  0  0  0  0
   62.7232   33.6953   51.1237 H   0  0  0  0  0  0  0  0  0  0  0  0
   64.7030   33.0230   51.0890 N   0  0  0  0  0  0  0  0  0  0  0  0
   66.0610   33.4510   50.7110 C   0  0  0  0  0  0  0  0  0  0  0  0
   66.6528   33.6375   51.6193 H   0  0  0  0  0  0  0  0  0  0  0  0
   66.5421   32.6609   50.1157 H   0  0  0  0  0  0  0  0  0  0  0  0
   66.0021   34.3741   50.1157 H   0  0  0  0  0  0  0  0  0  0  0  0
   64.3890   31.6560   50.6090 C   0  0  0  0  0  0  0  0  0  0  0  0
   65.3332   31.1074   50.4768 H   0  0  0  0  0  0  0  0  0  0  0  0
   63.7386   31.1884   51.3629 H   0  0  0  0  0  0  0  0  0  0  0  0
   63.6220   31.6380   49.2720 C   0  0  0  0  0  0  0  0  0  0  0  0
   63.8922   30.7318   48.7100 H   0  0  0  0  0  0  0  0  0  0  0  0
   62.5414   31.6435   49.4774 H   0  0  0  0  0  0  0  0  0  0  0  0
   61.0670   31.8200   47.3530 C   0  0  0  0  0  0  0  0  0  0  0  0
   61.4892   30.8182   47.5207 H   0  0  0  0  0  0  0  0  0  0  0  0
   59.6820   32.0050   47.3850 C   0  0  0  0  0  0  0  0  0  0  0  0
   59.0194   31.1474   47.5734 H   0  0  0  0  0  0  0  0  0  0  0  0
   56.1950   30.6080   44.4270 N   0  0  0  0  0  0  0  0  0  0  0  0
   55.9330   29.3460   44.8550 C   0  0  0  0  0  0  0  0  0  0  0  0
   54.8924   29.0021   44.9494 H   0  0  0  0  0  0  0  0  0  0  0  0
   56.9870   28.4830   45.1760 C   0  0  0  0  0  0  0  0  0  0  0  0
   56.7400   27.1820   45.6390 C   0  0  0  0  0  0  0  0  0  0  0  0
   55.7047   26.8260   45.7456 H   0  0  0  0  0  0  0  0  0  0  0  0
   57.3260   24.7650   47.8300 C   0  0  0  0  0  0  0  0  0  0  0  0
   57.3674   25.6203   48.5205 H   0  0  0  0  0  0  0  0  0  0  0  0
  1  2  1  0
  2  3  2  0
  3  4  1  0
  4  5  1  0
  4  6  2  0
  6  7  1  0
  7  8  1  0
  7  9  1  0
  7 10  1  0
  6 11  1  0
 11 12  1  0
 12 13  1  0
 13 14  1  0
 13 15  2  0
 15 16  1  0
 15 17  1  0
 17 18  2  0
 18 19  1  0
 18 20  1  0
 20 21  2  0
 21 22  1  0
 22 23  2  0
 22 24  1  0
 24 25  1  0
 25 26  1  0
 25 27  1  0
 25 28  1  0
 28 29  2  0
 29 30  1  0
 29 31  1  0
 31 32  1  0
 31 33  2  0
 33 34  1  0
 34 35  1  0
 34 36  1  0
 34 37  1  0
 37 38  1  0
 38 39  1  0
 38 40  1  0
 38 41  1  0
 41 42  1  0
 41 43  1  0
 41 44  1  0
 44 45  1  0
 45 46  1  0
 45 47  1  0
 45 48  1  0
 44 49  1  0
 49 50  1  0
 49 51  1  0
 49 52  1  0
 52 53  1  0
 52 54  1  0
 33 55  1  0
 55 56  1  0
 55 57  2  0
 57 58  1  0
 20 59  1  0
 59 60  1  0
 60 61  1  0
 60 62  2  0
 62 63  1  0
 63 64  1  0
 11 65  2  0
 65 66  1  0
 65  2  1  0
 63 12  2  0
 62 17  1  0
 57 28  1  0
 52 37  1  0
M  CHG  2  24  -1  59  -1
M  END
>  <UniqueID>  (41) 
37

>  <SMILES>  (41) 
Cc1cnccc1-c1ccc2c/c(=N/C(=O)[N-]Cc3ccc(CN4CCN(C)CC4)cc3)[n-]cc2c1

>  <Energy>  (41) 
97.14311274750311

>  <Genealogy>  (41) 
Cc1cnccc1-c1ccc2cc(=NC(=O)[N-]Cc3ccc(CN4CCN(C)CC4)cc3)[n-]cc2c1 (protonated)
Cc1cnccc1-c1ccc2c/c(=N/C(=O)[N-]Cc3ccc(CN4CCN(C)CC4)cc3)[n-]cc2c1 (cis-trans isomerization)
Cc1cnccc1-c1ccc2c/c(=N/C(=O)[N-]Cc3ccc(CN4CCN(C)CC4)cc3)[n-]cc2c1 (3D coordinates assigned)
Cc1cnccc1-c1ccc2c/c(=N/C(=O)[N-]Cc3ccc(CN4CCN(C)CC4)cc3)[n-]cc2c1 (nonaromatic ring conformer: 97.14311274750311 kcal/mol)

>  <smiles>  (41) 
Cc1cnccc1-c1ccc2cc(=NC(=O)NCc3ccc(CN4CCN(C)CC4)cc3)[nH]cc2c1

>  <score_type>  (41) 
oracle

>  <origin>  (41) 
adg

>  <m_score__min__energy>  (41) 
-11.699999999999999

>  <m_primary>  (41) 
energy

$$$$
41:0
     RDKit          3D

 58 61  0  0  0  0  0  0  0  0999 V2000
   59.4920   27.2282   48.2733 H   0  0  0  0  0  0  0  0  0  0  0  0
   58.9720   26.6120   47.5250 C   0  0  0  0  0  0  0  0  0  0  0  0
   58.8954   25.5238   47.6659 H   0  0  0  0  0  0  0  0  0  0  0  0
   58.4310   27.1880   46.4400 C   0  0  0  0  0  0  0  0  0  0  0  0
   57.7440   26.5380   45.4100 C   0  0  0  0  0  0  0  0  0  0  0  0
   57.4950   25.2180   45.2960 C   0  0  0  0  0  0  0  0  0  0  0  0
   58.3511   24.5293   45.2425 H   0  0  0  0  0  0  0  0  0  0  0  0
   56.1310   24.6460   45.2390 C   0  0  0  0  0  0  0  0  0  0  0  0
   55.0010   25.3920   45.6200 C   0  0  0  0  0  0  0  0  0  0  0  0
   55.1300   26.7040   46.0630 O   0  0  0  0  0  0  0  0  0  0  0  0
   53.7690   24.8260   45.5740 N   0  0  0  0  0  0  0  0  0  0  0  0
   53.6030   23.5360   45.1840 C   0  0  0  0  0  0  0  0  0  0  0  0
   52.4500   23.0330   45.1460 O   0  0  0  0  0  0  0  0  0  0  0  0
   54.6810   22.7860   44.8400 N   0  0  0  0  0  0  0  0  0  0  0  0
   55.9350   23.3060   44.8660 C   0  0  0  0  0  0  0  0  0  0  0  0
   56.9140   22.5800   44.5440 O   0  0  0  0  0  0  0  0  0  0  0  0
   57.4050   27.5170   44.4860 C   0  0  0  0  0  0  0  0  0  0  0  0
   56.8685   27.3676   43.5374 H   0  0  0  0  0  0  0  0  0  0  0  0
   57.8720   28.7140   44.9890 C   0  0  0  0  0  0  0  0  0  0  0  0
   57.7360   30.0370   44.2990 C   0  0  0  0  0  0  0  0  0  0  0  0
   57.6539   30.8359   45.0507 H   0  0  0  0  0  0  0  0  0  0  0  0
   58.6206   30.2151   43.6699 H   0  0  0  0  0  0  0  0  0  0  0  0
   56.8337   30.0314   43.6699 H   0  0  0  0  0  0  0  0  0  0  0  0
   58.5010   28.5160   46.1700 N   0  0  0  0  0  0  0  0  0  0  0  0
   59.1100   29.5390   46.9780 C   0  0  0  0  0  0  0  0  0  0  0  0
   58.7730   29.6620   48.3330 C   0  0  0  0  0  0  0  0  0  0  0  0
   58.0333   28.9799   48.7775 H   0  0  0  0  0  0  0  0  0  0  0  0
   59.3730   30.6480   49.1220 C   0  0  0  0  0  0  0  0  0  0  0  0
   59.1077   30.7337   50.1861 H   0  0  0  0  0  0  0  0  0  0  0  0
   60.3130   31.5300   48.5630 C   0  0  0  0  0  0  0  0  0  0  0  0
   60.9580   32.5710   49.3930 C   0  0  0  0  0  0  0  0  0  0  0  0
   60.2960   33.1070   50.3250 O   0  0  0  0  0  0  0  0  0  0  0  0
   62.3250   32.9700   49.1730 N   0  0  0  0  0  0  0  0  0  0  0  0
   63.3450   31.9610   48.8430 C   0  0  0  0  0  0  0  0  0  0  0  0
   63.0548   30.9990   49.2907 H   0  0  0  0  0  0  0  0  0  0  0  0
   63.4088   31.8784   47.7480 H   0  0  0  0  0  0  0  0  0  0  0  0
   64.7300   32.3660   49.3800 C   0  0  0  0  0  0  0  0  0  0  0  0
   65.3543   31.4644   49.4654 H   0  0  0  0  0  0  0  0  0  0  0  0
   65.1665   33.0901   48.6763 H   0  0  0  0  0  0  0  0  0  0  0  0
   64.6430   33.0480   50.7730 C   0  0  0  0  0  0  0  0  0  0  0  0
   64.1150   32.0380   51.8190 C   0  0  0  0  0  0  0  0  0  0  0  0
   64.3147   32.4201   52.8310 H   0  0  0  0  0  0  0  0  0  0  0  0
   63.0315   31.9040   51.6849 H   0  0  0  0  0  0  0  0  0  0  0  0
   64.6234   31.0718   51.6849 H   0  0  0  0  0  0  0  0  0  0  0  0
   66.0630   33.4770   51.1980 C   0  0  0  0  0  0  0  0  0  0  0  0
   66.1270   33.4963   52.2960 H   0  0  0  0  0  0  0  0  0  0  0  0
   66.7969   32.7605   50.8005 H   0  0  0  0  0  0  0  0  0  0  0  0
   66.2774   34.4800   50.8005 H   0  0  0  0  0  0  0  0  0  0  0  0
   63.7090   34.3040   50.7250 C   0  0  0  0  0  0  0  0  0  0  0  0
   63.1002   34.3186   51.6411 H   0  0  0  0  0  0  0  0  0  0  0  0
   64.3617   35.1853   50.6389 H   0  0  0  0  0  0  0  0  0  0  0  0
   62.7620   34.3280   49.5130 C   0  0  0  0  0  0  0  0  0  0  0  0
   61.8814   34.9415   49.7543 H   0  0  0  0  0  0  0  0  0  0  0  0
   63.2981   34.7542   48.6522 H   0  0  0  0  0  0  0  0  0  0  0  0
   60.6630   31.3900   47.2100 C   0  0  0  0  0  0  0  0  0  0  0  0
   61.4147   32.0603   46.7677 H   0  0  0  0  0  0  0  0  0  0  0  0
   60.0620   30.4040   46.4220 C   0  0  0  0  0  0  0  0  0  0  0  0
   60.3375   30.3068   45.3615 H   0  0  0  0  0  0  0  0  0  0  0  0
  1  2  1  0
  2  3  1  0
  2  4  2  0
  4  5  1  0
  5  6  2  0
  6  7  1  0
  6  8  1  0
  8  9  2  0
  9 10  1  0
  9 11  1  0
 11 12  1  0
 12 13  2  0
 12 14  1  0
 14 15  1  0
 15 16  2  0
  5 17  1  0
 17 18  1  0
 17 19  2  0
 19 20  1  0
 20 21  1  0
 20 22  1  0
 20 23  1  0
 19 24  1  0
 24 25  1  0
 25 26  2  0
 26 27  1  0
 26 28  1  0
 28 29  1  0
 28 30  2  0
 30 31  1  0
 31 32  2  0
 31 33  1  0
 33 34  1  0
 34 35  1  0
 34 36  1  0
 34 37  1  0
 37 38  1  0
 37 39  1  0
 37 40  1  0
 40 41  1  0
 41 42  1  0
 41 43  1  0
 41 44  1  0
 40 45  1  0
 45 46  1  0
 45 47  1  0
 45 48  1  0
 40 49  1  0
 49 50  1  0
 49 51  1  0
 49 52  1  0
 52 53  1  0
 52 54  1  0
 30 55  1  0
 55 56  1  0
 55 57  2  0
 57 58  1  0
 24  4  1  0
 57 25  1  0
 15  8  1  0
 52 33  1  0
M  CHG  3  10  -1  11  -1  14  -1
M  END
>  <UniqueID>  (42) 
38

>  <SMILES>  (42) 
C=c1/c(=C/c2c([O-])[n-]c(=O)[n-]c2=O)cc(C)n1-c1ccc(C(=O)N2CCC(C)(C)CC2)cc1

>  <Energy>  (42) 
113.00027303710945

>  <Genealogy>  (42) 
C=c1c(=Cc2c([O-])[n-]c(=O)[n-]c2=O)cc(C)n1-c1ccc(C(=O)N2CCC(C)(C)CC2)cc1 (protonated)
C=c1/c(=C/c2c([O-])[n-]c(=O)[n-]c2=O)cc(C)n1-c1ccc(C(=O)N2CCC(C)(C)CC2)cc1 (cis-trans isomerization)
C=c1/c(=C/c2c([O-])[n-]c(=O)[n-]c2=O)cc(C)n1-c1ccc(C(=O)N2CCC(C)(C)CC2)cc1 (3D coordinates assigned)
C=c1/c(=C/c2c([O-])[n-]c(=O)[n-]c2=O)cc(C)n1-c1ccc(C(=O)N2CCC(C)(C)CC2)cc1 (nonaromatic ring conformer: 113.00027303710945 kcal/mol)

>  <smiles>  (42) 
C=c1c(=Cc2c(O)[nH]c(=O)[nH]c2=O)cc(C)n1-c1ccc(C(=O)N2CCC(C)(C)CC2)cc1

>  <score_type>  (42) 
oracle

>  <origin>  (42) 
adg

>  <m_score__min__energy>  (42) 
-16.109999999999999

>  <m_primary>  (42) 
energy

$$$$
42:0
     RDKit          3D

 68 71  0  0  0  0  0  0  0  0999 V2000
   57.5272   20.7125   44.1133 H   0  0  0  0  0  0  0  0  0  0  0  0
   57.7640   21.6670   44.6060 C   0  0  0  0  0  0  0  0  0  0  0  0
   59.0790   22.1400   44.6160 C   0  0  0  0  0  0  0  0  0  0  0  0
   59.8719   21.5665   44.1136 H   0  0  0  0  0  0  0  0  0  0  0  0
   59.3890   23.3370   45.2610 C   0  0  0  0  0  0  0  0  0  0  0  0
   60.4253   23.7058   45.2686 H   0  0  0  0  0  0  0  0  0  0  0  0
   58.3800   24.0690   45.8990 C   0  0  0  0  0  0  0  0  0  0  0  0
   58.7010   25.2930   46.5560 N   0  0  0  0  0  0  0  0  0  0  0  0
   59.3030   25.2490   47.4110 H   0  0  0  0  0  0  0  0  0  0  0  0
   58.3870   26.5630   45.9670 C   0  0  0  0  0  0  0  0  0  0  0  0
   58.1490   26.6550   44.5880 C   0  0  0  0  0  0  0  0  0  0  0  0
   58.2713   25.7654   43.9527 H   0  0  0  0  0  0  0  0  0  0  0  0
   57.7580   27.8670   44.0150 C   0  0  0  0  0  0  0  0  0  0  0  0
   57.5673   27.9251   42.9332 H   0  0  0  0  0  0  0  0  0  0  0  0
   57.6080   29.0060   44.8100 C   0  0  0  0  0  0  0  0  0  0  0  0
   57.0730   30.5280   44.0930 S   0  0  0  0  0  0  0  0  0  0  0  0
   55.6830   30.8450   44.5760 O   0  0  0  0  0  0  0  0  0  0  0  0
   57.0190   30.3800   42.5950 O   0  0  0  0  0  0  0  0  0  0  0  0
   58.1390   31.8480   44.5160 N   0  0  0  0  0  0  0  0  0  0  0  0
   57.7300   33.1120   43.8680 C   0  0  0  0  0  0  0  0  0  0  0  0
   58.6232   33.6069   43.4590 H   0  0  0  0  0  0  0  0  0  0  0  0
   57.0108   32.8690   43.0720 H   0  0  0  0  0  0  0  0  0  0  0  0
   57.0410   34.0680   44.8560 C   0  0  0  0  0  0  0  0  0  0  0  0
   56.7788   34.9923   44.3204 H   0  0  0  0  0  0  0  0  0  0  0  0
   56.1550   33.5459   45.2464 H   0  0  0  0  0  0  0  0  0  0  0  0
   57.8510   34.4100   45.9740 O   0  0  0  0  0  0  0  0  0  0  0  0
   58.7340   33.3710   46.3800 C   0  0  0  0  0  0  0  0  0  0  0  0
   59.7164   33.5518   45.9193 H   0  0  0  0  0  0  0  0  0  0  0  0
   58.7716   33.3956   47.4791 H   0  0  0  0  0  0  0  0  0  0  0  0
   58.2640   31.9610   45.9810 C   0  0  0  0  0  0  0  0  0  0  0  0
   58.9957   31.2218   46.3390 H   0  0  0  0  0  0  0  0  0  0  0  0
   57.2796   31.7748   46.4352 H   0  0  0  0  0  0  0  0  0  0  0  0
   57.8690   28.9270   46.1840 C   0  0  0  0  0  0  0  0  0  0  0  0
   57.7445   29.8197   46.8146 H   0  0  0  0  0  0  0  0  0  0  0  0
   58.2890   27.7160   46.7650 C   0  0  0  0  0  0  0  0  0  0  0  0
   58.6050   27.6230   48.1610 N   0  0  0  0  0  0  0  0  0  0  0  0
   59.9170   27.5980   48.7360 C   0  0  0  0  0  0  0  0  0  0  0  0
   60.6250   26.5570   48.6600 O   0  0  0  0  0  0  0  0  0  0  0  0
   60.4090   28.7780   49.4760 C   0  0  0  0  0  0  0  0  0  0  0  0
   61.1920   29.6070   48.8380 N   0  0  0  0  0  0  0  0  0  0  0  0
   60.9440   30.3900   47.6610 C   0  0  0  0  0  0  0  0  0  0  0  0
   60.8120   31.6380   47.7120 O   0  0  0  0  0  0  0  0  0  0  0  0
   60.9360   29.7130   46.3320 C   0  0  0  0  0  0  0  0  0  0  0  0
   60.9231   28.6225   46.4761 H   0  0  0  0  0  0  0  0  0  0  0  0
   60.0414   30.0192   45.7699 H   0  0  0  0  0  0  0  0  0  0  0  0
   61.8376   29.9980   45.7699 H   0  0  0  0  0  0  0  0  0  0  0  0
   59.9020   29.0260   50.8820 C   0  0  0  0  0  0  0  0  0  0  0  0
   59.2485   28.1936   51.1820 H   0  0  0  0  0  0  0  0  0  0  0  0
   60.7646   29.0986   51.5607 H   0  0  0  0  0  0  0  0  0  0  0  0
   59.1270   30.3090   50.9490 C   0  0  0  0  0  0  0  0  0  0  0  0
   58.0950   30.5770   51.8270 C   0  0  0  0  0  0  0  0  0  0  0  0
   57.6928   29.9040   52.5986 H   0  0  0  0  0  0  0  0  0  0  0  0
   57.6700   31.8580   51.5420 C   0  0  0  0  0  0  0  0  0  0  0  0
   56.8575   32.4077   52.0397 H   0  0  0  0  0  0  0  0  0  0  0  0
   58.4650   32.3150   50.5090 C   0  0  0  0  0  0  0  0  0  0  0  0
   58.3811   33.3072   50.0415 H   0  0  0  0  0  0  0  0  0  0  0  0
   59.3550   31.3730   50.1580 N   0  0  0  0  0  0  0  0  0  0  0  0
   60.0930   31.4670   49.4300 H   0  0  0  0  0  0  0  0  0  0  0  0
   57.0480   23.6240   45.8540 C   0  0  0  0  0  0  0  0  0  0  0  0
   56.0570   24.4090   46.4680 O   0  0  0  0  0  0  0  0  0  0  0  0
   55.0100   25.0510   45.8010 C   0  0  0  0  0  0  0  0  0  0  0  0
   54.7990   26.2860   45.9560 O   0  0  0  0  0  0  0  0  0  0  0  0
   54.0380   24.2360   45.0270 C   0  0  0  0  0  0  0  0  0  0  0  0
   53.3842   23.6878   45.7213 H   0  0  0  0  0  0  0  0  0  0  0  0
   53.4281   24.8967   44.3934 H   0  0  0  0  0  0  0  0  0  0  0  0
   54.5822   23.5202   44.3934 H   0  0  0  0  0  0  0  0  0  0  0  0
   56.7500   22.4050   45.2210 C   0  0  0  0  0  0  0  0  0  0  0  0
   55.7155   22.0312   45.2099 H   0  0  0  0  0  0  0  0  0  0  0  0
  1  2  1  0
  2  3  2  0
  3  4  1  0
  3  5  1  0
  5  6  1  0
  5  7  2  0
  7  8  1  0
  8  9  1  0
  8 10  1  0
 10 11  2  0
 11 12  1  0
 11 13  1  0
 13 14  1  0
 13 15  2  0
 15 16  1  0
 16 17  2  0
 16 18  2  0
 16 19  1  0
 19 20  1  0
 20 21  1  0
 20 22  1  0
 20 23  1  0
 23 24  1  0
 23 25  1  0
 23 26  1  0
 26 27  1  0
 27 28  1  0
 27 29  1  0
 27 30  1  0
 30 31  1  0
 30 32  1  0
 15 33  1  0
 33 34  1  0
 33 35  2  0
 35 36  1  0
 36 37  1  0
 37 38  2  0
 37 39  1  0
 39 40  2  0
 40 41  1  0
 41 42  2  0
 41 43  1  0
 43 44  1  0
 43 45  1  0
 43 46  1  0
 39 47  1  0
 47 48  1  0
 47 49  1  0
 47 50  1  0
 50 51  2  0
 51 52  1  0
 51 53  1  0
 53 54  1  0
 53 55  2  0
 55 56  1  0
 55 57  1  0
 57 58  1  0
  7 59  1  0
 59 60  1  0
 60 61  1  0
 61 62  2  0
 61 63  1  0
 63 64  1  0
 63 65  1  0
 63 66  1  0
 59 67  2  0
 67 68  1  0
 67  2  1  0
 35 10  1  0
 57 50  1  0
 30 19  1  0
M  CHG  1  36  -1
M  END
>  <UniqueID>  (43) 
39

>  <SMILES>  (43) 
CC(=O)/N=C(\Cc1ccc[nH]1)C(=O)[N-]c1cc(S(=O)(=O)N2CCOCC2)ccc1Nc1ccccc1OC(C)=O

>  <Energy>  (43) 
122.77112124519242

>  <Genealogy>  (43) 
CC(=O)N=C(Cc1ccc[nH]1)C(=O)[N-]c1cc(S(=O)(=O)N2CCOCC2)ccc1Nc1ccccc1OC(C)=O (protonated)
CC(=O)/N=C(\Cc1ccc[nH]1)C(=O)[N-]c1cc(S(=O)(=O)N2CCOCC2)ccc1Nc1ccccc1OC(C)=O (cis-trans isomerization)
CC(=O)/N=C(\Cc1ccc[nH]1)C(=O)[N-]c1cc(S(=O)(=O)N2CCOCC2)ccc1Nc1ccccc1OC(C)=O (3D coordinates assigned)
CC(=O)/N=C(\Cc1ccc[nH]1)C(=O)[N-]c1cc(S(=O)(=O)N2CCOCC2)ccc1Nc1ccccc1OC(C)=O (nonaromatic ring conformer: 122.77112124519242 kcal/mol)

>  <smiles>  (43) 
CC(=O)N=C(Cc1ccc[nH]1)C(=O)Nc1cc(S(=O)(=O)N2CCOCC2)ccc1Nc1ccccc1OC(C)=O

>  <score_type>  (43) 
oracle

>  <origin>  (43) 
adg

>  <m_score__min__energy>  (43) 
-11.029999999999999

>  <m_primary>  (43) 
energy

$$$$
43:0
     RDKit          3D

 48 50  0  0  0  0  0  0  0  0999 V2000
   57.6790   28.5870   43.7500 C   0  0  0  0  0  0  0  0  0  0  0  0
   56.5470   29.9030   44.1490 S   0  0  0  0  0  0  0  0  0  0  0  0
   55.1590   29.3510   44.3090 O   0  0  0  0  0  0  0  0  0  0  0  0
   56.5590   30.8980   43.0240 O   0  0  0  0  0  0  0  0  0  0  0  0
   57.0400   30.6990   45.6080 N   0  0  0  0  0  0  0  0  0  0  0  0
   57.9260   31.8240   45.6180 C   0  0  0  0  0  0  0  0  0  0  0  0
   57.5220   32.9840   44.9520 C   0  0  0  0  0  0  0  0  0  0  0  0
   58.3540   34.0980   44.9100 C   0  0  0  0  0  0  0  0  0  0  0  0
   59.5870   34.0750   45.5580 C   0  0  0  0  0  0  0  0  0  0  0  0
   60.0090   32.9380   46.2660 C   0  0  0  0  0  0  0  0  0  0  0  0
   61.5430   33.0590   47.1650 S   0  0  0  0  0  0  0  0  0  0  0  0
   62.3450   31.7970   47.0410 O   0  0  0  0  0  0  0  0  0  0  0  0
   62.3640   34.1660   46.5630 O   0  0  0  0  0  0  0  0  0  0  0  0
   61.2890   33.4100   48.8580 N   0  0  0  0  0  0  0  0  0  0  0  0
   61.7530   32.2980   49.6980 C   0  0  0  0  0  0  0  0  0  0  0  0
   61.5410   32.6380   51.1870 C   0  0  0  0  0  0  0  0  0  0  0  0
   60.8290   33.8510   51.3650 O   0  0  0  0  0  0  0  0  0  0  0  0
   59.6140   33.8030   50.6430 C   0  0  0  0  0  0  0  0  0  0  0  0
   59.8680   33.6880   49.1250 C   0  0  0  0  0  0  0  0  0  0  0  0
   59.1720   31.7880   46.2890 C   0  0  0  0  0  0  0  0  0  0  0  0
   59.5410   30.5760   47.0410 C   0  0  0  0  0  0  0  0  0  0  0  0
   59.6040   30.6170   48.2990 O   0  0  0  0  0  0  0  0  0  0  0  0
   59.9510   29.4050   46.3250 N   0  0  0  0  0  0  0  0  0  0  0  0
   59.4650   28.0700   46.5180 C   0  0  0  0  0  0  0  0  0  0  0  0
   58.1500   27.8060   46.9440 C   0  0  0  0  0  0  0  0  0  0  0  0
   57.7100   26.4860   47.0920 C   0  0  0  0  0  0  0  0  0  0  0  0
   58.5720   25.4230   46.8080 C   0  0  0  0  0  0  0  0  0  0  0  0
   58.1340   24.1140   46.9570 O   0  0  0  0  0  0  0  0  0  0  0  0
   59.8720   25.6800   46.3660 C   0  0  0  0  0  0  0  0  0  0  0  0
   60.3140   26.9980   46.2140 C   0  0  0  0  0  0  0  0  0  0  0  0
   58.0635   28.1400   44.6786 H   0  0  0  0  0  0  0  0  0  0  0  0
   57.1554   27.8185   43.1625 H   0  0  0  0  0  0  0  0  0  0  0  0
   58.5172   28.9898   43.1625 H   0  0  0  0  0  0  0  0  0  0  0  0
   56.5398   33.0165   44.4578 H   0  0  0  0  0  0  0  0  0  0  0  0
   58.0377   34.9990   44.3640 H   0  0  0  0  0  0  0  0  0  0  0  0
   60.2391   34.9598   45.5145 H   0  0  0  0  0  0  0  0  0  0  0  0
   61.1848   31.3902   49.4471 H   0  0  0  0  0  0  0  0  0  0  0  0
   62.8245   32.1298   49.5150 H   0  0  0  0  0  0  0  0  0  0  0  0
   60.9739   31.8222   51.6590 H   0  0  0  0  0  0  0  0  0  0  0  0
   62.5318   32.7579   51.6496 H   0  0  0  0  0  0  0  0  0  0  0  0
   59.0334   32.9302   50.9763 H   0  0  0  0  0  0  0  0  0  0  0  0
   59.0603   34.7343   50.8328 H   0  0  0  0  0  0  0  0  0  0  0  0
   59.2565   32.8698   48.7169 H   0  0  0  0  0  0  0  0  0  0  0  0
   59.5965   34.6405   48.6464 H   0  0  0  0  0  0  0  0  0  0  0  0
   57.4661   28.6397   47.1613 H   0  0  0  0  0  0  0  0  0  0  0  0
   56.6836   26.2845   47.4325 H   0  0  0  0  0  0  0  0  0  0  0  0
   60.5493   24.8440   46.1371 H   0  0  0  0  0  0  0  0  0  0  0  0
   61.3346   27.1942   45.8535 H   0  0  0  0  0  0  0  0  0  0  0  0
  1  2  1  0
  2  3  2  0
  2  4  2  0
  2  5  1  0
  5  6  1  0
  6  7  2  0
  7  8  1  0
  8  9  2  0
  9 10  1  0
 10 11  1  0
 11 12  2  0
 11 13  2  0
 11 14  1  0
 14 15  1  0
 15 16  1  0
 16 17  1  0
 17 18  1  0
 18 19  1  0
 10 20  2  0
 20 21  1  0
 21 22  2  0
 21 23  1  0
 23 24  1  0
 24 25  2  0
 25 26  1  0
 26 27  2  0
 27 28  1  0
 27 29  1  0
 29 30  2  0
 20  6  1  0
 30 24  1  0
 19 14  1  0
  1 31  1  0
  1 32  1  0
  1 33  1  0
  7 34  1  0
  8 35  1  0
  9 36  1  0
 15 37  1  0
 15 38  1  0
 16 39  1  0
 16 40  1  0
 18 41  1  0
 18 42  1  0
 19 43  1  0
 19 44  1  0
 25 45  1  0
 26 46  1  0
 29 47  1  0
 30 48  1  0
M  CHG  3   5  -1  23  -1  28  -1
M  END
>  <UniqueID>  (44) 
40

>  <SMILES>  (44) 
CS(=O)(=O)[N-]c1cccc(S(=O)(=O)N2CCOCC2)c1C(=O)[N-]c1ccc([O-])cc1

>  <Energy>  (44) 
72.89195016291683

>  <Genealogy>  (44) 
CS(=O)(=O)[N-]c1cccc(S(=O)(=O)N2CCOCC2)c1C(=O)[N-]c1ccc([O-])cc1 (protonated)
CS(=O)(=O)[N-]c1cccc(S(=O)(=O)N2CCOCC2)c1C(=O)[N-]c1ccc([O-])cc1 (3D coordinates assigned)
CS(=O)(=O)[N-]c1cccc(S(=O)(=O)N2CCOCC2)c1C(=O)[N-]c1ccc([O-])cc1 (nonaromatic ring conformer: 72.89195016291683 kcal/mol)

>  <smiles>  (44) 
CS(=O)(=O)Nc1cccc(S(=O)(=O)N2CCOCC2)c1C(=O)Nc1ccc(O)cc1

>  <score_type>  (44) 
oracle

>  <origin>  (44) 
adg

>  <m_score__min__energy>  (44) 
-12.68

>  <m_primary>  (44) 
energy

$$$$
44:0
     RDKit          3D

 77 81  0  0  0  0  0  0  0  0999 V2000
   57.8480   27.6480   43.4780 C   0  0  0  0  0  0  0  0  0  0  0  0
   58.3740   27.8470   44.8750 C   0  0  0  0  0  0  0  0  0  0  0  0
   59.4570   27.0710   45.3090 C   0  0  0  0  0  0  0  0  0  0  0  0
   59.9670   27.2180   46.5990 C   0  0  0  0  0  0  0  0  0  0  0  0
   59.3870   28.1320   47.4920 C   0  0  0  0  0  0  0  0  0  0  0  0
   59.9610   28.3210   48.8410 C   0  0  0  0  0  0  0  0  0  0  0  0
   60.5750   27.3640   49.3910 O   0  0  0  0  0  0  0  0  0  0  0  0
   59.8510   29.5780   49.5300 N   0  0  0  0  0  0  0  0  0  0  0  0
   58.5220   30.1780   49.7050 C   0  0  0  0  0  0  0  0  0  0  0  0
   58.5880   31.4030   50.6180 C   0  0  0  0  0  0  0  0  0  0  0  0
   59.7230   32.2430   50.2050 N   0  0  0  0  0  0  0  0  0  0  0  0
   59.6740   33.5470   50.8870 C   0  0  0  0  0  0  0  0  0  0  0  0
   61.0290   31.5780   50.4490 C   0  0  0  0  0  0  0  0  0  0  0  0
   60.9760   30.0380   50.3540 C   0  0  0  0  0  0  0  0  0  0  0  0
   58.3090   28.9200   47.0600 C   0  0  0  0  0  0  0  0  0  0  0  0
   57.8270   28.8190   45.7480 C   0  0  0  0  0  0  0  0  0  0  0  0
   56.7960   29.7200   45.3240 N   0  0  0  0  0  0  0  0  0  0  0  0
   57.0200   30.8630   44.4900 C   0  0  0  0  0  0  0  0  0  0  0  0
   56.6060   30.8380   43.3000 O   0  0  0  0  0  0  0  0  0  0  0  0
   57.6820   32.0830   45.0010 C   0  0  0  0  0  0  0  0  0  0  0  0
   57.3560   33.3430   44.4780 C   0  0  0  0  0  0  0  0  0  0  0  0
   57.9980   34.4910   44.9440 C   0  0  0  0  0  0  0  0  0  0  0  0
   58.9760   34.4050   45.9460 C   0  0  0  0  0  0  0  0  0  0  0  0
   59.6580   35.6600   46.4240 C   0  0  0  0  0  0  0  0  0  0  0  0
   59.3210   33.1390   46.4720 C   0  0  0  0  0  0  0  0  0  0  0  0
   60.3490   33.0170   47.4700 N   0  0  0  0  0  0  0  0  0  0  0  0
   61.7130   33.4050   47.2350 C   0  0  0  0  0  0  0  0  0  0  0  0
   62.0780   33.7320   46.0710 O   0  0  0  0  0  0  0  0  0  0  0  0
   62.7160   33.3670   48.3270 C   0  0  0  0  0  0  0  0  0  0  0  0
   63.7390   32.4120   48.3140 C   0  0  0  0  0  0  0  0  0  0  0  0
   64.6720   32.3500   49.3500 C   0  0  0  0  0  0  0  0  0  0  0  0
   64.6220   33.2480   50.4470 C   0  0  0  0  0  0  0  0  0  0  0  0
   65.5970   33.1420   51.5410 N   0  0  0  0  0  0  0  0  0  0  0  0
   67.0370   33.0500   51.2140 C   0  0  0  0  0  0  0  0  0  0  0  0
   67.9500   32.8700   52.4340 C   0  0  0  0  0  0  0  0  0  0  0  0
   67.4710   33.5880   53.5440 O   0  0  0  0  0  0  0  0  0  0  0  0
   66.2670   32.9950   53.9650 C   0  0  0  0  0  0  0  0  0  0  0  0
   65.1530   33.2510   52.9470 C   0  0  0  0  0  0  0  0  0  0  0  0
   63.5980   34.2390   50.4250 C   0  0  0  0  0  0  0  0  0  0  0  0
   63.4830   35.1910   51.3810 F   0  0  0  0  0  0  0  0  0  0  0  0
   62.6670   34.2860   49.3830 C   0  0  0  0  0  0  0  0  0  0  0  0
   58.6780   31.9880   45.9830 C   0  0  0  0  0  0  0  0  0  0  0  0
   56.8201   27.2591   43.5252 H   0  0  0  0  0  0  0  0  0  0  0  0
   57.8520   28.6098   42.9442 H   0  0  0  0  0  0  0  0  0  0  0  0
   58.4876   26.9297   42.9442 H   0  0  0  0  0  0  0  0  0  0  0  0
   59.9099   26.3380   44.6251 H   0  0  0  0  0  0  0  0  0  0  0  0
   60.8290   26.6138   46.9182 H   0  0  0  0  0  0  0  0  0  0  0  0
   58.1329   30.4827   48.7223 H   0  0  0  0  0  0  0  0  0  0  0  0
   57.8596   29.4319   50.1681 H   0  0  0  0  0  0  0  0  0  0  0  0
   57.6535   31.9772   50.5340 H   0  0  0  0  0  0  0  0  0  0  0  0
   58.7206   31.0835   51.6622 H   0  0  0  0  0  0  0  0  0  0  0  0
   59.6798   33.3917   51.9760 H   0  0  0  0  0  0  0  0  0  0  0  0
   60.5503   34.1455   50.5973 H   0  0  0  0  0  0  0  0  0  0  0  0
   58.7553   34.0780   50.5973 H   0  0  0  0  0  0  0  0  0  0  0  0
   61.7494   31.9461   49.7036 H   0  0  0  0  0  0  0  0  0  0  0  0
   61.3240   31.8237   51.4799 H   0  0  0  0  0  0  0  0  0  0  0  0
   61.9144   29.6768   49.9079 H   0  0  0  0  0  0  0  0  0  0  0  0
   60.8399   29.6385   51.3698 H   0  0  0  0  0  0  0  0  0  0  0  0
   57.8368   29.6253   47.7596 H   0  0  0  0  0  0  0  0  0  0  0  0
   56.5884   33.4268   43.6945 H   0  0  0  0  0  0  0  0  0  0  0  0
   57.7349   35.4721   44.5219 H   0  0  0  0  0  0  0  0  0  0  0  0
   59.6669   35.6763   47.5238 H   0  0  0  0  0  0  0  0  0  0  0  0
   60.6918   35.6813   46.0486 H   0  0  0  0  0  0  0  0  0  0  0  0
   59.1135   36.5390   46.0486 H   0  0  0  0  0  0  0  0  0  0  0  0
   60.1210   32.4980   48.3480 H   0  0  0  0  0  0  0  0  0  0  0  0
   63.8085   31.7016   47.4770 H   0  0  0  0  0  0  0  0  0  0  0  0
   65.4641   31.5875   49.3151 H   0  0  0  0  0  0  0  0  0  0  0  0
   67.1840   32.1904   50.5436 H   0  0  0  0  0  0  0  0  0  0  0  0
   67.3167   34.0068   50.7489 H   0  0  0  0  0  0  0  0  0  0  0  0
   67.9963   31.8016   52.6918 H   0  0  0  0  0  0  0  0  0  0  0  0
   68.9487   33.2537   52.1784 H   0  0  0  0  0  0  0  0  0  0  0  0
   66.4166   31.9104   54.0715 H   0  0  0  0  0  0  0  0  0  0  0  0
   65.9735   33.4363   54.9289 H   0  0  0  0  0  0  0  0  0  0  0  0
   64.3521   32.5162   53.1163 H   0  0  0  0  0  0  0  0  0  0  0  0
   64.8115   34.2858   53.0972 H   0  0  0  0  0  0  0  0  0  0  0  0
   61.8830   35.0575   49.3926 H   0  0  0  0  0  0  0  0  0  0  0  0
   58.9602   31.0002   46.3761 H   0  0  0  0  0  0  0  0  0  0  0  0
  1  2  1  0
  2  3  2  0
  3  4  1  0
  4  5  2  0
  5  6  1  0
  6  7  2  0
  6  8  1  0
  8  9  1  0
  9 10  1  0
 10 11  1  0
 11 12  1  0
 11 13  1  0
 13 14  1  0
  5 15  1  0
 15 16  2  0
 16 17  1  0
 17 18  1  0
 18 19  2  0
 18 20  1  0
 20 21  2  0
 21 22  1  0
 22 23  2  0
 23 24  1  0
 23 25  1  0
 25 26  1  0
 26 27  1  0
 27 28  2  0
 27 29  1  0
 29 30  2  0
 30 31  1  0
 31 32  2  0
 32 33  1  0
 33 34  1  0
 34 35  1  0
 35 36  1  0
 36 37  1  0
 37 38  1  0
 32 39  1  0
 39 40  1  0
 39 41  2  0
 25 42  2  0
 16  2  1  0
 42 20  1  0
 14  8  1  0
 41 29  1  0
 38 33  1  0
  1 43  1  0
  1 44  1  0
  1 45  1  0
  3 46  1  0
  4 47  1  0
  9 48  1  0
  9 49  1  0
 10 50  1  0
 10 51  1  0
 12 52  1  0
 12 53  1  0
 12 54  1  0
 13 55  1  0
 13 56  1  0
 14 57  1  0
 14 58  1  0
 15 59  1  0
 21 60  1  0
 22 61  1  0
 24 62  1  0
 24 63  1  0
 24 64  1  0
 26 65  1  0
 30 66  1  0
 31 67  1  0
 34 68  1  0
 34 69  1  0
 35 70  1  0
 35 71  1  0
 37 72  1  0
 37 73  1  0
 38 74  1  0
 38 75  1  0
 41 76  1  0
 42 77  1  0
M  CHG  1  17  -1
M  END
>  <UniqueID>  (45) 
41

>  <SMILES>  (45) 
Cc1ccc(C(=O)N2CCN(C)CC2)cc1[N-]C(=O)c1ccc(C)c(NC(=O)c2ccc(N3CCOCC3)c(F)c2)c1

>  <Energy>  (45) 
118.4671540418177

>  <Genealogy>  (45) 
Cc1ccc(C(=O)N2CCN(C)CC2)cc1[N-]C(=O)c1ccc(C)c(NC(=O)c2ccc(N3CCOCC3)c(F)c2)c1 (protonated)
Cc1ccc(C(=O)N2CCN(C)CC2)cc1[N-]C(=O)c1ccc(C)c(NC(=O)c2ccc(N3CCOCC3)c(F)c2)c1 (3D coordinates assigned)
Cc1ccc(C(=O)N2CCN(C)CC2)cc1[N-]C(=O)c1ccc(C)c(NC(=O)c2ccc(N3CCOCC3)c(F)c2)c1 (nonaromatic ring conformer: 118.4671540418177 kcal/mol)

>  <smiles>  (45) 
Cc1ccc(C(=O)Nc2cc(C(=O)N3CCN(C)CC3)ccc2C)cc1NC(=O)c1ccc(N2CCOCC2)c(F)c1

>  <score_type>  (45) 
oracle

>  <origin>  (45) 
adg

>  <m_score__min__energy>  (45) 
-12.4

>  <m_primary>  (45) 
energy

$$$$
45:0
     RDKit          3D

 54 57  0  0  0  0  0  0  0  0999 V2000
   55.5180   27.5980   45.6200 O   0  0  0  0  0  0  0  0  0  0  0  0
   56.7170   28.1980   45.2500 C   0  0  0  0  0  0  0  0  0  0  0  0
   56.6910   29.4480   44.6250 C   0  0  0  0  0  0  0  0  0  0  0  0
   57.8940   30.0960   44.2800 C   0  0  0  0  0  0  0  0  0  0  0  0
   57.9440   31.3900   43.7380 O   0  0  0  0  0  0  0  0  0  0  0  0
   57.6360   32.6130   44.4110 C   0  0  0  0  0  0  0  0  0  0  0  0
   57.7450   32.5080   45.9470 C   0  0  1  0  0  0  0  0  0  0  0  0
   58.9370   31.7300   46.4630 C   0  0  0  0  0  0  0  0  0  0  0  0
   59.0300   32.1830   47.9050 C   0  0  0  0  0  0  0  0  0  0  0  0
   58.5620   33.5770   47.9470 N   0  0  0  0  0  0  0  0  0  0  0  0
   59.6100   34.5700   48.2930 C   0  0  0  0  0  0  0  0  0  0  0  0
   61.0380   34.1340   47.9970 C   0  0  0  0  0  0  0  0  0  0  0  0
   61.5260   34.1630   46.6780 C   0  0  0  0  0  0  0  0  0  0  0  0
   62.8570   33.8360   46.4050 C   0  0  0  0  0  0  0  0  0  0  0  0
   63.7170   33.4740   47.4440 C   0  0  0  0  0  0  0  0  0  0  0  0
   63.2520   33.4600   48.7600 C   0  0  0  0  0  0  0  0  0  0  0  0
   61.9260   33.8060   49.0390 C   0  0  0  0  0  0  0  0  0  0  0  0
   57.8400   33.8420   46.6880 C   0  0  0  0  0  0  0  0  0  0  0  0
   59.1060   29.4310   44.4880 C   0  0  0  0  0  0  0  0  0  0  0  0
   59.1330   28.1730   45.0940 C   0  0  0  0  0  0  0  0  0  0  0  0
   57.9440   27.5650   45.5060 C   0  0  0  0  0  0  0  0  0  0  0  0
   58.0310   26.0590   46.4060 S   0  0  0  0  0  0  0  0  0  0  0  0
   59.3540   25.9310   47.4350 O   0  0  0  0  0  0  0  0  0  0  0  0
   57.7370   24.6350   45.4240 C   0  0  0  0  0  0  0  0  0  0  0  0
   58.5360   23.4920   45.5680 C   0  0  0  0  0  0  0  0  0  0  0  0
   58.3170   22.3770   44.7540 C   0  0  0  0  0  0  0  0  0  0  0  0
   57.3010   22.4000   43.7940 C   0  0  0  0  0  0  0  0  0  0  0  0
   56.5010   23.5370   43.6500 C   0  0  0  0  0  0  0  0  0  0  0  0
   56.7170   24.6530   44.4660 C   0  0  0  0  0  0  0  0  0  0  0  0
   55.7270   29.9282   44.4014 H   0  0  0  0  0  0  0  0  0  0  0  0
   58.3346   33.3884   44.0635 H   0  0  0  0  0  0  0  0  0  0  0  0
   56.5908   32.8611   44.1745 H   0  0  0  0  0  0  0  0  0  0  0  0
   56.7974   31.9889   46.1535 H   0  0  0  0  0  0  0  0  0  0  0  0
   58.7616   30.6460   46.3981 H   0  0  0  0  0  0  0  0  0  0  0  0
   59.8577   31.9094   45.8885 H   0  0  0  0  0  0  0  0  0  0  0  0
   58.3933   31.5511   48.5416 H   0  0  0  0  0  0  0  0  0  0  0  0
   60.0623   32.1033   48.2765 H   0  0  0  0  0  0  0  0  0  0  0  0
   59.4096   35.4891   47.7229 H   0  0  0  0  0  0  0  0  0  0  0  0
   59.5523   34.7080   49.3828 H   0  0  0  0  0  0  0  0  0  0  0  0
   60.8540   34.4455   45.8542 H   0  0  0  0  0  0  0  0  0  0  0  0
   63.2279   33.8638   45.3698 H   0  0  0  0  0  0  0  0  0  0  0  0
   64.7597   33.2002   47.2255 H   0  0  0  0  0  0  0  0  0  0  0  0
   63.9295   33.1764   49.5789 H   0  0  0  0  0  0  0  0  0  0  0  0
   61.5740   33.8220   50.0811 H   0  0  0  0  0  0  0  0  0  0  0  0
   56.8330   34.2290   46.9027 H   0  0  0  0  0  0  0  0  0  0  0  0
   58.3649   34.5949   46.0817 H   0  0  0  0  0  0  0  0  0  0  0  0
   60.0476   29.9032   44.1712 H   0  0  0  0  0  0  0  0  0  0  0  0
   60.0933   27.6590   45.2475 H   0  0  0  0  0  0  0  0  0  0  0  0
   59.8520   26.7790   47.3200 H   0  0  0  0  0  0  0  0  0  0  0  0
   59.3362   23.4726   46.3225 H   0  0  0  0  0  0  0  0  0  0  0  0
   58.9445   21.4809   44.8689 H   0  0  0  0  0  0  0  0  0  0  0  0
   57.1312   21.5232   43.1519 H   0  0  0  0  0  0  0  0  0  0  0  0
   55.7013   23.5545   42.8949 H   0  0  0  0  0  0  0  0  0  0  0  0
   56.0841   25.5458   44.3543 H   0  0  0  0  0  0  0  0  0  0  0  0
  1  2  1  0
  2  3  2  0
  3  4  1  0
  4  5  1  0
  5  6  1  0
  6  7  1  0
  7  8  1  0
  8  9  1  0
  9 10  1  0
 10 11  1  0
 11 12  1  0
 12 13  2  0
 13 14  1  0
 14 15  2  0
 15 16  1  0
 16 17  2  0
 10 18  1  0
  4 19  2  0
 19 20  1  0
 20 21  2  0
 21 22  1  0
 22 23  1  6
 22 24  1  0
 24 25  2  0
 25 26  1  0
 26 27  2  0
 27 28  1  0
 28 29  2  0
 21  2  1  0
 29 24  1  0
 18  7  1  0
 17 12  1  0
  3 30  1  0
  6 31  1  0
  6 32  1  0
  7 33  1  1
  8 34  1  0
  8 35  1  0
  9 36  1  0
  9 37  1  0
 11 38  1  0
 11 39  1  0
 13 40  1  0
 14 41  1  0
 15 42  1  0
 16 43  1  0
 17 44  1  0
 18 45  1  0
 18 46  1  0
 19 47  1  0
 20 48  1  0
 23 49  1  0
 25 50  1  0
 26 51  1  0
 27 52  1  0
 28 53  1  0
 29 54  1  0
M  CHG  2   1  -1  22   1
M  END
>  <UniqueID>  (46) 
42

>  <SMILES>  (46) 
[O-]c1cc(OC[C@H]2CCN(Cc3ccccc3)C2)ccc1[S@+](O)c1ccccc1

>  <Energy>  (46) 
61.17083914427742

>  <Genealogy>  (46) 
[O-]c1cc(OCC2CCN(Cc3ccccc3)C2)ccc1[S+](O)c1ccccc1 (protonated)
[O-]c1cc(OC[C@H]2CCN(Cc3ccccc3)C2)ccc1[S@+](O)c1ccccc1 (chirality)
[O-]c1cc(OC[C@H]2CCN(Cc3ccccc3)C2)ccc1[S@+](O)c1ccccc1 (3D coordinates assigned)
[O-]c1cc(OC[C@H]2CCN(Cc3ccccc3)C2)ccc1[S@+](O)c1ccccc1 (nonaromatic ring conformer: 61.17083914427742 kcal/mol)

>  <smiles>  (46) 
[O-][S+](c1ccccc1)c1ccc(OCC2CCN(Cc3ccccc3)C2)cc1O

>  <score_type>  (46) 
oracle

>  <origin>  (46) 
adg

>  <m_score__min__energy>  (46) 
-10.6

>  <m_primary>  (46) 
energy

$$$$
46:0
     RDKit          3D

 62 66  0  0  0  0  0  0  0  0999 V2000
   56.0960   29.0690   44.6880 O   0  0  0  0  0  0  0  0  0  0  0  0
   57.0020   28.9210   45.5510 C   0  0  0  0  0  0  0  0  0  0  0  0
   57.5660   30.0620   46.2090 N   0  0  0  0  0  0  0  0  0  0  0  0
   57.8750   31.3240   45.6000 C   0  0  0  0  0  0  0  0  0  0  0  0
   57.8290   31.5080   44.2070 C   0  0  0  0  0  0  0  0  0  0  0  0
   58.1550   32.7480   43.6510 C   0  0  0  0  0  0  0  0  0  0  0  0
   58.5460   33.8060   44.4720 C   0  0  0  0  0  0  0  0  0  0  0  0
   58.6350   33.6280   45.8640 C   0  0  0  0  0  0  0  0  0  0  0  0
   59.0670   34.7710   46.7490 C   0  0  0  0  0  0  0  0  0  0  0  0
   59.9120   34.2810   47.8990 C   0  0  0  0  0  0  0  0  0  0  0  0
   59.4230   34.4330   49.1590 N   0  0  0  0  0  0  0  0  0  0  0  0
   60.1050   34.0480   50.2370 N   0  0  0  0  0  0  0  0  0  0  0  0
   61.3340   33.4860   50.1360 C   0  0  0  0  0  0  0  0  0  0  0  0
   61.9330   33.1210   51.1820 O   0  0  0  0  0  0  0  0  0  0  0  0
   61.9170   33.3190   48.8710 C   0  0  0  0  0  0  0  0  0  0  0  0
   61.1980   33.7190   47.7320 C   0  0  0  0  0  0  0  0  0  0  0  0
   61.8440   33.4870   46.3850 C   0  0  0  0  0  0  0  0  0  0  0  0
   63.3090   33.9340   46.4320 C   0  0  0  0  0  0  0  0  0  0  0  0
   64.1110   33.3050   47.5970 C   0  0  0  0  0  0  0  0  0  0  0  0
   63.2530   32.6340   48.6910 C   0  0  0  0  0  0  0  0  0  0  0  0
   58.2880   32.3830   46.4190 C   0  0  0  0  0  0  0  0  0  0  0  0
   57.4180   27.6090   45.9500 N   0  0  0  0  0  0  0  0  0  0  0  0
   57.0590   26.3970   45.2630 C   0  0  0  0  0  0  0  0  0  0  0  0
   57.7730   25.9490   44.1370 C   0  0  0  0  0  0  0  0  0  0  0  0
   57.4100   24.7620   43.4990 C   0  0  0  0  0  0  0  0  0  0  0  0
   56.3390   24.0040   43.9800 C   0  0  0  0  0  0  0  0  0  0  0  0
   55.6260   24.4290   45.1100 C   0  0  0  0  0  0  0  0  0  0  0  0
   54.5170   23.6170   45.6440 C   0  0  0  0  0  0  0  0  0  0  0  0
   53.5360   23.3570   44.8930 O   0  0  0  0  0  0  0  0  0  0  0  0
   54.5320   23.1140   46.9920 N   0  0  0  0  0  0  0  0  0  0  0  0
   53.3630   22.5280   47.6240 C   0  0  0  0  0  0  0  0  0  0  0  0
   53.8810   21.7720   48.8410 C   0  0  0  0  0  0  0  0  0  0  0  0
   55.3060   22.2660   49.0720 C   0  0  0  0  0  0  0  0  0  0  0  0
   55.7490   22.9030   47.7620 C   0  0  0  0  0  0  0  0  0  0  0  0
   56.0050   25.6140   45.7600 C   0  0  0  0  0  0  0  0  0  0  0  0
   57.5356   30.6737   43.5529 H   0  0  0  0  0  0  0  0  0  0  0  0
   58.1031   32.8904   42.5615 H   0  0  0  0  0  0  0  0  0  0  0  0
   58.7857   34.7837   44.0285 H   0  0  0  0  0  0  0  0  0  0  0  0
   59.6529   35.4854   46.1521 H   0  0  0  0  0  0  0  0  0  0  0  0
   58.1675   35.2539   47.1585 H   0  0  0  0  0  0  0  0  0  0  0  0
   61.7959   32.4167   46.1357 H   0  0  0  0  0  0  0  0  0  0  0  0
   61.3097   34.0685   45.6193 H   0  0  0  0  0  0  0  0  0  0  0  0
   63.7902   33.6492   45.4847 H   0  0  0  0  0  0  0  0  0  0  0  0
   63.3095   35.0225   46.5903 H   0  0  0  0  0  0  0  0  0  0  0  0
   64.7841   32.5436   47.1761 H   0  0  0  0  0  0  0  0  0  0  0  0
   64.6424   34.1338   48.0877 H   0  0  0  0  0  0  0  0  0  0  0  0
   63.0780   31.5850   48.4099 H   0  0  0  0  0  0  0  0  0  0  0  0
   63.8008   32.7082   49.6420 H   0  0  0  0  0  0  0  0  0  0  0  0
   58.3415   32.2392   47.5082 H   0  0  0  0  0  0  0  0  0  0  0  0
   57.9500   27.5280   46.8450 H   0  0  0  0  0  0  0  0  0  0  0  0
   58.6216   26.5370   43.7574 H   0  0  0  0  0  0  0  0  0  0  0  0
   57.9688   24.4220   42.6146 H   0  0  0  0  0  0  0  0  0  0  0  0
   56.0546   23.0714   43.4707 H   0  0  0  0  0  0  0  0  0  0  0  0
   52.6602   23.3156   47.9335 H   0  0  0  0  0  0  0  0  0  0  0  0
   52.8225   21.8623   46.9350 H   0  0  0  0  0  0  0  0  0  0  0  0
   53.2551   21.9881   49.7194 H   0  0  0  0  0  0  0  0  0  0  0  0
   53.8543   20.6843   48.6793 H   0  0  0  0  0  0  0  0  0  0  0  0
   55.3260   23.0083   49.8835 H   0  0  0  0  0  0  0  0  0  0  0  0
   55.9743   21.4430   49.3651 H   0  0  0  0  0  0  0  0  0  0  0  0
   56.2523   23.8622   47.9534 H   0  0  0  0  0  0  0  0  0  0  0  0
   56.4637   22.2641   47.2225 H   0  0  0  0  0  0  0  0  0  0  0  0
   55.4710   25.9322   46.6675 H   0  0  0  0  0  0  0  0  0  0  0  0
  1  2  2  0
  2  3  1  0
  3  4  1  0
  4  5  2  0
  5  6  1  0
  6  7  2  0
  7  8  1  0
  8  9  1  0
  9 10  1  0
 10 11  2  0
 11 12  1  0
 12 13  1  0
 13 14  2  0
 13 15  1  0
 15 16  2  0
 16 17  1  0
 17 18  1  0
 18 19  1  0
 19 20  1  0
  8 21  2  0
  2 22  1  0
 22 23  1  0
 23 24  2  0
 24 25  1  0
 25 26  2  0
 26 27  1  0
 27 28  1  0
 28 29  2  0
 28 30  1  0
 30 31  1  0
 31 32  1  0
 32 33  1  0
 33 34  1  0
 27 35  2  0
 21  4  1  0
 35 23  1  0
 16 10  1  0
 34 30  1  0
 20 15  1  0
  5 36  1  0
  6 37  1  0
  7 38  1  0
  9 39  1  0
  9 40  1  0
 17 41  1  0
 17 42  1  0
 18 43  1  0
 18 44  1  0
 19 45  1  0
 19 46  1  0
 20 47  1  0
 20 48  1  0
 21 49  1  0
 22 50  1  0
 24 51  1  0
 25 52  1  0
 26 53  1  0
 31 54  1  0
 31 55  1  0
 32 56  1  0
 32 57  1  0
 33 58  1  0
 33 59  1  0
 34 60  1  0
 34 61  1  0
 35 62  1  0
M  CHG  2   3  -1  12  -1
M  END
>  <UniqueID>  (47) 
43

>  <SMILES>  (47) 
O=C([N-]c1cccc(Cc2n[n-]c(=O)c3c2CCCC3)c1)Nc1cccc(C(=O)N2CCCC2)c1

>  <Energy>  (47) 
85.07103398668319

>  <Genealogy>  (47) 
O=C([N-]c1cccc(Cc2n[n-]c(=O)c3c2CCCC3)c1)Nc1cccc(C(=O)N2CCCC2)c1 (protonated)
O=C([N-]c1cccc(Cc2n[n-]c(=O)c3c2CCCC3)c1)Nc1cccc(C(=O)N2CCCC2)c1 (3D coordinates assigned)
O=C([N-]c1cccc(Cc2n[n-]c(=O)c3c2CCCC3)c1)Nc1cccc(C(=O)N2CCCC2)c1 (nonaromatic ring conformer: 85.07103398668319 kcal/mol)

>  <smiles>  (47) 
O=C(Nc1cccc(Cc2n[nH]c(=O)c3c2CCCC3)c1)Nc1cccc(C(=O)N2CCCC2)c1

>  <score_type>  (47) 
oracle

>  <origin>  (47) 
adg

>  <m_score__min__energy>  (47) 
-13.710000000000001

>  <m_primary>  (47) 
energy

$$$$
47:0
     RDKit          3D

 82 85  0  0  0  0  0  0  0  0999 V2000
   66.6330   31.2560   53.7160 C   0  0  0  0  0  0  0  0  0  0  0  0
   67.1030   30.9530   52.3580 N   0  0  0  0  0  0  0  0  0  0  0  0
   67.8610   29.7100   52.1330 C   0  0  0  0  0  0  0  0  0  0  0  0
   67.2060   28.8720   51.0270 C   0  0  0  0  0  0  0  0  0  0  0  0
   66.0180   28.1190   51.5590 C   0  0  0  0  0  0  0  0  0  0  0  0
   66.0290   26.7160   51.6080 C   0  0  0  0  0  0  0  0  0  0  0  0
   64.9090   26.0200   52.0690 C   0  0  0  0  0  0  0  0  0  0  0  0
   63.7670   26.7160   52.4750 C   0  0  0  0  0  0  0  0  0  0  0  0
   63.7440   28.1110   52.4160 C   0  0  0  0  0  0  0  0  0  0  0  0
   64.8630   28.8110   51.9560 C   0  0  0  0  0  0  0  0  0  0  0  0
   66.7200   31.8390   51.2760 C   0  0  0  0  0  0  0  0  0  0  0  0
   67.6000   32.2380   50.4620 O   0  0  0  0  0  0  0  0  0  0  0  0
   65.3430   32.3510   51.1030 C   0  0  0  0  0  0  0  0  0  0  0  0
   64.9480   33.5820   51.6490 C   0  0  0  0  0  0  0  0  0  0  0  0
   63.6370   34.0350   51.4870 C   0  0  0  0  0  0  0  0  0  0  0  0
   62.7010   33.2510   50.8090 C   0  0  0  0  0  0  0  0  0  0  0  0
   63.0740   32.0060   50.2770 C   0  0  0  0  0  0  0  0  0  0  0  0
   62.1270   31.1390   49.6320 N   0  0  0  0  0  0  0  0  0  0  0  0
   61.3350   30.1380   50.2950 C   0  0  0  0  0  0  0  0  0  0  0  0
   61.1500   30.1980   51.5400 O   0  0  0  0  0  0  0  0  0  0  0  0
   60.6540   29.0970   49.4980 C   0  0  0  0  0  0  0  0  0  0  0  0
   59.7120   29.4530   48.5190 C   0  0  0  0  0  0  0  0  0  0  0  0
   59.1540   28.4730   47.6910 C   0  0  0  0  0  0  0  0  0  0  0  0
   59.5010   27.1210   47.8560 C   0  0  0  0  0  0  0  0  0  0  0  0
   59.0330   26.0920   46.8620 C   0  0  0  0  0  0  0  0  0  0  0  0
   57.5950   25.8980   47.0200 N   0  0  0  0  0  0  0  0  0  0  0  0
   56.6210   26.6290   46.2680 C   0  0  0  0  0  0  0  0  0  0  0  0
   55.4540   26.1760   46.1220 O   0  0  0  0  0  0  0  0  0  0  0  0
   57.0200   27.8750   45.5560 C   0  0  0  0  0  0  0  0  0  0  0  0
   55.8170   28.6380   45.2460 N   0  0  0  0  0  0  0  0  0  0  0  0
   55.8090   29.8000   44.4100 C   0  0  0  0  0  0  0  0  0  0  0  0
   54.8260   30.0410   43.6590 O   0  0  0  0  0  0  0  0  0  0  0  0
   56.9730   30.7330   44.4420 C   0  0  0  0  0  0  0  0  0  0  0  0
   56.6320   31.9030   45.2420 N   0  0  0  0  0  0  0  0  0  0  0  0
   57.4210   33.0990   45.2530 C   0  0  0  0  0  0  0  0  0  0  0  0
   56.9400   34.1690   44.7870 O   0  0  0  0  0  0  0  0  0  0  0  0
   58.7960   33.0740   45.8020 C   0  0  0  0  0  0  0  0  0  0  0  0
   59.3730   31.8690   46.2320 C   0  0  0  0  0  0  0  0  0  0  0  0
   60.6780   31.8490   46.7390 C   0  0  0  0  0  0  0  0  0  0  0  0
   61.4400   33.0310   46.8160 C   0  0  0  0  0  0  0  0  0  0  0  0
   62.8400   32.9880   47.3250 C   0  0  0  0  0  0  0  0  0  0  0  0
   63.5270   31.8880   47.2180 N   0  0  0  0  0  0  0  0  0  0  0  0
   63.4500   34.1380   47.9310 N   0  0  0  0  0  0  0  0  0  0  0  0
   60.8610   34.2340   46.3710 C   0  0  0  0  0  0  0  0  0  0  0  0
   59.5500   34.2550   45.8830 C   0  0  0  0  0  0  0  0  0  0  0  0
   60.3970   26.7610   48.8740 C   0  0  0  0  0  0  0  0  0  0  0  0
   60.9700   27.7410   49.6880 C   0  0  0  0  0  0  0  0  0  0  0  0
   64.3930   31.5590   50.4450 C   0  0  0  0  0  0  0  0  0  0  0  0
   67.3217   30.8120   54.4499 H   0  0  0  0  0  0  0  0  0  0  0  0
   66.5993   32.3463   53.8576 H   0  0  0  0  0  0  0  0  0  0  0  0
   65.6260   30.8366   53.8576 H   0  0  0  0  0  0  0  0  0  0  0  0
   68.8893   29.9624   51.8347 H   0  0  0  0  0  0  0  0  0  0  0  0
   67.8684   29.1250   53.0645 H   0  0  0  0  0  0  0  0  0  0  0  0
   66.8767   29.5389   50.2166 H   0  0  0  0  0  0  0  0  0  0  0  0
   67.9430   28.1470   50.6512 H   0  0  0  0  0  0  0  0  0  0  0  0
   66.9224   26.1630   51.2824 H   0  0  0  0  0  0  0  0  0  0  0  0
   64.9259   24.9210   52.1126 H   0  0  0  0  0  0  0  0  0  0  0  0
   62.8875   26.1657   52.8405 H   0  0  0  0  0  0  0  0  0  0  0  0
   62.8444   28.6595   52.7318 H   0  0  0  0  0  0  0  0  0  0  0  0
   64.8384   29.9095   51.9048 H   0  0  0  0  0  0  0  0  0  0  0  0
   65.6737   34.1923   52.2066 H   0  0  0  0  0  0  0  0  0  0  0  0
   63.3406   35.0127   51.8948 H   0  0  0  0  0  0  0  0  0  0  0  0
   61.6679   33.6100   50.6913 H   0  0  0  0  0  0  0  0  0  0  0  0
   61.9370   31.3090   48.6200 H   0  0  0  0  0  0  0  0  0  0  0  0
   59.4122   30.5050   48.4030 H   0  0  0  0  0  0  0  0  0  0  0  0
   58.4395   28.7623   46.9063 H   0  0  0  0  0  0  0  0  0  0  0  0
   59.2481   26.4408   45.8412 H   0  0  0  0  0  0  0  0  0  0  0  0
   59.5576   25.1411   47.0367 H   0  0  0  0  0  0  0  0  0  0  0  0
   57.6830   28.4730   46.1985 H   0  0  0  0  0  0  0  0  0  0  0  0
   57.5553   27.6233   44.6286 H   0  0  0  0  0  0  0  0  0  0  0  0
   57.8400   30.2234   44.8876 H   0  0  0  0  0  0  0  0  0  0  0  0
   57.2211   31.0472   43.4175 H   0  0  0  0  0  0  0  0  0  0  0  0
   58.7963   30.9343   46.1703 H   0  0  0  0  0  0  0  0  0  0  0  0
   61.1134   30.8986   47.0813 H   0  0  0  0  0  0  0  0  0  0  0  0
   64.5150   31.8900   46.8870 H   0  0  0  0  0  0  0  0  0  0  0  0
   62.8860   34.9540   48.2510 H   0  0  0  0  0  0  0  0  0  0  0  0
   64.4780   34.1630   48.0710 H   0  0  0  0  0  0  0  0  0  0  0  0
   61.4443   35.1659   46.4072 H   0  0  0  0  0  0  0  0  0  0  0  0
   59.1053   35.2076   45.5592 H   0  0  0  0  0  0  0  0  0  0  0  0
   60.6494   25.7020   49.0318 H   0  0  0  0  0  0  0  0  0  0  0  0
   61.6728   27.4495   50.4825 H   0  0  0  0  0  0  0  0  0  0  0  0
   64.6854   30.5730   50.0547 H   0  0  0  0  0  0  0  0  0  0  0  0
  1  2  1  0
  2  3  1  0
  3  4  1  0
  4  5  1  0
  5  6  2  0
  6  7  1  0
  7  8  2  0
  8  9  1  0
  9 10  2  0
  2 11  1  0
 11 12  2  0
 11 13  1  0
 13 14  2  0
 14 15  1  0
 15 16  2  0
 16 17  1  0
 17 18  1  0
 18 19  1  0
 19 20  2  0
 19 21  1  0
 21 22  2  0
 22 23  1  0
 23 24  2  0
 24 25  1  0
 25 26  1  0
 26 27  1  0
 27 28  2  0
 27 29  1  0
 29 30  1  0
 30 31  1  0
 31 32  2  0
 31 33  1  0
 33 34  1  0
 34 35  1  0
 35 36  2  0
 35 37  1  0
 37 38  2  0
 38 39  1  0
 39 40  2  0
 40 41  1  0
 41 42  2  3
 41 43  1  0
 40 44  1  0
 44 45  2  0
 24 46  1  0
 46 47  2  0
 17 48  2  0
 10  5  1  0
 48 13  1  0
 47 21  1  0
 45 37  1  0
  1 49  1  0
  1 50  1  0
  1 51  1  0
  3 52  1  0
  3 53  1  0
  4 54  1  0
  4 55  1  0
  6 56  1  0
  7 57  1  0
  8 58  1  0
  9 59  1  0
 10 60  1  0
 14 61  1  0
 15 62  1  0
 16 63  1  0
 18 64  1  0
 22 65  1  0
 23 66  1  0
 25 67  1  0
 25 68  1  0
 29 69  1  0
 29 70  1  0
 33 71  1  0
 33 72  1  0
 38 73  1  0
 39 74  1  0
 42 75  1  0
 43 76  1  0
 43 77  1  0
 44 78  1  0
 45 79  1  0
 46 80  1  0
 47 81  1  0
 48 82  1  0
M  CHG  3  26  -1  30  -1  34  -1
M  END
>  <UniqueID>  (48) 
44

>  <SMILES>  (48) 
CN(CCc1ccccc1)C(=O)c1cccc(NC(=O)c2ccc(C[N-]C(=O)C[N-]C(=O)C[N-]C(=O)c3ccc(C(=N)N)cc3)cc2)c1

>  <Energy>  (48) 
80.11758362680536

>  <Genealogy>  (48) 
CN(CCc1ccccc1)C(=O)c1cccc(NC(=O)c2ccc(C[N-]C(=O)C[N-]C(=O)C[N-]C(=O)c3ccc(C(=N)N)cc3)cc2)c1 (protonated)
CN(CCc1ccccc1)C(=O)c1cccc(NC(=O)c2ccc(C[N-]C(=O)C[N-]C(=O)C[N-]C(=O)c3ccc(C(=N)N)cc3)cc2)c1 (3D coordinates assigned)
CN(CCc1ccccc1)C(=O)c1cccc(NC(=O)c2ccc(C[N-]C(=O)C[N-]C(=O)C[N-]C(=O)c3ccc(C(=N)N)cc3)cc2)c1 (optimized conformer: 80.11758362680536 kcal/mol)

>  <smiles>  (48) 
CN(CCc1ccccc1)C(=O)c1cccc(NC(=O)c2ccc(CNC(=O)CNC(=O)CNC(=O)c3ccc(C(=N)N)cc3)cc2)c1

>  <score_type>  (48) 
oracle

>  <origin>  (48) 
adg

>  <m_score__min__energy>  (48) 
-14.890000000000001

>  <m_primary>  (48) 
energy

$$$$
48:0
     RDKit          3D

 54 57  0  0  0  0  0  0  0  0999 V2000
   61.0240   28.0880   45.5860 O   0  0  0  0  0  0  0  0  0  0  0  0
   60.0960   28.7320   46.1510 C   0  0  0  0  0  0  0  0  0  0  0  0
   58.6750   28.4890   45.7030 C   0  0  0  0  0  0  0  0  0  0  0  0
   57.8900   27.6680   46.7320 C   0  0  0  0  0  0  0  0  0  0  0  0
   57.5230   26.3550   46.1980 N   0  0  0  0  0  0  0  0  0  0  0  0
   56.2780   25.9430   45.8740 C   0  0  0  0  0  0  0  0  0  0  0  0
   55.1330   26.7190   46.0170 O   0  0  0  0  0  0  0  0  0  0  0  0
   56.3120   24.6600   45.3720 C   0  0  0  0  0  0  0  0  0  0  0  0
   57.6350   24.2880   45.3360 C   0  0  0  0  0  0  0  0  0  0  0  0
   58.3540   25.3370   45.8690 C   0  0  0  0  0  0  0  0  0  0  0  0
   59.7390   25.3460   46.0400 O   0  0  0  0  0  0  0  0  0  0  0  0
   58.1170   22.9450   44.8800 C   0  0  0  0  0  0  0  0  0  0  0  0
   57.0470   22.2680   43.9990 C   0  0  0  0  0  0  0  0  0  0  0  0
   55.6390   22.3730   44.6260 C   0  0  0  0  0  0  0  0  0  0  0  0
   55.1950   23.8400   44.7980 C   0  0  0  0  0  0  0  0  0  0  0  0
   60.4160   29.5410   47.2920 N   0  0  0  0  0  0  0  0  0  0  0  0
   59.9770   30.8830   47.5530 C   0  0  0  0  0  0  0  0  0  0  0  0
   59.9930   31.3600   48.8700 C   0  0  0  0  0  0  0  0  0  0  0  0
   59.5670   32.6580   49.1530 C   0  0  0  0  0  0  0  0  0  0  0  0
   59.1260   33.4950   48.1240 C   0  0  0  0  0  0  0  0  0  0  0  0
   59.1440   33.0460   46.7990 C   0  0  0  0  0  0  0  0  0  0  0  0
   58.5810   34.0810   45.4950 S   0  0  0  0  0  0  0  0  0  0  0  0
   57.2060   34.5890   45.8290 O   0  0  0  0  0  0  0  0  0  0  0  0
   59.4970   35.2610   45.3220 O   0  0  0  0  0  0  0  0  0  0  0  0
   58.5130   33.1920   44.0070 N   0  0  0  0  0  0  0  0  0  0  0  0
   57.6750   32.0510   43.7680 C   0  0  0  0  0  0  0  0  0  0  0  0
   57.1240   31.2960   44.8200 C   0  0  0  0  0  0  0  0  0  0  0  0
   56.3550   30.1600   44.5490 C   0  0  0  0  0  0  0  0  0  0  0  0
   56.1180   29.7730   43.2280 C   0  0  0  0  0  0  0  0  0  0  0  0
   56.6360   30.5330   42.1770 C   0  0  0  0  0  0  0  0  0  0  0  0
   57.4060   31.6710   42.4450 C   0  0  0  0  0  0  0  0  0  0  0  0
   57.9100   32.3920   41.4190 F   0  0  0  0  0  0  0  0  0  0  0  0
   59.6010   31.7510   46.5120 C   0  0  0  0  0  0  0  0  0  0  0  0
   58.1743   29.4584   45.5632 H   0  0  0  0  0  0  0  0  0  0  0  0
   58.7042   27.9216   44.7611 H   0  0  0  0  0  0  0  0  0  0  0  0
   58.5117   27.5289   47.6288 H   0  0  0  0  0  0  0  0  0  0  0  0
   56.9666   28.2125   46.9787 H   0  0  0  0  0  0  0  0  0  0  0  0
   60.2740   26.2060   46.0350 H   0  0  0  0  0  0  0  0  0  0  0  0
   59.0421   23.0690   44.2979 H   0  0  0  0  0  0  0  0  0  0  0  0
   58.3099   22.3142   45.7602 H   0  0  0  0  0  0  0  0  0  0  0  0
   57.0355   22.7567   43.0136 H   0  0  0  0  0  0  0  0  0  0  0  0
   57.3027   21.2020   43.9080 H   0  0  0  0  0  0  0  0  0  0  0  0
   54.9193   21.8577   43.9729 H   0  0  0  0  0  0  0  0  0  0  0  0
   55.6734   21.9078   45.6222 H   0  0  0  0  0  0  0  0  0  0  0  0
   54.9109   24.2501   43.8176 H   0  0  0  0  0  0  0  0  0  0  0  0
   54.3368   23.8750   45.4852 H   0  0  0  0  0  0  0  0  0  0  0  0
   60.3429   30.7085   49.6843 H   0  0  0  0  0  0  0  0  0  0  0  0
   59.5782   33.0243   50.1902 H   0  0  0  0  0  0  0  0  0  0  0  0
   58.7645   34.5076   48.3562 H   0  0  0  0  0  0  0  0  0  0  0  0
   57.2994   31.6014   45.8621 H   0  0  0  0  0  0  0  0  0  0  0  0
   55.9360   29.5701   45.3775 H   0  0  0  0  0  0  0  0  0  0  0  0
   55.5246   28.8714   43.0159 H   0  0  0  0  0  0  0  0  0  0  0  0
   56.4385   30.2367   41.1362 H   0  0  0  0  0  0  0  0  0  0  0  0
   59.6656   31.4126   45.4673 H   0  0  0  0  0  0  0  0  0  0  0  0
  1  2  2  0
  2  3  1  0
  3  4  1  0
  4  5  1  0
  5  6  1  0
  6  7  1  0
  6  8  2  0
  8  9  1  0
  9 10  2  0
 10 11  1  0
  9 12  1  0
 12 13  1  0
 13 14  1  0
 14 15  1  0
  2 16  1  0
 16 17  1  0
 17 18  2  0
 18 19  1  0
 19 20  2  0
 20 21  1  0
 21 22  1  0
 22 23  2  0
 22 24  2  0
 22 25  1  0
 25 26  1  0
 26 27  2  0
 27 28  1  0
 28 29  2  0
 29 30  1  0
 30 31  2  0
 31 32  1  0
 21 33  2  0
 10  5  1  0
 33 17  1  0
 15  8  1  0
 31 26  1  0
  3 34  1  0
  3 35  1  0
  4 36  1  0
  4 37  1  0
 11 38  1  0
 12 39  1  0
 12 40  1  0
 13 41  1  0
 13 42  1  0
 14 43  1  0
 14 44  1  0
 15 45  1  0
 15 46  1  0
 18 47  1  0
 19 48  1  0
 20 49  1  0
 27 50  1  0
 28 51  1  0
 29 52  1  0
 30 53  1  0
 33 54  1  0
M  CHG  3   7  -1  16  -1  25  -1
M  END
>  <UniqueID>  (49) 
45

>  <SMILES>  (49) 
O=C(CCn1c([O-])c2c(c1O)CCCC2)[N-]c1cccc(S(=O)(=O)[N-]c2ccccc2F)c1

>  <Energy>  (49) 
86.56448209945829

>  <Genealogy>  (49) 
O=C(CCn1c([O-])c2c(c1O)CCCC2)[N-]c1cccc(S(=O)(=O)[N-]c2ccccc2F)c1 (protonated)
O=C(CCn1c([O-])c2c(c1O)CCCC2)[N-]c1cccc(S(=O)(=O)[N-]c2ccccc2F)c1 (3D coordinates assigned)
O=C(CCn1c([O-])c2c(c1O)CCCC2)[N-]c1cccc(S(=O)(=O)[N-]c2ccccc2F)c1 (nonaromatic ring conformer: 86.56448209945829 kcal/mol)

>  <smiles>  (49) 
O=C(CCn1c(O)c2c(c1O)CCCC2)Nc1cccc(S(=O)(=O)Nc2ccccc2F)c1

>  <score_type>  (49) 
oracle

>  <origin>  (49) 
adg

>  <m_score__min__energy>  (49) 
-14.85

>  <m_primary>  (49) 
energy

$$$$
49:0
     RDKit          3D

 53 57  0  0  0  0  0  0  0  0999 V2000
   54.5530   29.9610   51.7350 C   0  0  0  0  0  0  0  0  0  0  0  0
   53.8860   29.3050   52.7040 C   0  0  0  0  0  0  0  0  0  0  0  0
   54.5560   28.5020   53.6690 C   0  0  0  0  0  0  0  0  0  0  0  0
   56.0200   28.3800   53.8020 C   0  0  0  0  0  0  0  0  0  0  0  0
   56.6930   27.6720   54.7800 C   0  0  0  0  0  0  0  0  0  0  0  0
   58.0350   27.8700   54.5290 C   0  0  0  0  0  0  0  0  0  0  0  0
   58.0910   28.7110   53.4350 C   0  0  0  0  0  0  0  0  0  0  0  0
   59.3230   29.1960   52.7960 C   0  0  0  0  0  0  0  0  0  0  0  0
   59.4380   29.5860   51.5040 C   0  0  0  0  0  0  0  0  0  0  0  0
   59.9990   28.6380   50.5120 C   0  0  0  0  0  0  0  0  0  0  0  0
   60.3750   27.4850   50.8550 O   0  0  0  0  0  0  0  0  0  0  0  0
   60.1070   29.0110   49.1430 N   0  0  0  0  0  0  0  0  0  0  0  0
   59.7310   30.3070   48.6860 C   0  0  0  0  0  0  0  0  0  0  0  0
   59.8340   30.5740   47.4590 O   0  0  0  0  0  0  0  0  0  0  0  0
   59.2570   31.3010   49.6160 N   0  0  0  0  0  0  0  0  0  0  0  0
   59.0020   32.6750   49.1440 C   0  0  0  0  0  0  0  0  0  0  0  0
   57.9360   32.7060   48.0440 C   0  0  0  0  0  0  0  0  0  0  0  0
   58.3980   33.4690   46.8300 C   0  0  0  0  0  0  0  0  0  0  0  0
   59.2950   34.5430   46.9620 C   0  0  0  0  0  0  0  0  0  0  0  0
   59.6780   35.2810   45.8390 C   0  0  0  0  0  0  0  0  0  0  0  0
   59.1780   34.9470   44.5760 C   0  0  0  0  0  0  0  0  0  0  0  0
   58.3220   33.8540   44.4280 C   0  0  0  0  0  0  0  0  0  0  0  0
   57.9320   33.1150   45.5510 C   0  0  0  0  0  0  0  0  0  0  0  0
   59.1030   30.9610   51.0130 C   0  0  0  0  0  0  0  0  0  0  0  0
   58.7400   31.8550   51.8240 O   0  0  0  0  0  0  0  0  0  0  0  0
   56.8790   28.9850   53.0170 O   0  0  0  0  0  0  0  0  0  0  0  0
   53.7150   27.9420   54.6220 C   0  0  0  0  0  0  0  0  0  0  0  0
   52.1580   28.4650   54.3150 S   0  0  0  0  0  0  0  0  0  0  0  0
   52.4900   29.3720   52.9360 C   0  0  0  0  0  0  0  0  0  0  0  0
   51.5010   29.9990   52.2700 C   0  0  0  0  0  0  0  0  0  0  0  0
   50.9280   31.3090   52.6020 C   0  0  0  0  0  0  0  0  0  0  0  0
   50.6460   31.7230   53.8520 N   0  0  0  0  0  0  0  0  0  0  0  0
   50.2530   33.0030   53.6700 C   0  0  0  0  0  0  0  0  0  0  0  0
   49.8950   33.7430   54.6230 O   0  0  0  0  0  0  0  0  0  0  0  0
   50.2880   33.4310   52.3890 N   0  0  0  0  0  0  0  0  0  0  0  0
   50.7300   32.3490   51.7280 C   0  0  0  0  0  0  0  0  0  0  0  0
   50.9440   32.3100   50.3570 O   0  0  0  0  0  0  0  0  0  0  0  0
   54.0021   30.5730   51.0056 H   0  0  0  0  0  0  0  0  0  0  0  0
   55.6486   29.8848   51.6731 H   0  0  0  0  0  0  0  0  0  0  0  0
   56.2502   27.0745   55.5905 H   0  0  0  0  0  0  0  0  0  0  0  0
   58.8842   27.4460   55.0849 H   0  0  0  0  0  0  0  0  0  0  0  0
   60.2277   29.2464   53.4197 H   0  0  0  0  0  0  0  0  0  0  0  0
   58.6576   33.2853   49.9919 H   0  0  0  0  0  0  0  0  0  0  0  0
   59.9382   33.0741   48.7265 H   0  0  0  0  0  0  0  0  0  0  0  0
   57.7029   31.6730   47.7464 H   0  0  0  0  0  0  0  0  0  0  0  0
   57.0478   33.2148   48.4467 H   0  0  0  0  0  0  0  0  0  0  0  0
   59.6967   34.8034   47.9524 H   0  0  0  0  0  0  0  0  0  0  0  0
   60.3738   36.1259   45.9483 H   0  0  0  0  0  0  0  0  0  0  0  0
   59.4597   35.5466   43.6978 H   0  0  0  0  0  0  0  0  0  0  0  0
   57.9544   33.5739   43.4298 H   0  0  0  0  0  0  0  0  0  0  0  0
   57.2581   32.2537   45.4327 H   0  0  0  0  0  0  0  0  0  0  0  0
   54.0210   27.2704   55.4377 H   0  0  0  0  0  0  0  0  0  0  0  0
   51.0833   29.4802   51.3946 H   0  0  0  0  0  0  0  0  0  0  0  0
  1  2  2  0
  2  3  1  0
  3  4  1  0
  4  5  2  0
  5  6  1  0
  6  7  2  0
  7  8  1  0
  8  9  2  3
  9 10  1  0
 10 11  2  0
 10 12  1  0
 12 13  1  0
 13 14  2  0
 13 15  1  0
 15 16  1  0
 16 17  1  0
 17 18  1  0
 18 19  2  0
 19 20  1  0
 20 21  2  0
 21 22  1  0
 22 23  2  0
 15 24  1  0
 24 25  2  0
  7 26  1  0
  3 27  2  0
 27 28  1  0
 28 29  1  0
 29 30  2  3
 30 31  1  0
 31 32  1  0
 32 33  1  0
 33 34  2  0
 33 35  1  0
 35 36  1  0
 36 37  1  0
 29  2  1  0
 36 31  2  0
 26  4  1  0
 24  9  1  0
 23 18  1  0
  1 38  1  0
  1 39  1  0
  5 40  1  0
  6 41  1  0
  8 42  1  0
 16 43  1  0
 16 44  1  0
 17 45  1  0
 17 46  1  0
 19 47  1  0
 20 48  1  0
 21 49  1  0
 22 50  1  0
 23 51  1  0
 27 52  1  0
 30 53  1  0
M  CHG  4  12  -1  32  -1  35  -1  37  -1
M  END
>  <UniqueID>  (50) 
46

>  <SMILES>  (50) 
C=c1c(-c2ccc(C=C3C(=O)[N-]C(=O)N(CCc4ccccc4)C3=O)o2)csc1=Cc1[n-]c(=O)[n-]c1[O-]

>  <Energy>  (50) 
160.935499166694

>  <Genealogy>  (50) 
C=c1c(-c2ccc(C=C3C(=O)[N-]C(=O)N(CCc4ccccc4)C3=O)o2)csc1=Cc1[n-]c(=O)[n-]c1[O-] (protonated)
C=c1c(-c2ccc(C=C3C(=O)[N-]C(=O)N(CCc4ccccc4)C3=O)o2)csc1=Cc1[n-]c(=O)[n-]c1[O-] (3D coordinates assigned)
C=c1c(-c2ccc(C=C3C(=O)[N-]C(=O)N(CCc4ccccc4)C3=O)o2)csc1=Cc1[n-]c(=O)[n-]c1[O-] (nonaromatic ring conformer: 160.935499166694 kcal/mol)

>  <smiles>  (50) 
C=c1c(-c2ccc(C=C3C(=O)NC(=O)N(CCc4ccccc4)C3=O)o2)csc1=Cc1[nH]c(=O)[nH]c1O

>  <score_type>  (50) 
oracle

>  <origin>  (50) 
adg

>  <m_score__min__energy>  (50) 
-20.16

>  <m_primary>  (50) 
energy

$$$$
50:0
     RDKit          3D

 75 79  0  0  0  0  0  0  0  0999 V2000
   56.7090   31.3912   46.2616 H   0  0  0  0  0  0  0  0  0  0  0  0
   57.7830   31.3690   46.0250 C   0  0  0  0  0  0  0  0  0  0  0  0
   58.4280   32.5600   46.0010 C   0  0  0  0  0  0  0  0  0  0  0  0
   58.5500   33.4060   44.7920 C   0  0  0  0  0  0  0  0  0  0  0  0
   57.8430   33.2080   43.7690 O   0  0  0  0  0  0  0  0  0  0  0  0
   59.4680   34.4970   44.7870 N   0  0  0  0  0  0  0  0  0  0  0  0
   59.9380   35.1740   45.9910 C   0  0  0  0  0  0  0  0  0  0  0  0
   60.9671   35.5216   45.8172 H   0  0  0  0  0  0  0  0  0  0  0  0
   59.2474   36.0073   46.1876 H   0  0  0  0  0  0  0  0  0  0  0  0
   59.9310   34.2840   47.2200 C   0  0  0  0  0  0  0  0  0  0  0  0
   60.6500   34.6000   48.3250 C   0  0  0  0  0  0  0  0  0  0  0  0
   60.2861   35.4405   48.9341 H   0  0  0  0  0  0  0  0  0  0  0  0
   61.8870   33.9140   48.7900 C   0  0  0  0  0  0  0  0  0  0  0  0
   62.0300   33.5750   50.1010 N   0  0  0  0  0  0  0  0  0  0  0  0
   63.1210   32.9160   50.5730 C   0  0  0  0  0  0  0  0  0  0  0  0
   63.2080   32.6130   52.0400 C   0  0  0  0  0  0  0  0  0  0  0  0
   62.9494   33.5135   52.6164 H   0  0  0  0  0  0  0  0  0  0  0  0
   62.5059   31.8038   52.2895 H   0  0  0  0  0  0  0  0  0  0  0  0
   64.2324   32.2995   52.2895 H   0  0  0  0  0  0  0  0  0  0  0  0
   64.1330   32.5430   49.6700 C   0  0  0  0  0  0  0  0  0  0  0  0
   65.3710   31.8210   50.1150 C   0  0  0  0  0  0  0  0  0  0  0  0
   65.4078   31.7995   51.2142 H   0  0  0  0  0  0  0  0  0  0  0  0
   65.3539   30.7913   49.7285 H   0  0  0  0  0  0  0  0  0  0  0  0
   66.2588   32.3430   49.7285 H   0  0  0  0  0  0  0  0  0  0  0  0
   63.9900   32.8630   48.3560 N   0  0  0  0  0  0  0  0  0  0  0  0
   62.9050   33.5340   47.8860 C   0  0  0  0  0  0  0  0  0  0  0  0
   62.8280   33.8350   46.4170 C   0  0  0  0  0  0  0  0  0  0  0  0
   62.5577   34.8915   46.2729 H   0  0  0  0  0  0  0  0  0  0  0  0
   63.8051   33.6396   45.9510 H   0  0  0  0  0  0  0  0  0  0  0  0
   62.0648   33.1944   45.9510 H   0  0  0  0  0  0  0  0  0  0  0  0
   59.0590   33.0740   47.2430 C   0  0  0  0  0  0  0  0  0  0  0  0
   58.8550   32.4740   48.3380 O   0  0  0  0  0  0  0  0  0  0  0  0
   58.3820   30.0400   45.7640 C   0  0  0  0  0  0  0  0  0  0  0  0
   58.7040   29.5360   44.5140 C   0  0  0  0  0  0  0  0  0  0  0  0
   58.4788   29.9986   43.5418 H   0  0  0  0  0  0  0  0  0  0  0  0
   59.3620   28.3410   44.7250 C   0  0  0  0  0  0  0  0  0  0  0  0
   59.7406   27.6537   43.9541 H   0  0  0  0  0  0  0  0  0  0  0  0
   59.4520   28.1770   46.0940 C   0  0  0  0  0  0  0  0  0  0  0  0
   60.1310   27.0240   46.7730 C   0  0  0  0  0  0  0  0  0  0  0  0
   60.4737   26.3038   46.0155 H   0  0  0  0  0  0  0  0  0  0  0  0
   60.9932   27.3952   47.3464 H   0  0  0  0  0  0  0  0  0  0  0  0
   59.1970   26.3680   47.6770 N   0  0  0  0  0  0  0  0  0  0  0  0
   58.1330   25.5340   47.2150 C   0  0  0  0  0  0  0  0  0  0  0  0
   57.8440   24.4770   47.8420 O   0  0  0  0  0  0  0  0  0  0  0  0
   57.4020   25.8980   45.9470 C   0  0  2  0  0  0  0  0  0  0  0  0
   57.5743   26.9734   45.7930 H   0  0  0  0  0  0  0  0  0  0  0  0
   55.9100   25.7150   46.0670 C   0  0  0  0  0  0  0  0  0  0  0  0
   55.1230   26.6900   45.9480 O   0  0  0  0  0  0  0  0  0  0  0  0
   55.3970   24.4620   46.3760 O   0  0  0  0  0  0  0  0  0  0  0  0
   57.9750   25.1740   44.7110 C   0  0  0  0  0  0  0  0  0  0  0  0
   57.9565   25.8719   43.8610 H   0  0  0  0  0  0  0  0  0  0  0  0
   58.9947   24.8541   44.9717 H   0  0  0  0  0  0  0  0  0  0  0  0
   57.2130   23.9350   44.3240 C   0  0  0  0  0  0  0  0  0  0  0  0
   56.2480   23.8320   43.3240 C   0  0  0  0  0  0  0  0  0  0  0  0
   55.9340   24.6570   42.6677 H   0  0  0  0  0  0  0  0  0  0  0  0
   55.7520   22.5750   43.2740 N   0  0  0  0  0  0  0  0  0  0  0  0
   55.0110   22.2200   42.6280 H   0  0  0  0  0  0  0  0  0  0  0  0
   56.3960   21.8820   44.2290 C   0  0  0  0  0  0  0  0  0  0  0  0
   56.2160   20.5400   44.5660 C   0  0  0  0  0  0  0  0  0  0  0  0
   55.4951   19.9106   44.0236 H   0  0  0  0  0  0  0  0  0  0  0  0
   56.9860   20.0170   45.6220 C   0  0  0  0  0  0  0  0  0  0  0  0
   56.8725   18.9618   45.9112 H   0  0  0  0  0  0  0  0  0  0  0  0
   57.9030   20.8390   46.3120 C   0  0  0  0  0  0  0  0  0  0  0  0
   58.4950   20.4208   47.1394 H   0  0  0  0  0  0  0  0  0  0  0  0
   58.0660   22.1890   45.9500 C   0  0  0  0  0  0  0  0  0  0  0  0
   58.7787   22.8375   46.4805 H   0  0  0  0  0  0  0  0  0  0  0  0
   57.2930   22.6780   44.8950 C   0  0  0  0  0  0  0  0  0  0  0  0
   58.8600   29.2180   46.7280 N   0  0  0  0  0  0  0  0  0  0  0  0
   58.8250   29.4630   48.1770 C   0  0  0  0  0  0  0  0  0  0  0  0
   58.4786   28.5530   48.6889 H   0  0  0  0  0  0  0  0  0  0  0  0
   58.1384   30.2986   48.3780 H   0  0  0  0  0  0  0  0  0  0  0  0
   60.2120   29.8320   48.6950 C   0  0  0  0  0  0  0  0  0  0  0  0
   60.2051   29.8302   49.7950 H   0  0  0  0  0  0  0  0  0  0  0  0
   60.9463   29.0980   48.3317 H   0  0  0  0  0  0  0  0  0  0  0  0
   60.4845   30.8339   48.3317 H   0  0  0  0  0  0  0  0  0  0  0  0
  1  2  1  0
  2  3  2  3
  3  4  1  0
  4  5  2  0
  4  6  1  0
  6  7  1  0
  7  8  1  0
  7  9  1  0
  7 10  1  0
 10 11  2  0
 11 12  1  0
 11 13  1  0
 13 14  2  0
 14 15  1  0
 15 16  1  0
 16 17  1  0
 16 18  1  0
 16 19  1  0
 15 20  2  0
 20 21  1  0
 21 22  1  0
 21 23  1  0
 21 24  1  0
 20 25  1  0
 25 26  2  0
 26 27  1  0
 27 28  1  0
 27 29  1  0
 27 30  1  0
 10 31  1  0
 31 32  2  0
  2 33  1  0
 33 34  2  0
 34 35  1  0
 34 36  1  0
 36 37  1  0
 36 38  2  0
 38 39  1  0
 39 40  1  0
 39 41  1  0
 39 42  1  0
 42 43  1  0
 43 44  2  0
 43 45  1  0
 45 46  1  6
 45 47  1  0
 47 48  2  0
 47 49  1  0
 45 50  1  0
 50 51  1  0
 50 52  1  0
 50 53  1  0
 53 54  2  0
 54 55  1  0
 54 56  1  0
 56 57  1  0
 56 58  1  0
 58 59  2  0
 59 60  1  0
 59 61  1  0
 61 62  1  0
 61 63  2  0
 63 64  1  0
 63 65  1  0
 65 66  1  0
 65 67  2  0
 38 68  1  0
 68 69  1  0
 69 70  1  0
 69 71  1  0
 69 72  1  0
 72 73  1  0
 72 74  1  0
 72 75  1  0
 31  3  1  0
 68 33  1  0
 26 13  1  0
 67 53  1  0
 67 58  1  0
M  CHG  3   6  -1  42  -1  49  -1
M  END
>  <UniqueID>  (51) 
47

>  <SMILES>  (51) 
CCn1c(C=C2C(=O)[N-]C/C(=C\c3nc(C)c(C)nc3C)C2=O)ccc1C[N-]C(=O)[C@@H](Cc1c[nH]c2ccccc12)C(=O)[O-]

>  <Energy>  (51) 
149.9561960073661

>  <Genealogy>  (51) 
CCn1c(C=C2C(=O)[N-]CC(=Cc3nc(C)c(C)nc3C)C2=O)ccc1C[N-]C(=O)C(Cc1c[nH]c2ccccc12)C(=O)[O-] (protonated)
CCn1c(C=C2C(=O)[N-]CC(=Cc3nc(C)c(C)nc3C)C2=O)ccc1C[N-]C(=O)[C@@H](Cc1c[nH]c2ccccc12)C(=O)[O-] (chirality)
CCn1c(C=C2C(=O)[N-]C/C(=C\c3nc(C)c(C)nc3C)C2=O)ccc1C[N-]C(=O)[C@@H](Cc1c[nH]c2ccccc12)C(=O)[O-] (cis-trans isomerization)
CCn1c(C=C2C(=O)[N-]C/C(=C\c3nc(C)c(C)nc3C)C2=O)ccc1C[N-]C(=O)[C@@H](Cc1c[nH]c2ccccc12)C(=O)[O-] (3D coordinates assigned)
CCn1c(C=C2C(=O)[N-]C/C(=C\c3nc(C)c(C)nc3C)C2=O)ccc1C[N-]C(=O)[C@@H](Cc1c[nH]c2ccccc12)C(=O)[O-] (nonaromatic ring conformer: 149.9561960073661 kcal/mol)

>  <smiles>  (51) 
CCn1c(C=C2C(=O)NCC(=Cc3nc(C)c(C)nc3C)C2=O)ccc1CNC(=O)C(Cc1c[nH]c2ccccc12)C(=O)O

>  <score_type>  (51) 
oracle

>  <origin>  (51) 
adg

>  <m_score__min__energy>  (51) 
-15.83

>  <m_primary>  (51) 
energy

$$$$
51:0
     RDKit          3D

 70 76  0  0  0  0  0  0  0  0999 V2000
   59.1640   28.5400   44.4590 C   0  0  0  0  0  0  0  0  0  0  0  0
   58.1580   27.6280   44.9990 N   0  0  0  0  0  0  0  0  0  0  0  0
   58.3620   26.3300   45.3100 C   0  0  0  0  0  0  0  0  0  0  0  0
   57.1850   25.7630   45.7740 C   0  0  0  0  0  0  0  0  0  0  0  0
   56.9980   24.3610   46.2150 C   0  0  0  0  0  0  0  0  0  0  0  0
   55.8610   23.9900   46.9530 C   0  0  0  0  0  0  0  0  0  0  0  0
   55.6910   22.6670   47.3630 C   0  0  0  0  0  0  0  0  0  0  0  0
   56.6640   21.7200   47.0410 C   0  0  0  0  0  0  0  0  0  0  0  0
   57.7660   22.0910   46.3380 N   0  0  0  0  0  0  0  0  0  0  0  0
   57.9540   23.3730   45.9230 C   0  0  0  0  0  0  0  0  0  0  0  0
   56.2420   26.7750   45.7440 C   0  0  0  0  0  0  0  0  0  0  0  0
   54.9210   26.6900   46.1700 O   0  0  0  0  0  0  0  0  0  0  0  0
   56.8590   27.9060   45.2440 C   0  0  0  0  0  0  0  0  0  0  0  0
   56.2140   29.2570   45.0720 C   0  0  0  0  0  0  0  0  0  0  0  0
   57.1670   30.2280   44.6350 O   0  0  0  0  0  0  0  0  0  0  0  0
   58.0150   30.9710   45.4760 C   0  0  0  0  0  0  0  0  0  0  0  0
   58.4120   30.5140   46.7430 C   0  0  0  0  0  0  0  0  0  0  0  0
   59.2680   31.2750   47.5650 C   0  0  0  0  0  0  0  0  0  0  0  0
   59.7480   32.5280   47.0890 C   0  0  0  0  0  0  0  0  0  0  0  0
   59.3390   32.9640   45.8140 C   0  0  0  0  0  0  0  0  0  0  0  0
   58.4840   32.2030   45.0230 C   0  0  0  0  0  0  0  0  0  0  0  0
   58.1030   32.6740   43.7710 O   0  0  0  0  0  0  0  0  0  0  0  0
   60.7080   33.4760   47.8080 C   0  0  2  0  0  0  0  0  0  0  0  0
   62.1690   33.2840   47.4300 C   0  0  0  0  0  0  0  0  0  0  0  0
   62.6560   31.9980   48.1450 C   0  0  0  0  0  0  0  0  0  0  0  0
   62.2420   31.8460   49.5880 N   0  0  0  0  0  0  0  0  0  0  0  0
   63.3900   31.9580   50.5330 C   0  0  0  0  0  0  0  0  0  0  0  0
   64.3840   33.0720   50.1360 C   0  0  0  0  0  0  0  0  0  0  0  0
   64.8600   33.9430   51.2950 C   0  0  0  0  0  0  0  0  0  0  0  0
   66.2950   33.5030   51.0350 C   0  0  0  0  0  0  0  0  0  0  0  0
   65.8270   32.6420   49.8680 C   0  0  0  0  0  0  0  0  0  0  0  0
   60.9830   32.5390   50.0470 C   0  0  2  0  0  0  0  0  0  0  0  0
   59.7440   31.6280   50.0320 C   0  0  0  0  0  0  0  0  0  0  0  0
   59.6870   30.6480   48.8690 C   0  0  0  0  0  0  0  0  0  0  0  0
   60.7910   33.8780   49.3270 C   0  0  1  0  0  0  0  0  0  0  0  0
   61.7530   34.8540   49.6830 O   0  0  0  0  0  0  0  0  0  0  0  0
   59.8280   34.5590   48.4040 C   0  0  0  0  0  0  0  0  0  0  0  0
   59.7004   29.0262   45.2872 H   0  0  0  0  0  0  0  0  0  0  0  0
   59.8777   27.9747   43.8417 H   0  0  0  0  0  0  0  0  0  0  0  0
   58.6712   29.3055   43.8417 H   0  0  0  0  0  0  0  0  0  0  0  0
   59.3209   25.8004   45.2099 H   0  0  0  0  0  0  0  0  0  0  0  0
   55.1027   24.7449   47.2083 H   0  0  0  0  0  0  0  0  0  0  0  0
   54.7983   22.3734   47.9347 H   0  0  0  0  0  0  0  0  0  0  0  0
   56.5389   20.6736   47.3562 H   0  0  0  0  0  0  0  0  0  0  0  0
   58.8588   23.6376   45.3561 H   0  0  0  0  0  0  0  0  0  0  0  0
   55.4109   29.1795   44.3244 H   0  0  0  0  0  0  0  0  0  0  0  0
   55.8076   29.5773   46.0427 H   0  0  0  0  0  0  0  0  0  0  0  0
   58.0469   29.5405   47.1022 H   0  0  0  0  0  0  0  0  0  0  0  0
   59.7043   33.9296   45.4342 H   0  0  0  0  0  0  0  0  0  0  0  0
   62.2656   33.1701   46.3402 H   0  0  0  0  0  0  0  0  0  0  0  0
   62.7707   34.1537   47.7327 H   0  0  0  0  0  0  0  0  0  0  0  0
   62.2622   31.1343   47.5892 H   0  0  0  0  0  0  0  0  0  0  0  0
   63.7540   32.0632   48.1569 H   0  0  0  0  0  0  0  0  0  0  0  0
   62.9987   32.1774   51.5374 H   0  0  0  0  0  0  0  0  0  0  0  0
   63.9349   31.0028   50.5078 H   0  0  0  0  0  0  0  0  0  0  0  0
   63.7862   33.4934   49.3144 H   0  0  0  0  0  0  0  0  0  0  0  0
   64.6867   35.0194   51.1487 H   0  0  0  0  0  0  0  0  0  0  0  0
   64.4156   33.8312   52.2950 H   0  0  0  0  0  0  0  0  0  0  0  0
   66.9693   34.3223   50.7452 H   0  0  0  0  0  0  0  0  0  0  0  0
   66.8947   33.0612   51.8444 H   0  0  0  0  0  0  0  0  0  0  0  0
   66.2168   32.9599   48.8897 H   0  0  0  0  0  0  0  0  0  0  0  0
   66.0920   31.5755   49.8194 H   0  0  0  0  0  0  0  0  0  0  0  0
   61.1140   32.7807   51.1121 H   0  0  0  0  0  0  0  0  0  0  0  0
   59.7330   31.0498   50.9677 H   0  0  0  0  0  0  0  0  0  0  0  0
   58.8732   32.2910   49.9215 H   0  0  0  0  0  0  0  0  0  0  0  0
   60.6866   30.2082   48.7369 H   0  0  0  0  0  0  0  0  0  0  0  0
   58.9256   29.8953   49.1216 H   0  0  0  0  0  0  0  0  0  0  0  0
   62.5800   34.4170   50.0050 H   0  0  0  0  0  0  0  0  0  0  0  0
   58.7489   34.3786   48.5177 H   0  0  0  0  0  0  0  0  0  0  0  0
   59.6370   35.6111   48.1459 H   0  0  0  0  0  0  0  0  0  0  0  0
  1  2  1  0
  2  3  1  0
  3  4  2  0
  4  5  1  0
  5  6  2  0
  6  7  1  0
  7  8  2  0
  8  9  1  0
  9 10  2  0
  4 11  1  0
 11 12  1  0
 11 13  2  0
 13 14  1  0
 14 15  1  0
 15 16  1  0
 16 17  2  0
 17 18  1  0
 18 19  2  0
 19 20  1  0
 20 21  2  0
 21 22  1  0
 19 23  1  0
 23 24  1  6
 24 25  1  0
 25 26  1  0
 26 27  1  0
 27 28  1  0
 28 29  1  0
 29 30  1  0
 30 31  1  0
 26 32  1  0
 32 33  1  0
 33 34  1  0
 32 35  1  0
 35 36  1  6
 35 37  1  0
 13  2  1  0
 21 16  1  0
 35 23  1  0
 10  5  1  0
 34 18  1  0
 37 23  1  0
 31 28  1  0
  1 38  1  0
  1 39  1  0
  1 40  1  0
  3 41  1  0
  6 42  1  0
  7 43  1  0
  8 44  1  0
 10 45  1  0
 14 46  1  0
 14 47  1  0
 17 48  1  0
 20 49  1  0
 24 50  1  0
 24 51  1  0
 25 52  1  0
 25 53  1  0
 27 54  1  0
 27 55  1  0
 28 56  1  0
 29 57  1  0
 29 58  1  0
 30 59  1  0
 30 60  1  0
 31 61  1  0
 31 62  1  0
 32 63  1  1
 33 64  1  0
 33 65  1  0
 34 66  1  0
 34 67  1  0
 36 68  1  0
 37 69  1  0
 37 70  1  0
M  CHG  2  12  -1  22  -1
M  END
>  <UniqueID>  (52) 
48

>  <SMILES>  (52) 
Cn1cc(-c2cccnc2)c([O-])c1COc1cc2c(cc1[O-])[C@]13CCN(CC4CCC4)[C@H](CC2)C1(O)C3

>  <Energy>  (52) 
517.7371062040971

>  <Genealogy>  (52) 
Cn1cc(-c2cccnc2)c([O-])c1COc1cc2c(cc1[O-])C13CCN(CC4CCC4)C(CC2)C1(O)C3 (protonated)
Cn1cc(-c2cccnc2)c([O-])c1COc1cc2c(cc1[O-])[C@]13CCN(CC4CCC4)[C@H](CC2)C1(O)C3 (chirality)
Cn1cc(-c2cccnc2)c([O-])c1COc1cc2c(cc1[O-])[C@]13CCN(CC4CCC4)[C@H](CC2)C1(O)C3 (3D coordinates assigned)
Cn1cc(-c2cccnc2)c([O-])c1COc1cc2c(cc1[O-])[C@]13CCN(CC4CCC4)[C@H](CC2)C1(O)C3 (nonaromatic ring conformer: 517.7371062040971 kcal/mol)

>  <smiles>  (52) 
Cn1cc(-c2cccnc2)c(O)c1COc1cc2c(cc1O)C13CCN(CC4CCC4)C(CC2)C1(O)C3

>  <score_type>  (52) 
oracle

>  <origin>  (52) 
adg

>  <m_score__min__energy>  (52) 
-13.48

>  <m_primary>  (52) 
energy

$$$$
52:0
     RDKit          3D

 44 46  0  0  0  0  0  0  0  0999 V2000
   58.3920   25.6890   47.2130 C   0  0  0  0  0  0  0  0  0  0  0  0
   57.9040   26.8620   46.4210 C   0  0  0  0  0  0  0  0  0  0  0  0
   58.7720   27.8960   46.0830 C   0  0  0  0  0  0  0  0  0  0  0  0
   58.2890   28.9620   45.3510 C   0  0  0  0  0  0  0  0  0  0  0  0
   56.9620   29.0150   44.9520 C   0  0  0  0  0  0  0  0  0  0  0  0
   56.5590   30.1830   44.1880 C   0  0  0  0  0  0  0  0  0  0  0  0
   55.5420   30.8810   44.4700 O   0  0  0  0  0  0  0  0  0  0  0  0
   57.3320   30.6570   42.9850 C   0  0  0  0  0  0  0  0  0  0  0  0
   57.6260   32.4230   43.0510 S   0  0  0  0  0  0  0  0  0  0  0  0
   58.2890   32.9680   44.6180 C   0  0  0  0  0  0  0  0  0  0  0  0
   58.3540   32.0530   45.6020 N   0  0  0  0  0  0  0  0  0  0  0  0
   58.8340   32.3490   46.8250 C   0  0  0  0  0  0  0  0  0  0  0  0
   58.8590   31.4320   47.6810 O   0  0  0  0  0  0  0  0  0  0  0  0
   59.2730   33.6320   47.0720 C   0  0  0  0  0  0  0  0  0  0  0  0
   59.8090   34.0180   48.3960 C   0  0  0  0  0  0  0  0  0  0  0  0
   61.2620   33.8190   48.5450 C   0  0  0  0  0  0  0  0  0  0  0  0
   62.0290   33.4310   47.4490 C   0  0  0  0  0  0  0  0  0  0  0  0
   63.3930   33.2340   47.5650 C   0  0  0  0  0  0  0  0  0  0  0  0
   64.0560   33.4140   48.7780 C   0  0  0  0  0  0  0  0  0  0  0  0
   63.2910   33.8020   49.8780 C   0  0  0  0  0  0  0  0  0  0  0  0
   61.9140   33.9980   49.7470 C   0  0  0  0  0  0  0  0  0  0  0  0
   59.1990   34.5700   46.0420 C   0  0  0  0  0  0  0  0  0  0  0  0
   59.6440   35.8520   46.3090 O   0  0  0  0  0  0  0  0  0  0  0  0
   58.7110   34.2440   44.8200 N   0  0  0  0  0  0  0  0  0  0  0  0
   56.1330   28.0110   45.2830 N   0  0  0  0  0  0  0  0  0  0  0  0
   56.5870   26.9560   46.0010 C   0  0  0  0  0  0  0  0  0  0  0  0
   55.7840   26.0340   46.2930 O   0  0  0  0  0  0  0  0  0  0  0  0
   58.3008   25.9083   48.2871 H   0  0  0  0  0  0  0  0  0  0  0  0
   57.7876   24.8034   46.9669 H   0  0  0  0  0  0  0  0  0  0  0  0
   59.4461   25.4934   46.9669 H   0  0  0  0  0  0  0  0  0  0  0  0
   59.8266   27.8643   46.3943 H   0  0  0  0  0  0  0  0  0  0  0  0
   58.9684   29.7835   45.0796 H   0  0  0  0  0  0  0  0  0  0  0  0
   58.2992   30.1342   42.9524 H   0  0  0  0  0  0  0  0  0  0  0  0
   56.7393   30.4382   42.0845 H   0  0  0  0  0  0  0  0  0  0  0  0
   59.5889   35.0833   48.5593 H   0  0  0  0  0  0  0  0  0  0  0  0
   59.3244   33.3626   49.1347 H   0  0  0  0  0  0  0  0  0  0  0  0
   61.5416   33.2787   46.4747 H   0  0  0  0  0  0  0  0  0  0  0  0
   63.9685   32.9280   46.6789 H   0  0  0  0  0  0  0  0  0  0  0  0
   65.1412   33.2561   48.8644 H   0  0  0  0  0  0  0  0  0  0  0  0
   63.7747   33.9545   50.8541 H   0  0  0  0  0  0  0  0  0  0  0  0
   61.3324   34.3043   50.6290 H   0  0  0  0  0  0  0  0  0  0  0  0
   59.2680   36.3150   47.1260 H   0  0  0  0  0  0  0  0  0  0  0  0
   58.6550   34.9350   44.0530 H   0  0  0  0  0  0  0  0  0  0  0  0
   55.1470   28.0940   44.9610 H   0  0  0  0  0  0  0  0  0  0  0  0
  1  2  1  0
  2  3  2  0
  3  4  1  0
  4  5  2  0
  5  6  1  0
  6  7  2  0
  6  8  1  0
  8  9  1  0
  9 10  1  0
 10 11  2  0
 11 12  1  0
 12 13  2  0
 12 14  1  0
 14 15  1  0
 15 16  1  0
 16 17  2  0
 17 18  1  0
 18 19  2  0
 19 20  1  0
 20 21  2  0
 14 22  2  0
 22 23  1  0
 22 24  1  0
  5 25  1  0
 25 26  1  0
 26 27  2  0
 26  2  1  0
 24 10  1  0
 21 16  1  0
  1 28  1  0
  1 29  1  0
  1 30  1  0
  3 31  1  0
  4 32  1  0
  8 33  1  0
  8 34  1  0
 15 35  1  0
 15 36  1  0
 17 37  1  0
 18 38  1  0
 19 39  1  0
 20 40  1  0
 21 41  1  0
 23 42  1  0
 24 43  1  0
 25 44  1  0
M  END
>  <smiles>  (53) 
Cc1ccc(C(=O)CSc2nc(=O)c(Cc3ccccc3)c(O)[nH]2)[nH]c1=O

>  <score_type>  (53) 
oracle

>  <origin>  (53) 
adg

>  <m_score__min__energy>  (53) 
-9.6600000000000001

>  <m_primary>  (53) 
energy

$$$$
53:0
     RDKit          3D

 50 52  0  0  0  0  0  0  0  0999 V2000
   56.3240   28.9560   44.9020 C   0  0  0  0  0  0  0  0  0  0  0  0
   57.5350   29.0560   45.4690 C   0  0  0  0  0  0  0  0  0  0  0  0
   58.1220   28.2030   46.4170 C   0  0  0  0  0  0  0  0  0  0  0  0
   57.5820   27.2060   47.1410 C   0  0  0  0  0  0  0  0  0  0  0  0
   57.0560   25.9400   46.6050 C   0  0  0  0  0  0  0  0  0  0  0  0
   57.7880   24.8260   46.4110 N   0  0  0  0  0  0  0  0  0  0  0  0
   56.9300   23.9960   45.7800 C   0  0  0  0  0  0  0  0  0  0  0  0
   57.2460   22.8270   45.4390 O   0  0  0  0  0  0  0  0  0  0  0  0
   55.7100   24.5210   45.5350 N   0  0  0  0  0  0  0  0  0  0  0  0
   55.8140   25.7570   46.0500 C   0  0  0  0  0  0  0  0  0  0  0  0
   54.7950   26.6990   46.0080 O   0  0  0  0  0  0  0  0  0  0  0  0
   59.4230   28.5380   46.5620 N   0  0  0  0  0  0  0  0  0  0  0  0
   59.5880   29.6030   45.7550 C   0  0  0  0  0  0  0  0  0  0  0  0
   60.6880   30.2080   45.6440 O   0  0  0  0  0  0  0  0  0  0  0  0
   58.4730   29.9530   45.0830 N   0  0  0  0  0  0  0  0  0  0  0  0
   58.3400   31.0620   44.1300 C   0  0  0  0  0  0  0  0  0  0  0  0
   58.0760   32.3470   44.8560 C   0  0  0  0  0  0  0  0  0  0  0  0
   57.0820   33.0520   44.5300 O   0  0  0  0  0  0  0  0  0  0  0  0
   58.9610   32.7810   45.8950 N   0  0  0  0  0  0  0  0  0  0  0  0
   58.7490   34.0430   46.6050 C   0  0  0  0  0  0  0  0  0  0  0  0
   59.4460   34.0490   47.9720 C   0  0  0  0  0  0  0  0  0  0  0  0
   59.5140   32.6640   48.5730 C   0  0  0  0  0  0  0  0  0  0  0  0
   58.4960   32.2330   49.4430 C   0  0  0  0  0  0  0  0  0  0  0  0
   58.5170   30.9360   49.9850 C   0  0  0  0  0  0  0  0  0  0  0  0
   57.5140   30.4650   50.8470 O   0  0  0  0  0  0  0  0  0  0  0  0
   56.9450   31.2230   51.9090 C   0  0  0  0  0  0  0  0  0  0  0  0
   59.5680   30.0770   49.6580 C   0  0  0  0  0  0  0  0  0  0  0  0
   60.5850   30.4920   48.7970 C   0  0  0  0  0  0  0  0  0  0  0  0
   60.5670   31.7870   48.2430 C   0  0  0  0  0  0  0  0  0  0  0  0
   61.5740   32.2290   47.3670 O   0  0  0  0  0  0  0  0  0  0  0  0
   62.9390   31.8340   47.4380 C   0  0  0  0  0  0  0  0  0  0  0  0
   55.9967   29.7069   44.1678 H   0  0  0  0  0  0  0  0  0  0  0  0
   55.6578   28.1230   45.1710 H   0  0  0  0  0  0  0  0  0  0  0  0
   57.5288   27.3496   48.2303 H   0  0  0  0  0  0  0  0  0  0  0  0
   59.2713   31.1569   43.5523 H   0  0  0  0  0  0  0  0  0  0  0  0
   57.4962   30.8535   43.4558 H   0  0  0  0  0  0  0  0  0  0  0  0
   59.7680   32.1670   46.1470 H   0  0  0  0  0  0  0  0  0  0  0  0
   59.1509   34.8664   45.9963 H   0  0  0  0  0  0  0  0  0  0  0  0
   57.6685   34.1661   46.7704 H   0  0  0  0  0  0  0  0  0  0  0  0
   60.4689   34.4342   47.8485 H   0  0  0  0  0  0  0  0  0  0  0  0
   58.8623   34.6882   48.6508 H   0  0  0  0  0  0  0  0  0  0  0  0
   57.6751   32.9179   49.7019 H   0  0  0  0  0  0  0  0  0  0  0  0
   57.2629   30.7994   52.8731 H   0  0  0  0  0  0  0  0  0  0  0  0
   57.2845   32.2669   51.8373 H   0  0  0  0  0  0  0  0  0  0  0  0
   55.8479   31.1885   51.8373 H   0  0  0  0  0  0  0  0  0  0  0  0
   59.5947   29.0629   50.0833 H   0  0  0  0  0  0  0  0  0  0  0  0
   61.4061   29.8032   48.5493 H   0  0  0  0  0  0  0  0  0  0  0  0
   63.2411   31.7466   48.4921 H   0  0  0  0  0  0  0  0  0  0  0  0
   63.0660   30.8623   46.9384 H   0  0  0  0  0  0  0  0  0  0  0  0
   63.5653   32.5878   46.9384 H   0  0  0  0  0  0  0  0  0  0  0  0
  1  2  2  0
  2  3  1  0
  3  4  2  3
  4  5  1  0
  5  6  1  0
  6  7  1  0
  7  8  2  0
  7  9  1  0
  9 10  1  0
 10 11  1  0
  3 12  1  0
 12 13  1  0
 13 14  2  0
 13 15  1  0
 15 16  1  0
 16 17  1  0
 17 18  2  0
 17 19  1  0
 19 20  1  0
 20 21  1  0
 21 22  1  0
 22 23  2  0
 23 24  1  0
 24 25  1  0
 25 26  1  0
 24 27  2  0
 27 28  1  0
 28 29  2  0
 29 30  1  0
 30 31  1  0
 15  2  1  0
 29 22  1  0
 10  5  2  0
  1 32  1  0
  1 33  1  0
  4 34  1  0
 16 35  1  0
 16 36  1  0
 19 37  1  0
 20 38  1  0
 20 39  1  0
 21 40  1  0
 21 41  1  0
 23 42  1  0
 26 43  1  0
 26 44  1  0
 26 45  1  0
 27 46  1  0
 28 47  1  0
 31 48  1  0
 31 49  1  0
 31 50  1  0
M  CHG  4   6  -1   9  -1  11  -1  12  -1
M  END
>  <UniqueID>  (54) 
49

>  <SMILES>  (54) 
C=c1c(=Cc2[n-]c(=O)[n-]c2[O-])[n-]c(=O)n1CC(=O)NCCc1cc(OC)ccc1OC

>  <Energy>  (54) 
117.73505727019868

>  <Genealogy>  (54) 
C=c1c(=Cc2[n-]c(=O)[n-]c2[O-])[n-]c(=O)n1CC(=O)NCCc1cc(OC)ccc1OC (protonated)
C=c1c(=Cc2[n-]c(=O)[n-]c2[O-])[n-]c(=O)n1CC(=O)NCCc1cc(OC)ccc1OC (3D coordinates assigned)
C=c1c(=Cc2[n-]c(=O)[n-]c2[O-])[n-]c(=O)n1CC(=O)NCCc1cc(OC)ccc1OC (optimized conformer: 117.73505727019868 kcal/mol)

>  <smiles>  (54) 
C=c1c(=Cc2[nH]c(=O)[nH]c2O)[nH]c(=O)n1CC(=O)NCCc1cc(OC)ccc1OC

>  <score_type>  (54) 
oracle

>  <origin>  (54) 
adg

>  <m_score__min__energy>  (54) 
-17.27

>  <m_primary>  (54) 
energy

$$$$
54:0
     RDKit          3D

 56 59  0  0  0  0  0  0  0  0999 V2000
   60.2470   29.8409   48.5023 H   0  0  0  0  0  0  0  0  0  0  0  0
   59.8770   29.2730   47.6360 C   0  0  0  0  0  0  0  0  0  0  0  0
   59.9953   28.1799   47.6038 H   0  0  0  0  0  0  0  0  0  0  0  0
   59.2810   29.9140   46.6180 C   0  0  0  0  0  0  0  0  0  0  0  0
   58.7550   29.3480   45.4450 C   0  0  0  0  0  0  0  0  0  0  0  0
   58.5380   28.0630   45.1010 C   0  0  0  0  0  0  0  0  0  0  0  0
   59.2136   27.6217   44.3535 H   0  0  0  0  0  0  0  0  0  0  0  0
   57.4740   27.1990   45.6400 C   0  0  0  0  0  0  0  0  0  0  0  0
   57.6850   26.0760   46.3530 N   0  0  0  0  0  0  0  0  0  0  0  0
   56.4430   25.7180   46.7430 C   0  0  0  0  0  0  0  0  0  0  0  0
   56.2200   24.6880   47.4300 O   0  0  0  0  0  0  0  0  0  0  0  0
   55.4610   26.5560   46.3500 N   0  0  0  0  0  0  0  0  0  0  0  0
   56.1340   27.4950   45.6660 C   0  0  0  0  0  0  0  0  0  0  0  0
   55.5350   28.6040   45.0810 O   0  0  0  0  0  0  0  0  0  0  0  0
   58.4340   30.4080   44.6140 C   0  0  0  0  0  0  0  0  0  0  0  0
   58.0357   30.3409   43.5908 H   0  0  0  0  0  0  0  0  0  0  0  0
   58.7090   31.5640   45.3140 C   0  0  0  0  0  0  0  0  0  0  0  0
   58.4890   32.9540   44.7980 C   0  0  0  0  0  0  0  0  0  0  0  0
   58.3794   33.6466   45.6455 H   0  0  0  0  0  0  0  0  0  0  0  0
   59.3502   33.2581   44.1849 H   0  0  0  0  0  0  0  0  0  0  0  0
   57.5760   32.9773   44.1849 H   0  0  0  0  0  0  0  0  0  0  0  0
   59.2130   31.2670   46.5300 N   0  0  0  0  0  0  0  0  0  0  0  0
   59.6610   32.2280   47.5000 C   0  0  0  0  0  0  0  0  0  0  0  0
   58.8150   33.2740   47.8880 C   0  0  0  0  0  0  0  0  0  0  0  0
   57.8038   33.3475   47.4614 H   0  0  0  0  0  0  0  0  0  0  0  0
   59.2490   34.2230   48.8130 C   0  0  0  0  0  0  0  0  0  0  0  0
   58.5801   35.0428   49.1139 H   0  0  0  0  0  0  0  0  0  0  0  0
   60.5320   34.1340   49.3580 C   0  0  0  0  0  0  0  0  0  0  0  0
   60.8678   34.8856   50.0876 H   0  0  0  0  0  0  0  0  0  0  0  0
   61.3980   33.0920   48.9820 C   0  0  0  0  0  0  0  0  0  0  0  0
   62.7200   33.0080   49.5520 N   0  0  0  0  0  0  0  0  0  0  0  0
   63.8960   32.9970   48.6670 C   0  0  0  0  0  0  0  0  0  0  0  0
   63.6681   32.3979   47.7731 H   0  0  0  0  0  0  0  0  0  0  0  0
   64.1330   34.0336   48.3854 H   0  0  0  0  0  0  0  0  0  0  0  0
   65.1110   32.3940   49.3780 C   0  0  0  0  0  0  0  0  0  0  0  0
   64.8971   31.3426   49.6205 H   0  0  0  0  0  0  0  0  0  0  0  0
   65.9776   32.4738   48.7053 H   0  0  0  0  0  0  0  0  0  0  0  0
   65.4420   33.1540   50.6860 C   0  0  0  0  0  0  0  0  0  0  0  0
   65.9844   34.0736   50.4213 H   0  0  0  0  0  0  0  0  0  0  0  0
   66.3590   32.3450   51.5350 N   0  0  0  0  0  0  0  0  0  0  0  0
   66.1680   30.9000   51.3290 C   0  0  0  0  0  0  0  0  0  0  0  0
   66.1014   30.3962   52.3046 H   0  0  0  0  0  0  0  0  0  0  0  0
   65.2395   30.7297   50.7642 H   0  0  0  0  0  0  0  0  0  0  0  0
   67.0203   30.4943   50.7642 H   0  0  0  0  0  0  0  0  0  0  0  0
   67.7880   32.6970   51.4170 C   0  0  0  0  0  0  0  0  0  0  0  0
   68.2234   32.8042   52.4215 H   0  0  0  0  0  0  0  0  0  0  0  0
   68.3175   31.9024   50.8708 H   0  0  0  0  0  0  0  0  0  0  0  0
   67.8878   33.6466   50.8708 H   0  0  0  0  0  0  0  0  0  0  0  0
   64.1750   33.6820   51.4260 C   0  0  0  0  0  0  0  0  0  0  0  0
   64.3204   33.5517   52.5085 H   0  0  0  0  0  0  0  0  0  0  0  0
   64.0507   34.7409   51.1554 H   0  0  0  0  0  0  0  0  0  0  0  0
   62.8960   32.9470   51.0120 C   0  0  0  0  0  0  0  0  0  0  0  0
   62.9649   31.8948   51.3253 H   0  0  0  0  0  0  0  0  0  0  0  0
   62.0341   33.4294   51.4962 H   0  0  0  0  0  0  0  0  0  0  0  0
   60.9560   32.1420   48.0390 C   0  0  0  0  0  0  0  0  0  0  0  0
   61.7880   31.1600   47.6090 F   0  0  0  0  0  0  0  0  0  0  0  0
  1  2  1  0
  2  3  1  0
  2  4  2  0
  4  5  1  0
  5  6  2  0
  6  7  1  0
  6  8  1  0
  8  9  1  0
  9 10  1  0
 10 11  2  0
 10 12  1  0
 12 13  1  0
 13 14  1  0
  5 15  1  0
 15 16  1  0
 15 17  2  0
 17 18  1  0
 18 19  1  0
 18 20  1  0
 18 21  1  0
 17 22  1  0
 22 23  1  0
 23 24  2  0
 24 25  1  0
 24 26  1  0
 26 27  1  0
 26 28  2  0
 28 29  1  0
 28 30  1  0
 30 31  1  0
 31 32  1  0
 32 33  1  0
 32 34  1  0
 32 35  1  0
 35 36  1  0
 35 37  1  0
 35 38  1  0
 38 39  1  0
 38 40  1  0
 40 41  1  0
 41 42  1  0
 41 43  1  0
 41 44  1  0
 40 45  1  0
 45 46  1  0
 45 47  1  0
 45 48  1  0
 38 49  1  0
 49 50  1  0
 49 51  1  0
 49 52  1  0
 52 53  1  0
 52 54  1  0
 30 55  2  0
 55 56  1  0
 22  4  1  0
 55 23  1  0
 13  8  2  0
 52 31  1  0
M  CHG  3   9  -1  12  -1  14  -1
M  END
>  <UniqueID>  (55) 
50

>  <SMILES>  (55) 
C=c1/c(=C\c2[n-]c(=O)[n-]c2[O-])cc(C)n1-c1cccc(N2CCC(N(C)C)CC2)c1F

>  <Energy>  (55) 
146.02339885470468

>  <Genealogy>  (55) 
C=c1c(=Cc2[n-]c(=O)[n-]c2[O-])cc(C)n1-c1cccc(N2CCC(N(C)C)CC2)c1F (protonated)
C=c1/c(=C\c2[n-]c(=O)[n-]c2[O-])cc(C)n1-c1cccc(N2CCC(N(C)C)CC2)c1F (cis-trans isomerization)
C=c1/c(=C\c2[n-]c(=O)[n-]c2[O-])cc(C)n1-c1cccc(N2CCC(N(C)C)CC2)c1F (3D coordinates assigned)
C=c1/c(=C\c2[n-]c(=O)[n-]c2[O-])cc(C)n1-c1cccc(N2CCC(N(C)C)CC2)c1F (nonaromatic ring conformer: 146.02339885470468 kcal/mol)

>  <smiles>  (55) 
C=c1c(=Cc2[nH]c(=O)[nH]c2O)cc(C)n1-c1cccc(N2CCC(N(C)C)CC2)c1F

>  <score_type>  (55) 
oracle

>  <origin>  (55) 
adg

>  <m_score__min__energy>  (55) 
-16.66

>  <m_primary>  (55) 
energy

$$$$
55:0
     RDKit          3D

 57 60  0  0  0  0  0  0  0  0999 V2000
   56.9330   23.7200   43.0840 C   0  0  0  0  0  0  0  0  0  0  0  0
   56.1740   22.4380   42.9330 C   0  0  0  0  0  0  0  0  0  0  0  0
   55.5250   22.2340   41.8720 O   0  0  0  0  0  0  0  0  0  0  0  0
   56.1280   21.4530   43.9740 N   0  0  0  0  0  0  0  0  0  0  0  0
   55.7540   21.6720   45.3410 C   0  0  0  0  0  0  0  0  0  0  0  0
   55.0100   20.7230   46.0610 C   0  0  0  0  0  0  0  0  0  0  0  0
   54.6330   20.9790   47.3820 C   0  0  0  0  0  0  0  0  0  0  0  0
   54.9810   22.1870   47.9890 C   0  0  0  0  0  0  0  0  0  0  0  0
   55.7090   23.1520   47.2750 C   0  0  0  0  0  0  0  0  0  0  0  0
   56.0400   24.4740   47.9120 C   0  0  0  0  0  0  0  0  0  0  0  0
   56.8520   25.3080   46.9720 C   0  0  0  0  0  0  0  0  0  0  0  0
   58.1950   25.2240   46.8570 N   0  0  0  0  0  0  0  0  0  0  0  0
   58.4990   26.1820   45.9550 C   0  0  0  0  0  0  0  0  0  0  0  0
   59.6770   26.4090   45.5740 O   0  0  0  0  0  0  0  0  0  0  0  0
   57.4250   26.8710   45.5110 N   0  0  0  0  0  0  0  0  0  0  0  0
   57.3810   27.9250   44.4980 C   0  0  0  0  0  0  0  0  0  0  0  0
   57.3570   29.2800   45.1600 C   0  0  0  0  0  0  0  0  0  0  0  0
   56.2490   29.8820   45.2130 O   0  0  0  0  0  0  0  0  0  0  0  0
   58.5440   29.9040   45.7170 N   0  0  0  0  0  0  0  0  0  0  0  0
   58.4590   31.2480   46.3120 C   0  0  0  0  0  0  0  0  0  0  0  0
   59.2640   31.2980   47.6110 C   0  0  0  0  0  0  0  0  0  0  0  0
   60.6310   30.7880   47.4220 N   0  0  0  0  0  0  0  0  0  0  0  0
   61.6440   31.0830   48.4120 C   0  0  0  0  0  0  0  0  0  0  0  0
   61.5680   30.5330   49.7080 C   0  0  0  0  0  0  0  0  0  0  0  0
   62.5520   30.8180   50.6590 C   0  0  0  0  0  0  0  0  0  0  0  0
   63.6250   31.6470   50.3310 C   0  0  0  0  0  0  0  0  0  0  0  0
   63.7170   32.1960   49.0500 C   0  0  0  0  0  0  0  0  0  0  0  0
   62.7350   31.9170   48.0940 C   0  0  0  0  0  0  0  0  0  0  0  0
   60.9920   30.1220   46.1620 C   0  0  0  0  0  0  0  0  0  0  0  0
   59.8500   29.2260   45.6660 C   0  0  0  0  0  0  0  0  0  0  0  0
   56.3860   26.3150   46.1570 C   0  0  0  0  0  0  0  0  0  0  0  0
   55.0610   26.7100   46.0120 O   0  0  0  0  0  0  0  0  0  0  0  0
   56.0750   22.8950   45.9430 C   0  0  0  0  0  0  0  0  0  0  0  0
   57.0656   23.9439   44.1528 H   0  0  0  0  0  0  0  0  0  0  0  0
   57.9183   23.6213   42.6051 H   0  0  0  0  0  0  0  0  0  0  0  0
   56.3726   24.5365   42.6051 H   0  0  0  0  0  0  0  0  0  0  0  0
   54.7230   19.7746   45.5833 H   0  0  0  0  0  0  0  0  0  0  0  0
   54.0607   20.2269   47.9449 H   0  0  0  0  0  0  0  0  0  0  0  0
   54.6839   22.3833   49.0298 H   0  0  0  0  0  0  0  0  0  0  0  0
   55.1075   25.0040   48.1560 H   0  0  0  0  0  0  0  0  0  0  0  0
   56.6204   24.2966   48.8294 H   0  0  0  0  0  0  0  0  0  0  0  0
   58.2709   27.8496   43.8558 H   0  0  0  0  0  0  0  0  0  0  0  0
   56.4707   27.8042   43.8923 H   0  0  0  0  0  0  0  0  0  0  0  0
   58.8642   31.9859   45.6040 H   0  0  0  0  0  0  0  0  0  0  0  0
   57.4062   31.4794   46.5311 H   0  0  0  0  0  0  0  0  0  0  0  0
   59.3169   32.3405   47.9581 H   0  0  0  0  0  0  0  0  0  0  0  0
   58.7593   30.6616   48.3528 H   0  0  0  0  0  0  0  0  0  0  0  0
   60.7277   29.8744   49.9728 H   0  0  0  0  0  0  0  0  0  0  0  0
   62.4801   30.3875   51.6687 H   0  0  0  0  0  0  0  0  0  0  0  0
   64.3985   31.8683   51.0811 H   0  0  0  0  0  0  0  0  0  0  0  0
   64.5637   32.8493   48.7924 H   0  0  0  0  0  0  0  0  0  0  0  0
   62.8146   32.3516   47.0866 H   0  0  0  0  0  0  0  0  0  0  0  0
   61.2065   30.8859   45.4001 H   0  0  0  0  0  0  0  0  0  0  0  0
   61.8778   29.4943   46.3391 H   0  0  0  0  0  0  0  0  0  0  0  0
   60.0562   28.9337   44.6258 H   0  0  0  0  0  0  0  0  0  0  0  0
   59.7994   28.3488   46.3278 H   0  0  0  0  0  0  0  0  0  0  0  0
   56.6178   23.6602   45.3687 H   0  0  0  0  0  0  0  0  0  0  0  0
  1  2  1  0
  2  3  2  0
  2  4  1  0
  4  5  1  0
  5  6  2  0
  6  7  1  0
  7  8  2  0
  8  9  1  0
  9 10  1  0
 10 11  1  0
 11 12  1  0
 12 13  1  0
 13 14  2  0
 13 15  1  0
 15 16  1  0
 16 17  1  0
 17 18  2  0
 17 19  1  0
 19 20  1  0
 20 21  1  0
 21 22  1  0
 22 23  1  0
 23 24  2  0
 24 25  1  0
 25 26  2  0
 26 27  1  0
 27 28  2  0
 22 29  1  0
 29 30  1  0
 15 31  1  0
 31 32  1  0
  9 33  2  0
 33  5  1  0
 31 11  2  0
 30 19  1  0
 28 23  1  0
  1 34  1  0
  1 35  1  0
  1 36  1  0
  6 37  1  0
  7 38  1  0
  8 39  1  0
 10 40  1  0
 10 41  1  0
 16 42  1  0
 16 43  1  0
 20 44  1  0
 20 45  1  0
 21 46  1  0
 21 47  1  0
 24 48  1  0
 25 49  1  0
 26 50  1  0
 27 51  1  0
 28 52  1  0
 29 53  1  0
 29 54  1  0
 30 55  1  0
 30 56  1  0
 33 57  1  0
M  CHG  3   4  -1  12  -1  32  -1
M  END
>  <UniqueID>  (56) 
51

>  <SMILES>  (56) 
CC(=O)[N-]c1cccc(Cc2[n-]c(=O)n(CC(=O)N3CCN(c4ccccc4)CC3)c2[O-])c1

>  <Energy>  (56) 
97.95600582834817

>  <Genealogy>  (56) 
CC(=O)[N-]c1cccc(Cc2[n-]c(=O)n(CC(=O)N3CCN(c4ccccc4)CC3)c2[O-])c1 (protonated)
CC(=O)[N-]c1cccc(Cc2[n-]c(=O)n(CC(=O)N3CCN(c4ccccc4)CC3)c2[O-])c1 (3D coordinates assigned)
CC(=O)[N-]c1cccc(Cc2[n-]c(=O)n(CC(=O)N3CCN(c4ccccc4)CC3)c2[O-])c1 (nonaromatic ring conformer: 97.95600582834817 kcal/mol)

>  <smiles>  (56) 
CC(=O)Nc1cccc(Cc2[nH]c(=O)n(CC(=O)N3CCN(c4ccccc4)CC3)c2O)c1

>  <score_type>  (56) 
oracle

>  <origin>  (56) 
adg

>  <m_score__min__energy>  (56) 
-14.369999999999999

>  <m_primary>  (56) 
energy

$$$$
56:0
     RDKit          3D

 61 64  0  0  0  0  0  0  0  0999 V2000
   60.1580   29.0100   44.4920 C   0  0  0  0  0  0  0  0  0  0  0  0
   59.5600   28.3000   45.6820 C   0  0  0  0  0  0  0  0  0  0  0  0
   60.2980   28.2660   46.8730 C   0  0  0  0  0  0  0  0  0  0  0  0
   59.7450   27.6650   48.0030 C   0  0  0  0  0  0  0  0  0  0  0  0
   60.4480   27.6700   49.2990 C   0  0  0  0  0  0  0  0  0  0  0  0
   60.8510   26.5770   49.7820 O   0  0  0  0  0  0  0  0  0  0  0  0
   60.6790   28.8920   50.0240 N   0  0  0  0  0  0  0  0  0  0  0  0
   59.5770   29.8320   50.2760 C   0  0  0  0  0  0  0  0  0  0  0  0
   60.0950   31.2870   50.3290 C   0  0  0  0  0  0  0  0  0  0  0  0
   61.5090   31.3940   50.3980 O   0  0  0  0  0  0  0  0  0  0  0  0
   62.0270   30.4740   51.3360 C   0  0  0  0  0  0  0  0  0  0  0  0
   61.9340   29.0580   50.7640 C   0  0  0  0  0  0  0  0  0  0  0  0
   58.5350   27.0650   47.9040 N   0  0  0  0  0  0  0  0  0  0  0  0
   57.8190   27.0850   46.7520 C   0  0  0  0  0  0  0  0  0  0  0  0
   56.6840   26.5360   46.7360 O   0  0  0  0  0  0  0  0  0  0  0  0
   58.3070   27.7230   45.6360 N   0  0  0  0  0  0  0  0  0  0  0  0
   57.4000   27.9440   44.4870 C   0  0  0  0  0  0  0  0  0  0  0  0
   56.5110   29.1190   44.7760 C   0  0  0  0  0  0  0  0  0  0  0  0
   55.3310   29.1400   44.3320 O   0  0  0  0  0  0  0  0  0  0  0  0
   57.0150   30.1730   45.6070 N   0  0  0  0  0  0  0  0  0  0  0  0
   57.6700   31.3750   45.1930 C   0  0  0  0  0  0  0  0  0  0  0  0
   57.6010   31.8660   43.8790 C   0  0  0  0  0  0  0  0  0  0  0  0
   58.2220   33.0790   43.5530 C   0  0  0  0  0  0  0  0  0  0  0  0
   58.8960   33.8110   44.5360 C   0  0  0  0  0  0  0  0  0  0  0  0
   58.9710   33.3220   45.8470 C   0  0  0  0  0  0  0  0  0  0  0  0
   59.7320   34.2610   47.1290 S   0  0  0  0  0  0  0  0  0  0  0  0
   59.6810   35.7180   46.7590 O   0  0  0  0  0  0  0  0  0  0  0  0
   58.9950   34.0520   48.4240 O   0  0  0  0  0  0  0  0  0  0  0  0
   61.3950   33.7540   47.3030 N   0  0  0  0  0  0  0  0  0  0  0  0
   61.5030   32.2940   47.1590 C   0  0  0  0  0  0  0  0  0  0  0  0
   62.9830   31.8660   47.2700 C   0  0  0  0  0  0  0  0  0  0  0  0
   63.8160   32.9060   47.7530 O   0  0  0  0  0  0  0  0  0  0  0  0
   63.2590   33.4700   48.9250 C   0  0  0  0  0  0  0  0  0  0  0  0
   61.9210   34.1760   48.6140 C   0  0  0  0  0  0  0  0  0  0  0  0
   58.3860   32.0900   46.1580 C   0  0  0  0  0  0  0  0  0  0  0  0
   60.8301   29.8079   44.8408 H   0  0  0  0  0  0  0  0  0  0  0  0
   60.7268   28.2912   43.8840 H   0  0  0  0  0  0  0  0  0  0  0  0
   59.3529   29.4484   43.8840 H   0  0  0  0  0  0  0  0  0  0  0  0
   61.3038   28.7092   46.9158 H   0  0  0  0  0  0  0  0  0  0  0  0
   58.8356   29.7428   49.4683 H   0  0  0  0  0  0  0  0  0  0  0  0
   59.1198   29.5860   51.2458 H   0  0  0  0  0  0  0  0  0  0  0  0
   59.7523   31.8094   49.4237 H   0  0  0  0  0  0  0  0  0  0  0  0
   59.6965   31.7335   51.2519 H   0  0  0  0  0  0  0  0  0  0  0  0
   63.0792   30.7168   51.5455 H   0  0  0  0  0  0  0  0  0  0  0  0
   61.4454   30.5327   52.2678 H   0  0  0  0  0  0  0  0  0  0  0  0
   62.7818   28.8840   50.0851 H   0  0  0  0  0  0  0  0  0  0  0  0
   61.9609   28.3341   51.5918 H   0  0  0  0  0  0  0  0  0  0  0  0
   57.9940   28.1460   43.5834 H   0  0  0  0  0  0  0  0  0  0  0  0
   56.7844   27.0468   44.3254 H   0  0  0  0  0  0  0  0  0  0  0  0
   57.0602   31.2991   43.1069 H   0  0  0  0  0  0  0  0  0  0  0  0
   58.1793   33.4568   42.5208 H   0  0  0  0  0  0  0  0  0  0  0  0
   59.3675   34.7712   44.2797 H   0  0  0  0  0  0  0  0  0  0  0  0
   60.9206   31.8045   47.9535 H   0  0  0  0  0  0  0  0  0  0  0  0
   61.1112   31.9958   46.1753 H   0  0  0  0  0  0  0  0  0  0  0  0
   63.0518   31.0109   47.9585 H   0  0  0  0  0  0  0  0  0  0  0  0
   63.3304   31.6025   46.2601 H   0  0  0  0  0  0  0  0  0  0  0  0
   63.0824   32.6712   49.6604 H   0  0  0  0  0  0  0  0  0  0  0  0
   63.9636   34.2130   49.3269 H   0  0  0  0  0  0  0  0  0  0  0  0
   61.1893   33.9207   49.3946 H   0  0  0  0  0  0  0  0  0  0  0  0
   62.0943   35.2620   48.5898 H   0  0  0  0  0  0  0  0  0  0  0  0
   58.4904   31.6791   47.1730 H   0  0  0  0  0  0  0  0  0  0  0  0
  1  2  1  0
  2  3  2  0
  3  4  1  0
  4  5  1  0
  5  6  2  0
  5  7  1  0
  7  8  1  0
  8  9  1  0
  9 10  1  0
 10 11  1  0
 11 12  1  0
  4 13  2  0
 13 14  1  0
 14 15  2  0
 14 16  1  0
 16 17  1  0
 17 18  1  0
 18 19  2  0
 18 20  1  0
 20 21  1  0
 21 22  2  0
 22 23  1  0
 23 24  2  0
 24 25  1  0
 25 26  1  0
 26 27  2  0
 26 28  2  0
 26 29  1  0
 29 30  1  0
 30 31  1  0
 31 32  1  0
 32 33  1  0
 33 34  1  0
 25 35  2  0
 16  2  1  0
 35 21  1  0
 12  7  1  0
 34 29  1  0
  1 36  1  0
  1 37  1  0
  1 38  1  0
  3 39  1  0
  8 40  1  0
  8 41  1  0
  9 42  1  0
  9 43  1  0
 11 44  1  0
 11 45  1  0
 12 46  1  0
 12 47  1  0
 17 48  1  0
 17 49  1  0
 22 50  1  0
 23 51  1  0
 24 52  1  0
 30 53  1  0
 30 54  1  0
 31 55  1  0
 31 56  1  0
 33 57  1  0
 33 58  1  0
 34 59  1  0
 34 60  1  0
 35 61  1  0
M  CHG  1  20  -1
M  END
>  <UniqueID>  (57) 
52

>  <SMILES>  (57) 
Cc1cc(C(=O)N2CCOCC2)nc(=O)n1CC(=O)[N-]c1cccc(S(=O)(=O)N2CCOCC2)c1

>  <Energy>  (57) 
86.78462214105103

>  <Genealogy>  (57) 
Cc1cc(C(=O)N2CCOCC2)nc(=O)n1CC(=O)[N-]c1cccc(S(=O)(=O)N2CCOCC2)c1 (protonated)
Cc1cc(C(=O)N2CCOCC2)nc(=O)n1CC(=O)[N-]c1cccc(S(=O)(=O)N2CCOCC2)c1 (3D coordinates assigned)
Cc1cc(C(=O)N2CCOCC2)nc(=O)n1CC(=O)[N-]c1cccc(S(=O)(=O)N2CCOCC2)c1 (nonaromatic ring conformer: 86.78462214105103 kcal/mol)

>  <smiles>  (57) 
Cc1cc(C(=O)N2CCOCC2)nc(=O)n1CC(=O)Nc1cccc(S(=O)(=O)N2CCOCC2)c1

>  <score_type>  (57) 
oracle

>  <origin>  (57) 
adg

>  <m_score__min__energy>  (57) 
-12.279999999999999

>  <m_primary>  (57) 
energy

$$$$
57:0
     RDKit          3D

 76 80  0  0  0  0  0  0  0  0999 V2000
   54.6820   28.5890   52.4400 O   0  0  0  0  0  0  0  0  0  0  0  0
   54.6990   29.8490   52.3730 C   0  0  0  0  0  0  0  0  0  0  0  0
   55.9580   30.5370   52.2770 N   0  0  0  0  0  0  0  0  0  0  0  0
   57.2300   29.8270   52.1500 C   0  0  0  0  0  0  0  0  0  0  0  0
   58.3900   30.7240   52.5890 C   0  0  0  0  0  0  0  0  0  0  0  0
   58.8910   31.5450   51.4330 C   0  0  0  0  0  0  0  0  0  0  0  0
   60.2310   31.9640   51.3880 C   0  0  0  0  0  0  0  0  0  0  0  0
   60.6890   32.7450   50.3230 C   0  0  0  0  0  0  0  0  0  0  0  0
   59.8130   33.1290   49.3000 C   0  0  0  0  0  0  0  0  0  0  0  0
   60.4140   34.0810   47.9450 S   0  0  0  0  0  0  0  0  0  0  0  0
   61.8030   34.5530   48.2770 O   0  0  0  0  0  0  0  0  0  0  0  0
   59.5380   35.2850   47.7450 O   0  0  0  0  0  0  0  0  0  0  0  0
   60.4500   33.0770   46.5100 N   0  0  0  0  0  0  0  0  0  0  0  0
   60.5730   31.6410   46.8260 C   0  0  0  0  0  0  0  0  0  0  0  0
   59.2240   30.9670   47.1630 C   0  0  0  0  0  0  0  0  0  0  0  0
   58.1710   31.2500   46.1570 N   0  0  0  0  0  0  0  0  0  0  0  0
   58.3510   30.4490   44.9020 C   0  0  0  0  0  0  0  0  0  0  0  0
   59.1770   29.1610   45.2280 C   0  0  0  0  0  0  0  0  0  0  0  0
   58.5510   27.8490   44.7320 C   0  0  0  0  0  0  0  0  0  0  0  0
   57.1310   27.7870   45.1180 N   0  0  0  0  0  0  0  0  0  0  0  0
   56.5290   26.5690   45.6060 C   0  0  0  0  0  0  0  0  0  0  0  0
   55.4680   26.6380   46.2850 O   0  0  0  0  0  0  0  0  0  0  0  0
   57.1710   25.2170   45.3710 C   0  0  0  0  0  0  0  0  0  0  0  0
   56.2550   24.0110   45.5990 C   0  0  0  0  0  0  0  0  0  0  0  0
   56.3870   23.6290   44.1330 C   0  0  0  0  0  0  0  0  0  0  0  0
   57.2770   24.8380   43.8930 C   0  0  0  0  0  0  0  0  0  0  0  0
   56.2770   28.9690   44.9290 C   0  0  0  0  0  0  0  0  0  0  0  0
   57.0260   30.0750   44.1810 C   0  0  0  0  0  0  0  0  0  0  0  0
   58.0300   32.7130   46.0120 C   0  0  0  0  0  0  0  0  0  0  0  0
   59.3480   33.3700   45.5770 C   0  0  0  0  0  0  0  0  0  0  0  0
   58.4720   32.7240   49.3490 C   0  0  0  0  0  0  0  0  0  0  0  0
   58.0110   31.9410   50.4130 C   0  0  0  0  0  0  0  0  0  0  0  0
   53.4160   30.5930   52.4100 C   0  0  0  0  0  0  0  0  0  0  0  0
   52.6130   30.6070   53.5670 C   0  0  0  0  0  0  0  0  0  0  0  0
   51.4110   31.3210   53.5850 C   0  0  0  0  0  0  0  0  0  0  0  0
   51.0000   32.0310   52.4560 C   0  0  0  0  0  0  0  0  0  0  0  0
   51.7920   32.0350   51.3060 C   0  0  0  0  0  0  0  0  0  0  0  0
   51.3950   32.7290   50.2110 F   0  0  0  0  0  0  0  0  0  0  0  0
   52.9970   31.3230   51.2820 C   0  0  0  0  0  0  0  0  0  0  0  0
   55.9890   31.5800   52.3170 H   0  0  0  0  0  0  0  0  0  0  0  0
   57.2077   28.9279   52.7834 H   0  0  0  0  0  0  0  0  0  0  0  0
   57.3768   29.5450   51.0969 H   0  0  0  0  0  0  0  0  0  0  0  0
   58.0444   31.3970   53.3875 H   0  0  0  0  0  0  0  0  0  0  0  0
   59.2104   30.0891   52.9550 H   0  0  0  0  0  0  0  0  0  0  0  0
   60.9224   31.6765   52.1938 H   0  0  0  0  0  0  0  0  0  0  0  0
   61.7425   33.0595   50.2883 H   0  0  0  0  0  0  0  0  0  0  0  0
   61.0104   31.1292   45.9561 H   0  0  0  0  0  0  0  0  0  0  0  0
   61.2081   31.5595   47.7204 H   0  0  0  0  0  0  0  0  0  0  0  0
   59.3780   29.8790   47.2136 H   0  0  0  0  0  0  0  0  0  0  0  0
   58.8810   31.3766   48.1246 H   0  0  0  0  0  0  0  0  0  0  0  0
   58.8923   31.0941   44.1943 H   0  0  0  0  0  0  0  0  0  0  0  0
   60.1685   29.2639   44.7628 H   0  0  0  0  0  0  0  0  0  0  0  0
   59.2163   29.0889   46.3249 H   0  0  0  0  0  0  0  0  0  0  0  0
   58.6325   27.7987   43.6362 H   0  0  0  0  0  0  0  0  0  0  0  0
   59.0846   27.0014   45.1868 H   0  0  0  0  0  0  0  0  0  0  0  0
   58.0674   25.3514   45.9943 H   0  0  0  0  0  0  0  0  0  0  0  0
   56.6625   23.2636   46.2957 H   0  0  0  0  0  0  0  0  0  0  0  0
   55.2611   24.1458   46.0506 H   0  0  0  0  0  0  0  0  0  0  0  0
   56.8869   22.6638   43.9645 H   0  0  0  0  0  0  0  0  0  0  0  0
   55.4891   23.4698   43.5178 H   0  0  0  0  0  0  0  0  0  0  0  0
   58.2969   24.5861   43.5669 H   0  0  0  0  0  0  0  0  0  0  0  0
   57.0202   25.5698   43.1129 H   0  0  0  0  0  0  0  0  0  0  0  0
   55.3880   28.6810   44.3487 H   0  0  0  0  0  0  0  0  0  0  0  0
   55.9852   29.3515   45.9182 H   0  0  0  0  0  0  0  0  0  0  0  0
   57.2580   29.7257   43.1640 H   0  0  0  0  0  0  0  0  0  0  0  0
   56.3845   30.9680   44.1497 H   0  0  0  0  0  0  0  0  0  0  0  0
   57.2599   32.9237   45.2554 H   0  0  0  0  0  0  0  0  0  0  0  0
   57.7458   33.1288   46.9899 H   0  0  0  0  0  0  0  0  0  0  0  0
   59.6190   32.9940   44.5794 H   0  0  0  0  0  0  0  0  0  0  0  0
   59.1951   34.4593   45.5662 H   0  0  0  0  0  0  0  0  0  0  0  0
   57.7796   33.0228   48.5482 H   0  0  0  0  0  0  0  0  0  0  0  0
   56.9552   31.6345   50.4506 H   0  0  0  0  0  0  0  0  0  0  0  0
   52.9334   30.0530   54.4617 H   0  0  0  0  0  0  0  0  0  0  0  0
   50.7877   31.3231   54.4914 H   0  0  0  0  0  0  0  0  0  0  0  0
   50.0515   32.5878   52.4721 H   0  0  0  0  0  0  0  0  0  0  0  0
   53.6204   31.3341   50.3758 H   0  0  0  0  0  0  0  0  0  0  0  0
  1  2  2  0
  2  3  1  0
  3  4  1  0
  4  5  1  0
  5  6  1  0
  6  7  2  0
  7  8  1  0
  8  9  2  0
  9 10  1  0
 10 11  2  0
 10 12  2  0
 10 13  1  0
 13 14  1  0
 14 15  1  0
 15 16  1  0
 16 17  1  0
 17 18  1  0
 18 19  1  0
 19 20  1  0
 20 21  1  0
 21 22  2  0
 21 23  1  0
 23 24  1  0
 24 25  1  0
 25 26  1  0
 20 27  1  0
 27 28  1  0
 16 29  1  0
 29 30  1  0
  9 31  1  0
 31 32  2  0
  2 33  1  0
 33 34  2  0
 34 35  1  0
 35 36  2  0
 36 37  1  0
 37 38  1  0
 37 39  2  0
 32  6  1  0
 39 33  1  0
 30 13  1  0
 28 17  1  0
 26 23  1  0
  3 40  1  0
  4 41  1  0
  4 42  1  0
  5 43  1  0
  5 44  1  0
  7 45  1  0
  8 46  1  0
 14 47  1  0
 14 48  1  0
 15 49  1  0
 15 50  1  0
 17 51  1  0
 18 52  1  0
 18 53  1  0
 19 54  1  0
 19 55  1  0
 23 56  1  0
 24 57  1  0
 24 58  1  0
 25 59  1  0
 25 60  1  0
 26 61  1  0
 26 62  1  0
 27 63  1  0
 27 64  1  0
 28 65  1  0
 28 66  1  0
 29 67  1  0
 29 68  1  0
 30 69  1  0
 30 70  1  0
 31 71  1  0
 32 72  1  0
 34 73  1  0
 35 74  1  0
 36 75  1  0
 39 76  1  0
M  END
>  <UniqueID>  (58) 
53

>  <SMILES>  (58) 
O=C(NCCc1ccc(S(=O)(=O)N2CCN(C3CCN(C(=O)C4CCC4)CC3)CC2)cc1)c1cccc(F)c1

>  <Energy>  (58) 
156.10937460456955

>  <Genealogy>  (58) 
O=C(NCCc1ccc(S(=O)(=O)N2CCN(C3CCN(C(=O)C4CCC4)CC3)CC2)cc1)c1cccc(F)c1 (3D coordinates assigned)
O=C(NCCc1ccc(S(=O)(=O)N2CCN(C3CCN(C(=O)C4CCC4)CC3)CC2)cc1)c1cccc(F)c1 (nonaromatic ring conformer: 156.10937460456955 kcal/mol)

>  <smiles>  (58) 
O=C(NCCc1ccc(S(=O)(=O)N2CCN(C3CCN(C(=O)C4CCC4)CC3)CC2)cc1)c1cccc(F)c1

>  <score_type>  (58) 
oracle

>  <origin>  (58) 
adg

>  <m_score__min__energy>  (58) 
-11.51

>  <m_primary>  (58) 
energy

$$$$
58:0
     RDKit          3D

 45 47  0  0  0  0  0  0  0  0999 V2000
   56.1639   25.3820   46.4193 H   0  0  0  0  0  0  0  0  0  0  0  0
   56.6450   26.3710   46.3990 C   0  0  0  0  0  0  0  0  0  0  0  0
   56.1130   27.3690   45.6440 N   0  0  0  0  0  0  0  0  0  0  0  0
   56.6660   28.6110   45.5890 C   0  0  0  0  0  0  0  0  0  0  0  0
   56.0800   29.5200   44.8600 N   0  0  0  0  0  0  0  0  0  0  0  0
   56.6520   30.2820   43.7850 C   0  0  0  0  0  0  0  0  0  0  0  0
   56.0520   30.3080   42.6760 O   0  0  0  0  0  0  0  0  0  0  0  0
   58.0490   30.8410   43.8910 C   0  0  0  0  0  0  0  0  0  0  0  0
   58.7315   30.0361   44.2013 H   0  0  0  0  0  0  0  0  0  0  0  0
   58.3310   31.2427   42.9065 H   0  0  0  0  0  0  0  0  0  0  0  0
   58.1310   31.9640   44.8950 C   0  0  0  0  0  0  0  0  0  0  0  0
   57.3940   33.1460   44.7110 C   0  0  0  0  0  0  0  0  0  0  0  0
   56.7457   33.2547   43.8290 H   0  0  0  0  0  0  0  0  0  0  0  0
   57.4800   34.1840   45.6420 C   0  0  0  0  0  0  0  0  0  0  0  0
   56.8933   35.1030   45.4961 H   0  0  0  0  0  0  0  0  0  0  0  0
   58.3110   34.0560   46.7590 C   0  0  0  0  0  0  0  0  0  0  0  0
   58.3761   34.8732   47.4924 H   0  0  0  0  0  0  0  0  0  0  0  0
   59.0590   32.8900   46.9440 C   0  0  0  0  0  0  0  0  0  0  0  0
   59.7168   32.7924   47.8202 H   0  0  0  0  0  0  0  0  0  0  0  0
   58.9720   31.8470   46.0160 C   0  0  0  0  0  0  0  0  0  0  0  0
   59.5638   30.9316   46.1637 H   0  0  0  0  0  0  0  0  0  0  0  0
   57.8180   28.8810   46.3540 C   0  0  0  0  0  0  0  0  0  0  0  0
   58.2569   29.8897   46.3548 H   0  0  0  0  0  0  0  0  0  0  0  0
   58.4030   27.8570   47.1150 C   0  0  0  0  0  0  0  0  0  0  0  0
   59.5580   28.0780   47.8800 O   0  0  0  0  0  0  0  0  0  0  0  0
   59.8480   29.2640   48.5670 C   0  0  0  0  0  0  0  0  0  0  0  0
   61.1150   29.8720   48.4890 C   0  0  0  0  0  0  0  0  0  0  0  0
   61.9064   29.4154   47.8765 H   0  0  0  0  0  0  0  0  0  0  0  0
   61.3690   31.0540   49.1880 C   0  0  0  0  0  0  0  0  0  0  0  0
   62.3573   31.5318   49.1171 H   0  0  0  0  0  0  0  0  0  0  0  0
   60.3710   31.6310   49.9770 C   0  0  0  0  0  0  0  0  0  0  0  0
   60.5704   32.5738   50.5074 H   0  0  0  0  0  0  0  0  0  0  0  0
   59.1170   31.0160   50.0970 C   0  0  0  0  0  0  0  0  0  0  0  0
   58.1050   31.6300   50.9120 N   0  0  0  0  0  0  0  0  0  0  0  0
   58.1550   32.6630   51.0610 H   0  0  0  0  0  0  0  0  0  0  0  0
   57.1160   30.8950   51.6500 C   0  0  0  0  0  0  0  0  0  0  0  0
   57.1940   29.6410   51.7590 O   0  0  0  0  0  0  0  0  0  0  0  0
   56.0320   31.6260   52.3740 C   0  0  0  0  0  0  0  0  0  0  0  0
   56.1826   31.5244   53.4589 H   0  0  0  0  0  0  0  0  0  0  0  0
   56.0599   32.6904   52.0980 H   0  0  0  0  0  0  0  0  0  0  0  0
   55.0556   31.2011   52.0980 H   0  0  0  0  0  0  0  0  0  0  0  0
   58.8600   29.8330   49.3790 C   0  0  0  0  0  0  0  0  0  0  0  0
   57.8741   29.3514   49.4567 H   0  0  0  0  0  0  0  0  0  0  0  0
   57.8000   26.5990   47.1480 C   0  0  0  0  0  0  0  0  0  0  0  0
   58.2319   25.7933   47.7598 H   0  0  0  0  0  0  0  0  0  0  0  0
  1  2  1  0
  2  3  1  0
  3  4  1  0
  4  5  2  0
  5  6  1  0
  6  7  2  0
  6  8  1  0
  8  9  1  0
  8 10  1  0
  8 11  1  0
 11 12  2  0
 12 13  1  0
 12 14  1  0
 14 15  1  0
 14 16  2  0
 16 17  1  0
 16 18  1  0
 18 19  1  0
 18 20  2  0
 20 21  1  0
  4 22  1  0
 22 23  1  0
 22 24  2  0
 24 25  1  0
 25 26  1  0
 26 27  2  0
 27 28  1  0
 27 29  1  0
 29 30  1  0
 29 31  2  0
 31 32  1  0
 31 33  1  0
 33 34  1  0
 34 35  1  0
 34 36  1  0
 36 37  2  0
 36 38  1  0
 38 39  1  0
 38 40  1  0
 38 41  1  0
 33 42  2  0
 42 43  1  0
 24 44  1  0
 44 45  1  0
 44  2  2  0
 20 11  1  0
 42 26  1  0
M  CHG  1   3  -1
M  END
>  <UniqueID>  (59) 
54

>  <SMILES>  (59) 
CC(=O)Nc1cccc(Oc2cc[n-]/c(=N/C(=O)Cc3ccccc3)c2)c1

>  <Energy>  (59) 
63.058299544402004

>  <Genealogy>  (59) 
CC(=O)Nc1cccc(Oc2cc[n-]c(=NC(=O)Cc3ccccc3)c2)c1 (protonated)
CC(=O)Nc1cccc(Oc2cc[n-]/c(=N/C(=O)Cc3ccccc3)c2)c1 (cis-trans isomerization)
CC(=O)Nc1cccc(Oc2cc[n-]/c(=N/C(=O)Cc3ccccc3)c2)c1 (3D coordinates assigned)
CC(=O)Nc1cccc(Oc2cc[n-]/c(=N/C(=O)Cc3ccccc3)c2)c1 (optimized conformer: 63.058299544402004 kcal/mol)

>  <smiles>  (59) 
CC(=O)Nc1cccc(Oc2cc[nH]c(=NC(=O)Cc3ccccc3)c2)c1

>  <score_type>  (59) 
oracle

>  <origin>  (59) 
adg

>  <m_score__min__energy>  (59) 
-10.48

>  <m_primary>  (59) 
energy

$$$$
59:0
     RDKit          3D

 42 44  0  0  0  0  0  0  0  0999 V2000
   59.8540   30.6650   50.4000 C   0  0  0  0  0  0  0  0  0  0  0  0
   60.5770   29.7560   49.4890 N   0  0  0  0  0  0  0  0  0  0  0  0
   61.4360   30.5110   48.5320 C   0  0  0  0  0  0  0  0  0  0  0  0
   60.8420   30.6350   47.1140 C   0  0  0  0  0  0  0  0  0  0  0  0
   59.3790   30.6250   47.1590 N   0  0  0  0  0  0  0  0  0  0  0  0
   58.6170   31.5930   46.4170 C   0  0  0  0  0  0  0  0  0  0  0  0
   58.7520   32.9590   46.7080 C   0  0  0  0  0  0  0  0  0  0  0  0
   58.0150   33.9100   45.9970 C   0  0  0  0  0  0  0  0  0  0  0  0
   57.1480   33.5040   44.9810 C   0  0  0  0  0  0  0  0  0  0  0  0
   57.0120   32.1480   44.6760 C   0  0  0  0  0  0  0  0  0  0  0  0
   57.7310   31.1800   45.4000 C   0  0  0  0  0  0  0  0  0  0  0  0
   57.6440   29.7880   45.0630 N   0  0  0  0  0  0  0  0  0  0  0  0
   56.5050   28.9370   45.2480 C   0  0  0  0  0  0  0  0  0  0  0  0
   55.3590   29.4000   45.0040 O   0  0  0  0  0  0  0  0  0  0  0  0
   56.6310   27.5260   45.6690 C   0  0  0  0  0  0  0  0  0  0  0  0
   57.8620   26.9860   46.0740 C   0  0  0  0  0  0  0  0  0  0  0  0
   57.9320   25.6440   46.4520 C   0  0  0  0  0  0  0  0  0  0  0  0
   56.7870   24.8480   46.4130 C   0  0  0  0  0  0  0  0  0  0  0  0
   55.5790   25.4110   45.9870 C   0  0  0  0  0  0  0  0  0  0  0  0
   54.2220   24.5040   45.9180 S   0  0  0  0  0  0  0  0  0  0  0  0
   55.5310   26.7210   45.6250 N   0  0  0  0  0  0  0  0  0  0  0  0
   58.6910   29.5360   47.8590 C   0  0  0  0  0  0  0  0  0  0  0  0
   59.6540   28.8130   48.8160 C   0  0  0  0  0  0  0  0  0  0  0  0
   60.0728   30.3899   51.4423 H   0  0  0  0  0  0  0  0  0  0  0  0
   60.1781   31.7003   50.2183 H   0  0  0  0  0  0  0  0  0  0  0  0
   58.7723   30.5822   50.2183 H   0  0  0  0  0  0  0  0  0  0  0  0
   61.2110   29.1780   50.0920 H   0  0  0  0  0  0  0  0  0  0  0  0
   61.5901   31.5242   48.9316 H   0  0  0  0  0  0  0  0  0  0  0  0
   62.3742   29.9452   48.4341 H   0  0  0  0  0  0  0  0  0  0  0  0
   61.1822   31.5784   46.6620 H   0  0  0  0  0  0  0  0  0  0  0  0
   61.1815   29.7778   46.5140 H   0  0  0  0  0  0  0  0  0  0  0  0
   59.4422   33.2834   47.5007 H   0  0  0  0  0  0  0  0  0  0  0  0
   58.1181   34.9783   46.2379 H   0  0  0  0  0  0  0  0  0  0  0  0
   56.5709   34.2535   44.4196 H   0  0  0  0  0  0  0  0  0  0  0  0
   56.3384   31.8351   43.8646 H   0  0  0  0  0  0  0  0  0  0  0  0
   58.7640   27.6153   46.0933 H   0  0  0  0  0  0  0  0  0  0  0  0
   58.8898   25.2143   46.7805 H   0  0  0  0  0  0  0  0  0  0  0  0
   56.8333   23.7908   46.7134 H   0  0  0  0  0  0  0  0  0  0  0  0
   57.8516   29.9509   48.4363 H   0  0  0  0  0  0  0  0  0  0  0  0
   58.3220   28.8142   47.1155 H   0  0  0  0  0  0  0  0  0  0  0  0
   59.0654   28.2851   49.5807 H   0  0  0  0  0  0  0  0  0  0  0  0
   60.2579   28.1095   48.2240 H   0  0  0  0  0  0  0  0  0  0  0  0
  1  2  1  0
  2  3  1  0
  3  4  1  0
  4  5  1  0
  5  6  1  0
  6  7  2  0
  7  8  1  0
  8  9  2  0
  9 10  1  0
 10 11  2  0
 11 12  1  0
 12 13  1  0
 13 14  2  0
 13 15  1  0
 15 16  2  0
 16 17  1  0
 17 18  2  0
 18 19  1  0
 19 20  2  0
 19 21  1  0
  5 22  1  0
 22 23  1  0
 23  2  1  0
 11  6  1  0
 21 15  1  0
  1 24  1  0
  1 25  1  0
  1 26  1  0
  2 27  1  0
  3 28  1  0
  3 29  1  0
  4 30  1  0
  4 31  1  0
  7 32  1  0
  8 33  1  0
  9 34  1  0
 10 35  1  0
 16 36  1  0
 17 37  1  0
 18 38  1  0
 22 39  1  0
 22 40  1  0
 23 41  1  0
 23 42  1  0
M  CHG  3   2   1  12  -1  21  -1
M  END
>  <UniqueID>  (60) 
55

>  <SMILES>  (60) 
C[NH+]1CCN(c2ccccc2[N-]C(=O)c2cccc(=S)[n-]2)CC1

>  <Energy>  (60) 
61.7958210405219

>  <Genealogy>  (60) 
C[NH+]1CCN(c2ccccc2[N-]C(=O)c2cccc(=S)[n-]2)CC1 (protonated)
C[NH+]1CCN(c2ccccc2[N-]C(=O)c2cccc(=S)[n-]2)CC1 (3D coordinates assigned)
C[NH+]1CCN(c2ccccc2[N-]C(=O)c2cccc(=S)[n-]2)CC1 (nonaromatic ring conformer: 61.7958210405219 kcal/mol)

>  <smiles>  (60) 
CN1CCN(c2ccccc2NC(=O)c2cccc(=S)[nH]2)CC1

>  <score_type>  (60) 
oracle

>  <origin>  (60) 
adg

>  <m_score__min__energy>  (60) 
-9.4700000000000006

>  <m_primary>  (60) 
energy

$$$$
60:0
     RDKit          3D

 64 68  0  0  0  0  0  0  0  0999 V2000
   64.7555   34.2730   47.6520 H   0  0  0  0  0  0  0  0  0  0  0  0
   64.0970   33.4640   48.0010 C   0  0  0  0  0  0  0  0  0  0  0  0
   63.9590   33.2180   49.3680 C   0  0  0  0  0  0  0  0  0  0  0  0
   64.5097   33.8323   50.0955 H   0  0  0  0  0  0  0  0  0  0  0  0
   63.1210   32.1910   49.8130 C   0  0  0  0  0  0  0  0  0  0  0  0
   63.0119   32.0018   50.8911 H   0  0  0  0  0  0  0  0  0  0  0  0
   62.4180   31.4000   48.8900 C   0  0  0  0  0  0  0  0  0  0  0  0
   61.5410   30.2720   49.3650 C   0  0  0  0  0  0  0  0  0  0  0  0
   61.3707   30.3773   50.4466 H   0  0  0  0  0  0  0  0  0  0  0  0
   62.0435   29.3173   49.1502 H   0  0  0  0  0  0  0  0  0  0  0  0
   60.2550   30.2940   48.6720 N   0  0  0  0  0  0  0  0  0  0  0  0
   59.4310   29.1370   48.4900 C   0  0  0  0  0  0  0  0  0  0  0  0
   58.4400   28.9440   49.2450 O   0  0  0  0  0  0  0  0  0  0  0  0
   59.7590   28.1700   47.4220 C   0  0  0  0  0  0  0  0  0  0  0  0
   60.5280   27.0360   47.6110 C   0  0  0  0  0  0  0  0  0  0  0  0
   61.0513   26.7432   48.5332 H   0  0  0  0  0  0  0  0  0  0  0  0
   60.5110   26.3430   46.4170 C   0  0  0  0  0  0  0  0  0  0  0  0
   61.0232   25.3936   46.2017 H   0  0  0  0  0  0  0  0  0  0  0  0
   59.7280   27.0710   45.5470 C   0  0  0  0  0  0  0  0  0  0  0  0
   59.5022   26.7834   44.5096 H   0  0  0  0  0  0  0  0  0  0  0  0
   59.2800   28.1870   46.1550 N   0  0  0  0  0  0  0  0  0  0  0  0
   58.3640   29.1220   45.5740 C   0  0  0  0  0  0  0  0  0  0  0  0
   58.7550   30.4030   45.3370 N   0  0  0  0  0  0  0  0  0  0  0  0
   57.8940   31.3140   44.8090 C   0  0  0  0  0  0  0  0  0  0  0  0
   58.2980   32.5350   44.6200 N   0  0  0  0  0  0  0  0  0  0  0  0
   57.8970   33.6780   45.4430 C   0  0  0  0  0  0  0  0  0  0  0  0
   56.8484   33.5553   45.7517 H   0  0  0  0  0  0  0  0  0  0  0  0
   58.0060   34.6025   44.8570 H   0  0  0  0  0  0  0  0  0  0  0  0
   58.7720   33.7600   46.6670 C   0  0  0  0  0  0  0  0  0  0  0  0
   59.9840   34.4640   46.6380 C   0  0  0  0  0  0  0  0  0  0  0  0
   60.3224   34.9344   45.7030 H   0  0  0  0  0  0  0  0  0  0  0  0
   60.7630   34.5700   47.7920 C   0  0  0  0  0  0  0  0  0  0  0  0
   61.7209   35.1098   47.7593 H   0  0  0  0  0  0  0  0  0  0  0  0
   60.3290   33.9920   48.9890 C   0  0  0  0  0  0  0  0  0  0  0  0
   60.9478   34.0798   49.8942 H   0  0  0  0  0  0  0  0  0  0  0  0
   59.1060   33.2990   49.0430 C   0  0  0  0  0  0  0  0  0  0  0  0
   58.6360   32.7230   50.3270 C   0  0  0  0  0  0  0  0  0  0  0  0
   58.5620   33.4640   51.3450 O   0  0  0  0  0  0  0  0  0  0  0  0
   58.2660   31.3340   50.4200 N   0  0  0  0  0  0  0  0  0  0  0  0
   58.3170   30.7380   49.5640 H   0  0  0  0  0  0  0  0  0  0  0  0
   57.7780   30.7210   51.6220 C   0  0  0  0  0  0  0  0  0  0  0  0
   56.5650   31.1520   52.1880 C   0  0  0  0  0  0  0  0  0  0  0  0
   56.0243   31.9979   51.7385 H   0  0  0  0  0  0  0  0  0  0  0  0
   56.0410   30.5170   53.3140 C   0  0  0  0  0  0  0  0  0  0  0  0
   55.0920   30.8638   53.7489 H   0  0  0  0  0  0  0  0  0  0  0  0
   56.7200   29.4420   53.8890 C   0  0  0  0  0  0  0  0  0  0  0  0
   56.3086   28.9442   54.7795 H   0  0  0  0  0  0  0  0  0  0  0  0
   57.9230   28.9980   53.3330 C   0  0  0  0  0  0  0  0  0  0  0  0
   58.4540   28.1497   53.7894 H   0  0  0  0  0  0  0  0  0  0  0  0
   58.4600   29.6250   52.1970 C   0  0  0  0  0  0  0  0  0  0  0  0
   59.7040   29.1570   51.6600 N   0  0  0  0  0  0  0  0  0  0  0  0
   60.3670   28.6140   52.2580 H   0  0  0  0  0  0  0  0  0  0  0  0
   59.9920   29.3400   50.6750 H   0  0  0  0  0  0  0  0  0  0  0  0
   58.3480   33.1630   47.8660 C   0  0  0  0  0  0  0  0  0  0  0  0
   57.4134   32.5831   47.8845 H   0  0  0  0  0  0  0  0  0  0  0  0
   56.6180   30.9420   44.5070 N   0  0  0  0  0  0  0  0  0  0  0  0
   56.1930   29.6670   44.7060 C   0  0  0  0  0  0  0  0  0  0  0  0
   55.0110   29.3430   44.4110 O   0  0  0  0  0  0  0  0  0  0  0  0
   57.0660   28.7190   45.2390 C   0  0  0  0  0  0  0  0  0  0  0  0
   56.7422   27.6790   45.3925 H   0  0  0  0  0  0  0  0  0  0  0  0
   62.5640   31.6520   47.5170 C   0  0  0  0  0  0  0  0  0  0  0  0
   62.0196   31.0362   46.7859 H   0  0  0  0  0  0  0  0  0  0  0  0
   63.3990   32.6830   47.0750 C   0  0  0  0  0  0  0  0  0  0  0  0
   63.5067   32.8796   45.9981 H   0  0  0  0  0  0  0  0  0  0  0  0
  1  2  1  0
  2  3  2  0
  3  4  1  0
  3  5  1  0
  5  6  1  0
  5  7  2  0
  7  8  1  0
  8  9  1  0
  8 10  1  0
  8 11  1  0
 11 12  1  0
 12 13  2  0
 12 14  1  0
 14 15  2  0
 15 16  1  0
 15 17  1  0
 17 18  1  0
 17 19  2  0
 19 20  1  0
 19 21  1  0
 21 22  1  0
 22 23  1  0
 23 24  1  0
 24 25  2  0
 25 26  1  0
 26 27  1  0
 26 28  1  0
 26 29  1  0
 29 30  2  0
 30 31  1  0
 30 32  1  0
 32 33  1  0
 32 34  2  0
 34 35  1  0
 34 36  1  0
 36 37  1  0
 37 38  2  0
 37 39  1  0
 39 40  1  0
 39 41  1  0
 41 42  2  0
 42 43  1  0
 42 44  1  0
 44 45  1  0
 44 46  2  0
 46 47  1  0
 46 48  1  0
 48 49  1  0
 48 50  2  0
 50 51  1  0
 51 52  1  0
 51 53  1  0
 36 54  2  0
 54 55  1  0
 24 56  1  0
 56 57  1  0
 57 58  2  0
 57 59  1  0
 59 60  1  0
  7 61  1  0
 61 62  1  0
 61 63  2  0
 63 64  1  0
 63  2  1  0
 21 14  1  0
 59 22  2  0
 54 29  1  0
 50 41  1  0
M  CHG  3  11  -1  23  -1  56  -1
M  END
>  <UniqueID>  (61) 
56

>  <SMILES>  (61) 
Nc1ccccc1NC(=O)c1cccc(C/N=c2/[n-]c(-n3cccc3C(=O)[N-]Cc3ccccc3)cc(=O)[n-]2)c1

>  <Energy>  (61) 
105.87279546332837

>  <Genealogy>  (61) 
Nc1ccccc1NC(=O)c1cccc(CN=c2[n-]c(-n3cccc3C(=O)[N-]Cc3ccccc3)cc(=O)[n-]2)c1 (protonated)
Nc1ccccc1NC(=O)c1cccc(C/N=c2/[n-]c(-n3cccc3C(=O)[N-]Cc3ccccc3)cc(=O)[n-]2)c1 (cis-trans isomerization)
Nc1ccccc1NC(=O)c1cccc(C/N=c2/[n-]c(-n3cccc3C(=O)[N-]Cc3ccccc3)cc(=O)[n-]2)c1 (3D coordinates assigned)
Nc1ccccc1NC(=O)c1cccc(C/N=c2/[n-]c(-n3cccc3C(=O)[N-]Cc3ccccc3)cc(=O)[n-]2)c1 (optimized conformer: 105.87279546332837 kcal/mol)

>  <smiles>  (61) 
Nc1ccccc1NC(=O)c1cccc(CN=c2[nH]c(-n3cccc3C(=O)NCc3ccccc3)cc(=O)[nH]2)c1

>  <score_type>  (61) 
oracle

>  <origin>  (61) 
adg

>  <m_score__min__energy>  (61) 
-14.33

>  <m_primary>  (61) 
energy

$$$$
61:0
     RDKit          3D

 54 57  0  0  0  0  0  0  0  0999 V2000
   56.6410   31.3780   45.6100 H   0  0  0  0  0  0  0  0  0  0  0  0
   56.1550   31.0020   44.7660 N   0  0  0  0  0  0  0  0  0  0  0  0
   56.3700   29.8100   44.3000 C   0  0  0  0  0  0  0  0  0  0  0  0
   56.8960   28.7620   45.1320 N   0  0  0  0  0  0  0  0  0  0  0  0
   57.7810   28.8920   46.0770 C   0  0  0  0  0  0  0  0  0  0  0  0
   58.1200   30.1180   46.5660 N   0  0  0  0  0  0  0  0  0  0  0  0
   59.0230   30.2730   47.5690 C   0  0  0  0  0  0  0  0  0  0  0  0
   59.2746   31.2814   47.9294 H   0  0  0  0  0  0  0  0  0  0  0  0
   59.6360   29.1500   48.1470 C   0  0  0  0  0  0  0  0  0  0  0  0
   60.6130   29.3000   49.2410 C   0  0  0  0  0  0  0  0  0  0  0  0
   61.3170   30.4240   49.4790 N   0  0  0  0  0  0  0  0  0  0  0  0
   62.0460   30.0620   50.5560 C   0  0  0  0  0  0  0  0  0  0  0  0
   62.9840   30.9870   51.2890 C   0  0  0  0  0  0  0  0  0  0  0  0
   63.2867   30.4988   52.2271 H   0  0  0  0  0  0  0  0  0  0  0  0
   62.2660   32.3020   51.6570 C   0  0  0  0  0  0  0  0  0  0  0  0
   61.3192   32.0605   52.1622 H   0  0  0  0  0  0  0  0  0  0  0  0
   62.9314   32.8802   52.3150 H   0  0  0  0  0  0  0  0  0  0  0  0
   61.9620   33.1600   50.4140 C   0  0  0  0  0  0  0  0  0  0  0  0
   61.0333   32.7981   49.9486 H   0  0  0  0  0  0  0  0  0  0  0  0
   61.8578   34.2069   50.7352 H   0  0  0  0  0  0  0  0  0  0  0  0
   63.0510   33.0870   49.4270 N   0  0  0  0  0  0  0  0  0  0  0  0
   62.7640   33.1410   48.0150 C   0  0  0  0  0  0  0  0  0  0  0  0
   63.3050   32.3090   47.2400 O   0  0  0  0  0  0  0  0  0  0  0  0
   61.8920   34.1300   47.4510 N   0  0  0  0  0  0  0  0  0  0  0  0
   60.6350   34.5820   48.0300 C   0  0  0  0  0  0  0  0  0  0  0  0
   60.4495   34.0448   48.9718 H   0  0  0  0  0  0  0  0  0  0  0  0
   60.6884   35.6619   48.2323 H   0  0  0  0  0  0  0  0  0  0  0  0
   59.5190   34.3040   47.0650 C   0  0  0  0  0  0  0  0  0  0  0  0
   59.5760   34.8010   45.7530 C   0  0  0  0  0  0  0  0  0  0  0  0
   60.4553   35.3729   45.4217 H   0  0  0  0  0  0  0  0  0  0  0  0
   58.5200   34.5720   44.8660 C   0  0  0  0  0  0  0  0  0  0  0  0
   58.5740   34.9558   43.8365 H   0  0  0  0  0  0  0  0  0  0  0  0
   57.3960   33.8560   45.2860 C   0  0  0  0  0  0  0  0  0  0  0  0
   56.5674   33.6732   44.5859 H   0  0  0  0  0  0  0  0  0  0  0  0
   57.3240   33.3720   46.5950 C   0  0  0  0  0  0  0  0  0  0  0  0
   56.4369   32.8118   46.9255 H   0  0  0  0  0  0  0  0  0  0  0  0
   58.3790   33.5990   47.4860 C   0  0  0  0  0  0  0  0  0  0  0  0
   58.3156   33.2246   48.5184 H   0  0  0  0  0  0  0  0  0  0  0  0
   64.3760   32.6460   49.8780 C   0  0  0  0  0  0  0  0  0  0  0  0
   65.0650   32.6321   49.0206 H   0  0  0  0  0  0  0  0  0  0  0  0
   64.7429   33.3434   50.6454 H   0  0  0  0  0  0  0  0  0  0  0  0
   64.2920   31.2350   50.4840 C   0  0  0  0  0  0  0  0  0  0  0  0
   64.3434   30.5005   49.6667 H   0  0  0  0  0  0  0  0  0  0  0  0
   65.1315   31.1324   51.1874 H   0  0  0  0  0  0  0  0  0  0  0  0
   61.7890   28.8000   50.9500 N   0  0  0  0  0  0  0  0  0  0  0  0
   60.9030   28.3610   50.1090 O   0  0  0  0  0  0  0  0  0  0  0  0
   59.2910   27.8780   47.6680 C   0  0  0  0  0  0  0  0  0  0  0  0
   59.7543   26.9819   48.1065 H   0  0  0  0  0  0  0  0  0  0  0  0
   58.3600   27.7470   46.6350 C   0  0  0  0  0  0  0  0  0  0  0  0
   58.0837   26.7496   46.2624 H   0  0  0  0  0  0  0  0  0  0  0  0
   56.2640   29.5790   42.8300 C   0  0  0  0  0  0  0  0  0  0  0  0
   55.8117   28.5934   42.6454 H   0  0  0  0  0  0  0  0  0  0  0  0
   55.6347   30.3612   42.3803 H   0  0  0  0  0  0  0  0  0  0  0  0
   57.2674   29.6120   42.3803 H   0  0  0  0  0  0  0  0  0  0  0  0
  1  2  1  0
  2  3  2  0
  3  4  1  0
  4  5  2  0
  5  6  1  0
  6  7  1  0
  7  8  1  0
  7  9  2  0
  9 10  1  0
 10 11  2  0
 11 12  1  0
 12 13  1  0
 13 14  1  0
 13 15  1  0
 15 16  1  0
 15 17  1  0
 15 18  1  0
 18 19  1  0
 18 20  1  0
 18 21  1  0
 21 22  1  0
 22 23  2  0
 22 24  1  0
 24 25  1  0
 25 26  1  0
 25 27  1  0
 25 28  1  0
 28 29  2  0
 29 30  1  0
 29 31  1  0
 31 32  1  0
 31 33  2  0
 33 34  1  0
 33 35  1  0
 35 36  1  0
 35 37  2  0
 37 38  1  0
 21 39  1  0
 39 40  1  0
 39 41  1  0
 39 42  1  0
 42 43  1  0
 42 44  1  0
 12 45  2  0
 45 46  1  0
  9 47  1  0
 47 48  1  0
 47 49  2  0
 49 50  1  0
  3 51  1  0
 51 52  1  0
 51 53  1  0
 51 54  1  0
 49  5  1  0
 46 10  1  0
 42 13  1  0
 37 28  1  0
M  CHG  2   6  -1  24  -1
M  END
>  <UniqueID>  (62) 
57

>  <SMILES>  (62) 
[H]/N=C(C)\N=c1\ccc(-c2nc(C3CCN(C(=O)[N-]Cc4ccccc4)CC3)no2)c[n-]1

>  <Energy>  (62) 
98.35726700485937

>  <Genealogy>  (62) 
CC(=N)N=c1ccc(-c2nc(C3CCN(C(=O)[N-]Cc4ccccc4)CC3)no2)c[n-]1 (protonated)
[H]/N=C(C)\N=c1\ccc(-c2nc(C3CCN(C(=O)[N-]Cc4ccccc4)CC3)no2)c[n-]1 (cis-trans isomerization)
[H]/N=C(C)\N=c1\ccc(-c2nc(C3CCN(C(=O)[N-]Cc4ccccc4)CC3)no2)c[n-]1 (3D coordinates assigned)
[H]/N=C(C)\N=c1\ccc(-c2nc(C3CCN(C(=O)[N-]Cc4ccccc4)CC3)no2)c[n-]1 (nonaromatic ring conformer: 98.35726700485937 kcal/mol)

>  <smiles>  (62) 
CC(=N)N=c1ccc(-c2nc(C3CCN(C(=O)NCc4ccccc4)CC3)no2)c[nH]1

>  <score_type>  (62) 
oracle

>  <origin>  (62) 
adg

>  <m_score__min__energy>  (62) 
-11.130000000000001

>  <m_primary>  (62) 
energy

$$$$
62:0
     RDKit          3D

 62 67  0  0  0  0  0  0  0  0999 V2000
   63.1790   34.4970   51.2070 O   0  0  0  0  0  0  0  0  0  0  0  0
   63.6480   33.8330   50.2460 C   0  0  0  0  0  0  0  0  0  0  0  0
   63.2650   34.1740   48.9070 N   0  0  0  0  0  0  0  0  0  0  0  0
   62.1990   33.5350   48.1920 C   0  0  0  0  0  0  0  0  0  0  0  0
   60.9190   34.1100   48.1470 C   0  0  0  0  0  0  0  0  0  0  0  0
   59.8910   33.4900   47.4370 C   0  0  0  0  0  0  0  0  0  0  0  0
   60.1160   32.2780   46.7600 C   0  0  0  0  0  0  0  0  0  0  0  0
   59.0160   31.6190   46.0050 C   0  0  0  0  0  0  0  0  0  0  0  0
   58.1890   32.3640   45.1450 C   0  0  0  0  0  0  0  0  0  0  0  0
   57.1520   31.7440   44.4470 C   0  0  0  0  0  0  0  0  0  0  0  0
   56.9170   30.3750   44.6000 C   0  0  0  0  0  0  0  0  0  0  0  0
   57.7230   29.6100   45.4580 C   0  0  0  0  0  0  0  0  0  0  0  0
   57.4610   28.1650   45.6440 C   0  0  0  0  0  0  0  0  0  0  0  0
   56.2090   27.6320   45.6220 N   0  0  0  0  0  0  0  0  0  0  0  0
   56.4390   26.3300   45.8430 C   0  0  0  0  0  0  0  0  0  0  0  0
   55.5020   25.3080   45.9720 C   0  0  0  0  0  0  0  0  0  0  0  0
   55.9820   24.0120   46.2470 C   0  0  0  0  0  0  0  0  0  0  0  0
   57.3700   23.7760   46.3820 C   0  0  0  0  0  0  0  0  0  0  0  0
   58.2860   24.8390   46.2680 C   0  0  0  0  0  0  0  0  0  0  0  0
   57.7740   26.1060   45.9900 C   0  0  0  0  0  0  0  0  0  0  0  0
   58.4510   27.2570   45.8720 N   0  0  0  0  0  0  0  0  0  0  0  0
   58.7740   30.2380   46.1520 C   0  0  0  0  0  0  0  0  0  0  0  0
   61.4040   31.7090   46.8030 C   0  0  0  0  0  0  0  0  0  0  0  0
   62.4430   32.3380   47.5050 C   0  0  0  0  0  0  0  0  0  0  0  0
   63.7160   31.7690   47.5390 O   0  0  0  0  0  0  0  0  0  0  0  0
   64.6620   32.7850   50.5010 C   0  0  0  0  0  0  0  0  0  0  0  0
   66.0130   33.0940   50.2530 C   0  0  0  0  0  0  0  0  0  0  0  0
   67.0140   32.1570   50.5030 C   0  0  0  0  0  0  0  0  0  0  0  0
   66.6830   30.9040   51.0120 C   0  0  0  0  0  0  0  0  0  0  0  0
   65.3500   30.5780   51.2670 C   0  0  0  0  0  0  0  0  0  0  0  0
   64.3150   31.5030   51.0010 C   0  0  0  0  0  0  0  0  0  0  0  0
   62.9310   31.1260   51.1710 N   0  0  0  0  0  0  0  0  0  0  0  0
   62.4490   29.7550   50.9820 C   0  0  0  0  0  0  0  0  0  0  0  0
   61.0970   29.7410   50.3180 C   0  0  0  0  0  0  0  0  0  0  0  0
   60.2090   30.8150   50.4830 C   0  0  0  0  0  0  0  0  0  0  0  0
   58.9470   30.7610   49.8810 C   0  0  0  0  0  0  0  0  0  0  0  0
   58.5910   29.6800   49.1310 N   0  0  0  0  0  0  0  0  0  0  0  0
   59.4430   28.6360   48.9350 C   0  0  0  0  0  0  0  0  0  0  0  0
   60.7150   28.6530   49.5170 C   0  0  0  0  0  0  0  0  0  0  0  0
   60.7257   35.0554   48.6750 H   0  0  0  0  0  0  0  0  0  0  0  0
   58.8940   33.9538   47.4062 H   0  0  0  0  0  0  0  0  0  0  0  0
   58.3611   33.4435   45.0218 H   0  0  0  0  0  0  0  0  0  0  0  0
   56.5160   32.3361   43.7726 H   0  0  0  0  0  0  0  0  0  0  0  0
   56.0971   29.8947   44.0459 H   0  0  0  0  0  0  0  0  0  0  0  0
   54.4253   25.5054   45.8631 H   0  0  0  0  0  0  0  0  0  0  0  0
   55.2727   23.1785   46.3574 H   0  0  0  0  0  0  0  0  0  0  0  0
   57.7355   22.7570   46.5770 H   0  0  0  0  0  0  0  0  0  0  0  0
   59.3666   24.6760   46.3937 H   0  0  0  0  0  0  0  0  0  0  0  0
   59.4156   29.6429   46.8185 H   0  0  0  0  0  0  0  0  0  0  0  0
   61.5972   30.7607   46.2802 H   0  0  0  0  0  0  0  0  0  0  0  0
   64.5250   32.2930   47.8540 H   0  0  0  0  0  0  0  0  0  0  0  0
   66.2812   34.0850   49.8579 H   0  0  0  0  0  0  0  0  0  0  0  0
   68.0654   32.4073   50.2982 H   0  0  0  0  0  0  0  0  0  0  0  0
   67.4752   30.1681   51.2140 H   0  0  0  0  0  0  0  0  0  0  0  0
   65.1020   29.5891   51.6800 H   0  0  0  0  0  0  0  0  0  0  0  0
   62.2320   31.8630   51.4200 H   0  0  0  0  0  0  0  0  0  0  0  0
   63.1644   29.2066   50.3515 H   0  0  0  0  0  0  0  0  0  0  0  0
   62.3579   29.2780   51.9690 H   0  0  0  0  0  0  0  0  0  0  0  0
   60.5023   31.6911   51.0800 H   0  0  0  0  0  0  0  0  0  0  0  0
   58.2402   31.5934   50.0134 H   0  0  0  0  0  0  0  0  0  0  0  0
   59.1311   27.7795   48.3192 H   0  0  0  0  0  0  0  0  0  0  0  0
   61.4119   27.8188   49.3481 H   0  0  0  0  0  0  0  0  0  0  0  0
  1  2  2  0
  2  3  1  0
  3  4  1  0
  4  5  2  0
  5  6  1  0
  6  7  2  0
  7  8  1  0
  8  9  2  0
  9 10  1  0
 10 11  2  0
 11 12  1  0
 12 13  1  0
 13 14  2  0
 14 15  1  0
 15 16  2  0
 16 17  1  0
 17 18  2  0
 18 19  1  0
 19 20  2  0
 20 21  1  0
 12 22  2  0
  7 23  1  0
 23 24  2  0
 24 25  1  0
  2 26  1  0
 26 27  2  0
 27 28  1  0
 28 29  2  0
 29 30  1  0
 30 31  2  0
 31 32  1  0
 32 33  1  0
 33 34  1  0
 34 35  2  0
 35 36  1  0
 36 37  2  0
 37 38  1  0
 38 39  2  0
 24  4  1  0
 31 26  1  0
 39 34  1  0
 22  8  1  0
 21 13  1  0
 20 15  1  0
  5 40  1  0
  6 41  1  0
  9 42  1  0
 10 43  1  0
 11 44  1  0
 16 45  1  0
 17 46  1  0
 18 47  1  0
 19 48  1  0
 22 49  1  0
 23 50  1  0
 25 51  1  0
 27 52  1  0
 28 53  1  0
 29 54  1  0
 30 55  1  0
 32 56  1  0
 33 57  1  0
 33 58  1  0
 35 59  1  0
 36 60  1  0
 38 61  1  0
 39 62  1  0
M  CHG  2   3  -1  21  -1
M  END
>  <UniqueID>  (63) 
58

>  <SMILES>  (63) 
O=C([N-]c1ccc(-c2cccc(-c3nc4ccccc4[n-]3)c2)cc1O)c1ccccc1NCc1ccncc1

>  <Energy>  (63) 
123.51496305736781

>  <Genealogy>  (63) 
O=C([N-]c1ccc(-c2cccc(-c3nc4ccccc4[n-]3)c2)cc1O)c1ccccc1NCc1ccncc1 (protonated)
O=C([N-]c1ccc(-c2cccc(-c3nc4ccccc4[n-]3)c2)cc1O)c1ccccc1NCc1ccncc1 (3D coordinates assigned)
O=C([N-]c1ccc(-c2cccc(-c3nc4ccccc4[n-]3)c2)cc1O)c1ccccc1NCc1ccncc1 (optimized conformer: 123.51496305736781 kcal/mol)

>  <smiles>  (63) 
O=C(Nc1ccc(-c2cccc(-c3nc4ccccc4[nH]3)c2)cc1O)c1ccccc1NCc1ccncc1

>  <score_type>  (63) 
oracle

>  <origin>  (63) 
adg

>  <m_score__min__energy>  (63) 
-12

>  <m_primary>  (63) 
energy

$$$$
63:0
     RDKit          3D

 55 57  0  0  0  0  0  0  0  0999 V2000
   57.6220   33.6940   44.9060 C   0  0  0  0  0  0  0  0  0  0  0  0
   57.7890   34.0650   46.1770 C   0  0  0  0  0  0  0  0  0  0  0  0
   58.9640   33.6950   47.0030 C   0  0  0  0  0  0  0  0  0  0  0  0
   59.2800   34.3550   48.2080 C   0  0  0  0  0  0  0  0  0  0  0  0
   60.3900   33.9620   48.9590 C   0  0  0  0  0  0  0  0  0  0  0  0
   61.1980   32.9080   48.5270 C   0  0  0  0  0  0  0  0  0  0  0  0
   62.2950   32.5290   49.2960 O   0  0  0  0  0  0  0  0  0  0  0  0
   60.8940   32.2310   47.3300 C   0  0  0  0  0  0  0  0  0  0  0  0
   61.7260   31.0530   46.8850 C   0  0  0  0  0  0  0  0  0  0  0  0
   61.0340   29.7880   47.2040 N   0  0  0  0  0  0  0  0  0  0  0  0
   59.8240   30.0030   48.0360 C   0  0  0  0  0  0  0  0  0  0  0  0
   59.7890   28.9790   49.1260 C   0  0  0  0  0  0  0  0  0  0  0  0
   60.0890   27.7800   48.8810 O   0  0  0  0  0  0  0  0  0  0  0  0
   59.4220   29.3780   50.4440 N   0  0  0  0  0  0  0  0  0  0  0  0
   58.1640   30.0260   50.7760 C   0  0  0  0  0  0  0  0  0  0  0  0
   58.4590   31.3470   51.4240 C   0  0  0  0  0  0  0  0  0  0  0  0
   59.7760   31.6880   51.7750 C   0  0  0  0  0  0  0  0  0  0  0  0
   60.0370   32.8920   52.4370 C   0  0  0  0  0  0  0  0  0  0  0  0
   58.9840   33.7540   52.7670 C   0  0  0  0  0  0  0  0  0  0  0  0
   59.2440   34.9480   53.4290 O   0  0  0  0  0  0  0  0  0  0  0  0
   57.6700   33.4130   52.4330 C   0  0  0  0  0  0  0  0  0  0  0  0
   57.4060   32.2120   51.7670 C   0  0  0  0  0  0  0  0  0  0  0  0
   60.7400   28.9990   45.9900 C   0  0  0  0  0  0  0  0  0  0  0  0
   59.2530   28.9920   45.7480 C   0  0  0  0  0  0  0  0  0  0  0  0
   58.6520   30.0770   45.0930 C   0  0  0  0  0  0  0  0  0  0  0  0
   57.2870   30.0580   44.8090 C   0  0  0  0  0  0  0  0  0  0  0  0
   56.5030   28.9570   45.1710 C   0  0  0  0  0  0  0  0  0  0  0  0
   55.1460   28.9770   44.8650 O   0  0  0  0  0  0  0  0  0  0  0  0
   57.0910   27.8530   45.8340 C   0  0  0  0  0  0  0  0  0  0  0  0
   56.2950   26.6650   46.2340 C   0  0  0  0  0  0  0  0  0  0  0  0
   55.0620   26.5970   45.9890 O   0  0  0  0  0  0  0  0  0  0  0  0
   56.9040   25.6010   46.8920 O   0  0  0  0  0  0  0  0  0  0  0  0
   58.4690   27.8860   46.1150 C   0  0  0  0  0  0  0  0  0  0  0  0
   59.7710   32.6250   46.5830 C   0  0  0  0  0  0  0  0  0  0  0  0
   56.7227   34.0071   44.3553 H   0  0  0  0  0  0  0  0  0  0  0  0
   58.3836   33.0751   44.4091 H   0  0  0  0  0  0  0  0  0  0  0  0
   57.0066   34.6836   46.6408 H   0  0  0  0  0  0  0  0  0  0  0  0
   58.6485   35.1845   48.5588 H   0  0  0  0  0  0  0  0  0  0  0  0
   60.6292   34.4857   49.8963 H   0  0  0  0  0  0  0  0  0  0  0  0
   61.8893   31.1135   45.7989 H   0  0  0  0  0  0  0  0  0  0  0  0
   62.6909   31.0763   47.4127 H   0  0  0  0  0  0  0  0  0  0  0  0
   59.8553   31.0099   48.4778 H   0  0  0  0  0  0  0  0  0  0  0  0
   58.9238   29.9087   47.4109 H   0  0  0  0  0  0  0  0  0  0  0  0
   57.5771   30.1862   49.8596 H   0  0  0  0  0  0  0  0  0  0  0  0
   57.5862   29.3918   51.4644 H   0  0  0  0  0  0  0  0  0  0  0  0
   60.6036   31.0066   51.5286 H   0  0  0  0  0  0  0  0  0  0  0  0
   61.0707   33.1621   52.6987 H   0  0  0  0  0  0  0  0  0  0  0  0
   56.8432   34.0898   52.6942 H   0  0  0  0  0  0  0  0  0  0  0  0
   56.3705   31.9435   51.5107 H   0  0  0  0  0  0  0  0  0  0  0  0
   61.2506   29.4498   45.1263 H   0  0  0  0  0  0  0  0  0  0  0  0
   61.0958   27.9671   46.1264 H   0  0  0  0  0  0  0  0  0  0  0  0
   59.2600   30.9464   44.8022 H   0  0  0  0  0  0  0  0  0  0  0  0
   56.8235   30.9142   44.2970 H   0  0  0  0  0  0  0  0  0  0  0  0
   58.9387   27.0344   46.6289 H   0  0  0  0  0  0  0  0  0  0  0  0
   59.5204   32.0879   45.6563 H   0  0  0  0  0  0  0  0  0  0  0  0
  1  2  2  0
  2  3  1  0
  3  4  2  0
  4  5  1  0
  5  6  2  0
  6  7  1  0
  6  8  1  0
  8  9  1  0
  9 10  1  0
 10 11  1  0
 11 12  1  0
 12 13  2  0
 12 14  1  0
 14 15  1  0
 15 16  1  0
 16 17  2  0
 17 18  1  0
 18 19  2  0
 19 20  1  0
 19 21  1  0
 21 22  2  0
 10 23  1  0
 23 24  1  0
 24 25  2  0
 25 26  1  0
 26 27  2  0
 27 28  1  0
 27 29  1  0
 29 30  1  0
 30 31  2  0
 30 32  1  0
 29 33  2  0
  8 34  2  0
 34  3  1  0
 22 16  1  0
 33 24  1  0
  1 35  1  0
  1 36  1  0
  2 37  1  0
  4 38  1  0
  5 39  1  0
  9 40  1  0
  9 41  1  0
 11 42  1  0
 11 43  1  0
 15 44  1  0
 15 45  1  0
 17 46  1  0
 18 47  1  0
 21 48  1  0
 22 49  1  0
 23 50  1  0
 23 51  1  0
 25 52  1  0
 26 53  1  0
 33 54  1  0
 34 55  1  0
M  CHG  5   7  -1  14  -1  20  -1  28  -1  32  -1
M  END
>  <UniqueID>  (64) 
59

>  <SMILES>  (64) 
C=Cc1ccc([O-])c(CN(CC(=O)[N-]Cc2ccc([O-])cc2)Cc2ccc([O-])c(C(=O)[O-])c2)c1

>  <Energy>  (64) 
55.737924280208

>  <Genealogy>  (64) 
C=Cc1ccc([O-])c(CN(CC(=O)[N-]Cc2ccc([O-])cc2)Cc2ccc([O-])c(C(=O)[O-])c2)c1 (protonated)
C=Cc1ccc([O-])c(CN(CC(=O)[N-]Cc2ccc([O-])cc2)Cc2ccc([O-])c(C(=O)[O-])c2)c1 (3D coordinates assigned)
C=Cc1ccc([O-])c(CN(CC(=O)[N-]Cc2ccc([O-])cc2)Cc2ccc([O-])c(C(=O)[O-])c2)c1 (optimized conformer: 55.737924280208 kcal/mol)

>  <smiles>  (64) 
C=Cc1ccc(O)c(CN(CC(=O)NCc2ccc(O)cc2)Cc2ccc(O)c(C(=O)O)c2)c1

>  <score_type>  (64) 
oracle

>  <origin>  (64) 
adg

>  <m_score__min__energy>  (64) 
-18.620000000000001

>  <m_primary>  (64) 
energy

$$$$
64:0
     RDKit          3D

 58 62  0  0  1  0  0  0  0  0999 V2000
   61.1500   26.7920   47.9270 O   0  0  0  0  0  0  0  0  0  0  0  0
   60.3560   27.4370   48.6160 C   0  0  0  0  0  0  0  0  0  0  0  0
   60.6590   27.5460   50.0860 C   0  0  0  0  0  0  0  0  0  0  0  0
   61.1260   28.9000   50.4190 C   0  0  0  0  0  0  0  0  0  0  0  0
   62.3320   29.3510   50.9110 C   0  0  0  0  0  0  0  0  0  0  0  0
   62.2830   30.6710   51.0550 O   0  0  0  0  0  0  0  0  0  0  0  0
   61.0860   31.0990   50.6730 C   0  0  0  0  0  0  0  0  0  0  0  0
   60.4840   32.3470   50.6060 C   0  0  0  0  0  0  0  0  0  0  0  0
   61.1700   33.3480   50.9780 N   0  0  0  0  0  0  0  0  0  0  0  0
   62.5300   33.6470   50.5460 C   0  0  0  0  0  0  0  0  0  0  0  0
   62.5230   33.6420   49.0760 C   0  0  0  0  0  0  0  0  0  0  0  0
   63.4800   33.2390   48.1840 C   0  0  0  0  0  0  0  0  0  0  0  0
   63.2680   33.3180   46.8810 C   0  0  0  0  0  0  0  0  0  0  0  0
   62.0150   33.8350   46.4820 C   0  0  0  0  0  0  0  0  0  0  0  0
   61.1370   34.2110   48.0410 S   0  0  0  0  0  0  0  0  0  0  0  0
   59.2230   32.5260   50.1700 N   0  0  0  0  0  0  0  0  0  0  0  0
   58.5480   31.4290   49.7920 C   0  0  0  0  0  0  0  0  0  0  0  0
   59.0650   30.1870   49.8280 N   0  0  0  0  0  0  0  0  0  0  0  0
   60.3190   30.0280   50.2640 C   0  0  0  0  0  0  0  0  0  0  0  0
   59.2110   28.0560   48.0940 N   0  0  0  0  0  0  0  0  0  0  0  0
   58.7890   28.0540   46.7530 C   0  0  0  0  0  0  0  0  0  0  0  0
   58.7460   26.9560   45.9300 C   0  0  0  0  0  0  0  0  0  0  0  0
   58.3030   27.0170   44.6090 C   0  0  0  0  0  0  0  0  0  0  0  0
   57.8830   28.2130   44.0670 C   0  0  0  0  0  0  0  0  0  0  0  0
   57.9240   29.3170   44.8880 C   0  0  0  0  0  0  0  0  0  0  0  0
   57.3960   30.8520   44.2600 S   0  0  0  0  0  0  0  0  0  0  0  0
   57.3400   30.8360   42.7520 O   0  0  0  0  0  0  0  0  0  0  0  0
   55.9930   31.1340   44.7780 O   0  0  0  0  0  0  0  0  0  0  0  0
   58.4000   32.1150   44.8140 N   0  0  0  0  0  0  0  0  0  0  0  0
   58.1640   33.3830   44.1950 C   0  0  0  0  0  0  0  0  0  0  0  0
   57.0990   34.2160   44.8650 C   0  0  0  0  0  0  0  0  0  0  0  0
   57.0410   34.0720   46.2290 O   0  0  0  0  0  0  0  0  0  0  0  0
   58.1710   33.5230   46.8090 C   0  0  0  0  0  0  0  0  0  0  0  0
   58.3830   32.1420   46.2600 C   0  0  0  0  0  0  0  0  0  0  0  0
   58.3600   29.2520   46.1850 C   0  0  0  0  0  0  0  0  0  0  0  0
   59.7469   27.3267   50.6604 H   0  0  0  0  0  0  0  0  0  0  0  0
   61.4506   26.8255   50.3394 H   0  0  0  0  0  0  0  0  0  0  0  0
   63.1994   28.7172   51.1475 H   0  0  0  0  0  0  0  0  0  0  0  0
   62.8366   34.6353   50.9193 H   0  0  0  0  0  0  0  0  0  0  0  0
   63.2397   32.9038   50.9385 H   0  0  0  0  0  0  0  0  0  0  0  0
   64.4372   32.8446   48.5556 H   0  0  0  0  0  0  0  0  0  0  0  0
   64.0246   32.9991   46.1490 H   0  0  0  0  0  0  0  0  0  0  0  0
   61.6473   33.9799   45.4554 H   0  0  0  0  0  0  0  0  0  0  0  0
   58.7630   33.4620   50.1170 H   0  0  0  0  0  0  0  0  0  0  0  0
   57.5155   31.5520   49.4331 H   0  0  0  0  0  0  0  0  0  0  0  0
   58.6070   28.5780   48.7890 H   0  0  0  0  0  0  0  0  0  0  0  0
   59.0754   25.9857   46.3300 H   0  0  0  0  0  0  0  0  0  0  0  0
   58.2886   26.1043   43.9952 H   0  0  0  0  0  0  0  0  0  0  0  0
   57.5315   28.2818   43.0269 H   0  0  0  0  0  0  0  0  0  0  0  0
   59.1050   33.9525   44.2081 H   0  0  0  0  0  0  0  0  0  0  0  0
   57.8036   33.1729   43.1772 H   0  0  0  0  0  0  0  0  0  0  0  0
   57.2969   35.2742   44.6389 H   0  0  0  0  0  0  0  0  0  0  0  0
   56.1332   33.8667   44.4711 H   0  0  0  0  0  0  0  0  0  0  0  0
   59.0451   34.1495   46.5779 H   0  0  0  0  0  0  0  0  0  0  0  0
   58.0403   33.4722   47.9000 H   0  0  0  0  0  0  0  0  0  0  0  0
   59.3453   31.7593   46.6309 H   0  0  0  0  0  0  0  0  0  0  0  0
   57.5418   31.5174   46.5951 H   0  0  0  0  0  0  0  0  0  0  0  0
   58.3718   30.1684   46.7933 H   0  0  0  0  0  0  0  0  0  0  0  0
  1  2  2  0
  2  3  1  0
  3  4  1  0
  4  5  2  0
  5  6  1  0
  6  7  1  0
  7  8  1  0
  8  9  2  0
  9 10  1  0
 10 11  1  0
 11 12  2  0
 12 13  1  0
 13 14  2  0
 14 15  1  0
  8 16  1  0
 16 17  1  0
 17 18  2  0
 18 19  1  0
  2 20  1  0
 20 21  1  0
 21 22  2  0
 22 23  1  0
 23 24  2  0
 24 25  1  0
 25 26  1  0
 26 27  2  0
 26 28  2  0
 26 29  1  0
 29 30  1  0
 30 31  1  0
 31 32  1  0
 32 33  1  0
 33 34  1  0
 25 35  2  0
 19  4  1  0
 35 21  1  0
 19  7  2  0
 34 29  1  0
 15 11  1  0
  3 36  1  0
  3 37  1  0
  5 38  1  0
 10 39  1  0
 10 40  1  0
 12 41  1  0
 13 42  1  0
 14 43  1  0
 16 44  1  0
 17 45  1  0
 20 46  1  0
 22 47  1  0
 23 48  1  0
 24 49  1  0
 30 50  1  0
 30 51  1  0
 31 52  1  0
 31 53  1  0
 33 54  1  0
 33 55  1  0
 34 56  1  0
 34 57  1  0
 35 58  1  0
M  END
>  <smiles>  (65) 
O=C(Cc1coc2c(=NCc3cccs3)[nH]cnc12)Nc1cccc(S(=O)(=O)N2CCOCC2)c1

>  <score_type>  (65) 
oracle

>  <origin>  (65) 
adg

>  <m_score__min__energy>  (65) 
-10.49

>  <m_primary>  (65) 
energy

$$$$
65:0
     RDKit          3D

 62 66  0  0  0  0  0  0  0  0999 V2000
   64.7070   30.2900   52.4020 C   0  0  0  0  0  0  0  0  0  0  0  0
   64.4050   31.6650   52.1930 O   0  0  0  0  0  0  0  0  0  0  0  0
   63.8290   32.1870   51.0230 C   0  0  0  0  0  0  0  0  0  0  0  0
   62.4710   32.5490   50.9580 C   0  0  0  0  0  0  0  0  0  0  0  0
   61.9290   33.0780   49.7800 C   0  0  0  0  0  0  0  0  0  0  0  0
   62.7420   33.2210   48.6420 C   0  0  0  0  0  0  0  0  0  0  0  0
   64.0960   32.8580   48.7070 C   0  0  0  0  0  0  0  0  0  0  0  0
   64.6450   32.3450   49.8960 C   0  0  0  0  0  0  0  0  0  0  0  0
   65.9960   31.9760   49.9940 O   0  0  0  0  0  0  0  0  0  0  0  0
   67.0180   32.7810   50.5770 C   0  0  0  0  0  0  0  0  0  0  0  0
   62.1510   33.7640   47.3970 C   0  0  0  0  0  0  0  0  0  0  0  0
   62.8110   33.7590   46.3240 O   0  0  0  0  0  0  0  0  0  0  0  0
   60.8050   34.2820   47.4270 N   0  0  0  0  0  0  0  0  0  0  0  0
   60.1130   34.6880   46.1970 C   0  0  0  0  0  0  0  0  0  0  0  0
   59.1580   33.6120   45.7530 C   0  0  0  0  0  0  0  0  0  0  0  0
   58.3240   33.8250   44.6450 C   0  0  0  0  0  0  0  0  0  0  0  0
   57.3970   32.8540   44.2650 C   0  0  0  0  0  0  0  0  0  0  0  0
   57.2990   31.6540   44.9780 C   0  0  0  0  0  0  0  0  0  0  0  0
   56.3280   30.7300   44.6080 O   0  0  0  0  0  0  0  0  0  0  0  0
   58.1590   31.4100   46.0700 C   0  0  0  0  0  0  0  0  0  0  0  0
   58.1200   30.2190   46.8140 O   0  0  0  0  0  0  0  0  0  0  0  0
   58.9800   29.8950   47.8730 C   0  0  0  0  0  0  0  0  0  0  0  0
   58.9280   30.6780   49.0320 C   0  0  0  0  0  0  0  0  0  0  0  0
   59.7380   30.3720   50.1290 C   0  0  0  0  0  0  0  0  0  0  0  0
   60.6050   29.2820   50.0740 C   0  0  0  0  0  0  0  0  0  0  0  0
   60.6860   28.5080   48.9140 C   0  0  0  0  0  0  0  0  0  0  0  0
   59.9080   28.8320   47.7860 C   0  0  0  0  0  0  0  0  0  0  0  0
   60.0220   28.0860   46.5630 N   0  0  0  0  0  0  0  0  0  0  0  0
   58.9860   27.8460   45.5980 C   0  0  0  0  0  0  0  0  0  0  0  0
   59.1060   28.3440   44.4490 O   0  0  0  0  0  0  0  0  0  0  0  0
   57.8200   26.9890   45.8850 C   0  0  0  0  0  0  0  0  0  0  0  0
   57.8610   25.6990   46.3850 C   0  0  0  0  0  0  0  0  0  0  0  0
   56.5540   25.2830   46.4910 C   0  0  0  0  0  0  0  0  0  0  0  0
   55.7910   26.3370   46.0360 C   0  0  0  0  0  0  0  0  0  0  0  0
   54.4050   26.3400   45.9760 O   0  0  0  0  0  0  0  0  0  0  0  0
   56.5510   27.3820   45.6560 N   0  0  0  0  0  0  0  0  0  0  0  0
   59.0640   32.4050   46.4640 C   0  0  0  0  0  0  0  0  0  0  0  0
   60.1930   34.5580   48.7320 C   0  0  0  0  0  0  0  0  0  0  0  0
   60.4560   33.4050   49.7070 C   0  0  0  0  0  0  0  0  0  0  0  0
   64.7521   30.0845   53.4817 H   0  0  0  0  0  0  0  0  0  0  0  0
   63.9239   29.6687   51.9429 H   0  0  0  0  0  0  0  0  0  0  0  0
   65.6784   30.0540   51.9429 H   0  0  0  0  0  0  0  0  0  0  0  0
   61.8288   32.4152   51.8410 H   0  0  0  0  0  0  0  0  0  0  0  0
   64.7345   32.9759   47.8190 H   0  0  0  0  0  0  0  0  0  0  0  0
   66.9477   32.7256   51.6734 H   0  0  0  0  0  0  0  0  0  0  0  0
   68.0032   32.4137   50.2537 H   0  0  0  0  0  0  0  0  0  0  0  0
   66.8917   33.8248   50.2537 H   0  0  0  0  0  0  0  0  0  0  0  0
   59.5521   35.6152   46.3858 H   0  0  0  0  0  0  0  0  0  0  0  0
   60.8589   34.8522   45.4053 H   0  0  0  0  0  0  0  0  0  0  0  0
   58.4014   34.7617   44.0734 H   0  0  0  0  0  0  0  0  0  0  0  0
   56.7401   33.0326   43.4009 H   0  0  0  0  0  0  0  0  0  0  0  0
   58.2455   31.5394   49.0797 H   0  0  0  0  0  0  0  0  0  0  0  0
   59.6913   30.9918   51.0365 H   0  0  0  0  0  0  0  0  0  0  0  0
   61.2268   29.0308   50.9459 H   0  0  0  0  0  0  0  0  0  0  0  0
   61.3614   27.6404   48.8816 H   0  0  0  0  0  0  0  0  0  0  0  0
   58.7600   25.1212   46.6458 H   0  0  0  0  0  0  0  0  0  0  0  0
   56.1932   24.3121   46.8615 H   0  0  0  0  0  0  0  0  0  0  0  0
   59.7079   32.2384   47.3402 H   0  0  0  0  0  0  0  0  0  0  0  0
   60.6213   35.4839   49.1434 H   0  0  0  0  0  0  0  0  0  0  0  0
   59.1067   34.6675   48.5977 H   0  0  0  0  0  0  0  0  0  0  0  0
   60.1022   33.6934   50.7078 H   0  0  0  0  0  0  0  0  0  0  0  0
   59.9185   32.5150   49.3478 H   0  0  0  0  0  0  0  0  0  0  0  0
  1  2  1  0
  2  3  1  0
  3  4  2  0
  4  5  1  0
  5  6  2  0
  6  7  1  0
  7  8  2  0
  8  9  1  0
  9 10  1  0
  6 11  1  0
 11 12  2  0
 11 13  1  0
 13 14  1  0
 14 15  1  0
 15 16  2  0
 16 17  1  0
 17 18  2  0
 18 19  1  0
 18 20  1  0
 20 21  1  0
 21 22  1  0
 22 23  2  0
 23 24  1  0
 24 25  2  0
 25 26  1  0
 26 27  2  0
 27 28  1  0
 28 29  1  0
 29 30  2  0
 29 31  1  0
 31 32  2  0
 32 33  1  0
 33 34  2  0
 34 35  1  0
 34 36  1  0
 20 37  2  0
 13 38  1  0
 38 39  1  0
  8  3  1  0
 37 15  1  0
 39  5  1  0
 27 22  1  0
 36 31  1  0
  1 40  1  0
  1 41  1  0
  1 42  1  0
  4 43  1  0
  7 44  1  0
 10 45  1  0
 10 46  1  0
 10 47  1  0
 14 48  1  0
 14 49  1  0
 16 50  1  0
 17 51  1  0
 23 52  1  0
 24 53  1  0
 25 54  1  0
 26 55  1  0
 32 56  1  0
 33 57  1  0
 37 58  1  0
 38 59  1  0
 38 60  1  0
 39 61  1  0
 39 62  1  0
M  CHG  4  19  -1  28  -1  35  -1  36  -1
M  END
>  <UniqueID>  (66) 
60

>  <SMILES>  (66) 
COc1cc2c(cc1OC)C(=O)N(Cc1ccc([O-])c(Oc3ccccc3[N-]C(=O)c3ccc([O-])[n-]3)c1)CC2

>  <Energy>  (66) 
106.87858765742398

>  <Genealogy>  (66) 
COc1cc2c(cc1OC)C(=O)N(Cc1ccc([O-])c(Oc3ccccc3[N-]C(=O)c3ccc([O-])[n-]3)c1)CC2 (protonated)
COc1cc2c(cc1OC)C(=O)N(Cc1ccc([O-])c(Oc3ccccc3[N-]C(=O)c3ccc([O-])[n-]3)c1)CC2 (3D coordinates assigned)
COc1cc2c(cc1OC)C(=O)N(Cc1ccc([O-])c(Oc3ccccc3[N-]C(=O)c3ccc([O-])[n-]3)c1)CC2 (nonaromatic ring conformer: 106.87858765742398 kcal/mol)

>  <smiles>  (66) 
COc1cc2c(cc1OC)C(=O)N(Cc1ccc(O)c(Oc3ccccc3NC(=O)c3ccc(O)[nH]3)c1)CC2

>  <score_type>  (66) 
oracle

>  <origin>  (66) 
adg

>  <m_score__min__energy>  (66) 
-18.739999999999998

>  <m_primary>  (66) 
energy

$$$$
66:0
     RDKit          3D

 56 58  0  0  0  0  0  0  0  0999 V2000
   63.4460   32.9470   47.1320 C   0  0  0  0  0  0  0  0  0  0  0  0
   61.9560   32.9990   46.8020 C   0  0  0  0  0  0  0  0  0  0  0  0
   61.1180   32.6730   48.0270 C   0  0  0  0  0  0  0  0  0  0  0  0
   61.1360   33.5320   49.1600 C   0  0  0  0  0  0  0  0  0  0  0  0
   61.9850   34.6370   49.2550 O   0  0  0  0  0  0  0  0  0  0  0  0
   60.2730   33.2910   50.2330 C   0  0  0  0  0  0  0  0  0  0  0  0
   59.3690   32.2340   50.1940 C   0  0  0  0  0  0  0  0  0  0  0  0
   59.3410   31.3810   49.0940 C   0  0  0  0  0  0  0  0  0  0  0  0
   60.2460   31.5460   48.0370 C   0  0  0  0  0  0  0  0  0  0  0  0
   60.1730   30.6000   46.9040 C   0  0  0  0  0  0  0  0  0  0  0  0
   61.2500   30.1710   46.4130 O   0  0  0  0  0  0  0  0  0  0  0  0
   58.9300   30.1470   46.3320 N   0  0  0  0  0  0  0  0  0  0  0  0
   58.4920   30.0830   44.9280 C   0  0  2  0  0  0  0  0  0  0  0  0
   57.6110   31.2970   44.5600 C   0  0  0  0  0  0  0  0  0  0  0  0
   58.0790   32.5800   45.2030 C   0  0  0  0  0  0  0  0  0  0  0  0
   57.7290   32.8840   46.5310 C   0  0  0  0  0  0  0  0  0  0  0  0
   58.1580   34.0780   47.1170 C   0  0  0  0  0  0  0  0  0  0  0  0
   58.9430   34.9750   46.3860 C   0  0  0  0  0  0  0  0  0  0  0  0
   59.3020   34.6770   45.0680 C   0  0  0  0  0  0  0  0  0  0  0  0
   58.8730   33.4840   44.4780 C   0  0  0  0  0  0  0  0  0  0  0  0
   57.8270   28.7590   44.6050 C   0  0  0  0  0  0  0  0  0  0  0  0
   58.3380   27.9890   43.7520 O   0  0  0  0  0  0  0  0  0  0  0  0
   56.5600   28.3530   45.2440 C   0  0  0  0  0  0  0  0  0  0  0  0
   55.5150   29.0250   45.0390 O   0  0  0  0  0  0  0  0  0  0  0  0
   56.4580   27.1300   45.9920 N   0  0  0  0  0  0  0  0  0  0  0  0
   56.3300   25.9160   45.5330 C   0  0  0  0  0  0  0  0  0  0  0  0
   57.2840   25.3110   44.6900 C   0  0  0  0  0  0  0  0  0  0  0  0
   57.0770   24.0070   44.2390 C   0  0  0  0  0  0  0  0  0  0  0  0
   55.9420   23.2960   44.6290 C   0  0  0  0  0  0  0  0  0  0  0  0
   55.7670   21.9900   44.1520 O   0  0  0  0  0  0  0  0  0  0  0  0
   56.7810   21.2290   43.5040 C   0  0  0  0  0  0  0  0  0  0  0  0
   55.0230   23.9200   45.4910 C   0  0  0  0  0  0  0  0  0  0  0  0
   55.2430   25.1930   45.9160 N   0  0  0  0  0  0  0  0  0  0  0  0
   63.5798   32.9423   48.2238 H   0  0  0  0  0  0  0  0  0  0  0  0
   63.8845   32.0330   46.7050 H   0  0  0  0  0  0  0  0  0  0  0  0
   63.9471   33.8282   46.7050 H   0  0  0  0  0  0  0  0  0  0  0  0
   61.7003   34.0089   46.4490 H   0  0  0  0  0  0  0  0  0  0  0  0
   61.7425   32.2539   46.0215 H   0  0  0  0  0  0  0  0  0  0  0  0
   62.5370   34.8580   50.0710 H   0  0  0  0  0  0  0  0  0  0  0  0
   60.3090   33.9439   51.1175 H   0  0  0  0  0  0  0  0  0  0  0  0
   58.6760   32.0722   51.0328 H   0  0  0  0  0  0  0  0  0  0  0  0
   58.6004   30.5687   49.0542 H   0  0  0  0  0  0  0  0  0  0  0  0
   59.3894   30.1380   44.2942 H   0  0  0  0  0  0  0  0  0  0  0  0
   57.6289   31.4252   43.4676 H   0  0  0  0  0  0  0  0  0  0  0  0
   56.5962   31.0928   44.9321 H   0  0  0  0  0  0  0  0  0  0  0  0
   57.1151   32.1790   47.1107 H   0  0  0  0  0  0  0  0  0  0  0  0
   57.8778   34.3124   48.1546 H   0  0  0  0  0  0  0  0  0  0  0  0
   59.2782   35.9153   46.8480 H   0  0  0  0  0  0  0  0  0  0  0  0
   59.9224   35.3816   44.4947 H   0  0  0  0  0  0  0  0  0  0  0  0
   59.1586   33.2523   43.4413 H   0  0  0  0  0  0  0  0  0  0  0  0
   58.1864   25.8637   44.3895 H   0  0  0  0  0  0  0  0  0  0  0  0
   57.8138   23.5364   43.5714 H   0  0  0  0  0  0  0  0  0  0  0  0
   57.4196   20.7497   44.2606 H   0  0  0  0  0  0  0  0  0  0  0  0
   56.3143   20.4563   42.8754 H   0  0  0  0  0  0  0  0  0  0  0  0
   57.3925   21.8930   42.8754 H   0  0  0  0  0  0  0  0  0  0  0  0
   54.1250   23.3778   45.8220 H   0  0  0  0  0  0  0  0  0  0  0  0
  1  2  1  0
  2  3  1  0
  3  4  2  0
  4  5  1  0
  4  6  1  0
  6  7  2  0
  7  8  1  0
  8  9  2  0
  9 10  1  0
 10 11  2  0
 10 12  1  0
 12 13  1  0
 13 14  1  0
 14 15  1  0
 15 16  2  0
 16 17  1  0
 17 18  2  0
 18 19  1  0
 19 20  2  0
 13 21  1  0
 21 22  2  0
 21 23  1  0
 23 24  2  0
 23 25  1  0
 25 26  2  3
 26 27  1  0
 27 28  2  0
 28 29  1  0
 29 30  1  0
 30 31  1  0
 29 32  2  0
 32 33  1  0
  9  3  1  0
 20 15  1  0
 33 26  1  0
  1 34  1  0
  1 35  1  0
  1 36  1  0
  2 37  1  0
  2 38  1  0
  5 39  1  0
  6 40  1  0
  7 41  1  0
  8 42  1  0
 13 43  1  6
 14 44  1  0
 14 45  1  0
 16 46  1  0
 17 47  1  0
 18 48  1  0
 19 49  1  0
 20 50  1  0
 27 51  1  0
 28 52  1  0
 31 53  1  0
 31 54  1  0
 31 55  1  0
 32 56  1  0
M  CHG  2  12  -1  33  -1
M  END
>  <UniqueID>  (67) 
61

>  <SMILES>  (67) 
CCc1c(O)cccc1C(=O)[N-][C@H](Cc1ccccc1)C(=O)C(=O)N=c1ccc(OC)c[n-]1

>  <Energy>  (67) 
74.54953655765165

>  <Genealogy>  (67) 
CCc1c(O)cccc1C(=O)[N-]C(Cc1ccccc1)C(=O)C(=O)N=c1ccc(OC)c[n-]1 (protonated)
CCc1c(O)cccc1C(=O)[N-][C@H](Cc1ccccc1)C(=O)C(=O)N=c1ccc(OC)c[n-]1 (chirality)
CCc1c(O)cccc1C(=O)[N-][C@H](Cc1ccccc1)C(=O)C(=O)N=c1ccc(OC)c[n-]1 (3D coordinates assigned)
CCc1c(O)cccc1C(=O)[N-][C@H](Cc1ccccc1)C(=O)C(=O)N=c1ccc(OC)c[n-]1 (optimized conformer: 74.54953655765165 kcal/mol)

>  <smiles>  (67) 
CCc1c(O)cccc1C(=O)NC(Cc1ccccc1)C(=O)C(=O)N=c1ccc(OC)c[nH]1

>  <score_type>  (67) 
oracle

>  <origin>  (67) 
adg

>  <m_score__min__energy>  (67) 
-12.85

>  <m_primary>  (67) 
energy

$$$$
67:0
     RDKit          3D

 49 52  0  0  0  0  0  0  0  0999 V2000
   59.9950   28.8550   44.9380 C   0  0  0  0  0  0  0  0  0  0  0  0
   58.6620   28.9940   44.9700 C   0  0  0  0  0  0  0  0  0  0  0  0
   57.6740   27.9950   44.9060 C   0  0  0  0  0  0  0  0  0  0  0  0
   57.7830   26.6540   44.9000 C   0  0  0  0  0  0  0  0  0  0  0  0
   57.1880   25.7250   45.8710 C   0  0  0  0  0  0  0  0  0  0  0  0
   57.8190   24.6300   46.3300 N   0  0  0  0  0  0  0  0  0  0  0  0
   56.8710   24.0130   47.0700 C   0  0  0  0  0  0  0  0  0  0  0  0
   57.0870   22.9380   47.6850 O   0  0  0  0  0  0  0  0  0  0  0  0
   55.6690   24.6290   47.0850 N   0  0  0  0  0  0  0  0  0  0  0  0
   55.8820   25.7050   46.3090 C   0  0  0  0  0  0  0  0  0  0  0  0
   54.9040   26.6430   45.9920 O   0  0  0  0  0  0  0  0  0  0  0  0
   56.4620   28.5840   44.8160 N   0  0  0  0  0  0  0  0  0  0  0  0
   56.7210   29.9030   44.8530 C   0  0  0  0  0  0  0  0  0  0  0  0
   55.8160   30.7760   44.7750 O   0  0  0  0  0  0  0  0  0  0  0  0
   58.0330   30.1950   44.9610 N   0  0  0  0  0  0  0  0  0  0  0  0
   58.6260   31.5380   44.9310 C   0  0  0  0  0  0  0  0  0  0  0  0
   58.0120   32.4260   45.9700 C   0  0  0  0  0  0  0  0  0  0  0  0
   57.7610   31.9770   47.1230 O   0  0  0  0  0  0  0  0  0  0  0  0
   57.7620   33.8000   45.6590 N   0  0  0  0  0  0  0  0  0  0  0  0
   58.7780   34.8460   45.7300 C   0  0  0  0  0  0  0  0  0  0  0  0
   59.9340   34.4040   46.5890 C   0  0  0  0  0  0  0  0  0  0  0  0
   59.8770   34.5600   47.9840 C   0  0  0  0  0  0  0  0  0  0  0  0
   60.9510   34.1530   48.7820 C   0  0  0  0  0  0  0  0  0  0  0  0
   62.0990   33.5980   48.1960 C   0  0  0  0  0  0  0  0  0  0  0  0
   63.2330   33.1190   49.0600 C   0  0  0  0  0  0  0  0  0  0  0  0
   62.8900   31.8330   49.6600 N   0  0  0  0  0  0  0  0  0  0  0  0
   63.4480   31.2770   50.7490 C   0  0  0  0  0  0  0  0  0  0  0  0
   62.7640   30.1140   51.0250 C   0  0  0  0  0  0  0  0  0  0  0  0
   61.7710   29.9450   50.1220 N   0  0  0  0  0  0  0  0  0  0  0  0
   61.8750   31.0180   49.3090 C   0  0  0  0  0  0  0  0  0  0  0  0
   62.1530   33.4360   46.8030 C   0  0  0  0  0  0  0  0  0  0  0  0
   61.0800   33.8420   46.0050 C   0  0  0  0  0  0  0  0  0  0  0  0
   60.6421   29.7424   44.9985 H   0  0  0  0  0  0  0  0  0  0  0  0
   60.4416   27.8535   44.8513 H   0  0  0  0  0  0  0  0  0  0  0  0
   58.3763   26.2088   44.0877 H   0  0  0  0  0  0  0  0  0  0  0  0
   55.1440   27.4890   45.4870 H   0  0  0  0  0  0  0  0  0  0  0  0
   59.7064   31.4573   45.1213 H   0  0  0  0  0  0  0  0  0  0  0  0
   58.4379   31.9793   43.9411 H   0  0  0  0  0  0  0  0  0  0  0  0
   59.1438   35.0643   44.7158 H   0  0  0  0  0  0  0  0  0  0  0  0
   58.3296   35.7467   46.1745 H   0  0  0  0  0  0  0  0  0  0  0  0
   58.9848   35.0037   48.4501 H   0  0  0  0  0  0  0  0  0  0  0  0
   60.8956   34.2685   49.8745 H   0  0  0  0  0  0  0  0  0  0  0  0
   64.1377   33.0050   48.4447 H   0  0  0  0  0  0  0  0  0  0  0  0
   63.4167   33.8539   49.8576 H   0  0  0  0  0  0  0  0  0  0  0  0
   64.2991   31.6791   51.3182 H   0  0  0  0  0  0  0  0  0  0  0  0
   62.9906   29.4270   51.8537 H   0  0  0  0  0  0  0  0  0  0  0  0
   61.2065   31.2061   48.4559 H   0  0  0  0  0  0  0  0  0  0  0  0
   63.0432   32.9878   46.3376 H   0  0  0  0  0  0  0  0  0  0  0  0
   61.1338   33.7205   44.9131 H   0  0  0  0  0  0  0  0  0  0  0  0
  1  2  2  0
  2  3  1  0
  3  4  2  3
  4  5  1  0
  5  6  1  0
  6  7  1  0
  7  8  2  0
  7  9  1  0
  9 10  1  0
 10 11  1  0
  3 12  1  0
 12 13  1  0
 13 14  2  0
 13 15  1  0
 15 16  1  0
 16 17  1  0
 17 18  2  0
 17 19  1  0
 19 20  1  0
 20 21  1  0
 21 22  2  0
 22 23  1  0
 23 24  2  0
 24 25  1  0
 25 26  1  0
 26 27  1  0
 27 28  2  0
 28 29  1  0
 29 30  2  0
 24 31  1  0
 31 32  2  0
 15  2  1  0
 32 21  1  0
 10  5  2  0
 30 26  1  0
  1 33  1  0
  1 34  1  0
  4 35  1  0
 11 36  1  0
 16 37  1  0
 16 38  1  0
 20 39  1  0
 20 40  1  0
 22 41  1  0
 23 42  1  0
 25 43  1  0
 25 44  1  0
 27 45  1  0
 28 46  1  0
 30 47  1  0
 31 48  1  0
 32 49  1  0
M  CHG  4   6  -1   9  -1  12  -1  19  -1
M  END
>  <UniqueID>  (68) 
62

>  <SMILES>  (68) 
C=c1c(=Cc2[n-]c(=O)[n-]c2O)[n-]c(=O)n1CC(=O)[N-]Cc1ccc(Cn2ccnc2)cc1

>  <Energy>  (68) 
150.99860742209628

>  <Genealogy>  (68) 
C=c1c(=Cc2[n-]c(=O)[n-]c2O)[n-]c(=O)n1CC(=O)[N-]Cc1ccc(Cn2ccnc2)cc1 (protonated)
C=c1c(=Cc2[n-]c(=O)[n-]c2O)[n-]c(=O)n1CC(=O)[N-]Cc1ccc(Cn2ccnc2)cc1 (3D coordinates assigned)
C=c1c(=Cc2[n-]c(=O)[n-]c2O)[n-]c(=O)n1CC(=O)[N-]Cc1ccc(Cn2ccnc2)cc1 (optimized conformer: 150.99860742209628 kcal/mol)

>  <smiles>  (68) 
C=c1c(=Cc2[nH]c(=O)[nH]c2O)[nH]c(=O)n1CC(=O)NCc1ccc(Cn2ccnc2)cc1

>  <score_type>  (68) 
oracle

>  <origin>  (68) 
adg

>  <m_score__min__energy>  (68) 
-15.77

>  <m_primary>  (68) 
energy

$$$$
68:0
     RDKit          3D

 33 35  0  0  0  0  0  0  0  0999 V2000
   63.8370   33.4450   48.5770 C   0  0  0  0  0  0  0  0  0  0  0  0
   63.1650   32.3250   49.1430 O   0  0  0  0  0  0  0  0  0  0  0  0
   62.1110   31.6370   48.5230 C   0  0  0  0  0  0  0  0  0  0  0  0
   61.5390   30.4750   49.0730 C   0  0  0  0  0  0  0  0  0  0  0  0
   60.4900   29.8250   48.4160 C   0  0  0  0  0  0  0  0  0  0  0  0
   59.9920   30.3240   47.1990 C   0  0  0  0  0  0  0  0  0  0  0  0
   58.8750   29.6330   46.5010 C   0  0  0  0  0  0  0  0  0  0  0  0
   58.1390   30.2980   45.5050 C   0  0  0  0  0  0  0  0  0  0  0  0
   57.0830   29.6520   44.8590 C   0  0  0  0  0  0  0  0  0  0  0  0
   56.7550   28.3370   45.1910 C   0  0  0  0  0  0  0  0  0  0  0  0
   57.4850   27.6460   46.1730 C   0  0  0  0  0  0  0  0  0  0  0  0
   57.1150   26.2510   46.5120 C   0  0  0  0  0  0  0  0  0  0  0  0
   57.9800   25.3570   47.0270 N   0  0  0  0  0  0  0  0  0  0  0  0
   57.2340   24.2450   47.1910 C   0  0  0  0  0  0  0  0  0  0  0  0
   57.7040   23.1740   47.6540 O   0  0  0  0  0  0  0  0  0  0  0  0
   55.9430   24.3720   46.8210 N   0  0  0  0  0  0  0  0  0  0  0  0
   55.8780   25.6460   46.3990 C   0  0  0  0  0  0  0  0  0  0  0  0
   54.7050   26.2450   45.9510 O   0  0  0  0  0  0  0  0  0  0  0  0
   58.5380   28.3080   46.8310 C   0  0  0  0  0  0  0  0  0  0  0  0
   60.5670   31.4850   46.6540 C   0  0  0  0  0  0  0  0  0  0  0  0
   61.6150   32.1320   47.3130 C   0  0  0  0  0  0  0  0  0  0  0  0
   64.2223   34.0871   49.3828 H   0  0  0  0  0  0  0  0  0  0  0  0
   64.6742   33.0946   47.9554 H   0  0  0  0  0  0  0  0  0  0  0  0
   63.1339   34.0188   47.9554 H   0  0  0  0  0  0  0  0  0  0  0  0
   61.9192   30.0759   50.0249 H   0  0  0  0  0  0  0  0  0  0  0  0
   60.0509   28.9166   48.8541 H   0  0  0  0  0  0  0  0  0  0  0  0
   58.3962   31.3324   45.2332 H   0  0  0  0  0  0  0  0  0  0  0  0
   56.5076   30.1817   44.0855 H   0  0  0  0  0  0  0  0  0  0  0  0
   55.9186   27.8375   44.6802 H   0  0  0  0  0  0  0  0  0  0  0  0
   54.3710   27.1050   46.3700 H   0  0  0  0  0  0  0  0  0  0  0  0
   59.1049   27.7824   47.6136 H   0  0  0  0  0  0  0  0  0  0  0  0
   60.1892   31.8868   45.7022 H   0  0  0  0  0  0  0  0  0  0  0  0
   62.0547   33.0404   46.8755 H   0  0  0  0  0  0  0  0  0  0  0  0
  1  2  1  0
  2  3  1  0
  3  4  2  0
  4  5  1  0
  5  6  2  0
  6  7  1  0
  7  8  2  0
  8  9  1  0
  9 10  2  0
 10 11  1  0
 11 12  1  0
 12 13  1  0
 13 14  1  0
 14 15  2  0
 14 16  1  0
 16 17  1  0
 17 18  1  0
 11 19  2  0
  6 20  1  0
 20 21  2  0
 21  3  1  0
 19  7  1  0
 17 12  2  0
  1 22  1  0
  1 23  1  0
  1 24  1  0
  4 25  1  0
  5 26  1  0
  8 27  1  0
  9 28  1  0
 10 29  1  0
 18 30  1  0
 19 31  1  0
 20 32  1  0
 21 33  1  0
M  CHG  2  13  -1  16  -1
M  END
>  <UniqueID>  (69) 
63

>  <SMILES>  (69) 
COc1ccc(-c2cccc(-c3[n-]c(=O)[n-]c3O)c2)cc1

>  <Energy>  (69) 
72.01510933388471

>  <Genealogy>  (69) 
COc1ccc(-c2cccc(-c3[n-]c(=O)[n-]c3O)c2)cc1 (protonated)
COc1ccc(-c2cccc(-c3[n-]c(=O)[n-]c3O)c2)cc1 (3D coordinates assigned)
COc1ccc(-c2cccc(-c3[n-]c(=O)[n-]c3O)c2)cc1 (optimized conformer: 72.01510933388471 kcal/mol)

>  <smiles>  (69) 
COc1ccc(-c2cccc(-c3[nH]c(=O)[nH]c3O)c2)cc1

>  <score_type>  (69) 
oracle

>  <origin>  (69) 
adg

>  <m_score__min__energy>  (69) 
-11.52

>  <m_primary>  (69) 
energy

$$$$
69:0
     RDKit          3D

 47 48  0  0  0  0  0  0  0  0999 V2000
   59.6590   35.6390   46.3640 C   0  0  0  0  0  0  0  0  0  0  0  0
   58.9040   35.0070   45.3370 O   0  0  0  0  0  0  0  0  0  0  0  0
   58.6840   33.6240   45.2520 C   0  0  0  0  0  0  0  0  0  0  0  0
   57.8700   33.0490   44.2580 C   0  0  0  0  0  0  0  0  0  0  0  0
   57.6820   31.6650   44.2150 C   0  0  0  0  0  0  0  0  0  0  0  0
   58.3030   30.8280   45.1610 C   0  0  0  0  0  0  0  0  0  0  0  0
   58.1050   29.3240   45.1270 C   0  0  2  0  0  0  0  0  0  0  0  0
   59.3280   28.6260   44.5130 C   0  0  0  0  0  0  0  0  0  0  0  0
   56.8070   28.9620   44.3770 C   0  0  0  0  0  0  0  0  0  0  0  0
   55.8860   28.2320   45.2430 N   0  0  0  0  0  0  0  0  0  0  0  0
   56.2080   26.9890   45.8730 C   0  0  0  0  0  0  0  0  0  0  0  0
   57.4120   26.6500   46.0360 O   0  0  0  0  0  0  0  0  0  0  0  0
   55.1490   26.1370   46.3140 N   0  0  0  0  0  0  0  0  0  0  0  0
   54.6670   24.9860   45.5590 C   0  0  0  0  0  0  0  0  0  0  0  0
   55.5980   23.8020   45.7410 C   0  0  0  0  0  0  0  0  0  0  0  0
   56.0290   23.0280   44.6340 C   0  0  0  0  0  0  0  0  0  0  0  0
   55.5610   23.3230   43.2320 C   0  0  0  0  0  0  0  0  0  0  0  0
   56.9130   21.9600   44.8450 C   0  0  0  0  0  0  0  0  0  0  0  0
   57.3580   21.6660   46.1350 C   0  0  0  0  0  0  0  0  0  0  0  0
   58.3100   20.5360   46.3700 C   0  0  0  0  0  0  0  0  0  0  0  0
   56.9370   22.4210   47.1820 N   0  0  0  0  0  0  0  0  0  0  0  0
   56.0820   23.4650   47.0250 C   0  0  0  0  0  0  0  0  0  0  0  0
   55.7310   24.1230   48.0410 O   0  0  0  0  0  0  0  0  0  0  0  0
   59.1140   31.4090   46.1510 C   0  0  0  0  0  0  0  0  0  0  0  0
   59.3010   32.7930   46.1920 C   0  0  0  0  0  0  0  0  0  0  0  0
   59.2795   35.3214   47.3464 H   0  0  0  0  0  0  0  0  0  0  0  0
   60.7171   35.3534   46.2698 H   0  0  0  0  0  0  0  0  0  0  0  0
   59.5641   36.7308   46.2698 H   0  0  0  0  0  0  0  0  0  0  0  0
   57.3798   33.6918   43.5120 H   0  0  0  0  0  0  0  0  0  0  0  0
   57.0430   31.2257   43.4348 H   0  0  0  0  0  0  0  0  0  0  0  0
   58.0033   28.9623   46.1609 H   0  0  0  0  0  0  0  0  0  0  0  0
   59.9799   28.2539   45.3171 H   0  0  0  0  0  0  0  0  0  0  0  0
   58.9947   27.7821   43.8911 H   0  0  0  0  0  0  0  0  0  0  0  0
   59.8851   29.3422   43.8911 H   0  0  0  0  0  0  0  0  0  0  0  0
   56.3205   29.8869   44.0337 H   0  0  0  0  0  0  0  0  0  0  0  0
   57.0650   28.3205   43.5215 H   0  0  0  0  0  0  0  0  0  0  0  0
   53.6624   24.7144   45.9154 H   0  0  0  0  0  0  0  0  0  0  0  0
   54.6327   25.2502   44.4918 H   0  0  0  0  0  0  0  0  0  0  0  0
   54.6310   23.9092   43.2716 H   0  0  0  0  0  0  0  0  0  0  0  0
   56.3341   23.8973   42.7006 H   0  0  0  0  0  0  0  0  0  0  0  0
   55.3763   22.3778   42.7006 H   0  0  0  0  0  0  0  0  0  0  0  0
   57.2559   21.3537   43.9936 H   0  0  0  0  0  0  0  0  0  0  0  0
   58.4384   20.3836   47.4518 H   0  0  0  0  0  0  0  0  0  0  0  0
   57.9089   19.6181   45.9155 H   0  0  0  0  0  0  0  0  0  0  0  0
   59.2827   20.7754   45.9155 H   0  0  0  0  0  0  0  0  0  0  0  0
   59.6051   30.7694   46.8991 H   0  0  0  0  0  0  0  0  0  0  0  0
   59.9400   33.2332   46.9716 H   0  0  0  0  0  0  0  0  0  0  0  0
  1  2  1  0
  2  3  1  0
  3  4  2  0
  4  5  1  0
  5  6  2  0
  6  7  1  0
  7  8  1  0
  7  9  1  0
  9 10  1  0
 10 11  1  0
 11 12  2  0
 11 13  1  0
 13 14  1  0
 14 15  1  0
 15 16  2  0
 16 17  1  0
 16 18  1  0
 18 19  2  0
 19 20  1  0
 19 21  1  0
 21 22  1  0
 22 23  2  0
  6 24  1  0
 24 25  2  0
 25  3  1  0
 22 15  1  0
  1 26  1  0
  1 27  1  0
  1 28  1  0
  4 29  1  0
  5 30  1  0
  7 31  1  1
  8 32  1  0
  8 33  1  0
  8 34  1  0
  9 35  1  0
  9 36  1  0
 14 37  1  0
 14 38  1  0
 17 39  1  0
 17 40  1  0
 17 41  1  0
 18 42  1  0
 20 43  1  0
 20 44  1  0
 20 45  1  0
 24 46  1  0
 25 47  1  0
M  CHG  3  10  -1  13  -1  21  -1
M  END
>  <UniqueID>  (70) 
64

>  <SMILES>  (70) 
COc1ccc([C@H](C)C[N-]C(=O)[N-]Cc2c(C)cc(C)[n-]c2=O)cc1

>  <Energy>  (70) 
40.97194757566023

>  <Genealogy>  (70) 
COc1ccc(C(C)C[N-]C(=O)[N-]Cc2c(C)cc(C)[n-]c2=O)cc1 (protonated)
COc1ccc([C@H](C)C[N-]C(=O)[N-]Cc2c(C)cc(C)[n-]c2=O)cc1 (chirality)
COc1ccc([C@H](C)C[N-]C(=O)[N-]Cc2c(C)cc(C)[n-]c2=O)cc1 (3D coordinates assigned)
COc1ccc([C@H](C)C[N-]C(=O)[N-]Cc2c(C)cc(C)[n-]c2=O)cc1 (optimized conformer: 40.97194757566023 kcal/mol)

>  <smiles>  (70) 
COc1ccc(C(C)CNC(=O)NCc2c(C)cc(C)[nH]c2=O)cc1

>  <score_type>  (70) 
oracle

>  <origin>  (70) 
adg

>  <m_score__min__energy>  (70) 
-13.16

>  <m_primary>  (70) 
energy

$$$$
70:0
     RDKit          3D

 68 72  0  0  0  0  0  0  0  0999 V2000
   57.4280   30.1340   51.0280 O   0  0  0  0  0  0  0  0  0  0  0  0
   58.4970   30.7940   50.9500 C   0  0  0  0  0  0  0  0  0  0  0  0
   59.4690   30.3810   49.9710 N   0  0  0  0  0  0  0  0  0  0  0  0
   59.5240   29.2670   49.2990 C   0  0  0  0  0  0  0  0  0  0  0  0
   60.5880   28.4200   49.4040 N   0  0  0  0  0  0  0  0  0  0  0  0
   60.6670   27.2920   48.6470 C   0  0  0  0  0  0  0  0  0  0  0  0
   59.6450   26.9860   47.7470 C   0  0  0  0  0  0  0  0  0  0  0  0
   58.5560   27.8530   47.6570 C   0  0  0  0  0  0  0  0  0  0  0  0
   58.5200   28.9720   48.4270 N   0  0  0  0  0  0  0  0  0  0  0  0
   58.7410   31.8910   51.9280 C   0  0  0  0  0  0  0  0  0  0  0  0
   58.2380   31.7630   53.2360 C   0  0  0  0  0  0  0  0  0  0  0  0
   58.3310   32.8210   54.1450 C   0  0  0  0  0  0  0  0  0  0  0  0
   58.8950   34.0310   53.7530 C   0  0  0  0  0  0  0  0  0  0  0  0
   59.3840   34.1840   52.4520 C   0  0  0  0  0  0  0  0  0  0  0  0
   59.3390   33.1200   51.5420 C   0  0  0  0  0  0  0  0  0  0  0  0
   60.0190   33.3890   49.8860 S   0  0  0  0  0  0  0  0  0  0  0  0
   61.6940   32.9060   50.3500 C   0  0  0  0  0  0  0  0  0  0  0  0
   62.2460   33.4370   51.5240 C   0  0  0  0  0  0  0  0  0  0  0  0
   63.5080   33.0260   51.9590 C   0  0  0  0  0  0  0  0  0  0  0  0
   64.2380   32.0950   51.2180 C   0  0  0  0  0  0  0  0  0  0  0  0
   63.7090   31.5790   50.0330 C   0  0  0  0  0  0  0  0  0  0  0  0
   62.4490   31.9950   49.5800 C   0  0  0  0  0  0  0  0  0  0  0  0
   61.9040   31.3740   48.3680 C   0  0  0  0  0  0  0  0  0  0  0  0
   62.0150   31.9390   47.1670 C   0  0  0  0  0  0  0  0  0  0  0  0
   61.4980   33.2910   46.8670 C   0  0  0  0  0  0  0  0  0  0  0  0
   62.3520   34.2150   46.7320 O   0  0  0  0  0  0  0  0  0  0  0  0
   60.0850   33.5730   46.6550 N   0  0  0  0  0  0  0  0  0  0  0  0
   59.6600   34.9070   46.1880 C   0  0  0  0  0  0  0  0  0  0  0  0
   58.9190   34.7710   44.8490 C   0  0  0  0  0  0  0  0  0  0  0  0
   57.7870   33.6970   44.8770 C   0  0  0  0  0  0  0  0  0  0  0  0
   57.9540   32.7000   43.7010 C   0  0  0  0  0  0  0  0  0  0  0  0
   57.6310   31.2760   44.0910 C   0  0  0  0  0  0  0  0  0  0  0  0
   58.6600   30.3740   44.4070 C   0  0  0  0  0  0  0  0  0  0  0  0
   58.3580   29.0540   44.7570 C   0  0  0  0  0  0  0  0  0  0  0  0
   57.0260   28.6280   44.8010 C   0  0  0  0  0  0  0  0  0  0  0  0
   55.9970   29.5220   44.4940 C   0  0  0  0  0  0  0  0  0  0  0  0
   56.2960   30.8400   44.1380 C   0  0  0  0  0  0  0  0  0  0  0  0
   57.6890   32.9800   46.2480 C   0  0  0  0  0  0  0  0  0  0  0  0
   59.0620   32.5130   46.7570 C   0  0  0  0  0  0  0  0  0  0  0  0
   61.5345   26.6227   48.7442 H   0  0  0  0  0  0  0  0  0  0  0  0
   59.6971   26.0817   47.1229 H   0  0  0  0  0  0  0  0  0  0  0  0
   57.7297   27.6317   46.9655 H   0  0  0  0  0  0  0  0  0  0  0  0
   57.7660   30.8193   53.5469 H   0  0  0  0  0  0  0  0  0  0  0  0
   57.9576   32.6966   55.1722 H   0  0  0  0  0  0  0  0  0  0  0  0
   58.9561   34.8665   54.4659 H   0  0  0  0  0  0  0  0  0  0  0  0
   59.8083   35.1497   52.1399 H   0  0  0  0  0  0  0  0  0  0  0  0
   61.6823   34.1812   52.1057 H   0  0  0  0  0  0  0  0  0  0  0  0
   63.9281   33.4373   52.8887 H   0  0  0  0  0  0  0  0  0  0  0  0
   65.2287   31.7682   51.5670 H   0  0  0  0  0  0  0  0  0  0  0  0
   64.2837   30.8426   49.4522 H   0  0  0  0  0  0  0  0  0  0  0  0
   61.3854   30.4077   48.4540 H   0  0  0  0  0  0  0  0  0  0  0  0
   62.5127   31.3755   46.3640 H   0  0  0  0  0  0  0  0  0  0  0  0
   58.9895   35.3596   46.9334 H   0  0  0  0  0  0  0  0  0  0  0  0
   60.5448   35.5464   46.0531 H   0  0  0  0  0  0  0  0  0  0  0  0
   58.4714   35.7437   44.5971 H   0  0  0  0  0  0  0  0  0  0  0  0
   59.6565   34.4480   44.0995 H   0  0  0  0  0  0  0  0  0  0  0  0
   56.8272   34.2172   44.7422 H   0  0  0  0  0  0  0  0  0  0  0  0
   57.2808   33.0025   42.8853 H   0  0  0  0  0  0  0  0  0  0  0  0
   59.0089   32.7275   43.3904 H   0  0  0  0  0  0  0  0  0  0  0  0
   59.7080   30.7071   44.3791 H   0  0  0  0  0  0  0  0  0  0  0  0
   59.1683   28.3502   44.9979 H   0  0  0  0  0  0  0  0  0  0  0  0
   56.7890   27.5899   45.0771 H   0  0  0  0  0  0  0  0  0  0  0  0
   54.9497   29.1878   44.5326 H   0  0  0  0  0  0  0  0  0  0  0  0
   55.4827   31.5391   43.8935 H   0  0  0  0  0  0  0  0  0  0  0  0
   57.2569   33.6761   46.9820 H   0  0  0  0  0  0  0  0  0  0  0  0
   57.0552   32.0901   46.1198 H   0  0  0  0  0  0  0  0  0  0  0  0
   58.9659   32.2137   47.8111 H   0  0  0  0  0  0  0  0  0  0  0  0
   59.3858   31.6698   46.1292 H   0  0  0  0  0  0  0  0  0  0  0  0
  1  2  2  0
  2  3  1  0
  3  4  2  3
  4  5  1  0
  5  6  2  0
  6  7  1  0
  7  8  2  0
  8  9  1  0
  2 10  1  0
 10 11  2  0
 11 12  1  0
 12 13  2  0
 13 14  1  0
 14 15  2  0
 15 16  1  0
 16 17  1  0
 17 18  2  0
 18 19  1  0
 19 20  2  0
 20 21  1  0
 21 22  2  0
 22 23  1  0
 23 24  2  3
 24 25  1  0
 25 26  2  0
 25 27  1  0
 27 28  1  0
 28 29  1  0
 29 30  1  0
 30 31  1  0
 31 32  1  0
 32 33  2  0
 33 34  1  0
 34 35  2  0
 35 36  1  0
 36 37  2  0
 30 38  1  0
 38 39  1  0
  9  4  1  0
 15 10  1  0
 22 17  1  0
 39 27  1  0
 37 32  1  0
  6 40  1  0
  7 41  1  0
  8 42  1  0
 11 43  1  0
 12 44  1  0
 13 45  1  0
 14 46  1  0
 18 47  1  0
 19 48  1  0
 20 49  1  0
 21 50  1  0
 23 51  1  0
 24 52  1  0
 28 53  1  0
 28 54  1  0
 29 55  1  0
 29 56  1  0
 30 57  1  0
 31 58  1  0
 31 59  1  0
 33 60  1  0
 34 61  1  0
 35 62  1  0
 36 63  1  0
 37 64  1  0
 38 65  1  0
 38 66  1  0
 39 67  1  0
 39 68  1  0
M  CHG  1   9  -1
M  END
>  <UniqueID>  (71) 
65

>  <SMILES>  (71) 
O=C(N=c1nccc[n-]1)c1ccccc1Sc1ccccc1C=CC(=O)N1CCC(Cc2ccccc2)CC1

>  <Energy>  (71) 
92.654660657351

>  <Genealogy>  (71) 
O=C(N=c1nccc[n-]1)c1ccccc1Sc1ccccc1C=CC(=O)N1CCC(Cc2ccccc2)CC1 (protonated)
O=C(N=c1nccc[n-]1)c1ccccc1Sc1ccccc1C=CC(=O)N1CCC(Cc2ccccc2)CC1 (3D coordinates assigned)
O=C(N=c1nccc[n-]1)c1ccccc1Sc1ccccc1C=CC(=O)N1CCC(Cc2ccccc2)CC1 (nonaromatic ring conformer: 92.654660657351 kcal/mol)

>  <smiles>  (71) 
O=C(N=c1nccc[nH]1)c1ccccc1Sc1ccccc1C=CC(=O)N1CCC(Cc2ccccc2)CC1

>  <score_type>  (71) 
oracle

>  <origin>  (71) 
adg

>  <m_score__min__energy>  (71) 
-12.130000000000001

>  <m_primary>  (71) 
energy

$$$$
71:0
     RDKit          3D

 47 50  0  0  0  0  0  0  0  0999 V2000
   57.8020   31.9620   43.0140 O   0  0  0  0  0  0  0  0  0  0  0  0
   57.5130   32.0870   44.2360 C   0  0  0  0  0  0  0  0  0  0  0  0
   58.0490   33.2410   44.9820 C   0  0  0  0  0  0  0  0  0  0  0  0
   57.6990   33.5900   46.2290 C   0  0  0  0  0  0  0  0  0  0  0  0
   58.5130   33.3590   47.4390 C   0  0  0  0  0  0  0  0  0  0  0  0
   59.6430   34.1480   47.7110 C   0  0  0  0  0  0  0  0  0  0  0  0
   60.3840   33.9330   48.8730 C   0  0  0  0  0  0  0  0  0  0  0  0
   59.9890   32.9530   49.7860 C   0  0  0  0  0  0  0  0  0  0  0  0
   58.8370   32.1910   49.5560 C   0  0  0  0  0  0  0  0  0  0  0  0
   58.4640   31.2170   50.5420 N   0  0  0  0  0  0  0  0  0  0  0  0
   57.7600   31.5100   52.1030 S   0  0  0  0  0  0  0  0  0  0  0  0
   57.4870   32.9820   52.2110 O   0  0  0  0  0  0  0  0  0  0  0  0
   58.7080   31.1350   53.2060 O   0  0  0  0  0  0  0  0  0  0  0  0
   56.2430   30.6200   52.2550 C   0  0  0  0  0  0  0  0  0  0  0  0
   56.2400   29.2960   52.7220 C   0  0  0  0  0  0  0  0  0  0  0  0
   55.0330   28.6100   52.8770 C   0  0  0  0  0  0  0  0  0  0  0  0
   53.8210   29.2400   52.5840 C   0  0  0  0  0  0  0  0  0  0  0  0
   53.8100   30.5710   52.1350 C   0  0  0  0  0  0  0  0  0  0  0  0
   52.5410   31.2580   51.8260 C   0  0  0  0  0  0  0  0  0  0  0  0
   51.9540   32.1400   52.6560 N   0  0  0  0  0  0  0  0  0  0  0  0
   50.8390   32.5090   51.9920 C   0  0  0  0  0  0  0  0  0  0  0  0
   50.0190   33.3440   52.4520 O   0  0  0  0  0  0  0  0  0  0  0  0
   50.6710   31.9100   50.7950 N   0  0  0  0  0  0  0  0  0  0  0  0
   51.7480   31.1120   50.7030 C   0  0  0  0  0  0  0  0  0  0  0  0
   51.9570   30.2410   49.6350 O   0  0  0  0  0  0  0  0  0  0  0  0
   55.0250   31.2430   51.9460 C   0  0  0  0  0  0  0  0  0  0  0  0
   58.1030   32.3960   48.3730 C   0  0  0  0  0  0  0  0  0  0  0  0
   56.6260   31.1560   44.8610 N   0  0  0  0  0  0  0  0  0  0  0  0
   56.2830   29.8710   44.2640 C   0  0  0  0  0  0  0  0  0  0  0  0
   57.4900   29.0140   43.9200 C   0  0  0  0  0  0  0  0  0  0  0  0
   56.6560   28.6990   45.1540 C   0  0  0  0  0  0  0  0  0  0  0  0
   58.7974   33.8670   44.4739 H   0  0  0  0  0  0  0  0  0  0  0  0
   56.7273   34.0884   46.3608 H   0  0  0  0  0  0  0  0  0  0  0  0
   59.9441   34.9370   47.0061 H   0  0  0  0  0  0  0  0  0  0  0  0
   61.2818   34.5370   49.0707 H   0  0  0  0  0  0  0  0  0  0  0  0
   60.5872   32.7784   50.6925 H   0  0  0  0  0  0  0  0  0  0  0  0
   57.1898   28.7979   52.9663 H   0  0  0  0  0  0  0  0  0  0  0  0
   55.0369   27.5687   53.2315 H   0  0  0  0  0  0  0  0  0  0  0  0
   52.8742   28.6932   52.7050 H   0  0  0  0  0  0  0  0  0  0  0  0
   52.2580   29.2870   49.7740 H   0  0  0  0  0  0  0  0  0  0  0  0
   55.0235   32.2697   51.5512 H   0  0  0  0  0  0  0  0  0  0  0  0
   57.2012   31.7967   48.1793 H   0  0  0  0  0  0  0  0  0  0  0  0
   55.3822   30.1920   43.7205 H   0  0  0  0  0  0  0  0  0  0  0  0
   57.4585   28.3434   43.0486 H   0  0  0  0  0  0  0  0  0  0  0  0
   58.5555   29.2104   43.7298 H   0  0  0  0  0  0  0  0  0  0  0  0
   56.0219   27.8004   45.1747 H   0  0  0  0  0  0  0  0  0  0  0  0
   56.8693   28.5730   46.2257 H   0  0  0  0  0  0  0  0  0  0  0  0
  1  2  2  0
  2  3  1  0
  3  4  2  3
  4  5  1  0
  5  6  2  0
  6  7  1  0
  7  8  2  0
  8  9  1  0
  9 10  1  0
 10 11  1  0
 11 12  2  0
 11 13  2  0
 11 14  1  0
 14 15  2  0
 15 16  1  0
 16 17  2  0
 17 18  1  0
 18 19  1  0
 19 20  1  0
 20 21  1  0
 21 22  2  0
 21 23  1  0
 23 24  1  0
 24 25  1  0
 18 26  2  0
  9 27  2  0
  2 28  1  0
 28 29  1  0
 29 30  1  0
 30 31  1  0
 27  5  1  0
 31 29  1  0
 26 14  1  0
 24 19  2  0
  3 32  1  0
  4 33  1  0
  6 34  1  0
  7 35  1  0
  8 36  1  0
 15 37  1  0
 16 38  1  0
 17 39  1  0
 25 40  1  0
 26 41  1  0
 27 42  1  0
 29 43  1  0
 30 44  1  0
 30 45  1  0
 31 46  1  0
 31 47  1  0
M  CHG  4  10  -1  20  -1  23  -1  28  -1
M  END
>  <UniqueID>  (72) 
66

>  <SMILES>  (72) 
O=C(C=Cc1cccc([N-]S(=O)(=O)c2cccc(-c3[n-]c(=O)[n-]c3O)c2)c1)[N-]C1CC1

>  <Energy>  (72) 
358.1586497440801

>  <Genealogy>  (72) 
O=C(C=Cc1cccc([N-]S(=O)(=O)c2cccc(-c3[n-]c(=O)[n-]c3O)c2)c1)[N-]C1CC1 (protonated)
O=C(C=Cc1cccc([N-]S(=O)(=O)c2cccc(-c3[n-]c(=O)[n-]c3O)c2)c1)[N-]C1CC1 (3D coordinates assigned)
O=C(C=Cc1cccc([N-]S(=O)(=O)c2cccc(-c3[n-]c(=O)[n-]c3O)c2)c1)[N-]C1CC1 (nonaromatic ring conformer: 358.1586497440801 kcal/mol)

>  <smiles>  (72) 
O=C(C=Cc1cccc(NS(=O)(=O)c2cccc(-c3[nH]c(=O)[nH]c3O)c2)c1)NC1CC1

>  <score_type>  (72) 
oracle

>  <origin>  (72) 
adg

>  <m_score__min__energy>  (72) 
-17.140000000000001

>  <m_primary>  (72) 
energy

$$$$
72:0
     RDKit          3D

 54 58  0  0  0  0  0  0  0  0999 V2000
   54.9530   28.5890   43.9530 H   0  0  0  0  0  0  0  0  0  0  0  0
   55.1490   29.6060   44.0880 N   0  0  0  0  0  0  0  0  0  0  0  0
   56.2520   30.0190   44.6250 C   0  0  0  0  0  0  0  0  0  0  0  0
   56.4480   31.3500   44.8350 N   0  0  0  0  0  0  0  0  0  0  0  0
   57.5850   31.8340   45.4010 C   0  0  0  0  0  0  0  0  0  0  0  0
   57.6998   32.9162   45.5610 H   0  0  0  0  0  0  0  0  0  0  0  0
   58.6130   30.9580   45.7820 C   0  0  0  0  0  0  0  0  0  0  0  0
   59.8590   31.4610   46.4180 C   0  0  0  0  0  0  0  0  0  0  0  0
   60.8050   30.5660   46.9430 C   0  0  0  0  0  0  0  0  0  0  0  0
   60.6041   29.4848   46.9198 H   0  0  0  0  0  0  0  0  0  0  0  0
   62.0000   31.0370   47.4950 C   0  0  0  0  0  0  0  0  0  0  0  0
   62.7320   30.3222   47.8991 H   0  0  0  0  0  0  0  0  0  0  0  0
   62.2760   32.4160   47.5390 C   0  0  0  0  0  0  0  0  0  0  0  0
   63.5670   32.8940   48.1030 C   0  0  0  0  0  0  0  0  0  0  0  0
   64.3850   33.4740   47.3320 O   0  0  0  0  0  0  0  0  0  0  0  0
   63.8730   32.7630   49.5150 N   0  0  0  0  0  0  0  0  0  0  0  0
   63.4700   31.8710   49.8900 H   0  0  0  0  0  0  0  0  0  0  0  0
   63.3470   33.8930   50.2910 C   0  0  0  0  0  0  0  0  0  0  0  0
   63.3837   34.8139   49.6905 H   0  0  0  0  0  0  0  0  0  0  0  0
   62.2992   33.7200   50.5776 H   0  0  0  0  0  0  0  0  0  0  0  0
   64.2340   34.0350   51.5240 C   0  0  0  0  0  0  0  0  0  0  0  0
   64.5031   35.0896   51.6834 H   0  0  0  0  0  0  0  0  0  0  0  0
   63.7213   33.6915   52.4346 H   0  0  0  0  0  0  0  0  0  0  0  0
   65.4780   33.2080   51.2340 C   0  0  0  0  0  0  0  0  0  0  0  0
   66.3834   33.8245   51.3351 H   0  0  0  0  0  0  0  0  0  0  0  0
   65.5865   32.3681   51.9360 H   0  0  0  0  0  0  0  0  0  0  0  0
   65.3140   32.7320   49.7980 C   0  0  0  0  0  0  0  0  0  0  0  0
   65.8515   33.4021   49.1110 H   0  0  0  0  0  0  0  0  0  0  0  0
   65.7262   31.7212   49.6625 H   0  0  0  0  0  0  0  0  0  0  0  0
   61.3260   33.3110   47.0140 C   0  0  0  0  0  0  0  0  0  0  0  0
   61.5258   34.3925   47.0355 H   0  0  0  0  0  0  0  0  0  0  0  0
   60.1320   32.8390   46.4660 C   0  0  0  0  0  0  0  0  0  0  0  0
   59.3967   33.5534   46.0673 H   0  0  0  0  0  0  0  0  0  0  0  0
   58.4300   29.5860   45.5630 C   0  0  0  0  0  0  0  0  0  0  0  0
   59.2274   28.8814   45.8419 H   0  0  0  0  0  0  0  0  0  0  0  0
   57.2440   29.0980   44.9930 C   0  0  0  0  0  0  0  0  0  0  0  0
   57.0210   27.7250   44.7810 O   0  0  0  0  0  0  0  0  0  0  0  0
   57.7990   26.8880   43.9220 C   0  0  0  0  0  0  0  0  0  0  0  0
   57.3407   26.8687   42.9222 H   0  0  0  0  0  0  0  0  0  0  0  0
   58.8210   27.2902   43.8610 H   0  0  0  0  0  0  0  0  0  0  0  0
   57.8570   25.4830   44.4700 C   0  0  0  0  0  0  0  0  0  0  0  0
   57.2280   24.4410   43.7940 C   0  0  0  0  0  0  0  0  0  0  0  0
   56.7213   24.5222   42.8210 H   0  0  0  0  0  0  0  0  0  0  0  0
   57.3700   23.0420   44.7070 S   0  0  0  0  0  0  0  0  0  0  0  0
   58.2350   23.7220   45.9710 C   0  0  0  0  0  0  0  0  0  0  0  0
   58.5822   23.1896   46.8688 H   0  0  0  0  0  0  0  0  0  0  0  0
   58.4420   25.0720   45.6980 C   0  0  0  0  0  0  0  0  0  0  0  0
   59.1870   25.9280   46.6490 C   0  0  0  0  0  0  0  0  0  0  0  0
   60.5320   25.9560   46.7470 N   0  0  0  0  0  0  0  0  0  0  0  0
   60.7700   26.8490   47.7220 C   0  0  0  0  0  0  0  0  0  0  0  0
   61.7654   27.1471   48.0829 H   0  0  0  0  0  0  0  0  0  0  0  0
   59.5760   27.3310   48.1970 C   0  0  0  0  0  0  0  0  0  0  0  0
   59.4623   28.0762   48.9981 H   0  0  0  0  0  0  0  0  0  0  0  0
   58.5680   26.7470   47.5270 N   0  0  0  0  0  0  0  0  0  0  0  0
  1  2  1  0
  2  3  2  0
  3  4  1  0
  4  5  1  0
  5  6  1  0
  5  7  2  0
  7  8  1  0
  8  9  2  0
  9 10  1  0
  9 11  1  0
 11 12  1  0
 11 13  2  0
 13 14  1  0
 14 15  2  0
 14 16  1  0
 16 17  1  0
 16 18  1  0
 18 19  1  0
 18 20  1  0
 18 21  1  0
 21 22  1  0
 21 23  1  0
 21 24  1  0
 24 25  1  0
 24 26  1  0
 24 27  1  0
 27 28  1  0
 27 29  1  0
 13 30  1  0
 30 31  1  0
 30 32  2  0
 32 33  1  0
  7 34  1  0
 34 35  1  0
 34 36  2  0
 36 37  1  0
 37 38  1  0
 38 39  1  0
 38 40  1  0
 38 41  1  0
 41 42  2  0
 42 43  1  0
 42 44  1  0
 44 45  1  0
 45 46  1  0
 45 47  2  0
 47 48  1  0
 48 49  2  0
 49 50  1  0
 50 51  1  0
 50 52  2  0
 52 53  1  0
 52 54  1  0
 36  3  1  0
 47 41  1  0
 54 48  1  0
 32  8  1  0
 27 16  1  0
M  CHG  3   4  -1  16   1  54  -1
M  END
>  <UniqueID>  (73) 
67

>  <SMILES>  (73) 
[H]/N=c1\[n-]cc(-c2ccc(C(=O)[NH+]3CCCC3)cc2)cc1OCc1cscc1-c1ncc[n-]1

>  <Energy>  (73) 
126.93272362649199

>  <Genealogy>  (73) 
N=c1[n-]cc(-c2ccc(C(=O)[NH+]3CCCC3)cc2)cc1OCc1cscc1-c1ncc[n-]1 (protonated)
[H]/N=c1\[n-]cc(-c2ccc(C(=O)[NH+]3CCCC3)cc2)cc1OCc1cscc1-c1ncc[n-]1 (cis-trans isomerization)
[H]/N=c1\[n-]cc(-c2ccc(C(=O)[NH+]3CCCC3)cc2)cc1OCc1cscc1-c1ncc[n-]1 (3D coordinates assigned)
[H]/N=c1\[n-]cc(-c2ccc(C(=O)[NH+]3CCCC3)cc2)cc1OCc1cscc1-c1ncc[n-]1 (nonaromatic ring conformer: 126.93272362649199 kcal/mol)

>  <smiles>  (73) 
N=c1[nH]cc(-c2ccc(C(=O)N3CCCC3)cc2)cc1OCc1cscc1-c1ncc[nH]1

>  <score_type>  (73) 
oracle

>  <origin>  (73) 
adg

>  <m_score__min__energy>  (73) 
-11.77

>  <m_primary>  (73) 
energy

$$$$
73:0
     RDKit          3D

 56 59  0  0  0  0  0  0  0  0999 V2000
   55.1470   29.2680   44.8180 O   0  0  0  0  0  0  0  0  0  0  0  0
   56.3930   29.4460   44.8600 C   0  0  0  0  0  0  0  0  0  0  0  0
   56.8980   30.7480   45.1760 N   0  0  0  0  0  0  0  0  0  0  0  0
   57.3590   31.7350   44.2010 C   0  0  0  0  0  0  0  0  0  0  0  0
   58.0090   32.8930   44.9080 C   0  0  0  0  0  0  0  0  0  0  0  0
   58.7730   33.8300   44.1900 C   0  0  0  0  0  0  0  0  0  0  0  0
   59.3700   34.9080   44.8520 C   0  0  0  0  0  0  0  0  0  0  0  0
   59.2200   35.0530   46.2340 C   0  0  0  0  0  0  0  0  0  0  0  0
   59.8020   36.0960   46.8720 F   0  0  0  0  0  0  0  0  0  0  0  0
   58.4740   34.1160   46.9560 C   0  0  0  0  0  0  0  0  0  0  0  0
   57.8730   33.0400   46.2980 C   0  0  0  0  0  0  0  0  0  0  0  0
   57.2850   28.3060   44.5970 C   0  0  0  0  0  0  0  0  0  0  0  0
   57.6320   27.8320   43.3520 C   0  0  0  0  0  0  0  0  0  0  0  0
   58.5140   26.8210   43.4900 N   0  0  0  0  0  0  0  0  0  0  0  0
   58.6920   26.7090   44.8240 C   0  0  0  0  0  0  0  0  0  0  0  0
   57.9560   27.5970   45.5260 N   0  0  0  0  0  0  0  0  0  0  0  0
   58.0780   27.8680   46.9580 C   0  0  0  0  0  0  0  0  0  0  0  0
   59.1890   28.8520   47.2030 C   0  0  0  0  0  0  0  0  0  0  0  0
   60.0470   29.2220   46.1580 C   0  0  0  0  0  0  0  0  0  0  0  0
   61.0530   30.1650   46.3770 C   0  0  0  0  0  0  0  0  0  0  0  0
   61.2040   30.7560   47.6350 C   0  0  0  0  0  0  0  0  0  0  0  0
   60.3410   30.4090   48.6920 C   0  0  0  0  0  0  0  0  0  0  0  0
   60.4530   31.0020   50.0000 N   0  0  0  0  0  0  0  0  0  0  0  0
   59.6990   32.4910   50.4740 S   0  0  0  0  0  0  0  0  0  0  0  0
   59.1630   32.3400   51.8700 O   0  0  0  0  0  0  0  0  0  0  0  0
   58.5540   32.8030   49.5520 O   0  0  0  0  0  0  0  0  0  0  0  0
   60.9040   33.8090   50.4580 C   0  0  0  0  0  0  0  0  0  0  0  0
   61.9110   33.5840   49.3670 C   0  0  0  0  0  0  0  0  0  0  0  0
   63.1300   32.9430   49.6500 C   0  0  0  0  0  0  0  0  0  0  0  0
   64.0550   32.7050   48.6280 C   0  0  0  0  0  0  0  0  0  0  0  0
   63.7670   33.0940   47.3180 C   0  0  0  0  0  0  0  0  0  0  0  0
   62.5510   33.7240   47.0260 C   0  0  0  0  0  0  0  0  0  0  0  0
   61.6250   33.9650   48.0450 C   0  0  0  0  0  0  0  0  0  0  0  0
   59.3370   29.4540   48.4630 C   0  0  0  0  0  0  0  0  0  0  0  0
   58.0884   31.2655   43.5246 H   0  0  0  0  0  0  0  0  0  0  0  0
   56.4973   32.1021   43.6242 H   0  0  0  0  0  0  0  0  0  0  0  0
   58.9017   33.7149   43.1036 H   0  0  0  0  0  0  0  0  0  0  0  0
   59.9588   35.6431   44.2837 H   0  0  0  0  0  0  0  0  0  0  0  0
   58.3601   34.2264   48.0445 H   0  0  0  0  0  0  0  0  0  0  0  0
   57.2903   32.3042   46.8716 H   0  0  0  0  0  0  0  0  0  0  0  0
   57.2500   28.2172   42.3951 H   0  0  0  0  0  0  0  0  0  0  0  0
   59.3646   25.9731   45.2889 H   0  0  0  0  0  0  0  0  0  0  0  0
   57.1318   28.2867   47.3313 H   0  0  0  0  0  0  0  0  0  0  0  0
   58.3045   26.9294   47.4849 H   0  0  0  0  0  0  0  0  0  0  0  0
   59.9274   28.7683   45.1631 H   0  0  0  0  0  0  0  0  0  0  0  0
   61.7298   30.4442   45.5561 H   0  0  0  0  0  0  0  0  0  0  0  0
   62.0011   31.4959   47.7998 H   0  0  0  0  0  0  0  0  0  0  0  0
   61.0120   30.5090   50.7310 H   0  0  0  0  0  0  0  0  0  0  0  0
   60.3913   34.7669   50.2861 H   0  0  0  0  0  0  0  0  0  0  0  0
   61.4252   33.8279   51.4265 H   0  0  0  0  0  0  0  0  0  0  0  0
   63.3572   32.6275   50.6790 H   0  0  0  0  0  0  0  0  0  0  0  0
   65.0107   32.2107   48.8565 H   0  0  0  0  0  0  0  0  0  0  0  0
   64.4954   32.9055   46.5156 H   0  0  0  0  0  0  0  0  0  0  0  0
   62.3243   34.0295   45.9939 H   0  0  0  0  0  0  0  0  0  0  0  0
   60.6684   34.4550   47.8110 H   0  0  0  0  0  0  0  0  0  0  0  0
   58.6576   29.1739   49.2815 H   0  0  0  0  0  0  0  0  0  0  0  0
  1  2  2  0
  2  3  1  0
  3  4  1  0
  4  5  1  0
  5  6  2  0
  6  7  1  0
  7  8  2  0
  8  9  1  0
  8 10  1  0
 10 11  2  0
  2 12  1  0
 12 13  2  0
 13 14  1  0
 14 15  2  0
 15 16  1  0
 16 17  1  0
 17 18  1  0
 18 19  2  0
 19 20  1  0
 20 21  2  0
 21 22  1  0
 22 23  1  0
 23 24  1  0
 24 25  2  0
 24 26  2  0
 24 27  1  0
 27 28  1  0
 28 29  2  0
 29 30  1  0
 30 31  2  0
 31 32  1  0
 32 33  2  0
 22 34  2  0
 11  5  1  0
 16 12  1  0
 34 18  1  0
 33 28  1  0
  4 35  1  0
  4 36  1  0
  6 37  1  0
  7 38  1  0
 10 39  1  0
 11 40  1  0
 13 41  1  0
 15 42  1  0
 17 43  1  0
 17 44  1  0
 19 45  1  0
 20 46  1  0
 21 47  1  0
 23 48  1  0
 27 49  1  0
 27 50  1  0
 29 51  1  0
 30 52  1  0
 31 53  1  0
 32 54  1  0
 33 55  1  0
 34 56  1  0
M  CHG  1   3  -1
M  END
>  <UniqueID>  (74) 
68

>  <SMILES>  (74) 
O=C([N-]Cc1ccc(F)cc1)c1cncn1Cc1cccc(NS(=O)(=O)Cc2ccccc2)c1

>  <Energy>  (74) 
92.06811298526378

>  <Genealogy>  (74) 
O=C([N-]Cc1ccc(F)cc1)c1cncn1Cc1cccc(NS(=O)(=O)Cc2ccccc2)c1 (protonated)
O=C([N-]Cc1ccc(F)cc1)c1cncn1Cc1cccc(NS(=O)(=O)Cc2ccccc2)c1 (3D coordinates assigned)
O=C([N-]Cc1ccc(F)cc1)c1cncn1Cc1cccc(NS(=O)(=O)Cc2ccccc2)c1 (optimized conformer: 92.06811298526378 kcal/mol)

>  <smiles>  (74) 
O=C(NCc1ccc(F)cc1)c1cncn1Cc1cccc(NS(=O)(=O)Cc2ccccc2)c1

>  <score_type>  (74) 
oracle

>  <origin>  (74) 
adg

>  <m_score__min__energy>  (74) 
-11.32

>  <m_primary>  (74) 
energy

$$$$
74:0
     RDKit          3D

 40 42  0  0  0  0  0  0  0  0999 V2000
   58.7240   32.2560   49.2220 O   0  0  0  0  0  0  0  0  0  0  0  0
   59.1380   33.2020   48.4980 C   0  0  0  0  0  0  0  0  0  0  0  0
   60.0240   34.1790   49.0530 N   0  0  0  0  0  0  0  0  0  0  0  0
   61.3430   33.8620   49.5780 C   0  0  0  0  0  0  0  0  0  0  0  0
   62.2090   33.3870   48.4590 C   0  0  0  0  0  0  0  0  0  0  0  0
   62.5560   32.0740   48.2050 C   0  0  0  0  0  0  0  0  0  0  0  0
   63.3980   32.1200   47.1150 C   0  0  0  0  0  0  0  0  0  0  0  0
   63.5150   33.4530   46.7760 C   0  0  0  0  0  0  0  0  0  0  0  0
   62.7970   34.1840   47.5980 O   0  0  0  0  0  0  0  0  0  0  0  0
   58.7910   33.2610   47.0550 C   0  0  0  0  0  0  0  0  0  0  0  0
   57.8250   32.3620   46.5670 C   0  0  0  0  0  0  0  0  0  0  0  0
   57.3530   32.4470   45.2470 C   0  0  0  0  0  0  0  0  0  0  0  0
   56.3460   31.5600   44.7380 N   0  0  0  0  0  0  0  0  0  0  0  0
   56.5840   29.8830   44.3620 S   0  0  0  0  0  0  0  0  0  0  0  0
   56.6660   29.7270   42.8680 O   0  0  0  0  0  0  0  0  0  0  0  0
   55.4130   29.0920   44.8720 O   0  0  0  0  0  0  0  0  0  0  0  0
   58.0530   29.2840   45.1290 C   0  0  0  0  0  0  0  0  0  0  0  0
   57.9860   28.6800   46.3920 C   0  0  0  0  0  0  0  0  0  0  0  0
   59.1530   28.2340   47.0200 C   0  0  0  0  0  0  0  0  0  0  0  0
   60.3910   28.3880   46.3890 C   0  0  0  0  0  0  0  0  0  0  0  0
   60.4630   28.9870   45.1280 C   0  0  0  0  0  0  0  0  0  0  0  0
   59.2980   29.4340   44.4980 C   0  0  0  0  0  0  0  0  0  0  0  0
   57.8610   33.4370   44.4040 C   0  0  0  0  0  0  0  0  0  0  0  0
   58.8490   34.3110   44.8590 C   0  0  0  0  0  0  0  0  0  0  0  0
   59.3410   34.2200   46.1650 C   0  0  0  0  0  0  0  0  0  0  0  0
   60.3880   35.0710   46.5220 O   0  0  0  0  0  0  0  0  0  0  0  0
   61.7857   34.7613   50.0310 H   0  0  0  0  0  0  0  0  0  0  0  0
   61.2598   33.0764   50.3434 H   0  0  0  0  0  0  0  0  0  0  0  0
   62.2291   31.1802   48.7566 H   0  0  0  0  0  0  0  0  0  0  0  0
   63.8798   31.2664   46.6157 H   0  0  0  0  0  0  0  0  0  0  0  0
   64.1183   33.8440   45.9434 H   0  0  0  0  0  0  0  0  0  0  0  0
   57.4323   31.5783   47.2315 H   0  0  0  0  0  0  0  0  0  0  0  0
   57.0132   28.5565   46.8903 H   0  0  0  0  0  0  0  0  0  0  0  0
   59.0969   27.7614   48.0117 H   0  0  0  0  0  0  0  0  0  0  0  0
   61.3084   28.0378   46.8848 H   0  0  0  0  0  0  0  0  0  0  0  0
   61.4371   29.1067   44.6312 H   0  0  0  0  0  0  0  0  0  0  0  0
   59.3569   29.9044   43.5054 H   0  0  0  0  0  0  0  0  0  0  0  0
   57.4805   33.5285   43.3760 H   0  0  0  0  0  0  0  0  0  0  0  0
   59.2460   35.0815   44.1817 H   0  0  0  0  0  0  0  0  0  0  0  0
   60.8670   35.0270   47.4110 H   0  0  0  0  0  0  0  0  0  0  0  0
  1  2  2  0
  2  3  1  0
  3  4  1  0
  4  5  1  0
  5  6  2  0
  6  7  1  0
  7  8  2  0
  8  9  1  0
  2 10  1  0
 10 11  2  0
 11 12  1  0
 12 13  1  0
 13 14  1  0
 14 15  2  0
 14 16  2  0
 14 17  1  0
 17 18  2  0
 18 19  1  0
 19 20  2  0
 20 21  1  0
 21 22  2  0
 12 23  2  0
 23 24  1  0
 24 25  2  0
 25 26  1  0
  9  5  1  0
 25 10  1  0
 22 17  1  0
  4 27  1  0
  4 28  1  0
  6 29  1  0
  7 30  1  0
  8 31  1  0
 11 32  1  0
 18 33  1  0
 19 34  1  0
 20 35  1  0
 21 36  1  0
 22 37  1  0
 23 38  1  0
 24 39  1  0
 26 40  1  0
M  CHG  2   3  -1  13  -1
M  END
>  <UniqueID>  (75) 
69

>  <SMILES>  (75) 
O=C([N-]Cc1ccco1)c1cc([N-]S(=O)(=O)c2ccccc2)ccc1O

>  <Energy>  (75) 
72.21314959839032

>  <Genealogy>  (75) 
O=C([N-]Cc1ccco1)c1cc([N-]S(=O)(=O)c2ccccc2)ccc1O (protonated)
O=C([N-]Cc1ccco1)c1cc([N-]S(=O)(=O)c2ccccc2)ccc1O (3D coordinates assigned)
O=C([N-]Cc1ccco1)c1cc([N-]S(=O)(=O)c2ccccc2)ccc1O (optimized conformer: 72.21314959839032 kcal/mol)

>  <smiles>  (75) 
O=C(NCc1ccco1)c1cc(NS(=O)(=O)c2ccccc2)ccc1O

>  <score_type>  (75) 
oracle

>  <origin>  (75) 
adg

>  <m_score__min__energy>  (75) 
-11.27

>  <m_primary>  (75) 
energy

$$$$
75:0
     RDKit          3D

 54 57  0  0  0  0  0  0  0  0999 V2000
   63.2940   33.4640   47.0370 C   0  0  0  0  0  0  0  0  0  0  0  0
   62.2140   33.3760   48.0750 C   0  0  0  0  0  0  0  0  0  0  0  0
   62.3580   32.5040   49.1630 C   0  0  0  0  0  0  0  0  0  0  0  0
   61.3800   32.4530   50.1580 C   0  0  0  0  0  0  0  0  0  0  0  0
   60.2520   33.2860   50.0890 C   0  0  0  0  0  0  0  0  0  0  0  0
   59.2780   33.3250   51.2350 C   0  0  0  0  0  0  0  0  0  0  0  0
   58.9690   31.9600   51.6410 N   0  0  0  0  0  0  0  0  0  0  0  0
   58.1660   31.0870   50.8450 C   0  0  0  0  0  0  0  0  0  0  0  0
   57.0390   30.7020   51.2640 O   0  0  0  0  0  0  0  0  0  0  0  0
   58.7230   30.5150   49.5800 C   0  0  0  0  0  0  0  0  0  0  0  0
   59.6110   29.3390   49.9200 C   0  0  0  0  0  0  0  0  0  0  0  0
   60.2130   29.3400   51.1490 N   0  0  0  0  0  0  0  0  0  0  0  0
   61.0560   28.3500   51.5460 C   0  0  0  0  0  0  0  0  0  0  0  0
   61.3300   27.2850   50.6990 C   0  0  0  0  0  0  0  0  0  0  0  0
   60.7420   27.2470   49.4400 C   0  0  0  0  0  0  0  0  0  0  0  0
   59.8860   28.2730   49.0140 C   0  0  0  0  0  0  0  0  0  0  0  0
   59.3170   28.1680   47.6450 C   0  0  0  0  0  0  0  0  0  0  0  0
   60.0370   27.9960   46.5180 N   0  0  0  0  0  0  0  0  0  0  0  0
   59.1780   27.9610   45.5130 N   0  0  0  0  0  0  0  0  0  0  0  0
   57.9630   28.1020   46.0680 C   0  0  0  0  0  0  0  0  0  0  0  0
   56.8730   28.1640   45.3680 N   0  0  0  0  0  0  0  0  0  0  0  0
   56.3940   29.3410   44.7100 C   0  0  0  0  0  0  0  0  0  0  0  0
   55.1900   29.6820   44.8680 O   0  0  0  0  0  0  0  0  0  0  0  0
   57.3350   30.2460   43.9600 C   0  0  0  0  0  0  0  0  0  0  0  0
   57.7030   31.4740   44.7540 C   0  0  0  0  0  0  0  0  0  0  0  0
   57.7150   32.7340   44.1390 C   0  0  0  0  0  0  0  0  0  0  0  0
   58.0780   33.8600   44.8820 C   0  0  0  0  0  0  0  0  0  0  0  0
   58.4240   33.7350   46.1890 N   0  0  0  0  0  0  0  0  0  0  0  0
   58.4420   32.5240   46.8070 C   0  0  0  0  0  0  0  0  0  0  0  0
   58.0920   31.3720   46.0990 C   0  0  0  0  0  0  0  0  0  0  0  0
   58.0310   28.2180   47.3750 O   0  0  0  0  0  0  0  0  0  0  0  0
   60.1160   34.1710   49.0070 C   0  0  0  0  0  0  0  0  0  0  0  0
   61.0900   34.2130   48.0060 C   0  0  0  0  0  0  0  0  0  0  0  0
   64.2729   33.5438   47.5323 H   0  0  0  0  0  0  0  0  0  0  0  0
   63.2733   32.5612   46.4089 H   0  0  0  0  0  0  0  0  0  0  0  0
   63.1274   34.3516   46.4089 H   0  0  0  0  0  0  0  0  0  0  0  0
   63.2451   31.8573   49.2331 H   0  0  0  0  0  0  0  0  0  0  0  0
   61.4939   31.7559   51.0012 H   0  0  0  0  0  0  0  0  0  0  0  0
   59.7245   33.8692   52.0803 H   0  0  0  0  0  0  0  0  0  0  0  0
   58.3563   33.8377   50.9224 H   0  0  0  0  0  0  0  0  0  0  0  0
   57.8991   30.1799   48.9327 H   0  0  0  0  0  0  0  0  0  0  0  0
   59.3084   31.2820   49.0517 H   0  0  0  0  0  0  0  0  0  0  0  0
   60.0300   30.1230   51.8170 H   0  0  0  0  0  0  0  0  0  0  0  0
   61.5223   28.3931   52.5413 H   0  0  0  0  0  0  0  0  0  0  0  0
   62.0058   26.4790   51.0209 H   0  0  0  0  0  0  0  0  0  0  0  0
   60.9509   26.4009   48.7689 H   0  0  0  0  0  0  0  0  0  0  0  0
   58.2533   29.6869   43.7274 H   0  0  0  0  0  0  0  0  0  0  0  0
   56.8239   30.5782   43.0443 H   0  0  0  0  0  0  0  0  0  0  0  0
   57.4404   32.8352   43.0786 H   0  0  0  0  0  0  0  0  0  0  0  0
   58.0835   34.8518   44.4063 H   0  0  0  0  0  0  0  0  0  0  0  0
   58.7325   32.4515   47.8655 H   0  0  0  0  0  0  0  0  0  0  0  0
   58.1210   30.3896   46.5929 H   0  0  0  0  0  0  0  0  0  0  0  0
   59.2398   34.8333   48.9474 H   0  0  0  0  0  0  0  0  0  0  0  0
   60.9750   34.9059   47.1594 H   0  0  0  0  0  0  0  0  0  0  0  0
  1  2  1  0
  2  3  2  0
  3  4  1  0
  4  5  2  0
  5  6  1  0
  6  7  1  0
  7  8  1  0
  8  9  2  0
  8 10  1  0
 10 11  1  0
 11 12  2  0
 12 13  1  0
 13 14  2  0
 14 15  1  0
 15 16  2  0
 16 17  1  0
 17 18  2  0
 18 19  1  0
 19 20  1  0
 20 21  2  3
 21 22  1  0
 22 23  2  0
 22 24  1  0
 24 25  1  0
 25 26  2  0
 26 27  1  0
 27 28  2  0
 28 29  1  0
 29 30  2  0
 20 31  1  0
  5 32  1  0
 32 33  2  0
 33  2  1  0
 16 11  1  0
 31 17  1  0
 30 25  1  0
  1 34  1  0
  1 35  1  0
  1 36  1  0
  3 37  1  0
  4 38  1  0
  6 39  1  0
  6 40  1  0
 10 41  1  0
 10 42  1  0
 12 43  1  0
 13 44  1  0
 14 45  1  0
 15 46  1  0
 24 47  1  0
 24 48  1  0
 26 49  1  0
 27 50  1  0
 29 51  1  0
 30 52  1  0
 32 53  1  0
 33 54  1  0
M  CHG  3   7  -1  12   1  19  -1
M  END
>  <UniqueID>  (76) 
70

>  <SMILES>  (76) 
Cc1ccc(C[N-]C(=O)Cc2[nH+]cccc2-c2n[n-]c(=NC(=O)Cc3ccncc3)o2)cc1

>  <Energy>  (76) 
97.67192002374394

>  <Genealogy>  (76) 
Cc1ccc(C[N-]C(=O)Cc2[nH+]cccc2-c2n[n-]c(=NC(=O)Cc3ccncc3)o2)cc1 (protonated)
Cc1ccc(C[N-]C(=O)Cc2[nH+]cccc2-c2n[n-]c(=NC(=O)Cc3ccncc3)o2)cc1 (3D coordinates assigned)
Cc1ccc(C[N-]C(=O)Cc2[nH+]cccc2-c2n[n-]c(=NC(=O)Cc3ccncc3)o2)cc1 (optimized conformer: 97.67192002374394 kcal/mol)

>  <smiles>  (76) 
Cc1ccc(CNC(=O)Cc2ncccc2-c2n[nH]c(=NC(=O)Cc3ccncc3)o2)cc1

>  <score_type>  (76) 
oracle

>  <origin>  (76) 
adg

>  <m_score__min__energy>  (76) 
-12.619999999999999

>  <m_primary>  (76) 
energy

$$$$
76:0
     RDKit          3D

 57 59  0  0  0  0  0  0  0  0999 V2000
   58.4930   34.6000   44.8770 C   0  0  0  0  0  0  0  0  0  0  0  0
   58.7820   34.0710   46.2580 C   0  0  0  0  0  0  0  0  0  0  0  0
   57.6670   33.4370   47.0580 C   0  0  0  0  0  0  0  0  0  0  0  0
   60.0400   34.1870   46.7400 C   0  0  0  0  0  0  0  0  0  0  0  0
   61.0820   33.0920   46.7140 C   0  0  0  0  0  0  0  0  0  0  0  0
   61.7730   32.9230   48.0530 C   0  0  0  0  0  0  0  0  0  0  0  0
   63.1830   32.9930   48.1570 C   0  0  0  0  0  0  0  0  0  0  0  0
   64.0040   33.2760   47.0630 O   0  0  0  0  0  0  0  0  0  0  0  0
   63.7990   32.7800   49.3900 C   0  0  0  0  0  0  0  0  0  0  0  0
   63.0460   32.5170   50.5310 C   0  0  0  0  0  0  0  0  0  0  0  0
   61.6400   32.4760   50.4690 C   0  0  0  0  0  0  0  0  0  0  0  0
   60.8340   32.2260   51.6100 C   0  0  0  0  0  0  0  0  0  0  0  0
   61.4770   32.0580   52.9730 C   0  0  0  0  0  0  0  0  0  0  0  0
   59.4300   32.1040   51.4370 C   0  0  0  0  0  0  0  0  0  0  0  0
   58.4940   31.7280   52.5750 C   0  0  0  0  0  0  0  0  0  0  0  0
   57.7460   30.4480   52.2970 C   0  0  0  0  0  0  0  0  0  0  0  0
   57.9580   29.8300   51.2640 O   0  0  0  0  0  0  0  0  0  0  0  0
   56.8290   29.8570   53.3350 C   0  0  0  0  0  0  0  0  0  0  0  0
   55.3880   30.1590   53.0150 C   0  0  0  0  0  0  0  0  0  0  0  0
   54.3850   29.9150   53.9650 C   0  0  0  0  0  0  0  0  0  0  0  0
   53.0460   30.1750   53.6630 C   0  0  0  0  0  0  0  0  0  0  0  0
   52.6900   30.6850   52.4040 C   0  0  0  0  0  0  0  0  0  0  0  0
   51.2460   30.9300   52.0640 C   0  0  0  0  0  0  0  0  0  0  0  0
   51.0330   32.3380   51.5990 C   0  0  0  0  0  0  0  0  0  0  0  0
   50.5750   33.2070   52.3890 O   0  0  0  0  0  0  0  0  0  0  0  0
   51.4000   32.7050   50.3120 O   0  0  0  0  0  0  0  0  0  0  0  0
   53.6900   30.9170   51.4480 C   0  0  0  0  0  0  0  0  0  0  0  0
   55.0300   30.6600   51.7520 C   0  0  0  0  0  0  0  0  0  0  0  0
   58.8930   32.3600   50.1600 C   0  0  0  0  0  0  0  0  0  0  0  0
   57.6490   32.3320   49.9680 O   0  0  0  0  0  0  0  0  0  0  0  0
   59.6850   32.6320   49.1340 O   0  0  0  0  0  0  0  0  0  0  0  0
   61.0090   32.6800   49.2190 C   0  0  0  0  0  0  0  0  0  0  0  0
   57.9670   35.5629   44.9558 H   0  0  0  0  0  0  0  0  0  0  0  0
   59.4387   34.7423   44.3335 H   0  0  0  0  0  0  0  0  0  0  0  0
   57.8623   33.8811   44.3335 H   0  0  0  0  0  0  0  0  0  0  0  0
   57.8737   33.5545   48.1320 H   0  0  0  0  0  0  0  0  0  0  0  0
   56.7141   33.9283   46.8121 H   0  0  0  0  0  0  0  0  0  0  0  0
   57.6019   32.3668   46.8121 H   0  0  0  0  0  0  0  0  0  0  0  0
   60.3270   35.1513   47.1848 H   0  0  0  0  0  0  0  0  0  0  0  0
   60.5923   32.1440   46.4466 H   0  0  0  0  0  0  0  0  0  0  0  0
   61.8462   33.3723   45.9741 H   0  0  0  0  0  0  0  0  0  0  0  0
   64.8290   32.7420   46.8310 H   0  0  0  0  0  0  0  0  0  0  0  0
   64.8959   32.8204   49.4620 H   0  0  0  0  0  0  0  0  0  0  0  0
   63.5544   32.3395   51.4902 H   0  0  0  0  0  0  0  0  0  0  0  0
   60.7306   32.2530   53.7571 H   0  0  0  0  0  0  0  0  0  0  0  0
   61.8564   31.0306   53.0753 H   0  0  0  0  0  0  0  0  0  0  0  0
   62.3105   32.7685   53.0753 H   0  0  0  0  0  0  0  0  0  0  0  0
   59.0860   31.6003   53.4933 H   0  0  0  0  0  0  0  0  0  0  0  0
   57.7544   32.5348   52.6850 H   0  0  0  0  0  0  0  0  0  0  0  0
   56.9709   28.7665   53.3618 H   0  0  0  0  0  0  0  0  0  0  0  0
   57.0722   30.3006   54.3118 H   0  0  0  0  0  0  0  0  0  0  0  0
   54.6546   29.5164   54.9541 H   0  0  0  0  0  0  0  0  0  0  0  0
   52.2671   29.9794   54.4147 H   0  0  0  0  0  0  0  0  0  0  0  0
   50.9427   30.2379   51.2647 H   0  0  0  0  0  0  0  0  0  0  0  0
   50.6413   30.7653   52.9680 H   0  0  0  0  0  0  0  0  0  0  0  0
   53.4184   31.3030   50.4544 H   0  0  0  0  0  0  0  0  0  0  0  0
   55.8083   30.8510   50.9985 H   0  0  0  0  0  0  0  0  0  0  0  0
  1  2  1  0
  2  3  1  0
  2  4  2  3
  4  5  1  0
  5  6  1  0
  6  7  2  0
  7  8  1  0
  7  9  1  0
  9 10  2  0
 10 11  1  0
 11 12  1  0
 12 13  1  0
 12 14  2  0
 14 15  1  0
 15 16  1  0
 16 17  2  0
 16 18  1  0
 18 19  1  0
 19 20  2  0
 20 21  1  0
 21 22  2  0
 22 23  1  0
 23 24  1  0
 24 25  2  0
 24 26  1  0
 22 27  1  0
 27 28  2  0
 14 29  1  0
 29 30  2  0
 29 31  1  0
 31 32  1  0
 32  6  1  0
 32 11  2  0
 28 19  1  0
  1 33  1  0
  1 34  1  0
  1 35  1  0
  3 36  1  0
  3 37  1  0
  3 38  1  0
  4 39  1  0
  5 40  1  0
  5 41  1  0
  8 42  1  0
  9 43  1  0
 10 44  1  0
 13 45  1  0
 13 46  1  0
 13 47  1  0
 15 48  1  0
 15 49  1  0
 18 50  1  0
 18 51  1  0
 20 52  1  0
 21 53  1  0
 23 54  1  0
 23 55  1  0
 27 56  1  0
 28 57  1  0
M  CHG  1  26  -1
M  END
>  <UniqueID>  (77) 
71

>  <SMILES>  (77) 
CC(C)=CCc1c(O)ccc2c(C)c(CC(=O)Cc3ccc(CC(=O)[O-])cc3)c(=O)oc12

>  <Energy>  (77) 
62.474780494213775

>  <Genealogy>  (77) 
CC(C)=CCc1c(O)ccc2c(C)c(CC(=O)Cc3ccc(CC(=O)[O-])cc3)c(=O)oc12 (protonated)
CC(C)=CCc1c(O)ccc2c(C)c(CC(=O)Cc3ccc(CC(=O)[O-])cc3)c(=O)oc12 (3D coordinates assigned)
CC(C)=CCc1c(O)ccc2c(C)c(CC(=O)Cc3ccc(CC(=O)[O-])cc3)c(=O)oc12 (optimized conformer: 62.474780494213775 kcal/mol)

>  <smiles>  (77) 
CC(C)=CCc1c(O)ccc2c(C)c(CC(=O)Cc3ccc(CC(=O)O)cc3)c(=O)oc12

>  <score_type>  (77) 
oracle

>  <origin>  (77) 
adg

>  <m_score__min__energy>  (77) 
-12.619999999999999

>  <m_primary>  (77) 
energy

$$$$
77:0
     RDKit          3D

 60 63  0  0  0  0  0  0  0  0999 V2000
   58.9730   21.8700   44.0990 C   0  0  0  0  0  0  0  0  0  0  0  0
   57.5990   22.4680   44.1770 C   0  0  0  0  0  0  0  0  0  0  0  0
   56.8970   22.7630   42.9960 C   0  0  0  0  0  0  0  0  0  0  0  0
   55.6260   23.3330   43.0600 C   0  0  0  0  0  0  0  0  0  0  0  0
   55.0520   23.6290   44.3020 C   0  0  0  0  0  0  0  0  0  0  0  0
   55.7520   23.3630   45.4890 C   0  0  0  0  0  0  0  0  0  0  0  0
   55.1210   23.6920   46.8140 C   0  0  0  0  0  0  0  0  0  0  0  0
   55.9000   24.6660   47.5040 O   0  0  0  0  0  0  0  0  0  0  0  0
   56.7710   25.5800   46.8920 C   0  0  0  0  0  0  0  0  0  0  0  0
   58.1690   25.4900   47.0200 C   0  0  0  0  0  0  0  0  0  0  0  0
   58.9950   26.4350   46.4030 C   0  0  0  0  0  0  0  0  0  0  0  0
   58.4470   27.4890   45.6520 C   0  0  0  0  0  0  0  0  0  0  0  0
   59.3470   28.5220   45.0650 C   0  0  0  0  0  0  0  0  0  0  0  0
   59.8580   28.2960   43.9330 O   0  0  0  0  0  0  0  0  0  0  0  0
   59.7240   29.7160   45.8120 N   0  0  2  0  0  0  0  0  0  0  0  0
   60.7430   29.4490   46.8590 C   0  0  0  0  0  0  0  0  0  0  0  0
   60.1070   29.8460   48.2070 C   0  0  2  0  0  0  0  0  0  0  0  0
   60.5820   28.9400   49.3600 C   0  0  0  0  0  0  0  0  0  0  0  0
   58.6270   29.6720   47.9340 C   0  0  0  0  0  0  0  0  0  0  0  0
   58.5470   30.2490   46.5350 C   0  0  1  0  0  0  0  0  0  0  0  0
   58.5910   31.7950   46.6410 C   0  0  0  0  0  0  0  0  0  0  0  0
   59.7780   32.3740   47.4990 C   0  0  0  0  0  0  0  0  0  0  0  0
   60.9010   32.8920   46.5680 C   0  0  0  0  0  0  0  0  0  0  0  0
   59.2540   33.6060   48.2730 C   0  0  0  0  0  0  0  0  0  0  0  0
   60.3650   31.3440   48.5420 C   0  0  0  0  0  0  0  0  0  0  0  0
   57.0480   27.5670   45.5250 C   0  0  0  0  0  0  0  0  0  0  0  0
   56.2220   26.6150   46.1330 C   0  0  0  0  0  0  0  0  0  0  0  0
   54.8440   26.7080   45.9890 O   0  0  0  0  0  0  0  0  0  0  0  0
   57.0290   22.7750   45.4240 C   0  0  0  0  0  0  0  0  0  0  0  0
   59.3582   21.7024   45.1156 H   0  0  0  0  0  0  0  0  0  0  0  0
   58.9256   20.9111   43.5621 H   0  0  0  0  0  0  0  0  0  0  0  0
   59.6425   22.5582   43.5621 H   0  0  0  0  0  0  0  0  0  0  0  0
   57.3513   22.5437   42.0185 H   0  0  0  0  0  0  0  0  0  0  0  0
   55.0739   23.5502   42.1337 H   0  0  0  0  0  0  0  0  0  0  0  0
   54.0465   24.0726   44.3479 H   0  0  0  0  0  0  0  0  0  0  0  0
   54.1092   24.0894   46.6455 H   0  0  0  0  0  0  0  0  0  0  0  0
   55.0697   22.7775   47.4231 H   0  0  0  0  0  0  0  0  0  0  0  0
   58.6141   24.6734   47.6075 H   0  0  0  0  0  0  0  0  0  0  0  0
   60.0870   26.3523   46.5068 H   0  0  0  0  0  0  0  0  0  0  0  0
   60.1160   30.4150   45.1410 H   0  0  0  0  0  0  0  0  0  0  0  0
   61.0097   28.3818   46.8652 H   0  0  0  0  0  0  0  0  0  0  0  0
   61.6631   30.0219   46.6713 H   0  0  0  0  0  0  0  0  0  0  0  0
   60.3348   29.4116   50.3226 H   0  0  0  0  0  0  0  0  0  0  0  0
   60.0797   27.9639   49.2901 H   0  0  0  0  0  0  0  0  0  0  0  0
   61.6706   28.7980   49.2901 H   0  0  0  0  0  0  0  0  0  0  0  0
   58.3296   28.6132   47.9564 H   0  0  0  0  0  0  0  0  0  0  0  0
   57.9615   30.1473   48.6696 H   0  0  0  0  0  0  0  0  0  0  0  0
   57.6225   29.9783   46.0040 H   0  0  0  0  0  0  0  0  0  0  0  0
   58.6756   32.2038   45.6233 H   0  0  0  0  0  0  0  0  0  0  0  0
   57.6667   32.0923   47.1581 H   0  0  0  0  0  0  0  0  0  0  0  0
   61.7334   33.2759   47.1760 H   0  0  0  0  0  0  0  0  0  0  0  0
   61.2600   32.0685   45.9332 H   0  0  0  0  0  0  0  0  0  0  0  0
   60.5076   33.6996   45.9332 H   0  0  0  0  0  0  0  0  0  0  0  0
   59.3329   33.4204   49.3544 H   0  0  0  0  0  0  0  0  0  0  0  0
   59.8547   34.4885   48.0076 H   0  0  0  0  0  0  0  0  0  0  0  0
   58.2017   33.7854   48.0076 H   0  0  0  0  0  0  0  0  0  0  0  0
   61.4527   31.4982   48.5982 H   0  0  0  0  0  0  0  0  0  0  0  0
   59.8454   31.5396   49.4916 H   0  0  0  0  0  0  0  0  0  0  0  0
   56.5990   28.3845   44.9419 H   0  0  0  0  0  0  0  0  0  0  0  0
   57.5811   22.5557   46.3498 H   0  0  0  0  0  0  0  0  0  0  0  0
  1  2  1  0
  2  3  2  0
  3  4  1  0
  4  5  2  0
  5  6  1  0
  6  7  1  0
  7  8  1  0
  8  9  1  0
  9 10  2  0
 10 11  1  0
 11 12  2  0
 12 13  1  0
 13 14  2  0
 13 15  1  0
 15 16  1  0
 16 17  1  0
 17 18  1  1
 17 19  1  0
 19 20  1  0
 20 21  1  0
 21 22  1  0
 22 23  1  0
 22 24  1  0
 22 25  1  0
 12 26  1  0
 26 27  2  0
 27 28  1  0
  6 29  2  0
 29  2  1  0
 27  9  1  0
 20 15  1  0
 25 17  1  0
  1 30  1  0
  1 31  1  0
  1 32  1  0
  3 33  1  0
  4 34  1  0
  5 35  1  0
  7 36  1  0
  7 37  1  0
 10 38  1  0
 11 39  1  0
 15 40  1  6
 16 41  1  0
 16 42  1  0
 18 43  1  0
 18 44  1  0
 18 45  1  0
 19 46  1  0
 19 47  1  0
 20 48  1  6
 21 49  1  0
 21 50  1  0
 23 51  1  0
 23 52  1  0
 23 53  1  0
 24 54  1  0
 24 55  1  0
 24 56  1  0
 25 57  1  0
 25 58  1  0
 26 59  1  0
 29 60  1  0
M  CHG  2  15   1  28  -1
M  END
>  <UniqueID>  (78) 
72

>  <SMILES>  (78) 
Cc1cccc(COc2ccc(C(=O)[N@@H+]3C[C@]4(C)CC3CC(C)(C)C4)cc2[O-])c1

>  <Energy>  (78) 
83.05912919364192

>  <Genealogy>  (78) 
Cc1cccc(COc2ccc(C(=O)[NH+]3CC4(C)CC3CC(C)(C)C4)cc2[O-])c1 (protonated)
Cc1cccc(COc2ccc(C(=O)[N@@H+]3C[C@]4(C)CC3CC(C)(C)C4)cc2[O-])c1 (chirality)
Cc1cccc(COc2ccc(C(=O)[N@@H+]3C[C@]4(C)CC3CC(C)(C)C4)cc2[O-])c1 (3D coordinates assigned)
Cc1cccc(COc2ccc(C(=O)[N@@H+]3C[C@]4(C)CC3CC(C)(C)C4)cc2[O-])c1 (nonaromatic ring conformer: 83.05912919364192 kcal/mol)

>  <smiles>  (78) 
Cc1cccc(COc2ccc(C(=O)N3CC4(C)CC3CC(C)(C)C4)cc2O)c1

>  <score_type>  (78) 
oracle

>  <origin>  (78) 
adg

>  <m_score__min__energy>  (78) 
-11.140000000000001

>  <m_primary>  (78) 
energy

$$$$
78:0
     RDKit          3D

 52 55  0  0  0  0  0  0  0  0999 V2000
   54.7590   27.0950   46.6400 H   0  0  0  0  0  0  0  0  0  0  0  0
   54.7640   26.3070   45.9550 N   0  0  0  0  0  0  0  0  0  0  0  0
   56.2510   25.4560   46.1780 S   0  0  0  0  0  0  0  0  0  0  0  0
   56.2220   24.7280   47.4930 O   0  0  0  0  0  0  0  0  0  0  0  0
   56.4230   24.4500   45.0740 O   0  0  0  0  0  0  0  0  0  0  0  0
   57.5910   26.5990   46.1550 C   0  0  0  0  0  0  0  0  0  0  0  0
   57.9920   27.1880   44.9500 C   0  0  0  0  0  0  0  0  0  0  0  0
   57.4765   26.9267   44.0140 H   0  0  0  0  0  0  0  0  0  0  0  0
   59.0440   28.1060   44.9320 C   0  0  0  0  0  0  0  0  0  0  0  0
   59.3560   28.5647   43.9822 H   0  0  0  0  0  0  0  0  0  0  0  0
   59.7010   28.4430   46.1180 C   0  0  0  0  0  0  0  0  0  0  0  0
   60.5282   29.1678   46.0980 H   0  0  0  0  0  0  0  0  0  0  0  0
   59.3110   27.8610   47.3370 C   0  0  0  0  0  0  0  0  0  0  0  0
   59.9990   28.2210   48.6030 C   0  0  0  0  0  0  0  0  0  0  0  0
   60.7080   27.2500   49.3220 C   0  0  0  0  0  0  0  0  0  0  0  0
   60.7508   26.2157   48.9501 H   0  0  0  0  0  0  0  0  0  0  0  0
   61.3420   27.5800   50.4750 N   0  0  0  0  0  0  0  0  0  0  0  0
   61.3100   28.8510   50.9580 C   0  0  0  0  0  0  0  0  0  0  0  0
   61.9280   29.1650   52.0570 N   0  0  0  0  0  0  0  0  0  0  0  0
   63.3830   29.2210   52.2130 C   0  0  0  0  0  0  0  0  0  0  0  0
   63.8186   28.2638   51.8904 H   0  0  0  0  0  0  0  0  0  0  0  0
   63.6201   29.4087   53.2706 H   0  0  0  0  0  0  0  0  0  0  0  0
   63.9610   30.3340   51.3800 C   0  0  0  0  0  0  0  0  0  0  0  0
   65.2730   30.7830   51.6010 C   0  0  0  0  0  0  0  0  0  0  0  0
   65.8756   30.3400   52.4076 H   0  0  0  0  0  0  0  0  0  0  0  0
   65.8150   31.7900   50.8000 C   0  0  0  0  0  0  0  0  0  0  0  0
   66.8423   32.1398   50.9796 H   0  0  0  0  0  0  0  0  0  0  0  0
   65.0570   32.3550   49.7710 C   0  0  0  0  0  0  0  0  0  0  0  0
   65.4913   33.1473   49.1436 H   0  0  0  0  0  0  0  0  0  0  0  0
   63.7430   31.9170   49.5330 C   0  0  0  0  0  0  0  0  0  0  0  0
   62.9480   32.5060   48.4270 C   0  0  0  0  0  0  0  0  0  0  0  0
   63.5590   33.3550   47.4880 C   0  0  0  0  0  0  0  0  0  0  0  0
   64.6311   33.5879   47.5682 H   0  0  0  0  0  0  0  0  0  0  0  0
   62.7990   33.9000   46.4550 C   0  0  0  0  0  0  0  0  0  0  0  0
   63.2703   34.5637   45.7151 H   0  0  0  0  0  0  0  0  0  0  0  0
   61.4420   33.6030   46.3610 C   0  0  0  0  0  0  0  0  0  0  0  0
   60.8379   34.0312   45.5475 H   0  0  0  0  0  0  0  0  0  0  0  0
   60.8510   32.7590   47.3040 C   0  0  0  0  0  0  0  0  0  0  0  0
   59.4800   32.4850   47.1880 O   0  0  0  0  0  0  0  0  0  0  0  0
   58.8200   32.2040   45.9590 C   0  0  0  0  0  0  0  0  0  0  0  0
   57.8258   31.7807   46.1651 H   0  0  0  0  0  0  0  0  0  0  0  0
   58.7102   33.1334   45.3809 H   0  0  0  0  0  0  0  0  0  0  0  0
   59.4138   31.4807   45.3809 H   0  0  0  0  0  0  0  0  0  0  0  0
   61.6140   32.2300   48.3120 N   0  0  0  0  0  0  0  0  0  0  0  0
   61.1660   31.6170   49.0280 H   0  0  0  0  0  0  0  0  0  0  0  0
   63.2020   30.9060   50.3470 C   0  0  0  0  0  0  0  0  0  0  0  0
   62.1727   30.5596   50.1723 H   0  0  0  0  0  0  0  0  0  0  0  0
   60.6310   29.8100   50.2790 N   0  0  0  0  0  0  0  0  0  0  0  0
   59.9810   29.5310   49.1190 C   0  0  0  0  0  0  0  0  0  0  0  0
   59.3880   30.4600   48.5080 O   0  0  0  0  0  0  0  0  0  0  0  0
   58.2450   26.9440   47.3470 C   0  0  0  0  0  0  0  0  0  0  0  0
   57.9214   26.4937   48.2970 H   0  0  0  0  0  0  0  0  0  0  0  0
  1  2  1  0
  2  3  1  0
  3  4  2  0
  3  5  2  0
  3  6  1  0
  6  7  2  0
  7  8  1  0
  7  9  1  0
  9 10  1  0
  9 11  2  0
 11 12  1  0
 11 13  1  0
 13 14  1  0
 14 15  2  0
 15 16  1  0
 15 17  1  0
 17 18  1  0
 18 19  2  0
 19 20  1  0
 20 21  1  0
 20 22  1  0
 20 23  1  0
 23 24  2  0
 24 25  1  0
 24 26  1  0
 26 27  1  0
 26 28  2  0
 28 29  1  0
 28 30  1  0
 30 31  1  0
 31 32  2  0
 32 33  1  0
 32 34  1  0
 34 35  1  0
 34 36  2  0
 36 37  1  0
 36 38  1  0
 38 39  1  0
 39 40  1  0
 40 41  1  0
 40 42  1  0
 40 43  1  0
 38 44  2  0
 44 45  1  0
 30 46  2  0
 46 47  1  0
 18 48  1  0
 48 49  1  0
 49 50  2  0
 13 51  2  0
 51 52  1  0
 51  6  1  0
 49 14  1  0
 46 23  1  0
 44 31  1  0
M  CHG  4   2  -1  17  -1  44   1  48  -1
M  END
>  <UniqueID>  (79) 
73

>  <SMILES>  (79) 
COc1cccc(-c2cccc(C/N=c3\[n-]cc(-c4cccc(S([NH-])(=O)=O)c4)c(=O)[n-]3)c2)[nH+]1

>  <Energy>  (79) 
67.40364623507466

>  <Genealogy>  (79) 
COc1cccc(-c2cccc(CN=c3[n-]cc(-c4cccc(S([NH-])(=O)=O)c4)c(=O)[n-]3)c2)[nH+]1 (protonated)
COc1cccc(-c2cccc(C/N=c3\[n-]cc(-c4cccc(S([NH-])(=O)=O)c4)c(=O)[n-]3)c2)[nH+]1 (cis-trans isomerization)
COc1cccc(-c2cccc(C/N=c3\[n-]cc(-c4cccc(S([NH-])(=O)=O)c4)c(=O)[n-]3)c2)[nH+]1 (3D coordinates assigned)
COc1cccc(-c2cccc(C/N=c3\[n-]cc(-c4cccc(S([NH-])(=O)=O)c4)c(=O)[n-]3)c2)[nH+]1 (optimized conformer: 67.40364623507466 kcal/mol)

>  <smiles>  (79) 
COc1cccc(-c2cccc(CN=c3[nH]cc(-c4cccc(S(N)(=O)=O)c4)c(=O)[nH]3)c2)n1

>  <score_type>  (79) 
oracle

>  <origin>  (79) 
adg

>  <m_score__min__energy>  (79) 
-13.85

>  <m_primary>  (79) 
energy

$$$$
79:0
     RDKit          3D

 28 29  0  0  0  0  0  0  0  0999 V2000
   60.8180   34.0130   46.6710 C   0  0  0  0  0  0  0  0  0  0  0  0
   59.5160   33.4890   46.1250 C   0  0  0  0  0  0  0  0  0  0  0  0
   58.5360   34.4070   45.7080 C   0  0  0  0  0  0  0  0  0  0  0  0
   57.3150   33.9620   45.2070 C   0  0  0  0  0  0  0  0  0  0  0  0
   57.0510   32.5970   45.1150 C   0  0  0  0  0  0  0  0  0  0  0  0
   58.0160   31.6610   45.5060 C   0  0  0  0  0  0  0  0  0  0  0  0
   57.7070   30.2640   45.4300 N   0  0  0  0  0  0  0  0  0  0  0  0
   58.0070   29.3280   46.4960 C   0  0  0  0  0  0  0  0  0  0  0  0
   57.3800   27.9600   46.1240 C   0  0  0  0  0  0  0  0  0  0  0  0
   56.2140   28.1200   45.2430 N   0  0  0  0  0  0  0  0  0  0  0  0
   56.4660   29.6260   44.4560 S   0  0  0  0  0  0  0  0  0  0  0  0
   55.2230   30.4680   44.5070 O   0  0  0  0  0  0  0  0  0  0  0  0
   56.9340   29.4240   43.0420 O   0  0  0  0  0  0  0  0  0  0  0  0
   59.2690   32.0970   45.9970 C   0  0  0  0  0  0  0  0  0  0  0  0
   60.3060   31.0880   46.4340 C   0  0  0  0  0  0  0  0  0  0  0  0
   60.7862   34.0002   47.7705 H   0  0  0  0  0  0  0  0  0  0  0  0
   61.6447   33.3776   46.3207 H   0  0  0  0  0  0  0  0  0  0  0  0
   60.9741   35.0440   46.3207 H   0  0  0  0  0  0  0  0  0  0  0  0
   58.7355   35.4865   45.7781 H   0  0  0  0  0  0  0  0  0  0  0  0
   56.5569   34.6903   44.8830 H   0  0  0  0  0  0  0  0  0  0  0  0
   56.0786   32.2527   44.7329 H   0  0  0  0  0  0  0  0  0  0  0  0
   59.0966   29.2221   46.6039 H   0  0  0  0  0  0  0  0  0  0  0  0
   57.5949   29.6903   47.4494 H   0  0  0  0  0  0  0  0  0  0  0  0
   58.1358   27.3495   45.6083 H   0  0  0  0  0  0  0  0  0  0  0  0
   57.0458   27.4715   47.0512 H   0  0  0  0  0  0  0  0  0  0  0  0
   60.3427   31.0523   47.5328 H   0  0  0  0  0  0  0  0  0  0  0  0
   60.0387   30.0950   46.0436 H   0  0  0  0  0  0  0  0  0  0  0  0
   61.2914   31.3824   46.0436 H   0  0  0  0  0  0  0  0  0  0  0  0
  1  2  1  0
  2  3  2  0
  3  4  1  0
  4  5  2  0
  5  6  1  0
  6  7  1  0
  7  8  1  0
  8  9  1  0
  9 10  1  0
 10 11  1  0
 11 12  2  0
 11 13  2  0
  6 14  2  0
 14 15  1  0
 14  2  1  0
 11  7  1  0
  1 16  1  0
  1 17  1  0
  1 18  1  0
  3 19  1  0
  4 20  1  0
  5 21  1  0
  8 22  1  0
  8 23  1  0
  9 24  1  0
  9 25  1  0
 15 26  1  0
 15 27  1  0
 15 28  1  0
M  CHG  1  10  -1
M  END
>  <UniqueID>  (80) 
74

>  <SMILES>  (80) 
Cc1cccc(N2CC[N-]S2(=O)=O)c1C

>  <Energy>  (80) 
41.11795579220672

>  <Genealogy>  (80) 
Cc1cccc(N2CC[N-]S2(=O)=O)c1C (protonated)
Cc1cccc(N2CC[N-]S2(=O)=O)c1C (3D coordinates assigned)
Cc1cccc(N2CC[N-]S2(=O)=O)c1C (nonaromatic ring conformer: 41.11795579220672 kcal/mol)

>  <smiles>  (80) 
Cc1cccc(N2CCNS2(=O)=O)c1C

>  <score_type>  (80) 
oracle

>  <origin>  (80) 
adg

>  <m_score__min__energy>  (80) 
-8.1500000000000004

>  <m_primary>  (80) 
energy

$$$$
80:0
     RDKit          3D

 80 85  0  0  0  0  0  0  0  0999 V2000
   62.9740   33.9230   49.6260 C   0  0  0  0  0  0  0  0  0  0  0  0
   61.7520   34.5750   48.9830 C   0  0  0  0  0  0  0  0  0  0  0  0
   61.4850   33.9790   47.6250 C   0  0  0  0  0  0  0  0  0  0  0  0
   62.4510   33.4940   46.9780 O   0  0  0  0  0  0  0  0  0  0  0  0
   60.1670   33.9900   47.0350 N   0  0  0  0  0  0  0  0  0  0  0  0
   60.0300   34.3120   45.6020 C   0  0  0  0  0  0  0  0  0  0  0  0
   58.8890   33.5220   44.9340 C   0  0  0  0  0  0  0  0  0  0  0  0
   58.1930   32.6880   45.9140 N   0  0  0  0  0  0  0  0  0  0  0  0
   58.0620   31.2650   45.7440 C   0  0  0  0  0  0  0  0  0  0  0  0
   57.3770   30.7680   44.6280 C   0  0  0  0  0  0  0  0  0  0  0  0
   57.2170   29.3930   44.4440 C   0  0  0  0  0  0  0  0  0  0  0  0
   57.7300   28.4870   45.3860 C   0  0  0  0  0  0  0  0  0  0  0  0
   57.5330   27.0250   45.2460 C   0  0  0  0  0  0  0  0  0  0  0  0
   57.3970   26.3680   44.0630 N   0  0  0  0  0  0  0  0  0  0  0  0
   57.2090   25.0940   44.4350 C   0  0  0  0  0  0  0  0  0  0  0  0
   56.9790   23.9820   43.6330 C   0  0  0  0  0  0  0  0  0  0  0  0
   56.7730   22.7470   44.2770 C   0  0  0  0  0  0  0  0  0  0  0  0
   56.8050   22.6540   45.6930 C   0  0  0  0  0  0  0  0  0  0  0  0
   56.4870   21.1080   46.4840 S   0  0  0  0  0  0  0  0  0  0  0  0
   57.3650   20.9890   47.6990 O   0  0  0  0  0  0  0  0  0  0  0  0
   56.8410   19.9880   45.5460 O   0  0  0  0  0  0  0  0  0  0  0  0
   54.8100   20.9450   46.9500 N   0  0  0  0  0  0  0  0  0  0  0  0
   54.1000   20.0670   46.0020 C   0  0  0  0  0  0  0  0  0  0  0  0
   52.5870   20.1830   46.1980 C   0  0  0  0  0  0  0  0  0  0  0  0
   52.1000   21.5570   45.9100 N   0  0  0  0  0  0  0  0  0  0  0  0
   50.8990   21.8540   46.7060 C   0  0  0  0  0  0  0  0  0  0  0  0
   53.1330   22.6070   46.0730 C   0  0  0  0  0  0  0  0  0  0  0  0
   54.1570   22.2590   47.1680 C   0  0  0  0  0  0  0  0  0  0  0  0
   57.0530   23.8090   46.4670 C   0  0  0  0  0  0  0  0  0  0  0  0
   57.2420   25.0110   45.7940 C   0  0  0  0  0  0  0  0  0  0  0  0
   57.4460   26.2050   46.2860 O   0  0  0  0  0  0  0  0  0  0  0  0
   58.4120   28.9850   46.5080 C   0  0  0  0  0  0  0  0  0  0  0  0
   58.5970   30.3670   46.6870 C   0  0  0  0  0  0  0  0  0  0  0  0
   59.2510   30.8760   47.8610 N   0  0  0  0  0  0  0  0  0  0  0  0
   58.9320   30.5330   49.2150 C   0  0  0  0  0  0  0  0  0  0  0  0
   58.7070   29.3240   49.4920 O   0  0  0  0  0  0  0  0  0  0  0  0
   58.8170   31.5580   50.2800 C   0  0  0  0  0  0  0  0  0  0  0  0
   57.6300   31.6980   51.0240 C   0  0  0  0  0  0  0  0  0  0  0  0
   57.5360   32.6660   52.0280 C   0  0  0  0  0  0  0  0  0  0  0  0
   58.6270   33.4960   52.3070 C   0  0  0  0  0  0  0  0  0  0  0  0
   58.5370   34.4340   53.2800 F   0  0  0  0  0  0  0  0  0  0  0  0
   59.8170   33.3500   51.5870 C   0  0  0  0  0  0  0  0  0  0  0  0
   59.9150   32.3820   50.5820 C   0  0  0  0  0  0  0  0  0  0  0  0
   57.7560   33.3390   47.1470 C   0  0  0  0  0  0  0  0  0  0  0  0
   58.9730   33.9040   47.8970 C   0  0  0  0  0  0  0  0  0  0  0  0
   62.8821   33.9720   50.7211 H   0  0  0  0  0  0  0  0  0  0  0  0
   63.0373   32.8712   49.3101 H   0  0  0  0  0  0  0  0  0  0  0  0
   63.8829   34.4561   49.3101 H   0  0  0  0  0  0  0  0  0  0  0  0
   60.8752   34.4135   49.6273 H   0  0  0  0  0  0  0  0  0  0  0  0
   61.9453   35.6515   48.8657 H   0  0  0  0  0  0  0  0  0  0  0  0
   59.8237   35.3876   45.4989 H   0  0  0  0  0  0  0  0  0  0  0  0
   60.9700   34.0346   45.1025 H   0  0  0  0  0  0  0  0  0  0  0  0
   58.1734   34.2287   44.4885 H   0  0  0  0  0  0  0  0  0  0  0  0
   59.3175   32.8713   44.1575 H   0  0  0  0  0  0  0  0  0  0  0  0
   56.9607   31.4681   43.8887 H   0  0  0  0  0  0  0  0  0  0  0  0
   56.6863   29.0178   43.5565 H   0  0  0  0  0  0  0  0  0  0  0  0
   57.4170   26.7440   43.0890 H   0  0  0  0  0  0  0  0  0  0  0  0
   56.9587   24.0639   42.5362 H   0  0  0  0  0  0  0  0  0  0  0  0
   56.5853   21.8447   43.6765 H   0  0  0  0  0  0  0  0  0  0  0  0
   54.3559   20.3619   44.9736 H   0  0  0  0  0  0  0  0  0  0  0  0
   54.4045   19.0257   46.1836 H   0  0  0  0  0  0  0  0  0  0  0  0
   52.0845   19.4772   45.5203 H   0  0  0  0  0  0  0  0  0  0  0  0
   52.3582   19.9509   47.2486 H   0  0  0  0  0  0  0  0  0  0  0  0
   51.1444   21.7933   47.7766 H   0  0  0  0  0  0  0  0  0  0  0  0
   50.5429   22.8673   46.4683 H   0  0  0  0  0  0  0  0  0  0  0  0
   50.1117   21.1235   46.4683 H   0  0  0  0  0  0  0  0  0  0  0  0
   53.6652   22.7300   45.1182 H   0  0  0  0  0  0  0  0  0  0  0  0
   52.6235   23.5344   46.3734 H   0  0  0  0  0  0  0  0  0  0  0  0
   54.9330   23.0385   47.1836 H   0  0  0  0  0  0  0  0  0  0  0  0
   53.6138   22.2037   48.1229 H   0  0  0  0  0  0  0  0  0  0  0  0
   57.0952   23.7594   47.5651 H   0  0  0  0  0  0  0  0  0  0  0  0
   58.8071   28.2836   47.2576 H   0  0  0  0  0  0  0  0  0  0  0  0
   56.7721   31.0422   50.8141 H   0  0  0  0  0  0  0  0  0  0  0  0
   56.6026   32.7753   52.5997 H   0  0  0  0  0  0  0  0  0  0  0  0
   60.6774   33.9975   51.8114 H   0  0  0  0  0  0  0  0  0  0  0  0
   60.8563   32.2650   50.0251 H   0  0  0  0  0  0  0  0  0  0  0  0
   57.0651   34.1591   46.9019 H   0  0  0  0  0  0  0  0  0  0  0  0
   57.2457   32.6027   47.7853 H   0  0  0  0  0  0  0  0  0  0  0  0
   58.7271   34.9116   48.2634 H   0  0  0  0  0  0  0  0  0  0  0  0
   59.2045   33.2217   48.7282 H   0  0  0  0  0  0  0  0  0  0  0  0
  1  2  1  0
  2  3  1  0
  3  4  2  0
  3  5  1  0
  5  6  1  0
  6  7  1  0
  7  8  1  0
  8  9  1  0
  9 10  2  0
 10 11  1  0
 11 12  2  0
 12 13  1  0
 13 14  2  0
 14 15  1  0
 15 16  2  0
 16 17  1  0
 17 18  2  0
 18 19  1  0
 19 20  2  0
 19 21  2  0
 19 22  1  0
 22 23  1  0
 23 24  1  0
 24 25  1  0
 25 26  1  0
 25 27  1  0
 27 28  1  0
 18 29  1  0
 29 30  2  0
 30 31  1  0
 12 32  1  0
 32 33  2  0
 33 34  1  0
 34 35  1  0
 35 36  2  0
 35 37  1  0
 37 38  2  0
 38 39  1  0
 39 40  2  0
 40 41  1  0
 40 42  1  0
 42 43  2  0
  8 44  1  0
 44 45  1  0
 45  5  1  0
 33  9  1  0
 43 37  1  0
 31 13  1  0
 30 15  1  0
 28 22  1  0
  1 46  1  0
  1 47  1  0
  1 48  1  0
  2 49  1  0
  2 50  1  0
  6 51  1  0
  6 52  1  0
  7 53  1  0
  7 54  1  0
 10 55  1  0
 11 56  1  0
 14 57  1  0
 16 58  1  0
 17 59  1  0
 23 60  1  0
 23 61  1  0
 24 62  1  0
 24 63  1  0
 26 64  1  0
 26 65  1  0
 26 66  1  0
 27 67  1  0
 27 68  1  0
 28 69  1  0
 28 70  1  0
 29 71  1  0
 32 72  1  0
 38 73  1  0
 39 74  1  0
 42 75  1  0
 43 76  1  0
 44 77  1  0
 44 78  1  0
 45 79  1  0
 45 80  1  0
M  CHG  2  14   1  34  -1
M  END
>  <UniqueID>  (81) 
75

>  <SMILES>  (81) 
CCC(=O)N1CCN(c2ccc(-c3[nH+]c4ccc(S(=O)(=O)N5CCN(C)CC5)cc4o3)cc2[N-]C(=O)c2ccc(F)cc2)CC1

>  <Energy>  (81) 
152.17058861704695

>  <Genealogy>  (81) 
CCC(=O)N1CCN(c2ccc(-c3[nH+]c4ccc(S(=O)(=O)N5CCN(C)CC5)cc4o3)cc2[N-]C(=O)c2ccc(F)cc2)CC1 (protonated)
CCC(=O)N1CCN(c2ccc(-c3[nH+]c4ccc(S(=O)(=O)N5CCN(C)CC5)cc4o3)cc2[N-]C(=O)c2ccc(F)cc2)CC1 (3D coordinates assigned)
CCC(=O)N1CCN(c2ccc(-c3[nH+]c4ccc(S(=O)(=O)N5CCN(C)CC5)cc4o3)cc2[N-]C(=O)c2ccc(F)cc2)CC1 (nonaromatic ring conformer: 152.17058861704695 kcal/mol)

>  <smiles>  (81) 
CCC(=O)N1CCN(c2ccc(-c3nc4ccc(S(=O)(=O)N5CCN(C)CC5)cc4o3)cc2NC(=O)c2ccc(F)cc2)CC1

>  <score_type>  (81) 
oracle

>  <origin>  (81) 
adg

>  <m_score__min__energy>  (81) 
-10.960000000000001

>  <m_primary>  (81) 
energy

$$$$
81:0
     RDKit          3D

 57 60  0  0  0  0  0  0  0  0999 V2000
   59.9114   33.5854   48.7544 H   0  0  0  0  0  0  0  0  0  0  0  0
   60.4810   33.1680   47.9110 C   0  0  0  0  0  0  0  0  0  0  0  0
   61.8080   33.0160   48.0620 C   0  0  0  0  0  0  0  0  0  0  0  0
   62.8780   33.3250   47.1210 C   0  0  0  0  0  0  0  0  0  0  0  0
   62.7690   33.8710   45.9920 O   0  0  0  0  0  0  0  0  0  0  0  0
   64.1170   32.9870   47.7200 N   0  0  0  0  0  0  0  0  0  0  0  0
   65.0640   33.0690   47.2860 H   0  0  0  0  0  0  0  0  0  0  0  0
   63.8550   32.5390   48.9080 C   0  0  0  0  0  0  0  0  0  0  0  0
   64.8830   32.0700   49.7840 N   0  0  0  0  0  0  0  0  0  0  0  0
   65.8810   32.0810   49.4760 H   0  0  0  0  0  0  0  0  0  0  0  0
   64.6650   31.7150   50.7390 H   0  0  0  0  0  0  0  0  0  0  0  0
   62.4580   32.5490   49.2500 N   0  0  0  0  0  0  0  0  0  0  0  0
   61.8420   31.7580   50.3160 C   0  0  0  0  0  0  0  0  0  0  0  0
   62.1518   32.1559   51.2936 H   0  0  0  0  0  0  0  0  0  0  0  0
   60.7469   31.8136   50.2278 H   0  0  0  0  0  0  0  0  0  0  0  0
   62.1642   30.7099   50.2278 H   0  0  0  0  0  0  0  0  0  0  0  0
   59.7400   32.8110   46.6870 C   0  0  0  0  0  0  0  0  0  0  0  0
   59.2350   33.8290   45.8700 C   0  0  0  0  0  0  0  0  0  0  0  0
   59.4298   34.8817   46.1227 H   0  0  0  0  0  0  0  0  0  0  0  0
   58.4860   33.5140   44.7370 C   0  0  0  0  0  0  0  0  0  0  0  0
   58.1074   34.3199   44.0912 H   0  0  0  0  0  0  0  0  0  0  0  0
   58.2120   32.1770   44.4150 C   0  0  0  0  0  0  0  0  0  0  0  0
   58.7200   31.1330   45.2200 C   0  0  0  0  0  0  0  0  0  0  0  0
   59.4520   31.4720   46.3790 C   0  0  0  0  0  0  0  0  0  0  0  0
   59.8020   30.6745   47.0509 H   0  0  0  0  0  0  0  0  0  0  0  0
   58.4620   29.7450   44.8620 N   0  0  0  0  0  0  0  0  0  0  0  0
   59.2330   28.6670   45.5230 C   0  0  0  0  0  0  0  0  0  0  0  0
   59.8159   29.1111   46.3434 H   0  0  0  0  0  0  0  0  0  0  0  0
   59.8701   28.2107   44.7511 H   0  0  0  0  0  0  0  0  0  0  0  0
   58.3750   27.5620   46.0930 C   0  0  0  0  0  0  0  0  0  0  0  0
   58.9470   26.5780   46.9110 C   0  0  0  0  0  0  0  0  0  0  0  0
   60.0185   26.6247   47.1555 H   0  0  0  0  0  0  0  0  0  0  0  0
   58.1640   25.5390   47.4170 C   0  0  0  0  0  0  0  0  0  0  0  0
   58.6218   24.7737   48.0610 H   0  0  0  0  0  0  0  0  0  0  0  0
   56.7940   25.4640   47.1090 C   0  0  0  0  0  0  0  0  0  0  0  0
   55.9750   24.4340   47.5990 O   0  0  0  0  0  0  0  0  0  0  0  0
   56.4140   23.1010   47.8400 C   0  0  0  0  0  0  0  0  0  0  0  0
   56.4721   22.9245   48.9242 H   0  0  0  0  0  0  0  0  0  0  0  0
   55.7014   22.3935   47.3910 H   0  0  0  0  0  0  0  0  0  0  0  0
   57.4076   22.9553   47.3910 H   0  0  0  0  0  0  0  0  0  0  0  0
   56.2140   26.4420   46.2840 C   0  0  0  0  0  0  0  0  0  0  0  0
   54.8450   26.3380   45.9910 O   0  0  0  0  0  0  0  0  0  0  0  0
   54.1930   25.1330   45.6000 C   0  0  0  0  0  0  0  0  0  0  0  0
   53.8898   24.5726   46.4967 H   0  0  0  0  0  0  0  0  0  0  0  0
   53.3030   25.3755   45.0007 H   0  0  0  0  0  0  0  0  0  0  0  0
   54.8829   24.5206   45.0007 H   0  0  0  0  0  0  0  0  0  0  0  0
   57.0100   27.4880   45.7790 C   0  0  0  0  0  0  0  0  0  0  0  0
   56.5572   28.2541   45.1324 H   0  0  0  0  0  0  0  0  0  0  0  0
   57.5400   29.4230   43.7510 C   0  0  0  0  0  0  0  0  0  0  0  0
   58.1347   29.1794   42.8583 H   0  0  0  0  0  0  0  0  0  0  0  0
   56.9191   28.5720   44.0677 H   0  0  0  0  0  0  0  0  0  0  0  0
   56.6020   30.5830   43.4140 C   0  0  0  0  0  0  0  0  0  0  0  0
   56.0398   30.3418   42.4998 H   0  0  0  0  0  0  0  0  0  0  0  0
   55.9072   30.7378   44.2526 H   0  0  0  0  0  0  0  0  0  0  0  0
   57.4030   31.8600   43.1900 C   0  0  0  0  0  0  0  0  0  0  0  0
   58.0782   31.7215   42.3327 H   0  0  0  0  0  0  0  0  0  0  0  0
   56.7111   32.6909   42.9877 H   0  0  0  0  0  0  0  0  0  0  0  0
  1  2  1  0
  2  3  2  0
  3  4  1  0
  4  5  2  0
  4  6  1  0
  6  7  1  0
  6  8  2  0
  8  9  1  0
  9 10  1  0
  9 11  1  0
  8 12  1  0
 12 13  1  0
 13 14  1  0
 13 15  1  0
 13 16  1  0
  2 17  1  0
 17 18  2  0
 18 19  1  0
 18 20  1  0
 20 21  1  0
 20 22  2  0
 22 23  1  0
 23 24  2  0
 24 25  1  0
 23 26  1  0
 26 27  1  0
 27 28  1  0
 27 29  1  0
 27 30  1  0
 30 31  2  0
 31 32  1  0
 31 33  1  0
 33 34  1  0
 33 35  2  0
 35 36  1  0
 36 37  1  0
 37 38  1  0
 37 39  1  0
 37 40  1  0
 35 41  1  0
 41 42  1  0
 42 43  1  0
 43 44  1  0
 43 45  1  0
 43 46  1  0
 41 47  2  0
 47 48  1  0
 26 49  1  0
 49 50  1  0
 49 51  1  0
 49 52  1  0
 52 53  1  0
 52 54  1  0
 52 55  1  0
 55 56  1  0
 55 57  1  0
 12  3  1  0
 24 17  1  0
 47 30  1  0
 55 22  1  0
M  CHG  1   6   1
M  END
>  <UniqueID>  (82) 
76

>  <SMILES>  (82) 
COc1ccc(CN2CCCc3ccc(/C=C4\C(=O)[NH+]=C(N)N4C)cc32)cc1OC

>  <Energy>  (82) 
97.84913607243783

>  <Genealogy>  (82) 
COc1ccc(CN2CCCc3ccc(C=C4C(=O)[NH+]=C(N)N4C)cc32)cc1OC (protonated)
COc1ccc(CN2CCCc3ccc(/C=C4\C(=O)[NH+]=C(N)N4C)cc32)cc1OC (cis-trans isomerization)
COc1ccc(CN2CCCc3ccc(/C=C4\C(=O)[NH+]=C(N)N4C)cc32)cc1OC (3D coordinates assigned)
COc1ccc(CN2CCCc3ccc(/C=C4\C(=O)[NH+]=C(N)N4C)cc32)cc1OC (nonaromatic ring conformer: 97.84913607243783 kcal/mol)

>  <smiles>  (82) 
COc1ccc(CN2CCCc3ccc(C=C4C(=O)N=C(N)N4C)cc32)cc1OC

>  <score_type>  (82) 
oracle

>  <origin>  (82) 
adg

>  <m_score__min__energy>  (82) 
-8.8000000000000007

>  <m_primary>  (82) 
energy

$$$$
82:0
     RDKit          3D

 49 52  0  0  0  0  0  0  0  0999 V2000
   60.0890   27.7190   48.7740 C   0  0  0  0  0  0  0  0  0  0  0  0
   59.5720   28.7750   48.1230 C   0  0  0  0  0  0  0  0  0  0  0  0
   58.7730   28.7280   46.9690 C   0  0  0  0  0  0  0  0  0  0  0  0
   58.5200   27.7240   46.1070 C   0  0  0  0  0  0  0  0  0  0  0  0
   57.3020   26.8970   46.0780 C   0  0  0  0  0  0  0  0  0  0  0  0
   57.2500   25.6470   46.5730 N   0  0  0  0  0  0  0  0  0  0  0  0
   55.9520   25.3070   46.4250 C   0  0  0  0  0  0  0  0  0  0  0  0
   55.5090   24.1700   46.7480 O   0  0  0  0  0  0  0  0  0  0  0  0
   55.1690   26.2670   45.8900 N   0  0  0  0  0  0  0  0  0  0  0  0
   56.0310   27.2770   45.6900 C   0  0  0  0  0  0  0  0  0  0  0  0
   55.6450   28.5150   45.1870 O   0  0  0  0  0  0  0  0  0  0  0  0
   58.2500   29.9960   46.8110 C   0  0  0  0  0  0  0  0  0  0  0  0
   58.8080   30.7880   47.7900 C   0  0  0  0  0  0  0  0  0  0  0  0
   58.5210   32.2280   47.9390 C   0  0  0  0  0  0  0  0  0  0  0  0
   58.1960   32.6990   49.0610 O   0  0  0  0  0  0  0  0  0  0  0  0
   58.6710   33.1150   46.8260 N   0  0  0  0  0  0  0  0  0  0  0  0
   57.8550   32.9050   45.6300 C   0  0  0  0  0  0  0  0  0  0  0  0
   57.7180   34.2250   44.8710 C   0  0  0  0  0  0  0  0  0  0  0  0
   58.9940   34.7820   44.6170 O   0  0  0  0  0  0  0  0  0  0  0  0
   59.5960   35.1640   45.8390 C   0  0  0  0  0  0  0  0  0  0  0  0
   59.8700   33.9470   46.7330 C   0  0  0  0  0  0  0  0  0  0  0  0
   59.6250   30.0560   48.5890 N   0  0  0  0  0  0  0  0  0  0  0  0
   60.2990   30.5540   49.8010 C   0  0  0  0  0  0  0  0  0  0  0  0
   61.0930   31.8120   49.5240 C   0  0  0  0  0  0  0  0  0  0  0  0
   61.0770   32.8920   50.4290 C   0  0  0  0  0  0  0  0  0  0  0  0
   61.8350   34.0370   50.1740 C   0  0  0  0  0  0  0  0  0  0  0  0
   62.6410   34.1070   49.0340 C   0  0  0  0  0  0  0  0  0  0  0  0
   62.6910   33.0300   48.1420 C   0  0  0  0  0  0  0  0  0  0  0  0
   63.7280   33.1190   46.7240 Cl  0  0  0  0  0  0  0  0  0  0  0  0
   61.9220   31.8830   48.3860 C   0  0  0  0  0  0  0  0  0  0  0  0
   61.9950   30.8370   47.5210 F   0  0  0  0  0  0  0  0  0  0  0  0
   60.7040   27.8742   49.6727 H   0  0  0  0  0  0  0  0  0  0  0  0
   59.8972   26.6995   48.4081 H   0  0  0  0  0  0  0  0  0  0  0  0
   59.2933   27.5019   45.3569 H   0  0  0  0  0  0  0  0  0  0  0  0
   54.7650   28.9390   45.4420 H   0  0  0  0  0  0  0  0  0  0  0  0
   57.5247   30.3137   46.0475 H   0  0  0  0  0  0  0  0  0  0  0  0
   58.3377   32.1579   44.9829 H   0  0  0  0  0  0  0  0  0  0  0  0
   56.8581   32.5447   45.9238 H   0  0  0  0  0  0  0  0  0  0  0  0
   57.2054   34.0421   43.9151 H   0  0  0  0  0  0  0  0  0  0  0  0
   57.1359   34.9300   45.4827 H   0  0  0  0  0  0  0  0  0  0  0  0
   60.5477   35.6727   45.6255 H   0  0  0  0  0  0  0  0  0  0  0  0
   58.9051   35.8352   46.3702 H   0  0  0  0  0  0  0  0  0  0  0  0
   60.6912   33.3557   46.3018 H   0  0  0  0  0  0  0  0  0  0  0  0
   60.1482   34.2934   47.7393 H   0  0  0  0  0  0  0  0  0  0  0  0
   59.5399   30.7730   50.5664 H   0  0  0  0  0  0  0  0  0  0  0  0
   60.9970   29.7779   50.1482 H   0  0  0  0  0  0  0  0  0  0  0  0
   60.4645   32.8330   51.3408 H   0  0  0  0  0  0  0  0  0  0  0  0
   61.7977   34.8862   50.8722 H   0  0  0  0  0  0  0  0  0  0  0  0
   63.2371   35.0104   48.8378 H   0  0  0  0  0  0  0  0  0  0  0  0
  1  2  2  0
  2  3  1  0
  3  4  2  3
  4  5  1  0
  5  6  1  0
  6  7  1  0
  7  8  2  0
  7  9  1  0
  9 10  1  0
 10 11  1  0
  3 12  1  0
 12 13  2  0
 13 14  1  0
 14 15  2  0
 14 16  1  0
 16 17  1  0
 17 18  1  0
 18 19  1  0
 19 20  1  0
 20 21  1  0
 13 22  1  0
 22 23  1  0
 23 24  1  0
 24 25  2  0
 25 26  1  0
 26 27  2  0
 27 28  1  0
 28 29  1  0
 28 30  2  0
 30 31  1  0
 22  2  1  0
 30 24  1  0
 10  5  2  0
 21 16  1  0
  1 32  1  0
  1 33  1  0
  4 34  1  0
 11 35  1  0
 12 36  1  0
 17 37  1  0
 17 38  1  0
 18 39  1  0
 18 40  1  0
 20 41  1  0
 20 42  1  0
 21 43  1  0
 21 44  1  0
 23 45  1  0
 23 46  1  0
 25 47  1  0
 26 48  1  0
 27 49  1  0
M  CHG  2   6  -1   9  -1
M  END
>  <UniqueID>  (83) 
77

>  <SMILES>  (83) 
C=c1c(=Cc2[n-]c(=O)[n-]c2O)cc(C(=O)N2CCOCC2)n1Cc1cccc(Cl)c1F

>  <Energy>  (83) 
132.19093885293285

>  <Genealogy>  (83) 
C=c1c(=Cc2[n-]c(=O)[n-]c2O)cc(C(=O)N2CCOCC2)n1Cc1cccc(Cl)c1F (protonated)
C=c1c(=Cc2[n-]c(=O)[n-]c2O)cc(C(=O)N2CCOCC2)n1Cc1cccc(Cl)c1F (3D coordinates assigned)
C=c1c(=Cc2[n-]c(=O)[n-]c2O)cc(C(=O)N2CCOCC2)n1Cc1cccc(Cl)c1F (nonaromatic ring conformer: 132.19093885293285 kcal/mol)

>  <smiles>  (83) 
C=c1c(=Cc2[nH]c(=O)[nH]c2O)cc(C(=O)N2CCOCC2)n1Cc1cccc(Cl)c1F

>  <score_type>  (83) 
oracle

>  <origin>  (83) 
adg

>  <m_score__min__energy>  (83) 
-13.82

>  <m_primary>  (83) 
energy

$$$$
83:0
     RDKit          3D

 51 53  0  0  0  0  0  0  0  0999 V2000
   61.2872   29.0343   51.4066 H   0  0  0  0  0  0  0  0  0  0  0  0
   60.9540   29.1770   50.3680 C   0  0  0  0  0  0  0  0  0  0  0  0
   61.0290   30.4050   49.7940 N   0  0  0  0  0  0  0  0  0  0  0  0
   60.6220   30.6040   48.5100 C   0  0  0  0  0  0  0  0  0  0  0  0
   60.6910   31.7800   47.9610 N   0  0  0  0  0  0  0  0  0  0  0  0
   59.6320   32.7880   48.0050 C   0  0  0  0  0  0  0  0  0  0  0  0
   60.0673   33.7583   48.2859 H   0  0  0  0  0  0  0  0  0  0  0  0
   58.8794   32.4811   48.7462 H   0  0  0  0  0  0  0  0  0  0  0  0
   58.9670   32.9140   46.6590 C   0  0  0  0  0  0  0  0  0  0  0  0
   59.3570   33.9200   45.7610 C   0  0  0  0  0  0  0  0  0  0  0  0
   60.1333   34.6436   46.0506 H   0  0  0  0  0  0  0  0  0  0  0  0
   58.7610   34.0040   44.5000 C   0  0  0  0  0  0  0  0  0  0  0  0
   59.0756   34.7884   43.7959 H   0  0  0  0  0  0  0  0  0  0  0  0
   57.7670   33.0950   44.1310 C   0  0  0  0  0  0  0  0  0  0  0  0
   57.3116   33.1585   43.1317 H   0  0  0  0  0  0  0  0  0  0  0  0
   57.3470   32.1040   45.0250 C   0  0  0  0  0  0  0  0  0  0  0  0
   56.3480   31.1670   44.6020 N   0  0  0  0  0  0  0  0  0  0  0  0
   56.4830   29.7400   44.5510 C   0  0  0  0  0  0  0  0  0  0  0  0
   55.5100   29.0240   44.9060 O   0  0  0  0  0  0  0  0  0  0  0  0
   57.7680   29.0770   44.1320 C   0  0  0  0  0  0  0  0  0  0  0  0
   58.1761   29.6010   43.2552 H   0  0  0  0  0  0  0  0  0  0  0  0
   57.5605   28.0256   43.8840 H   0  0  0  0  0  0  0  0  0  0  0  0
   58.7160   29.1200   45.1830 O   0  0  0  0  0  0  0  0  0  0  0  0
   60.0200   28.9500   44.6700 C   0  0  0  0  0  0  0  0  0  0  0  0
   60.7325   28.8571   45.5029 H   0  0  0  0  0  0  0  0  0  0  0  0
   60.0558   28.0396   44.0537 H   0  0  0  0  0  0  0  0  0  0  0  0
   60.2880   29.8208   44.0537 H   0  0  0  0  0  0  0  0  0  0  0  0
   57.9690   32.0010   46.2820 C   0  0  0  0  0  0  0  0  0  0  0  0
   57.6717   31.1998   46.9746 H   0  0  0  0  0  0  0  0  0  0  0  0
   60.1350   29.5610   47.7910 N   0  0  0  0  0  0  0  0  0  0  0  0
   60.0440   28.3070   48.3150 C   0  0  0  0  0  0  0  0  0  0  0  0
   59.4960   27.2070   47.4780 C   0  0  0  0  0  0  0  0  0  0  0  0
   60.3720   26.3510   46.7860 C   0  0  0  0  0  0  0  0  0  0  0  0
   61.4583   26.5044   46.8661 H   0  0  0  0  0  0  0  0  0  0  0  0
   59.8780   25.3080   45.9980 C   0  0  0  0  0  0  0  0  0  0  0  0
   60.5768   24.6496   45.4611 H   0  0  0  0  0  0  0  0  0  0  0  0
   58.4940   25.0960   45.8880 C   0  0  0  0  0  0  0  0  0  0  0  0
   57.9400   24.0430   45.0870 N   0  0  0  0  0  0  0  0  0  0  0  0
   58.3810   22.3680   45.1660 S   0  0  0  0  0  0  0  0  0  0  0  0
   59.8760   22.2330   45.2530 O   0  0  0  0  0  0  0  0  0  0  0  0
   57.7690   21.7670   46.4000 O   0  0  0  0  0  0  0  0  0  0  0  0
   57.7580   21.5020   43.7420 C   0  0  0  0  0  0  0  0  0  0  0  0
   57.1449   20.6498   44.0704 H   0  0  0  0  0  0  0  0  0  0  0  0
   57.1429   22.1849   43.1376 H   0  0  0  0  0  0  0  0  0  0  0  0
   58.6011   21.1359   43.1376 H   0  0  0  0  0  0  0  0  0  0  0  0
   57.6200   25.9350   46.5870 C   0  0  0  0  0  0  0  0  0  0  0  0
   56.5346   25.7718   46.5139 H   0  0  0  0  0  0  0  0  0  0  0  0
   58.1100   26.9780   47.3770 C   0  0  0  0  0  0  0  0  0  0  0  0
   57.4083   27.6249   47.9240 H   0  0  0  0  0  0  0  0  0  0  0  0
   60.4550   28.0970   49.6420 C   0  0  0  0  0  0  0  0  0  0  0  0
   60.3843   27.0991   50.0993 H   0  0  0  0  0  0  0  0  0  0  0  0
  1  2  1  0
  2  3  1  0
  3  4  1  0
  4  5  2  0
  5  6  1  0
  6  7  1  0
  6  8  1  0
  6  9  1  0
  9 10  2  0
 10 11  1  0
 10 12  1  0
 12 13  1  0
 12 14  2  0
 14 15  1  0
 14 16  1  0
 16 17  1  0
 17 18  1  0
 18 19  2  0
 18 20  1  0
 20 21  1  0
 20 22  1  0
 20 23  1  0
 23 24  1  0
 24 25  1  0
 24 26  1  0
 24 27  1  0
 16 28  2  0
 28 29  1  0
  4 30  1  0
 30 31  2  0
 31 32  1  0
 32 33  2  0
 33 34  1  0
 33 35  1  0
 35 36  1  0
 35 37  2  0
 37 38  1  0
 38 39  1  0
 39 40  2  0
 39 41  2  0
 39 42  1  0
 42 43  1  0
 42 44  1  0
 42 45  1  0
 37 46  1  0
 46 47  1  0
 46 48  2  0
 48 49  1  0
 31 50  1  0
 50 51  1  0
 50  2  2  0
 28  9  1  0
 48 32  1  0
M  CHG  3   3  -1  17  -1  38  -1
M  END
>  <UniqueID>  (84) 
78

>  <SMILES>  (84) 
COCC(=O)[N-]c1cccc(C/N=c2/nc(-c3ccc([N-]S(C)(=O)=O)cc3)cc[n-]2)c1

>  <Energy>  (84) 
62.02473949759986

>  <Genealogy>  (84) 
COCC(=O)[N-]c1cccc(CN=c2nc(-c3ccc([N-]S(C)(=O)=O)cc3)cc[n-]2)c1 (protonated)
COCC(=O)[N-]c1cccc(C/N=c2/nc(-c3ccc([N-]S(C)(=O)=O)cc3)cc[n-]2)c1 (cis-trans isomerization)
COCC(=O)[N-]c1cccc(C/N=c2/nc(-c3ccc([N-]S(C)(=O)=O)cc3)cc[n-]2)c1 (3D coordinates assigned)
COCC(=O)[N-]c1cccc(C/N=c2/nc(-c3ccc([N-]S(C)(=O)=O)cc3)cc[n-]2)c1 (optimized conformer: 62.02473949759986 kcal/mol)

>  <smiles>  (84) 
COCC(=O)Nc1cccc(CN=c2nc(-c3ccc(NS(C)(=O)=O)cc3)cc[nH]2)c1

>  <score_type>  (84) 
oracle

>  <origin>  (84) 
adg

>  <m_score__min__energy>  (84) 
-12.41

>  <m_primary>  (84) 
energy

$$$$
84:0
     RDKit          3D

 55 58  0  0  0  0  0  0  0  0999 V2000
   64.3880   32.9324   48.7392 H   0  0  0  0  0  0  0  0  0  0  0  0
   63.4180   33.1920   48.2900 C   0  0  0  0  0  0  0  0  0  0  0  0
   62.2670   33.2320   49.0850 C   0  0  0  0  0  0  0  0  0  0  0  0
   62.3331   33.0052   50.1593 H   0  0  0  0  0  0  0  0  0  0  0  0
   61.0330   33.5600   48.5150 C   0  0  0  0  0  0  0  0  0  0  0  0
   60.1307   33.5978   49.1430 H   0  0  0  0  0  0  0  0  0  0  0  0
   60.9440   33.8410   47.1430 C   0  0  0  0  0  0  0  0  0  0  0  0
   59.3980   34.2740   46.4280 S   0  0  0  0  0  0  0  0  0  0  0  0
   59.6050   35.2690   45.3190 O   0  0  0  0  0  0  0  0  0  0  0  0
   58.5140   34.9090   47.4650 O   0  0  0  0  0  0  0  0  0  0  0  0
   58.6370   32.8210   45.7970 C   0  0  0  0  0  0  0  0  0  0  0  0
   57.4200   32.9040   45.1070 C   0  0  0  0  0  0  0  0  0  0  0  0
   56.9224   33.8779   44.9891 H   0  0  0  0  0  0  0  0  0  0  0  0
   56.8360   31.7540   44.5680 C   0  0  0  0  0  0  0  0  0  0  0  0
   55.8732   31.8235   44.0405 H   0  0  0  0  0  0  0  0  0  0  0  0
   57.4750   30.5100   44.6980 C   0  0  0  0  0  0  0  0  0  0  0  0
   56.8580   29.2720   44.1160 C   0  0  0  0  0  0  0  0  0  0  0  0
   57.6522   28.5647   43.8350 H   0  0  0  0  0  0  0  0  0  0  0  0
   56.2716   29.5406   43.2250 H   0  0  0  0  0  0  0  0  0  0  0  0
   55.9820   28.6510   45.1030 N   0  0  0  0  0  0  0  0  0  0  0  0
   56.2630   27.3930   45.7290 C   0  0  0  0  0  0  0  0  0  0  0  0
   55.3160   26.5960   45.9660 O   0  0  0  0  0  0  0  0  0  0  0  0
   57.6380   27.0230   46.1190 C   0  0  0  0  0  0  0  0  0  0  0  0
   58.2800   25.8930   45.5740 C   0  0  0  0  0  0  0  0  0  0  0  0
   57.5960   25.0120   44.5610 C   0  0  0  0  0  0  0  0  0  0  0  0
   57.0019   24.2468   45.0822 H   0  0  0  0  0  0  0  0  0  0  0  0
   56.9339   25.6238   43.9306 H   0  0  0  0  0  0  0  0  0  0  0  0
   58.3528   24.5222   43.9306 H   0  0  0  0  0  0  0  0  0  0  0  0
   59.5740   25.5780   46.0110 C   0  0  0  0  0  0  0  0  0  0  0  0
   60.0938   24.7039   45.5916 H   0  0  0  0  0  0  0  0  0  0  0  0
   60.1920   26.3440   46.9490 N   0  0  0  0  0  0  0  0  0  0  0  0
   61.1530   26.0710   47.2580 H   0  0  0  0  0  0  0  0  0  0  0  0
   59.5940   27.4400   47.4990 C   0  0  0  0  0  0  0  0  0  0  0  0
   60.2370   28.1200   48.4090 N   0  0  0  0  0  0  0  0  0  0  0  0
   60.3300   29.5810   48.5000 C   0  0  0  0  0  0  0  0  0  0  0  0
   60.7025   29.8434   47.4988 H   0  0  0  0  0  0  0  0  0  0  0  0
   59.0480   30.2190   49.0370 C   0  0  0  0  0  0  0  0  0  0  0  0
   58.6688   31.0504   48.4247 H   0  0  0  0  0  0  0  0  0  0  0  0
   58.1226   29.6298   49.1177 H   0  0  0  0  0  0  0  0  0  0  0  0
   59.7960   30.6580   50.2880 C   0  0  0  0  0  0  0  0  0  0  0  0
   59.8599   31.7491   50.4124 H   0  0  0  0  0  0  0  0  0  0  0  0
   59.4151   30.3910   51.2848 H   0  0  0  0  0  0  0  0  0  0  0  0
   61.0720   30.0180   49.7560 C   0  0  0  0  0  0  0  0  0  0  0  0
   61.8883   30.7315   49.5699 H   0  0  0  0  0  0  0  0  0  0  0  0
   61.6204   29.2824   50.3627 H   0  0  0  0  0  0  0  0  0  0  0  0
   58.2990   27.7990   47.0790 C   0  0  0  0  0  0  0  0  0  0  0  0
   57.8078   28.6868   47.5039 H   0  0  0  0  0  0  0  0  0  0  0  0
   58.6870   30.4280   45.4010 C   0  0  0  0  0  0  0  0  0  0  0  0
   59.1818   29.4538   45.5276 H   0  0  0  0  0  0  0  0  0  0  0  0
   59.2680   31.5790   45.9410 C   0  0  0  0  0  0  0  0  0  0  0  0
   60.2239   31.5090   46.4808 H   0  0  0  0  0  0  0  0  0  0  0  0
   62.1020   33.8090   46.3520 C   0  0  0  0  0  0  0  0  0  0  0  0
   62.0401   34.0416   45.2787 H   0  0  0  0  0  0  0  0  0  0  0  0
   63.3350   33.4820   46.9250 C   0  0  0  0  0  0  0  0  0  0  0  0
   64.2404   33.4529   46.3010 H   0  0  0  0  0  0  0  0  0  0  0  0
  1  2  1  0
  2  3  2  0
  3  4  1  0
  3  5  1  0
  5  6  1  0
  5  7  2  0
  7  8  1  0
  8  9  2  0
  8 10  2  0
  8 11  1  0
 11 12  2  0
 12 13  1  0
 12 14  1  0
 14 15  1  0
 14 16  2  0
 16 17  1  0
 17 18  1  0
 17 19  1  0
 17 20  1  0
 20 21  1  0
 21 22  2  0
 21 23  1  0
 23 24  1  0
 24 25  1  0
 25 26  1  0
 25 27  1  0
 25 28  1  0
 24 29  2  0
 29 30  1  0
 29 31  1  0
 31 32  1  0
 31 33  1  0
 33 34  2  0
 34 35  1  0
 35 36  1  0
 35 37  1  0
 37 38  1  0
 37 39  1  0
 37 40  1  0
 40 41  1  0
 40 42  1  0
 40 43  1  0
 43 44  1  0
 43 45  1  0
 33 46  1  0
 46 47  1  0
 16 48  1  0
 48 49  1  0
 48 50  2  0
 50 51  1  0
  7 52  1  0
 52 53  1  0
 52 54  2  0
 54 55  1  0
 54  2  1  0
 50 11  1  0
 46 23  2  0
 43 35  1  0
M  CHG  1  20  -1
M  END
>  <UniqueID>  (85) 
79

>  <SMILES>  (85) 
Cc1c[nH]/c(=N/C2CCC2)cc1C(=O)[N-]Cc1ccc(S(=O)(=O)c2ccccc2)cc1

>  <Energy>  (85) 
125.0055987841809

>  <Genealogy>  (85) 
Cc1c[nH]c(=NC2CCC2)cc1C(=O)[N-]Cc1ccc(S(=O)(=O)c2ccccc2)cc1 (protonated)
Cc1c[nH]/c(=N/C2CCC2)cc1C(=O)[N-]Cc1ccc(S(=O)(=O)c2ccccc2)cc1 (cis-trans isomerization)
Cc1c[nH]/c(=N/C2CCC2)cc1C(=O)[N-]Cc1ccc(S(=O)(=O)c2ccccc2)cc1 (3D coordinates assigned)
Cc1c[nH]/c(=N/C2CCC2)cc1C(=O)[N-]Cc1ccc(S(=O)(=O)c2ccccc2)cc1 (nonaromatic ring conformer: 125.0055987841809 kcal/mol)

>  <smiles>  (85) 
Cc1c[nH]c(=NC2CCC2)cc1C(=O)NCc1ccc(S(=O)(=O)c2ccccc2)cc1

>  <score_type>  (85) 
oracle

>  <origin>  (85) 
adg

>  <m_score__min__energy>  (85) 
-11.58

>  <m_primary>  (85) 
energy

$$$$
85:0
     RDKit          3D

 30 32  0  0  0  0  0  0  0  0999 V2000
   59.4476   29.4001   47.9997 H   0  0  0  0  0  0  0  0  0  0  0  0
   58.9930   28.6690   47.3150 C   0  0  0  0  0  0  0  0  0  0  0  0
   59.1225   27.5917   47.4958 H   0  0  0  0  0  0  0  0  0  0  0  0
   58.2810   29.0910   46.2600 C   0  0  0  0  0  0  0  0  0  0  0  0
   57.6330   28.3140   45.2870 C   0  0  0  0  0  0  0  0  0  0  0  0
   57.7130   26.9950   45.0330 C   0  0  0  0  0  0  0  0  0  0  0  0
   58.2333   26.6925   44.1122 H   0  0  0  0  0  0  0  0  0  0  0  0
   57.1660   25.9210   45.8780 C   0  0  0  0  0  0  0  0  0  0  0  0
   55.8510   25.7730   46.2520 C   0  0  0  0  0  0  0  0  0  0  0  0
   54.8300   26.6800   46.0010 O   0  0  0  0  0  0  0  0  0  0  0  0
   55.6710   24.6060   46.9010 N   0  0  0  0  0  0  0  0  0  0  0  0
   56.9070   24.0590   46.8790 C   0  0  0  0  0  0  0  0  0  0  0  0
   57.1650   22.9350   47.3810 O   0  0  0  0  0  0  0  0  0  0  0  0
   57.8320   24.8170   46.2570 N   0  0  0  0  0  0  0  0  0  0  0  0
   58.8330   24.5770   46.0780 H   0  0  0  0  0  0  0  0  0  0  0  0
   56.8380   29.1160   44.5440 N   0  0  0  0  0  0  0  0  0  0  0  0
   57.0500   30.3500   45.0370 C   0  0  0  0  0  0  0  0  0  0  0  0
   56.4620   31.3700   44.5890 O   0  0  0  0  0  0  0  0  0  0  0  0
   57.9330   30.3850   46.0550 N   0  0  0  0  0  0  0  0  0  0  0  0
   58.2820   31.5650   46.8540 C   0  0  0  0  0  0  0  0  0  0  0  0
   57.5030   31.7350   47.6118 H   0  0  0  0  0  0  0  0  0  0  0  0
   59.2508   31.3937   47.3461 H   0  0  0  0  0  0  0  0  0  0  0  0
   58.3860   32.7690   45.9720 C   0  0  0  0  0  0  0  0  0  0  0  0
   59.4480   33.0640   45.2570 O   0  0  0  0  0  0  0  0  0  0  0  0
   59.2090   34.1700   44.5910 C   0  0  0  0  0  0  0  0  0  0  0  0
   59.9158   34.6633   43.9076 H   0  0  0  0  0  0  0  0  0  0  0  0
   57.9350   34.6200   44.8790 C   0  0  0  0  0  0  0  0  0  0  0  0
   57.4450   35.5191   44.4770 H   0  0  0  0  0  0  0  0  0  0  0  0
   57.4020   33.7160   45.7710 C   0  0  0  0  0  0  0  0  0  0  0  0
   56.4016   33.7430   46.2276 H   0  0  0  0  0  0  0  0  0  0  0  0
  1  2  1  0
  2  3  1  0
  2  4  2  0
  4  5  1  0
  5  6  2  0
  6  7  1  0
  6  8  1  0
  8  9  2  0
  9 10  1  0
  9 11  1  0
 11 12  1  0
 12 13  2  0
 12 14  1  0
 14 15  1  0
  5 16  1  0
 16 17  1  0
 17 18  2  0
 17 19  1  0
 19 20  1  0
 20 21  1  0
 20 22  1  0
 20 23  1  0
 23 24  1  0
 24 25  1  0
 25 26  1  0
 25 27  2  0
 27 28  1  0
 27 29  1  0
 29 30  1  0
 19  4  1  0
 29 23  2  0
 14  8  1  0
M  CHG  3  10  -1  11  -1  16  -1
M  END
>  <UniqueID>  (86) 
80

>  <SMILES>  (86) 
C=c1/c(=C\c2[nH]c(=O)[n-]c2[O-])[n-]c(=O)n1Cc1ccco1

>  <Energy>  (86) 
131.31847424380484

>  <Genealogy>  (86) 
C=c1c(=Cc2[nH]c(=O)[n-]c2[O-])[n-]c(=O)n1Cc1ccco1 (protonated)
C=c1/c(=C\c2[nH]c(=O)[n-]c2[O-])[n-]c(=O)n1Cc1ccco1 (cis-trans isomerization)
C=c1/c(=C\c2[nH]c(=O)[n-]c2[O-])[n-]c(=O)n1Cc1ccco1 (3D coordinates assigned)
C=c1/c(=C\c2[nH]c(=O)[n-]c2[O-])[n-]c(=O)n1Cc1ccco1 (optimized conformer: 131.31847424380484 kcal/mol)

>  <smiles>  (86) 
C=c1c(=Cc2[nH]c(=O)[nH]c2O)[nH]c(=O)n1Cc1ccco1

>  <score_type>  (86) 
oracle

>  <origin>  (86) 
adg

>  <m_score__min__energy>  (86) 
-14.69

>  <m_primary>  (86) 
energy

$$$$
86:0
     RDKit          3D

 45 47  0  0  0  0  0  0  0  0999 V2000
   58.9206   30.6228   48.5103 H   0  0  0  0  0  0  0  0  0  0  0  0
   58.8820   29.7350   47.8620 C   0  0  0  0  0  0  0  0  0  0  0  0
   59.1321   28.7446   48.2702 H   0  0  0  0  0  0  0  0  0  0  0  0
   58.5300   29.8600   46.5740 C   0  0  0  0  0  0  0  0  0  0  0  0
   58.4290   28.8440   45.6130 C   0  0  0  0  0  0  0  0  0  0  0  0
   58.4540   27.5030   45.7350 C   0  0  0  0  0  0  0  0  0  0  0  0
   59.4384   27.0134   45.6993 H   0  0  0  0  0  0  0  0  0  0  0  0
   57.2780   26.6360   45.9120 C   0  0  0  0  0  0  0  0  0  0  0  0
   57.3070   25.4050   46.4560 N   0  0  0  0  0  0  0  0  0  0  0  0
   56.0020   25.0700   46.5380 C   0  0  0  0  0  0  0  0  0  0  0  0
   55.6140   23.9610   46.9910 O   0  0  0  0  0  0  0  0  0  0  0  0
   55.1430   26.0200   46.1100 N   0  0  0  0  0  0  0  0  0  0  0  0
   55.9680   27.0100   45.7310 C   0  0  0  0  0  0  0  0  0  0  0  0
   55.5330   28.2320   45.2360 O   0  0  0  0  0  0  0  0  0  0  0  0
   58.2730   29.4840   44.3950 C   0  0  0  0  0  0  0  0  0  0  0  0
   58.2075   29.0021   43.4084 H   0  0  0  0  0  0  0  0  0  0  0  0
   58.2150   30.8410   44.6500 C   0  0  0  0  0  0  0  0  0  0  0  0
   58.1160   31.8770   43.5710 C   0  0  0  0  0  0  0  0  0  0  0  0
   58.0208   32.8735   44.0271 H   0  0  0  0  0  0  0  0  0  0  0  0
   59.0214   31.8443   42.9471 H   0  0  0  0  0  0  0  0  0  0  0  0
   57.2332   31.6734   42.9471 H   0  0  0  0  0  0  0  0  0  0  0  0
   58.3600   31.0640   45.9820 N   0  0  0  0  0  0  0  0  0  0  0  0
   58.4310   32.2690   46.6710 O   0  0  0  0  0  0  0  0  0  0  0  0
   57.5060   33.3400   46.5250 C   0  0  0  0  0  0  0  0  0  0  0  0
   56.5871   32.9684   46.0480 H   0  0  0  0  0  0  0  0  0  0  0  0
   57.2638   33.7529   47.5154 H   0  0  0  0  0  0  0  0  0  0  0  0
   58.1140   34.4130   45.6710 C   0  0  0  0  0  0  0  0  0  0  0  0
   57.4290   34.9220   44.7460 O   0  0  0  0  0  0  0  0  0  0  0  0
   59.4450   34.9000   45.8960 N   0  0  0  0  0  0  0  0  0  0  0  0
   60.4150   34.3500   46.7970 C   0  0  0  0  0  0  0  0  0  0  0  0
   60.2170   34.3530   48.1870 C   0  0  0  0  0  0  0  0  0  0  0  0
   59.3059   34.8022   48.6091 H   0  0  0  0  0  0  0  0  0  0  0  0
   61.1720   33.7880   49.0370 C   0  0  0  0  0  0  0  0  0  0  0  0
   61.0127   33.8102   50.1252 H   0  0  0  0  0  0  0  0  0  0  0  0
   62.3350   33.1910   48.5160 C   0  0  0  0  0  0  0  0  0  0  0  0
   63.3430   32.5970   49.4340 C   0  0  0  0  0  0  0  0  0  0  0  0
   63.4050   31.3440   49.5670 O   0  0  0  0  0  0  0  0  0  0  0  0
   64.3010   33.4450   50.2160 C   0  0  0  0  0  0  0  0  0  0  0  0
   64.1303   33.2939   51.2921 H   0  0  0  0  0  0  0  0  0  0  0  0
   65.3331   33.1591   49.9648 H   0  0  0  0  0  0  0  0  0  0  0  0
   64.1425   34.5041   49.9648 H   0  0  0  0  0  0  0  0  0  0  0  0
   62.5110   33.1660   47.1180 C   0  0  0  0  0  0  0  0  0  0  0  0
   63.4094   32.6974   46.6898 H   0  0  0  0  0  0  0  0  0  0  0  0
   61.5530   33.7320   46.2700 C   0  0  0  0  0  0  0  0  0  0  0  0
   61.6962   33.6905   45.1802 H   0  0  0  0  0  0  0  0  0  0  0  0
  1  2  1  0
  2  3  1  0
  2  4  2  0
  4  5  1  0
  5  6  2  0
  6  7  1  0
  6  8  1  0
  8  9  1  0
  9 10  1  0
 10 11  2  0
 10 12  1  0
 12 13  1  0
 13 14  1  0
  5 15  1  0
 15 16  1  0
 15 17  2  0
 17 18  1  0
 18 19  1  0
 18 20  1  0
 18 21  1  0
 17 22  1  0
 22 23  1  0
 23 24  1  0
 24 25  1  0
 24 26  1  0
 24 27  1  0
 27 28  2  0
 27 29  1  0
 29 30  1  0
 30 31  2  0
 31 32  1  0
 31 33  1  0
 33 34  1  0
 33 35  2  0
 35 36  1  0
 36 37  2  0
 36 38  1  0
 38 39  1  0
 38 40  1  0
 38 41  1  0
 35 42  1  0
 42 43  1  0
 42 44  2  0
 44 45  1  0
 22  4  1  0
 44 30  1  0
 13  8  2  0
M  CHG  4   9  -1  12  -1  14  -1  29  -1
M  END
>  <UniqueID>  (87) 
81

>  <SMILES>  (87) 
C=c1/c(=C\c2[n-]c(=O)[n-]c2[O-])cc(C)n1OCC(=O)[N-]c1ccc(C(C)=O)cc1

>  <Energy>  (87) 
121.96507351875417

>  <Genealogy>  (87) 
C=c1c(=Cc2[n-]c(=O)[n-]c2[O-])cc(C)n1OCC(=O)[N-]c1ccc(C(C)=O)cc1 (protonated)
C=c1/c(=C\c2[n-]c(=O)[n-]c2[O-])cc(C)n1OCC(=O)[N-]c1ccc(C(C)=O)cc1 (cis-trans isomerization)
C=c1/c(=C\c2[n-]c(=O)[n-]c2[O-])cc(C)n1OCC(=O)[N-]c1ccc(C(C)=O)cc1 (3D coordinates assigned)
C=c1/c(=C\c2[n-]c(=O)[n-]c2[O-])cc(C)n1OCC(=O)[N-]c1ccc(C(C)=O)cc1 (optimized conformer: 121.96507351875417 kcal/mol)

>  <smiles>  (87) 
C=c1c(=Cc2[nH]c(=O)[nH]c2O)cc(C)n1OCC(=O)Nc1ccc(C(C)=O)cc1

>  <score_type>  (87) 
oracle

>  <origin>  (87) 
adg

>  <m_score__min__energy>  (87) 
-17.91

>  <m_primary>  (87) 
energy

$$$$
87:0
     RDKit          3D

 51 54  0  0  0  0  0  0  0  0999 V2000
   53.9640   29.5130   54.6660 C   0  0  0  0  0  0  0  0  0  0  0  0
   54.4870   30.0200   53.5390 C   0  0  0  0  0  0  0  0  0  0  0  0
   53.7470   30.5010   52.4500 C   0  0  0  0  0  0  0  0  0  0  0  0
   52.4070   30.4320   52.2820 C   0  0  0  0  0  0  0  0  0  0  0  0
   51.6890   30.7810   51.0340 C   0  0  0  0  0  0  0  0  0  0  0  0
   51.6430   30.0250   49.9280 N   0  0  0  0  0  0  0  0  0  0  0  0
   51.0410   30.8250   49.0180 C   0  0  0  0  0  0  0  0  0  0  0  0
   50.8260   30.4580   47.8330 O   0  0  0  0  0  0  0  0  0  0  0  0
   50.7000   32.0520   49.4760 N   0  0  0  0  0  0  0  0  0  0  0  0
   51.1330   32.0060   50.7450 C   0  0  0  0  0  0  0  0  0  0  0  0
   51.0230   33.0730   51.6260 O   0  0  0  0  0  0  0  0  0  0  0  0
   54.6640   31.0970   51.5950 C   0  0  0  0  0  0  0  0  0  0  0  0
   55.9060   30.9500   52.1610 C   0  0  0  0  0  0  0  0  0  0  0  0
   57.1670   31.5290   51.5860 C   0  0  0  0  0  0  0  0  0  0  0  0
   55.8140   30.2650   53.3330 N   0  0  0  0  0  0  0  0  0  0  0  0
   56.8820   30.0760   54.2520 N   0  0  0  0  0  0  0  0  0  0  0  0
   57.5050   28.7790   54.0790 C   0  0  0  0  0  0  0  0  0  0  0  0
   56.8130   27.6160   54.4790 C   0  0  0  0  0  0  0  0  0  0  0  0
   57.4200   26.3580   54.4070 C   0  0  0  0  0  0  0  0  0  0  0  0
   58.7170   26.2390   53.9070 C   0  0  0  0  0  0  0  0  0  0  0  0
   59.4030   27.3650   53.4590 C   0  0  0  0  0  0  0  0  0  0  0  0
   58.7970   28.6360   53.4920 C   0  0  0  0  0  0  0  0  0  0  0  0
   59.5710   29.8050   53.0100 C   0  0  0  0  0  0  0  0  0  0  0  0
   59.7810   30.7550   53.8150 O   0  0  0  0  0  0  0  0  0  0  0  0
   60.0710   29.8940   51.6500 N   0  0  0  0  0  0  0  0  0  0  0  0
   60.3990   31.2380   51.1200 C   0  0  0  0  0  0  0  0  0  0  0  0
   61.2370   31.1660   49.8360 C   0  0  0  0  0  0  0  0  0  0  0  0
   60.7090   30.1960   48.9540 O   0  0  0  0  0  0  0  0  0  0  0  0
   60.9020   28.9100   49.5130 C   0  0  0  0  0  0  0  0  0  0  0  0
   60.0220   28.7180   50.7560 C   0  0  0  0  0  0  0  0  0  0  0  0
   54.6269   29.1590   55.4693 H   0  0  0  0  0  0  0  0  0  0  0  0
   52.8724   29.4514   54.7866 H   0  0  0  0  0  0  0  0  0  0  0  0
   51.8044   30.0909   53.1367 H   0  0  0  0  0  0  0  0  0  0  0  0
   54.4374   31.5949   50.6407 H   0  0  0  0  0  0  0  0  0  0  0  0
   57.8356   31.8360   52.4037 H   0  0  0  0  0  0  0  0  0  0  0  0
   57.6692   30.7713   50.9666 H   0  0  0  0  0  0  0  0  0  0  0  0
   56.9197   32.4037   50.9666 H   0  0  0  0  0  0  0  0  0  0  0  0
   57.6260   30.7920   54.0810 H   0  0  0  0  0  0  0  0  0  0  0  0
   56.5060   30.2320   55.2140 H   0  0  0  0  0  0  0  0  0  0  0  0
   55.7818   27.7000   54.8526 H   0  0  0  0  0  0  0  0  0  0  0  0
   56.8755   25.4637   54.7441 H   0  0  0  0  0  0  0  0  0  0  0  0
   59.1998   25.2515   53.8665 H   0  0  0  0  0  0  0  0  0  0  0  0
   60.4287   27.2607   53.0754 H   0  0  0  0  0  0  0  0  0  0  0  0
   59.4619   31.7713   50.9021 H   0  0  0  0  0  0  0  0  0  0  0  0
   60.9921   31.7658   51.8813 H   0  0  0  0  0  0  0  0  0  0  0  0
   61.2269   32.1486   49.3415 H   0  0  0  0  0  0  0  0  0  0  0  0
   62.2673   30.8844   50.0990 H   0  0  0  0  0  0  0  0  0  0  0  0
   60.6395   28.1482   48.7642 H   0  0  0  0  0  0  0  0  0  0  0  0
   61.9567   28.8089   49.8088 H   0  0  0  0  0  0  0  0  0  0  0  0
   58.9822   28.5579   50.4349 H   0  0  0  0  0  0  0  0  0  0  0  0
   60.4019   27.8489   51.3130 H   0  0  0  0  0  0  0  0  0  0  0  0
  1  2  2  0
  2  3  1  0
  3  4  2  3
  4  5  1  0
  5  6  1  0
  6  7  1  0
  7  8  2  0
  7  9  1  0
  9 10  1  0
 10 11  1  0
  3 12  1  0
 12 13  2  0
 13 14  1  0
 13 15  1  0
 15 16  1  0
 16 17  1  0
 17 18  2  0
 18 19  1  0
 19 20  2  0
 20 21  1  0
 21 22  2  0
 22 23  1  0
 23 24  2  0
 23 25  1  0
 25 26  1  0
 26 27  1  0
 27 28  1  0
 28 29  1  0
 29 30  1  0
 15  2  1  0
 22 17  1  0
 30 25  1  0
 10  5  2  0
  1 31  1  0
  1 32  1  0
  4 33  1  0
 12 34  1  0
 14 35  1  0
 14 36  1  0
 14 37  1  0
 16 38  1  0
 16 39  1  0
 18 40  1  0
 19 41  1  0
 20 42  1  0
 21 43  1  0
 26 44  1  0
 26 45  1  0
 27 46  1  0
 27 47  1  0
 29 48  1  0
 29 49  1  0
 30 50  1  0
 30 51  1  0
M  CHG  4   6  -1   9  -1  11  -1  16   1
M  END
>  <UniqueID>  (88) 
82

>  <SMILES>  (88) 
C=c1c(=Cc2[n-]c(=O)[n-]c2[O-])cc(C)n1[NH2+]c1ccccc1C(=O)N1CCOCC1

>  <Energy>  (88) 
136.9666108250101

>  <Genealogy>  (88) 
C=c1c(=Cc2[n-]c(=O)[n-]c2[O-])cc(C)n1[NH2+]c1ccccc1C(=O)N1CCOCC1 (protonated)
C=c1c(=Cc2[n-]c(=O)[n-]c2[O-])cc(C)n1[NH2+]c1ccccc1C(=O)N1CCOCC1 (3D coordinates assigned)
C=c1c(=Cc2[n-]c(=O)[n-]c2[O-])cc(C)n1[NH2+]c1ccccc1C(=O)N1CCOCC1 (nonaromatic ring conformer: 136.9666108250101 kcal/mol)

>  <smiles>  (88) 
C=c1c(=Cc2[nH]c(=O)[nH]c2O)cc(C)n1Nc1ccccc1C(=O)N1CCOCC1

>  <score_type>  (88) 
oracle

>  <origin>  (88) 
adg

>  <m_score__min__energy>  (88) 
-15.390000000000001

>  <m_primary>  (88) 
energy

$$$$
88:0
     RDKit          3D

 50 53  0  0  0  0  0  0  0  0999 V2000
   57.7850   26.0050   44.4980 C   0  0  0  0  0  0  0  0  0  0  0  0
   58.6880   27.0670   44.2110 O   0  0  0  0  0  0  0  0  0  0  0  0
   59.0990   28.0310   45.1430 C   0  0  0  0  0  0  0  0  0  0  0  0
   58.3680   28.3080   46.3150 C   0  0  0  0  0  0  0  0  0  0  0  0
   58.8180   29.2800   47.2130 C   0  0  0  0  0  0  0  0  0  0  0  0
   60.0000   29.9860   46.9540 C   0  0  0  0  0  0  0  0  0  0  0  0
   60.5720   31.2210   48.0740 S   0  0  0  0  0  0  0  0  0  0  0  0
   59.3620   31.8880   48.6650 O   0  0  0  0  0  0  0  0  0  0  0  0
   61.3750   30.5790   49.1730 O   0  0  0  0  0  0  0  0  0  0  0  0
   61.5600   32.3910   47.2110 N   0  0  0  0  0  0  0  0  0  0  0  0
   62.9700   31.9750   47.2390 C   0  0  0  0  0  0  0  0  0  0  0  0
   63.6680   32.7200   48.3750 C   0  0  0  0  0  0  0  0  0  0  0  0
   62.6710   33.7540   48.8650 C   0  0  0  0  0  0  0  0  0  0  0  0
   61.5660   33.7400   47.8110 C   0  0  2  0  0  0  0  0  0  0  0  0
   60.2170   34.2300   48.3100 C   0  0  0  0  0  0  0  0  0  0  0  0
   60.0650   34.4600   49.5400 O   0  0  0  0  0  0  0  0  0  0  0  0
   59.0980   34.4850   47.4410 N   0  0  0  0  0  0  0  0  0  0  0  0
   58.7290   33.8910   46.3410 C   0  0  0  0  0  0  0  0  0  0  0  0
   58.0670   32.7080   46.3610 N   0  0  0  0  0  0  0  0  0  0  0  0
   57.8170   32.2460   45.1080 C   0  0  0  0  0  0  0  0  0  0  0  0
   57.1500   31.0520   44.8170 C   0  0  0  0  0  0  0  0  0  0  0  0
   56.9670   30.6880   43.4660 C   0  0  0  0  0  0  0  0  0  0  0  0
   56.2300   29.4240   43.1330 C   0  0  0  0  0  0  0  0  0  0  0  0
   57.4360   31.5360   42.4360 C   0  0  0  0  0  0  0  0  0  0  0  0
   58.1060   32.7300   42.7440 C   0  0  0  0  0  0  0  0  0  0  0  0
   58.2820   33.0560   44.0850 C   0  0  0  0  0  0  0  0  0  0  0  0
   59.0400   34.3990   44.7490 S   0  0  0  0  0  0  0  0  0  0  0  0
   60.7250   29.7160   45.7870 C   0  0  0  0  0  0  0  0  0  0  0  0
   60.2770   28.7420   44.8900 C   0  0  0  0  0  0  0  0  0  0  0  0
   57.6878   25.8907   45.5877 H   0  0  0  0  0  0  0  0  0  0  0  0
   56.8004   26.2335   44.0640 H   0  0  0  0  0  0  0  0  0  0  0  0
   58.1689   25.0699   44.0640 H   0  0  0  0  0  0  0  0  0  0  0  0
   57.4392   27.7570   46.5243 H   0  0  0  0  0  0  0  0  0  0  0  0
   58.2421   29.4913   48.1261 H   0  0  0  0  0  0  0  0  0  0  0  0
   63.0343   30.8904   47.4108 H   0  0  0  0  0  0  0  0  0  0  0  0
   63.4532   32.2096   46.2791 H   0  0  0  0  0  0  0  0  0  0  0  0
   63.9284   32.0243   49.1863 H   0  0  0  0  0  0  0  0  0  0  0  0
   64.6042   33.1884   48.0371 H   0  0  0  0  0  0  0  0  0  0  0  0
   62.2725   33.4745   49.8514 H   0  0  0  0  0  0  0  0  0  0  0  0
   63.1230   34.7493   48.9875 H   0  0  0  0  0  0  0  0  0  0  0  0
   61.7809   34.4833   47.0292 H   0  0  0  0  0  0  0  0  0  0  0  0
   57.7860   32.2090   47.2360 H   0  0  0  0  0  0  0  0  0  0  0  0
   56.7749   30.4083   45.6263 H   0  0  0  0  0  0  0  0  0  0  0  0
   55.9340   28.9163   44.0629 H   0  0  0  0  0  0  0  0  0  0  0  0
   55.3320   29.6669   42.5460 H   0  0  0  0  0  0  0  0  0  0  0  0
   56.8838   28.7622   42.5460 H   0  0  0  0  0  0  0  0  0  0  0  0
   57.2742   31.2573   41.3843 H   0  0  0  0  0  0  0  0  0  0  0  0
   58.4814   33.3895   41.9477 H   0  0  0  0  0  0  0  0  0  0  0  0
   61.6501   30.2722   45.5753 H   0  0  0  0  0  0  0  0  0  0  0  0
   60.8553   28.5329   43.9779 H   0  0  0  0  0  0  0  0  0  0  0  0
  1  2  1  0
  2  3  1  0
  3  4  2  0
  4  5  1  0
  5  6  2  0
  6  7  1  0
  7  8  2  0
  7  9  2  0
  7 10  1  0
 10 11  1  0
 11 12  1  0
 12 13  1  0
 13 14  1  0
 14 15  1  0
 15 16  2  0
 15 17  1  0
 17 18  2  3
 18 19  1  0
 19 20  1  0
 20 21  2  0
 21 22  1  0
 22 23  1  0
 22 24  2  0
 24 25  1  0
 25 26  2  0
 26 27  1  0
  6 28  1  0
 28 29  2  0
 29  3  1  0
 14 10  1  0
 27 18  1  0
 26 20  1  0
  1 30  1  0
  1 31  1  0
  1 32  1  0
  4 33  1  0
  5 34  1  0
 11 35  1  0
 11 36  1  0
 12 37  1  0
 12 38  1  0
 13 39  1  0
 13 40  1  0
 14 41  1  6
 19 42  1  0
 21 43  1  0
 23 44  1  0
 23 45  1  0
 23 46  1  0
 24 47  1  0
 25 48  1  0
 28 49  1  0
 29 50  1  0
M  END
>  <UniqueID>  (89) 
83

>  <SMILES>  (89) 
COc1ccc(S(=O)(=O)N2CCC[C@@H]2C(=O)N=c2[nH]c3cc(C)ccc3s2)cc1

>  <Energy>  (89) 
100.07219036949645

>  <Genealogy>  (89) 
COc1ccc(S(=O)(=O)N2CCC[C@@H]2C(=O)N=c2[nH]c3cc(C)ccc3s2)cc1 (chirality)
COc1ccc(S(=O)(=O)N2CCC[C@@H]2C(=O)N=c2[nH]c3cc(C)ccc3s2)cc1 (3D coordinates assigned)
COc1ccc(S(=O)(=O)N2CCC[C@@H]2C(=O)N=c2[nH]c3cc(C)ccc3s2)cc1 (nonaromatic ring conformer: 100.07219036949645 kcal/mol)

>  <smiles>  (89) 
COc1ccc(S(=O)(=O)N2CCCC2C(=O)N=c2[nH]c3cc(C)ccc3s2)cc1

>  <score_type>  (89) 
oracle

>  <origin>  (89) 
adg

>  <m_score__min__energy>  (89) 
-8.5399999999999991

>  <m_primary>  (89) 
energy

$$$$
89:0
     RDKit          3D

 58 61  0  0  0  0  0  0  0  0999 V2000
   55.4760   29.2660   44.8680 O   0  0  0  0  0  0  0  0  0  0  0  0
   56.7160   29.2180   44.6450 C   0  0  0  0  0  0  0  0  0  0  0  0
   57.5090   28.0340   45.0960 C   0  0  0  0  0  0  0  0  0  0  0  0
   58.5780   28.4910   46.0550 C   0  0  0  0  0  0  0  0  0  0  0  0
   58.3550   28.3940   47.4410 C   0  0  0  0  0  0  0  0  0  0  0  0
   59.3010   28.8870   48.3450 C   0  0  0  0  0  0  0  0  0  0  0  0
   60.4800   29.4720   47.8770 C   0  0  0  0  0  0  0  0  0  0  0  0
   60.7120   29.5750   46.5030 C   0  0  0  0  0  0  0  0  0  0  0  0
   59.7640   29.0950   45.5910 C   0  0  0  0  0  0  0  0  0  0  0  0
   59.9990   29.2330   44.2600 F   0  0  0  0  0  0  0  0  0  0  0  0
   57.3530   30.2450   43.8800 N   0  0  0  0  0  0  0  0  0  0  0  0
   57.5870   31.4350   44.3410 C   0  0  0  0  0  0  0  0  0  0  0  0
   57.6640   32.5740   43.5690 C   0  0  0  0  0  0  0  0  0  0  0  0
   57.7850   33.5920   44.4920 C   0  0  0  0  0  0  0  0  0  0  0  0
   57.7890   33.0520   45.7300 N   0  0  0  0  0  0  0  0  0  0  0  0
   57.7120   33.7930   46.9830 C   0  0  0  0  0  0  0  0  0  0  0  0
   58.9240   33.4880   47.8030 C   0  0  0  0  0  0  0  0  0  0  0  0
   59.0940   34.0780   48.9050 O   0  0  0  0  0  0  0  0  0  0  0  0
   59.9240   32.5930   47.3050 N   0  0  0  0  0  0  0  0  0  0  0  0
   61.3340   32.8420   47.4290 C   0  0  0  0  0  0  0  0  0  0  0  0
   62.0200   33.4630   46.3770 C   0  0  0  0  0  0  0  0  0  0  0  0
   63.3690   33.7970   46.5110 C   0  0  0  0  0  0  0  0  0  0  0  0
   64.0390   33.5460   47.7110 C   0  0  0  0  0  0  0  0  0  0  0  0
   63.3620   32.9460   48.7820 C   0  0  0  0  0  0  0  0  0  0  0  0
   64.1750   32.7280   50.3360 S   0  0  0  0  0  0  0  0  0  0  0  0
   64.2480   34.0500   51.0460 O   0  0  0  0  0  0  0  0  0  0  0  0
   65.5810   32.2450   50.1060 O   0  0  0  0  0  0  0  0  0  0  0  0
   63.3250   31.5790   51.3480 N   0  0  0  0  0  0  0  0  0  0  0  0
   62.1860   32.2130   52.0510 C   0  0  0  0  0  0  0  0  0  0  0  0
   60.8340   31.8100   51.4340 C   0  0  0  0  0  0  0  0  0  0  0  0
   60.6110   30.4080   51.4490 O   0  0  0  0  0  0  0  0  0  0  0  0
   61.7910   29.6360   51.2660 C   0  0  0  0  0  0  0  0  0  0  0  0
   62.9350   30.3880   50.5680 C   0  0  0  0  0  0  0  0  0  0  0  0
   62.0190   32.5750   48.6300 C   0  0  0  0  0  0  0  0  0  0  0  0
   57.6520   31.7390   45.6540 N   0  0  0  0  0  0  0  0  0  0  0  0
   56.8448   27.3164   45.5999 H   0  0  0  0  0  0  0  0  0  0  0  0
   57.9753   27.5480   44.2263 H   0  0  0  0  0  0  0  0  0  0  0  0
   57.4316   27.9279   47.8153 H   0  0  0  0  0  0  0  0  0  0  0  0
   59.1164   28.8140   49.4269 H   0  0  0  0  0  0  0  0  0  0  0  0
   61.2261   29.8518   48.5905 H   0  0  0  0  0  0  0  0  0  0  0  0
   61.6419   30.0344   46.1367 H   0  0  0  0  0  0  0  0  0  0  0  0
   57.6356   32.6530   42.4722 H   0  0  0  0  0  0  0  0  0  0  0  0
   57.8649   34.6640   44.2588 H   0  0  0  0  0  0  0  0  0  0  0  0
   57.6713   34.8718   46.7718 H   0  0  0  0  0  0  0  0  0  0  0  0
   56.8065   33.4991   47.5340 H   0  0  0  0  0  0  0  0  0  0  0  0
   59.6150   31.7900   46.7080 H   0  0  0  0  0  0  0  0  0  0  0  0
   61.4920   33.6890   45.4388 H   0  0  0  0  0  0  0  0  0  0  0  0
   63.9058   34.2591   45.6694 H   0  0  0  0  0  0  0  0  0  0  0  0
   65.0993   33.8196   47.8156 H   0  0  0  0  0  0  0  0  0  0  0  0
   62.2020   31.9025   53.1061 H   0  0  0  0  0  0  0  0  0  0  0  0
   62.2919   33.3038   51.9569 H   0  0  0  0  0  0  0  0  0  0  0  0
   60.0297   32.2986   52.0035 H   0  0  0  0  0  0  0  0  0  0  0  0
   60.8456   32.1291   50.3814 H   0  0  0  0  0  0  0  0  0  0  0  0
   62.1459   29.3091   52.2545 H   0  0  0  0  0  0  0  0  0  0  0  0
   61.5197   28.7953   50.6105 H   0  0  0  0  0  0  0  0  0  0  0  0
   63.8025   29.7184   50.4722 H   0  0  0  0  0  0  0  0  0  0  0  0
   62.5927   30.7113   49.5739 H   0  0  0  0  0  0  0  0  0  0  0  0
   61.4956   32.0710   49.4559 H   0  0  0  0  0  0  0  0  0  0  0  0
  1  2  2  0
  2  3  1  0
  3  4  1  0
  4  5  2  0
  5  6  1  0
  6  7  2  0
  7  8  1  0
  8  9  2  0
  9 10  1  0
  2 11  1  0
 11 12  2  3
 12 13  1  0
 13 14  2  0
 14 15  1  0
 15 16  1  0
 16 17  1  0
 17 18  2  0
 17 19  1  0
 19 20  1  0
 20 21  2  0
 21 22  1  0
 22 23  2  0
 23 24  1  0
 24 25  1  0
 25 26  2  0
 25 27  2  0
 25 28  1  0
 28 29  1  0
 29 30  1  0
 30 31  1  0
 31 32  1  0
 32 33  1  0
 24 34  2  0
 15 35  1  0
  9  4  1  0
 35 12  1  0
 34 20  1  0
 33 28  1  0
  3 36  1  0
  3 37  1  0
  5 38  1  0
  6 39  1  0
  7 40  1  0
  8 41  1  0
 13 42  1  0
 14 43  1  0
 16 44  1  0
 16 45  1  0
 19 46  1  0
 21 47  1  0
 22 48  1  0
 23 49  1  0
 29 50  1  0
 29 51  1  0
 30 52  1  0
 30 53  1  0
 32 54  1  0
 32 55  1  0
 33 56  1  0
 33 57  1  0
 34 58  1  0
M  CHG  1  35  -1
M  END
>  <UniqueID>  (90) 
84

>  <SMILES>  (90) 
O=C(Cc1ccccc1F)N=c1ccn(CC(=O)Nc2cccc(S(=O)(=O)N3CCOCC3)c2)[n-]1

>  <Energy>  (90) 
105.82331826649437

>  <Genealogy>  (90) 
O=C(Cc1ccccc1F)N=c1ccn(CC(=O)Nc2cccc(S(=O)(=O)N3CCOCC3)c2)[n-]1 (protonated)
O=C(Cc1ccccc1F)N=c1ccn(CC(=O)Nc2cccc(S(=O)(=O)N3CCOCC3)c2)[n-]1 (3D coordinates assigned)
O=C(Cc1ccccc1F)N=c1ccn(CC(=O)Nc2cccc(S(=O)(=O)N3CCOCC3)c2)[n-]1 (nonaromatic ring conformer: 105.82331826649437 kcal/mol)

>  <smiles>  (90) 
O=C(Cc1ccccc1F)N=c1ccn(CC(=O)Nc2cccc(S(=O)(=O)N3CCOCC3)c2)[nH]1

>  <score_type>  (90) 
oracle

>  <origin>  (90) 
adg

>  <m_score__min__energy>  (90) 
-11.949999999999999

>  <m_primary>  (90) 
energy

$$$$
90:0
     RDKit          3D

 51 53  0  0  0  0  0  0  0  0999 V2000
   55.1550   26.3550   46.0180 O   0  0  0  0  0  0  0  0  0  0  0  0
   56.3860   26.1070   45.9050 C   0  0  0  0  0  0  0  0  0  0  0  0
   57.3770   27.1960   45.8180 C   0  0  0  0  0  0  0  0  0  0  0  0
   58.6930   27.0150   46.2650 C   0  0  0  0  0  0  0  0  0  0  0  0
   59.6130   28.0630   46.1870 C   0  0  0  0  0  0  0  0  0  0  0  0
   59.2390   29.3030   45.6580 C   0  0  0  0  0  0  0  0  0  0  0  0
   60.1930   30.3220   45.6450 O   0  0  0  0  0  0  0  0  0  0  0  0
   57.9230   29.4880   45.1740 C   0  0  0  0  0  0  0  0  0  0  0  0
   57.4050   31.0220   44.4550 S   0  0  0  0  0  0  0  0  0  0  0  0
   55.9270   31.2100   44.6680 O   0  0  0  0  0  0  0  0  0  0  0  0
   57.6960   30.9770   42.9810 O   0  0  0  0  0  0  0  0  0  0  0  0
   58.2670   32.3560   45.1830 N   0  0  0  0  0  0  0  0  0  0  0  0
   57.5340   32.8630   46.3510 C   0  0  0  0  0  0  0  0  0  0  0  0
   58.3990   33.8920   47.1060 C   0  0  0  0  0  0  0  0  0  0  0  0
   59.3960   34.5630   46.2360 N   0  0  0  0  0  0  0  0  0  0  0  0
   60.7140   33.8860   46.2440 C   0  0  0  0  0  0  0  0  0  0  0  0
   61.2140   33.6940   47.6810 C   0  0  0  0  0  0  0  0  0  0  0  0
   61.7850   32.2880   47.9020 C   0  0  0  0  0  0  0  0  0  0  0  0
   60.7730   31.4090   48.5860 C   0  0  0  0  0  0  0  0  0  0  0  0
   59.6700   31.9780   49.2460 C   0  0  0  0  0  0  0  0  0  0  0  0
   58.7460   31.1620   49.9060 C   0  0  0  0  0  0  0  0  0  0  0  0
   58.9220   29.7740   49.9210 C   0  0  0  0  0  0  0  0  0  0  0  0
   60.0240   29.2020   49.2800 C   0  0  0  0  0  0  0  0  0  0  0  0
   60.9510   30.0150   48.6180 C   0  0  0  0  0  0  0  0  0  0  0  0
   58.8740   34.7640   44.8680 C   0  0  0  0  0  0  0  0  0  0  0  0
   58.4710   33.4320   44.1940 C   0  0  0  0  0  0  0  0  0  0  0  0
   56.9980   28.4350   45.2810 C   0  0  0  0  0  0  0  0  0  0  0  0
   56.7264   25.0616   45.8707 H   0  0  0  0  0  0  0  0  0  0  0  0
   59.0024   26.0439   46.6788 H   0  0  0  0  0  0  0  0  0  0  0  0
   60.6420   27.9119   46.5451 H   0  0  0  0  0  0  0  0  0  0  0  0
   59.9610   31.3020   45.5600 H   0  0  0  0  0  0  0  0  0  0  0  0
   56.6029   33.3441   46.0169 H   0  0  0  0  0  0  0  0  0  0  0  0
   57.2984   32.0247   47.0231 H   0  0  0  0  0  0  0  0  0  0  0  0
   57.7369   34.6582   47.5355 H   0  0  0  0  0  0  0  0  0  0  0  0
   58.9552   33.3466   47.8827 H   0  0  0  0  0  0  0  0  0  0  0  0
   60.6182   32.9027   45.7602 H   0  0  0  0  0  0  0  0  0  0  0  0
   61.4364   34.5103   45.6978 H   0  0  0  0  0  0  0  0  0  0  0  0
   62.0013   34.4344   47.8860 H   0  0  0  0  0  0  0  0  0  0  0  0
   60.3597   33.8270   48.3610 H   0  0  0  0  0  0  0  0  0  0  0  0
   62.0483   31.8473   46.9291 H   0  0  0  0  0  0  0  0  0  0  0  0
   62.6787   32.3633   48.5389 H   0  0  0  0  0  0  0  0  0  0  0  0
   59.5332   33.0695   49.2433 H   0  0  0  0  0  0  0  0  0  0  0  0
   57.8800   31.6117   50.4138 H   0  0  0  0  0  0  0  0  0  0  0  0
   58.1926   29.1329   50.4376 H   0  0  0  0  0  0  0  0  0  0  0  0
   60.1631   28.1109   49.2957 H   0  0  0  0  0  0  0  0  0  0  0  0
   61.8215   29.5618   48.1212 H   0  0  0  0  0  0  0  0  0  0  0  0
   57.9901   35.4168   44.9187 H   0  0  0  0  0  0  0  0  0  0  0  0
   59.6740   35.2185   44.2651 H   0  0  0  0  0  0  0  0  0  0  0  0
   57.5355   33.5844   43.6358 H   0  0  0  0  0  0  0  0  0  0  0  0
   59.2876   33.1283   43.5225 H   0  0  0  0  0  0  0  0  0  0  0  0
   55.9633   28.5847   44.9391 H   0  0  0  0  0  0  0  0  0  0  0  0
  1  2  2  0
  2  3  1  0
  3  4  2  0
  4  5  1  0
  5  6  2  0
  6  7  1  0
  6  8  1  0
  8  9  1  0
  9 10  2  0
  9 11  2  0
  9 12  1  0
 12 13  1  0
 13 14  1  0
 14 15  1  0
 15 16  1  0
 16 17  1  0
 17 18  1  0
 18 19  1  0
 19 20  2  0
 20 21  1  0
 21 22  2  0
 22 23  1  0
 23 24  2  0
 15 25  1  0
 25 26  1  0
  8 27  2  0
 27  3  1  0
 26 12  1  0
 24 19  1  0
  2 28  1  0
  4 29  1  0
  5 30  1  0
  7 31  1  0
 13 32  1  0
 13 33  1  0
 14 34  1  0
 14 35  1  0
 16 36  1  0
 16 37  1  0
 17 38  1  0
 17 39  1  0
 18 40  1  0
 18 41  1  0
 20 42  1  0
 21 43  1  0
 22 44  1  0
 23 45  1  0
 24 46  1  0
 25 47  1  0
 25 48  1  0
 26 49  1  0
 26 50  1  0
 27 51  1  0
M  END
>  <UniqueID>  (91) 
85

>  <SMILES>  (91) 
O=Cc1ccc(O)c(S(=O)(=O)N2CCN(CCCc3ccccc3)CC2)c1

>  <Energy>  (91) 
59.52341512289365

>  <Genealogy>  (91) 
O=Cc1ccc(O)c(S(=O)(=O)N2CCN(CCCc3ccccc3)CC2)c1 (3D coordinates assigned)
O=Cc1ccc(O)c(S(=O)(=O)N2CCN(CCCc3ccccc3)CC2)c1 (nonaromatic ring conformer: 59.52341512289365 kcal/mol)

>  <smiles>  (91) 
O=Cc1ccc(O)c(S(=O)(=O)N2CCN(CCCc3ccccc3)CC2)c1

>  <score_type>  (91) 
oracle

>  <origin>  (91) 
adg

>  <m_score__min__energy>  (91) 
-10.380000000000001

>  <m_primary>  (91) 
energy

$$$$
91:0
     RDKit          3D

 44 47  0  0  0  0  0  0  0  0999 V2000
   59.8270   30.9580   46.5670 C   0  0  0  0  0  0  0  0  0  0  0  0
   58.9400   31.9010   45.8070 C   0  0  0  0  0  0  0  0  0  0  0  0
   57.8670   31.5680   44.9940 C   0  0  0  0  0  0  0  0  0  0  0  0
   57.3290   30.2380   44.6520 C   0  0  0  0  0  0  0  0  0  0  0  0
   56.1110   29.9940   44.8740 O   0  0  0  0  0  0  0  0  0  0  0  0
   58.1490   29.2560   44.0030 N   0  0  0  0  0  0  0  0  0  0  0  0
   57.8770   27.8440   44.0250 C   0  0  0  0  0  0  0  0  0  0  0  0
   57.5550   27.1710   45.2160 C   0  0  0  0  0  0  0  0  0  0  0  0
   57.3220   25.7950   45.2000 C   0  0  0  0  0  0  0  0  0  0  0  0
   57.4240   25.0970   43.9950 C   0  0  0  0  0  0  0  0  0  0  0  0
   57.1380   23.3690   43.9470 Cl  0  0  0  0  0  0  0  0  0  0  0  0
   57.7560   25.7570   42.8540 N   0  0  0  0  0  0  0  0  0  0  0  0
   57.9880   27.0970   42.8440 C   0  0  0  0  0  0  0  0  0  0  0  0
   57.3700   32.7810   44.5500 C   0  0  0  0  0  0  0  0  0  0  0  0
   58.1250   33.7830   45.0400 N   0  0  0  0  0  0  0  0  0  0  0  0
   59.0710   33.2450   45.7930 N   0  0  0  0  0  0  0  0  0  0  0  0
   60.2900   34.1860   46.5900 S   0  0  0  0  0  0  0  0  0  0  0  0
   60.0090   35.6450   46.3640 O   0  0  0  0  0  0  0  0  0  0  0  0
   61.6380   33.8510   46.0180 O   0  0  0  0  0  0  0  0  0  0  0  0
   60.2950   33.8120   48.3110 C   0  0  0  0  0  0  0  0  0  0  0  0
   61.4010   34.1410   49.1060 C   0  0  0  0  0  0  0  0  0  0  0  0
   61.3960   33.8620   50.4750 C   0  0  0  0  0  0  0  0  0  0  0  0
   60.2800   33.2480   51.0650 C   0  0  0  0  0  0  0  0  0  0  0  0
   60.2610   32.9660   52.4390 C   0  0  0  0  0  0  0  0  0  0  0  0
   59.1430   32.3550   53.0150 C   0  0  0  0  0  0  0  0  0  0  0  0
   58.0400   32.0220   52.2250 C   0  0  0  0  0  0  0  0  0  0  0  0
   58.0460   32.2970   50.8540 C   0  0  0  0  0  0  0  0  0  0  0  0
   59.1620   32.9100   50.2640 C   0  0  0  0  0  0  0  0  0  0  0  0
   59.1800   33.1920   48.8900 C   0  0  0  0  0  0  0  0  0  0  0  0
   59.6839   31.1101   47.6470 H   0  0  0  0  0  0  0  0  0  0  0  0
   59.5693   29.9211   46.3054 H   0  0  0  0  0  0  0  0  0  0  0  0
   60.8777   31.1518   46.3054 H   0  0  0  0  0  0  0  0  0  0  0  0
   58.9270   29.5960   43.3950 H   0  0  0  0  0  0  0  0  0  0  0  0
   57.4866   27.7291   46.1614 H   0  0  0  0  0  0  0  0  0  0  0  0
   57.0605   25.2654   46.1280 H   0  0  0  0  0  0  0  0  0  0  0  0
   58.2642   27.5974   41.9041 H   0  0  0  0  0  0  0  0  0  0  0  0
   56.4935   32.9073   43.8975 H   0  0  0  0  0  0  0  0  0  0  0  0
   62.2786   34.6219   48.6494 H   0  0  0  0  0  0  0  0  0  0  0  0
   62.2683   34.1240   51.0918 H   0  0  0  0  0  0  0  0  0  0  0  0
   61.1275   33.2261   53.0647 H   0  0  0  0  0  0  0  0  0  0  0  0
   59.1319   32.1360   54.0929 H   0  0  0  0  0  0  0  0  0  0  0  0
   57.1631   31.5414   52.6834 H   0  0  0  0  0  0  0  0  0  0  0  0
   57.1746   32.0324   50.2370 H   0  0  0  0  0  0  0  0  0  0  0  0
   58.3152   32.9253   48.2647 H   0  0  0  0  0  0  0  0  0  0  0  0
  1  2  1  0
  2  3  2  0
  3  4  1  0
  4  5  2  0
  4  6  1  0
  6  7  1  0
  7  8  2  0
  8  9  1  0
  9 10  2  0
 10 11  1  0
 10 12  1  0
 12 13  2  0
  3 14  1  0
 14 15  2  0
 15 16  1  0
 16 17  1  0
 17 18  2  0
 17 19  2  0
 17 20  1  0
 20 21  2  0
 21 22  1  0
 22 23  2  0
 23 24  1  0
 24 25  2  0
 25 26  1  0
 26 27  2  0
 27 28  1  0
 28 29  2  0
 16  2  1  0
 29 20  1  0
 13  7  1  0
 28 23  1  0
  1 30  1  0
  1 31  1  0
  1 32  1  0
  6 33  1  0
  8 34  1  0
  9 35  1  0
 13 36  1  0
 14 37  1  0
 21 38  1  0
 22 39  1  0
 24 40  1  0
 25 41  1  0
 26 42  1  0
 27 43  1  0
 29 44  1  0
M  END
>  <UniqueID>  (92) 
86

>  <SMILES>  (92) 
Cc1c(C(=O)Nc2ccc(Cl)nc2)cnn1S(=O)(=O)c1ccc2ccccc2c1

>  <Energy>  (92) 
88.39288695403225

>  <Genealogy>  (92) 
Cc1c(C(=O)Nc2ccc(Cl)nc2)cnn1S(=O)(=O)c1ccc2ccccc2c1 (3D coordinates assigned)
Cc1c(C(=O)Nc2ccc(Cl)nc2)cnn1S(=O)(=O)c1ccc2ccccc2c1 (optimized conformer: 88.39288695403225 kcal/mol)

>  <smiles>  (92) 
Cc1c(C(=O)Nc2ccc(Cl)nc2)cnn1S(=O)(=O)c1ccc2ccccc2c1

>  <score_type>  (92) 
oracle

>  <origin>  (92) 
adg

>  <m_score__min__energy>  (92) 
-10.449999999999999

>  <m_primary>  (92) 
energy

$$$$
