0:0
     RDKit          3D

 39 41  0  0  0  0  0  0  0  0999 V2000
   54.7960   24.4480   47.1720 H   0  0  0  0  0  0  0  0  0  0  0  0
   55.8030   24.3440   47.1390 O   0  0  0  0  0  0  0  0  0  0  0  0
   56.6470   25.4030   46.8050 C   0  0  0  0  0  0  0  0  0  0  0  0
   58.0180   25.2760   47.0390 C   0  0  0  0  0  0  0  0  0  0  0  0
   58.4160   24.3454   47.4697 H   0  0  0  0  0  0  0  0  0  0  0  0
   58.8850   26.3240   46.7290 C   0  0  0  0  0  0  0  0  0  0  0  0
   59.9625   26.2134   46.9209 H   0  0  0  0  0  0  0  0  0  0  0  0
   58.3970   27.5200   46.1740 C   0  0  0  0  0  0  0  0  0  0  0  0
   59.3680   28.6520   45.9480 C   0  0  0  0  0  0  0  0  0  0  0  0
   60.2982   28.2563   45.5142 H   0  0  0  0  0  0  0  0  0  0  0  0
   58.9241   29.3839   45.2572 H   0  0  0  0  0  0  0  0  0  0  0  0
   59.6630   29.3020   47.2240 N   0  0  0  0  0  0  0  0  0  0  0  0
   59.7710   30.5840   47.4290 C   0  0  0  0  0  0  0  0  0  0  0  0
   58.8800   31.1870   48.2640 N   0  0  0  0  0  0  0  0  0  0  0  0
   58.9230   32.5190   48.5330 C   0  0  0  0  0  0  0  0  0  0  0  0
   58.1830   32.9670   49.2125 H   0  0  0  0  0  0  0  0  0  0  0  0
   59.9060   33.3180   47.9470 C   0  0  0  0  0  0  0  0  0  0  0  0
   59.9468   34.3962   48.1610 H   0  0  0  0  0  0  0  0  0  0  0  0
   60.8360   32.7340   47.0870 C   0  0  0  0  0  0  0  0  0  0  0  0
   61.6158   33.3523   46.6183 H   0  0  0  0  0  0  0  0  0  0  0  0
   60.7770   31.3640   46.8210 C   0  0  0  0  0  0  0  0  0  0  0  0
   61.5079   30.8978   46.1439 H   0  0  0  0  0  0  0  0  0  0  0  0
   57.0090   27.6370   45.9050 C   0  0  0  0  0  0  0  0  0  0  0  0
   56.4550   28.8150   45.3050 N   0  0  0  0  0  0  0  0  0  0  0  0
   56.9660   29.4000   44.1010 C   0  0  0  0  0  0  0  0  0  0  0  0
   57.0420   28.7020   43.0510 O   0  0  0  0  0  0  0  0  0  0  0  0
   57.3950   30.8180   44.0820 C   0  0  0  0  0  0  0  0  0  0  0  0
   57.7410   31.4460   42.8700 C   0  0  0  0  0  0  0  0  0  0  0  0
   57.6914   30.8809   41.9275 H   0  0  0  0  0  0  0  0  0  0  0  0
   58.1470   32.7830   42.8580 C   0  0  0  0  0  0  0  0  0  0  0  0
   58.4210   33.2644   41.9076 H   0  0  0  0  0  0  0  0  0  0  0  0
   58.2060   33.5100   44.0490 C   0  0  0  0  0  0  0  0  0  0  0  0
   58.5280   34.5617   44.0363 H   0  0  0  0  0  0  0  0  0  0  0  0
   57.8560   32.9010   45.2560 C   0  0  0  0  0  0  0  0  0  0  0  0
   57.8967   33.4759   46.1929 H   0  0  0  0  0  0  0  0  0  0  0  0
   57.4540   31.5620   45.2760 C   0  0  0  0  0  0  0  0  0  0  0  0
   57.1822   31.0870   46.2302 H   0  0  0  0  0  0  0  0  0  0  0  0
   56.1420   26.5850   46.2410 C   0  0  0  0  0  0  0  0  0  0  0  0
   54.7780   26.7130   46.0000 O   0  0  0  0  0  0  0  0  0  0  0  0
  1  2  1  0
  2  3  1  0
  3  4  2  0
  4  5  1  0
  4  6  1  0
  6  7  1  0
  6  8  2  0
  8  9  1  0
  9 10  1  0
  9 11  1  0
  9 12  1  0
 12 13  2  0
 13 14  1  0
 14 15  1  0
 15 16  1  0
 15 17  2  0
 17 18  1  0
 17 19  1  0
 19 20  1  0
 19 21  2  0
 21 22  1  0
  8 23  1  0
 23 24  1  0
 24 25  1  0
 25 26  2  0
 25 27  1  0
 27 28  2  0
 28 29  1  0
 28 30  1  0
 30 31  1  0
 30 32  2  0
 32 33  1  0
 32 34  1  0
 34 35  1  0
 34 36  2  0
 36 37  1  0
 23 38  2  0
 38 39  1  0
 38  3  1  0
 21 13  1  0
 36 27  1  0
M  CHG  3  14  -1  24  -1  39  -1
M  END
>  <UniqueID>  (1) 
1

>  <SMILES>  (1) 
O=C([N-]c1c(C/N=c2\cccc[n-]2)ccc(O)c1[O-])c1ccccc1

>  <Energy>  (1) 
53.422510881084186

>  <Genealogy>  (1) 
O=C([N-]c1c(CN=c2cccc[n-]2)ccc(O)c1[O-])c1ccccc1 (protonated)
O=C([N-]c1c(C/N=c2\cccc[n-]2)ccc(O)c1[O-])c1ccccc1 (cis-trans isomerization)
O=C([N-]c1c(C/N=c2\cccc[n-]2)ccc(O)c1[O-])c1ccccc1 (3D coordinates assigned)
O=C([N-]c1c(C/N=c2\cccc[n-]2)ccc(O)c1[O-])c1ccccc1 (optimized conformer: 53.422510881084186 kcal/mol)

>  <smiles>  (1) 
O=C(Nc1c(CN=c2cccc[nH]2)ccc(O)c1O)c1ccccc1

>  <score_type>  (1) 
oracle

>  <origin>  (1) 
adg

>  <m_score__min__energy>  (1) 
-14.039999999999999

>  <m_primary>  (1) 
energy

$$$$
1:0
     RDKit          3D

 40 42  0  0  0  0  0  0  0  0999 V2000
   55.6750   20.1010   45.5680 C   0  0  0  0  0  0  0  0  0  0  0  0
   55.0340   20.8160   46.7530 C   0  0  0  0  0  0  0  0  0  0  0  0
   54.8640   22.2550   46.4580 N   0  0  0  0  0  0  0  0  0  0  0  0
   55.9190   23.1180   46.6450 C   0  0  0  0  0  0  0  0  0  0  0  0
   57.0280   22.6780   47.0630 O   0  0  0  0  0  0  0  0  0  0  0  0
   55.7890   24.4910   46.3560 C   0  0  0  0  0  0  0  0  0  0  0  0
   56.9250   25.4190   46.5750 C   0  0  0  0  0  0  0  0  0  0  0  0
   57.9070   25.0470   47.2730 O   0  0  0  0  0  0  0  0  0  0  0  0
   56.9210   26.7290   45.9860 N   0  0  0  0  0  0  0  0  0  0  0  0
   57.8870   27.7580   46.3640 C   0  0  0  0  0  0  0  0  0  0  0  0
   57.8570   28.8840   45.3660 C   0  0  0  0  0  0  0  0  0  0  0  0
   57.0690   28.7760   44.2090 C   0  0  0  0  0  0  0  0  0  0  0  0
   57.0140   29.8300   43.2920 C   0  0  0  0  0  0  0  0  0  0  0  0
   57.7410   31.0010   43.5270 C   0  0  0  0  0  0  0  0  0  0  0  0
   57.6680   32.3240   42.3770 Cl  0  0  0  0  0  0  0  0  0  0  0  0
   58.5230   31.1180   44.6810 C   0  0  0  0  0  0  0  0  0  0  0  0
   58.5800   30.0660   45.5980 C   0  0  0  0  0  0  0  0  0  0  0  0
   54.5630   24.9740   45.8730 C   0  0  0  0  0  0  0  0  0  0  0  0
   54.3920   26.3370   45.6340 O   0  0  0  0  0  0  0  0  0  0  0  0
   53.5040   24.0860   45.6520 C   0  0  0  0  0  0  0  0  0  0  0  0
   52.2700   24.5260   45.1430 C   0  0  0  0  0  0  0  0  0  0  0  0
   51.2380   23.6140   44.9280 C   0  0  0  0  0  0  0  0  0  0  0  0
   51.4430   22.2680   45.2240 C   0  0  0  0  0  0  0  0  0  0  0  0
   52.6370   21.8540   45.7200 N   0  0  0  0  0  0  0  0  0  0  0  0
   53.6740   22.7150   45.9480 C   0  0  0  0  0  0  0  0  0  0  0  0
   56.3670   19.3292   45.9361 H   0  0  0  0  0  0  0  0  0  0  0  0
   54.8914   19.6296   44.9567 H   0  0  0  0  0  0  0  0  0  0  0  0
   56.2289   20.8286   44.9567 H   0  0  0  0  0  0  0  0  0  0  0  0
   54.0496   20.3692   46.9563 H   0  0  0  0  0  0  0  0  0  0  0  0
   55.6878   20.7071   47.6309 H   0  0  0  0  0  0  0  0  0  0  0  0
   56.2160   26.9560   45.2500 H   0  0  0  0  0  0  0  0  0  0  0  0
   57.6327   28.1478   47.3607 H   0  0  0  0  0  0  0  0  0  0  0  0
   58.8950   27.3179   46.3814 H   0  0  0  0  0  0  0  0  0  0  0  0
   56.4923   27.8579   44.0231 H   0  0  0  0  0  0  0  0  0  0  0  0
   56.3984   29.7379   42.3851 H   0  0  0  0  0  0  0  0  0  0  0  0
   59.0938   32.0398   44.8665 H   0  0  0  0  0  0  0  0  0  0  0  0
   59.1936   30.1634   46.5057 H   0  0  0  0  0  0  0  0  0  0  0  0
   52.1185   25.5912   44.9141 H   0  0  0  0  0  0  0  0  0  0  0  0
   50.2710   23.9537   44.5285 H   0  0  0  0  0  0  0  0  0  0  0  0
   50.6361   21.5396   45.0555 H   0  0  0  0  0  0  0  0  0  0  0  0
  1  2  1  0
  2  3  1  0
  3  4  1  0
  4  5  2  0
  4  6  1  0
  6  7  1  0
  7  8  2  0
  7  9  1  0
  9 10  1  0
 10 11  1  0
 11 12  2  0
 12 13  1  0
 13 14  2  0
 14 15  1  0
 14 16  1  0
 16 17  2  0
  6 18  2  0
 18 19  1  0
 18 20  1  0
 20 21  2  0
 21 22  1  0
 22 23  2  0
 23 24  1  0
 24 25  2  0
 25  3  1  0
 17 11  1  0
 25 20  1  0
  1 26  1  0
  1 27  1  0
  1 28  1  0
  2 29  1  0
  2 30  1  0
  9 31  1  0
 10 32  1  0
 10 33  1  0
 12 34  1  0
 13 35  1  0
 16 36  1  0
 17 37  1  0
 21 38  1  0
 22 39  1  0
 23 40  1  0
M  CHG  1  19  -1
M  END
>  <UniqueID>  (2) 
2

>  <SMILES>  (2) 
CCn1c(=O)c(C(=O)NCc2ccc(Cl)cc2)c([O-])c2cccnc21

>  <Energy>  (2) 
51.3420027489872

>  <Genealogy>  (2) 
CCn1c(=O)c(C(=O)NCc2ccc(Cl)cc2)c([O-])c2cccnc21 (protonated)
CCn1c(=O)c(C(=O)NCc2ccc(Cl)cc2)c([O-])c2cccnc21 (3D coordinates assigned)
CCn1c(=O)c(C(=O)NCc2ccc(Cl)cc2)c([O-])c2cccnc21 (optimized conformer: 51.3420027489872 kcal/mol)

>  <smiles>  (2) 
CCn1c(=O)c(C(=O)NCc2ccc(Cl)cc2)c(O)c2cccnc21

>  <score_type>  (2) 
oracle

>  <origin>  (2) 
adg

>  <m_score__min__energy>  (2) 
-11.25

>  <m_primary>  (2) 
energy

$$$$
2:0
     RDKit          3D

 39 41  0  0  0  0  0  0  0  0999 V2000
   55.2170   28.6770   45.6700 H   0  0  0  0  0  0  0  0  0  0  0  0
   55.1530   29.3450   44.8690 N   0  0  0  0  0  0  0  0  0  0  0  0
   56.3270   29.9120   44.2930 C   0  0  0  0  0  0  0  0  0  0  0  0
   56.3750   30.1200   43.0530 O   0  0  0  0  0  0  0  0  0  0  0  0
   57.5210   30.1620   45.1220 C   0  0  0  0  0  0  0  0  0  0  0  0
   57.4410   31.1940   46.0040 N   0  0  0  0  0  0  0  0  0  0  0  0
   58.5040   31.6510   46.6630 N   0  0  0  0  0  0  0  0  0  0  0  0
   59.7440   31.1340   46.4720 C   0  0  0  0  0  0  0  0  0  0  0  0
   60.8970   31.7090   47.2120 C   0  0  0  0  0  0  0  0  0  0  0  0
   61.3660   32.9950   46.8840 C   0  0  0  0  0  0  0  0  0  0  0  0
   60.8791   33.5642   46.0784 H   0  0  0  0  0  0  0  0  0  0  0  0
   62.4460   33.5550   47.5740 C   0  0  0  0  0  0  0  0  0  0  0  0
   62.8083   34.5583   47.3054 H   0  0  0  0  0  0  0  0  0  0  0  0
   63.0650   32.8430   48.6030 C   0  0  0  0  0  0  0  0  0  0  0  0
   63.9169   33.2834   49.1418 H   0  0  0  0  0  0  0  0  0  0  0  0
   62.6020   31.5710   48.9480 C   0  0  0  0  0  0  0  0  0  0  0  0
   63.0870   31.0127   49.7623 H   0  0  0  0  0  0  0  0  0  0  0  0
   61.5240   31.0060   48.2610 C   0  0  0  0  0  0  0  0  0  0  0  0
   61.1621   30.0056   48.5407 H   0  0  0  0  0  0  0  0  0  0  0  0
   59.8940   30.0670   45.5750 C   0  0  0  0  0  0  0  0  0  0  0  0
   60.8954   29.6595   45.3720 H   0  0  0  0  0  0  0  0  0  0  0  0
   58.7770   29.5180   44.9370 C   0  0  0  0  0  0  0  0  0  0  0  0
   58.9660   28.4270   44.2420 N   0  0  0  0  0  0  0  0  0  0  0  0
   58.7220   27.0600   44.6050 C   0  0  0  0  0  0  0  0  0  0  0  0
   57.8480   26.2900   43.8280 C   0  0  0  0  0  0  0  0  0  0  0  0
   57.3263   26.7481   42.9748 H   0  0  0  0  0  0  0  0  0  0  0  0
   57.6350   24.9420   44.1310 C   0  0  0  0  0  0  0  0  0  0  0  0
   56.9268   24.3501   43.5325 H   0  0  0  0  0  0  0  0  0  0  0  0
   58.3220   24.3430   45.1960 C   0  0  0  0  0  0  0  0  0  0  0  0
   58.0390   22.6530   45.5960 S   0  0  0  0  0  0  0  0  0  0  0  0
   57.1170   22.0380   44.5800 O   0  0  0  0  0  0  0  0  0  0  0  0
   57.4000   22.5480   46.9520 O   0  0  0  0  0  0  0  0  0  0  0  0
   59.5450   21.8040   45.6010 N   0  0  0  0  0  0  0  0  0  0  0  0
   60.1400   22.2330   44.8580 H   0  0  0  0  0  0  0  0  0  0  0  0
   59.3450   20.8240   45.3000 H   0  0  0  0  0  0  0  0  0  0  0  0
   59.2250   25.1030   45.9530 C   0  0  0  0  0  0  0  0  0  0  0  0
   59.7673   24.6376   46.7893 H   0  0  0  0  0  0  0  0  0  0  0  0
   59.4380   26.4500   45.6480 C   0  0  0  0  0  0  0  0  0  0  0  0
   60.1687   27.0343   46.2265 H   0  0  0  0  0  0  0  0  0  0  0  0
  1  2  1  0
  2  3  1  0
  3  4  2  0
  3  5  1  0
  5  6  2  0
  6  7  1  0
  7  8  1  0
  8  9  1  0
  9 10  2  0
 10 11  1  0
 10 12  1  0
 12 13  1  0
 12 14  2  0
 14 15  1  0
 14 16  1  0
 16 17  1  0
 16 18  2  0
 18 19  1  0
  8 20  2  0
 20 21  1  0
 20 22  1  0
 22 23  2  0
 23 24  1  0
 24 25  2  0
 25 26  1  0
 25 27  1  0
 27 28  1  0
 27 29  2  0
 29 30  1  0
 30 31  2  0
 30 32  2  0
 30 33  1  0
 33 34  1  0
 33 35  1  0
 29 36  1  0
 36 37  1  0
 36 38  2  0
 38 39  1  0
 22  5  1  0
 38 24  1  0
 18  9  1  0
M  CHG  2   2  -1   7  -1
M  END
>  <UniqueID>  (3) 
3

>  <SMILES>  (3) 
[NH-]C(=O)c1n[n-]c(-c2ccccc2)c/c1=N/c1ccc(S(N)(=O)=O)cc1

>  <Energy>  (3) 
65.6899166904823

>  <Genealogy>  (3) 
[NH-]C(=O)c1n[n-]c(-c2ccccc2)cc1=Nc1ccc(S(N)(=O)=O)cc1 (protonated)
[NH-]C(=O)c1n[n-]c(-c2ccccc2)c/c1=N/c1ccc(S(N)(=O)=O)cc1 (cis-trans isomerization)
[NH-]C(=O)c1n[n-]c(-c2ccccc2)c/c1=N/c1ccc(S(N)(=O)=O)cc1 (3D coordinates assigned)
[NH-]C(=O)c1n[n-]c(-c2ccccc2)c/c1=N/c1ccc(S(N)(=O)=O)cc1 (optimized conformer: 65.6899166904823 kcal/mol)

>  <smiles>  (3) 
NC(=O)c1n[nH]c(-c2ccccc2)cc1=Nc1ccc(S(N)(=O)=O)cc1

>  <score_type>  (3) 
oracle

>  <origin>  (3) 
adg

>  <m_score__min__energy>  (3) 
-12.210000000000001

>  <m_primary>  (3) 
energy

$$$$
3:0
     RDKit          3D

 43 46  0  0  0  0  0  0  0  0999 V2000
   60.2970   32.8190   53.6730 C   0  0  0  0  0  0  0  0  0  0  0  0
   59.8830   31.5810   53.1040 O   0  0  0  0  0  0  0  0  0  0  0  0
   58.5450   31.1930   52.9230 C   0  0  0  0  0  0  0  0  0  0  0  0
   57.9900   30.1050   53.6230 C   0  0  0  0  0  0  0  0  0  0  0  0
   56.6790   29.6960   53.3740 C   0  0  0  0  0  0  0  0  0  0  0  0
   55.9040   30.3530   52.4060 C   0  0  0  0  0  0  0  0  0  0  0  0
   54.5830   29.9720   52.1280 O   0  0  0  0  0  0  0  0  0  0  0  0
   53.4400   30.4840   52.7590 C   0  0  0  0  0  0  0  0  0  0  0  0
   53.1620   30.2750   54.1320 C   0  0  0  0  0  0  0  0  0  0  0  0
   51.9850   30.7980   54.7110 C   0  0  0  0  0  0  0  0  0  0  0  0
   51.0670   31.5230   53.9280 C   0  0  0  0  0  0  0  0  0  0  0  0
   51.3610   31.6960   52.5790 C   0  0  0  0  0  0  0  0  0  0  0  0
   50.6300   32.3400   51.6580 N   0  0  0  0  0  0  0  0  0  0  0  0
   51.3870   32.1910   50.5410 C   0  0  0  0  0  0  0  0  0  0  0  0
   51.0430   32.6630   49.4260 O   0  0  0  0  0  0  0  0  0  0  0  0
   52.5400   31.4970   50.7100 N   0  0  0  0  0  0  0  0  0  0  0  0
   52.4970   31.1940   52.0170 C   0  0  0  0  0  0  0  0  0  0  0  0
   56.4410   31.4540   51.7320 C   0  0  0  0  0  0  0  0  0  0  0  0
   57.7420   31.8950   51.9980 C   0  0  0  0  0  0  0  0  0  0  0  0
   58.2420   33.0250   51.2690 N   0  0  0  0  0  0  0  0  0  0  0  0
   59.4190   33.0250   50.4560 C   0  0  0  0  0  0  0  0  0  0  0  0
   60.2350   33.9780   50.5620 O   0  0  0  0  0  0  0  0  0  0  0  0
   59.6590   31.9550   49.5310 N   0  0  0  0  0  0  0  0  0  0  0  0
   59.0810   31.7990   48.2270 C   0  0  0  0  0  0  0  0  0  0  0  0
   59.0580   30.5210   47.6560 C   0  0  0  0  0  0  0  0  0  0  0  0
   58.5210   30.3240   46.3820 C   0  0  0  0  0  0  0  0  0  0  0  0
   58.0150   31.4070   45.6550 C   0  0  0  0  0  0  0  0  0  0  0  0
   57.3470   31.1220   44.0540 Cl  0  0  0  0  0  0  0  0  0  0  0  0
   58.0570   32.6980   46.2090 C   0  0  0  0  0  0  0  0  0  0  0  0
   57.4570   34.0910   45.3170 Cl  0  0  0  0  0  0  0  0  0  0  0  0
   58.5960   32.8920   47.4870 C   0  0  0  0  0  0  0  0  0  0  0  0
   60.2722   32.7448   54.7702 H   0  0  0  0  0  0  0  0  0  0  0  0
   61.3211   33.0494   53.3442 H   0  0  0  0  0  0  0  0  0  0  0  0
   59.6175   33.6191   53.3442 H   0  0  0  0  0  0  0  0  0  0  0  0
   58.5945   29.5729   54.3723 H   0  0  0  0  0  0  0  0  0  0  0  0
   56.2513   28.8548   53.9391 H   0  0  0  0  0  0  0  0  0  0  0  0
   53.8675   29.7016   54.7513 H   0  0  0  0  0  0  0  0  0  0  0  0
   51.7843   30.6378   55.7806 H   0  0  0  0  0  0  0  0  0  0  0  0
   50.1484   31.9387   54.3677 H   0  0  0  0  0  0  0  0  0  0  0  0
   55.8323   31.9808   50.9823 H   0  0  0  0  0  0  0  0  0  0  0  0
   59.4658   29.6658   48.2149 H   0  0  0  0  0  0  0  0  0  0  0  0
   58.4957   29.3134   45.9484 H   0  0  0  0  0  0  0  0  0  0  0  0
   58.6402   33.9047   47.9142 H   0  0  0  0  0  0  0  0  0  0  0  0
  1  2  1  0
  2  3  1  0
  3  4  2  0
  4  5  1  0
  5  6  2  0
  6  7  1  0
  7  8  1  0
  8  9  2  0
  9 10  1  0
 10 11  2  0
 11 12  1  0
 12 13  1  0
 13 14  1  0
 14 15  2  0
 14 16  1  0
 16 17  1  0
  6 18  1  0
 18 19  2  0
 19 20  1  0
 20 21  1  0
 21 22  2  0
 21 23  1  0
 23 24  1  0
 24 25  2  0
 25 26  1  0
 26 27  2  0
 27 28  1  0
 27 29  1  0
 29 30  1  0
 29 31  2  0
 19  3  1  0
 31 24  1  0
 17  8  1  0
 17 12  2  0
  1 32  1  0
  1 33  1  0
  1 34  1  0
  4 35  1  0
  5 36  1  0
  9 37  1  0
 10 38  1  0
 11 39  1  0
 18 40  1  0
 25 41  1  0
 26 42  1  0
 31 43  1  0
M  CHG  4  13  -1  16  -1  20  -1  23  -1
M  END
>  <UniqueID>  (4) 
4

>  <SMILES>  (4) 
COc1ccc(Oc2cccc3[n-]c(=O)[n-]c23)cc1[N-]C(=O)[N-]c1ccc(Cl)c(Cl)c1

>  <Energy>  (4) 
98.00761905436751

>  <Genealogy>  (4) 
COc1ccc(Oc2cccc3[n-]c(=O)[n-]c23)cc1[N-]C(=O)[N-]c1ccc(Cl)c(Cl)c1 (protonated)
COc1ccc(Oc2cccc3[n-]c(=O)[n-]c23)cc1[N-]C(=O)[N-]c1ccc(Cl)c(Cl)c1 (3D coordinates assigned)
COc1ccc(Oc2cccc3[n-]c(=O)[n-]c23)cc1[N-]C(=O)[N-]c1ccc(Cl)c(Cl)c1 (optimized conformer: 98.00761905436751 kcal/mol)

>  <smiles>  (4) 
COc1ccc(Oc2cccc3[nH]c(=O)[nH]c23)cc1NC(=O)Nc1ccc(Cl)c(Cl)c1

>  <score_type>  (4) 
oracle

>  <origin>  (4) 
adg

>  <m_score__min__energy>  (4) 
-14.74

>  <m_primary>  (4) 
energy

$$$$
4:0
     RDKit          3D

 36 37  0  0  0  0  0  0  0  0999 V2000
   54.9880   26.3380   46.0470 N   0  0  0  0  0  0  0  0  0  0  0  0
   56.3270   26.0130   46.4200 C   0  0  0  0  0  0  0  0  0  0  0  0
   56.5500   24.9260   47.0160 O   0  0  0  0  0  0  0  0  0  0  0  0
   57.4410   26.9410   46.1120 C   0  0  0  0  0  0  0  0  0  0  0  0
   58.7660   26.5890   46.4240 C   0  0  0  0  0  0  0  0  0  0  0  0
   59.8150   27.4670   46.1430 C   0  0  0  0  0  0  0  0  0  0  0  0
   59.5590   28.7000   45.5420 C   0  0  0  0  0  0  0  0  0  0  0  0
   58.2450   29.0620   45.2010 C   0  0  0  0  0  0  0  0  0  0  0  0
   57.9500   30.3370   44.6040 N   0  0  0  0  0  0  0  0  0  0  0  0
   57.3980   30.5030   43.2890 C   0  0  0  0  0  0  0  0  0  0  0  0
   56.8730   29.5290   42.6850 O   0  0  0  0  0  0  0  0  0  0  0  0
   57.3840   31.8580   42.6470 C   0  0  0  0  0  0  0  0  0  0  0  0
   58.2520   32.7950   43.3640 N   0  0  0  0  0  0  0  0  0  0  0  0
   57.4890   33.4000   44.8080 S   0  0  0  0  0  0  0  0  0  0  0  0
   56.4050   32.4510   45.2410 O   0  0  0  0  0  0  0  0  0  0  0  0
   56.8550   34.7280   44.5040 O   0  0  0  0  0  0  0  0  0  0  0  0
   58.6590   33.6150   46.1080 C   0  0  0  0  0  0  0  0  0  0  0  0
   58.3150   33.3110   47.4340 C   0  0  0  0  0  0  0  0  0  0  0  0
   59.2560   33.4650   48.4560 C   0  0  0  0  0  0  0  0  0  0  0  0
   60.5460   33.9210   48.1590 C   0  0  0  0  0  0  0  0  0  0  0  0
   61.7260   34.1130   49.4420 Cl  0  0  0  0  0  0  0  0  0  0  0  0
   60.8930   34.2190   46.8380 C   0  0  0  0  0  0  0  0  0  0  0  0
   59.9530   34.0650   45.8140 C   0  0  0  0  0  0  0  0  0  0  0  0
   57.1910   28.1870   45.5060 C   0  0  0  0  0  0  0  0  0  0  0  0
   54.7600   26.6430   45.0750 H   0  0  0  0  0  0  0  0  0  0  0  0
   58.9776   25.6163   46.8922 H   0  0  0  0  0  0  0  0  0  0  0  0
   60.8476   27.1853   46.3966 H   0  0  0  0  0  0  0  0  0  0  0  0
   60.3891   29.3912   45.3344 H   0  0  0  0  0  0  0  0  0  0  0  0
   58.0870   31.1960   45.1840 H   0  0  0  0  0  0  0  0  0  0  0  0
   57.7357   31.7664   41.6088 H   0  0  0  0  0  0  0  0  0  0  0  0
   56.3550   32.2457   42.6762 H   0  0  0  0  0  0  0  0  0  0  0  0
   57.3027   32.9508   47.6696 H   0  0  0  0  0  0  0  0  0  0  0  0
   58.9828   33.2277   49.4948 H   0  0  0  0  0  0  0  0  0  0  0  0
   61.9070   34.5752   46.6036 H   0  0  0  0  0  0  0  0  0  0  0  0
   60.2302   34.2977   44.7752 H   0  0  0  0  0  0  0  0  0  0  0  0
   56.1571   28.4782   45.2687 H   0  0  0  0  0  0  0  0  0  0  0  0
  1  2  1  0
  2  3  2  0
  2  4  1  0
  4  5  2  0
  5  6  1  0
  6  7  2  0
  7  8  1  0
  8  9  1  0
  9 10  1  0
 10 11  2  0
 10 12  1  0
 12 13  1  0
 13 14  1  0
 14 15  2  0
 14 16  2  0
 14 17  1  0
 17 18  2  0
 18 19  1  0
 19 20  2  0
 20 21  1  0
 20 22  1  0
 22 23  2  0
  8 24  2  0
 24  4  1  0
 23 17  1  0
  1 25  1  0
  5 26  1  0
  6 27  1  0
  7 28  1  0
  9 29  1  0
 12 30  1  0
 12 31  1  0
 18 32  1  0
 19 33  1  0
 22 34  1  0
 23 35  1  0
 24 36  1  0
M  CHG  2   1  -1  13  -1
M  END
>  <UniqueID>  (5) 
5

>  <SMILES>  (5) 
[NH-]C(=O)c1cccc(NC(=O)C[N-]S(=O)(=O)c2ccc(Cl)cc2)c1

>  <Energy>  (5) 
37.93657605400442

>  <Genealogy>  (5) 
[NH-]C(=O)c1cccc(NC(=O)C[N-]S(=O)(=O)c2ccc(Cl)cc2)c1 (protonated)
[NH-]C(=O)c1cccc(NC(=O)C[N-]S(=O)(=O)c2ccc(Cl)cc2)c1 (3D coordinates assigned)
[NH-]C(=O)c1cccc(NC(=O)C[N-]S(=O)(=O)c2ccc(Cl)cc2)c1 (optimized conformer: 37.93657605400442 kcal/mol)

>  <smiles>  (5) 
NC(=O)c1cccc(NC(=O)CNS(=O)(=O)c2ccc(Cl)cc2)c1

>  <score_type>  (5) 
oracle

>  <origin>  (5) 
adg

>  <m_score__min__energy>  (5) 
-13.4

>  <m_primary>  (5) 
energy

$$$$
5:0
     RDKit          3D

 42 44  0  0  0  0  0  0  0  0999 V2000
   57.8320   32.3380   41.9020 C   0  0  0  0  0  0  0  0  0  0  0  0
   57.0270   31.3420   42.2700 C   0  0  0  0  0  0  0  0  0  0  0  0
   57.2360   30.5330   43.4950 C   0  0  0  0  0  0  0  0  0  0  0  0
   58.4810   30.6230   44.1430 C   0  0  0  0  0  0  0  0  0  0  0  0
   58.7440   29.8930   45.3170 C   0  0  0  0  0  0  0  0  0  0  0  0
   60.0500   30.0100   46.0160 C   0  0  0  0  0  0  0  0  0  0  0  0
   61.0130   29.2820   45.6440 O   0  0  0  0  0  0  0  0  0  0  0  0
   60.2700   30.9440   47.0860 N   0  0  0  0  0  0  0  0  0  0  0  0
   61.3010   31.9400   47.1030 C   0  0  0  0  0  0  0  0  0  0  0  0
   62.5850   31.5800   47.5320 C   0  0  0  0  0  0  0  0  0  0  0  0
   63.6170   32.5200   47.5360 C   0  0  0  0  0  0  0  0  0  0  0  0
   63.3680   33.8370   47.1400 C   0  0  0  0  0  0  0  0  0  0  0  0
   62.0850   34.2170   46.7470 C   0  0  0  0  0  0  0  0  0  0  0  0
   61.0410   33.2770   46.7340 C   0  0  0  0  0  0  0  0  0  0  0  0
   59.7090   33.7160   46.4440 N   0  0  0  0  0  0  0  0  0  0  0  0
   59.2920   33.9440   45.0670 C   0  0  0  0  0  0  0  0  0  0  0  0
   57.7710   33.9110   45.0840 C   0  0  0  0  0  0  0  0  0  0  0  0
   57.3880   33.2320   46.3970 C   0  0  0  0  0  0  0  0  0  0  0  0
   58.5890   33.4040   47.3150 C   0  0  0  0  0  0  0  0  0  0  0  0
   57.7660   29.0070   45.7980 C   0  0  0  0  0  0  0  0  0  0  0  0
   56.5140   28.9280   45.1760 C   0  0  0  0  0  0  0  0  0  0  0  0
   56.2300   29.7040   44.0440 C   0  0  0  0  0  0  0  0  0  0  0  0
   54.9470   29.6740   43.4910 O   0  0  0  0  0  0  0  0  0  0  0  0
   57.6236   32.9019   40.9808 H   0  0  0  0  0  0  0  0  0  0  0  0
   58.7050   32.5963   42.5194 H   0  0  0  0  0  0  0  0  0  0  0  0
   56.1623   31.1077   41.6318 H   0  0  0  0  0  0  0  0  0  0  0  0
   59.2623   31.2749   43.7251 H   0  0  0  0  0  0  0  0  0  0  0  0
   62.7811   30.5510   47.8676 H   0  0  0  0  0  0  0  0  0  0  0  0
   64.6282   32.2236   47.8515 H   0  0  0  0  0  0  0  0  0  0  0  0
   64.1844   34.5742   47.1383 H   0  0  0  0  0  0  0  0  0  0  0  0
   61.8897   35.2568   46.4460 H   0  0  0  0  0  0  0  0  0  0  0  0
   59.6501   34.9229   44.7154 H   0  0  0  0  0  0  0  0  0  0  0  0
   59.7060   33.1845   44.3874 H   0  0  0  0  0  0  0  0  0  0  0  0
   57.3646   34.9325   45.0475 H   0  0  0  0  0  0  0  0  0  0  0  0
   57.3665   33.3719   44.2146 H   0  0  0  0  0  0  0  0  0  0  0  0
   56.5000   33.7132   46.8329 H   0  0  0  0  0  0  0  0  0  0  0  0
   57.1396   32.1708   46.2480 H   0  0  0  0  0  0  0  0  0  0  0  0
   58.4145   34.2262   48.0246 H   0  0  0  0  0  0  0  0  0  0  0  0
   58.7778   32.4983   47.9100 H   0  0  0  0  0  0  0  0  0  0  0  0
   57.9850   28.3713   46.6686 H   0  0  0  0  0  0  0  0  0  0  0  0
   55.7466   28.2509   45.5794 H   0  0  0  0  0  0  0  0  0  0  0  0
   54.7560   29.2080   42.6100 H   0  0  0  0  0  0  0  0  0  0  0  0
  1  2  2  0
  2  3  1  0
  3  4  2  0
  4  5  1  0
  5  6  1  0
  6  7  2  0
  6  8  1  0
  8  9  1  0
  9 10  2  0
 10 11  1  0
 11 12  2  0
 12 13  1  0
 13 14  2  0
 14 15  1  0
 15 16  1  0
 16 17  1  0
 17 18  1  0
 18 19  1  0
  5 20  2  0
 20 21  1  0
 21 22  2  0
 22 23  1  0
 22  3  1  0
 14  9  1  0
 19 15  1  0
  1 24  1  0
  1 25  1  0
  2 26  1  0
  4 27  1  0
 10 28  1  0
 11 29  1  0
 12 30  1  0
 13 31  1  0
 16 32  1  0
 16 33  1  0
 17 34  1  0
 17 35  1  0
 18 36  1  0
 18 37  1  0
 19 38  1  0
 19 39  1  0
 20 40  1  0
 21 41  1  0
 23 42  1  0
M  CHG  1   8  -1
M  END
>  <UniqueID>  (6) 
6

>  <SMILES>  (6) 
C=Cc1cc(C(=O)[N-]c2ccccc2N2CCCC2)ccc1O

>  <Energy>  (6) 
63.58592301966321

>  <Genealogy>  (6) 
C=Cc1cc(C(=O)[N-]c2ccccc2N2CCCC2)ccc1O (protonated)
C=Cc1cc(C(=O)[N-]c2ccccc2N2CCCC2)ccc1O (3D coordinates assigned)
C=Cc1cc(C(=O)[N-]c2ccccc2N2CCCC2)ccc1O (nonaromatic ring conformer: 63.58592301966321 kcal/mol)

>  <smiles>  (6) 
C=Cc1cc(C(=O)Nc2ccccc2N2CCCC2)ccc1O

>  <score_type>  (6) 
oracle

>  <origin>  (6) 
adg

>  <m_score__min__energy>  (6) 
-9.4100000000000001

>  <m_primary>  (6) 
energy

$$$$
6:0
     RDKit          3D

 71 76  0  0  0  0  0  0  0  0999 V2000
   58.7750   34.1550   46.1890 C   0  0  0  0  0  0  0  0  0  0  0  0
   59.8210   34.4300   46.9730 C   0  0  0  0  0  0  0  0  0  0  0  0
   60.9040   33.4190   47.2230 C   0  0  0  0  0  0  0  0  0  0  0  0
   60.3310   32.1630   47.7140 N   0  0  0  0  0  0  0  0  0  0  0  0
   60.4030   30.9250   46.9240 C   0  0  0  0  0  0  0  0  0  0  0  0
   59.1060   30.0930   47.0790 C   0  0  2  0  0  0  0  0  0  0  0  0
   57.9410   30.8290   46.5670 N   0  0  0  0  0  0  0  0  0  0  0  0
   57.4810   30.3370   44.9600 S   0  0  0  0  0  0  0  0  0  0  0  0
   56.0810   30.8150   44.6940 O   0  0  0  0  0  0  0  0  0  0  0  0
   58.3940   30.9900   43.9600 O   0  0  0  0  0  0  0  0  0  0  0  0
   57.5190   28.5860   44.7640 C   0  0  0  0  0  0  0  0  0  0  0  0
   57.7730   28.0340   43.5030 C   0  0  0  0  0  0  0  0  0  0  0  0
   57.7780   26.6470   43.3290 C   0  0  0  0  0  0  0  0  0  0  0  0
   57.5260   25.7900   44.4160 C   0  0  0  0  0  0  0  0  0  0  0  0
   57.5310   24.3160   44.2320 C   0  0  0  0  0  0  0  0  0  0  0  0
   58.4330   23.5070   44.9490 C   0  0  0  0  0  0  0  0  0  0  0  0
   58.4340   22.1200   44.7750 C   0  0  0  0  0  0  0  0  0  0  0  0
   57.5360   21.5250   43.8860 C   0  0  0  0  0  0  0  0  0  0  0  0
   56.6360   22.3160   43.1670 C   0  0  0  0  0  0  0  0  0  0  0  0
   56.6320   23.7040   43.3370 C   0  0  0  0  0  0  0  0  0  0  0  0
   57.2700   26.3520   45.6800 C   0  0  0  0  0  0  0  0  0  0  0  0
   57.2650   27.7390   45.8510 C   0  0  0  0  0  0  0  0  0  0  0  0
   58.8670   29.7750   48.5710 C   0  0  0  0  0  0  0  0  0  0  0  0
   59.0090   30.9890   49.3770 N   0  0  0  0  0  0  0  0  0  0  0  0
   59.7010   32.0850   49.0010 C   0  0  0  0  0  0  0  0  0  0  0  0
   59.7290   33.0720   49.9330 N   0  0  0  0  0  0  0  0  0  0  0  0
   59.0230   32.5210   50.9450 C   0  0  0  0  0  0  0  0  0  0  0  0
   58.6010   31.2730   50.6230 C   0  0  0  0  0  0  0  0  0  0  0  0
   57.8880   30.5120   51.5370 C   0  0  0  0  0  0  0  0  0  0  0  0
   57.5080   29.3470   51.2400 O   0  0  0  0  0  0  0  0  0  0  0  0
   57.6170   31.0590   52.7730 N   0  0  0  0  0  0  0  0  0  0  0  0
   56.8220   30.2940   53.7550 C   0  0  0  0  0  0  0  0  0  0  0  0
   57.4400   28.9400   53.9880 C   0  0  0  0  0  0  0  0  0  0  0  0
   58.8150   28.8220   54.2490 C   0  0  0  0  0  0  0  0  0  0  0  0
   59.3810   27.5690   54.5030 C   0  0  0  0  0  0  0  0  0  0  0  0
   58.5780   26.4250   54.5020 C   0  0  0  0  0  0  0  0  0  0  0  0
   57.2090   26.5330   54.2460 C   0  0  0  0  0  0  0  0  0  0  0  0
   56.6390   27.7850   53.9910 C   0  0  0  0  0  0  0  0  0  0  0  0
   58.0560   32.3410   53.0770 C   0  0  0  0  0  0  0  0  0  0  0  0
   57.8190   32.8310   54.2160 O   0  0  0  0  0  0  0  0  0  0  0  0
   58.7530   33.0870   52.1510 N   0  0  0  0  0  0  0  0  0  0  0  0
   59.2560   34.4280   52.4820 C   0  0  0  0  0  0  0  0  0  0  0  0
   57.9968   34.9146   46.0237 H   0  0  0  0  0  0  0  0  0  0  0  0
   58.6919   33.1689   45.7087 H   0  0  0  0  0  0  0  0  0  0  0  0
   59.8911   35.4202   47.4469 H   0  0  0  0  0  0  0  0  0  0  0  0
   61.4442   33.2277   46.2841 H   0  0  0  0  0  0  0  0  0  0  0  0
   61.5928   33.8165   47.9829 H   0  0  0  0  0  0  0  0  0  0  0  0
   60.5410   31.1823   45.8635 H   0  0  0  0  0  0  0  0  0  0  0  0
   61.2503   30.3252   47.2878 H   0  0  0  0  0  0  0  0  0  0  0  0
   59.2285   29.1650   46.5013 H   0  0  0  0  0  0  0  0  0  0  0  0
   57.9695   28.6943   42.6455 H   0  0  0  0  0  0  0  0  0  0  0  0
   57.9805   26.2224   42.3347 H   0  0  0  0  0  0  0  0  0  0  0  0
   59.1421   23.9697   45.6512 H   0  0  0  0  0  0  0  0  0  0  0  0
   59.1431   21.4963   45.3391 H   0  0  0  0  0  0  0  0  0  0  0  0
   57.5372   20.4332   43.7518 H   0  0  0  0  0  0  0  0  0  0  0  0
   55.9299   21.8463   42.4665 H   0  0  0  0  0  0  0  0  0  0  0  0
   55.9220   24.3220   42.7679 H   0  0  0  0  0  0  0  0  0  0  0  0
   57.0724   25.6950   46.5399 H   0  0  0  0  0  0  0  0  0  0  0  0
   57.0608   28.1677   46.8432 H   0  0  0  0  0  0  0  0  0  0  0  0
   57.8516   29.3714   48.6981 H   0  0  0  0  0  0  0  0  0  0  0  0
   59.6102   29.0352   48.9033 H   0  0  0  0  0  0  0  0  0  0  0  0
   56.7903   30.8467   54.7055 H   0  0  0  0  0  0  0  0  0  0  0  0
   55.8031   30.1593   53.3629 H   0  0  0  0  0  0  0  0  0  0  0  0
   59.4500   29.7202   54.2536 H   0  0  0  0  0  0  0  0  0  0  0  0
   60.4591   27.4835   54.7038 H   0  0  0  0  0  0  0  0  0  0  0  0
   59.0240   25.4397   54.7028 H   0  0  0  0  0  0  0  0  0  0  0  0
   56.5780   25.6320   54.2449 H   0  0  0  0  0  0  0  0  0  0  0  0
   55.5601   27.8657   53.7922 H   0  0  0  0  0  0  0  0  0  0  0  0
   59.2995   34.5438   53.5750 H   0  0  0  0  0  0  0  0  0  0  0  0
   60.2634   34.5564   52.0593 H   0  0  0  0  0  0  0  0  0  0  0  0
   58.5815   35.1873   52.0593 H   0  0  0  0  0  0  0  0  0  0  0  0
  1  2  2  0
  2  3  1  0
  3  4  1  0
  4  5  1  0
  5  6  1  0
  6  7  1  0
  7  8  1  0
  8  9  2  0
  8 10  2  0
  8 11  1  0
 11 12  2  0
 12 13  1  0
 13 14  2  0
 14 15  1  0
 15 16  2  0
 16 17  1  0
 17 18  2  0
 18 19  1  0
 19 20  2  0
 14 21  1  0
 21 22  2  0
  6 23  1  0
 23 24  1  0
 24 25  1  0
 25 26  2  0
 26 27  1  0
 27 28  2  0
 28 29  1  0
 29 30  2  0
 29 31  1  0
 31 32  1  0
 32 33  1  0
 33 34  2  0
 34 35  1  0
 35 36  2  0
 36 37  1  0
 37 38  2  0
 31 39  1  0
 39 40  2  0
 39 41  1  0
 41 42  1  0
 25  4  1  0
 41 27  1  0
 22 11  1  0
 28 24  1  0
 38 33  1  0
 20 15  1  0
  1 43  1  0
  1 44  1  0
  2 45  1  0
  3 46  1  0
  3 47  1  0
  5 48  1  0
  5 49  1  0
  6 50  1  6
 12 51  1  0
 13 52  1  0
 16 53  1  0
 17 54  1  0
 18 55  1  0
 19 56  1  0
 20 57  1  0
 21 58  1  0
 22 59  1  0
 23 60  1  0
 23 61  1  0
 32 62  1  0
 32 63  1  0
 34 64  1  0
 35 65  1  0
 36 66  1  0
 37 67  1  0
 38 68  1  0
 42 69  1  0
 42 70  1  0
 42 71  1  0
M  CHG  1   7  -1
M  END
>  <UniqueID>  (7) 
7

>  <SMILES>  (7) 
C=CCN1C[C@H]([N-]S(=O)(=O)c2ccc(-c3ccccc3)cc2)Cn2c1nc1c2c(=O)n(Cc2ccccc2)c(=O)n1C

>  <Energy>  (7) 
126.00017573468782

>  <Genealogy>  (7) 
C=CCN1CC([N-]S(=O)(=O)c2ccc(-c3ccccc3)cc2)Cn2c1nc1c2c(=O)n(Cc2ccccc2)c(=O)n1C (protonated)
C=CCN1C[C@H]([N-]S(=O)(=O)c2ccc(-c3ccccc3)cc2)Cn2c1nc1c2c(=O)n(Cc2ccccc2)c(=O)n1C (chirality)
C=CCN1C[C@H]([N-]S(=O)(=O)c2ccc(-c3ccccc3)cc2)Cn2c1nc1c2c(=O)n(Cc2ccccc2)c(=O)n1C (3D coordinates assigned)
C=CCN1C[C@H]([N-]S(=O)(=O)c2ccc(-c3ccccc3)cc2)Cn2c1nc1c2c(=O)n(Cc2ccccc2)c(=O)n1C (nonaromatic ring conformer: 126.00017573468782 kcal/mol)

>  <smiles>  (7) 
C=CCN1CC(NS(=O)(=O)c2ccc(-c3ccccc3)cc2)Cn2c1nc1c2c(=O)n(Cc2ccccc2)c(=O)n1C

>  <score_type>  (7) 
oracle

>  <origin>  (7) 
adg

>  <m_score__min__energy>  (7) 
-12.23

>  <m_primary>  (7) 
energy

$$$$
7:0
     RDKit          3D

 33 35  0  0  0  0  0  0  0  0999 V2000
   58.8408   32.4008   42.7115 H   0  0  0  0  0  0  0  0  0  0  0  0
   58.1250   32.2950   43.5400 C   0  0  0  0  0  0  0  0  0  0  0  0
   57.0990   31.4480   43.3650 C   0  0  0  0  0  0  0  0  0  0  0  0
   56.3536   31.7063   42.5984 H   0  0  0  0  0  0  0  0  0  0  0  0
   56.8920   30.1960   44.1210 C   0  0  0  0  0  0  0  0  0  0  0  0
   55.6910   29.7070   44.5120 N   0  0  0  0  0  0  0  0  0  0  0  0
   55.8850   28.6050   45.2310 N   0  0  0  0  0  0  0  0  0  0  0  0
   57.2130   28.3990   45.3090 C   0  0  0  0  0  0  0  0  0  0  0  0
   57.8860   27.3590   45.9690 C   0  0  0  0  0  0  0  0  0  0  0  0
   57.0990   26.2850   46.6760 C   0  0  0  0  0  0  0  0  0  0  0  0
   57.1951   26.4161   47.7639 H   0  0  0  0  0  0  0  0  0  0  0  0
   56.0394   26.3585   46.3900 H   0  0  0  0  0  0  0  0  0  0  0  0
   57.4883   25.2968   46.3900 H   0  0  0  0  0  0  0  0  0  0  0  0
   59.3180   27.3750   45.9260 C   0  0  0  0  0  0  0  0  0  0  0  0
   60.1580   26.3560   46.6090 C   0  0  0  0  0  0  0  0  0  0  0  0
   60.4030   25.2430   46.0740 O   0  0  0  0  0  0  0  0  0  0  0  0
   60.6660   26.6090   47.8780 O   0  0  0  0  0  0  0  0  0  0  0  0
   59.9800   28.4070   45.2050 C   0  0  0  0  0  0  0  0  0  0  0  0
   61.0790   28.4115   45.1581 H   0  0  0  0  0  0  0  0  0  0  0  0
   59.2600   29.4200   44.5520 C   0  0  0  0  0  0  0  0  0  0  0  0
   59.7757   30.2170   43.9962 H   0  0  0  0  0  0  0  0  0  0  0  0
   57.8750   29.3810   44.6320 C   0  0  0  0  0  0  0  0  0  0  0  0
   58.3700   33.0970   44.7570 C   0  0  0  0  0  0  0  0  0  0  0  0
   59.2360   34.2050   44.7370 C   0  0  0  0  0  0  0  0  0  0  0  0
   59.7165   34.5088   43.7953 H   0  0  0  0  0  0  0  0  0  0  0  0
   59.4880   34.9220   45.9120 C   0  0  0  0  0  0  0  0  0  0  0  0
   60.1527   35.7981   45.8893 H   0  0  0  0  0  0  0  0  0  0  0  0
   58.8960   34.5260   47.1140 C   0  0  0  0  0  0  0  0  0  0  0  0
   59.0887   35.0950   48.0355 H   0  0  0  0  0  0  0  0  0  0  0  0
   58.0590   33.4070   47.1460 C   0  0  0  0  0  0  0  0  0  0  0  0
   57.5995   33.0916   48.0944 H   0  0  0  0  0  0  0  0  0  0  0  0
   57.8050   32.6880   45.9740 C   0  0  0  0  0  0  0  0  0  0  0  0
   57.1594   31.7979   46.0065 H   0  0  0  0  0  0  0  0  0  0  0  0
  1  2  1  0
  2  3  2  0
  3  4  1  0
  3  5  1  0
  5  6  1  0
  6  7  1  0
  7  8  2  0
  8  9  1  0
  9 10  1  0
 10 11  1  0
 10 12  1  0
 10 13  1  0
  9 14  2  0
 14 15  1  0
 15 16  2  0
 15 17  1  0
 14 18  1  0
 18 19  1  0
 18 20  2  0
 20 21  1  0
 20 22  1  0
  2 23  1  0
 23 24  2  0
 24 25  1  0
 24 26  1  0
 26 27  1  0
 26 28  2  0
 28 29  1  0
 28 30  1  0
 30 31  1  0
 30 32  2  0
 32 33  1  0
 22  5  2  0
 32 23  1  0
 22  8  1  0
M  CHG  2   6  -1  17  -1
M  END
>  <UniqueID>  (8) 
8

>  <SMILES>  (8) 
Cc1c(C(=O)[O-])ccc2c(/C=C\c3ccccc3)[n-]nc12

>  <Energy>  (8) 
85.4136962271952

>  <Genealogy>  (8) 
Cc1c(C(=O)[O-])ccc2c(C=Cc3ccccc3)[n-]nc12 (protonated)
Cc1c(C(=O)[O-])ccc2c(/C=C\c3ccccc3)[n-]nc12 (cis-trans isomerization)
Cc1c(C(=O)[O-])ccc2c(/C=C\c3ccccc3)[n-]nc12 (3D coordinates assigned)
Cc1c(C(=O)[O-])ccc2c(/C=C\c3ccccc3)[n-]nc12 (optimized conformer: 85.4136962271952 kcal/mol)

>  <smiles>  (8) 
Cc1c(C(=O)O)ccc2c(C=Cc3ccccc3)[nH]nc12

>  <score_type>  (8) 
oracle

>  <origin>  (8) 
adg

>  <m_score__min__energy>  (8) 
-11.390000000000001

>  <m_primary>  (8) 
energy

$$$$
8:0
     RDKit          3D

 56 58  0  0  0  0  0  0  0  0999 V2000
   60.1940   31.3610   51.1900 C   0  0  0  0  0  0  0  0  0  0  0  0
   60.8870   32.2290   50.3010 O   0  0  0  0  0  0  0  0  0  0  0  0
   62.2770   32.2320   50.1040 C   0  0  0  0  0  0  0  0  0  0  0  0
   63.1350   31.4680   50.9240 C   0  0  0  0  0  0  0  0  0  0  0  0
   64.5180   31.5130   50.7370 C   0  0  0  0  0  0  0  0  0  0  0  0
   65.0640   32.3300   49.7490 C   0  0  0  0  0  0  0  0  0  0  0  0
   64.2280   33.0880   48.9270 C   0  0  0  0  0  0  0  0  0  0  0  0
   62.8280   33.0180   49.0640 C   0  0  0  0  0  0  0  0  0  0  0  0
   61.9530   33.8720   48.1620 C   0  0  0  0  0  0  0  0  0  0  0  0
   60.5070   33.5060   48.1050 N   0  0  1  0  0  0  0  0  0  0  0  0
   59.5570   34.6030   47.8210 C   0  0  0  0  0  0  0  0  0  0  0  0
   59.3580   34.9600   46.3270 C   0  0  0  0  0  0  0  0  0  0  0  0
   59.6330   33.8440   45.2980 C   0  0  0  0  0  0  0  0  0  0  0  0
   59.2250   32.5050   45.7370 N   0  0  0  0  0  0  0  0  0  0  0  0
   57.7680   32.3960   45.9400 C   0  0  0  0  0  0  0  0  0  0  0  0
   57.1190   31.7610   44.7380 C   0  0  0  0  0  0  0  0  0  0  0  0
   57.4430   32.1620   43.5880 O   0  0  0  0  0  0  0  0  0  0  0  0
   56.1150   30.7410   44.8530 N   0  0  0  0  0  0  0  0  0  0  0  0
   55.8140   29.7130   43.8610 C   0  0  0  0  0  0  0  0  0  0  0  0
   57.0980   29.0290   43.3890 C   0  0  0  0  0  0  0  0  0  0  0  0
   57.9770   28.6820   44.5600 C   0  0  0  0  0  0  0  0  0  0  0  0
   59.3450   29.0090   44.5470 C   0  0  0  0  0  0  0  0  0  0  0  0
   60.1570   28.6910   45.6430 C   0  0  0  0  0  0  0  0  0  0  0  0
   59.6070   28.0580   46.7610 C   0  0  0  0  0  0  0  0  0  0  0  0
   60.3970   27.7450   47.8210 F   0  0  0  0  0  0  0  0  0  0  0  0
   58.2420   27.7480   46.7870 C   0  0  0  0  0  0  0  0  0  0  0  0
   57.4270   28.0630   45.6930 C   0  0  0  0  0  0  0  0  0  0  0  0
   60.1320   32.0770   47.1650 S   0  0  0  0  0  0  0  0  0  0  0  0
   59.3260   31.1350   48.0210 O   0  0  0  0  0  0  0  0  0  0  0  0
   61.3820   31.3590   46.7440 O   0  0  0  0  0  0  0  0  0  0  0  0
   60.4197   31.6437   52.2288 H   0  0  0  0  0  0  0  0  0  0  0  0
   59.1113   31.4444   51.0143 H   0  0  0  0  0  0  0  0  0  0  0  0
   60.5151   30.3237   51.0143 H   0  0  0  0  0  0  0  0  0  0  0  0
   62.7112   30.8328   51.7158 H   0  0  0  0  0  0  0  0  0  0  0  0
   65.1778   30.9023   51.3708 H   0  0  0  0  0  0  0  0  0  0  0  0
   66.1550   32.3778   49.6166 H   0  0  0  0  0  0  0  0  0  0  0  0
   64.6676   33.7472   48.1639 H   0  0  0  0  0  0  0  0  0  0  0  0
   62.0220   34.9116   48.5147 H   0  0  0  0  0  0  0  0  0  0  0  0
   62.3367   33.7117   47.1436 H   0  0  0  0  0  0  0  0  0  0  0  0
   60.2840   33.2130   49.0850 H   0  0  0  0  0  0  0  0  0  0  0  0
   58.5779   34.3148   48.2313 H   0  0  0  0  0  0  0  0  0  0  0  0
   59.9933   35.5002   48.2844 H   0  0  0  0  0  0  0  0  0  0  0  0
   58.3134   35.2799   46.1985 H   0  0  0  0  0  0  0  0  0  0  0  0
   60.1095   35.7350   46.1158 H   0  0  0  0  0  0  0  0  0  0  0  0
   59.0869   34.0850   44.3740 H   0  0  0  0  0  0  0  0  0  0  0  0
   60.7229   33.8099   45.1535 H   0  0  0  0  0  0  0  0  0  0  0  0
   57.5706   31.7777   46.8281 H   0  0  0  0  0  0  0  0  0  0  0  0
   57.3500   33.4035   46.0820 H   0  0  0  0  0  0  0  0  0  0  0  0
   55.1478   28.9614   44.3097 H   0  0  0  0  0  0  0  0  0  0  0  0
   55.3255   30.1862   42.9965 H   0  0  0  0  0  0  0  0  0  0  0  0
   56.8382   28.1077   42.8470 H   0  0  0  0  0  0  0  0  0  0  0  0
   57.6442   29.7189   42.7289 H   0  0  0  0  0  0  0  0  0  0  0  0
   59.7788   29.5164   43.6727 H   0  0  0  0  0  0  0  0  0  0  0  0
   61.2284   28.9397   45.6238 H   0  0  0  0  0  0  0  0  0  0  0  0
   57.8084   27.2554   47.6698 H   0  0  0  0  0  0  0  0  0  0  0  0
   56.3535   27.8248   45.7216 H   0  0  0  0  0  0  0  0  0  0  0  0
  1  2  1  0
  2  3  1  0
  3  4  2  0
  4  5  1  0
  5  6  2  0
  6  7  1  0
  7  8  2  0
  8  9  1  0
  9 10  1  0
 10 11  1  0
 11 12  1  0
 12 13  1  0
 13 14  1  0
 14 15  1  0
 15 16  1  0
 16 17  2  0
 16 18  1  0
 18 19  1  0
 19 20  1  0
 20 21  1  0
 21 22  2  0
 22 23  1  0
 23 24  2  0
 24 25  1  0
 24 26  1  0
 26 27  2  0
 14 28  1  0
 28 29  2  0
 28 30  2  0
  8  3  1  0
 28 10  1  0
 27 21  1  0
  1 31  1  0
  1 32  1  0
  1 33  1  0
  4 34  1  0
  5 35  1  0
  6 36  1  0
  7 37  1  0
  9 38  1  0
  9 39  1  0
 10 40  1  1
 11 41  1  0
 11 42  1  0
 12 43  1  0
 12 44  1  0
 13 45  1  0
 13 46  1  0
 15 47  1  0
 15 48  1  0
 19 49  1  0
 19 50  1  0
 20 51  1  0
 20 52  1  0
 22 53  1  0
 23 54  1  0
 26 55  1  0
 27 56  1  0
M  CHG  2  10   1  18  -1
M  END
>  <UniqueID>  (9) 
9

>  <SMILES>  (9) 
COc1ccccc1C[N@H+]1CCCN(CC(=O)[N-]CCc2ccc(F)cc2)S1(=O)=O

>  <Energy>  (9) 
68.34435277292799

>  <Genealogy>  (9) 
COc1ccccc1C[NH+]1CCCN(CC(=O)[N-]CCc2ccc(F)cc2)S1(=O)=O (protonated)
COc1ccccc1C[N@H+]1CCCN(CC(=O)[N-]CCc2ccc(F)cc2)S1(=O)=O (chirality)
COc1ccccc1C[N@H+]1CCCN(CC(=O)[N-]CCc2ccc(F)cc2)S1(=O)=O (3D coordinates assigned)
COc1ccccc1C[N@H+]1CCCN(CC(=O)[N-]CCc2ccc(F)cc2)S1(=O)=O (nonaromatic ring conformer: 68.34435277292799 kcal/mol)

>  <smiles>  (9) 
COc1ccccc1CN1CCCN(CC(=O)NCCc2ccc(F)cc2)S1(=O)=O

>  <score_type>  (9) 
oracle

>  <origin>  (9) 
adg

>  <m_score__min__energy>  (9) 
-8.1400000000000006

>  <m_primary>  (9) 
energy

$$$$
9:0
     RDKit          3D

 73 76  0  0  0  0  0  0  0  0999 V2000
   56.5030   30.2580   42.4800 C   0  0  0  0  0  0  0  0  0  0  0  0
   56.3640   30.7260   43.9420 C   0  0  2  0  0  0  0  0  0  0  0  0
   57.5210   31.6320   44.4480 C   0  0  0  0  0  0  0  0  0  0  0  0
   57.0920   32.8410   45.3010 C   0  0  0  0  0  0  0  0  0  0  0  0
   58.2240   33.2920   46.1840 C   0  0  0  0  0  0  0  0  0  0  0  0
   59.3100   34.0250   45.6370 C   0  0  0  0  0  0  0  0  0  0  0  0
   60.3560   34.4750   46.4620 C   0  0  0  0  0  0  0  0  0  0  0  0
   60.2790   34.1890   47.8220 C   0  0  0  0  0  0  0  0  0  0  0  0
   59.2380   33.5000   48.3550 C   0  0  0  0  0  0  0  0  0  0  0  0
   58.1840   33.0350   47.5730 C   0  0  0  0  0  0  0  0  0  0  0  0
   59.4220   33.3680   49.7170 O   0  0  0  0  0  0  0  0  0  0  0  0
   60.6560   34.0140   50.0620 C   0  0  0  0  0  0  0  0  0  0  0  0
   61.1690   34.5250   48.8240 O   0  0  0  0  0  0  0  0  0  0  0  0
   56.0500   29.6200   44.8730 N   0  0  0  0  0  0  0  0  0  0  0  0
   57.2190   28.8750   45.3650 C   0  0  0  0  0  0  0  0  0  0  0  0
   56.9540   27.3620   45.2860 C   0  0  2  0  0  0  0  0  0  0  0  0
   55.6630   27.0580   45.7540 O   0  0  0  0  0  0  0  0  0  0  0  0
   58.0130   26.5680   46.0750 C   0  0  0  0  0  0  0  0  0  0  0  0
   58.2870   27.1940   47.3300 O   0  0  0  0  0  0  0  0  0  0  0  0
   59.1800   28.2580   47.5320 C   0  0  0  0  0  0  0  0  0  0  0  0
   59.8180   28.9300   46.4700 C   0  0  0  0  0  0  0  0  0  0  0  0
   60.7310   29.9550   46.7320 C   0  0  0  0  0  0  0  0  0  0  0  0
   61.0170   30.3210   48.0500 C   0  0  0  0  0  0  0  0  0  0  0  0
   60.3710   29.6780   49.1180 C   0  0  0  0  0  0  0  0  0  0  0  0
   60.7420   30.0110   50.5410 C   0  0  0  0  0  0  0  0  0  0  0  0
   59.6850   30.9140   51.1890 C   0  0  0  0  0  0  0  0  0  0  0  0
   58.5720   30.1180   51.7060 N   0  0  0  0  0  0  0  0  0  0  0  0
   57.2730   30.6830   51.9390 C   0  0  0  0  0  0  0  0  0  0  0  0
   57.1200   31.9330   51.9190 O   0  0  0  0  0  0  0  0  0  0  0  0
   56.1180   29.8530   52.1050 N   0  0  0  0  0  0  0  0  0  0  0  0
   54.7590   30.2910   52.2330 C   0  0  0  0  0  0  0  0  0  0  0  0
   54.0370   30.7830   51.1340 C   0  0  0  0  0  0  0  0  0  0  0  0
   52.7090   31.1920   51.2900 C   0  0  0  0  0  0  0  0  0  0  0  0
   52.0730   31.0930   52.5410 C   0  0  0  0  0  0  0  0  0  0  0  0
   50.7150   31.5360   52.7130 N   0  0  0  0  0  0  0  0  0  0  0  0
   49.9320   30.9110   53.4600 O   0  0  0  0  0  0  0  0  0  0  0  0
   50.2430   32.6330   52.0280 O   0  0  0  0  0  0  0  0  0  0  0  0
   52.7880   30.5550   53.6250 C   0  0  0  0  0  0  0  0  0  0  0  0
   54.1170   30.1530   53.4670 C   0  0  0  0  0  0  0  0  0  0  0  0
   59.4480   28.6540   48.8470 C   0  0  0  0  0  0  0  0  0  0  0  0
   56.8161   29.2037   42.4607 H   0  0  0  0  0  0  0  0  0  0  0  0
   55.5351   30.3624   41.9680 H   0  0  0  0  0  0  0  0  0  0  0  0
   57.2570   30.8739   41.9680 H   0  0  0  0  0  0  0  0  0  0  0  0
   55.4851   31.3874   43.9330 H   0  0  0  0  0  0  0  0  0  0  0  0
   58.1966   31.0115   45.0551 H   0  0  0  0  0  0  0  0  0  0  0  0
   57.9932   32.0504   43.5469 H   0  0  0  0  0  0  0  0  0  0  0  0
   56.8001   33.6675   44.6364 H   0  0  0  0  0  0  0  0  0  0  0  0
   56.2428   32.5456   45.9347 H   0  0  0  0  0  0  0  0  0  0  0  0
   59.3333   34.2426   44.5590 H   0  0  0  0  0  0  0  0  0  0  0  0
   61.2070   35.0345   46.0463 H   0  0  0  0  0  0  0  0  0  0  0  0
   57.3451   32.4839   48.0231 H   0  0  0  0  0  0  0  0  0  0  0  0
   60.4771   34.8336   50.7735 H   0  0  0  0  0  0  0  0  0  0  0  0
   61.3615   33.3231   50.5467 H   0  0  0  0  0  0  0  0  0  0  0  0
   55.4090   28.9520   44.3830 H   0  0  0  0  0  0  0  0  0  0  0  0
   58.0948   29.1235   44.7477 H   0  0  0  0  0  0  0  0  0  0  0  0
   57.4079   29.1529   46.4124 H   0  0  0  0  0  0  0  0  0  0  0  0
   57.0228   27.0645   44.2292 H   0  0  0  0  0  0  0  0  0  0  0  0
   55.1460   27.9060   45.7750 H   0  0  0  0  0  0  0  0  0  0  0  0
   57.6398   25.5489   46.2544 H   0  0  0  0  0  0  0  0  0  0  0  0
   58.9417   26.5381   45.4862 H   0  0  0  0  0  0  0  0  0  0  0  0
   59.5963   28.6464   45.4305 H   0  0  0  0  0  0  0  0  0  0  0  0
   61.2259   30.4751   45.8986 H   0  0  0  0  0  0  0  0  0  0  0  0
   61.7507   31.1155   48.2514 H   0  0  0  0  0  0  0  0  0  0  0  0
   60.8217   29.0787   51.1193 H   0  0  0  0  0  0  0  0  0  0  0  0
   61.7034   30.5455   50.5360 H   0  0  0  0  0  0  0  0  0  0  0  0
   60.1456   31.4719   52.0177 H   0  0  0  0  0  0  0  0  0  0  0  0
   59.2995   31.6093   50.4287 H   0  0  0  0  0  0  0  0  0  0  0  0
   58.6930   29.0810   51.7050 H   0  0  0  0  0  0  0  0  0  0  0  0
   54.5178   30.8470   50.1467 H   0  0  0  0  0  0  0  0  0  0  0  0
   52.1571   31.5944   50.4277 H   0  0  0  0  0  0  0  0  0  0  0  0
   52.2981   30.4497   54.6043 H   0  0  0  0  0  0  0  0  0  0  0  0
   54.6624   29.7244   54.3207 H   0  0  0  0  0  0  0  0  0  0  0  0
   58.9291   28.1569   49.6798 H   0  0  0  0  0  0  0  0  0  0  0  0
  1  2  1  0
  2  3  1  0
  3  4  1  0
  4  5  1  0
  5  6  2  0
  6  7  1  0
  7  8  2  0
  8  9  1  0
  9 10  2  0
  9 11  1  0
 11 12  1  0
 12 13  1  0
  2 14  1  0
 14 15  1  0
 15 16  1  0
 16 17  1  0
 16 18  1  0
 18 19  1  0
 19 20  1  0
 20 21  2  0
 21 22  1  0
 22 23  2  0
 23 24  1  0
 24 25  1  0
 25 26  1  0
 26 27  1  0
 27 28  1  0
 28 29  2  0
 28 30  1  0
 30 31  1  0
 31 32  2  0
 32 33  1  0
 33 34  2  0
 34 35  1  0
 35 36  2  0
 35 37  1  0
 34 38  1  0
 38 39  2  0
 24 40  2  0
 10  5  1  0
 40 20  1  0
 13  8  1  0
 39 31  1  0
  1 41  1  0
  1 42  1  0
  1 43  1  0
  2 44  1  6
  3 45  1  0
  3 46  1  0
  4 47  1  0
  4 48  1  0
  6 49  1  0
  7 50  1  0
 10 51  1  0
 12 52  1  0
 12 53  1  0
 14 54  1  0
 15 55  1  0
 15 56  1  0
 16 57  1  6
 17 58  1  0
 18 59  1  0
 18 60  1  0
 21 61  1  0
 22 62  1  0
 23 63  1  0
 25 64  1  0
 25 65  1  0
 26 66  1  0
 26 67  1  0
 27 68  1  0
 32 69  1  0
 33 70  1  0
 38 71  1  0
 39 72  1  0
 40 73  1  0
M  CHG  3  30  -1  35   1  37  -1
M  END
>  <UniqueID>  (10) 
10

>  <SMILES>  (10) 
C[C@H](CCc1ccc2c(c1)OCO2)NC[C@H](O)COc1cccc(CCNC(=O)[N-]c2ccc([N+](=O)[O-])cc2)c1

>  <Energy>  (10) 
102.21342370329525

>  <Genealogy>  (10) 
CC(CCc1ccc2c(c1)OCO2)NCC(O)COc1cccc(CCNC(=O)[N-]c2ccc([N+](=O)[O-])cc2)c1 (protonated)
C[C@H](CCc1ccc2c(c1)OCO2)NC[C@H](O)COc1cccc(CCNC(=O)[N-]c2ccc([N+](=O)[O-])cc2)c1 (chirality)
C[C@H](CCc1ccc2c(c1)OCO2)NC[C@H](O)COc1cccc(CCNC(=O)[N-]c2ccc([N+](=O)[O-])cc2)c1 (3D coordinates assigned)
C[C@H](CCc1ccc2c(c1)OCO2)NC[C@H](O)COc1cccc(CCNC(=O)[N-]c2ccc([N+](=O)[O-])cc2)c1 (nonaromatic ring conformer: 102.21342370329525 kcal/mol)

>  <smiles>  (10) 
CC(CCc1ccc2c(c1)OCO2)NCC(O)COc1cccc(CCNC(=O)Nc2ccc([N+](=O)[O-])cc2)c1

>  <score_type>  (10) 
oracle

>  <origin>  (10) 
adg

>  <m_score__min__energy>  (10) 
-11.720000000000001

>  <m_primary>  (10) 
energy

$$$$
10:0
     RDKit          3D

 40 44  0  0  0  0  0  0  0  0999 V2000
   55.1450   27.8600   45.9950 H   0  0  0  0  0  0  0  0  0  0  0  0
   55.1480   26.8650   45.8100 O   0  0  0  0  0  0  0  0  0  0  0  0
   56.0760   26.0330   46.4270 C   0  0  0  0  0  0  0  0  0  0  0  0
   55.7550   24.8760   47.0300 N   0  0  0  0  0  0  0  0  0  0  0  0
   56.9580   24.3930   47.4060 C   0  0  0  0  0  0  0  0  0  0  0  0
   57.0900   23.2970   48.0110 O   0  0  0  0  0  0  0  0  0  0  0  0
   58.0100   25.1720   47.0750 N   0  0  0  0  0  0  0  0  0  0  0  0
   57.4390   26.2290   46.4710 C   0  0  0  0  0  0  0  0  0  0  0  0
   58.2110   27.3280   45.8680 C   0  0  0  0  0  0  0  0  0  0  0  0
   59.2908   27.1823   45.7168 H   0  0  0  0  0  0  0  0  0  0  0  0
   57.6730   28.4930   45.4940 C   0  0  0  0  0  0  0  0  0  0  0  0
   56.6420   28.7820   44.4800 C   0  0  0  0  0  0  0  0  0  0  0  0
   56.1425   28.0343   43.8465 H   0  0  0  0  0  0  0  0  0  0  0  0
   56.4180   30.0640   44.4550 N   0  0  0  0  0  0  0  0  0  0  0  0
   57.2250   30.6390   45.4450 N   0  0  0  0  0  0  0  0  0  0  0  0
   57.9330   31.7860   45.3900 C   0  0  0  0  0  0  0  0  0  0  0  0
   57.5660   32.8640   44.7640 N   0  0  0  0  0  0  0  0  0  0  0  0
   57.6650   34.2060   45.3260 C   0  0  0  0  0  0  0  0  0  0  0  0
   56.8000   34.6483   44.8100 H   0  0  0  0  0  0  0  0  0  0  0  0
   58.1990   34.2050   46.7460 C   0  0  0  0  0  0  0  0  0  0  0  0
   57.8268   34.9405   47.4743 H   0  0  0  0  0  0  0  0  0  0  0  0
   58.2809   33.4546   47.5461 H   0  0  0  0  0  0  0  0  0  0  0  0
   59.0890   34.6550   45.5970 C   0  0  0  0  0  0  0  0  0  0  0  0
   59.3605   35.7160   45.4941 H   0  0  0  0  0  0  0  0  0  0  0  0
   60.0814   34.3651   45.2214 H   0  0  0  0  0  0  0  0  0  0  0  0
   59.1400   31.6630   45.9970 N   0  0  0  0  0  0  0  0  0  0  0  0
   59.1240   30.3570   46.3760 C   0  0  0  0  0  0  0  0  0  0  0  0
   60.1450   29.7290   46.8720 N   0  0  0  0  0  0  0  0  0  0  0  0
   60.8530   30.1630   48.0710 C   0  0  0  0  0  0  0  0  0  0  0  0
   60.1324   30.3195   48.8873 H   0  0  0  0  0  0  0  0  0  0  0  0
   61.5795   29.3931   48.3700 H   0  0  0  0  0  0  0  0  0  0  0  0
   61.5670   31.4410   47.7840 C   0  0  0  0  0  0  0  0  0  0  0  0
   61.0160   32.6290   47.8710 O   0  0  0  0  0  0  0  0  0  0  0  0
   61.9240   33.5320   47.5820 C   0  0  0  0  0  0  0  0  0  0  0  0
   61.7544   34.6187   47.5675 H   0  0  0  0  0  0  0  0  0  0  0  0
   63.1240   32.9110   47.2990 C   0  0  0  0  0  0  0  0  0  0  0  0
   64.0712   33.3977   47.0236 H   0  0  0  0  0  0  0  0  0  0  0  0
   62.8960   31.5590   47.4310 C   0  0  0  0  0  0  0  0  0  0  0  0
   63.6209   30.7445   47.2856 H   0  0  0  0  0  0  0  0  0  0  0  0
   57.9600   29.7570   46.0670 N   0  0  0  0  0  0  0  0  0  0  0  0
  1  2  1  0
  2  3  1  0
  3  4  1  0
  4  5  1  0
  5  6  2  0
  5  7  1  0
  7  8  1  0
  8  9  1  0
  9 10  1  0
  9 11  2  3
 11 12  1  0
 12 13  1  0
 12 14  2  0
 14 15  1  0
 15 16  1  0
 16 17  2  0
 17 18  1  0
 18 19  1  0
 18 20  1  0
 20 21  1  0
 20 22  1  0
 20 23  1  0
 23 24  1  0
 23 25  1  0
 16 26  1  0
 26 27  1  0
 27 28  2  3
 28 29  1  0
 29 30  1  0
 29 31  1  0
 29 32  1  0
 32 33  1  0
 33 34  1  0
 34 35  1  0
 34 36  2  0
 36 37  1  0
 36 38  1  0
 38 39  1  0
 27 40  1  0
  8  3  2  0
 40 11  1  0
 40 15  1  0
 23 18  1  0
 38 32  2  0
M  CHG  3   4  -1   7  -1  26  -1
M  END
>  <UniqueID>  (11) 
11

>  <SMILES>  (11) 
O=c1[n-]c(O)c(C=C2C=Nn3/c(=N\C4CC4)[n-]c(=NCc4ccco4)n32)[n-]1

>  <Energy>  (11) 
460.5519218188283

>  <Genealogy>  (11) 
O=c1[n-]c(O)c(C=C2C=Nn3c(=NC4CC4)[n-]c(=NCc4ccco4)n32)[n-]1 (protonated)
O=c1[n-]c(O)c(C=C2C=Nn3/c(=N\C4CC4)[n-]c(=NCc4ccco4)n32)[n-]1 (cis-trans isomerization)
O=c1[n-]c(O)c(C=C2C=Nn3/c(=N\C4CC4)[n-]c(=NCc4ccco4)n32)[n-]1 (3D coordinates assigned)
O=c1[n-]c(O)c(C=C2C=Nn3/c(=N\C4CC4)[n-]c(=NCc4ccco4)n32)[n-]1 (nonaromatic ring conformer: 460.5519218188283 kcal/mol)

>  <smiles>  (11) 
O=c1[nH]c(O)c(C=C2C=Nn3c(=NC4CC4)[nH]c(=NCc4ccco4)n32)[nH]1

>  <score_type>  (11) 
oracle

>  <origin>  (11) 
adg

>  <m_score__min__energy>  (11) 
-13.210000000000001

>  <m_primary>  (11) 
energy

$$$$
11:0
     RDKit          3D

 38 39  0  0  0  0  0  0  0  0999 V2000
   55.1430   27.5370   45.2430 H   0  0  0  0  0  0  0  0  0  0  0  0
   55.7540   26.8890   45.7230 O   0  0  0  0  0  0  0  0  0  0  0  0
   57.1230   27.1210   45.8390 C   0  0  0  0  0  0  0  0  0  0  0  0
   57.8430   28.0350   45.1000 C   0  0  0  0  0  0  0  0  0  0  0  0
   57.3000   28.8750   43.9780 C   0  0  0  0  0  0  0  0  0  0  0  0
   56.7787   28.2276   43.2575 H   0  0  0  0  0  0  0  0  0  0  0  0
   58.1323   29.3933   43.4794 H   0  0  0  0  0  0  0  0  0  0  0  0
   56.3420   29.8890   44.5160 C   0  0  0  0  0  0  0  0  0  0  0  0
   55.1510   29.5570   44.7660 O   0  0  0  0  0  0  0  0  0  0  0  0
   56.7990   31.2270   44.7550 N   0  0  0  0  0  0  0  0  0  0  0  0
   58.0270   31.6190   44.6050 C   0  0  0  0  0  0  0  0  0  0  0  0
   58.6009   31.2866   43.7274 H   0  0  0  0  0  0  0  0  0  0  0  0
   58.6660   32.5120   45.6060 C   0  0  0  0  0  0  0  0  0  0  0  0
   59.6770   32.0050   46.4490 C   0  0  0  0  0  0  0  0  0  0  0  0
   59.9869   30.9537   46.3557 H   0  0  0  0  0  0  0  0  0  0  0  0
   60.2880   32.8230   47.4000 C   0  0  0  0  0  0  0  0  0  0  0  0
   61.0755   32.4140   48.0501 H   0  0  0  0  0  0  0  0  0  0  0  0
   59.9040   34.1560   47.5290 C   0  0  0  0  0  0  0  0  0  0  0  0
   60.3889   34.7974   48.2796 H   0  0  0  0  0  0  0  0  0  0  0  0
   58.9050   34.6780   46.7070 C   0  0  0  0  0  0  0  0  0  0  0  0
   58.6055   35.7309   46.8153 H   0  0  0  0  0  0  0  0  0  0  0  0
   58.2770   33.8710   45.7410 C   0  0  0  0  0  0  0  0  0  0  0  0
   57.2020   34.4770   44.8750 C   0  0  0  0  0  0  0  0  0  0  0  0
   56.4216   34.9169   45.5133 H   0  0  0  0  0  0  0  0  0  0  0  0
   57.6411   35.2605   44.2399 H   0  0  0  0  0  0  0  0  0  0  0  0
   56.7590   33.6957   44.2399 H   0  0  0  0  0  0  0  0  0  0  0  0
   59.1500   27.9160   45.4370 N   0  0  0  0  0  0  0  0  0  0  0  0
   60.2880   28.5620   44.7820 C   0  0  0  0  0  0  0  0  0  0  0  0
   60.9768   28.9530   45.5453 H   0  0  0  0  0  0  0  0  0  0  0  0
   60.8147   27.8282   44.1542 H   0  0  0  0  0  0  0  0  0  0  0  0
   59.9279   29.3904   44.1542 H   0  0  0  0  0  0  0  0  0  0  0  0
   59.1900   26.9330   46.3700 C   0  0  0  0  0  0  0  0  0  0  0  0
   60.5830   26.3310   47.0070 S   0  0  0  0  0  0  0  0  0  0  0  0
   57.9580   26.4490   46.6600 N   0  0  0  0  0  0  0  0  0  0  0  0
   57.6110   25.3240   47.5290 C   0  0  0  0  0  0  0  0  0  0  0  0
   57.7056   25.6306   48.5812 H   0  0  0  0  0  0  0  0  0  0  0  0
   56.5750   25.0126   47.3296 H   0  0  0  0  0  0  0  0  0  0  0  0
   58.2915   24.4831   47.3296 H   0  0  0  0  0  0  0  0  0  0  0  0
  1  2  1  0
  2  3  1  0
  3  4  2  0
  4  5  1  0
  5  6  1  0
  5  7  1  0
  5  8  1  0
  8  9  2  0
  8 10  1  0
 10 11  2  0
 11 12  1  0
 11 13  1  0
 13 14  2  0
 14 15  1  0
 14 16  1  0
 16 17  1  0
 16 18  2  0
 18 19  1  0
 18 20  1  0
 20 21  1  0
 20 22  2  0
 22 23  1  0
 23 24  1  0
 23 25  1  0
 23 26  1  0
  4 27  1  0
 27 28  1  0
 28 29  1  0
 28 30  1  0
 28 31  1  0
 27 32  1  0
 32 33  2  0
 32 34  1  0
 34 35  1  0
 35 36  1  0
 35 37  1  0
 35 38  1  0
 34  3  1  0
 22 13  1  0
M  END
>  <UniqueID>  (12) 
12

>  <SMILES>  (12) 
Cc1ccccc1/C=N/C(=O)Cc1c(O)n(C)c(=S)n1C

>  <Energy>  (12) 
70.76028427161528

>  <Genealogy>  (12) 
Cc1ccccc1/C=N/C(=O)Cc1c(O)n(C)c(=S)n1C (cis-trans isomerization)
Cc1ccccc1/C=N/C(=O)Cc1c(O)n(C)c(=S)n1C (3D coordinates assigned)
Cc1ccccc1/C=N/C(=O)Cc1c(O)n(C)c(=S)n1C (optimized conformer: 70.76028427161528 kcal/mol)

>  <smiles>  (12) 
Cc1ccccc1C=NC(=O)Cc1c(O)n(C)c(=S)n1C

>  <score_type>  (12) 
oracle

>  <origin>  (12) 
adg

>  <m_score__min__energy>  (12) 
-9.0099999999999998

>  <m_primary>  (12) 
energy

$$$$
12:0
     RDKit          3D

 34 36  0  0  0  0  0  0  0  0999 V2000
   55.2620   29.8530   43.9650 O   0  0  0  0  0  0  0  0  0  0  0  0
   56.2600   29.3380   44.5380 C   0  0  0  0  0  0  0  0  0  0  0  0
   56.0990   28.1110   45.2510 N   0  0  0  0  0  0  0  0  0  0  0  0
   57.1950   27.4990   45.9340 C   0  0  0  0  0  0  0  0  0  0  0  0
   56.9810   26.4830   46.6490 O   0  0  0  0  0  0  0  0  0  0  0  0
   58.5270   28.0360   45.8030 N   0  0  0  0  0  0  0  0  0  0  0  0
   59.6730   27.3450   46.4150 C   0  0  0  0  0  0  0  0  0  0  0  0
   59.9160   27.8550   47.8130 C   0  0  0  0  0  0  0  0  0  0  0  0
   60.5600   27.0470   48.7650 C   0  0  0  0  0  0  0  0  0  0  0  0
   60.7620   27.5140   50.0670 C   0  0  0  0  0  0  0  0  0  0  0  0
   60.3190   28.7890   50.4310 C   0  0  0  0  0  0  0  0  0  0  0  0
   60.5150   29.2410   51.6930 F   0  0  0  0  0  0  0  0  0  0  0  0
   59.6770   29.5990   49.4900 C   0  0  0  0  0  0  0  0  0  0  0  0
   59.4730   29.1350   48.1870 C   0  0  0  0  0  0  0  0  0  0  0  0
   58.7410   29.2070   44.9890 C   0  0  0  0  0  0  0  0  0  0  0  0
   59.9130   29.5100   44.6340 O   0  0  0  0  0  0  0  0  0  0  0  0
   57.5840   30.0020   44.4980 C   0  0  0  0  0  0  0  0  0  0  0  0
   57.6900   31.2530   43.9970 C   0  0  0  0  0  0  0  0  0  0  0  0
   57.8520   32.4880   44.7860 C   0  0  0  0  0  0  0  0  0  0  0  0
   58.5890   33.6070   44.4370 C   0  0  0  0  0  0  0  0  0  0  0  0
   58.4920   34.4650   45.5100 C   0  0  0  0  0  0  0  0  0  0  0  0
   57.7170   33.8170   46.4500 C   0  0  0  0  0  0  0  0  0  0  0  0
   57.3590   32.6390   45.9930 O   0  0  0  0  0  0  0  0  0  0  0  0
   55.1520   27.6720   45.3040 H   0  0  0  0  0  0  0  0  0  0  0  0
   59.4648   26.2656   46.4551 H   0  0  0  0  0  0  0  0  0  0  0  0
   60.5691   27.5376   45.8067 H   0  0  0  0  0  0  0  0  0  0  0  0
   60.9071   26.0416   48.4843 H   0  0  0  0  0  0  0  0  0  0  0  0
   61.2702   26.8774   50.8062 H   0  0  0  0  0  0  0  0  0  0  0  0
   59.3315   30.6036   49.7752 H   0  0  0  0  0  0  0  0  0  0  0  0
   58.9635   29.7747   47.4514 H   0  0  0  0  0  0  0  0  0  0  0  0
   57.6520   31.3591   42.9028 H   0  0  0  0  0  0  0  0  0  0  0  0
   59.1375   33.7756   43.4985 H   0  0  0  0  0  0  0  0  0  0  0  0
   58.9416   35.4649   45.5996 H   0  0  0  0  0  0  0  0  0  0  0  0
   57.4408   34.2254   47.4334 H   0  0  0  0  0  0  0  0  0  0  0  0
  1  2  2  0
  2  3  1  0
  3  4  1  0
  4  5  2  0
  4  6  1  0
  6  7  1  0
  7  8  1  0
  8  9  2  0
  9 10  1  0
 10 11  2  0
 11 12  1  0
 11 13  1  0
 13 14  2  0
  6 15  1  0
 15 16  2  0
 15 17  1  0
 17 18  2  3
 18 19  1  0
 19 20  2  0
 20 21  1  0
 21 22  2  0
 22 23  1  0
 17  2  1  0
 23 19  1  0
 14  8  1  0
  3 24  1  0
  7 25  1  0
  7 26  1  0
  9 27  1  0
 10 28  1  0
 13 29  1  0
 14 30  1  0
 18 31  1  0
 20 32  1  0
 21 33  1  0
 22 34  1  0
M  END
>  <UniqueID>  (13) 
13

>  <SMILES>  (13) 
O=C1NC(=O)N(Cc2ccc(F)cc2)C(=O)C1=Cc1ccco1

>  <Energy>  (13) 
70.03397471483261

>  <Genealogy>  (13) 
O=C1NC(=O)N(Cc2ccc(F)cc2)C(=O)C1=Cc1ccco1 (3D coordinates assigned)
O=C1NC(=O)N(Cc2ccc(F)cc2)C(=O)C1=Cc1ccco1 (nonaromatic ring conformer: 70.03397471483261 kcal/mol)

>  <smiles>  (13) 
O=C1NC(=O)N(Cc2ccc(F)cc2)C(=O)C1=Cc1ccco1

>  <score_type>  (13) 
oracle

>  <origin>  (13) 
adg

>  <m_score__min__energy>  (13) 
-7.5499999999999998

>  <m_primary>  (13) 
energy

$$$$
13:0
     RDKit          3D

 56 59  0  0  0  0  0  0  0  0999 V2000
   61.2015   26.6772   52.0626 H   0  0  0  0  0  0  0  0  0  0  0  0
   60.9300   27.1200   51.0930 C   0  0  0  0  0  0  0  0  0  0  0  0
   60.9690   26.3630   49.9660 N   0  0  0  0  0  0  0  0  0  0  0  0
   60.6390   26.8880   48.7590 C   0  0  0  0  0  0  0  0  0  0  0  0
   60.6900   26.1370   47.7010 N   0  0  0  0  0  0  0  0  0  0  0  0
   60.9980   26.6320   46.3620 C   0  0  0  0  0  0  0  0  0  0  0  0
   61.1201   25.7815   45.6751 H   0  0  0  0  0  0  0  0  0  0  0  0
   61.9304   27.2150   46.3905 H   0  0  0  0  0  0  0  0  0  0  0  0
   59.8740   27.5050   45.8840 C   0  0  0  0  0  0  0  0  0  0  0  0
   60.1470   28.7040   45.2050 C   0  0  0  0  0  0  0  0  0  0  0  0
   61.1889   29.0196   45.0475 H   0  0  0  0  0  0  0  0  0  0  0  0
   59.1000   29.4970   44.7290 C   0  0  0  0  0  0  0  0  0  0  0  0
   59.3208   30.4378   44.2036 H   0  0  0  0  0  0  0  0  0  0  0  0
   57.7690   29.0990   44.9180 C   0  0  0  0  0  0  0  0  0  0  0  0
   56.4540   30.0920   44.2990 S   0  0  0  0  0  0  0  0  0  0  0  0
   56.6110   31.5040   44.7910 O   0  0  0  0  0  0  0  0  0  0  0  0
   55.1370   29.5560   44.7870 O   0  0  0  0  0  0  0  0  0  0  0  0
   56.4760   30.0760   42.5710 N   0  0  0  0  0  0  0  0  0  0  0  0
   57.3910   29.6600   42.2830 H   0  0  0  0  0  0  0  0  0  0  0  0
   55.7330   29.4100   42.2630 H   0  0  0  0  0  0  0  0  0  0  0  0
   57.4950   27.8900   45.5730 C   0  0  0  0  0  0  0  0  0  0  0  0
   56.4532   27.5653   45.7119 H   0  0  0  0  0  0  0  0  0  0  0  0
   58.5420   27.0960   46.0500 C   0  0  0  0  0  0  0  0  0  0  0  0
   58.3206   26.1458   46.5580 H   0  0  0  0  0  0  0  0  0  0  0  0
   60.2620   28.1940   48.6720 N   0  0  0  0  0  0  0  0  0  0  0  0
   60.2010   28.9950   49.7710 C   0  0  0  0  0  0  0  0  0  0  0  0
   59.7980   30.3740   49.6290 N   0  0  0  0  0  0  0  0  0  0  0  0
   60.3270   31.4210   50.5140 C   0  0  0  0  0  0  0  0  0  0  0  0
   60.4999   30.9966   51.5140 H   0  0  0  0  0  0  0  0  0  0  0  0
   61.2711   31.7986   50.0943 H   0  0  0  0  0  0  0  0  0  0  0  0
   59.3310   32.5850   50.6240 C   0  0  0  0  0  0  0  0  0  0  0  0
   58.4266   32.2232   51.1349 H   0  0  0  0  0  0  0  0  0  0  0  0
   59.8309   33.3889   51.1843 H   0  0  0  0  0  0  0  0  0  0  0  0
   58.9350   33.1480   49.3070 N   0  0  0  0  0  0  0  0  0  0  0  0
   59.6580   34.3970   48.9940 C   0  0  0  0  0  0  0  0  0  0  0  0
   59.0438   35.0109   48.3188 H   0  0  0  0  0  0  0  0  0  0  0  0
   59.8511   34.9396   49.9312 H   0  0  0  0  0  0  0  0  0  0  0  0
   60.9800   34.0930   48.3250 C   0  0  0  0  0  0  0  0  0  0  0  0
   62.0770   33.7480   49.1340 C   0  0  0  0  0  0  0  0  0  0  0  0
   61.9575   33.7091   50.2268 H   0  0  0  0  0  0  0  0  0  0  0  0
   63.3180   33.4540   48.5620 C   0  0  0  0  0  0  0  0  0  0  0  0
   64.6770   33.0260   49.5870 Cl  0  0  0  0  0  0  0  0  0  0  0  0
   63.4770   33.5000   47.1760 C   0  0  0  0  0  0  0  0  0  0  0  0
   64.4543   33.2689   46.7271 H   0  0  0  0  0  0  0  0  0  0  0  0
   62.3970   33.8390   46.3590 C   0  0  0  0  0  0  0  0  0  0  0  0
   62.5273   33.8730   45.2673 H   0  0  0  0  0  0  0  0  0  0  0  0
   61.1490   34.1360   46.9200 C   0  0  0  0  0  0  0  0  0  0  0  0
   59.8330   34.5520   45.8250 Cl  0  0  0  0  0  0  0  0  0  0  0  0
   59.0290   32.1930   48.1750 C   0  0  0  0  0  0  0  0  0  0  0  0
   58.2682   32.4573   47.4258 H   0  0  0  0  0  0  0  0  0  0  0  0
   60.0452   32.2639   47.7600 H   0  0  0  0  0  0  0  0  0  0  0  0
   58.8040   30.7430   48.6140 C   0  0  0  0  0  0  0  0  0  0  0  0
   57.7939   30.6416   49.0375 H   0  0  0  0  0  0  0  0  0  0  0  0
   58.9078   30.0784   47.7436 H   0  0  0  0  0  0  0  0  0  0  0  0
   60.5460   28.4580   51.0210 C   0  0  0  0  0  0  0  0  0  0  0  0
   60.5140   29.0813   51.9268 H   0  0  0  0  0  0  0  0  0  0  0  0
  1  2  1  0
  2  3  1  0
  3  4  1  0
  4  5  2  0
  5  6  1  0
  6  7  1  0
  6  8  1  0
  6  9  1  0
  9 10  2  0
 10 11  1  0
 10 12  1  0
 12 13  1  0
 12 14  2  0
 14 15  1  0
 15 16  2  0
 15 17  2  0
 15 18  1  0
 18 19  1  0
 18 20  1  0
 14 21  1  0
 21 22  1  0
 21 23  2  0
 23 24  1  0
  4 25  1  0
 25 26  2  0
 26 27  1  0
 27 28  1  0
 28 29  1  0
 28 30  1  0
 28 31  1  0
 31 32  1  0
 31 33  1  0
 31 34  1  0
 34 35  1  0
 35 36  1  0
 35 37  1  0
 35 38  1  0
 38 39  2  0
 39 40  1  0
 39 41  1  0
 41 42  1  0
 41 43  2  0
 43 44  1  0
 43 45  1  0
 45 46  1  0
 45 47  2  0
 47 48  1  0
 34 49  1  0
 49 50  1  0
 49 51  1  0
 49 52  1  0
 52 53  1  0
 52 54  1  0
 26 55  1  0
 55 56  1  0
 55  2  2  0
 23  9  1  0
 52 27  1  0
 47 38  1  0
M  CHG  1   3  -1
M  END
>  <UniqueID>  (14) 
14

>  <SMILES>  (14) 
NS(=O)(=O)c1ccc(C/N=c2\nc(N3CCN(Cc4cc(Cl)ccc4Cl)CC3)cc[n-]2)cc1

>  <Energy>  (14) 
67.96790936367107

>  <Genealogy>  (14) 
NS(=O)(=O)c1ccc(CN=c2nc(N3CCN(Cc4cc(Cl)ccc4Cl)CC3)cc[n-]2)cc1 (protonated)
NS(=O)(=O)c1ccc(C/N=c2\nc(N3CCN(Cc4cc(Cl)ccc4Cl)CC3)cc[n-]2)cc1 (cis-trans isomerization)
NS(=O)(=O)c1ccc(C/N=c2\nc(N3CCN(Cc4cc(Cl)ccc4Cl)CC3)cc[n-]2)cc1 (3D coordinates assigned)
NS(=O)(=O)c1ccc(C/N=c2\nc(N3CCN(Cc4cc(Cl)ccc4Cl)CC3)cc[n-]2)cc1 (nonaromatic ring conformer: 67.96790936367107 kcal/mol)

>  <smiles>  (14) 
NS(=O)(=O)c1ccc(CN=c2nc(N3CCN(Cc4cc(Cl)ccc4Cl)CC3)cc[nH]2)cc1

>  <score_type>  (14) 
oracle

>  <origin>  (14) 
adg

>  <m_score__min__energy>  (14) 
-12.1

>  <m_primary>  (14) 
energy

$$$$
14:0
     RDKit          3D

 39 41  0  0  0  0  0  0  0  0999 V2000
   59.3990   33.4330   50.3600 O   0  0  0  0  0  0  0  0  0  0  0  0
   59.0060   32.7010   49.4120 C   0  0  0  0  0  0  0  0  0  0  0  0
   58.4840   31.3920   49.6860 N   0  0  0  0  0  0  0  0  0  0  0  0
   59.2090   30.1540   49.6400 C   0  0  0  0  0  0  0  0  0  0  0  0
   59.9770   29.6910   50.7220 C   0  0  0  0  0  0  0  0  0  0  0  0
   60.6820   28.4910   50.6120 C   0  0  0  0  0  0  0  0  0  0  0  0
   60.6250   27.7700   49.4180 C   0  0  0  0  0  0  0  0  0  0  0  0
   59.8970   28.2430   48.3720 N   0  0  0  0  0  0  0  0  0  0  0  0
   59.2020   29.4090   48.4550 C   0  0  0  0  0  0  0  0  0  0  0  0
   59.0340   33.2110   48.0220 C   0  0  0  0  0  0  0  0  0  0  0  0
   59.2550   34.5770   47.7660 C   0  0  0  0  0  0  0  0  0  0  0  0
   59.2800   35.0570   46.4550 C   0  0  0  0  0  0  0  0  0  0  0  0
   59.0850   34.1830   45.3850 C   0  0  0  0  0  0  0  0  0  0  0  0
   58.8620   32.8210   45.6120 C   0  0  0  0  0  0  0  0  0  0  0  0
   58.6670   31.9620   44.4810 N   0  0  0  0  0  0  0  0  0  0  0  0
   57.2590   30.9920   44.1910 S   0  0  0  0  0  0  0  0  0  0  0  0
   56.0740   31.6220   44.8680 O   0  0  0  0  0  0  0  0  0  0  0  0
   56.9990   30.8890   42.7140 O   0  0  0  0  0  0  0  0  0  0  0  0
   57.5390   29.3750   44.8370 C   0  0  0  0  0  0  0  0  0  0  0  0
   58.8480   28.9170   45.0560 C   0  0  0  0  0  0  0  0  0  0  0  0
   59.0710   27.6320   45.5690 C   0  0  0  0  0  0  0  0  0  0  0  0
   60.3670   27.1700   45.7890 O   0  0  0  0  0  0  0  0  0  0  0  0
   57.9840   26.8020   45.8640 C   0  0  0  0  0  0  0  0  0  0  0  0
   56.6800   27.2520   45.6490 C   0  0  0  0  0  0  0  0  0  0  0  0
   56.4530   28.5350   45.1380 C   0  0  0  0  0  0  0  0  0  0  0  0
   55.1460   28.9650   44.9330 O   0  0  0  0  0  0  0  0  0  0  0  0
   58.8380   32.3380   46.9340 C   0  0  0  0  0  0  0  0  0  0  0  0
   60.0226   30.2732   51.6542 H   0  0  0  0  0  0  0  0  0  0  0  0
   61.2769   28.1171   51.4584 H   0  0  0  0  0  0  0  0  0  0  0  0
   61.1694   26.8188   49.3236 H   0  0  0  0  0  0  0  0  0  0  0  0
   58.6312   29.7686   47.5862 H   0  0  0  0  0  0  0  0  0  0  0  0
   59.4092   35.2717   48.6048 H   0  0  0  0  0  0  0  0  0  0  0  0
   59.4538   36.1265   46.2654 H   0  0  0  0  0  0  0  0  0  0  0  0
   59.1068   34.5681   44.3549 H   0  0  0  0  0  0  0  0  0  0  0  0
   59.7024   29.5697   44.8239 H   0  0  0  0  0  0  0  0  0  0  0  0
   60.8480   27.3380   46.6650 H   0  0  0  0  0  0  0  0  0  0  0  0
   58.1571   25.7929   46.2661 H   0  0  0  0  0  0  0  0  0  0  0  0
   55.8283   26.5961   45.8820 H   0  0  0  0  0  0  0  0  0  0  0  0
   58.6644   31.2677   47.1194 H   0  0  0  0  0  0  0  0  0  0  0  0
  1  2  2  0
  2  3  1  0
  3  4  1  0
  4  5  2  0
  5  6  1  0
  6  7  2  0
  7  8  1  0
  8  9  2  0
  2 10  1  0
 10 11  2  0
 11 12  1  0
 12 13  2  0
 13 14  1  0
 14 15  1  0
 15 16  1  0
 16 17  2  0
 16 18  2  0
 16 19  1  0
 19 20  2  0
 20 21  1  0
 21 22  1  0
 21 23  2  0
 23 24  1  0
 24 25  2  0
 25 26  1  0
 14 27  2  0
  9  4  1  0
 27 10  1  0
 25 19  1  0
  5 28  1  0
  6 29  1  0
  7 30  1  0
  9 31  1  0
 11 32  1  0
 12 33  1  0
 13 34  1  0
 20 35  1  0
 22 36  1  0
 23 37  1  0
 24 38  1  0
 27 39  1  0
M  CHG  3   3  -1  15  -1  26  -1
M  END
>  <UniqueID>  (15) 
15

>  <SMILES>  (15) 
O=C([N-]c1cccnc1)c1cccc([N-]S(=O)(=O)c2cc(O)ccc2[O-])c1

>  <Energy>  (15) 
51.79605117554623

>  <Genealogy>  (15) 
O=C([N-]c1cccnc1)c1cccc([N-]S(=O)(=O)c2cc(O)ccc2[O-])c1 (protonated)
O=C([N-]c1cccnc1)c1cccc([N-]S(=O)(=O)c2cc(O)ccc2[O-])c1 (3D coordinates assigned)
O=C([N-]c1cccnc1)c1cccc([N-]S(=O)(=O)c2cc(O)ccc2[O-])c1 (optimized conformer: 51.79605117554623 kcal/mol)

>  <smiles>  (15) 
O=C(Nc1cccnc1)c1cccc(NS(=O)(=O)c2cc(O)ccc2O)c1

>  <score_type>  (15) 
oracle

>  <origin>  (15) 
adg

>  <m_score__min__energy>  (15) 
-14.27

>  <m_primary>  (15) 
energy

$$$$
15:0
     RDKit          3D

 52 55  0  0  0  0  0  0  0  0999 V2000
   55.7492   29.4550   41.8656 H   0  0  0  0  0  0  0  0  0  0  0  0
   56.2660   30.0500   42.6330 C   0  0  0  0  0  0  0  0  0  0  0  0
   56.2000   29.7910   44.2950 S   0  0  0  0  0  0  0  0  0  0  0  0
   57.2260   31.0850   44.6460 C   0  0  0  0  0  0  0  0  0  0  0  0
   57.5780   31.4990   45.8280 N   0  0  0  0  0  0  0  0  0  0  0  0
   58.1950   32.7520   46.1610 C   0  0  0  0  0  0  0  0  0  0  0  0
   57.5210   33.8160   46.1850 O   0  0  0  0  0  0  0  0  0  0  0  0
   59.6140   32.7610   46.5800 C   0  0  0  0  0  0  0  0  0  0  0  0
   60.3840   33.8920   46.2440 C   0  0  0  0  0  0  0  0  0  0  0  0
   59.9144   34.7281   45.7051 H   0  0  0  0  0  0  0  0  0  0  0  0
   61.7340   33.9650   46.5860 C   0  0  0  0  0  0  0  0  0  0  0  0
   62.3226   34.8532   46.3127 H   0  0  0  0  0  0  0  0  0  0  0  0
   62.3380   32.9150   47.2730 C   0  0  0  0  0  0  0  0  0  0  0  0
   63.4053   32.9702   47.5335 H   0  0  0  0  0  0  0  0  0  0  0  0
   61.5900   31.7930   47.6310 C   0  0  0  0  0  0  0  0  0  0  0  0
   62.0747   30.9709   48.1780 H   0  0  0  0  0  0  0  0  0  0  0  0
   60.2250   31.6970   47.3030 C   0  0  0  0  0  0  0  0  0  0  0  0
   59.4690   30.4920   47.8240 C   0  0  0  0  0  0  0  0  0  0  0  0
   58.5364   30.3760   47.2524 H   0  0  0  0  0  0  0  0  0  0  0  0
   59.2464   30.6479   48.8899 H   0  0  0  0  0  0  0  0  0  0  0  0
   60.4730   28.9740   47.6490 S   0  0  0  0  0  0  0  0  0  0  0  0
   59.3530   28.1720   46.4990 C   0  0  0  0  0  0  0  0  0  0  0  0
   59.5300   28.3350   45.1220 C   0  0  0  0  0  0  0  0  0  0  0  0
   60.3424   28.9732   44.7442 H   0  0  0  0  0  0  0  0  0  0  0  0
   58.6760   27.6880   44.2250 C   0  0  0  0  0  0  0  0  0  0  0  0
   58.8244   27.8087   43.1418 H   0  0  0  0  0  0  0  0  0  0  0  0
   57.6340   26.8880   44.7010 C   0  0  0  0  0  0  0  0  0  0  0  0
   56.9666   26.3781   43.9906 H   0  0  0  0  0  0  0  0  0  0  0  0
   57.4350   26.7320   46.0830 C   0  0  0  0  0  0  0  0  0  0  0  0
   56.2860   25.9590   46.5930 C   0  0  0  0  0  0  0  0  0  0  0  0
   56.4300   25.1710   47.5680 O   0  0  0  0  0  0  0  0  0  0  0  0
   55.0160   26.0670   45.9440 N   0  0  0  0  0  0  0  0  0  0  0  0
   54.2230   24.9150   45.5410 C   0  0  0  0  0  0  0  0  0  0  0  0
   53.6648   24.5308   46.4075 H   0  0  0  0  0  0  0  0  0  0  0  0
   53.5129   25.2108   44.7547 H   0  0  0  0  0  0  0  0  0  0  0  0
   55.1390   23.8460   45.0190 C   0  0  0  0  0  0  0  0  0  0  0  0
   55.7330   23.9820   43.7520 C   0  0  0  0  0  0  0  0  0  0  0  0
   55.4992   24.8567   43.1273 H   0  0  0  0  0  0  0  0  0  0  0  0
   56.6210   23.0070   43.2840 C   0  0  0  0  0  0  0  0  0  0  0  0
   57.0805   23.1144   42.2904 H   0  0  0  0  0  0  0  0  0  0  0  0
   56.9250   21.8970   44.0770 C   0  0  0  0  0  0  0  0  0  0  0  0
   57.6136   21.1254   43.7021 H   0  0  0  0  0  0  0  0  0  0  0  0
   56.3540   21.7670   45.3470 C   0  0  0  0  0  0  0  0  0  0  0  0
   56.6021   20.8981   45.9742 H   0  0  0  0  0  0  0  0  0  0  0  0
   55.4680   22.7400   45.8210 C   0  0  0  0  0  0  0  0  0  0  0  0
   55.0277   22.6392   46.8240 H   0  0  0  0  0  0  0  0  0  0  0  0
   58.3140   27.3680   46.9770 C   0  0  0  0  0  0  0  0  0  0  0  0
   58.1833   27.2320   48.0607 H   0  0  0  0  0  0  0  0  0  0  0  0
   57.6140   31.7160   43.5180 N   0  0  0  0  0  0  0  0  0  0  0  0
   58.2460   32.5480   43.5010 H   0  0  0  0  0  0  0  0  0  0  0  0
   57.0890   31.1490   42.3990 C   0  0  0  0  0  0  0  0  0  0  0  0
   57.2980   31.5287   41.3880 H   0  0  0  0  0  0  0  0  0  0  0  0
  1  2  1  0
  2  3  1  0
  3  4  1  0
  4  5  2  0
  5  6  1  0
  6  7  2  0
  6  8  1  0
  8  9  2  0
  9 10  1  0
  9 11  1  0
 11 12  1  0
 11 13  2  0
 13 14  1  0
 13 15  1  0
 15 16  1  0
 15 17  2  0
 17 18  1  0
 18 19  1  0
 18 20  1  0
 18 21  1  0
 21 22  1  0
 22 23  2  0
 23 24  1  0
 23 25  1  0
 25 26  1  0
 25 27  2  0
 27 28  1  0
 27 29  1  0
 29 30  1  0
 30 31  2  0
 30 32  1  0
 32 33  1  0
 33 34  1  0
 33 35  1  0
 33 36  1  0
 36 37  2  0
 37 38  1  0
 37 39  1  0
 39 40  1  0
 39 41  2  0
 41 42  1  0
 41 43  1  0
 43 44  1  0
 43 45  2  0
 45 46  1  0
 29 47  2  0
 47 48  1  0
  4 49  1  0
 49 50  1  0
 49 51  1  0
 51 52  1  0
 51  2  2  0
 17  8  1  0
 47 22  1  0
 45 36  1  0
M  CHG  1  32  -1
M  END
>  <UniqueID>  (16) 
16

>  <SMILES>  (16) 
O=C([N-]Cc1ccccc1)c1cccc(SCc2ccccc2C(=O)/N=c2/[nH]ccs2)c1

>  <Energy>  (16) 
82.24251449476675

>  <Genealogy>  (16) 
O=C([N-]Cc1ccccc1)c1cccc(SCc2ccccc2C(=O)N=c2[nH]ccs2)c1 (protonated)
O=C([N-]Cc1ccccc1)c1cccc(SCc2ccccc2C(=O)/N=c2/[nH]ccs2)c1 (cis-trans isomerization)
O=C([N-]Cc1ccccc1)c1cccc(SCc2ccccc2C(=O)/N=c2/[nH]ccs2)c1 (3D coordinates assigned)
O=C([N-]Cc1ccccc1)c1cccc(SCc2ccccc2C(=O)/N=c2/[nH]ccs2)c1 (optimized conformer: 82.24251449476675 kcal/mol)

>  <smiles>  (16) 
O=C(NCc1ccccc1)c1cccc(SCc2ccccc2C(=O)N=c2[nH]ccs2)c1

>  <score_type>  (16) 
oracle

>  <origin>  (16) 
adg

>  <m_score__min__energy>  (16) 
-11.52

>  <m_primary>  (16) 
energy

$$$$
16:0
     RDKit          3D

 32 33  0  0  0  0  0  0  0  0999 V2000
   61.8510   28.3730   43.5860 H   0  0  0  0  0  0  0  0  0  0  0  0
   61.0260   28.5960   44.1270 O   0  0  0  0  0  0  0  0  0  0  0  0
   61.1490   29.2600   45.3260 N   0  0  0  0  0  0  0  0  0  0  0  0
   60.1290   29.5420   46.0810 C   0  0  0  0  0  0  0  0  0  0  0  0
   58.8390   28.8200   45.9300 C   0  0  0  0  0  0  0  0  0  0  0  0
   58.6630   27.5690   46.5440 C   0  0  0  0  0  0  0  0  0  0  0  0
   59.4892   27.1229   47.1170 H   0  0  0  0  0  0  0  0  0  0  0  0
   57.4450   26.8830   46.4340 C   0  0  0  0  0  0  0  0  0  0  0  0
   57.2650   25.5510   47.1060 C   0  0  0  0  0  0  0  0  0  0  0  0
   57.2832   25.6856   48.1976 H   0  0  0  0  0  0  0  0  0  0  0  0
   56.3000   25.1165   46.8062 H   0  0  0  0  0  0  0  0  0  0  0  0
   58.0801   24.8759   46.8062 H   0  0  0  0  0  0  0  0  0  0  0  0
   56.3840   27.4640   45.7160 C   0  0  0  0  0  0  0  0  0  0  0  0
   55.1650   26.7980   45.6210 O   0  0  0  0  0  0  0  0  0  0  0  0
   56.5490   28.7170   45.0990 C   0  0  0  0  0  0  0  0  0  0  0  0
   55.4080   29.3520   44.3550 C   0  0  0  0  0  0  0  0  0  0  0  0
   54.6810   29.7566   45.0746 H   0  0  0  0  0  0  0  0  0  0  0  0
   55.7907   30.1669   43.7229 H   0  0  0  0  0  0  0  0  0  0  0  0
   54.9172   28.5973   43.7229 H   0  0  0  0  0  0  0  0  0  0  0  0
   57.7730   29.3930   45.2210 C   0  0  0  0  0  0  0  0  0  0  0  0
   57.8975   30.3820   44.7559 H   0  0  0  0  0  0  0  0  0  0  0  0
   60.2540   30.6180   47.0960 C   0  0  0  0  0  0  0  0  0  0  0  0
   60.9670   30.3600   48.2810 C   0  0  0  0  0  0  0  0  0  0  0  0
   61.4277   29.3731   48.4351 H   0  0  0  0  0  0  0  0  0  0  0  0
   61.0960   31.3440   49.2640 C   0  0  0  0  0  0  0  0  0  0  0  0
   61.6556   31.1284   50.1861 H   0  0  0  0  0  0  0  0  0  0  0  0
   60.5170   32.5990   49.0790 C   0  0  0  0  0  0  0  0  0  0  0  0
   60.6820   33.8340   50.3140 Cl  0  0  0  0  0  0  0  0  0  0  0  0
   59.8120   32.8760   47.9040 C   0  0  0  0  0  0  0  0  0  0  0  0
   59.3604   33.8684   47.7586 H   0  0  0  0  0  0  0  0  0  0  0  0
   59.6770   31.8970   46.9100 C   0  0  0  0  0  0  0  0  0  0  0  0
   58.8380   32.3440   45.4270 Cl  0  0  0  0  0  0  0  0  0  0  0  0
  1  2  1  0
  2  3  1  0
  3  4  2  0
  4  5  1  0
  5  6  2  0
  6  7  1  0
  6  8  1  0
  8  9  1  0
  9 10  1  0
  9 11  1  0
  9 12  1  0
  8 13  2  0
 13 14  1  0
 13 15  1  0
 15 16  1  0
 16 17  1  0
 16 18  1  0
 16 19  1  0
 15 20  2  0
 20 21  1  0
  4 22  1  0
 22 23  2  0
 23 24  1  0
 23 25  1  0
 25 26  1  0
 25 27  2  0
 27 28  1  0
 27 29  1  0
 29 30  1  0
 29 31  2  0
 31 32  1  0
 20  5  1  0
 31 22  1  0
M  CHG  1  14  -1
M  END
>  <UniqueID>  (17) 
17

>  <SMILES>  (17) 
Cc1cc(/C(=N\O)c2ccc(Cl)cc2Cl)cc(C)c1[O-]

>  <Energy>  (17) 
42.67655536492357

>  <Genealogy>  (17) 
Cc1cc(C(=NO)c2ccc(Cl)cc2Cl)cc(C)c1[O-] (protonated)
Cc1cc(/C(=N\O)c2ccc(Cl)cc2Cl)cc(C)c1[O-] (cis-trans isomerization)
Cc1cc(/C(=N\O)c2ccc(Cl)cc2Cl)cc(C)c1[O-] (3D coordinates assigned)
Cc1cc(/C(=N\O)c2ccc(Cl)cc2Cl)cc(C)c1[O-] (optimized conformer: 42.67655536492357 kcal/mol)

>  <smiles>  (17) 
Cc1cc(C(=NO)c2ccc(Cl)cc2Cl)cc(C)c1O

>  <score_type>  (17) 
oracle

>  <origin>  (17) 
adg

>  <m_score__min__energy>  (17) 
-9.5700000000000003

>  <m_primary>  (17) 
energy

$$$$
17:0
     RDKit          3D

 40 42  0  0  1  0  0  0  0  0999 V2000
   57.3720   26.0980   45.5190 C   0  0  0  0  0  0  0  0  0  0  0  0
   57.4080   27.4670   44.9270 C   0  0  0  0  0  0  0  0  0  0  0  0
   57.0990   28.6450   45.5830 C   0  0  0  0  0  0  0  0  0  0  0  0
   57.2570   29.6820   44.6860 C   0  0  0  0  0  0  0  0  0  0  0  0
   57.0490   30.9380   44.9660 N   0  0  0  0  0  0  0  0  0  0  0  0
   57.8350   31.9020   44.2430 C   0  0  0  0  0  0  0  0  0  0  0  0
   57.9390   31.8610   43.0050 O   0  0  0  0  0  0  0  0  0  0  0  0
   58.5320   32.9590   44.9660 C   0  0  0  0  0  0  0  0  0  0  0  0
   58.5820   34.2670   44.5310 C   0  0  0  0  0  0  0  0  0  0  0  0
   59.2500   35.2450   45.2390 C   0  0  0  0  0  0  0  0  0  0  0  0
   59.8790   34.9140   46.4020 C   0  0  0  0  0  0  0  0  0  0  0  0
   59.8370   33.6100   46.8490 C   0  0  0  0  0  0  0  0  0  0  0  0
   59.1660   32.6120   46.1430 C   0  0  0  0  0  0  0  0  0  0  0  0
   59.1540   31.2740   46.6530 N   0  0  0  0  0  0  0  0  0  0  0  0
   60.3520   30.5740   46.9610 C   0  0  0  0  0  0  0  0  0  0  0  0
   61.4320   31.2000   46.7590 O   0  0  0  0  0  0  0  0  0  0  0  0
   60.3420   29.2120   47.4800 C   0  0  0  0  0  0  0  0  0  0  0  0
   60.2700   28.0920   46.7000 C   0  0  0  0  0  0  0  0  0  0  0  0
   60.2680   26.8390   47.3080 C   0  0  0  0  0  0  0  0  0  0  0  0
   60.3350   26.6830   48.6610 C   0  0  0  0  0  0  0  0  0  0  0  0
   60.4100   27.8190   49.4650 C   0  0  0  0  0  0  0  0  0  0  0  0
   60.4110   29.0340   48.8470 C   0  0  0  0  0  0  0  0  0  0  0  0
   57.6520   29.1350   43.5200 N   0  0  0  0  0  0  0  0  0  0  0  0
   57.7430   27.8230   43.6590 N   0  0  0  0  0  0  0  0  0  0  0  0
   57.3740   26.1729   46.6164 H   0  0  0  0  0  0  0  0  0  0  0  0
   56.4599   25.5795   45.1885 H   0  0  0  0  0  0  0  0  0  0  0  0
   58.2556   25.5323   45.1885 H   0  0  0  0  0  0  0  0  0  0  0  0
   56.7835   28.7386   46.6326 H   0  0  0  0  0  0  0  0  0  0  0  0
   58.0750   34.5381   43.5932 H   0  0  0  0  0  0  0  0  0  0  0  0
   59.2746   36.2806   44.8688 H   0  0  0  0  0  0  0  0  0  0  0  0
   60.4159   35.6809   46.9795 H   0  0  0  0  0  0  0  0  0  0  0  0
   60.3469   33.3500   47.7884 H   0  0  0  0  0  0  0  0  0  0  0  0
   58.2210   30.8350   46.7890 H   0  0  0  0  0  0  0  0  0  0  0  0
   60.2143   28.1792   45.6049 H   0  0  0  0  0  0  0  0  0  0  0  0
   60.2103   25.9423   46.6735 H   0  0  0  0  0  0  0  0  0  0  0  0
   60.3299   25.6787   49.1098 H   0  0  0  0  0  0  0  0  0  0  0  0
   60.4664   27.7379   50.5606 H   0  0  0  0  0  0  0  0  0  0  0  0
   60.4707   29.9320   49.4795 H   0  0  0  0  0  0  0  0  0  0  0  0
   57.8530   29.6620   42.6480 H   0  0  0  0  0  0  0  0  0  0  0  0
   58.0210   27.0940   42.9540 H   0  0  0  0  0  0  0  0  0  0  0  0
  1  2  1  0
  2  3  2  0
  3  4  1  0
  4  5  2  0
  5  6  1  0
  6  7  2  0
  6  8  1  0
  8  9  2  0
  9 10  1  0
 10 11  2  0
 11 12  1  0
 12 13  2  0
 13 14  1  0
 14 15  1  0
 15 16  2  0
 15 17  1  0
 17 18  2  0
 18 19  1  0
 19 20  2  0
 20 21  1  0
 21 22  2  0
  4 23  1  0
 23 24  1  0
 24  2  1  0
 13  8  1  0
 22 17  1  0
  1 25  1  0
  1 26  1  0
  1 27  1  0
  3 28  1  0
  9 29  1  0
 10 30  1  0
 11 31  1  0
 12 32  1  0
 14 33  1  0
 18 34  1  0
 19 35  1  0
 20 36  1  0
 21 37  1  0
 22 38  1  0
 23 39  1  0
 24 40  1  0
M  END
>  <smiles>  (18) 
Cc1cc(=NC(=O)c2ccccc2NC(=O)c2ccccc2)[nH][nH]1

>  <score_type>  (18) 
oracle

>  <origin>  (18) 
adg

>  <m_score__min__energy>  (18) 
-8.0299999999999994

>  <m_primary>  (18) 
energy

$$$$
18:0
     RDKit          3D

 68 70  0  0  0  0  0  0  0  0999 V2000
   64.2570   33.3330   49.2000 C   0  0  0  0  0  0  0  0  0  0  0  0
   62.5800   33.1280   49.7670 S   0  0  0  0  0  0  0  0  0  0  0  0
   62.4350   31.7760   50.4090 O   0  0  0  0  0  0  0  0  0  0  0  0
   62.2900   34.1920   50.7870 O   0  0  0  0  0  0  0  0  0  0  0  0
   61.4730   33.2870   48.4250 N   0  0  0  0  0  0  0  0  0  0  0  0
   60.3290   34.1350   48.8070 C   0  0  0  0  0  0  0  0  0  0  0  0
   59.5150   34.6130   47.5830 C   0  0  0  0  0  0  0  0  0  0  0  0
   59.8250   33.8710   46.3440 N   0  0  0  0  0  0  0  0  0  0  0  0
   59.0070   32.6620   46.1040 C   0  0  0  0  0  0  0  0  0  0  0  0
   58.3600   32.0830   47.3820 C   0  0  0  0  0  0  0  0  0  0  0  0
   59.1750   30.9430   48.0250 C   0  0  2  0  0  0  0  0  0  0  0  0
   59.6830   31.3310   49.3470 N   0  0  0  0  0  0  0  0  0  0  0  0
   58.8320   31.3850   50.5030 C   0  0  0  0  0  0  0  0  0  0  0  0
   57.7510   30.7350   50.5140 O   0  0  0  0  0  0  0  0  0  0  0  0
   59.2030   32.2050   51.6790 C   0  0  0  0  0  0  0  0  0  0  0  0
   58.4640   33.3570   52.0020 C   0  0  0  0  0  0  0  0  0  0  0  0
   58.8380   34.1570   53.0850 C   0  0  0  0  0  0  0  0  0  0  0  0
   59.9560   33.8230   53.8520 C   0  0  0  0  0  0  0  0  0  0  0  0
   60.7030   32.6760   53.5470 C   0  0  0  0  0  0  0  0  0  0  0  0
   61.9580   32.3570   54.3130 C   0  0  0  0  0  0  0  0  0  0  0  0
   63.1160   32.9040   53.6130 N   0  0  0  0  0  0  0  0  0  0  0  0
   63.4960   34.1910   53.5650 C   0  0  0  0  0  0  0  0  0  0  0  0
   64.6930   34.2510   52.8870 C   0  0  0  0  0  0  0  0  0  0  0  0
   65.0690   33.0070   52.5190 N   0  0  0  0  0  0  0  0  0  0  0  0
   64.0850   32.2100   52.9840 C   0  0  0  0  0  0  0  0  0  0  0  0
   60.3270   31.8760   52.4580 C   0  0  0  0  0  0  0  0  0  0  0  0
   60.2940   30.4890   47.1230 C   0  0  0  0  0  0  0  0  0  0  0  0
   61.4930   30.7530   47.4090 O   0  0  0  0  0  0  0  0  0  0  0  0
   59.9790   29.7870   45.9150 N   0  0  0  0  0  0  0  0  0  0  0  0
   58.6870   29.1610   45.6600 C   0  0  0  0  0  0  0  0  0  0  0  0
   58.1990   29.4550   44.2390 C   0  0  0  0  0  0  0  0  0  0  0  0
   56.4980   30.0120   44.2190 S   0  0  0  0  0  0  0  0  0  0  0  0
   55.5310   28.9160   45.1410 N   0  0  0  0  0  0  0  0  0  0  0  0
   56.3970   31.3860   44.8210 O   0  0  0  0  0  0  0  0  0  0  0  0
   55.9910   30.0500   42.8040 O   0  0  0  0  0  0  0  0  0  0  0  0
   61.2660   33.7380   46.0250 C   0  0  0  0  0  0  0  0  0  0  0  0
   62.1660   33.8530   47.2640 C   0  0  0  0  0  0  0  0  0  0  0  0
   64.9296   33.4152   50.0665 H   0  0  0  0  0  0  0  0  0  0  0  0
   64.5473   32.4637   48.5917 H   0  0  0  0  0  0  0  0  0  0  0  0
   64.3293   34.2467   48.5917 H   0  0  0  0  0  0  0  0  0  0  0  0
   59.6663   33.5573   49.4682 H   0  0  0  0  0  0  0  0  0  0  0  0
   60.7269   35.0264   49.3140 H   0  0  0  0  0  0  0  0  0  0  0  0
   58.4451   34.4876   47.8057 H   0  0  0  0  0  0  0  0  0  0  0  0
   59.7834   35.6650   47.4063 H   0  0  0  0  0  0  0  0  0  0  0  0
   58.2057   32.9204   45.3961 H   0  0  0  0  0  0  0  0  0  0  0  0
   59.6843   31.8900   45.7098 H   0  0  0  0  0  0  0  0  0  0  0  0
   58.2568   32.8943   48.1176 H   0  0  0  0  0  0  0  0  0  0  0  0
   57.3888   31.6586   47.0877 H   0  0  0  0  0  0  0  0  0  0  0  0
   58.4950   30.0897   48.1649 H   0  0  0  0  0  0  0  0  0  0  0  0
   60.6920   31.5750   49.4650 H   0  0  0  0  0  0  0  0  0  0  0  0
   57.5860   33.6301   51.3983 H   0  0  0  0  0  0  0  0  0  0  0  0
   58.2499   35.0526   53.3340 H   0  0  0  0  0  0  0  0  0  0  0  0
   60.2516   34.4613   54.6977 H   0  0  0  0  0  0  0  0  0  0  0  0
   61.8954   32.8004   55.3177 H   0  0  0  0  0  0  0  0  0  0  0  0
   62.0656   31.2654   54.3961 H   0  0  0  0  0  0  0  0  0  0  0  0
   62.9488   35.0448   53.9912 H   0  0  0  0  0  0  0  0  0  0  0  0
   65.2571   35.1717   52.6771 H   0  0  0  0  0  0  0  0  0  0  0  0
   64.0747   31.1167   52.8634 H   0  0  0  0  0  0  0  0  0  0  0  0
   60.9175   30.9816   52.2105 H   0  0  0  0  0  0  0  0  0  0  0  0
   58.7843   28.0728   45.7878 H   0  0  0  0  0  0  0  0  0  0  0  0
   57.9551   29.5716   46.3711 H   0  0  0  0  0  0  0  0  0  0  0  0
   58.8347   30.2378   43.7996 H   0  0  0  0  0  0  0  0  0  0  0  0
   58.2592   28.5227   43.6583 H   0  0  0  0  0  0  0  0  0  0  0  0
   54.5980   29.3660   45.2730 H   0  0  0  0  0  0  0  0  0  0  0  0
   61.4332   32.7553   45.5599 H   0  0  0  0  0  0  0  0  0  0  0  0
   61.5312   34.5626   45.3470 H   0  0  0  0  0  0  0  0  0  0  0  0
   63.1015   33.3010   47.0903 H   0  0  0  0  0  0  0  0  0  0  0  0
   62.3952   34.9120   47.4539 H   0  0  0  0  0  0  0  0  0  0  0  0
  1  2  1  0
  2  3  2  0
  2  4  2  0
  2  5  1  0
  5  6  1  0
  6  7  1  0
  7  8  1  0
  8  9  1  0
  9 10  1  0
 10 11  1  0
 11 12  1  0
 12 13  1  0
 13 14  2  0
 13 15  1  0
 15 16  2  0
 16 17  1  0
 17 18  2  0
 18 19  1  0
 19 20  1  0
 20 21  1  0
 21 22  1  0
 22 23  2  0
 23 24  1  0
 24 25  2  0
 19 26  2  0
 11 27  1  0
 27 28  2  0
 27 29  1  0
 29 30  1  0
 30 31  1  0
 31 32  1  0
 32 33  1  0
 32 34  2  0
 32 35  2  0
  8 36  1  0
 36 37  1  0
 37  5  1  0
 26 15  1  0
 25 21  1  0
  1 38  1  0
  1 39  1  0
  1 40  1  0
  6 41  1  0
  6 42  1  0
  7 43  1  0
  7 44  1  0
  9 45  1  0
  9 46  1  0
 10 47  1  0
 10 48  1  0
 11 49  1  1
 12 50  1  0
 16 51  1  0
 17 52  1  0
 18 53  1  0
 20 54  1  0
 20 55  1  0
 22 56  1  0
 23 57  1  0
 25 58  1  0
 26 59  1  0
 30 60  1  0
 30 61  1  0
 31 62  1  0
 31 63  1  0
 33 64  1  0
 36 65  1  0
 36 66  1  0
 37 67  1  0
 37 68  1  0
M  CHG  2  29  -1  33  -1
M  END
>  <UniqueID>  (19) 
18

>  <SMILES>  (19) 
CS(=O)(=O)N1CCN(CC[C@H](NC(=O)c2cccc(Cn3ccnc3)c2)C(=O)[N-]CCS([NH-])(=O)=O)CC1

>  <Energy>  (19) 
92.87037886450965

>  <Genealogy>  (19) 
CS(=O)(=O)N1CCN(CCC(NC(=O)c2cccc(Cn3ccnc3)c2)C(=O)[N-]CCS([NH-])(=O)=O)CC1 (protonated)
CS(=O)(=O)N1CCN(CC[C@H](NC(=O)c2cccc(Cn3ccnc3)c2)C(=O)[N-]CCS([NH-])(=O)=O)CC1 (chirality)
CS(=O)(=O)N1CCN(CC[C@H](NC(=O)c2cccc(Cn3ccnc3)c2)C(=O)[N-]CCS([NH-])(=O)=O)CC1 (3D coordinates assigned)
CS(=O)(=O)N1CCN(CC[C@H](NC(=O)c2cccc(Cn3ccnc3)c2)C(=O)[N-]CCS([NH-])(=O)=O)CC1 (nonaromatic ring conformer: 92.87037886450965 kcal/mol)

>  <smiles>  (19) 
CS(=O)(=O)N1CCN(CCC(NC(=O)c2cccc(Cn3ccnc3)c2)C(=O)NCCS(N)(=O)=O)CC1

>  <score_type>  (19) 
oracle

>  <origin>  (19) 
adg

>  <m_score__min__energy>  (19) 
-12.800000000000001

>  <m_primary>  (19) 
energy

$$$$
19:0
     RDKit          3D

 55 58  0  0  0  0  0  0  0  0999 V2000
   60.8420   29.4870   49.8440 H   0  0  0  0  0  0  0  0  0  0  0  0
   60.4590   28.5610   49.6880 O   0  0  0  0  0  0  0  0  0  0  0  0
   60.1770   28.0960   48.4050 C   0  0  0  0  0  0  0  0  0  0  0  0
   60.7280   26.8860   47.9740 C   0  0  0  0  0  0  0  0  0  0  0  0
   61.3692   26.3031   48.6516 H   0  0  0  0  0  0  0  0  0  0  0  0
   60.4670   26.4150   46.6860 C   0  0  0  0  0  0  0  0  0  0  0  0
   60.9036   25.4626   46.3510 H   0  0  0  0  0  0  0  0  0  0  0  0
   59.6520   27.1510   45.8210 C   0  0  0  0  0  0  0  0  0  0  0  0
   59.4571   26.7794   44.8042 H   0  0  0  0  0  0  0  0  0  0  0  0
   59.0800   28.3640   46.2440 C   0  0  0  0  0  0  0  0  0  0  0  0
   58.2140   29.1450   45.3310 C   0  0  0  0  0  0  0  0  0  0  0  0
   56.9500   28.7170   44.9210 C   0  0  0  0  0  0  0  0  0  0  0  0
   56.4562   27.7830   45.2274 H   0  0  0  0  0  0  0  0  0  0  0  0
   56.3110   29.8710   43.8800 S   0  0  0  0  0  0  0  0  0  0  0  0
   57.6180   30.9270   43.9410 C   0  0  0  0  0  0  0  0  0  0  0  0
   57.7010   32.2330   43.2660 C   0  0  0  0  0  0  0  0  0  0  0  0
   57.6250   32.2770   42.0100 O   0  0  0  0  0  0  0  0  0  0  0  0
   57.8750   33.4560   43.9930 N   0  0  0  0  0  0  0  0  0  0  0  0
   57.5330   33.6530   45.4000 C   0  0  0  0  0  0  0  0  0  0  0  0
   56.9514   32.7907   45.7578 H   0  0  0  0  0  0  0  0  0  0  0  0
   56.9376   34.5723   45.5019 H   0  0  0  0  0  0  0  0  0  0  0  0
   58.7870   33.7830   46.2200 C   0  0  0  0  0  0  0  0  0  0  0  0
   58.7220   33.7410   47.6220 C   0  0  0  0  0  0  0  0  0  0  0  0
   57.7445   33.6795   48.1228 H   0  0  0  0  0  0  0  0  0  0  0  0
   59.8950   33.7770   48.3860 C   0  0  0  0  0  0  0  0  0  0  0  0
   59.8355   33.7770   49.4844 H   0  0  0  0  0  0  0  0  0  0  0  0
   61.1440   33.8130   47.7530 C   0  0  0  0  0  0  0  0  0  0  0  0
   62.3790   33.8010   48.5600 C   0  0  0  0  0  0  0  0  0  0  0  0
   63.0668   34.6547   48.4696 H   0  0  0  0  0  0  0  0  0  0  0  0
   62.7100   32.8070   49.3980 C   0  0  0  0  0  0  0  0  0  0  0  0
   63.6398   32.9117   49.9764 H   0  0  0  0  0  0  0  0  0  0  0  0
   61.9100   31.5820   49.5960 C   0  0  0  0  0  0  0  0  0  0  0  0
   61.6680   30.8180   48.6230 O   0  0  0  0  0  0  0  0  0  0  0  0
   61.3190   31.3370   50.8770 N   0  0  0  0  0  0  0  0  0  0  0  0
   60.1380   31.9630   51.4070 C   0  0  0  0  0  0  0  0  0  0  0  0
   60.2120   32.8890   52.4650 C   0  0  0  0  0  0  0  0  0  0  0  0
   61.1868   33.1257   52.9164 H   0  0  0  0  0  0  0  0  0  0  0  0
   59.0550   33.5100   52.9460 C   0  0  0  0  0  0  0  0  0  0  0  0
   59.1211   34.2248   53.7795 H   0  0  0  0  0  0  0  0  0  0  0  0
   57.8170   33.2240   52.3700 C   0  0  0  0  0  0  0  0  0  0  0  0
   56.9081   33.7129   52.7506 H   0  0  0  0  0  0  0  0  0  0  0  0
   57.7300   32.3180   51.3110 C   0  0  0  0  0  0  0  0  0  0  0  0
   56.7512   32.0957   50.8610 H   0  0  0  0  0  0  0  0  0  0  0  0
   58.8840   31.6890   50.8170 C   0  0  0  0  0  0  0  0  0  0  0  0
   58.7680   30.7660   49.7250 N   0  0  0  0  0  0  0  0  0  0  0  0
   59.6020   30.4650   49.1740 H   0  0  0  0  0  0  0  0  0  0  0  0
   57.8390   30.3700   49.4560 H   0  0  0  0  0  0  0  0  0  0  0  0
   61.2100   33.8760   46.3530 C   0  0  0  0  0  0  0  0  0  0  0  0
   62.1880   33.9327   45.8526 H   0  0  0  0  0  0  0  0  0  0  0  0
   60.0400   33.8670   45.5930 C   0  0  0  0  0  0  0  0  0  0  0  0
   60.0998   33.9261   44.4962 H   0  0  0  0  0  0  0  0  0  0  0  0
   58.5790   30.3930   44.7920 C   0  0  0  0  0  0  0  0  0  0  0  0
   59.5301   30.8958   45.0213 H   0  0  0  0  0  0  0  0  0  0  0  0
   59.3520   28.8320   47.5420 C   0  0  0  0  0  0  0  0  0  0  0  0
   58.9146   29.7820   47.8828 H   0  0  0  0  0  0  0  0  0  0  0  0
  1  2  1  0
  2  3  1  0
  3  4  2  0
  4  5  1  0
  4  6  1  0
  6  7  1  0
  6  8  2  0
  8  9  1  0
  8 10  1  0
 10 11  1  0
 11 12  2  0
 12 13  1  0
 12 14  1  0
 14 15  1  0
 15 16  1  0
 16 17  2  0
 16 18  1  0
 18 19  1  0
 19 20  1  0
 19 21  1  0
 19 22  1  0
 22 23  2  0
 23 24  1  0
 23 25  1  0
 25 26  1  0
 25 27  2  0
 27 28  1  0
 28 29  1  0
 28 30  2  0
 30 31  1  0
 30 32  1  0
 32 33  2  0
 32 34  1  0
 34 35  1  0
 35 36  2  0
 36 37  1  0
 36 38  1  0
 38 39  1  0
 38 40  2  0
 40 41  1  0
 40 42  1  0
 42 43  1  0
 42 44  2  0
 44 45  1  0
 45 46  1  0
 45 47  1  0
 27 48  1  0
 48 49  1  0
 48 50  2  0
 50 51  1  0
 15 52  2  0
 52 53  1  0
 10 54  2  0
 54 55  1  0
 54  3  1  0
 52 11  1  0
 50 22  1  0
 44 35  1  0
M  CHG  2  18  -1  34  -1
M  END
>  <UniqueID>  (20) 
19

>  <SMILES>  (20) 
Nc1ccccc1[N-]C(=O)/C=C\c1ccc(C[N-]C(=O)c2cc(-c3cccc(O)c3)cs2)cc1

>  <Energy>  (20) 
98.72470763003928

>  <Genealogy>  (20) 
Nc1ccccc1[N-]C(=O)C=Cc1ccc(C[N-]C(=O)c2cc(-c3cccc(O)c3)cs2)cc1 (protonated)
Nc1ccccc1[N-]C(=O)/C=C\c1ccc(C[N-]C(=O)c2cc(-c3cccc(O)c3)cs2)cc1 (cis-trans isomerization)
Nc1ccccc1[N-]C(=O)/C=C\c1ccc(C[N-]C(=O)c2cc(-c3cccc(O)c3)cs2)cc1 (3D coordinates assigned)
Nc1ccccc1[N-]C(=O)/C=C\c1ccc(C[N-]C(=O)c2cc(-c3cccc(O)c3)cs2)cc1 (optimized conformer: 98.72470763003928 kcal/mol)

>  <smiles>  (20) 
Nc1ccccc1NC(=O)C=Cc1ccc(CNC(=O)c2cc(-c3cccc(O)c3)cs2)cc1

>  <score_type>  (20) 
oracle

>  <origin>  (20) 
adg

>  <m_score__min__energy>  (20) 
-12.390000000000001

>  <m_primary>  (20) 
energy

$$$$
20:0
     RDKit          3D

 61 64  0  0  0  0  0  0  0  0999 V2000
   55.9280   19.1020   52.8720 C   0  0  0  0  0  0  0  0  0  0  0  0
   56.1090   20.4370   53.3290 O   0  0  0  0  0  0  0  0  0  0  0  0
   57.1790   21.2670   52.9540 C   0  0  0  0  0  0  0  0  0  0  0  0
   58.2550   21.5340   53.8260 C   0  0  0  0  0  0  0  0  0  0  0  0
   59.3150   22.3490   53.4140 C   0  0  0  0  0  0  0  0  0  0  0  0
   59.3120   22.9060   52.1370 C   0  0  0  0  0  0  0  0  0  0  0  0
   58.2510   22.6550   51.2660 C   0  0  0  0  0  0  0  0  0  0  0  0
   57.1810   21.8310   51.6630 C   0  0  0  0  0  0  0  0  0  0  0  0
   56.0710   21.6020   50.7790 N   0  0  0  0  0  0  0  0  0  0  0  0
   56.1480   21.7820   49.3580 C   0  0  0  0  0  0  0  0  0  0  0  0
   57.2640   21.6950   48.7780 O   0  0  0  0  0  0  0  0  0  0  0  0
   54.9260   22.0340   48.5610 C   0  0  0  0  0  0  0  0  0  0  0  0
   53.7190   21.4000   48.8940 C   0  0  0  0  0  0  0  0  0  0  0  0
   52.5670   21.6320   48.1380 C   0  0  0  0  0  0  0  0  0  0  0  0
   52.6130   22.4860   47.0350 C   0  0  0  0  0  0  0  0  0  0  0  0
   53.8140   23.1150   46.6810 C   0  0  0  0  0  0  0  0  0  0  0  0
   53.8850   24.1950   45.2920 S   0  0  0  0  0  0  0  0  0  0  0  0
   54.5560   23.5150   44.1310 O   0  0  0  0  0  0  0  0  0  0  0  0
   52.4910   24.5650   44.8760 O   0  0  0  0  0  0  0  0  0  0  0  0
   54.7270   25.6450   45.7370 N   0  0  0  0  0  0  0  0  0  0  0  0
   56.1450   25.7500   45.9150 C   0  0  0  0  0  0  0  0  0  0  0  0
   56.9920   24.6350   45.8360 C   0  0  0  0  0  0  0  0  0  0  0  0
   58.3690   24.7880   46.0070 C   0  0  0  0  0  0  0  0  0  0  0  0
   58.9280   26.0530   46.2740 C   0  0  0  0  0  0  0  0  0  0  0  0
   60.4190   26.1640   46.4400 C   0  0  0  0  0  0  0  0  0  0  0  0
   58.0690   27.1750   46.3880 C   0  0  0  0  0  0  0  0  0  0  0  0
   58.6070   28.7890   46.8840 S   0  0  0  0  0  0  0  0  0  0  0  0
   59.9160   29.0960   46.2090 O   0  0  0  0  0  0  0  0  0  0  0  0
   58.7780   28.9250   48.3690 O   0  0  0  0  0  0  0  0  0  0  0  0
   57.4060   29.9200   46.3490 N   0  0  0  0  0  0  0  0  0  0  0  0
   57.2330   30.2380   44.9590 C   0  0  0  0  0  0  0  0  0  0  0  0
   58.1620   31.0470   44.2750 C   0  0  0  0  0  0  0  0  0  0  0  0
   57.9570   31.3740   42.9320 C   0  0  0  0  0  0  0  0  0  0  0  0
   56.8190   30.9140   42.2640 C   0  0  0  0  0  0  0  0  0  0  0  0
   55.8860   30.1150   42.9380 C   0  0  0  0  0  0  0  0  0  0  0  0
   56.0970   29.7640   44.2790 C   0  0  0  0  0  0  0  0  0  0  0  0
   55.1650   28.9650   44.9370 O   0  0  0  0  0  0  0  0  0  0  0  0
   56.6940   27.0110   46.1640 C   0  0  0  0  0  0  0  0  0  0  0  0
   54.9650   22.8920   47.4490 C   0  0  0  0  0  0  0  0  0  0  0  0
   55.8366   18.4278   53.7363 H   0  0  0  0  0  0  0  0  0  0  0  0
   55.0137   19.0436   52.2632 H   0  0  0  0  0  0  0  0  0  0  0  0
   56.7937   18.8023   52.2632 H   0  0  0  0  0  0  0  0  0  0  0  0
   58.2608   21.0988   54.8362 H   0  0  0  0  0  0  0  0  0  0  0  0
   60.1517   22.5502   54.0991 H   0  0  0  0  0  0  0  0  0  0  0  0
   60.1475   23.5448   51.8147 H   0  0  0  0  0  0  0  0  0  0  0  0
   58.2508   23.1043   50.2619 H   0  0  0  0  0  0  0  0  0  0  0  0
   55.1800   21.2300   51.1810 H   0  0  0  0  0  0  0  0  0  0  0  0
   53.6796   20.7166   49.7550 H   0  0  0  0  0  0  0  0  0  0  0  0
   51.6220   21.1406   48.4127 H   0  0  0  0  0  0  0  0  0  0  0  0
   51.7041   22.6657   46.4421 H   0  0  0  0  0  0  0  0  0  0  0  0
   56.5706   23.6382   45.6390 H   0  0  0  0  0  0  0  0  0  0  0  0
   59.0262   23.9091   45.9322 H   0  0  0  0  0  0  0  0  0  0  0  0
   60.6683   26.1826   47.5112 H   0  0  0  0  0  0  0  0  0  0  0  0
   60.9062   25.2996   45.9651 H   0  0  0  0  0  0  0  0  0  0  0  0
   60.7728   27.0910   45.9651 H   0  0  0  0  0  0  0  0  0  0  0  0
   59.0524   31.4227   44.8004 H   0  0  0  0  0  0  0  0  0  0  0  0
   58.6928   31.9947   42.3996 H   0  0  0  0  0  0  0  0  0  0  0  0
   56.6557   31.1792   41.2090 H   0  0  0  0  0  0  0  0  0  0  0  0
   54.9856   29.7622   42.4137 H   0  0  0  0  0  0  0  0  0  0  0  0
   56.0352   27.8917   46.1847 H   0  0  0  0  0  0  0  0  0  0  0  0
   55.9065   23.3927   47.1790 H   0  0  0  0  0  0  0  0  0  0  0  0
  1  2  1  0
  2  3  1  0
  3  4  2  0
  4  5  1  0
  5  6  2  0
  6  7  1  0
  7  8  2  0
  8  9  1  0
  9 10  1  0
 10 11  2  0
 10 12  1  0
 12 13  2  0
 13 14  1  0
 14 15  2  0
 15 16  1  0
 16 17  1  0
 17 18  2  0
 17 19  2  0
 17 20  1  0
 20 21  1  0
 21 22  2  0
 22 23  1  0
 23 24  2  0
 24 25  1  0
 24 26  1  0
 26 27  1  0
 27 28  2  0
 27 29  2  0
 27 30  1  0
 30 31  1  0
 31 32  2  0
 32 33  1  0
 33 34  2  0
 34 35  1  0
 35 36  2  0
 36 37  1  0
 26 38  2  0
 16 39  2  0
  8  3  1  0
 39 12  1  0
 38 21  1  0
 36 31  1  0
  1 40  1  0
  1 41  1  0
  1 42  1  0
  4 43  1  0
  5 44  1  0
  6 45  1  0
  7 46  1  0
  9 47  1  0
 13 48  1  0
 14 49  1  0
 15 50  1  0
 22 51  1  0
 23 52  1  0
 25 53  1  0
 25 54  1  0
 25 55  1  0
 32 56  1  0
 33 57  1  0
 34 58  1  0
 35 59  1  0
 38 60  1  0
 39 61  1  0
M  CHG  3  20  -1  30  -1  37  -1
M  END
>  <UniqueID>  (21) 
20

>  <SMILES>  (21) 
COc1ccccc1NC(=O)c1cccc(S(=O)(=O)[N-]c2ccc(C)c(S(=O)(=O)[N-]c3ccccc3[O-])c2)c1

>  <Energy>  (21) 
78.59755072074702

>  <Genealogy>  (21) 
COc1ccccc1NC(=O)c1cccc(S(=O)(=O)[N-]c2ccc(C)c(S(=O)(=O)[N-]c3ccccc3[O-])c2)c1 (protonated)
COc1ccccc1NC(=O)c1cccc(S(=O)(=O)[N-]c2ccc(C)c(S(=O)(=O)[N-]c3ccccc3[O-])c2)c1 (3D coordinates assigned)
COc1ccccc1NC(=O)c1cccc(S(=O)(=O)[N-]c2ccc(C)c(S(=O)(=O)[N-]c3ccccc3[O-])c2)c1 (optimized conformer: 78.59755072074702 kcal/mol)

>  <smiles>  (21) 
COc1ccccc1NC(=O)c1cccc(S(=O)(=O)Nc2ccc(C)c(S(=O)(=O)Nc3ccccc3O)c2)c1

>  <score_type>  (21) 
oracle

>  <origin>  (21) 
adg

>  <m_score__min__energy>  (21) 
-17.91

>  <m_primary>  (21) 
energy

$$$$
21:0
     RDKit          3D

 48 50  0  0  0  0  0  0  0  0999 V2000
   55.8840   19.5630   44.0150 C   0  0  0  0  0  0  0  0  0  0  0  0
   55.9370   20.8850   43.4890 O   0  0  0  0  0  0  0  0  0  0  0  0
   56.5970   21.9570   44.1080 C   0  0  0  0  0  0  0  0  0  0  0  0
   56.8300   23.1810   43.4510 C   0  0  0  0  0  0  0  0  0  0  0  0
   57.4880   24.2210   44.1120 C   0  0  0  0  0  0  0  0  0  0  0  0
   57.9260   24.0580   45.4360 C   0  0  0  0  0  0  0  0  0  0  0  0
   58.5740   25.2020   46.1740 C   0  0  0  0  0  0  0  0  0  0  0  0
   57.8910   26.4700   45.8430 N   0  0  0  0  0  0  0  0  0  0  0  0
   56.5370   26.5890   45.9850 C   0  0  0  0  0  0  0  0  0  0  0  0
   55.8480   25.6470   46.4640 O   0  0  0  0  0  0  0  0  0  0  0  0
   55.9120   27.7290   45.6160 N   0  0  0  0  0  0  0  0  0  0  0  0
   56.6050   28.7570   45.0760 C   0  0  0  0  0  0  0  0  0  0  0  0
   55.9850   29.8040   44.7490 O   0  0  0  0  0  0  0  0  0  0  0  0
   57.9570   28.6550   44.8920 N   0  0  0  0  0  0  0  0  0  0  0  0
   58.7010   29.7620   44.2510 C   0  0  0  0  0  0  0  0  0  0  0  0
   58.7620   30.9750   45.1500 C   0  0  0  0  0  0  0  0  0  0  0  0
   57.9420   32.0250   44.8710 N   0  0  0  0  0  0  0  0  0  0  0  0
   57.9380   33.1640   45.6110 C   0  0  0  0  0  0  0  0  0  0  0  0
   57.0020   34.2740   45.2330 C   0  0  0  0  0  0  0  0  0  0  0  0
   58.8150   33.2670   46.7050 C   0  0  0  0  0  0  0  0  0  0  0  0
   58.8750   34.4930   47.5660 C   0  0  0  0  0  0  0  0  0  0  0  0
   59.6360   32.2220   46.9880 N   0  0  0  0  0  0  0  0  0  0  0  0
   59.6370   31.0760   46.2550 C   0  0  0  0  0  0  0  0  0  0  0  0
   60.5940   29.9870   46.6360 C   0  0  0  0  0  0  0  0  0  0  0  0
   58.6020   27.5190   45.3160 C   0  0  0  0  0  0  0  0  0  0  0  0
   59.8590   27.4350   45.2200 O   0  0  0  0  0  0  0  0  0  0  0  0
   57.6910   22.8390   46.0900 C   0  0  0  0  0  0  0  0  0  0  0  0
   57.0350   21.7970   45.4270 C   0  0  0  0  0  0  0  0  0  0  0  0
   55.8857   19.6054   45.1142 H   0  0  0  0  0  0  0  0  0  0  0  0
   54.9653   19.0671   43.6686 H   0  0  0  0  0  0  0  0  0  0  0  0
   56.7601   18.9951   43.6686 H   0  0  0  0  0  0  0  0  0  0  0  0
   56.4924   23.3185   42.4131 H   0  0  0  0  0  0  0  0  0  0  0  0
   57.6642   25.1740   43.5917 H   0  0  0  0  0  0  0  0  0  0  0  0
   58.5041   25.0228   47.2570 H   0  0  0  0  0  0  0  0  0  0  0  0
   59.6301   25.2724   45.8743 H   0  0  0  0  0  0  0  0  0  0  0  0
   59.7254   29.4260   44.0324 H   0  0  0  0  0  0  0  0  0  0  0  0
   58.1775   30.0420   43.3249 H   0  0  0  0  0  0  0  0  0  0  0  0
   56.6048   34.7450   46.1443 H   0  0  0  0  0  0  0  0  0  0  0  0
   57.5441   35.0244   44.6388 H   0  0  0  0  0  0  0  0  0  0  0  0
   56.1709   33.8664   44.6388 H   0  0  0  0  0  0  0  0  0  0  0  0
   58.8606   34.1980   48.6256 H   0  0  0  0  0  0  0  0  0  0  0  0
   59.8013   35.0463   47.3520 H   0  0  0  0  0  0  0  0  0  0  0  0
   58.0072   35.1341   47.3520 H   0  0  0  0  0  0  0  0  0  0  0  0
   60.6541   29.9186   47.7322 H   0  0  0  0  0  0  0  0  0  0  0  0
   60.2404   29.0287   46.2277 H   0  0  0  0  0  0  0  0  0  0  0  0
   61.5898   30.2145   46.2277 H   0  0  0  0  0  0  0  0  0  0  0  0
   58.0244   22.7023   47.1293 H   0  0  0  0  0  0  0  0  0  0  0  0
   56.8619   20.8433   45.9471 H   0  0  0  0  0  0  0  0  0  0  0  0
  1  2  1  0
  2  3  1  0
  3  4  2  0
  4  5  1  0
  5  6  2  0
  6  7  1  0
  7  8  1  0
  8  9  1  0
  9 10  2  0
  9 11  1  0
 11 12  1  0
 12 13  2  0
 12 14  1  0
 14 15  1  0
 15 16  1  0
 16 17  2  0
 17 18  1  0
 18 19  1  0
 18 20  2  0
 20 21  1  0
 20 22  1  0
 22 23  2  0
 23 24  1  0
 14 25  1  0
 25 26  2  0
  6 27  1  0
 27 28  2  0
 28  3  1  0
 25  8  1  0
 23 16  1  0
  1 29  1  0
  1 30  1  0
  1 31  1  0
  4 32  1  0
  5 33  1  0
  7 34  1  0
  7 35  1  0
 15 36  1  0
 15 37  1  0
 19 38  1  0
 19 39  1  0
 19 40  1  0
 21 41  1  0
 21 42  1  0
 21 43  1  0
 24 44  1  0
 24 45  1  0
 24 46  1  0
 27 47  1  0
 28 48  1  0
M  CHG  1  11  -1
M  END
>  <UniqueID>  (22) 
21

>  <SMILES>  (22) 
COc1ccc(Cn2c(=O)[n-]c(=O)n(Cc3nc(C)c(C)nc3C)c2=O)cc1

>  <Energy>  (22) 
55.6102315503517

>  <Genealogy>  (22) 
COc1ccc(Cn2c(=O)[n-]c(=O)n(Cc3nc(C)c(C)nc3C)c2=O)cc1 (protonated)
COc1ccc(Cn2c(=O)[n-]c(=O)n(Cc3nc(C)c(C)nc3C)c2=O)cc1 (3D coordinates assigned)
COc1ccc(Cn2c(=O)[n-]c(=O)n(Cc3nc(C)c(C)nc3C)c2=O)cc1 (optimized conformer: 55.6102315503517 kcal/mol)

>  <smiles>  (22) 
COc1ccc(Cn2c(=O)[nH]c(=O)n(Cc3nc(C)c(C)nc3C)c2=O)cc1

>  <score_type>  (22) 
oracle

>  <origin>  (22) 
adg

>  <m_score__min__energy>  (22) 
-9.8699999999999992

>  <m_primary>  (22) 
energy

$$$$
22:0
     RDKit          3D

 39 41  0  0  0  0  0  0  0  0999 V2000
   60.7450   34.2060   49.8840 C   0  0  0  0  0  0  0  0  0  0  0  0
   61.5770   33.8430   48.6930 C   0  0  0  0  0  0  0  0  0  0  0  0
   62.9250   33.4690   48.8140 C   0  0  0  0  0  0  0  0  0  0  0  0
   63.5490   33.2260   47.6000 C   0  0  0  0  0  0  0  0  0  0  0  0
   62.4250   33.4650   46.3730 S   0  0  0  0  0  0  0  0  0  0  0  0
   61.1290   33.8590   47.3690 C   0  0  0  0  0  0  0  0  0  0  0  0
   59.7830   34.1930   46.8680 C   0  0  0  0  0  0  0  0  0  0  0  0
   59.6760   35.1190   46.0190 O   0  0  0  0  0  0  0  0  0  0  0  0
   58.6110   33.4420   47.2680 N   0  0  0  0  0  0  0  0  0  0  0  0
   57.3890   33.5440   46.4530 C   0  0  0  0  0  0  0  0  0  0  0  0
   57.4830   32.6880   45.2240 C   0  0  0  0  0  0  0  0  0  0  0  0
   58.1340   33.0250   44.0540 C   0  0  0  0  0  0  0  0  0  0  0  0
   57.9600   31.9500   43.2100 C   0  0  0  0  0  0  0  0  0  0  0  0
   57.2220   31.0230   43.9170 C   0  0  0  0  0  0  0  0  0  0  0  0
   56.9540   31.4910   45.1150 O   0  0  0  0  0  0  0  0  0  0  0  0
   58.7750   32.2660   48.0950 C   0  0  0  0  0  0  0  0  0  0  0  0
   58.3530   32.3160   49.4350 C   0  0  0  0  0  0  0  0  0  0  0  0
   58.5290   31.2240   50.2820 C   0  0  0  0  0  0  0  0  0  0  0  0
   59.1460   30.0690   49.8100 C   0  0  0  0  0  0  0  0  0  0  0  0
   59.5840   29.9910   48.4850 C   0  0  0  0  0  0  0  0  0  0  0  0
   60.3840   28.5090   47.9680 Cl  0  0  0  0  0  0  0  0  0  0  0  0
   59.3900   31.0820   47.6050 C   0  0  0  0  0  0  0  0  0  0  0  0
   59.8600   30.9670   46.1770 C   0  0  0  0  0  0  0  0  0  0  0  0
   61.2973   33.9650   50.8043 H   0  0  0  0  0  0  0  0  0  0  0  0
   60.5224   35.2830   49.8613 H   0  0  0  0  0  0  0  0  0  0  0  0
   59.8041   33.6366   49.8613 H   0  0  0  0  0  0  0  0  0  0  0  0
   63.4385   33.3773   49.7825 H   0  0  0  0  0  0  0  0  0  0  0  0
   64.5990   32.9281   47.4632 H   0  0  0  0  0  0  0  0  0  0  0  0
   56.5284   33.2154   47.0541 H   0  0  0  0  0  0  0  0  0  0  0  0
   57.2660   34.5912   46.1394 H   0  0  0  0  0  0  0  0  0  0  0  0
   58.6779   33.9570   43.8404 H   0  0  0  0  0  0  0  0  0  0  0  0
   58.3340   31.8508   42.1803 H   0  0  0  0  0  0  0  0  0  0  0  0
   56.9059   30.0409   43.5354 H   0  0  0  0  0  0  0  0  0  0  0  0
   57.8772   33.2300   49.8201 H   0  0  0  0  0  0  0  0  0  0  0  0
   58.1803   31.2745   51.3240 H   0  0  0  0  0  0  0  0  0  0  0  0
   59.2898   29.2119   50.4843 H   0  0  0  0  0  0  0  0  0  0  0  0
   60.9284   30.7056   46.1626 H   0  0  0  0  0  0  0  0  0  0  0  0
   59.2838   30.1833   45.6633 H   0  0  0  0  0  0  0  0  0  0  0  0
   59.7107   31.9282   45.6633 H   0  0  0  0  0  0  0  0  0  0  0  0
  1  2  1  0
  2  3  1  0
  3  4  2  0
  4  5  1  0
  5  6  1  0
  6  7  1  0
  7  8  2  0
  7  9  1  0
  9 10  1  0
 10 11  1  0
 11 12  2  0
 12 13  1  0
 13 14  2  0
 14 15  1  0
  9 16  1  0
 16 17  2  0
 17 18  1  0
 18 19  2  0
 19 20  1  0
 20 21  1  0
 20 22  2  0
 22 23  1  0
  6  2  2  0
 15 11  1  0
 22 16  1  0
  1 24  1  0
  1 25  1  0
  1 26  1  0
  3 27  1  0
  4 28  1  0
 10 29  1  0
 10 30  1  0
 12 31  1  0
 13 32  1  0
 14 33  1  0
 17 34  1  0
 18 35  1  0
 19 36  1  0
 23 37  1  0
 23 38  1  0
 23 39  1  0
M  END
>  <UniqueID>  (23) 
22

>  <SMILES>  (23) 
Cc1ccsc1C(=O)N(Cc1ccco1)c1cccc(Cl)c1C

>  <Energy>  (23) 
103.36529333710043

>  <Genealogy>  (23) 
Cc1ccsc1C(=O)N(Cc1ccco1)c1cccc(Cl)c1C (3D coordinates assigned)
Cc1ccsc1C(=O)N(Cc1ccco1)c1cccc(Cl)c1C (optimized conformer: 103.36529333710043 kcal/mol)

>  <smiles>  (23) 
Cc1ccsc1C(=O)N(Cc1ccco1)c1cccc(Cl)c1C

>  <score_type>  (23) 
oracle

>  <origin>  (23) 
adg

>  <m_score__min__energy>  (23) 
-7.4000000000000004

>  <m_primary>  (23) 
energy

$$$$
23:0
     RDKit          3D

 37 39  0  0  0  0  0  0  0  0999 V2000
   58.0742   31.8333   42.1004 H   0  0  0  0  0  0  0  0  0  0  0  0
   57.8730   31.8970   43.1800 C   0  0  0  0  0  0  0  0  0  0  0  0
   58.3860   33.1250   44.2120 S   0  0  0  0  0  0  0  0  0  0  0  0
   57.6510   32.4380   45.5560 C   0  0  0  0  0  0  0  0  0  0  0  0
   57.7180   32.9460   46.7510 N   0  0  0  0  0  0  0  0  0  0  0  0
   58.6200   32.5320   47.7890 C   0  0  0  0  0  0  0  0  0  0  0  0
   58.1480   31.9490   48.8000 O   0  0  0  0  0  0  0  0  0  0  0  0
   60.0880   32.7090   47.6750 C   0  0  0  0  0  0  0  0  0  0  0  0
   60.6540   33.9660   47.9470 C   0  0  0  0  0  0  0  0  0  0  0  0
   60.0091   34.7980   48.2661 H   0  0  0  0  0  0  0  0  0  0  0  0
   62.0290   34.1660   47.8150 C   0  0  0  0  0  0  0  0  0  0  0  0
   62.4636   35.1525   48.0341 H   0  0  0  0  0  0  0  0  0  0  0  0
   62.8530   33.1180   47.4060 C   0  0  0  0  0  0  0  0  0  0  0  0
   63.9359   33.2805   47.3011 H   0  0  0  0  0  0  0  0  0  0  0  0
   62.3070   31.8620   47.1290 C   0  0  0  0  0  0  0  0  0  0  0  0
   63.1290   30.8480   46.7630 F   0  0  0  0  0  0  0  0  0  0  0  0
   60.9240   31.6470   47.2590 C   0  0  0  0  0  0  0  0  0  0  0  0
   60.3770   30.3400   47.0240 N   0  0  0  0  0  0  0  0  0  0  0  0
   60.4990   29.7170   45.7060 C   0  0  0  0  0  0  0  0  0  0  0  0
   60.4694   30.4945   44.9284 H   0  0  0  0  0  0  0  0  0  0  0  0
   61.4532   29.1733   45.6435 H   0  0  0  0  0  0  0  0  0  0  0  0
   59.3390   28.7400   45.4960 C   0  0  0  0  0  0  0  0  0  0  0  0
   58.3989   29.3064   45.4224 H   0  0  0  0  0  0  0  0  0  0  0  0
   59.5174   28.1737   44.5700 H   0  0  0  0  0  0  0  0  0  0  0  0
   59.2490   27.8280   46.5770 O   0  0  0  0  0  0  0  0  0  0  0  0
   58.9170   28.5220   47.7660 C   0  0  0  0  0  0  0  0  0  0  0  0
   57.9903   29.0921   47.6037 H   0  0  0  0  0  0  0  0  0  0  0  0
   58.7800   27.7890   48.5746 H   0  0  0  0  0  0  0  0  0  0  0  0
   60.0370   29.4880   48.1650 C   0  0  0  0  0  0  0  0  0  0  0  0
   59.6988   30.1153   49.0029 H   0  0  0  0  0  0  0  0  0  0  0  0
   60.9241   28.9141   48.4709 H   0  0  0  0  0  0  0  0  0  0  0  0
   57.0250   31.2790   45.2550 N   0  0  0  0  0  0  0  0  0  0  0  0
   57.1490   30.9760   43.9340 C   0  0  0  0  0  0  0  0  0  0  0  0
   56.5110   29.7630   43.3410 C   0  0  0  0  0  0  0  0  0  0  0  0
   56.1626   29.1007   44.1472 H   0  0  0  0  0  0  0  0  0  0  0  0
   55.6553   30.0655   42.7195 H   0  0  0  0  0  0  0  0  0  0  0  0
   57.2451   29.2293   42.7195 H   0  0  0  0  0  0  0  0  0  0  0  0
  1  2  1  0
  2  3  1  0
  3  4  1  0
  4  5  2  0
  5  6  1  0
  6  7  2  0
  6  8  1  0
  8  9  2  0
  9 10  1  0
  9 11  1  0
 11 12  1  0
 11 13  2  0
 13 14  1  0
 13 15  1  0
 15 16  1  0
 15 17  2  0
 17 18  1  0
 18 19  1  0
 19 20  1  0
 19 21  1  0
 19 22  1  0
 22 23  1  0
 22 24  1  0
 22 25  1  0
 25 26  1  0
 26 27  1  0
 26 28  1  0
 26 29  1  0
 29 30  1  0
 29 31  1  0
  4 32  1  0
 32 33  1  0
 33 34  1  0
 34 35  1  0
 34 36  1  0
 34 37  1  0
 33  2  2  0
 17  8  1  0
 29 18  1  0
M  CHG  1  32  -1
M  END
>  <UniqueID>  (24) 
23

>  <SMILES>  (24) 
Cc1cs/c(=N/C(=O)c2cccc(F)c2N2CCOCC2)[n-]1

>  <Energy>  (24) 
80.4791905686104

>  <Genealogy>  (24) 
Cc1csc(=NC(=O)c2cccc(F)c2N2CCOCC2)[n-]1 (protonated)
Cc1cs/c(=N/C(=O)c2cccc(F)c2N2CCOCC2)[n-]1 (cis-trans isomerization)
Cc1cs/c(=N/C(=O)c2cccc(F)c2N2CCOCC2)[n-]1 (3D coordinates assigned)
Cc1cs/c(=N/C(=O)c2cccc(F)c2N2CCOCC2)[n-]1 (nonaromatic ring conformer: 80.4791905686104 kcal/mol)

>  <smiles>  (24) 
Cc1csc(=NC(=O)c2cccc(F)c2N2CCOCC2)[nH]1

>  <score_type>  (24) 
oracle

>  <origin>  (24) 
adg

>  <m_score__min__energy>  (24) 
-8.8000000000000007

>  <m_primary>  (24) 
energy

$$$$
24:0
     RDKit          3D

 49 52  0  0  0  0  0  0  0  0999 V2000
   62.5368   33.4687   49.5124 H   0  0  0  0  0  0  0  0  0  0  0  0
   61.8150   33.6440   48.7010 C   0  0  0  0  0  0  0  0  0  0  0  0
   62.1210   33.2490   47.3950 C   0  0  0  0  0  0  0  0  0  0  0  0
   63.0837   32.7624   47.1795 H   0  0  0  0  0  0  0  0  0  0  0  0
   61.2040   33.4720   46.3620 C   0  0  0  0  0  0  0  0  0  0  0  0
   61.4487   33.1642   45.3347 H   0  0  0  0  0  0  0  0  0  0  0  0
   59.9740   34.0870   46.6340 C   0  0  0  0  0  0  0  0  0  0  0  0
   58.8050   34.3580   45.3450 S   0  0  0  0  0  0  0  0  0  0  0  0
   59.1440   35.6010   44.5710 O   0  0  0  0  0  0  0  0  0  0  0  0
   57.4420   34.5170   45.9550 O   0  0  0  0  0  0  0  0  0  0  0  0
   58.7940   33.0010   44.2620 N   0  0  0  0  0  0  0  0  0  0  0  0
   59.2650   33.1310   43.3390 H   0  0  0  0  0  0  0  0  0  0  0  0
   58.0780   31.7790   44.5160 C   0  0  0  0  0  0  0  0  0  0  0  0
   56.7230   31.6280   44.1680 C   0  0  0  0  0  0  0  0  0  0  0  0
   56.1844   32.4630   43.6960 H   0  0  0  0  0  0  0  0  0  0  0  0
   56.0570   30.4270   44.4170 C   0  0  0  0  0  0  0  0  0  0  0  0
   54.9985   30.3204   44.1375 H   0  0  0  0  0  0  0  0  0  0  0  0
   56.7270   29.3600   45.0190 C   0  0  0  0  0  0  0  0  0  0  0  0
   56.0650   28.1980   45.2530 N   0  0  0  0  0  0  0  0  0  0  0  0
   56.6670   27.1290   45.8360 C   0  0  0  0  0  0  0  0  0  0  0  0
   55.8850   25.8770   46.0760 C   0  0  0  0  0  0  0  0  0  0  0  0
   55.7814   25.7112   47.1585 H   0  0  0  0  0  0  0  0  0  0  0  0
   54.8874   25.9753   45.6230 H   0  0  0  0  0  0  0  0  0  0  0  0
   56.4109   25.0237   45.6230 H   0  0  0  0  0  0  0  0  0  0  0  0
   58.0110   27.2070   46.2170 C   0  0  0  0  0  0  0  0  0  0  0  0
   58.4991   26.3426   46.6908 H   0  0  0  0  0  0  0  0  0  0  0  0
   58.7400   28.3930   45.9940 C   0  0  0  0  0  0  0  0  0  0  0  0
   59.9970   28.4990   46.3320 N   0  0  0  0  0  0  0  0  0  0  0  0
   60.6360   29.6520   46.9630 C   0  0  0  0  0  0  0  0  0  0  0  0
   61.6746   29.4006   47.2239 H   0  0  0  0  0  0  0  0  0  0  0  0
   60.6336   30.5040   46.2673 H   0  0  0  0  0  0  0  0  0  0  0  0
   59.8780   30.0130   48.2080 C   0  0  0  0  0  0  0  0  0  0  0  0
   59.7200   29.0720   49.2370 C   0  0  0  0  0  0  0  0  0  0  0  0
   60.1811   28.0775   49.1456 H   0  0  0  0  0  0  0  0  0  0  0  0
   58.9780   29.3940   50.3790 C   0  0  0  0  0  0  0  0  0  0  0  0
   58.8647   28.6561   51.1869 H   0  0  0  0  0  0  0  0  0  0  0  0
   58.3800   30.6540   50.4940 C   0  0  0  0  0  0  0  0  0  0  0  0
   57.3660   31.0920   52.0520 Br  0  0  0  0  0  0  0  0  0  0  0  0
   58.5210   31.5900   49.4640 C   0  0  0  0  0  0  0  0  0  0  0  0
   58.0490   32.5796   49.5531 H   0  0  0  0  0  0  0  0  0  0  0  0
   59.2610   31.2700   48.3210 C   0  0  0  0  0  0  0  0  0  0  0  0
   59.3601   32.0047   47.5083 H   0  0  0  0  0  0  0  0  0  0  0  0
   58.0870   29.4900   45.3840 C   0  0  0  0  0  0  0  0  0  0  0  0
   58.7490   30.7080   45.1280 C   0  0  0  0  0  0  0  0  0  0  0  0
   59.8058   30.8210   45.4116 H   0  0  0  0  0  0  0  0  0  0  0  0
   59.6740   34.4850   47.9450 C   0  0  0  0  0  0  0  0  0  0  0  0
   58.7133   34.9744   48.1629 H   0  0  0  0  0  0  0  0  0  0  0  0
   60.5910   34.2620   48.9750 C   0  0  0  0  0  0  0  0  0  0  0  0
   60.3500   34.5728   50.0023 H   0  0  0  0  0  0  0  0  0  0  0  0
  1  2  1  0
  2  3  2  0
  3  4  1  0
  3  5  1  0
  5  6  1  0
  5  7  2  0
  7  8  1  0
  8  9  2  0
  8 10  2  0
  8 11  1  0
 11 12  1  0
 11 13  1  0
 13 14  2  0
 14 15  1  0
 14 16  1  0
 16 17  1  0
 16 18  2  0
 18 19  1  0
 19 20  1  0
 20 21  1  0
 21 22  1  0
 21 23  1  0
 21 24  1  0
 20 25  2  0
 25 26  1  0
 25 27  1  0
 27 28  2  0
 28 29  1  0
 29 30  1  0
 29 31  1  0
 29 32  1  0
 32 33  2  0
 33 34  1  0
 33 35  1  0
 35 36  1  0
 35 37  2  0
 37 38  1  0
 37 39  1  0
 39 40  1  0
 39 41  2  0
 41 42  1  0
 27 43  1  0
 43 44  2  0
 44 45  1  0
  7 46  1  0
 46 47  1  0
 46 48  2  0
 48 49  1  0
 48  2  1  0
 44 13  1  0
 43 18  1  0
 41 32  1  0
M  CHG  1  19  -1
M  END
>  <UniqueID>  (25) 
24

>  <SMILES>  (25) 
Cc1c/c(=N\Cc2ccc(Br)cc2)c2cc(NS(=O)(=O)c3ccccc3)ccc2[n-]1

>  <Energy>  (25) 
60.25660952948311

>  <Genealogy>  (25) 
Cc1cc(=NCc2ccc(Br)cc2)c2cc(NS(=O)(=O)c3ccccc3)ccc2[n-]1 (protonated)
Cc1c/c(=N\Cc2ccc(Br)cc2)c2cc(NS(=O)(=O)c3ccccc3)ccc2[n-]1 (cis-trans isomerization)
Cc1c/c(=N\Cc2ccc(Br)cc2)c2cc(NS(=O)(=O)c3ccccc3)ccc2[n-]1 (3D coordinates assigned)
Cc1c/c(=N\Cc2ccc(Br)cc2)c2cc(NS(=O)(=O)c3ccccc3)ccc2[n-]1 (optimized conformer: 60.25660952948311 kcal/mol)

>  <smiles>  (25) 
Cc1cc(=NCc2ccc(Br)cc2)c2cc(NS(=O)(=O)c3ccccc3)ccc2[nH]1

>  <score_type>  (25) 
oracle

>  <origin>  (25) 
adg

>  <m_score__min__energy>  (25) 
-11.300000000000001

>  <m_primary>  (25) 
energy

$$$$
25:0
     RDKit          3D

 40 42  0  0  0  0  0  0  0  0999 V2000
   56.0640   28.5520   45.1610 O   0  0  0  0  0  0  0  0  0  0  0  0
   56.2570   27.3950   45.6210 C   0  0  0  0  0  0  0  0  0  0  0  0
   55.1720   26.6100   45.9870 O   0  0  0  0  0  0  0  0  0  0  0  0
   57.6490   26.8900   45.8240 C   0  0  0  0  0  0  0  0  0  0  0  0
   58.5490   28.0130   46.2600 C   0  0  0  0  0  0  0  0  0  0  0  0
   59.3990   28.6390   45.3370 C   0  0  0  0  0  0  0  0  0  0  0  0
   60.2130   29.7030   45.7360 C   0  0  0  0  0  0  0  0  0  0  0  0
   60.1870   30.1590   47.0640 C   0  0  0  0  0  0  0  0  0  0  0  0
   61.0460   31.2970   47.4750 C   0  0  0  0  0  0  0  0  0  0  0  0
   62.4080   31.2640   47.1270 C   0  0  0  0  0  0  0  0  0  0  0  0
   63.2560   32.3170   47.4680 C   0  0  0  0  0  0  0  0  0  0  0  0
   62.7640   33.4100   48.1760 C   0  0  0  0  0  0  0  0  0  0  0  0
   61.4180   33.4600   48.5480 C   0  0  0  0  0  0  0  0  0  0  0  0
   60.9720   34.5430   49.3000 O   0  0  0  0  0  0  0  0  0  0  0  0
   60.5370   32.4170   48.1880 C   0  0  0  0  0  0  0  0  0  0  0  0
   59.1170   32.4780   48.6160 C   0  0  0  0  0  0  0  0  0  0  0  0
   58.8360   32.2980   49.8300 O   0  0  0  0  0  0  0  0  0  0  0  0
   58.0550   32.8020   47.7080 N   0  0  0  0  0  0  0  0  0  0  0  0
   58.0470   32.6570   46.2790 C   0  0  0  0  0  0  0  0  0  0  0  0
   58.4760   33.7340   45.4930 C   0  0  0  0  0  0  0  0  0  0  0  0
   58.4720   33.6410   44.0980 C   0  0  0  0  0  0  0  0  0  0  0  0
   58.0220   32.4720   43.4760 C   0  0  0  0  0  0  0  0  0  0  0  0
   58.0150   32.3460   41.5700 Br  0  0  0  0  0  0  0  0  0  0  0  0
   57.5680   31.4020   44.2500 C   0  0  0  0  0  0  0  0  0  0  0  0
   57.5720   31.4930   45.6460 C   0  0  0  0  0  0  0  0  0  0  0  0
   59.3180   29.5460   47.9810 C   0  0  0  0  0  0  0  0  0  0  0  0
   58.5040   28.4820   47.5830 C   0  0  0  0  0  0  0  0  0  0  0  0
   57.6428   26.1078   46.5974 H   0  0  0  0  0  0  0  0  0  0  0  0
   58.0234   26.4767   44.8758 H   0  0  0  0  0  0  0  0  0  0  0  0
   59.4253   28.2910   44.2938 H   0  0  0  0  0  0  0  0  0  0  0  0
   60.8781   30.1862   45.0052 H   0  0  0  0  0  0  0  0  0  0  0  0
   62.8088   30.3980   46.5798 H   0  0  0  0  0  0  0  0  0  0  0  0
   64.3163   32.2840   47.1769 H   0  0  0  0  0  0  0  0  0  0  0  0
   63.4375   34.2375   48.4436 H   0  0  0  0  0  0  0  0  0  0  0  0
   58.8188   34.6604   45.9771 H   0  0  0  0  0  0  0  0  0  0  0  0
   58.8229   34.4875   43.4895 H   0  0  0  0  0  0  0  0  0  0  0  0
   57.2064   30.4855   43.7609 H   0  0  0  0  0  0  0  0  0  0  0  0
   57.2026   30.6519   46.2511 H   0  0  0  0  0  0  0  0  0  0  0  0
   59.2777   29.9057   49.0197 H   0  0  0  0  0  0  0  0  0  0  0  0
   57.8254   28.0100   48.3088 H   0  0  0  0  0  0  0  0  0  0  0  0
  1  2  2  0
  2  3  1  0
  2  4  1  0
  4  5  1  0
  5  6  2  0
  6  7  1  0
  7  8  2  0
  8  9  1  0
  9 10  2  0
 10 11  1  0
 11 12  2  0
 12 13  1  0
 13 14  1  0
 13 15  2  0
 15 16  1  0
 16 17  2  0
 16 18  1  0
 18 19  1  0
 19 20  2  0
 20 21  1  0
 21 22  2  0
 22 23  1  0
 22 24  1  0
 24 25  2  0
  8 26  1  0
 26 27  2  0
 27  5  1  0
 15  9  1  0
 25 19  1  0
  4 28  1  0
  4 29  1  0
  6 30  1  0
  7 31  1  0
 10 32  1  0
 11 33  1  0
 12 34  1  0
 20 35  1  0
 21 36  1  0
 24 37  1  0
 25 38  1  0
 26 39  1  0
 27 40  1  0
M  CHG  3   3  -1  14  -1  18  -1
M  END
>  <UniqueID>  (26) 
25

>  <SMILES>  (26) 
O=C([O-])Cc1ccc(-c2cccc([O-])c2C(=O)[N-]c2ccc(Br)cc2)cc1

>  <Energy>  (26) 
57.549177256502695

>  <Genealogy>  (26) 
O=C([O-])Cc1ccc(-c2cccc([O-])c2C(=O)[N-]c2ccc(Br)cc2)cc1 (protonated)
O=C([O-])Cc1ccc(-c2cccc([O-])c2C(=O)[N-]c2ccc(Br)cc2)cc1 (3D coordinates assigned)
O=C([O-])Cc1ccc(-c2cccc([O-])c2C(=O)[N-]c2ccc(Br)cc2)cc1 (optimized conformer: 57.549177256502695 kcal/mol)

>  <smiles>  (26) 
O=C(O)Cc1ccc(-c2cccc(O)c2C(=O)Nc2ccc(Br)cc2)cc1

>  <score_type>  (26) 
oracle

>  <origin>  (26) 
adg

>  <m_score__min__energy>  (26) 
-13.050000000000001

>  <m_primary>  (26) 
energy

$$$$
26:0
     RDKit          3D

 47 49  0  0  0  0  0  0  0  0999 V2000
   57.0060   30.0470   50.4530 H   0  0  0  0  0  0  0  0  0  0  0  0
   57.0690   30.1320   51.4410 O   0  0  0  0  0  0  0  0  0  0  0  0
   56.6230   31.4220   51.7590 C   0  0  0  0  0  0  0  0  0  0  0  0
   55.9737   31.3731   52.6456 H   0  0  0  0  0  0  0  0  0  0  0  0
   56.0632   31.8278   50.9035 H   0  0  0  0  0  0  0  0  0  0  0  0
   57.8100   32.3360   52.0540 C   0  0  0  0  0  0  0  0  0  0  0  0
   57.9572   32.3975   53.1424 H   0  0  0  0  0  0  0  0  0  0  0  0
   57.6004   33.3340   51.6415 H   0  0  0  0  0  0  0  0  0  0  0  0
   59.3310   31.6850   51.2780 S   0  0  0  0  0  0  0  0  0  0  0  0
   60.0050   33.2860   50.7010 C   0  0  0  0  0  0  0  0  0  0  0  0
   60.9651   33.4802   51.2015 H   0  0  0  0  0  0  0  0  0  0  0  0
   59.2933   34.0892   50.9427 H   0  0  0  0  0  0  0  0  0  0  0  0
   60.2170   33.2400   49.2150 C   0  0  0  0  0  0  0  0  0  0  0  0
   60.7230   34.3560   48.5390 C   0  0  0  0  0  0  0  0  0  0  0  0
   60.9607   35.2770   49.0915 H   0  0  0  0  0  0  0  0  0  0  0  0
   60.9240   34.2930   47.1600 C   0  0  0  0  0  0  0  0  0  0  0  0
   61.3318   35.1637   46.6255 H   0  0  0  0  0  0  0  0  0  0  0  0
   60.6180   33.1600   46.4740 N   0  0  0  0  0  0  0  0  0  0  0  0
   60.7770   33.1470   45.4390 H   0  0  0  0  0  0  0  0  0  0  0  0
   60.0860   32.0640   47.0880 C   0  0  0  0  0  0  0  0  0  0  0  0
   59.7860   31.0200   46.3610 N   0  0  0  0  0  0  0  0  0  0  0  0
   58.4750   30.4890   46.1110 C   0  0  0  0  0  0  0  0  0  0  0  0
   57.8900   29.8620   47.0340 O   0  0  0  0  0  0  0  0  0  0  0  0
   57.8250   30.6040   44.7790 C   0  0  0  0  0  0  0  0  0  0  0  0
   58.2370   31.6170   43.8960 C   0  0  0  0  0  0  0  0  0  0  0  0
   59.0134   32.3307   44.2088 H   0  0  0  0  0  0  0  0  0  0  0  0
   57.6690   31.7250   42.6250 C   0  0  0  0  0  0  0  0  0  0  0  0
   58.0870   32.6970   41.7760 F   0  0  0  0  0  0  0  0  0  0  0  0
   56.6740   30.8330   42.2260 C   0  0  0  0  0  0  0  0  0  0  0  0
   56.2276   30.9201   41.2244 H   0  0  0  0  0  0  0  0  0  0  0  0
   56.2440   29.8300   43.0960 C   0  0  0  0  0  0  0  0  0  0  0  0
   55.4533   29.1340   42.7790 H   0  0  0  0  0  0  0  0  0  0  0  0
   56.8140   29.7030   44.3740 C   0  0  0  0  0  0  0  0  0  0  0  0
   56.3430   28.7310   45.2690 O   0  0  0  0  0  0  0  0  0  0  0  0
   56.9570   27.4950   45.5230 C   0  0  0  0  0  0  0  0  0  0  0  0
   58.3530   27.3260   45.4530 C   0  0  0  0  0  0  0  0  0  0  0  0
   58.9924   28.1709   45.1574 H   0  0  0  0  0  0  0  0  0  0  0  0
   58.9300   26.0910   45.7570 C   0  0  0  0  0  0  0  0  0  0  0  0
   60.0211   25.9650   45.6970 H   0  0  0  0  0  0  0  0  0  0  0  0
   58.1240   25.0160   46.1370 C   0  0  0  0  0  0  0  0  0  0  0  0
   58.5796   24.0429   46.3725 H   0  0  0  0  0  0  0  0  0  0  0  0
   56.7380   25.1770   46.2180 C   0  0  0  0  0  0  0  0  0  0  0  0
   56.1036   24.3302   46.5190 H   0  0  0  0  0  0  0  0  0  0  0  0
   56.1560   26.4130   45.9170 C   0  0  0  0  0  0  0  0  0  0  0  0
   54.7780   26.5670   46.0130 O   0  0  0  0  0  0  0  0  0  0  0  0
   59.8870   32.0900   48.4850 C   0  0  0  0  0  0  0  0  0  0  0  0
   59.4739   31.2099   48.9996 H   0  0  0  0  0  0  0  0  0  0  0  0
  1  2  1  0
  2  3  1  0
  3  4  1  0
  3  5  1  0
  3  6  1  0
  6  7  1  0
  6  8  1  0
  6  9  1  0
  9 10  1  0
 10 11  1  0
 10 12  1  0
 10 13  1  0
 13 14  1  0
 14 15  1  0
 14 16  2  0
 16 17  1  0
 16 18  1  0
 18 19  1  0
 18 20  1  0
 20 21  2  0
 21 22  1  0
 22 23  2  0
 22 24  1  0
 24 25  2  0
 25 26  1  0
 25 27  1  0
 27 28  1  0
 27 29  2  0
 29 30  1  0
 29 31  1  0
 31 32  1  0
 31 33  2  0
 33 34  1  0
 34 35  1  0
 35 36  2  0
 36 37  1  0
 36 38  1  0
 38 39  1  0
 38 40  2  0
 40 41  1  0
 40 42  1  0
 42 43  1  0
 42 44  2  0
 44 45  1  0
 20 46  1  0
 46 47  1  0
 46 13  2  0
 33 24  1  0
 44 35  1  0
M  CHG  1  45  -1
M  END
>  <UniqueID>  (27) 
26

>  <SMILES>  (27) 
O=C(/N=c1\cc(CSCCO)cc[nH]1)c1cc(F)ccc1Oc1ccccc1[O-]

>  <Energy>  (27) 
56.94884033705058

>  <Genealogy>  (27) 
O=C(N=c1cc(CSCCO)cc[nH]1)c1cc(F)ccc1Oc1ccccc1[O-] (protonated)
O=C(/N=c1\cc(CSCCO)cc[nH]1)c1cc(F)ccc1Oc1ccccc1[O-] (cis-trans isomerization)
O=C(/N=c1\cc(CSCCO)cc[nH]1)c1cc(F)ccc1Oc1ccccc1[O-] (3D coordinates assigned)
O=C(/N=c1\cc(CSCCO)cc[nH]1)c1cc(F)ccc1Oc1ccccc1[O-] (optimized conformer: 56.94884033705058 kcal/mol)

>  <smiles>  (27) 
O=C(N=c1cc(CSCCO)cc[nH]1)c1cc(F)ccc1Oc1ccccc1O

>  <score_type>  (27) 
oracle

>  <origin>  (27) 
adg

>  <m_score__min__energy>  (27) 
-12.32

>  <m_primary>  (27) 
energy

$$$$
27:0
     RDKit          3D

 44 46  0  0  0  0  0  0  0  0999 V2000
   54.7500   26.2930   45.9870 N   0  0  0  0  0  0  0  0  0  0  0  0
   56.2670   25.4870   46.1980 S   0  0  0  0  0  0  0  0  0  0  0  0
   56.4400   24.4520   45.1200 O   0  0  0  0  0  0  0  0  0  0  0  0
   56.2900   24.7980   47.5350 O   0  0  0  0  0  0  0  0  0  0  0  0
   57.5720   26.6660   46.1020 C   0  0  0  0  0  0  0  0  0  0  0  0
   58.7620   26.4450   46.8060 C   0  0  0  0  0  0  0  0  0  0  0  0
   59.7860   27.3930   46.7560 C   0  0  0  0  0  0  0  0  0  0  0  0
   59.6370   28.5530   45.9850 C   0  0  0  0  0  0  0  0  0  0  0  0
   58.4620   28.7750   45.2580 C   0  0  0  0  0  0  0  0  0  0  0  0
   58.3050   30.0160   44.5470 N   0  0  0  0  0  0  0  0  0  0  0  0
   57.2280   30.9320   44.7700 C   0  0  0  0  0  0  0  0  0  0  0  0
   56.0390   30.5470   44.6140 O   0  0  0  0  0  0  0  0  0  0  0  0
   57.5110   32.3150   45.2970 C   0  0  2  0  0  0  0  0  0  0  0  0
   58.4100   33.1320   44.3370 C   0  0  0  0  0  0  0  0  0  0  0  0
   59.2830   34.1620   45.0830 C   0  0  0  0  0  0  0  0  0  0  0  0
   58.6040   34.6540   46.3710 C   0  0  0  0  0  0  0  0  0  0  0  0
   58.2840   33.5540   47.3200 N   0  0  0  0  0  0  0  0  0  0  0  0
   59.4520   33.4790   48.6200 S   0  0  0  0  0  0  0  0  0  0  0  0
   58.9560   32.5490   49.6930 O   0  0  0  0  0  0  0  0  0  0  0  0
   59.6630   34.8470   49.2060 O   0  0  0  0  0  0  0  0  0  0  0  0
   60.9850   32.8880   48.0080 C   0  0  0  0  0  0  0  0  0  0  0  0
   61.2700   31.5750   47.6740 C   0  0  0  0  0  0  0  0  0  0  0  0
   62.5720   31.4090   47.1790 C   0  0  0  0  0  0  0  0  0  0  0  0
   63.2950   32.5970   47.1040 C   0  0  0  0  0  0  0  0  0  0  0  0
   62.3220   33.8510   47.6690 S   0  0  0  0  0  0  0  0  0  0  0  0
   58.1600   32.2210   46.6900 C   0  0  0  0  0  0  0  0  0  0  0  0
   57.4260   27.8240   45.3200 C   0  0  0  0  0  0  0  0  0  0  0  0
   54.7210   27.0910   46.6670 H   0  0  0  0  0  0  0  0  0  0  0  0
   58.8899   25.5263   47.3973 H   0  0  0  0  0  0  0  0  0  0  0  0
   60.7133   27.2283   47.3243 H   0  0  0  0  0  0  0  0  0  0  0  0
   60.4490   29.2943   45.9508 H   0  0  0  0  0  0  0  0  0  0  0  0
   56.5512   32.8468   45.3736 H   0  0  0  0  0  0  0  0  0  0  0  0
   59.0685   32.4384   43.7935 H   0  0  0  0  0  0  0  0  0  0  0  0
   57.7521   33.6847   43.6502 H   0  0  0  0  0  0  0  0  0  0  0  0
   60.2439   33.6937   45.3428 H   0  0  0  0  0  0  0  0  0  0  0  0
   59.4333   35.0280   44.4216 H   0  0  0  0  0  0  0  0  0  0  0  0
   59.2781   35.3639   46.8727 H   0  0  0  0  0  0  0  0  0  0  0  0
   57.6525   35.1235   46.0809 H   0  0  0  0  0  0  0  0  0  0  0  0
   60.5516   30.7494   47.7850 H   0  0  0  0  0  0  0  0  0  0  0  0
   62.9827   30.4337   46.8788 H   0  0  0  0  0  0  0  0  0  0  0  0
   64.3272   32.6993   46.7377 H   0  0  0  0  0  0  0  0  0  0  0  0
   59.1620   31.7787   46.5887 H   0  0  0  0  0  0  0  0  0  0  0  0
   57.5192   31.5951   47.3284 H   0  0  0  0  0  0  0  0  0  0  0  0
   56.4976   27.9883   44.7534 H   0  0  0  0  0  0  0  0  0  0  0  0
  1  2  1  0
  2  3  2  0
  2  4  2  0
  2  5  1  0
  5  6  2  0
  6  7  1  0
  7  8  2  0
  8  9  1  0
  9 10  1  0
 10 11  1  0
 11 12  2  0
 11 13  1  0
 13 14  1  0
 14 15  1  0
 15 16  1  0
 16 17  1  0
 17 18  1  0
 18 19  2  0
 18 20  2  0
 18 21  1  0
 21 22  2  0
 22 23  1  0
 23 24  2  0
 24 25  1  0
 17 26  1  0
  9 27  2  0
 27  5  1  0
 26 13  1  0
 25 21  1  0
  1 28  1  0
  6 29  1  0
  7 30  1  0
  8 31  1  0
 13 32  1  1
 14 33  1  0
 14 34  1  0
 15 35  1  0
 15 36  1  0
 16 37  1  0
 16 38  1  0
 22 39  1  0
 23 40  1  0
 24 41  1  0
 26 42  1  0
 26 43  1  0
 27 44  1  0
M  CHG  2   1  -1  10  -1
M  END
>  <UniqueID>  (28) 
27

>  <SMILES>  (28) 
[NH-]S(=O)(=O)c1cccc([N-]C(=O)[C@@H]2CCCN(S(=O)(=O)c3cccs3)C2)c1

>  <Energy>  (28) 
83.37554868196125

>  <Genealogy>  (28) 
[NH-]S(=O)(=O)c1cccc([N-]C(=O)C2CCCN(S(=O)(=O)c3cccs3)C2)c1 (protonated)
[NH-]S(=O)(=O)c1cccc([N-]C(=O)[C@@H]2CCCN(S(=O)(=O)c3cccs3)C2)c1 (chirality)
[NH-]S(=O)(=O)c1cccc([N-]C(=O)[C@@H]2CCCN(S(=O)(=O)c3cccs3)C2)c1 (3D coordinates assigned)
[NH-]S(=O)(=O)c1cccc([N-]C(=O)[C@@H]2CCCN(S(=O)(=O)c3cccs3)C2)c1 (nonaromatic ring conformer: 83.37554868196125 kcal/mol)

>  <smiles>  (28) 
NS(=O)(=O)c1cccc(NC(=O)C2CCCN(S(=O)(=O)c3cccs3)C2)c1

>  <score_type>  (28) 
oracle

>  <origin>  (28) 
adg

>  <m_score__min__energy>  (28) 
-14.48

>  <m_primary>  (28) 
energy

$$$$
28:0
     RDKit          3D

 58 61  0  0  0  0  0  0  0  0999 V2000
   55.1390   28.6220   45.6300 H   0  0  0  0  0  0  0  0  0  0  0  0
   55.3260   29.3040   44.8610 N   0  0  0  0  0  0  0  0  0  0  0  0
   57.0190   29.6490   44.8930 S   0  0  0  0  0  0  0  0  0  0  0  0
   57.2100   31.0230   45.4720 O   0  0  0  0  0  0  0  0  0  0  0  0
   57.5670   29.6280   43.4950 O   0  0  0  0  0  0  0  0  0  0  0  0
   57.8670   28.4520   45.8840 C   0  0  0  0  0  0  0  0  0  0  0  0
   57.5590   27.0910   45.7150 C   0  0  0  0  0  0  0  0  0  0  0  0
   56.7820   26.7938   44.9954 H   0  0  0  0  0  0  0  0  0  0  0  0
   58.2300   26.1120   46.4520 C   0  0  0  0  0  0  0  0  0  0  0  0
   57.9772   25.0505   46.3130 H   0  0  0  0  0  0  0  0  0  0  0  0
   59.2190   26.4780   47.3630 C   0  0  0  0  0  0  0  0  0  0  0  0
   59.7524   25.7050   47.9357 H   0  0  0  0  0  0  0  0  0  0  0  0
   59.5330   27.8260   47.5490 C   0  0  0  0  0  0  0  0  0  0  0  0
   60.3162   28.1092   48.2676 H   0  0  0  0  0  0  0  0  0  0  0  0
   58.8570   28.8240   46.8260 C   0  0  0  0  0  0  0  0  0  0  0  0
   59.2000   30.2340   47.0910 C   0  0  0  0  0  0  0  0  0  0  0  0
   60.0160   30.9430   46.1990 C   0  0  0  0  0  0  0  0  0  0  0  0
   60.4188   30.4404   45.3073 H   0  0  0  0  0  0  0  0  0  0  0  0
   60.3200   32.2860   46.4380 C   0  0  0  0  0  0  0  0  0  0  0  0
   60.9684   32.8333   45.7380 H   0  0  0  0  0  0  0  0  0  0  0  0
   59.8020   32.9400   47.5670 C   0  0  0  0  0  0  0  0  0  0  0  0
   60.1210   34.3900   47.8100 C   0  0  0  0  0  0  0  0  0  0  0  0
   59.9633   34.9554   46.8797 H   0  0  0  0  0  0  0  0  0  0  0  0
   59.4605   34.7696   48.6035 H   0  0  0  0  0  0  0  0  0  0  0  0
   61.5090   34.5480   48.2380 N   0  0  0  0  0  0  0  0  0  0  0  0
   62.6300   33.8140   47.7310 C   0  0  0  0  0  0  0  0  0  0  0  0
   63.0580   34.0900   46.5780 O   0  0  0  0  0  0  0  0  0  0  0  0
   63.3400   32.7760   48.5630 C   0  0  0  0  0  0  0  0  0  0  0  0
   63.7599   32.0101   47.8943 H   0  0  0  0  0  0  0  0  0  0  0  0
   64.1332   33.2802   49.1344 H   0  0  0  0  0  0  0  0  0  0  0  0
   62.4080   32.1100   49.5430 C   0  0  0  0  0  0  0  0  0  0  0  0
   61.9830   30.7910   49.3260 C   0  0  0  0  0  0  0  0  0  0  0  0
   62.3140   30.2506   48.4269 H   0  0  0  0  0  0  0  0  0  0  0  0
   61.1420   30.1600   50.2450 C   0  0  0  0  0  0  0  0  0  0  0  0
   60.7974   29.1330   50.0540 H   0  0  0  0  0  0  0  0  0  0  0  0
   60.7340   30.8250   51.4080 C   0  0  0  0  0  0  0  0  0  0  0  0
   59.8350   30.1710   52.3180 N   0  0  0  0  0  0  0  0  0  0  0  0
   60.2590   29.5540   53.0460 H   0  0  0  0  0  0  0  0  0  0  0  0
   58.5400   30.3250   52.3140 C   0  0  0  0  0  0  0  0  0  0  0  0
   57.6250   29.4100   52.8930 N   0  0  0  0  0  0  0  0  0  0  0  0
   57.8630   28.4820   53.3030 H   0  0  0  0  0  0  0  0  0  0  0  0
   56.2650   29.8450   52.6420 C   0  0  0  0  0  0  0  0  0  0  0  0
   55.7141   29.9404   53.5893 H   0  0  0  0  0  0  0  0  0  0  0  0
   55.7211   29.1209   52.0176 H   0  0  0  0  0  0  0  0  0  0  0  0
   56.3740   31.2140   51.9480 C   0  0  0  0  0  0  0  0  0  0  0  0
   56.0238   32.0085   52.6234 H   0  0  0  0  0  0  0  0  0  0  0  0
   55.7534   31.2436   51.0403 H   0  0  0  0  0  0  0  0  0  0  0  0
   57.8550   31.4290   51.6050 C   0  0  0  0  0  0  0  0  0  0  0  0
   58.2046   32.4064   51.9691 H   0  0  0  0  0  0  0  0  0  0  0  0
   58.0478   31.4263   50.5220 H   0  0  0  0  0  0  0  0  0  0  0  0
   61.1380   32.1560   51.6140 C   0  0  0  0  0  0  0  0  0  0  0  0
   60.7882   32.7028   52.5021 H   0  0  0  0  0  0  0  0  0  0  0  0
   61.9820   32.7880   50.6960 C   0  0  0  0  0  0  0  0  0  0  0  0
   62.3137   33.8209   50.8780 H   0  0  0  0  0  0  0  0  0  0  0  0
   58.9840   32.2290   48.4590 C   0  0  0  0  0  0  0  0  0  0  0  0
   58.5830   32.7297   49.3526 H   0  0  0  0  0  0  0  0  0  0  0  0
   58.6770   30.8870   48.2160 C   0  0  0  0  0  0  0  0  0  0  0  0
   58.0220   30.3408   48.9107 H   0  0  0  0  0  0  0  0  0  0  0  0
  1  2  1  0
  2  3  1  0
  3  4  2  0
  3  5  2  0
  3  6  1  0
  6  7  2  0
  7  8  1  0
  7  9  1  0
  9 10  1  0
  9 11  2  0
 11 12  1  0
 11 13  1  0
 13 14  1  0
 13 15  2  0
 15 16  1  0
 16 17  2  0
 17 18  1  0
 17 19  1  0
 19 20  1  0
 19 21  2  0
 21 22  1  0
 22 23  1  0
 22 24  1  0
 22 25  1  0
 25 26  1  0
 26 27  2  0
 26 28  1  0
 28 29  1  0
 28 30  1  0
 28 31  1  0
 31 32  2  0
 32 33  1  0
 32 34  1  0
 34 35  1  0
 34 36  2  0
 36 37  1  0
 37 38  1  0
 37 39  2  0
 39 40  1  0
 40 41  1  0
 40 42  1  0
 42 43  1  0
 42 44  1  0
 42 45  1  0
 45 46  1  0
 45 47  1  0
 45 48  1  0
 48 49  1  0
 48 50  1  0
 36 51  1  0
 51 52  1  0
 51 53  2  0
 53 54  1  0
 21 55  1  0
 55 56  1  0
 55 57  2  0
 57 58  1  0
 15  6  1  0
 57 16  1  0
 53 31  1  0
 48 39  1  0
M  CHG  3   2  -1  25  -1  37   1
M  END
>  <UniqueID>  (29) 
28

>  <SMILES>  (29) 
[NH-]S(=O)(=O)c1ccccc1-c1ccc(C[N-]C(=O)Cc2ccc(/[NH+]=C3/CCCN3)cc2)cc1

>  <Energy>  (29) 
78.79598662953366

>  <Genealogy>  (29) 
[NH-]S(=O)(=O)c1ccccc1-c1ccc(C[N-]C(=O)Cc2ccc([NH+]=C3CCCN3)cc2)cc1 (protonated)
[NH-]S(=O)(=O)c1ccccc1-c1ccc(C[N-]C(=O)Cc2ccc(/[NH+]=C3/CCCN3)cc2)cc1 (cis-trans isomerization)
[NH-]S(=O)(=O)c1ccccc1-c1ccc(C[N-]C(=O)Cc2ccc(/[NH+]=C3/CCCN3)cc2)cc1 (3D coordinates assigned)
[NH-]S(=O)(=O)c1ccccc1-c1ccc(C[N-]C(=O)Cc2ccc(/[NH+]=C3/CCCN3)cc2)cc1 (nonaromatic ring conformer: 78.79598662953366 kcal/mol)

>  <smiles>  (29) 
NS(=O)(=O)c1ccccc1-c1ccc(CNC(=O)Cc2ccc(N=C3CCCN3)cc2)cc1

>  <score_type>  (29) 
oracle

>  <origin>  (29) 
adg

>  <m_score__min__energy>  (29) 
-11.83

>  <m_primary>  (29) 
energy

$$$$
29:0
     RDKit          3D

 35 36  0  0  0  0  0  0  0  0999 V2000
   57.8950   32.4080   41.0290 C   0  0  0  0  0  0  0  0  0  0  0  0
   57.4850   31.9200   42.3830 C   0  0  0  0  0  0  0  0  0  0  0  0
   56.7190   30.7590   42.5250 C   0  0  0  0  0  0  0  0  0  0  0  0
   56.3190   30.3770   43.8060 C   0  0  0  0  0  0  0  0  0  0  0  0
   56.6580   31.1400   44.8790 N   0  0  0  0  0  0  0  0  0  0  0  0
   57.3890   32.2740   44.7220 C   0  0  0  0  0  0  0  0  0  0  0  0
   57.7840   33.2980   46.1370 S   0  0  0  0  0  0  0  0  0  0  0  0
   59.2970   32.3750   46.6030 C   0  0  0  0  0  0  0  0  0  0  0  0
   58.9890   30.9500   46.9540 C   0  0  0  0  0  0  0  0  0  0  0  0
   59.0340   30.5940   48.1620 O   0  0  0  0  0  0  0  0  0  0  0  0
   58.7200   29.9940   45.9160 N   0  0  0  0  0  0  0  0  0  0  0  0
   58.8110   28.5740   46.1150 C   0  0  0  0  0  0  0  0  0  0  0  0
   60.0660   27.9930   46.3540 C   0  0  0  0  0  0  0  0  0  0  0  0
   60.1760   26.6190   46.5770 C   0  0  0  0  0  0  0  0  0  0  0  0
   59.0380   25.8090   46.5470 C   0  0  0  0  0  0  0  0  0  0  0  0
   57.7830   26.3700   46.2780 C   0  0  0  0  0  0  0  0  0  0  0  0
   56.3450   25.3550   46.2420 S   0  0  0  0  0  0  0  0  0  0  0  0
   54.9460   26.3470   46.0320 N   0  0  0  0  0  0  0  0  0  0  0  0
   56.4440   24.3760   45.1050 O   0  0  0  0  0  0  0  0  0  0  0  0
   56.2250   24.5890   47.5290 O   0  0  0  0  0  0  0  0  0  0  0  0
   57.6720   27.7510   46.0600 C   0  0  0  0  0  0  0  0  0  0  0  0
   57.7960   32.6550   43.4820 N   0  0  0  0  0  0  0  0  0  0  0  0
   58.5990   33.2460   41.1390 H   0  0  0  0  0  0  0  0  0  0  0  0
   58.3813   31.5906   40.4764 H   0  0  0  0  0  0  0  0  0  0  0  0
   57.0060   32.7461   40.4764 H   0  0  0  0  0  0  0  0  0  0  0  0
   56.4379   30.1600   41.6463 H   0  0  0  0  0  0  0  0  0  0  0  0
   55.7297   29.4590   43.9477 H   0  0  0  0  0  0  0  0  0  0  0  0
   59.9992   32.3902   45.7565 H   0  0  0  0  0  0  0  0  0  0  0  0
   59.7366   32.8595   47.4873 H   0  0  0  0  0  0  0  0  0  0  0  0
   58.7050   30.3430   44.9310 H   0  0  0  0  0  0  0  0  0  0  0  0
   60.9675   28.6232   46.3657 H   0  0  0  0  0  0  0  0  0  0  0  0
   61.1615   26.1730   46.7769 H   0  0  0  0  0  0  0  0  0  0  0  0
   59.1277   24.7289   46.7349 H   0  0  0  0  0  0  0  0  0  0  0  0
   55.1830   27.0590   45.3050 H   0  0  0  0  0  0  0  0  0  0  0  0
   56.6880   28.1931   45.8447 H   0  0  0  0  0  0  0  0  0  0  0  0
  1  2  1  0
  2  3  2  0
  3  4  1  0
  4  5  2  0
  5  6  1  0
  6  7  1  0
  7  8  1  0
  8  9  1  0
  9 10  2  0
  9 11  1  0
 11 12  1  0
 12 13  2  0
 13 14  1  0
 14 15  2  0
 15 16  1  0
 16 17  1  0
 17 18  1  0
 17 19  2  0
 17 20  2  0
 16 21  2  0
  6 22  2  0
 22  2  1  0
 21 12  1  0
  1 23  1  0
  1 24  1  0
  1 25  1  0
  3 26  1  0
  4 27  1  0
  8 28  1  0
  8 29  1  0
 11 30  1  0
 13 31  1  0
 14 32  1  0
 15 33  1  0
 18 34  1  0
 21 35  1  0
M  CHG  1  18  -1
M  END
>  <UniqueID>  (30) 
29

>  <SMILES>  (30) 
Cc1ccnc(SCC(=O)Nc2cccc(S([NH-])(=O)=O)c2)n1

>  <Energy>  (30) 
32.74590690995166

>  <Genealogy>  (30) 
Cc1ccnc(SCC(=O)Nc2cccc(S([NH-])(=O)=O)c2)n1 (protonated)
Cc1ccnc(SCC(=O)Nc2cccc(S([NH-])(=O)=O)c2)n1 (3D coordinates assigned)
Cc1ccnc(SCC(=O)Nc2cccc(S([NH-])(=O)=O)c2)n1 (optimized conformer: 32.74590690995166 kcal/mol)

>  <smiles>  (30) 
Cc1ccnc(SCC(=O)Nc2cccc(S(N)(=O)=O)c2)n1

>  <score_type>  (30) 
oracle

>  <origin>  (30) 
adg

>  <m_score__min__energy>  (30) 
-11.33

>  <m_primary>  (30) 
energy

$$$$
30:0
     RDKit          3D

 58 61  0  0  0  0  0  0  0  0999 V2000
   62.3470   32.6010   49.3940 C   0  0  0  0  0  0  0  0  0  0  0  0
   60.9180   32.5960   49.0680 N   0  0  0  0  0  0  0  0  0  0  0  0
   60.0330   33.5770   49.6570 C   0  0  0  0  0  0  0  0  0  0  0  0
   59.8420   33.6470   51.2840 S   0  0  0  0  0  0  0  0  0  0  0  0
   59.4330   34.6050   48.8510 N   0  0  0  0  0  0  0  0  0  0  0  0
   59.0610   34.4110   47.4770 C   0  0  0  0  0  0  0  0  0  0  0  0
   59.9250   34.8350   46.4570 C   0  0  0  0  0  0  0  0  0  0  0  0
   59.6030   34.5950   45.1170 C   0  0  0  0  0  0  0  0  0  0  0  0
   58.4080   33.9470   44.7890 C   0  0  0  0  0  0  0  0  0  0  0  0
   57.5290   33.5480   45.7980 C   0  0  0  0  0  0  0  0  0  0  0  0
   57.8480   33.7830   47.1380 C   0  0  0  0  0  0  0  0  0  0  0  0
   60.3930   31.6030   48.1680 C   0  0  0  0  0  0  0  0  0  0  0  0
   61.1700   31.1420   47.0930 C   0  0  0  0  0  0  0  0  0  0  0  0
   60.6250   30.2620   46.1540 C   0  0  0  0  0  0  0  0  0  0  0  0
   59.2890   29.8520   46.2620 C   0  0  0  0  0  0  0  0  0  0  0  0
   58.7290   28.9850   45.2670 N   0  0  0  0  0  0  0  0  0  0  0  0
   58.1750   27.7010   45.5820 C   0  0  0  0  0  0  0  0  0  0  0  0
   57.9320   27.3950   46.7820 O   0  0  0  0  0  0  0  0  0  0  0  0
   57.7860   26.7680   44.4700 C   0  0  0  0  0  0  0  0  0  0  0  0
   57.0480   25.5700   44.9850 C   0  0  0  0  0  0  0  0  0  0  0  0
   57.4310   24.2930   44.7620 N   0  0  0  0  0  0  0  0  0  0  0  0
   56.4330   23.5600   45.3000 C   0  0  0  0  0  0  0  0  0  0  0  0
   56.4200   22.3010   45.2740 O   0  0  0  0  0  0  0  0  0  0  0  0
   55.4470   24.3050   45.8470 N   0  0  0  0  0  0  0  0  0  0  0  0
   54.1690   23.8440   46.3860 C   0  0  0  0  0  0  0  0  0  0  0  0
   54.4040   23.0150   47.6190 C   0  0  0  0  0  0  0  0  0  0  0  0
   53.3860   22.1880   48.1230 C   0  0  0  0  0  0  0  0  0  0  0  0
   53.6250   21.3720   49.2340 C   0  0  0  0  0  0  0  0  0  0  0  0
   54.8830   21.3710   49.8430 C   0  0  0  0  0  0  0  0  0  0  0  0
   55.9030   22.1840   49.3430 C   0  0  0  0  0  0  0  0  0  0  0  0
   55.6680   23.0010   48.2320 C   0  0  0  0  0  0  0  0  0  0  0  0
   55.8310   25.5740   45.6310 C   0  0  0  0  0  0  0  0  0  0  0  0
   55.0910   26.6980   45.9790 O   0  0  0  0  0  0  0  0  0  0  0  0
   58.5220   30.2840   47.3570 C   0  0  0  0  0  0  0  0  0  0  0  0
   59.0720   31.1510   48.3030 C   0  0  0  0  0  0  0  0  0  0  0  0
   62.4738   32.6014   50.4867 H   0  0  0  0  0  0  0  0  0  0  0  0
   62.8230   31.7045   48.9700 H   0  0  0  0  0  0  0  0  0  0  0  0
   62.8167   33.5008   48.9700 H   0  0  0  0  0  0  0  0  0  0  0  0
   59.2940   35.5510   49.2740 H   0  0  0  0  0  0  0  0  0  0  0  0
   60.8587   35.3579   46.7114 H   0  0  0  0  0  0  0  0  0  0  0  0
   60.2904   34.9163   44.3206 H   0  0  0  0  0  0  0  0  0  0  0  0
   58.1602   33.7514   43.7353 H   0  0  0  0  0  0  0  0  0  0  0  0
   56.5844   33.0481   45.5377 H   0  0  0  0  0  0  0  0  0  0  0  0
   57.1491   33.4763   47.9301 H   0  0  0  0  0  0  0  0  0  0  0  0
   62.2132   31.4753   46.9894 H   0  0  0  0  0  0  0  0  0  0  0  0
   61.2471   29.8896   45.3268 H   0  0  0  0  0  0  0  0  0  0  0  0
   58.6020   29.3550   44.2980 H   0  0  0  0  0  0  0  0  0  0  0  0
   57.1401   27.3073   43.7616 H   0  0  0  0  0  0  0  0  0  0  0  0
   58.7056   26.4189   43.9775 H   0  0  0  0  0  0  0  0  0  0  0  0
   53.5467   24.7136   46.6440 H   0  0  0  0  0  0  0  0  0  0  0  0
   53.6560   23.2318   45.6297 H   0  0  0  0  0  0  0  0  0  0  0  0
   52.3968   22.1821   47.6419 H   0  0  0  0  0  0  0  0  0  0  0  0
   52.8227   20.7311   49.6283 H   0  0  0  0  0  0  0  0  0  0  0  0
   55.0700   20.7295   50.7168 H   0  0  0  0  0  0  0  0  0  0  0  0
   56.8925   22.1818   49.8236 H   0  0  0  0  0  0  0  0  0  0  0  0
   56.4757   23.6347   47.8370 H   0  0  0  0  0  0  0  0  0  0  0  0
   57.4840   29.9377   47.4694 H   0  0  0  0  0  0  0  0  0  0  0  0
   58.4658   31.4816   49.1593 H   0  0  0  0  0  0  0  0  0  0  0  0
  1  2  1  0
  2  3  1  0
  3  4  2  0
  3  5  1  0
  5  6  1  0
  6  7  2  0
  7  8  1  0
  8  9  2  0
  9 10  1  0
 10 11  2  0
  2 12  1  0
 12 13  2  0
 13 14  1  0
 14 15  2  0
 15 16  1  0
 16 17  1  0
 17 18  2  0
 17 19  1  0
 19 20  1  0
 20 21  1  0
 21 22  1  0
 22 23  2  0
 22 24  1  0
 24 25  1  0
 25 26  1  0
 26 27  2  0
 27 28  1  0
 28 29  2  0
 29 30  1  0
 30 31  2  0
 24 32  1  0
 32 33  1  0
 15 34  1  0
 34 35  2  0
 11  6  1  0
 35 12  1  0
 32 20  2  0
 31 26  1  0
  1 36  1  0
  1 37  1  0
  1 38  1  0
  5 39  1  0
  7 40  1  0
  8 41  1  0
  9 42  1  0
 10 43  1  0
 11 44  1  0
 13 45  1  0
 14 46  1  0
 16 47  1  0
 19 48  1  0
 19 49  1  0
 25 50  1  0
 25 51  1  0
 27 52  1  0
 28 53  1  0
 29 54  1  0
 30 55  1  0
 31 56  1  0
 34 57  1  0
 35 58  1  0
M  CHG  2  21  -1  33  -1
M  END
>  <UniqueID>  (31) 
30

>  <SMILES>  (31) 
CN(C(=S)Nc1ccccc1)c1ccc(NC(=O)Cc2[n-]c(=O)n(Cc3ccccc3)c2[O-])cc1

>  <Energy>  (31) 
103.80597224653093

>  <Genealogy>  (31) 
CN(C(=S)Nc1ccccc1)c1ccc(NC(=O)Cc2[n-]c(=O)n(Cc3ccccc3)c2[O-])cc1 (protonated)
CN(C(=S)Nc1ccccc1)c1ccc(NC(=O)Cc2[n-]c(=O)n(Cc3ccccc3)c2[O-])cc1 (3D coordinates assigned)
CN(C(=S)Nc1ccccc1)c1ccc(NC(=O)Cc2[n-]c(=O)n(Cc3ccccc3)c2[O-])cc1 (optimized conformer: 103.80597224653093 kcal/mol)

>  <smiles>  (31) 
CN(C(=S)Nc1ccccc1)c1ccc(NC(=O)Cc2[nH]c(=O)n(Cc3ccccc3)c2O)cc1

>  <score_type>  (31) 
oracle

>  <origin>  (31) 
adg

>  <m_score__min__energy>  (31) 
-14.02

>  <m_primary>  (31) 
energy

$$$$
31:0
     RDKit          3D

 67 69  0  0  0  0  0  0  0  0999 V2000
   53.8180   23.9350   45.0180 C   0  0  0  0  0  0  0  0  0  0  0  0
   54.2290   24.1270   46.3540 O   0  0  0  0  0  0  0  0  0  0  0  0
   55.6350   24.2490   46.3990 C   0  0  0  0  0  0  0  0  0  0  0  0
   56.0310   25.6340   45.9710 C   0  0  0  0  0  0  0  0  0  0  0  0
   55.1480   26.5350   45.9620 O   0  0  0  0  0  0  0  0  0  0  0  0
   57.3810   25.9530   45.5620 N   0  0  0  0  0  0  0  0  0  0  0  0
   58.2240   26.8490   46.3770 C   0  0  0  0  0  0  0  0  0  0  0  0
   58.0830   28.3270   45.9760 C   0  0  0  0  0  0  0  0  0  0  0  0
   58.0300   28.5730   44.4560 C   0  0  0  0  0  0  0  0  0  0  0  0
   56.8070   29.3730   43.9850 C   0  0  0  0  0  0  0  0  0  0  0  0
   56.9310   30.7890   44.3340 N   0  0  0  0  0  0  0  0  0  0  0  0
   57.4270   31.7600   43.4060 C   0  0  0  0  0  0  0  0  0  0  0  0
   57.5140   31.4720   42.1800 O   0  0  0  0  0  0  0  0  0  0  0  0
   57.7720   33.0700   43.8760 N   0  0  0  0  0  0  0  0  0  0  0  0
   58.2240   33.4170   45.1940 C   0  0  0  0  0  0  0  0  0  0  0  0
   59.1310   34.4730   45.3340 C   0  0  0  0  0  0  0  0  0  0  0  0
   59.5730   34.8640   46.6000 C   0  0  0  0  0  0  0  0  0  0  0  0
   59.1110   34.2150   47.7500 C   0  0  0  0  0  0  0  0  0  0  0  0
   59.5840   34.6530   48.9980 O   0  0  0  0  0  0  0  0  0  0  0  0
   60.6820   34.0820   49.7110 C   0  0  0  0  0  0  0  0  0  0  0  0
   61.5990   33.3240   48.7880 C   0  0  0  0  0  0  0  0  0  0  0  0
   61.3220   31.9880   48.4500 C   0  0  0  0  0  0  0  0  0  0  0  0
   62.1880   31.2800   47.6090 C   0  0  0  0  0  0  0  0  0  0  0  0
   63.3400   31.8960   47.1090 C   0  0  0  0  0  0  0  0  0  0  0  0
   63.6300   33.2190   47.4520 C   0  0  0  0  0  0  0  0  0  0  0  0
   62.7670   33.9300   48.2940 C   0  0  0  0  0  0  0  0  0  0  0  0
   58.1910   33.1590   47.6140 C   0  0  0  0  0  0  0  0  0  0  0  0
   57.7440   32.7710   46.3480 C   0  0  0  0  0  0  0  0  0  0  0  0
   57.8050   25.5950   44.2000 C   0  0  0  0  0  0  0  0  0  0  0  0
   57.5140   24.1440   43.9290 C   0  0  0  0  0  0  0  0  0  0  0  0
   56.5100   23.7820   43.0140 C   0  0  0  0  0  0  0  0  0  0  0  0
   56.2670   22.4340   42.7320 C   0  0  0  0  0  0  0  0  0  0  0  0
   57.0270   21.4400   43.3560 C   0  0  0  0  0  0  0  0  0  0  0  0
   58.0360   21.7920   44.2580 C   0  0  0  0  0  0  0  0  0  0  0  0
   58.2810   23.1390   44.5440 C   0  0  0  0  0  0  0  0  0  0  0  0
   52.8215   23.4695   45.0043 H   0  0  0  0  0  0  0  0  0  0  0  0
   53.7759   24.9067   44.5041 H   0  0  0  0  0  0  0  0  0  0  0  0
   54.5362   23.2792   44.5041 H   0  0  0  0  0  0  0  0  0  0  0  0
   55.9862   24.0679   47.4256 H   0  0  0  0  0  0  0  0  0  0  0  0
   56.0892   23.5115   45.7209 H   0  0  0  0  0  0  0  0  0  0  0  0
   57.9330   26.7418   47.4324 H   0  0  0  0  0  0  0  0  0  0  0  0
   59.2722   26.5592   46.2115 H   0  0  0  0  0  0  0  0  0  0  0  0
   57.1550   28.7167   46.4199 H   0  0  0  0  0  0  0  0  0  0  0  0
   58.9838   28.8392   46.3452 H   0  0  0  0  0  0  0  0  0  0  0  0
   58.9355   29.1258   44.1652 H   0  0  0  0  0  0  0  0  0  0  0  0
   57.9601   27.5837   43.9802 H   0  0  0  0  0  0  0  0  0  0  0  0
   56.7169   29.2798   42.8927 H   0  0  0  0  0  0  0  0  0  0  0  0
   55.9144   28.9691   44.4851 H   0  0  0  0  0  0  0  0  0  0  0  0
   56.5890   31.1190   45.2650 H   0  0  0  0  0  0  0  0  0  0  0  0
   59.4987   34.9991   44.4407 H   0  0  0  0  0  0  0  0  0  0  0  0
   60.2921   35.6911   46.6938 H   0  0  0  0  0  0  0  0  0  0  0  0
   61.2504   34.8877   50.1986 H   0  0  0  0  0  0  0  0  0  0  0  0
   60.2833   33.3798   50.4580 H   0  0  0  0  0  0  0  0  0  0  0  0
   60.4215   31.4973   48.8479 H   0  0  0  0  0  0  0  0  0  0  0  0
   61.9624   30.2374   47.3407 H   0  0  0  0  0  0  0  0  0  0  0  0
   64.0178   31.3387   46.4456 H   0  0  0  0  0  0  0  0  0  0  0  0
   64.5372   33.7022   47.0601 H   0  0  0  0  0  0  0  0  0  0  0  0
   63.0040   34.9680   48.5704 H   0  0  0  0  0  0  0  0  0  0  0  0
   57.8218   32.6363   48.5087 H   0  0  0  0  0  0  0  0  0  0  0  0
   57.0122   31.9553   46.2532 H   0  0  0  0  0  0  0  0  0  0  0  0
   57.2595   26.2165   43.4746 H   0  0  0  0  0  0  0  0  0  0  0  0
   58.8871   25.7677   44.1042 H   0  0  0  0  0  0  0  0  0  0  0  0
   55.9134   24.5618   42.5181 H   0  0  0  0  0  0  0  0  0  0  0  0
   55.4773   22.1555   42.0187 H   0  0  0  0  0  0  0  0  0  0  0  0
   56.8310   20.3800   43.1372 H   0  0  0  0  0  0  0  0  0  0  0  0
   58.6374   21.0090   44.7429 H   0  0  0  0  0  0  0  0  0  0  0  0
   59.0765   23.4130   45.2526 H   0  0  0  0  0  0  0  0  0  0  0  0
  1  2  1  0
  2  3  1  0
  3  4  1  0
  4  5  2  0
  4  6  1  0
  6  7  1  0
  7  8  1  0
  8  9  1  0
  9 10  1  0
 10 11  1  0
 11 12  1  0
 12 13  2  0
 12 14  1  0
 14 15  1  0
 15 16  2  0
 16 17  1  0
 17 18  2  0
 18 19  1  0
 19 20  1  0
 20 21  1  0
 21 22  2  0
 22 23  1  0
 23 24  2  0
 24 25  1  0
 25 26  2  0
 18 27  1  0
 27 28  2  0
  6 29  1  0
 29 30  1  0
 30 31  2  0
 31 32  1  0
 32 33  2  0
 33 34  1  0
 34 35  2  0
 28 15  1  0
 35 30  1  0
 26 21  1  0
  1 36  1  0
  1 37  1  0
  1 38  1  0
  3 39  1  0
  3 40  1  0
  7 41  1  0
  7 42  1  0
  8 43  1  0
  8 44  1  0
  9 45  1  0
  9 46  1  0
 10 47  1  0
 10 48  1  0
 11 49  1  0
 16 50  1  0
 17 51  1  0
 20 52  1  0
 20 53  1  0
 22 54  1  0
 23 55  1  0
 24 56  1  0
 25 57  1  0
 26 58  1  0
 27 59  1  0
 28 60  1  0
 29 61  1  0
 29 62  1  0
 31 63  1  0
 32 64  1  0
 33 65  1  0
 34 66  1  0
 35 67  1  0
M  CHG  1  14  -1
M  END
>  <UniqueID>  (32) 
31

>  <SMILES>  (32) 
COCC(=O)N(CCCCNC(=O)[N-]c1ccc(OCc2ccccc2)cc1)Cc1ccccc1

>  <Energy>  (32) 
65.31534992472467

>  <Genealogy>  (32) 
COCC(=O)N(CCCCNC(=O)[N-]c1ccc(OCc2ccccc2)cc1)Cc1ccccc1 (protonated)
COCC(=O)N(CCCCNC(=O)[N-]c1ccc(OCc2ccccc2)cc1)Cc1ccccc1 (3D coordinates assigned)
COCC(=O)N(CCCCNC(=O)[N-]c1ccc(OCc2ccccc2)cc1)Cc1ccccc1 (optimized conformer: 65.31534992472467 kcal/mol)

>  <smiles>  (32) 
COCC(=O)N(CCCCNC(=O)Nc1ccc(OCc2ccccc2)cc1)Cc1ccccc1

>  <score_type>  (32) 
oracle

>  <origin>  (32) 
adg

>  <m_score__min__energy>  (32) 
-10.51

>  <m_primary>  (32) 
energy

$$$$
32:0
     RDKit          3D

 63 66  0  0  0  0  0  0  0  0999 V2000
   63.1160   33.8440   46.2630 C   0  0  0  0  0  0  0  0  0  0  0  0
   63.9240   33.8740   47.4340 O   0  0  0  0  0  0  0  0  0  0  0  0
   63.7420   33.0360   48.5440 C   0  0  0  0  0  0  0  0  0  0  0  0
   64.8120   32.6210   49.3600 C   0  0  0  0  0  0  0  0  0  0  0  0
   64.5770   31.7870   50.4560 C   0  0  0  0  0  0  0  0  0  0  0  0
   63.2810   31.3600   50.7500 C   0  0  0  0  0  0  0  0  0  0  0  0
   62.2030   31.7600   49.9440 C   0  0  0  0  0  0  0  0  0  0  0  0
   60.7980   31.3290   50.2780 C   0  0  0  0  0  0  0  0  0  0  0  0
   59.9640   31.3020   49.0600 N   0  0  0  0  0  0  0  0  0  0  0  0
   59.9010   30.1570   48.2960 C   0  0  0  0  0  0  0  0  0  0  0  0
   60.5160   29.1060   48.6280 O   0  0  0  0  0  0  0  0  0  0  0  0
   59.1400   30.1760   47.1430 C   0  0  0  0  0  0  0  0  0  0  0  0
   58.9420   29.1950   46.2510 N   0  0  0  0  0  0  0  0  0  0  0  0
   58.1180   29.7900   45.3480 C   0  0  0  0  0  0  0  0  0  0  0  0
   57.6510   29.1050   44.1050 C   0  0  0  0  0  0  0  0  0  0  0  0
   57.5540   27.6240   44.3440 C   0  0  0  0  0  0  0  0  0  0  0  0
   57.8930   26.7190   43.3260 C   0  0  0  0  0  0  0  0  0  0  0  0
   57.7570   25.3440   43.5310 C   0  0  0  0  0  0  0  0  0  0  0  0
   57.2880   24.8500   44.7570 C   0  0  0  0  0  0  0  0  0  0  0  0
   57.1350   23.4310   44.9330 N   0  0  0  0  0  0  0  0  0  0  0  0
   56.5760   22.5550   43.9440 C   0  0  0  0  0  0  0  0  0  0  0  0
   56.6470   21.0750   44.1390 C   0  0  0  0  0  0  0  0  0  0  0  0
   55.9920   23.0190   42.9270 O   0  0  0  0  0  0  0  0  0  0  0  0
   56.9160   25.7580   45.7640 C   0  0  0  0  0  0  0  0  0  0  0  0
   57.0490   27.1340   45.5590 C   0  0  0  0  0  0  0  0  0  0  0  0
   57.8120   31.0840   45.6300 N   0  0  0  0  0  0  0  0  0  0  0  0
   58.4770   31.2900   46.7770 C   0  0  0  0  0  0  0  0  0  0  0  0
   58.5200   32.4390   47.5070 N   0  0  0  0  0  0  0  0  0  0  0  0
   57.7680   33.6340   47.0790 C   0  0  0  0  0  0  0  0  0  0  0  0
   58.5920   34.5040   46.1060 C   0  0  0  0  0  0  0  0  0  0  0  0
   58.7710   33.8180   44.7450 C   0  0  0  0  0  0  0  0  0  0  0  0
   59.9610   34.8260   46.7170 C   0  0  0  0  0  0  0  0  0  0  0  0
   59.2770   32.4390   48.6600 C   0  0  0  0  0  0  0  0  0  0  0  0
   59.3410   33.4890   49.3590 O   0  0  0  0  0  0  0  0  0  0  0  0
   62.4450   32.6000   48.8430 C   0  0  0  0  0  0  0  0  0  0  0  0
   62.0550   33.8046   46.5505 H   0  0  0  0  0  0  0  0  0  0  0  0
   63.3009   34.7496   45.6666 H   0  0  0  0  0  0  0  0  0  0  0  0
   63.3675   32.9546   45.6666 H   0  0  0  0  0  0  0  0  0  0  0  0
   65.8356   32.9543   49.1339 H   0  0  0  0  0  0  0  0  0  0  0  0
   65.4167   31.4656   51.0898 H   0  0  0  0  0  0  0  0  0  0  0  0
   63.1033   30.7070   51.6172 H   0  0  0  0  0  0  0  0  0  0  0  0
   60.8235   30.3229   50.7220 H   0  0  0  0  0  0  0  0  0  0  0  0
   60.3650   32.0462   50.9908 H   0  0  0  0  0  0  0  0  0  0  0  0
   56.6617   29.4948   43.8232 H   0  0  0  0  0  0  0  0  0  0  0  0
   58.3697   29.2952   43.2943 H   0  0  0  0  0  0  0  0  0  0  0  0
   58.2675   27.0944   42.3622 H   0  0  0  0  0  0  0  0  0  0  0  0
   58.0197   24.6433   42.7248 H   0  0  0  0  0  0  0  0  0  0  0  0
   57.3620   23.0240   45.8690 H   0  0  0  0  0  0  0  0  0  0  0  0
   56.6579   20.8471   45.2151 H   0  0  0  0  0  0  0  0  0  0  0  0
   55.7705   20.6013   43.6727 H   0  0  0  0  0  0  0  0  0  0  0  0
   57.5648   20.6873   43.6727 H   0  0  0  0  0  0  0  0  0  0  0  0
   56.5180   25.3832   46.7186 H   0  0  0  0  0  0  0  0  0  0  0  0
   56.7566   27.8365   46.3533 H   0  0  0  0  0  0  0  0  0  0  0  0
   56.8437   33.3133   46.5762 H   0  0  0  0  0  0  0  0  0  0  0  0
   57.5406   34.2359   47.9712 H   0  0  0  0  0  0  0  0  0  0  0  0
   58.0366   35.4389   45.9402 H   0  0  0  0  0  0  0  0  0  0  0  0
   59.0460   32.7641   44.8989 H   0  0  0  0  0  0  0  0  0  0  0  0
   57.8286   33.8723   44.1802 H   0  0  0  0  0  0  0  0  0  0  0  0
   59.5667   34.3258   44.1802 H   0  0  0  0  0  0  0  0  0  0  0  0
   59.8861   34.8084   47.8143 H   0  0  0  0  0  0  0  0  0  0  0  0
   60.6951   34.0760   46.3875 H   0  0  0  0  0  0  0  0  0  0  0  0
   60.2839   35.8246   46.3875 H   0  0  0  0  0  0  0  0  0  0  0  0
   61.6051   32.9189   48.2083 H   0  0  0  0  0  0  0  0  0  0  0  0
  1  2  1  0
  2  3  1  0
  3  4  2  0
  4  5  1  0
  5  6  2  0
  6  7  1  0
  7  8  1  0
  8  9  1  0
  9 10  1  0
 10 11  2  0
 10 12  1  0
 12 13  1  0
 13 14  2  0
 14 15  1  0
 15 16  1  0
 16 17  2  0
 17 18  1  0
 18 19  2  0
 19 20  1  0
 20 21  1  0
 21 22  1  0
 21 23  2  0
 19 24  1  0
 24 25  2  0
 14 26  1  0
 26 27  1  0
 27 28  1  0
 28 29  1  0
 29 30  1  0
 30 31  1  0
 30 32  1  0
 28 33  1  0
 33 34  2  0
  7 35  2  0
 35  3  1  0
 33  9  1  0
 27 12  2  0
 25 16  1  0
  1 36  1  0
  1 37  1  0
  1 38  1  0
  4 39  1  0
  5 40  1  0
  6 41  1  0
  8 42  1  0
  8 43  1  0
 15 44  1  0
 15 45  1  0
 17 46  1  0
 18 47  1  0
 20 48  1  0
 22 49  1  0
 22 50  1  0
 22 51  1  0
 24 52  1  0
 25 53  1  0
 29 54  1  0
 29 55  1  0
 30 56  1  0
 31 57  1  0
 31 58  1  0
 31 59  1  0
 32 60  1  0
 32 61  1  0
 32 62  1  0
 35 63  1  0
M  CHG  1  26  -1
M  END
>  <UniqueID>  (33) 
32

>  <SMILES>  (33) 
COc1cccc(Cn2c(=O)c3nc(Cc4ccc(NC(C)=O)cc4)[n-]c3n(CC(C)C)c2=O)c1

>  <Energy>  (33) 
101.14337648155553

>  <Genealogy>  (33) 
COc1cccc(Cn2c(=O)c3nc(Cc4ccc(NC(C)=O)cc4)[n-]c3n(CC(C)C)c2=O)c1 (protonated)
COc1cccc(Cn2c(=O)c3nc(Cc4ccc(NC(C)=O)cc4)[n-]c3n(CC(C)C)c2=O)c1 (3D coordinates assigned)
COc1cccc(Cn2c(=O)c3nc(Cc4ccc(NC(C)=O)cc4)[n-]c3n(CC(C)C)c2=O)c1 (optimized conformer: 101.14337648155553 kcal/mol)

>  <smiles>  (33) 
COc1cccc(Cn2c(=O)c3nc(Cc4ccc(NC(C)=O)cc4)[nH]c3n(CC(C)C)c2=O)c1

>  <score_type>  (33) 
oracle

>  <origin>  (33) 
adg

>  <m_score__min__energy>  (33) 
-9.8800000000000008

>  <m_primary>  (33) 
energy

$$$$
33:0
     RDKit          3D

 43 45  0  0  0  0  0  0  0  0999 V2000
   53.7520   24.8200   45.6170 C   0  0  0  0  0  0  0  0  0  0  0  0
   54.6150   25.9640   45.8860 N   0  0  0  0  0  0  0  0  0  0  0  0
   56.2280   25.4200   46.2270 S   0  0  0  0  0  0  0  0  0  0  0  0
   56.6330   24.3670   45.2320 O   0  0  0  0  0  0  0  0  0  0  0  0
   56.2620   24.8120   47.6000 O   0  0  0  0  0  0  0  0  0  0  0  0
   57.3600   26.7710   46.1640 C   0  0  0  0  0  0  0  0  0  0  0  0
   58.1900   27.0440   47.2590 C   0  0  0  0  0  0  0  0  0  0  0  0
   59.0800   28.1210   47.2120 C   0  0  0  0  0  0  0  0  0  0  0  0
   59.1320   28.9390   46.0810 C   0  0  0  0  0  0  0  0  0  0  0  0
   58.2810   28.7000   44.9960 C   0  0  0  0  0  0  0  0  0  0  0  0
   58.3590   29.5550   43.8480 N   0  0  0  0  0  0  0  0  0  0  0  0
   57.4580   30.6210   43.5200 C   0  0  0  0  0  0  0  0  0  0  0  0
   57.7730   31.4210   42.6020 O   0  0  0  0  0  0  0  0  0  0  0  0
   56.1740   30.8420   44.2750 C   0  0  0  0  0  0  0  0  0  0  0  0
   56.2780   31.9970   45.1080 O   0  0  0  0  0  0  0  0  0  0  0  0
   57.4830   32.6090   45.4900 C   0  0  0  0  0  0  0  0  0  0  0  0
   57.9060   33.8570   44.9670 C   0  0  0  0  0  0  0  0  0  0  0  0
   59.1190   34.4260   45.3830 C   0  0  0  0  0  0  0  0  0  0  0  0
   59.8980   33.7430   46.3170 C   0  0  0  0  0  0  0  0  0  0  0  0
   59.4970   32.5350   46.8250 C   0  0  0  0  0  0  0  0  0  0  0  0
   58.2940   31.9470   46.4280 C   0  0  0  0  0  0  0  0  0  0  0  0
   60.4710   31.9880   47.7970 C   0  0  0  0  0  0  0  0  0  0  0  0
   61.5890   33.0460   47.8430 C   0  0  0  0  0  0  0  0  0  0  0  0
   61.1990   34.1790   46.8730 C   0  0  0  0  0  0  0  0  0  0  0  0
   57.4140   27.5940   45.0310 C   0  0  0  0  0  0  0  0  0  0  0  0
   53.4197   24.3796   46.5686 H   0  0  0  0  0  0  0  0  0  0  0  0
   52.8756   25.1496   45.0397 H   0  0  0  0  0  0  0  0  0  0  0  0
   54.3096   24.0678   45.0397 H   0  0  0  0  0  0  0  0  0  0  0  0
   58.1414   26.4102   48.1568 H   0  0  0  0  0  0  0  0  0  0  0  0
   59.7408   28.3247   48.0675 H   0  0  0  0  0  0  0  0  0  0  0  0
   59.8455   29.7753   46.0429 H   0  0  0  0  0  0  0  0  0  0  0  0
   55.3522   30.9852   43.5580 H   0  0  0  0  0  0  0  0  0  0  0  0
   55.9762   29.9635   44.9068 H   0  0  0  0  0  0  0  0  0  0  0  0
   57.2796   34.3821   44.2309 H   0  0  0  0  0  0  0  0  0  0  0  0
   59.4501   35.3943   44.9795 H   0  0  0  0  0  0  0  0  0  0  0  0
   57.9847   30.9770   46.8446 H   0  0  0  0  0  0  0  0  0  0  0  0
   60.0080   31.8657   48.7873 H   0  0  0  0  0  0  0  0  0  0  0  0
   60.8421   30.9934   47.5090 H   0  0  0  0  0  0  0  0  0  0  0  0
   61.6874   33.4436   48.8639 H   0  0  0  0  0  0  0  0  0  0  0  0
   62.5526   32.6026   47.5516 H   0  0  0  0  0  0  0  0  0  0  0  0
   61.0948   35.1339   47.4090 H   0  0  0  0  0  0  0  0  0  0  0  0
   61.9567   34.3486   46.0939 H   0  0  0  0  0  0  0  0  0  0  0  0
   56.7742   27.3732   44.1639 H   0  0  0  0  0  0  0  0  0  0  0  0
  1  2  1  0
  2  3  1  0
  3  4  2  0
  3  5  2  0
  3  6  1  0
  6  7  2  0
  7  8  1  0
  8  9  2  0
  9 10  1  0
 10 11  1  0
 11 12  1  0
 12 13  2  0
 12 14  1  0
 14 15  1  0
 15 16  1  0
 16 17  2  0
 17 18  1  0
 18 19  2  0
 19 20  1  0
 20 21  2  0
 20 22  1  0
 22 23  1  0
 23 24  1  0
 10 25  2  0
 25  6  1  0
 21 16  1  0
 24 19  1  0
  1 26  1  0
  1 27  1  0
  1 28  1  0
  7 29  1  0
  8 30  1  0
  9 31  1  0
 14 32  1  0
 14 33  1  0
 17 34  1  0
 18 35  1  0
 21 36  1  0
 22 37  1  0
 22 38  1  0
 23 39  1  0
 23 40  1  0
 24 41  1  0
 24 42  1  0
 25 43  1  0
M  CHG  2   2  -1  11  -1
M  END
>  <UniqueID>  (34) 
33

>  <SMILES>  (34) 
C[N-]S(=O)(=O)c1cccc([N-]C(=O)COc2ccc3c(c2)CCC3)c1

>  <Energy>  (34) 
52.88132390037002

>  <Genealogy>  (34) 
C[N-]S(=O)(=O)c1cccc([N-]C(=O)COc2ccc3c(c2)CCC3)c1 (protonated)
C[N-]S(=O)(=O)c1cccc([N-]C(=O)COc2ccc3c(c2)CCC3)c1 (3D coordinates assigned)
C[N-]S(=O)(=O)c1cccc([N-]C(=O)COc2ccc3c(c2)CCC3)c1 (nonaromatic ring conformer: 52.88132390037002 kcal/mol)

>  <smiles>  (34) 
CNS(=O)(=O)c1cccc(NC(=O)COc2ccc3c(c2)CCC3)c1

>  <score_type>  (34) 
oracle

>  <origin>  (34) 
adg

>  <m_score__min__energy>  (34) 
-11.720000000000001

>  <m_primary>  (34) 
energy

$$$$
34:0
     RDKit          3D

 54 57  0  0  0  0  0  0  0  0999 V2000
   55.2770   24.2010   46.2140 O   0  0  0  0  0  0  0  0  0  0  0  0
   55.5020   25.4380   46.1520 C   0  0  0  0  0  0  0  0  0  0  0  0
   54.4350   26.3140   45.9690 O   0  0  0  0  0  0  0  0  0  0  0  0
   56.8820   25.9560   46.2560 C   0  0  0  0  0  0  0  0  0  0  0  0
   57.9550   25.0730   46.4540 C   0  0  0  0  0  0  0  0  0  0  0  0
   59.2580   25.5600   46.5640 C   0  0  0  0  0  0  0  0  0  0  0  0
   59.5040   26.9350   46.5060 C   0  0  0  0  0  0  0  0  0  0  0  0
   58.4390   27.8330   46.3220 C   0  0  0  0  0  0  0  0  0  0  0  0
   58.6390   29.2510   46.3100 N   0  0  0  0  0  0  0  0  0  0  0  0
   57.9990   30.3400   45.1240 S   0  0  0  0  0  0  0  0  0  0  0  0
   56.5000   30.2480   45.1310 O   0  0  0  0  0  0  0  0  0  0  0  0
   58.5110   29.9880   43.7580 O   0  0  0  0  0  0  0  0  0  0  0  0
   58.5210   31.9810   45.5100 C   0  0  0  0  0  0  0  0  0  0  0  0
   58.9520   32.2800   46.8120 C   0  0  0  0  0  0  0  0  0  0  0  0
   59.3450   33.5840   47.1530 C   0  0  0  0  0  0  0  0  0  0  0  0
   59.8280   33.9000   48.5170 C   0  0  0  0  0  0  0  0  0  0  0  0
   60.4590   34.9660   48.7130 O   0  0  0  0  0  0  0  0  0  0  0  0
   59.5560   33.0460   49.6400 N   0  0  0  0  0  0  0  0  0  0  0  0
   59.6990   31.6190   49.6970 C   0  0  0  0  0  0  0  0  0  0  0  0
   58.6340   30.7940   50.1010 C   0  0  0  0  0  0  0  0  0  0  0  0
   58.7760   29.4060   50.1070 C   0  0  0  0  0  0  0  0  0  0  0  0
   59.9730   28.8260   49.6920 C   0  0  0  0  0  0  0  0  0  0  0  0
   61.0280   29.6330   49.2610 C   0  0  0  0  0  0  0  0  0  0  0  0
   60.8990   31.0300   49.2570 C   0  0  0  0  0  0  0  0  0  0  0  0
   61.9850   31.8490   48.8000 N   0  0  0  0  0  0  0  0  0  0  0  0
   62.7380   32.6510   49.7650 C   0  0  0  0  0  0  0  0  0  0  0  0
   63.3560   33.8560   49.0520 C   0  0  0  0  0  0  0  0  0  0  0  0
   64.1040   33.4380   47.9260 O   0  0  0  0  0  0  0  0  0  0  0  0
   63.2470   32.8610   46.9610 C   0  0  0  0  0  0  0  0  0  0  0  0
   62.6060   31.5790   47.5020 C   0  0  0  0  0  0  0  0  0  0  0  0
   59.2700   34.5990   46.1910 C   0  0  0  0  0  0  0  0  0  0  0  0
   58.8450   34.3090   44.8950 C   0  0  0  0  0  0  0  0  0  0  0  0
   58.4710   33.0080   44.5480 C   0  0  0  0  0  0  0  0  0  0  0  0
   57.9320   32.7100   42.9060 Cl  0  0  0  0  0  0  0  0  0  0  0  0
   57.1390   27.3370   46.1740 C   0  0  0  0  0  0  0  0  0  0  0  0
   57.7677   23.9913   46.5228 H   0  0  0  0  0  0  0  0  0  0  0  0
   60.0952   24.8590   46.6969 H   0  0  0  0  0  0  0  0  0  0  0  0
   60.5319   27.3141   46.6045 H   0  0  0  0  0  0  0  0  0  0  0  0
   58.9821   31.4854   47.5721 H   0  0  0  0  0  0  0  0  0  0  0  0
   57.6817   31.2465   50.4147 H   0  0  0  0  0  0  0  0  0  0  0  0
   57.9428   28.7695   50.4394 H   0  0  0  0  0  0  0  0  0  0  0  0
   60.0870   27.7320   49.7039 H   0  0  0  0  0  0  0  0  0  0  0  0
   61.9667   29.1702   48.9223 H   0  0  0  0  0  0  0  0  0  0  0  0
   62.0614   33.0013   50.5584 H   0  0  0  0  0  0  0  0  0  0  0  0
   63.5360   32.0378   50.2092 H   0  0  0  0  0  0  0  0  0  0  0  0
   62.5532   34.5319   48.7222 H   0  0  0  0  0  0  0  0  0  0  0  0
   64.0276   34.3759   49.7510 H   0  0  0  0  0  0  0  0  0  0  0  0
   62.4551   33.5804   46.7054 H   0  0  0  0  0  0  0  0  0  0  0  0
   63.8385   32.6105   46.0680 H   0  0  0  0  0  0  0  0  0  0  0  0
   61.8395   31.2270   46.7959 H   0  0  0  0  0  0  0  0  0  0  0  0
   63.3799   30.8065   47.6215 H   0  0  0  0  0  0  0  0  0  0  0  0
   59.5475   35.6292   46.4589 H   0  0  0  0  0  0  0  0  0  0  0  0
   58.8039   35.1091   44.1412 H   0  0  0  0  0  0  0  0  0  0  0  0
   56.3084   28.0347   45.9915 H   0  0  0  0  0  0  0  0  0  0  0  0
  1  2  2  0
  2  3  1  0
  2  4  1  0
  4  5  2  0
  5  6  1  0
  6  7  2  0
  7  8  1  0
  8  9  1  0
  9 10  1  0
 10 11  2  0
 10 12  2  0
 10 13  1  0
 13 14  2  0
 14 15  1  0
 15 16  1  0
 16 17  2  0
 16 18  1  0
 18 19  1  0
 19 20  2  0
 20 21  1  0
 21 22  2  0
 22 23  1  0
 23 24  2  0
 24 25  1  0
 25 26  1  0
 26 27  1  0
 27 28  1  0
 28 29  1  0
 29 30  1  0
 15 31  2  0
 31 32  1  0
 32 33  2  0
 33 34  1  0
  8 35  2  0
 35  4  1  0
 33 13  1  0
 24 19  1  0
 30 25  1  0
  5 36  1  0
  6 37  1  0
  7 38  1  0
 14 39  1  0
 20 40  1  0
 21 41  1  0
 22 42  1  0
 23 43  1  0
 26 44  1  0
 26 45  1  0
 27 46  1  0
 27 47  1  0
 29 48  1  0
 29 49  1  0
 30 50  1  0
 30 51  1  0
 31 52  1  0
 32 53  1  0
 35 54  1  0
M  CHG  3   3  -1   9  -1  18  -1
M  END
>  <UniqueID>  (35) 
34

>  <SMILES>  (35) 
O=C([O-])c1cccc([N-]S(=O)(=O)c2cc(C(=O)[N-]c3ccccc3N3CCOCC3)ccc2Cl)c1

>  <Energy>  (35) 
76.59536622727896

>  <Genealogy>  (35) 
O=C([O-])c1cccc([N-]S(=O)(=O)c2cc(C(=O)[N-]c3ccccc3N3CCOCC3)ccc2Cl)c1 (protonated)
O=C([O-])c1cccc([N-]S(=O)(=O)c2cc(C(=O)[N-]c3ccccc3N3CCOCC3)ccc2Cl)c1 (3D coordinates assigned)
O=C([O-])c1cccc([N-]S(=O)(=O)c2cc(C(=O)[N-]c3ccccc3N3CCOCC3)ccc2Cl)c1 (nonaromatic ring conformer: 76.59536622727896 kcal/mol)

>  <smiles>  (35) 
O=C(O)c1cccc(NS(=O)(=O)c2cc(C(=O)Nc3ccccc3N3CCOCC3)ccc2Cl)c1

>  <score_type>  (35) 
oracle

>  <origin>  (35) 
adg

>  <m_score__min__energy>  (35) 
-16.260000000000002

>  <m_primary>  (35) 
energy

$$$$
35:0
     RDKit          3D

 45 48  0  0  0  0  0  0  0  0999 V2000
   57.3570   34.4910   45.7980 O   0  0  0  0  0  0  0  0  0  0  0  0
   58.2760   33.6810   46.1000 C   0  0  0  0  0  0  0  0  0  0  0  0
   58.7970   32.8250   45.0720 N   0  0  0  0  0  0  0  0  0  0  0  0
   58.0610   31.8600   44.3100 C   0  0  0  0  0  0  0  0  0  0  0  0
   57.7780   32.1160   42.9540 C   0  0  0  0  0  0  0  0  0  0  0  0
   56.9990   31.2310   42.2090 C   0  0  0  0  0  0  0  0  0  0  0  0
   56.4920   30.0780   42.8030 C   0  0  0  0  0  0  0  0  0  0  0  0
   56.7650   29.8070   44.1450 C   0  0  0  0  0  0  0  0  0  0  0  0
   57.5420   30.6820   44.9170 C   0  0  0  0  0  0  0  0  0  0  0  0
   57.7580   30.3040   46.2590 O   0  0  0  0  0  0  0  0  0  0  0  0
   58.7570   29.4200   46.7740 C   0  0  0  0  0  0  0  0  0  0  0  0
   59.9460   30.1720   47.3180 C   0  0  0  0  0  0  0  0  0  0  0  0
   60.5360   29.7550   48.5120 C   0  0  0  0  0  0  0  0  0  0  0  0
   61.6080   30.4780   49.0310 C   0  0  0  0  0  0  0  0  0  0  0  0
   62.1180   30.1050   50.1240 O   0  0  0  0  0  0  0  0  0  0  0  0
   62.0880   31.5770   48.3650 N   0  0  0  0  0  0  0  0  0  0  0  0
   63.1160   32.3170   48.8910 C   0  0  0  0  0  0  0  0  0  0  0  0
   63.5950   33.4480   48.2280 C   0  0  0  0  0  0  0  0  0  0  0  0
   63.0270   33.8270   47.0150 C   0  0  0  0  0  0  0  0  0  0  0  0
   61.9890   33.0750   46.4750 C   0  0  0  0  0  0  0  0  0  0  0  0
   61.5170   31.9450   47.1630 C   0  0  0  0  0  0  0  0  0  0  0  0
   60.4730   31.2330   46.6480 N   0  0  0  0  0  0  0  0  0  0  0  0
   58.7200   33.5840   47.5120 C   0  0  0  0  0  0  0  0  0  0  0  0
   58.2040   32.5920   48.3710 C   0  0  0  0  0  0  0  0  0  0  0  0
   58.5790   32.5500   49.7170 C   0  0  0  0  0  0  0  0  0  0  0  0
   59.4890   33.4850   50.2190 C   0  0  0  0  0  0  0  0  0  0  0  0
   60.0120   34.4720   49.3750 C   0  0  0  0  0  0  0  0  0  0  0  0
   59.6160   34.5340   48.0330 C   0  0  0  0  0  0  0  0  0  0  0  0
   58.1759   33.0241   42.4774 H   0  0  0  0  0  0  0  0  0  0  0  0
   56.7849   31.4439   41.1513 H   0  0  0  0  0  0  0  0  0  0  0  0
   55.8767   29.3811   42.2150 H   0  0  0  0  0  0  0  0  0  0  0  0
   56.3637   28.8916   44.6044 H   0  0  0  0  0  0  0  0  0  0  0  0
   58.3166   28.8179   47.5824 H   0  0  0  0  0  0  0  0  0  0  0  0
   59.1055   28.7813   45.9490 H   0  0  0  0  0  0  0  0  0  0  0  0
   60.1589   28.8653   49.0376 H   0  0  0  0  0  0  0  0  0  0  0  0
   63.5686   32.0155   49.8472 H   0  0  0  0  0  0  0  0  0  0  0  0
   64.4169   34.0366   48.6617 H   0  0  0  0  0  0  0  0  0  0  0  0
   63.3975   34.7174   46.4858 H   0  0  0  0  0  0  0  0  0  0  0  0
   61.5397   33.3639   45.5134 H   0  0  0  0  0  0  0  0  0  0  0  0
   60.0520   31.5230   45.7360 H   0  0  0  0  0  0  0  0  0  0  0  0
   57.4996   31.8440   47.9782 H   0  0  0  0  0  0  0  0  0  0  0  0
   58.1579   31.7810   50.3814 H   0  0  0  0  0  0  0  0  0  0  0  0
   59.7936   33.4453   51.2753 H   0  0  0  0  0  0  0  0  0  0  0  0
   60.7363   35.2012   49.7671 H   0  0  0  0  0  0  0  0  0  0  0  0
   60.0081   35.3302   47.3831 H   0  0  0  0  0  0  0  0  0  0  0  0
  1  2  2  0
  2  3  1  0
  3  4  1  0
  4  5  2  0
  5  6  1  0
  6  7  2  0
  7  8  1  0
  8  9  2  0
  9 10  1  0
 10 11  1  0
 11 12  1  0
 12 13  2  0
 13 14  1  0
 14 15  2  0
 14 16  1  0
 16 17  1  0
 17 18  2  0
 18 19  1  0
 19 20  2  0
 20 21  1  0
 21 22  2  0
  2 23  1  0
 23 24  2  0
 24 25  1  0
 25 26  2  0
 26 27  1  0
 27 28  2  0
  9  4  1  0
 22 12  1  0
 28 23  1  0
 21 16  1  0
  5 29  1  0
  6 30  1  0
  7 31  1  0
  8 32  1  0
 11 33  1  0
 11 34  1  0
 13 35  1  0
 17 36  1  0
 18 37  1  0
 19 38  1  0
 20 39  1  0
 22 40  1  0
 24 41  1  0
 25 42  1  0
 26 43  1  0
 27 44  1  0
 28 45  1  0
M  CHG  2   3  -1  22   1
M  END
>  <UniqueID>  (36) 
35

>  <SMILES>  (36) 
O=C([N-]c1ccccc1OCc1cc(=O)n2ccccc2[nH+]1)c1ccccc1

>  <Energy>  (36) 
62.908629183490625

>  <Genealogy>  (36) 
O=C([N-]c1ccccc1OCc1cc(=O)n2ccccc2[nH+]1)c1ccccc1 (protonated)
O=C([N-]c1ccccc1OCc1cc(=O)n2ccccc2[nH+]1)c1ccccc1 (3D coordinates assigned)
O=C([N-]c1ccccc1OCc1cc(=O)n2ccccc2[nH+]1)c1ccccc1 (optimized conformer: 62.908629183490625 kcal/mol)

>  <smiles>  (36) 
O=C(Nc1ccccc1OCc1cc(=O)n2ccccc2n1)c1ccccc1

>  <score_type>  (36) 
oracle

>  <origin>  (36) 
adg

>  <m_score__min__energy>  (36) 
-10.289999999999999

>  <m_primary>  (36) 
energy

$$$$
36:0
     RDKit          3D

 57 60  0  0  0  0  0  0  0  0999 V2000
   55.9860   24.3050   44.6790 C   0  0  0  0  0  0  0  0  0  0  0  0
   56.0280   25.4670   46.0260 S   0  0  0  0  0  0  0  0  0  0  0  0
   54.8030   26.3360   45.9770 O   0  0  0  0  0  0  0  0  0  0  0  0
   56.0410   24.7240   47.3320 O   0  0  0  0  0  0  0  0  0  0  0  0
   57.4720   26.4630   45.8910 C   0  0  0  0  0  0  0  0  0  0  0  0
   58.2770   26.6930   47.0160 C   0  0  0  0  0  0  0  0  0  0  0  0
   59.4320   27.4730   46.9070 C   0  0  0  0  0  0  0  0  0  0  0  0
   59.7930   28.0350   45.6730 C   0  0  0  0  0  0  0  0  0  0  0  0
   61.0410   28.8640   45.5420 C   0  0  0  0  0  0  0  0  0  0  0  0
   60.7900   30.2110   45.9470 O   0  0  0  0  0  0  0  0  0  0  0  0
   60.3510   30.6080   47.2210 C   0  0  0  0  0  0  0  0  0  0  0  0
   61.1650   30.4560   48.3640 C   0  0  0  0  0  0  0  0  0  0  0  0
   60.6980   30.8260   49.6260 C   0  0  0  0  0  0  0  0  0  0  0  0
   59.4150   31.3480   49.7690 C   0  0  0  0  0  0  0  0  0  0  0  0
   58.5980   31.5080   48.6510 C   0  0  0  0  0  0  0  0  0  0  0  0
   59.0550   31.1570   47.3690 C   0  0  0  0  0  0  0  0  0  0  0  0
   58.1620   31.3190   46.2500 N   0  0  0  0  0  0  0  0  0  0  0  0
   57.6340   30.2880   45.6060 N   0  0  0  0  0  0  0  0  0  0  0  0
   56.7430   30.7620   44.7120 C   0  0  0  0  0  0  0  0  0  0  0  0
   55.9700   29.8950   43.8050 C   0  0  0  0  0  0  0  0  0  0  0  0
   56.4590   29.5490   42.5080 N   0  0  0  0  0  0  0  0  0  0  0  0
   54.8540   29.4490   44.1820 O   0  0  0  0  0  0  0  0  0  0  0  0
   56.6760   32.1420   44.7980 C   0  0  0  0  0  0  0  0  0  0  0  0
   57.5900   32.4540   45.7910 C   0  0  0  0  0  0  0  0  0  0  0  0
   57.8800   33.6460   46.2230 N   0  0  0  0  0  0  0  0  0  0  0  0
   59.1690   34.2640   46.1090 C   0  0  0  0  0  0  0  0  0  0  0  0
   59.6390   34.5370   44.9730 O   0  0  0  0  0  0  0  0  0  0  0  0
   59.8890   34.6580   47.2790 N   0  0  0  0  0  0  0  0  0  0  0  0
   61.1650   34.1290   47.6660 C   0  0  0  0  0  0  0  0  0  0  0  0
   62.0630   33.6050   46.7160 C   0  0  0  0  0  0  0  0  0  0  0  0
   63.3210   33.1420   47.1170 C   0  0  0  0  0  0  0  0  0  0  0  0
   63.6920   33.2020   48.4640 C   0  0  0  0  0  0  0  0  0  0  0  0
   62.8110   33.7380   49.4080 C   0  0  0  0  0  0  0  0  0  0  0  0
   61.5560   34.2080   49.0080 C   0  0  0  0  0  0  0  0  0  0  0  0
   58.9940   27.7890   44.5440 C   0  0  0  0  0  0  0  0  0  0  0  0
   57.8400   27.0080   44.6540 C   0  0  0  0  0  0  0  0  0  0  0  0
   55.9490   23.2810   45.0791 H   0  0  0  0  0  0  0  0  0  0  0  0
   55.0940   24.4903   44.0626 H   0  0  0  0  0  0  0  0  0  0  0  0
   56.8891   24.4254   44.0626 H   0  0  0  0  0  0  0  0  0  0  0  0
   57.9987   26.2583   47.9874 H   0  0  0  0  0  0  0  0  0  0  0  0
   60.0607   27.6470   47.7927 H   0  0  0  0  0  0  0  0  0  0  0  0
   61.8292   28.4353   46.1784 H   0  0  0  0  0  0  0  0  0  0  0  0
   61.3614   28.8620   44.4897 H   0  0  0  0  0  0  0  0  0  0  0  0
   62.1785   30.0414   48.2589 H   0  0  0  0  0  0  0  0  0  0  0  0
   61.3438   30.7052   50.5083 H   0  0  0  0  0  0  0  0  0  0  0  0
   59.0460   31.6343   50.7649 H   0  0  0  0  0  0  0  0  0  0  0  0
   57.5830   31.9140   48.7736 H   0  0  0  0  0  0  0  0  0  0  0  0
   55.8930   28.9290   41.8860 H   0  0  0  0  0  0  0  0  0  0  0  0
   57.3760   29.8980   42.1540 H   0  0  0  0  0  0  0  0  0  0  0  0
   56.0453   32.8292   44.2149 H   0  0  0  0  0  0  0  0  0  0  0  0
   61.7745   33.5596   45.6555 H   0  0  0  0  0  0  0  0  0  0  0  0
   64.0184   32.7306   46.3724 H   0  0  0  0  0  0  0  0  0  0  0  0
   64.6767   32.8276   48.7807 H   0  0  0  0  0  0  0  0  0  0  0  0
   63.1053   33.7901   50.4666 H   0  0  0  0  0  0  0  0  0  0  0  0
   60.8721   34.6423   49.7521 H   0  0  0  0  0  0  0  0  0  0  0  0
   59.2777   28.2128   43.5694 H   0  0  0  0  0  0  0  0  0  0  0  0
   57.2185   26.8206   43.7660 H   0  0  0  0  0  0  0  0  0  0  0  0
  1  2  1  0
  2  3  2  0
  2  4  2  0
  2  5  1  0
  5  6  2  0
  6  7  1  0
  7  8  2  0
  8  9  1  0
  9 10  1  0
 10 11  1  0
 11 12  2  0
 12 13  1  0
 13 14  2  0
 14 15  1  0
 15 16  2  0
 16 17  1  0
 17 18  1  0
 18 19  1  0
 19 20  1  0
 20 21  1  0
 20 22  2  0
 19 23  2  0
 23 24  1  0
 24 25  2  3
 25 26  1  0
 26 27  2  0
 26 28  1  0
 28 29  1  0
 29 30  2  0
 30 31  1  0
 31 32  2  0
 32 33  1  0
 33 34  2  0
  8 35  1  0
 35 36  2  0
 36  5  1  0
 16 11  1  0
 24 17  1  0
 34 29  1  0
  1 37  1  0
  1 38  1  0
  1 39  1  0
  6 40  1  0
  7 41  1  0
  9 42  1  0
  9 43  1  0
 12 44  1  0
 13 45  1  0
 14 46  1  0
 15 47  1  0
 21 48  1  0
 21 49  1  0
 23 50  1  0
 30 51  1  0
 31 52  1  0
 32 53  1  0
 33 54  1  0
 34 55  1  0
 35 56  1  0
 36 57  1  0
M  CHG  2  18  -1  28  -1
M  END
>  <UniqueID>  (37) 
36

>  <SMILES>  (37) 
CS(=O)(=O)c1ccc(COc2ccccc2-n2[n-]c(C(N)=O)cc2=NC(=O)[N-]c2ccccc2)cc1

>  <Energy>  (37) 
101.73741470508195

>  <Genealogy>  (37) 
CS(=O)(=O)c1ccc(COc2ccccc2-n2[n-]c(C(N)=O)cc2=NC(=O)[N-]c2ccccc2)cc1 (protonated)
CS(=O)(=O)c1ccc(COc2ccccc2-n2[n-]c(C(N)=O)cc2=NC(=O)[N-]c2ccccc2)cc1 (3D coordinates assigned)
CS(=O)(=O)c1ccc(COc2ccccc2-n2[n-]c(C(N)=O)cc2=NC(=O)[N-]c2ccccc2)cc1 (optimized conformer: 101.73741470508195 kcal/mol)

>  <smiles>  (37) 
CS(=O)(=O)c1ccc(COc2ccccc2-n2[nH]c(C(N)=O)cc2=NC(=O)Nc2ccccc2)cc1

>  <score_type>  (37) 
oracle

>  <origin>  (37) 
adg

>  <m_score__min__energy>  (37) 
-13.029999999999999

>  <m_primary>  (37) 
energy

$$$$
37:0
     RDKit          3D

 40 42  0  0  0  0  0  0  0  0999 V2000
   59.7500   32.5940   50.4850 C   0  0  0  0  0  0  0  0  0  0  0  0
   60.0590   33.0860   49.1080 C   0  0  0  0  0  0  0  0  0  0  0  0
   59.2020   33.7920   48.2690 C   0  0  0  0  0  0  0  0  0  0  0  0
   59.8500   34.1470   47.1330 N   0  0  0  0  0  0  0  0  0  0  0  0
   59.3010   34.9600   46.0500 C   0  0  0  0  0  0  0  0  0  0  0  0
   58.8190   34.0880   44.9750 C   0  0  0  0  0  0  0  0  0  0  0  0
   58.4310   33.3360   44.1190 C   0  0  0  0  0  0  0  0  0  0  0  0
   57.9910   32.3870   43.0880 C   0  0  0  0  0  0  0  0  0  0  0  0
   57.9740   31.0080   43.6220 N   0  0  0  0  0  0  0  0  0  0  0  0
   57.9680   30.9970   45.1060 C   0  0  0  0  0  0  0  0  0  0  0  0
   57.3790   29.6840   45.6480 C   0  0  0  0  0  0  0  0  0  0  0  0
   56.0320   29.4570   45.2540 O   0  0  0  0  0  0  0  0  0  0  0  0
   55.6810   30.0840   44.0280 C   0  0  0  0  0  0  0  0  0  0  0  0
   56.8590   30.2180   43.0460 C   0  0  0  0  0  0  0  0  0  0  0  0
   61.1160   33.6920   47.2590 C   0  0  0  0  0  0  0  0  0  0  0  0
   62.1830   33.8560   46.3710 C   0  0  0  0  0  0  0  0  0  0  0  0
   63.4350   33.3310   46.7400 C   0  0  0  0  0  0  0  0  0  0  0  0
   63.5960   32.6640   47.9740 C   0  0  0  0  0  0  0  0  0  0  0  0
   62.5080   32.5170   48.8520 C   0  0  0  0  0  0  0  0  0  0  0  0
   61.2770   33.0430   48.4590 C   0  0  0  0  0  0  0  0  0  0  0  0
   60.1824   33.2825   51.2260 H   0  0  0  0  0  0  0  0  0  0  0  0
   58.6595   32.5464   50.6213 H   0  0  0  0  0  0  0  0  0  0  0  0
   60.1807   31.5910   50.6213 H   0  0  0  0  0  0  0  0  0  0  0  0
   58.1516   34.0276   48.4951 H   0  0  0  0  0  0  0  0  0  0  0  0
   58.4656   35.5642   46.4334 H   0  0  0  0  0  0  0  0  0  0  0  0
   60.0860   35.6232   45.6576 H   0  0  0  0  0  0  0  0  0  0  0  0
   56.9781   32.6584   42.7557 H   0  0  0  0  0  0  0  0  0  0  0  0
   58.6937   32.4310   42.2429 H   0  0  0  0  0  0  0  0  0  0  0  0
   59.0004   31.1049   45.4702 H   0  0  0  0  0  0  0  0  0  0  0  0
   57.3441   31.8314   45.4588 H   0  0  0  0  0  0  0  0  0  0  0  0
   57.9939   28.8494   45.2801 H   0  0  0  0  0  0  0  0  0  0  0  0
   57.3852   29.7575   46.7455 H   0  0  0  0  0  0  0  0  0  0  0  0
   54.8921   29.4881   43.5458 H   0  0  0  0  0  0  0  0  0  0  0  0
   55.3454   31.1030   44.2708 H   0  0  0  0  0  0  0  0  0  0  0  0
   57.2284   29.2128   42.7949 H   0  0  0  0  0  0  0  0  0  0  0  0
   56.4970   30.7436   42.1501 H   0  0  0  0  0  0  0  0  0  0  0  0
   62.0479   34.3795   45.4130 H   0  0  0  0  0  0  0  0  0  0  0  0
   64.2945   33.4409   46.0624 H   0  0  0  0  0  0  0  0  0  0  0  0
   64.5797   32.2565   48.2503 H   0  0  0  0  0  0  0  0  0  0  0  0
   62.6235   32.0037   49.8180 H   0  0  0  0  0  0  0  0  0  0  0  0
  1  2  1  0
  2  3  2  0
  3  4  1  0
  4  5  1  0
  5  6  1  0
  6  7  3  0
  7  8  1  0
  8  9  1  0
  9 10  1  0
 10 11  1  0
 11 12  1  0
 12 13  1  0
 13 14  1  0
  4 15  1  0
 15 16  2  0
 16 17  1  0
 17 18  2  0
 18 19  1  0
 19 20  2  0
 20  2  1  0
 14  9  1  0
 20 15  1  0
  1 21  1  0
  1 22  1  0
  1 23  1  0
  3 24  1  0
  5 25  1  0
  5 26  1  0
  8 27  1  0
  8 28  1  0
 10 29  1  0
 10 30  1  0
 11 31  1  0
 11 32  1  0
 13 33  1  0
 13 34  1  0
 14 35  1  0
 14 36  1  0
 16 37  1  0
 17 38  1  0
 18 39  1  0
 19 40  1  0
M  END
>  <UniqueID>  (38) 
37

>  <SMILES>  (38) 
Cc1cn(CC#CCN2CCOCC2)c2ccccc12

>  <Energy>  (38) 
81.6736330819942

>  <Genealogy>  (38) 
Cc1cn(CC#CCN2CCOCC2)c2ccccc12 (3D coordinates assigned)
Cc1cn(CC#CCN2CCOCC2)c2ccccc12 (nonaromatic ring conformer: 81.6736330819942 kcal/mol)

>  <smiles>  (38) 
Cc1cn(CC#CCN2CCOCC2)c2ccccc12

>  <score_type>  (38) 
oracle

>  <origin>  (38) 
adg

>  <m_score__min__energy>  (38) 
-7.3700000000000001

>  <m_primary>  (38) 
energy

$$$$
38:0
     RDKit          3D

 43 46  0  0  0  0  0  0  0  0999 V2000
   51.4790   31.9732   53.9261 H   0  0  0  0  0  0  0  0  0  0  0  0
   51.5190   31.9560   52.8270 C   0  0  0  0  0  0  0  0  0  0  0  0
   50.6740   32.6060   52.0050 N   0  0  0  0  0  0  0  0  0  0  0  0
   51.0180   32.3430   50.7530 N   0  0  0  0  0  0  0  0  0  0  0  0
   52.0880   31.5250   50.7630 C   0  0  0  0  0  0  0  0  0  0  0  0
   52.5969   31.1282   49.8722 H   0  0  0  0  0  0  0  0  0  0  0  0
   52.4430   31.2650   52.0710 C   0  0  0  0  0  0  0  0  0  0  0  0
   53.5130   30.3690   52.5710 C   0  0  0  0  0  0  0  0  0  0  0  0
   54.8150   30.8880   52.6910 C   0  0  0  0  0  0  0  0  0  0  0  0
   55.0105   31.9298   52.3969 H   0  0  0  0  0  0  0  0  0  0  0  0
   55.8640   30.1040   53.1770 C   0  0  0  0  0  0  0  0  0  0  0  0
   57.1370   30.6790   53.2950 O   0  0  0  0  0  0  0  0  0  0  0  0
   57.7980   31.3920   52.2860 C   0  0  0  0  0  0  0  0  0  0  0  0
   57.8160   30.8620   50.9900 C   0  0  0  0  0  0  0  0  0  0  0  0
   57.3141   29.9050   50.7844 H   0  0  0  0  0  0  0  0  0  0  0  0
   58.4670   31.5400   49.9560 C   0  0  0  0  0  0  0  0  0  0  0  0
   58.4682   31.1192   48.9397 H   0  0  0  0  0  0  0  0  0  0  0  0
   59.1180   32.7540   50.2100 C   0  0  0  0  0  0  0  0  0  0  0  0
   59.9510   33.6040   48.9130 S   0  0  0  0  0  0  0  0  0  0  0  0
   60.9260   34.5780   49.5120 O   0  0  0  0  0  0  0  0  0  0  0  0
   60.6810   32.6140   48.0500 O   0  0  0  0  0  0  0  0  0  0  0  0
   58.7860   34.4510   47.9450 N   0  0  0  0  0  0  0  0  0  0  0  0
   58.4390   34.0980   46.7450 C   0  0  0  0  0  0  0  0  0  0  0  0
   59.4680   33.9380   45.4190 S   0  0  0  0  0  0  0  0  0  0  0  0
   58.2240   33.4800   44.3790 C   0  0  0  0  0  0  0  0  0  0  0  0
   58.3320   33.2359   43.3119 H   0  0  0  0  0  0  0  0  0  0  0  0
   57.0360   33.4640   45.1040 C   0  0  0  0  0  0  0  0  0  0  0  0
   56.0695   33.1942   44.6533 H   0  0  0  0  0  0  0  0  0  0  0  0
   57.1640   33.8080   46.4130 N   0  0  0  0  0  0  0  0  0  0  0  0
   56.3610   33.8420   47.0810 H   0  0  0  0  0  0  0  0  0  0  0  0
   59.1320   33.2720   51.5110 C   0  0  0  0  0  0  0  0  0  0  0  0
   59.6578   34.2156   51.7185 H   0  0  0  0  0  0  0  0  0  0  0  0
   58.4810   32.5960   52.5480 C   0  0  0  0  0  0  0  0  0  0  0  0
   58.5560   33.0910   53.8080 F   0  0  0  0  0  0  0  0  0  0  0  0
   55.6060   28.7840   53.5770 C   0  0  0  0  0  0  0  0  0  0  0  0
   56.4178   28.1702   53.9944 H   0  0  0  0  0  0  0  0  0  0  0  0
   54.3250   28.2460   53.4480 C   0  0  0  0  0  0  0  0  0  0  0  0
   54.1370   27.2081   53.7602 H   0  0  0  0  0  0  0  0  0  0  0  0
   53.2730   29.0150   52.9240 C   0  0  0  0  0  0  0  0  0  0  0  0
   51.9240   28.3670   52.7620 C   0  0  0  0  0  0  0  0  0  0  0  0
   51.4948   28.1608   53.7536 H   0  0  0  0  0  0  0  0  0  0  0  0
   51.2568   29.0429   52.2070 H   0  0  0  0  0  0  0  0  0  0  0  0
   52.0346   27.4237   52.2070 H   0  0  0  0  0  0  0  0  0  0  0  0
  1  2  1  0
  2  3  2  0
  3  4  1  0
  4  5  1  0
  5  6  1  0
  5  7  2  0
  7  8  1  0
  8  9  2  0
  9 10  1  0
  9 11  1  0
 11 12  1  0
 12 13  1  0
 13 14  2  0
 14 15  1  0
 14 16  1  0
 16 17  1  0
 16 18  2  0
 18 19  1  0
 19 20  2  0
 19 21  2  0
 19 22  1  0
 22 23  2  0
 23 24  1  0
 24 25  1  0
 25 26  1  0
 25 27  2  0
 27 28  1  0
 27 29  1  0
 29 30  1  0
 18 31  1  0
 31 32  1  0
 31 33  2  0
 33 34  1  0
 11 35  2  0
 35 36  1  0
 35 37  1  0
 37 38  1  0
 37 39  2  0
 39 40  1  0
 40 41  1  0
 40 42  1  0
 40 43  1  0
  7  2  1  0
 39  8  1  0
 33 13  1  0
 29 23  1  0
M  CHG  1   4  -1
M  END
>  <UniqueID>  (39) 
38

>  <SMILES>  (39) 
Cc1ccc(Oc2ccc(S(=O)(=O)/N=c3/[nH]ccs3)cc2F)cc1-c1cn[n-]c1

>  <Energy>  (39) 
124.60315057742744

>  <Genealogy>  (39) 
Cc1ccc(Oc2ccc(S(=O)(=O)N=c3[nH]ccs3)cc2F)cc1-c1cn[n-]c1 (protonated)
Cc1ccc(Oc2ccc(S(=O)(=O)/N=c3/[nH]ccs3)cc2F)cc1-c1cn[n-]c1 (cis-trans isomerization)
Cc1ccc(Oc2ccc(S(=O)(=O)/N=c3/[nH]ccs3)cc2F)cc1-c1cn[n-]c1 (3D coordinates assigned)
Cc1ccc(Oc2ccc(S(=O)(=O)/N=c3/[nH]ccs3)cc2F)cc1-c1cn[n-]c1 (optimized conformer: 124.60315057742744 kcal/mol)

>  <smiles>  (39) 
Cc1ccc(Oc2ccc(S(=O)(=O)N=c3[nH]ccs3)cc2F)cc1-c1cn[nH]c1

>  <score_type>  (39) 
oracle

>  <origin>  (39) 
adg

>  <m_score__min__energy>  (39) 
-11.76

>  <m_primary>  (39) 
energy

$$$$
39:0
     RDKit          3D

 60 62  0  0  0  0  0  0  0  0999 V2000
   60.8010   30.1350   47.4750 C   0  0  0  0  0  0  0  0  0  0  0  0
   61.3150   31.5270   47.1190 C   0  0  0  0  0  0  0  0  0  0  0  0
   61.7600   32.2420   48.3370 N   0  0  0  0  0  0  0  0  0  0  0  0
   63.2370   32.3250   48.4100 C   0  0  0  0  0  0  0  0  0  0  0  0
   63.7730   33.1510   47.2430 C   0  0  0  0  0  0  0  0  0  0  0  0
   61.1310   33.5810   48.4350 C   0  0  0  0  0  0  0  0  0  0  0  0
   59.6020   33.4440   48.4610 C   0  0  2  0  0  0  0  0  0  0  0  0
   59.2570   32.2190   49.0550 O   0  0  0  0  0  0  0  0  0  0  0  0
   59.0440   33.5320   47.0550 C   0  0  0  0  0  0  0  0  0  0  0  0
   59.4180   34.5790   46.1960 C   0  0  0  0  0  0  0  0  0  0  0  0
   58.8700   34.6470   44.9150 C   0  0  0  0  0  0  0  0  0  0  0  0
   57.9610   33.7190   44.5120 N   0  0  0  0  0  0  0  0  0  0  0  0
   57.5400   32.7210   45.3330 C   0  0  0  0  0  0  0  0  0  0  0  0
   56.5860   31.7730   44.8390 N   0  0  0  0  0  0  0  0  0  0  0  0
   56.8840   30.6610   43.9880 C   0  0  0  0  0  0  0  0  0  0  0  0
   56.6820   30.7470   42.7460 O   0  0  0  0  0  0  0  0  0  0  0  0
   57.4830   29.4340   44.5600 C   0  0  0  0  0  0  0  0  0  0  0  0
   58.8720   29.2310   44.5260 C   0  0  0  0  0  0  0  0  0  0  0  0
   59.4370   28.0810   45.0880 C   0  0  0  0  0  0  0  0  0  0  0  0
   58.6230   27.1060   45.6870 C   0  0  0  0  0  0  0  0  0  0  0  0
   59.2160   25.8970   46.3010 C   0  0  0  0  0  0  0  0  0  0  0  0
   60.4470   25.8740   46.5850 O   0  0  0  0  0  0  0  0  0  0  0  0
   58.3970   24.7520   46.5780 N   0  0  0  0  0  0  0  0  0  0  0  0
   58.0460   23.7570   45.6070 C   0  0  0  0  0  0  0  0  0  0  0  0
   56.7130   23.6740   45.1940 C   0  0  0  0  0  0  0  0  0  0  0  0
   56.3080   22.6790   44.3000 C   0  0  0  0  0  0  0  0  0  0  0  0
   57.2350   21.7630   43.8050 C   0  0  0  0  0  0  0  0  0  0  0  0
   58.5770   21.8590   44.1740 C   0  0  0  0  0  0  0  0  0  0  0  0
   59.0020   22.8620   45.0590 C   0  0  0  0  0  0  0  0  0  0  0  0
   60.4020   22.9960   45.3360 N   0  0  0  0  0  0  0  0  0  0  0  0
   57.2320   27.3020   45.7050 C   0  0  0  0  0  0  0  0  0  0  0  0
   56.6690   28.4550   45.1530 C   0  0  0  0  0  0  0  0  0  0  0  0
   58.0860   32.6060   46.6200 C   0  0  0  0  0  0  0  0  0  0  0  0
   60.7613   30.0275   48.5690 H   0  0  0  0  0  0  0  0  0  0  0  0
   59.7930   29.9982   47.0563 H   0  0  0  0  0  0  0  0  0  0  0  0
   61.4781   29.3759   47.0563 H   0  0  0  0  0  0  0  0  0  0  0  0
   62.1626   31.4333   46.4241 H   0  0  0  0  0  0  0  0  0  0  0  0
   60.5007   32.0977   46.6486 H   0  0  0  0  0  0  0  0  0  0  0  0
   63.5285   32.8016   49.3576 H   0  0  0  0  0  0  0  0  0  0  0  0
   63.6583   31.3102   48.3571 H   0  0  0  0  0  0  0  0  0  0  0  0
   64.3332   34.0143   47.6316 H   0  0  0  0  0  0  0  0  0  0  0  0
   64.4394   32.5280   46.6284 H   0  0  0  0  0  0  0  0  0  0  0  0
   62.9326   33.5058   46.6284 H   0  0  0  0  0  0  0  0  0  0  0  0
   61.4680   34.0747   49.3584 H   0  0  0  0  0  0  0  0  0  0  0  0
   61.4242   34.1818   47.5615 H   0  0  0  0  0  0  0  0  0  0  0  0
   59.1695   34.2648   49.0519 H   0  0  0  0  0  0  0  0  0  0  0  0
   60.1040   31.8040   49.3670 H   0  0  0  0  0  0  0  0  0  0  0  0
   60.1381   35.3400   46.5313 H   0  0  0  0  0  0  0  0  0  0  0  0
   59.1735   35.4523   44.2298 H   0  0  0  0  0  0  0  0  0  0  0  0
   59.5215   29.9826   44.0535 H   0  0  0  0  0  0  0  0  0  0  0  0
   60.5275   27.9395   45.0604 H   0  0  0  0  0  0  0  0  0  0  0  0
   55.9773   24.3973   45.5756 H   0  0  0  0  0  0  0  0  0  0  0  0
   55.2554   22.6185   43.9862 H   0  0  0  0  0  0  0  0  0  0  0  0
   56.9082   20.9641   43.1231 H   0  0  0  0  0  0  0  0  0  0  0  0
   59.3073   21.1434   43.7684 H   0  0  0  0  0  0  0  0  0  0  0  0
   60.7620   23.8210   45.8670 H   0  0  0  0  0  0  0  0  0  0  0  0
   61.0770   22.2290   45.1280 H   0  0  0  0  0  0  0  0  0  0  0  0
   56.5802   26.5404   46.1580 H   0  0  0  0  0  0  0  0  0  0  0  0
   55.5787   28.5975   45.1830 H   0  0  0  0  0  0  0  0  0  0  0  0
   57.7634   31.7918   47.2856 H   0  0  0  0  0  0  0  0  0  0  0  0
  1  2  1  0
  2  3  1  0
  3  4  1  0
  4  5  1  0
  3  6  1  0
  6  7  1  0
  7  8  1  0
  7  9  1  0
  9 10  2  0
 10 11  1  0
 11 12  2  0
 12 13  1  0
 13 14  1  0
 14 15  1  0
 15 16  2  0
 15 17  1  0
 17 18  2  0
 18 19  1  0
 19 20  2  0
 20 21  1  0
 21 22  2  0
 21 23  1  0
 23 24  1  0
 24 25  2  0
 25 26  1  0
 26 27  2  0
 27 28  1  0
 28 29  2  0
 29 30  1  0
 20 31  1  0
 31 32  2  0
 13 33  2  0
 33  9  1  0
 32 17  1  0
 29 24  1  0
  1 34  1  0
  1 35  1  0
  1 36  1  0
  2 37  1  0
  2 38  1  0
  4 39  1  0
  4 40  1  0
  5 41  1  0
  5 42  1  0
  5 43  1  0
  6 44  1  0
  6 45  1  0
  7 46  1  1
  8 47  1  0
 10 48  1  0
 11 49  1  0
 18 50  1  0
 19 51  1  0
 25 52  1  0
 26 53  1  0
 27 54  1  0
 28 55  1  0
 30 56  1  0
 30 57  1  0
 31 58  1  0
 32 59  1  0
 33 60  1  0
M  CHG  2  14  -1  23  -1
M  END
>  <UniqueID>  (40) 
39

>  <SMILES>  (40) 
CCN(CC)C[C@H](O)c1ccnc([N-]C(=O)c2ccc(C(=O)[N-]c3ccccc3N)cc2)c1

>  <Energy>  (40) 
70.9278406349013

>  <Genealogy>  (40) 
CCN(CC)CC(O)c1ccnc([N-]C(=O)c2ccc(C(=O)[N-]c3ccccc3N)cc2)c1 (protonated)
CCN(CC)C[C@H](O)c1ccnc([N-]C(=O)c2ccc(C(=O)[N-]c3ccccc3N)cc2)c1 (chirality)
CCN(CC)C[C@H](O)c1ccnc([N-]C(=O)c2ccc(C(=O)[N-]c3ccccc3N)cc2)c1 (3D coordinates assigned)
CCN(CC)C[C@H](O)c1ccnc([N-]C(=O)c2ccc(C(=O)[N-]c3ccccc3N)cc2)c1 (optimized conformer: 70.9278406349013 kcal/mol)

>  <smiles>  (40) 
CCN(CC)CC(O)c1ccnc(NC(=O)c2ccc(C(=O)Nc3ccccc3N)cc2)c1

>  <score_type>  (40) 
oracle

>  <origin>  (40) 
adg

>  <m_score__min__energy>  (40) 
-11.27

>  <m_primary>  (40) 
energy

$$$$
40:0
     RDKit          3D

 51 53  0  0  0  0  0  0  0  0999 V2000
   59.6110   35.3330   46.9320 C   0  0  0  0  0  0  0  0  0  0  0  0
   58.9280   34.2230   46.1890 C   0  0  0  0  0  0  0  0  0  0  0  0
   58.4840   34.4250   44.8740 C   0  0  0  0  0  0  0  0  0  0  0  0
   57.8810   33.3800   44.1650 C   0  0  0  0  0  0  0  0  0  0  0  0
   57.7300   32.1200   44.7590 C   0  0  0  0  0  0  0  0  0  0  0  0
   56.9810   30.8070   43.8560 S   0  0  0  0  0  0  0  0  0  0  0  0
   55.6820   30.3980   44.4950 O   0  0  0  0  0  0  0  0  0  0  0  0
   56.7100   31.2770   42.4560 O   0  0  0  0  0  0  0  0  0  0  0  0
   58.0450   29.4360   43.8050 N   0  0  0  0  0  0  0  0  0  0  0  0
   58.1040   28.4260   44.8280 C   0  0  0  0  0  0  0  0  0  0  0  0
   59.1320   28.3950   45.7820 C   0  0  0  0  0  0  0  0  0  0  0  0
   59.1570   27.4040   46.7620 C   0  0  0  0  0  0  0  0  0  0  0  0
   58.1520   26.4220   46.8220 C   0  0  0  0  0  0  0  0  0  0  0  0
   58.2270   25.3880   47.9120 C   0  0  0  0  0  0  0  0  0  0  0  0
   57.1080   26.4460   45.8610 C   0  0  0  0  0  0  0  0  0  0  0  0
   55.7540   25.2940   45.8290 S   0  0  0  0  0  0  0  0  0  0  0  0
   55.7150   24.5910   47.1580 O   0  0  0  0  0  0  0  0  0  0  0  0
   54.4260   25.9650   45.6170 O   0  0  0  0  0  0  0  0  0  0  0  0
   56.0250   24.1210   44.5630 N   0  0  0  0  0  0  0  0  0  0  0  0
   55.7030   22.7640   45.0580 C   0  0  0  0  0  0  0  0  0  0  0  0
   56.2790   21.6850   44.1350 C   0  0  0  0  0  0  0  0  0  0  0  0
   57.8160   21.7640   44.0780 C   0  0  0  0  0  0  0  0  0  0  0  0
   58.3540   23.1600   44.4360 C   0  0  0  0  0  0  0  0  0  0  0  0
   57.3860   24.2620   43.9830 C   0  0  0  0  0  0  0  0  0  0  0  0
   57.0990   27.4520   44.8840 C   0  0  0  0  0  0  0  0  0  0  0  0
   58.1830   31.9130   46.0690 C   0  0  0  0  0  0  0  0  0  0  0  0
   58.7870   32.9560   46.7770 C   0  0  0  0  0  0  0  0  0  0  0  0
   59.5088   35.1668   48.0146 H   0  0  0  0  0  0  0  0  0  0  0  0
   60.6775   35.3523   46.6631 H   0  0  0  0  0  0  0  0  0  0  0  0
   59.1476   36.2937   46.6631 H   0  0  0  0  0  0  0  0  0  0  0  0
   58.6103   35.4087   44.3981 H   0  0  0  0  0  0  0  0  0  0  0  0
   57.5244   33.5483   43.1381 H   0  0  0  0  0  0  0  0  0  0  0  0
   58.7310   29.3990   43.0160 H   0  0  0  0  0  0  0  0  0  0  0  0
   59.9239   29.1580   45.7566 H   0  0  0  0  0  0  0  0  0  0  0  0
   59.9739   27.3898   47.4985 H   0  0  0  0  0  0  0  0  0  0  0  0
   58.1909   25.8855   48.8924 H   0  0  0  0  0  0  0  0  0  0  0  0
   57.3767   24.6962   47.8203 H   0  0  0  0  0  0  0  0  0  0  0  0
   59.1683   24.8262   47.8203 H   0  0  0  0  0  0  0  0  0  0  0  0
   56.1284   22.6392   46.0647 H   0  0  0  0  0  0  0  0  0  0  0  0
   54.6089   22.6531   45.0822 H   0  0  0  0  0  0  0  0  0  0  0  0
   55.9843   20.6948   44.5128 H   0  0  0  0  0  0  0  0  0  0  0  0
   55.8839   21.8464   43.1212 H   0  0  0  0  0  0  0  0  0  0  0  0
   58.2322   21.0341   44.7880 H   0  0  0  0  0  0  0  0  0  0  0  0
   58.1211   21.5463   43.0438 H   0  0  0  0  0  0  0  0  0  0  0  0
   58.4862   23.2247   45.5261 H   0  0  0  0  0  0  0  0  0  0  0  0
   59.3139   23.3060   43.9190 H   0  0  0  0  0  0  0  0  0  0  0  0
   57.7970   25.2355   44.2885 H   0  0  0  0  0  0  0  0  0  0  0  0
   57.2857   24.1800   42.8907 H   0  0  0  0  0  0  0  0  0  0  0  0
   56.2845   27.4767   44.1451 H   0  0  0  0  0  0  0  0  0  0  0  0
   58.0629   30.9269   46.5414 H   0  0  0  0  0  0  0  0  0  0  0  0
   59.1535   32.7832   47.7996 H   0  0  0  0  0  0  0  0  0  0  0  0
  1  2  1  0
  2  3  2  0
  3  4  1  0
  4  5  2  0
  5  6  1  0
  6  7  2  0
  6  8  2  0
  6  9  1  0
  9 10  1  0
 10 11  2  0
 11 12  1  0
 12 13  2  0
 13 14  1  0
 13 15  1  0
 15 16  1  0
 16 17  2  0
 16 18  2  0
 16 19  1  0
 19 20  1  0
 20 21  1  0
 21 22  1  0
 22 23  1  0
 23 24  1  0
 15 25  2  0
  5 26  1  0
 26 27  2  0
 27  2  1  0
 25 10  1  0
 24 19  1  0
  1 28  1  0
  1 29  1  0
  1 30  1  0
  3 31  1  0
  4 32  1  0
  9 33  1  0
 11 34  1  0
 12 35  1  0
 14 36  1  0
 14 37  1  0
 14 38  1  0
 20 39  1  0
 20 40  1  0
 21 41  1  0
 21 42  1  0
 22 43  1  0
 22 44  1  0
 23 45  1  0
 23 46  1  0
 24 47  1  0
 24 48  1  0
 25 49  1  0
 26 50  1  0
 27 51  1  0
M  END
>  <UniqueID>  (41) 
40

>  <SMILES>  (41) 
Cc1ccc(S(=O)(=O)Nc2ccc(C)c(S(=O)(=O)N3CCCCC3)c2)cc1

>  <Energy>  (41) 
61.83364198277872

>  <Genealogy>  (41) 
Cc1ccc(S(=O)(=O)Nc2ccc(C)c(S(=O)(=O)N3CCCCC3)c2)cc1 (3D coordinates assigned)
Cc1ccc(S(=O)(=O)Nc2ccc(C)c(S(=O)(=O)N3CCCCC3)c2)cc1 (nonaromatic ring conformer: 61.83364198277872 kcal/mol)

>  <smiles>  (41) 
Cc1ccc(S(=O)(=O)Nc2ccc(C)c(S(=O)(=O)N3CCCCC3)c2)cc1

>  <score_type>  (41) 
oracle

>  <origin>  (41) 
adg

>  <m_score__min__energy>  (41) 
-10.34

>  <m_primary>  (41) 
energy

$$$$
41:0
     RDKit          3D

 40 43  0  0  0  0  0  0  0  0999 V2000
   59.9520   34.5200   48.3240 O   0  0  0  0  0  0  0  0  0  0  0  0
   60.1840   34.0520   47.1760 C   0  0  0  0  0  0  0  0  0  0  0  0
   61.4820   34.2170   46.5900 N   0  0  0  0  0  0  0  0  0  0  0  0
   62.5790   33.2740   46.7750 C   0  0  0  0  0  0  0  0  0  0  0  0
   63.0810   33.3310   48.1920 C   0  0  0  0  0  0  0  0  0  0  0  0
   64.1400   32.5020   48.5920 C   0  0  0  0  0  0  0  0  0  0  0  0
   64.5820   32.5440   49.9150 C   0  0  0  0  0  0  0  0  0  0  0  0
   63.9670   33.4020   50.8250 C   0  0  0  0  0  0  0  0  0  0  0  0
   62.9110   34.2100   50.3970 C   0  0  0  0  0  0  0  0  0  0  0  0
   62.4900   34.1580   49.1020 N   0  0  0  0  0  0  0  0  0  0  0  0
   59.1210   33.3360   46.4360 C   0  0  0  0  0  0  0  0  0  0  0  0
   58.1430   34.0630   45.7010 C   0  0  0  0  0  0  0  0  0  0  0  0
   57.1160   33.3950   45.0100 C   0  0  0  0  0  0  0  0  0  0  0  0
   57.0970   32.0060   45.0590 C   0  0  0  0  0  0  0  0  0  0  0  0
   56.1910   31.1800   44.5080 N   0  0  0  0  0  0  0  0  0  0  0  0
   56.5440   29.9390   44.8280 N   0  0  0  0  0  0  0  0  0  0  0  0
   57.6720   29.9730   45.5780 C   0  0  0  0  0  0  0  0  0  0  0  0
   58.3490   28.7670   46.0990 C   0  0  0  0  0  0  0  0  0  0  0  0
   59.7060   28.8100   46.4640 C   0  0  0  0  0  0  0  0  0  0  0  0
   60.3460   27.6630   46.9440 C   0  0  0  0  0  0  0  0  0  0  0  0
   59.6410   26.4620   47.0540 C   0  0  0  0  0  0  0  0  0  0  0  0
   58.2980   26.4040   46.6780 C   0  0  0  0  0  0  0  0  0  0  0  0
   57.6520   27.5480   46.1960 C   0  0  0  0  0  0  0  0  0  0  0  0
   56.3420   27.4680   45.8480 F   0  0  0  0  0  0  0  0  0  0  0  0
   58.0400   31.2950   45.7420 C   0  0  0  0  0  0  0  0  0  0  0  0
   59.0600   31.9220   46.4620 C   0  0  0  0  0  0  0  0  0  0  0  0
   62.2238   32.2562   46.5562 H   0  0  0  0  0  0  0  0  0  0  0  0
   63.3998   33.5406   46.0929 H   0  0  0  0  0  0  0  0  0  0  0  0
   64.6178   31.8247   47.8688 H   0  0  0  0  0  0  0  0  0  0  0  0
   65.4139   31.9014   50.2389 H   0  0  0  0  0  0  0  0  0  0  0  0
   64.3097   33.4425   51.8695 H   0  0  0  0  0  0  0  0  0  0  0  0
   62.4179   34.8901   51.1072 H   0  0  0  0  0  0  0  0  0  0  0  0
   61.6940   34.7710   48.8130 H   0  0  0  0  0  0  0  0  0  0  0  0
   58.1908   35.1616   45.6729 H   0  0  0  0  0  0  0  0  0  0  0  0
   56.3525   33.9538   44.4489 H   0  0  0  0  0  0  0  0  0  0  0  0
   60.2676   29.7513   46.3715 H   0  0  0  0  0  0  0  0  0  0  0  0
   61.4058   27.7065   47.2353 H   0  0  0  0  0  0  0  0  0  0  0  0
   60.1443   25.5620   47.4370 H   0  0  0  0  0  0  0  0  0  0  0  0
   57.7458   25.4563   46.7608 H   0  0  0  0  0  0  0  0  0  0  0  0
   59.7942   31.3341   47.0324 H   0  0  0  0  0  0  0  0  0  0  0  0
  1  2  2  0
  2  3  1  0
  3  4  1  0
  4  5  1  0
  5  6  2  0
  6  7  1  0
  7  8  2  0
  8  9  1  0
  9 10  2  0
  2 11  1  0
 11 12  1  0
 12 13  2  0
 13 14  1  0
 14 15  2  0
 15 16  1  0
 16 17  1  0
 17 18  1  0
 18 19  2  0
 19 20  1  0
 20 21  2  0
 21 22  1  0
 22 23  2  0
 23 24  1  0
 17 25  2  0
 25 26  1  0
 10  5  1  0
 26 11  2  0
 25 14  1  0
 23 18  1  0
  4 27  1  0
  4 28  1  0
  6 29  1  0
  7 30  1  0
  8 31  1  0
  9 32  1  0
 10 33  1  0
 12 34  1  0
 13 35  1  0
 19 36  1  0
 20 37  1  0
 21 38  1  0
 22 39  1  0
 26 40  1  0
M  CHG  3   3  -1  10   1  16  -1
M  END
>  <UniqueID>  (42) 
41

>  <SMILES>  (42) 
O=C([N-]Cc1cccc[nH+]1)c1ccc2n[n-]c(-c3ccccc3F)c2c1

>  <Energy>  (42) 
85.9335222705457

>  <Genealogy>  (42) 
O=C([N-]Cc1cccc[nH+]1)c1ccc2n[n-]c(-c3ccccc3F)c2c1 (protonated)
O=C([N-]Cc1cccc[nH+]1)c1ccc2n[n-]c(-c3ccccc3F)c2c1 (3D coordinates assigned)
O=C([N-]Cc1cccc[nH+]1)c1ccc2n[n-]c(-c3ccccc3F)c2c1 (optimized conformer: 85.9335222705457 kcal/mol)

>  <smiles>  (42) 
O=C(NCc1ccccn1)c1ccc2n[nH]c(-c3ccccc3F)c2c1

>  <score_type>  (42) 
oracle

>  <origin>  (42) 
adg

>  <m_score__min__energy>  (42) 
-9.3499999999999996

>  <m_primary>  (42) 
energy

$$$$
42:0
     RDKit          3D

 47 50  0  0  0  0  0  0  0  0999 V2000
   63.0230   32.9550   48.1600 C   0  0  0  0  0  0  0  0  0  0  0  0
   61.9750   33.3820   49.1810 C   0  0  0  0  0  0  0  0  0  0  0  0
   61.9550   32.4590   50.3110 N   0  0  0  0  0  0  0  0  0  0  0  0
   60.8750   31.5580   50.5830 C   0  0  0  0  0  0  0  0  0  0  0  0
   61.0210   30.3220   50.3770 O   0  0  0  0  0  0  0  0  0  0  0  0
   59.6090   32.0770   51.1490 C   0  0  0  0  0  0  0  0  0  0  0  0
   59.6610   33.2380   51.9380 C   0  0  0  0  0  0  0  0  0  0  0  0
   58.5190   33.7210   52.5710 C   0  0  0  0  0  0  0  0  0  0  0  0
   57.3050   33.0570   52.4240 C   0  0  0  0  0  0  0  0  0  0  0  0
   57.2100   31.9030   51.6280 C   0  0  0  0  0  0  0  0  0  0  0  0
   55.9330   31.2560   51.4570 N   0  0  0  0  0  0  0  0  0  0  0  0
   55.1550   30.7600   52.5630 C   0  0  0  0  0  0  0  0  0  0  0  0
   55.7900   30.1290   53.6590 C   0  0  0  0  0  0  0  0  0  0  0  0
   57.2480   29.8800   53.6590 C   0  0  0  0  0  0  0  0  0  0  0  0
   57.9040   28.8830   52.9470 C   0  0  0  0  0  0  0  0  0  0  0  0
   59.2890   28.8780   53.1520 C   0  0  0  0  0  0  0  0  0  0  0  0
   59.7290   29.8730   54.0160 C   0  0  0  0  0  0  0  0  0  0  0  0
   58.3930   30.7580   54.5260 S   0  0  0  0  0  0  0  0  0  0  0  0
   55.0070   29.7070   54.7500 C   0  0  0  0  0  0  0  0  0  0  0  0
   55.5400   29.1410   55.7430 O   0  0  0  0  0  0  0  0  0  0  0  0
   53.6620   29.8840   54.7370 N   0  0  0  0  0  0  0  0  0  0  0  0
   53.0200   30.4700   53.6950 C   0  0  0  0  0  0  0  0  0  0  0  0
   51.6300   30.6280   53.7430 C   0  0  0  0  0  0  0  0  0  0  0  0
   50.9580   31.2480   52.6870 C   0  0  0  0  0  0  0  0  0  0  0  0
   51.6710   31.7190   51.5830 C   0  0  0  0  0  0  0  0  0  0  0  0
   51.0000   32.3440   50.5390 O   0  0  0  0  0  0  0  0  0  0  0  0
   53.0610   31.5650   51.5250 C   0  0  0  0  0  0  0  0  0  0  0  0
   53.7520   30.9270   52.5760 C   0  0  0  0  0  0  0  0  0  0  0  0
   58.3660   31.4120   50.9710 C   0  0  0  0  0  0  0  0  0  0  0  0
   58.2720   30.2580   50.1230 N   0  0  0  0  0  0  0  0  0  0  0  0
   63.9185   32.5901   48.6844 H   0  0  0  0  0  0  0  0  0  0  0  0
   62.6145   32.1516   47.5294 H   0  0  0  0  0  0  0  0  0  0  0  0
   63.2923   33.8151   47.5294 H   0  0  0  0  0  0  0  0  0  0  0  0
   62.2139   34.3927   49.5436 H   0  0  0  0  0  0  0  0  0  0  0  0
   60.9862   33.3752   48.6992 H   0  0  0  0  0  0  0  0  0  0  0  0
   60.6154   33.7719   52.0571 H   0  0  0  0  0  0  0  0  0  0  0  0
   58.5765   34.6294   53.1886 H   0  0  0  0  0  0  0  0  0  0  0  0
   56.4100   33.4396   52.9365 H   0  0  0  0  0  0  0  0  0  0  0  0
   55.5050   31.2180   50.5050 H   0  0  0  0  0  0  0  0  0  0  0  0
   57.3870   28.1695   52.2885 H   0  0  0  0  0  0  0  0  0  0  0  0
   59.9653   28.1542   52.6738 H   0  0  0  0  0  0  0  0  0  0  0  0
   60.7724   30.0514   54.3152 H   0  0  0  0  0  0  0  0  0  0  0  0
   51.0658   30.2632   54.6140 H   0  0  0  0  0  0  0  0  0  0  0  0
   49.8650   31.3654   52.7253 H   0  0  0  0  0  0  0  0  0  0  0  0
   53.6175   31.9436   50.6550 H   0  0  0  0  0  0  0  0  0  0  0  0
   59.0730   29.9470   49.5310 H   0  0  0  0  0  0  0  0  0  0  0  0
   57.4100   29.6710   50.0980 H   0  0  0  0  0  0  0  0  0  0  0  0
  1  2  1  0
  2  3  1  0
  3  4  1  0
  4  5  2  0
  4  6  1  0
  6  7  2  0
  7  8  1  0
  8  9  2  0
  9 10  1  0
 10 11  1  0
 11 12  1  0
 12 13  2  0
 13 14  1  0
 14 15  2  0
 15 16  1  0
 16 17  2  0
 17 18  1  0
 13 19  1  0
 19 20  2  0
 19 21  1  0
 21 22  1  0
 22 23  2  0
 23 24  1  0
 24 25  2  0
 25 26  1  0
 25 27  1  0
 27 28  2  0
 10 29  2  0
 29 30  1  0
 29  6  1  0
 28 12  1  0
 18 14  1  0
 28 22  1  0
  1 31  1  0
  1 32  1  0
  1 33  1  0
  2 34  1  0
  2 35  1  0
  7 36  1  0
  8 37  1  0
  9 38  1  0
 11 39  1  0
 15 40  1  0
 16 41  1  0
 17 42  1  0
 23 43  1  0
 24 44  1  0
 27 45  1  0
 30 46  1  0
 30 47  1  0
M  CHG  3   3  -1  21  -1  26  -1
M  END
>  <UniqueID>  (43) 
42

>  <SMILES>  (43) 
CC[N-]C(=O)c1cccc(Nc2c(-c3cccs3)c(=O)[n-]c3ccc([O-])cc23)c1N

>  <Energy>  (43) 
97.4451953616109

>  <Genealogy>  (43) 
CC[N-]C(=O)c1cccc(Nc2c(-c3cccs3)c(=O)[n-]c3ccc([O-])cc23)c1N (protonated)
CC[N-]C(=O)c1cccc(Nc2c(-c3cccs3)c(=O)[n-]c3ccc([O-])cc23)c1N (3D coordinates assigned)
CC[N-]C(=O)c1cccc(Nc2c(-c3cccs3)c(=O)[n-]c3ccc([O-])cc23)c1N (optimized conformer: 97.4451953616109 kcal/mol)

>  <smiles>  (43) 
CCNC(=O)c1cccc(Nc2c(-c3cccs3)c(=O)[nH]c3ccc(O)cc23)c1N

>  <score_type>  (43) 
oracle

>  <origin>  (43) 
adg

>  <m_score__min__energy>  (43) 
-11.890000000000001

>  <m_primary>  (43) 
energy

$$$$
43:0
     RDKit          3D

 46 48  0  0  0  0  0  0  0  0999 V2000
   57.9830   32.2400   43.0980 O   0  0  0  0  0  0  0  0  0  0  0  0
   57.4050   32.3440   44.2130 C   0  0  0  0  0  0  0  0  0  0  0  0
   57.7900   33.4510   45.1390 C   0  0  0  0  0  0  0  0  0  0  0  0
   58.8640   32.9860   46.0440 N   0  0  0  0  0  0  0  0  0  0  0  0
   58.3410   32.1320   47.1280 C   0  0  0  0  0  0  0  0  0  0  0  0
   59.0330   30.7940   47.1190 C   0  0  0  0  0  0  0  0  0  0  0  0
   59.8490   30.4150   46.0400 C   0  0  0  0  0  0  0  0  0  0  0  0
   60.5050   29.1790   46.0540 C   0  0  0  0  0  0  0  0  0  0  0  0
   60.3510   28.3160   47.1420 C   0  0  0  0  0  0  0  0  0  0  0  0
   59.5390   28.6850   48.2180 C   0  0  0  0  0  0  0  0  0  0  0  0
   58.8810   29.9190   48.2080 C   0  0  0  0  0  0  0  0  0  0  0  0
   59.7220   34.3440   46.7330 S   0  0  0  0  0  0  0  0  0  0  0  0
   58.9020   34.9620   47.8300 O   0  0  0  0  0  0  0  0  0  0  0  0
   59.9660   35.3880   45.6760 O   0  0  0  0  0  0  0  0  0  0  0  0
   61.2590   33.8160   47.4140 C   0  0  0  0  0  0  0  0  0  0  0  0
   62.4020   33.7220   46.6070 C   0  0  0  0  0  0  0  0  0  0  0  0
   63.6200   33.3140   47.1590 C   0  0  0  0  0  0  0  0  0  0  0  0
   63.7050   33.0090   48.5200 C   0  0  0  0  0  0  0  0  0  0  0  0
   64.8880   32.6190   49.0570 F   0  0  0  0  0  0  0  0  0  0  0  0
   62.5670   33.1000   49.3280 C   0  0  0  0  0  0  0  0  0  0  0  0
   61.3460   33.4930   48.7750 C   0  0  0  0  0  0  0  0  0  0  0  0
   56.4190   31.3860   44.6120 N   0  0  0  0  0  0  0  0  0  0  0  0
   56.0460   30.2270   43.8100 C   0  0  0  0  0  0  0  0  0  0  0  0
   56.5760   28.9670   44.4200 C   0  0  0  0  0  0  0  0  0  0  0  0
   57.8160   28.4070   44.1900 C   0  0  0  0  0  0  0  0  0  0  0  0
   57.8630   27.2740   44.9710 C   0  0  0  0  0  0  0  0  0  0  0  0
   56.6520   27.2120   45.6280 C   0  0  0  0  0  0  0  0  0  0  0  0
   55.9050   28.2330   45.2770 O   0  0  0  0  0  0  0  0  0  0  0  0
   58.1500   34.3100   44.5538 H   0  0  0  0  0  0  0  0  0  0  0  0
   56.9150   33.7529   45.7333 H   0  0  0  0  0  0  0  0  0  0  0  0
   58.5169   32.6251   48.0954 H   0  0  0  0  0  0  0  0  0  0  0  0
   57.2627   31.9784   46.9741 H   0  0  0  0  0  0  0  0  0  0  0  0
   59.9726   31.0918   45.1817 H   0  0  0  0  0  0  0  0  0  0  0  0
   61.1430   28.8864   45.2070 H   0  0  0  0  0  0  0  0  0  0  0  0
   60.8691   27.3457   47.1517 H   0  0  0  0  0  0  0  0  0  0  0  0
   59.4174   28.0043   49.0734 H   0  0  0  0  0  0  0  0  0  0  0  0
   58.2419   30.2058   49.0561 H   0  0  0  0  0  0  0  0  0  0  0  0
   62.3401   33.9699   45.5371 H   0  0  0  0  0  0  0  0  0  0  0  0
   64.5125   33.2330   46.5211 H   0  0  0  0  0  0  0  0  0  0  0  0
   62.6336   32.8619   50.3999 H   0  0  0  0  0  0  0  0  0  0  0  0
   60.4495   33.5492   49.4100 H   0  0  0  0  0  0  0  0  0  0  0  0
   54.9492   30.1662   43.7520 H   0  0  0  0  0  0  0  0  0  0  0  0
   56.4764   30.3405   42.8041 H   0  0  0  0  0  0  0  0  0  0  0  0
   58.6030   28.7867   43.5219 H   0  0  0  0  0  0  0  0  0  0  0  0
   58.6976   26.5623   45.0541 H   0  0  0  0  0  0  0  0  0  0  0  0
   56.3567   26.4260   46.3386 H   0  0  0  0  0  0  0  0  0  0  0  0
  1  2  2  0
  2  3  1  0
  3  4  1  0
  4  5  1  0
  5  6  1  0
  6  7  2  0
  7  8  1  0
  8  9  2  0
  9 10  1  0
 10 11  2  0
  4 12  1  0
 12 13  2  0
 12 14  2  0
 12 15  1  0
 15 16  2  0
 16 17  1  0
 17 18  2  0
 18 19  1  0
 18 20  1  0
 20 21  2  0
  2 22  1  0
 22 23  1  0
 23 24  1  0
 24 25  2  0
 25 26  1  0
 26 27  2  0
 27 28  1  0
 11  6  1  0
 21 15  1  0
 28 24  1  0
  3 29  1  0
  3 30  1  0
  5 31  1  0
  5 32  1  0
  7 33  1  0
  8 34  1  0
  9 35  1  0
 10 36  1  0
 11 37  1  0
 16 38  1  0
 17 39  1  0
 20 40  1  0
 21 41  1  0
 23 42  1  0
 23 43  1  0
 25 44  1  0
 26 45  1  0
 27 46  1  0
M  CHG  1  22  -1
M  END
>  <UniqueID>  (44) 
43

>  <SMILES>  (44) 
O=C(CN(Cc1ccccc1)S(=O)(=O)c1ccc(F)cc1)[N-]Cc1ccco1

>  <Energy>  (44) 
67.70323001445038

>  <Genealogy>  (44) 
O=C(CN(Cc1ccccc1)S(=O)(=O)c1ccc(F)cc1)[N-]Cc1ccco1 (protonated)
O=C(CN(Cc1ccccc1)S(=O)(=O)c1ccc(F)cc1)[N-]Cc1ccco1 (3D coordinates assigned)
O=C(CN(Cc1ccccc1)S(=O)(=O)c1ccc(F)cc1)[N-]Cc1ccco1 (optimized conformer: 67.70323001445038 kcal/mol)

>  <smiles>  (44) 
O=C(CN(Cc1ccccc1)S(=O)(=O)c1ccc(F)cc1)NCc1ccco1

>  <score_type>  (44) 
oracle

>  <origin>  (44) 
adg

>  <m_score__min__energy>  (44) 
-10.050000000000001

>  <m_primary>  (44) 
energy

$$$$
44:0
     RDKit          3D

 68 71  0  0  1  0  0  0  0  0999 V2000
   59.2650   33.5870   51.3490 C   0  0  0  0  0  0  0  0  0  0  0  0
   58.7640   32.2720   50.8540 C   0  0  0  0  0  0  0  0  0  0  0  0
   59.8100   31.3780   50.3940 N   0  0  0  0  0  0  0  0  0  0  0  0
   60.5660   30.8030   51.4710 C   0  0  0  0  0  0  0  0  0  0  0  0
   62.0600   30.8240   51.2550 C   0  0  0  0  0  0  0  0  0  0  0  0
   59.2490   30.4530   49.4680 C   0  0  0  0  0  0  0  0  0  0  0  0
   59.5980   29.0120   49.6940 C   0  0  0  0  0  0  0  0  0  0  0  0
   60.7720   28.6950   48.7400 C   0  0  0  0  0  0  0  0  0  0  0  0
   60.2350   27.8800   47.6790 N   0  0  0  0  0  0  0  0  0  0  0  0
   59.2580   28.2520   46.9280 C   0  0  0  0  0  0  0  0  0  0  0  0
   59.2320   29.4570   46.2820 N   0  0  0  0  0  0  0  0  0  0  0  0
   58.1120   29.7000   45.5600 C   0  0  0  0  0  0  0  0  0  0  0  0
   57.9850   30.8870   44.8790 C   0  0  0  0  0  0  0  0  0  0  0  0
   58.8730   31.7590   44.8560 N   0  0  0  0  0  0  0  0  0  0  0  0
   59.1900   32.6240   45.9060 C   0  0  0  0  0  0  0  0  0  0  0  0
   60.1150   32.3740   46.8990 C   0  0  0  0  0  0  0  0  0  0  0  0
   60.4180   33.3460   47.8310 C   0  0  0  0  0  0  0  0  0  0  0  0
   61.3810   33.0890   48.8600 N   0  0  0  0  0  0  0  0  0  0  0  0
   62.6990   33.5370   48.6430 C   0  0  0  0  0  0  0  0  0  0  0  0
   62.9730   34.1440   47.5550 O   0  0  0  0  0  0  0  0  0  0  0  0
   63.7890   33.3530   49.5900 C   0  0  0  0  0  0  0  0  0  0  0  0
   63.7640   34.0770   50.7640 C   0  0  0  0  0  0  0  0  0  0  0  0
   64.7760   33.9480   51.7050 C   0  0  0  0  0  0  0  0  0  0  0  0
   65.8290   33.0880   51.4810 C   0  0  0  0  0  0  0  0  0  0  0  0
   65.8640   32.3520   50.3010 C   0  0  0  0  0  0  0  0  0  0  0  0
   64.8430   32.4910   49.3630 C   0  0  0  0  0  0  0  0  0  0  0  0
   59.8380   34.5980   47.8430 C   0  0  0  0  0  0  0  0  0  0  0  0
   58.8980   34.8480   46.8380 C   0  0  0  0  0  0  0  0  0  0  0  0
   58.5810   33.8860   45.8950 C   0  0  0  0  0  0  0  0  0  0  0  0
   57.5700   34.2570   44.8710 C   0  0  0  0  0  0  0  0  0  0  0  0
   56.8470   31.1200   44.1660 N   0  0  0  0  0  0  0  0  0  0  0  0
   55.8490   30.2340   44.1020 C   0  0  0  0  0  0  0  0  0  0  0  0
   55.9410   29.0670   44.7520 N   0  0  0  0  0  0  0  0  0  0  0  0
   57.0590   28.8230   45.4610 C   0  0  0  0  0  0  0  0  0  0  0  0
   57.1180   27.6190   46.1240 C   0  0  0  0  0  0  0  0  0  0  0  0
   58.2320   27.3850   46.8370 N   0  0  0  0  0  0  0  0  0  0  0  0
   59.2656   33.5886   52.4490 H   0  0  0  0  0  0  0  0  0  0  0  0
   60.2887   33.7513   50.9815 H   0  0  0  0  0  0  0  0  0  0  0  0
   58.6101   34.3908   50.9815 H   0  0  0  0  0  0  0  0  0  0  0  0
   58.2218   31.7775   51.6735 H   0  0  0  0  0  0  0  0  0  0  0  0
   58.1205   32.4822   49.9870 H   0  0  0  0  0  0  0  0  0  0  0  0
   60.3418   31.3654   52.3894 H   0  0  0  0  0  0  0  0  0  0  0  0
   60.2698   29.7457   51.5375 H   0  0  0  0  0  0  0  0  0  0  0  0
   62.5712   30.8312   52.2290 H   0  0  0  0  0  0  0  0  0  0  0  0
   62.3613   29.9300   50.6893 H   0  0  0  0  0  0  0  0  0  0  0  0
   62.3361   31.7261   50.6893 H   0  0  0  0  0  0  0  0  0  0  0  0
   58.1542   30.5472   49.5179 H   0  0  0  0  0  0  0  0  0  0  0  0
   59.6757   30.7142   48.4884 H   0  0  0  0  0  0  0  0  0  0  0  0
   59.9029   28.8533   50.7389 H   0  0  0  0  0  0  0  0  0  0  0  0
   58.7363   28.3567   49.4989 H   0  0  0  0  0  0  0  0  0  0  0  0
   61.1885   29.6264   48.3289 H   0  0  0  0  0  0  0  0  0  0  0  0
   61.5820   28.1720   49.2695 H   0  0  0  0  0  0  0  0  0  0  0  0
   60.6136   31.3947   46.9481 H   0  0  0  0  0  0  0  0  0  0  0  0
   61.1450   32.5910   49.7460 H   0  0  0  0  0  0  0  0  0  0  0  0
   62.9294   34.7670   50.9572 H   0  0  0  0  0  0  0  0  0  0  0  0
   64.7372   34.5353   52.6343 H   0  0  0  0  0  0  0  0  0  0  0  0
   66.6318   32.9847   52.2258 H   0  0  0  0  0  0  0  0  0  0  0  0
   66.6975   31.6605   50.1085 H   0  0  0  0  0  0  0  0  0  0  0  0
   64.8773   31.9073   48.4313 H   0  0  0  0  0  0  0  0  0  0  0  0
   60.0993   35.3542   48.5979 H   0  0  0  0  0  0  0  0  0  0  0  0
   58.4010   35.8284   46.7963 H   0  0  0  0  0  0  0  0  0  0  0  0
   56.6497   34.5947   45.3699 H   0  0  0  0  0  0  0  0  0  0  0  0
   57.9654   35.0686   44.2426 H   0  0  0  0  0  0  0  0  0  0  0  0
   57.3466   33.3823   44.2426 H   0  0  0  0  0  0  0  0  0  0  0  0
   56.7130   32.0190   43.6310 H   0  0  0  0  0  0  0  0  0  0  0  0
   54.9487   30.4640   43.5133 H   0  0  0  0  0  0  0  0  0  0  0  0
   56.2977   26.8879   46.0730 H   0  0  0  0  0  0  0  0  0  0  0  0
   58.2850   26.4850   47.3370 H   0  0  0  0  0  0  0  0  0  0  0  0
  1  2  1  0
  2  3  1  0
  3  4  1  0
  4  5  1  0
  3  6  1  0
  6  7  1  0
  7  8  1  0
  8  9  1  0
  9 10  2  0
 10 11  1  0
 11 12  2  0
 12 13  1  0
 13 14  2  0
 14 15  1  0
 15 16  2  0
 16 17  1  0
 17 18  1  0
 18 19  1  0
 19 20  2  0
 19 21  1  0
 21 22  2  0
 22 23  1  0
 23 24  2  0
 24 25  1  0
 25 26  2  0
 17 27  2  0
 27 28  1  0
 28 29  2  0
 29 30  1  0
 13 31  1  0
 31 32  1  0
 32 33  2  0
 33 34  1  0
 34 35  2  0
 35 36  1  0
 36 10  1  0
 34 12  1  0
 29 15  1  0
 26 21  1  0
  1 37  1  0
  1 38  1  0
  1 39  1  0
  2 40  1  0
  2 41  1  0
  4 42  1  0
  4 43  1  0
  5 44  1  0
  5 45  1  0
  5 46  1  0
  6 47  1  0
  6 48  1  0
  7 49  1  0
  7 50  1  0
  8 51  1  0
  8 52  1  0
 16 53  1  0
 18 54  1  0
 22 55  1  0
 23 56  1  0
 24 57  1  0
 25 58  1  0
 26 59  1  0
 27 60  1  0
 28 61  1  0
 30 62  1  0
 30 63  1  0
 30 64  1  0
 31 65  1  0
 32 66  1  0
 35 67  1  0
 36 68  1  0
M  END
>  <smiles>  (45) 
CCN(CC)CCCN=c1nc2c(=Nc3cc(NC(=O)c4ccccc4)ccc3C)[nH]cnc2c[nH]1

>  <score_type>  (45) 
oracle

>  <origin>  (45) 
adg

>  <m_score__min__energy>  (45) 
-8.8499999999999996

>  <m_primary>  (45) 
energy

$$$$
45:0
     RDKit          3D

 45 46  0  0  0  0  0  0  0  0999 V2000
   56.3180   24.9610   46.8360 O   0  0  0  0  0  0  0  0  0  0  0  0
   56.2800   26.1870   46.5510 C   0  0  0  0  0  0  0  0  0  0  0  0
   55.1380   26.7230   45.9700 O   0  0  0  0  0  0  0  0  0  0  0  0
   57.4380   27.0730   46.8820 C   0  0  0  0  0  0  0  0  0  0  0  0
   58.6750   26.6670   46.0710 C   0  0  0  0  0  0  0  0  0  0  0  0
   59.4690   27.8740   45.5400 C   0  0  0  0  0  0  0  0  0  0  0  0
   58.9710   28.3790   44.1700 C   0  0  0  0  0  0  0  0  0  0  0  0
   57.4440   28.2510   44.0270 C   0  0  0  0  0  0  0  0  0  0  0  0
   56.8120   29.4940   43.3840 C   0  0  0  0  0  0  0  0  0  0  0  0
   57.3590   30.7680   43.9780 C   0  0  0  0  0  0  0  0  0  0  0  0
   57.6170   30.8500   45.3560 C   0  0  0  0  0  0  0  0  0  0  0  0
   58.1680   32.0110   45.9040 C   0  0  0  0  0  0  0  0  0  0  0  0
   58.4600   33.1160   45.0860 C   0  0  0  0  0  0  0  0  0  0  0  0
   59.0500   34.3490   45.6580 C   0  0  0  0  0  0  0  0  0  0  0  0
   59.1890   35.3640   44.9240 O   0  0  0  0  0  0  0  0  0  0  0  0
   59.5230   34.4120   47.0110 N   0  0  0  0  0  0  0  0  0  0  0  0
   60.8510   34.1020   47.4580 C   0  0  0  0  0  0  0  0  0  0  0  0
   61.1970   34.1260   48.8220 C   0  0  0  0  0  0  0  0  0  0  0  0
   62.5050   33.8320   49.2200 C   0  0  0  0  0  0  0  0  0  0  0  0
   63.4780   33.5290   48.2630 C   0  0  0  0  0  0  0  0  0  0  0  0
   64.7460   33.2470   48.6510 F   0  0  0  0  0  0  0  0  0  0  0  0
   63.1450   33.5280   46.9060 C   0  0  0  0  0  0  0  0  0  0  0  0
   61.8380   33.8200   46.5050 C   0  0  0  0  0  0  0  0  0  0  0  0
   58.2140   33.0260   43.7060 C   0  0  0  0  0  0  0  0  0  0  0  0
   57.6640   31.8650   43.1570 C   0  0  0  0  0  0  0  0  0  0  0  0
   57.1759   28.1147   46.6451 H   0  0  0  0  0  0  0  0  0  0  0  0
   57.6669   26.9734   47.9533 H   0  0  0  0  0  0  0  0  0  0  0  0
   59.3359   26.0688   46.7156 H   0  0  0  0  0  0  0  0  0  0  0  0
   58.3238   26.0951   45.1995 H   0  0  0  0  0  0  0  0  0  0  0  0
   59.3830   28.6952   46.2668 H   0  0  0  0  0  0  0  0  0  0  0  0
   60.5101   27.5450   45.4064 H   0  0  0  0  0  0  0  0  0  0  0  0
   59.2504   29.4371   44.0589 H   0  0  0  0  0  0  0  0  0  0  0  0
   59.4378   27.7594   43.3901 H   0  0  0  0  0  0  0  0  0  0  0  0
   57.2197   27.3756   43.3997 H   0  0  0  0  0  0  0  0  0  0  0  0
   57.0198   28.1419   45.0360 H   0  0  0  0  0  0  0  0  0  0  0  0
   57.0241   29.4840   42.3047 H   0  0  0  0  0  0  0  0  0  0  0  0
   55.7287   29.4648   43.5729 H   0  0  0  0  0  0  0  0  0  0  0  0
   57.3839   29.9951   46.0077 H   0  0  0  0  0  0  0  0  0  0  0  0
   58.3748   32.0607   46.9833 H   0  0  0  0  0  0  0  0  0  0  0  0
   60.4369   34.3766   49.5767 H   0  0  0  0  0  0  0  0  0  0  0  0
   62.7687   33.8392   50.2879 H   0  0  0  0  0  0  0  0  0  0  0  0
   63.9122   33.2972   46.1523 H   0  0  0  0  0  0  0  0  0  0  0  0
   61.5832   33.8283   45.4349 H   0  0  0  0  0  0  0  0  0  0  0  0
   58.4564   33.8767   43.0521 H   0  0  0  0  0  0  0  0  0  0  0  0
   57.4690   31.8102   42.0758 H   0  0  0  0  0  0  0  0  0  0  0  0
  1  2  2  0
  2  3  1  0
  2  4  1  0
  4  5  1  0
  5  6  1  0
  6  7  1  0
  7  8  1  0
  8  9  1  0
  9 10  1  0
 10 11  2  0
 11 12  1  0
 12 13  2  0
 13 14  1  0
 14 15  2  0
 14 16  1  0
 16 17  1  0
 17 18  2  0
 18 19  1  0
 19 20  2  0
 20 21  1  0
 20 22  1  0
 22 23  2  0
 13 24  1  0
 24 25  2  0
 25 10  1  0
 23 17  1  0
  4 26  1  0
  4 27  1  0
  5 28  1  0
  5 29  1  0
  6 30  1  0
  6 31  1  0
  7 32  1  0
  7 33  1  0
  8 34  1  0
  8 35  1  0
  9 36  1  0
  9 37  1  0
 11 38  1  0
 12 39  1  0
 18 40  1  0
 19 41  1  0
 22 42  1  0
 23 43  1  0
 24 44  1  0
 25 45  1  0
M  CHG  2   3  -1  16  -1
M  END
>  <UniqueID>  (46) 
44

>  <SMILES>  (46) 
O=C([O-])CCCCCCc1ccc(C(=O)[N-]c2ccc(F)cc2)cc1

>  <Energy>  (46) 
42.975713468004734

>  <Genealogy>  (46) 
O=C([O-])CCCCCCc1ccc(C(=O)[N-]c2ccc(F)cc2)cc1 (protonated)
O=C([O-])CCCCCCc1ccc(C(=O)[N-]c2ccc(F)cc2)cc1 (3D coordinates assigned)
O=C([O-])CCCCCCc1ccc(C(=O)[N-]c2ccc(F)cc2)cc1 (optimized conformer: 42.975713468004734 kcal/mol)

>  <smiles>  (46) 
O=C(O)CCCCCCc1ccc(C(=O)Nc2ccc(F)cc2)cc1

>  <score_type>  (46) 
oracle

>  <origin>  (46) 
adg

>  <m_score__min__energy>  (46) 
-11.98

>  <m_primary>  (46) 
energy

$$$$
46:0
     RDKit          3D

 41 43  0  0  0  0  0  0  0  0999 V2000
   57.0180   34.5300   44.9600 C   0  0  0  0  0  0  0  0  0  0  0  0
   58.4060   34.7600   44.7460 O   0  0  0  0  0  0  0  0  0  0  0  0
   59.3180   34.9080   45.7960 C   0  0  0  0  0  0  0  0  0  0  0  0
   59.8650   36.0270   46.0040 O   0  0  0  0  0  0  0  0  0  0  0  0
   59.6400   33.7510   46.6610 C   0  0  0  0  0  0  0  0  0  0  0  0
   58.6360   33.1150   47.4120 C   0  0  0  0  0  0  0  0  0  0  0  0
   58.9480   32.0240   48.2280 C   0  0  0  0  0  0  0  0  0  0  0  0
   60.2630   31.5570   48.3210 C   0  0  0  0  0  0  0  0  0  0  0  0
   60.5340   30.4200   49.1560 N   0  0  0  0  0  0  0  0  0  0  0  0
   59.5700   29.4860   49.6520 C   0  0  0  0  0  0  0  0  0  0  0  0
   58.5310   29.8930   50.2430 O   0  0  0  0  0  0  0  0  0  0  0  0
   59.7460   28.1250   49.3750 O   0  0  0  0  0  0  0  0  0  0  0  0
   59.4510   27.5050   48.1520 C   0  0  0  0  0  0  0  0  0  0  0  0
   60.4320   26.8470   47.3890 C   0  0  0  0  0  0  0  0  0  0  0  0
   60.0920   26.2470   46.1750 C   0  0  0  0  0  0  0  0  0  0  0  0
   58.7780   26.3060   45.7040 C   0  0  0  0  0  0  0  0  0  0  0  0
   57.7860   26.9790   46.4410 C   0  0  0  0  0  0  0  0  0  0  0  0
   56.3910   27.0480   45.9420 C   0  0  0  0  0  0  0  0  0  0  0  0
   55.6130   26.0730   46.1300 O   0  0  0  0  0  0  0  0  0  0  0  0
   55.9420   28.2240   45.2460 N   0  0  0  0  0  0  0  0  0  0  0  0
   56.6500   29.2520   44.8770 C   0  0  0  0  0  0  0  0  0  0  0  0
   56.1280   30.4950   44.8270 N   0  0  0  0  0  0  0  0  0  0  0  0
   57.0440   31.4140   44.4190 C   0  0  0  0  0  0  0  0  0  0  0  0
   58.3090   30.9060   44.1420 C   0  0  0  0  0  0  0  0  0  0  0  0
   58.2740   29.2480   44.4210 S   0  0  0  0  0  0  0  0  0  0  0  0
   58.1400   27.5820   47.6640 C   0  0  0  0  0  0  0  0  0  0  0  0
   61.2660   32.1730   47.5530 C   0  0  0  0  0  0  0  0  0  0  0  0
   60.9560   33.2640   46.7340 C   0  0  0  0  0  0  0  0  0  0  0  0
   56.8142   34.4962   46.0404 H   0  0  0  0  0  0  0  0  0  0  0  0
   56.4366   35.3441   44.5025 H   0  0  0  0  0  0  0  0  0  0  0  0
   56.7303   33.5719   44.5025 H   0  0  0  0  0  0  0  0  0  0  0  0
   57.5991   33.4781   47.3571 H   0  0  0  0  0  0  0  0  0  0  0  0
   58.1518   31.5280   48.8025 H   0  0  0  0  0  0  0  0  0  0  0  0
   61.4703   26.8049   47.7497 H   0  0  0  0  0  0  0  0  0  0  0  0
   60.8618   25.7257   45.5870 H   0  0  0  0  0  0  0  0  0  0  0  0
   58.5171   25.8231   44.7507 H   0  0  0  0  0  0  0  0  0  0  0  0
   56.8019   32.4820   44.3155 H   0  0  0  0  0  0  0  0  0  0  0  0
   59.1788   31.4864   43.8007 H   0  0  0  0  0  0  0  0  0  0  0  0
   57.3763   28.1209   48.2440 H   0  0  0  0  0  0  0  0  0  0  0  0
   62.2985   31.7959   47.5960 H   0  0  0  0  0  0  0  0  0  0  0  0
   61.7491   33.7446   46.1423 H   0  0  0  0  0  0  0  0  0  0  0  0
  1  2  1  0
  2  3  1  0
  3  4  2  0
  3  5  1  0
  5  6  2  0
  6  7  1  0
  7  8  2  0
  8  9  1  0
  9 10  1  0
 10 11  2  0
 10 12  1  0
 12 13  1  0
 13 14  2  0
 14 15  1  0
 15 16  2  0
 16 17  1  0
 17 18  1  0
 18 19  2  0
 18 20  1  0
 20 21  2  3
 21 22  1  0
 22 23  1  0
 23 24  2  0
 24 25  1  0
 17 26  2  0
  8 27  1  0
 27 28  2  0
 28  5  1  0
 26 13  1  0
 25 21  1  0
  1 29  1  0
  1 30  1  0
  1 31  1  0
  6 32  1  0
  7 33  1  0
 14 34  1  0
 15 35  1  0
 16 36  1  0
 23 37  1  0
 24 38  1  0
 26 39  1  0
 27 40  1  0
 28 41  1  0
M  CHG  2   9  -1  22  -1
M  END
>  <UniqueID>  (47) 
45

>  <SMILES>  (47) 
COC(=O)c1ccc([N-]C(=O)Oc2cccc(C(=O)N=c3[n-]ccs3)c2)cc1

>  <Energy>  (47) 
84.50711888871295

>  <Genealogy>  (47) 
COC(=O)c1ccc([N-]C(=O)Oc2cccc(C(=O)N=c3[n-]ccs3)c2)cc1 (protonated)
COC(=O)c1ccc([N-]C(=O)Oc2cccc(C(=O)N=c3[n-]ccs3)c2)cc1 (3D coordinates assigned)
COC(=O)c1ccc([N-]C(=O)Oc2cccc(C(=O)N=c3[n-]ccs3)c2)cc1 (optimized conformer: 84.50711888871295 kcal/mol)

>  <smiles>  (47) 
COC(=O)c1ccc(NC(=O)Oc2cccc(C(=O)N=c3[nH]ccs3)c2)cc1

>  <score_type>  (47) 
oracle

>  <origin>  (47) 
adg

>  <m_score__min__energy>  (47) 
-11.01

>  <m_primary>  (47) 
energy

$$$$
47:0
     RDKit          3D

 31 32  0  0  0  0  0  0  0  0999 V2000
   60.0161   26.9306   45.6199 H   0  0  0  0  0  0  0  0  0  0  0  0
   58.9210   26.8750   45.7080 C   0  0  0  0  0  0  0  0  0  0  0  0
   58.1620   27.9690   45.4370 N   0  0  0  0  0  0  0  0  0  0  0  0
   56.8010   27.9480   45.5340 C   0  0  0  0  0  0  0  0  0  0  0  0
   56.0890   29.0050   45.2700 N   0  0  0  0  0  0  0  0  0  0  0  0
   56.1420   29.8110   44.0820 C   0  0  0  0  0  0  0  0  0  0  0  0
   55.1360   29.9440   43.3340 O   0  0  0  0  0  0  0  0  0  0  0  0
   57.3990   30.5520   43.7580 C   0  0  0  0  0  0  0  0  0  0  0  0
   57.1803   31.3360   43.0181 H   0  0  0  0  0  0  0  0  0  0  0  0
   58.1387   29.8497   43.3462 H   0  0  0  0  0  0  0  0  0  0  0  0
   57.9390   31.1660   44.9710 N   0  0  0  0  0  0  0  0  0  0  0  0
   58.2920   32.4600   45.1490 C   0  0  0  0  0  0  0  0  0  0  0  0
   58.1180   33.5480   44.1330 C   0  0  0  0  0  0  0  0  0  0  0  0
   57.9644   34.5084   44.6469 H   0  0  0  0  0  0  0  0  0  0  0  0
   59.0178   33.6089   43.5032 H   0  0  0  0  0  0  0  0  0  0  0  0
   57.2441   33.3252   43.5032 H   0  0  0  0  0  0  0  0  0  0  0  0
   58.8200   32.6010   46.4230 C   0  0  0  0  0  0  0  0  0  0  0  0
   59.4930   34.1930   47.2450 Br  0  0  0  0  0  0  0  0  0  0  0  0
   58.7690   31.3290   46.9710 C   0  0  0  0  0  0  0  0  0  0  0  0
   59.2560   30.9300   48.3320 C   0  0  0  0  0  0  0  0  0  0  0  0
   58.6200   31.6940   49.2930 F   0  0  0  0  0  0  0  0  0  0  0  0
   58.9770   29.5940   48.5520 F   0  0  0  0  0  0  0  0  0  0  0  0
   60.6220   31.1240   48.4350 F   0  0  0  0  0  0  0  0  0  0  0  0
   58.2390   30.4840   46.0650 N   0  0  0  0  0  0  0  0  0  0  0  0
   58.0940   29.4560   46.1830 H   0  0  0  0  0  0  0  0  0  0  0  0
   56.1580   26.7620   45.9240 C   0  0  0  0  0  0  0  0  0  0  0  0
   54.7720   26.7080   46.0320 O   0  0  0  0  0  0  0  0  0  0  0  0
   56.9220   25.6280   46.2050 C   0  0  0  0  0  0  0  0  0  0  0  0
   56.4285   24.6935   46.5104 H   0  0  0  0  0  0  0  0  0  0  0  0
   58.3130   25.6810   46.0980 C   0  0  0  0  0  0  0  0  0  0  0  0
   58.9224   24.7922   46.3185 H   0  0  0  0  0  0  0  0  0  0  0  0
  1  2  1  0
  2  3  1  0
  3  4  1  0
  4  5  2  0
  5  6  1  0
  6  7  2  0
  6  8  1  0
  8  9  1  0
  8 10  1  0
  8 11  1  0
 11 12  1  0
 12 13  1  0
 13 14  1  0
 13 15  1  0
 13 16  1  0
 12 17  2  0
 17 18  1  0
 17 19  1  0
 19 20  1  0
 20 21  1  0
 20 22  1  0
 20 23  1  0
 19 24  2  0
 24 25  1  0
  4 26  1  0
 26 27  1  0
 26 28  2  0
 28 29  1  0
 28 30  1  0
 30 31  1  0
 30  2  2  0
 24 11  1  0
M  CHG  3   3  -1  24   1  27  -1
M  END
>  <UniqueID>  (48) 
46

>  <SMILES>  (48) 
Cc1c(Br)c(C(F)(F)F)[nH+]n1CC(=O)/N=c1\[n-]cccc1[O-]

>  <Energy>  (48) 
62.534025439139604

>  <Genealogy>  (48) 
Cc1c(Br)c(C(F)(F)F)[nH+]n1CC(=O)N=c1[n-]cccc1[O-] (protonated)
Cc1c(Br)c(C(F)(F)F)[nH+]n1CC(=O)/N=c1\[n-]cccc1[O-] (cis-trans isomerization)
Cc1c(Br)c(C(F)(F)F)[nH+]n1CC(=O)/N=c1\[n-]cccc1[O-] (3D coordinates assigned)
Cc1c(Br)c(C(F)(F)F)[nH+]n1CC(=O)/N=c1\[n-]cccc1[O-] (optimized conformer: 62.534025439139604 kcal/mol)

>  <smiles>  (48) 
Cc1c(Br)c(C(F)(F)F)nn1CC(=O)N=c1[nH]cccc1O

>  <score_type>  (48) 
oracle

>  <origin>  (48) 
adg

>  <m_score__min__energy>  (48) 
-10.630000000000001

>  <m_primary>  (48) 
energy

$$$$
48:0
     RDKit          3D

 70 72  0  0  0  0  0  0  0  0999 V2000
   58.1450   26.8840   42.9040 C   0  0  0  0  0  0  0  0  0  0  0  0
   58.4470   27.3950   44.2840 C   0  0  0  0  0  0  0  0  0  0  0  0
   58.5990   28.7310   44.4370 N   0  0  0  0  0  0  0  0  0  0  0  0
   58.7930   29.3160   45.6450 C   0  0  0  0  0  0  0  0  0  0  0  0
   59.0510   30.8090   45.6450 C   0  0  0  0  0  0  0  0  0  0  0  0
   57.7590   31.6270   45.4680 C   0  0  0  0  0  0  0  0  0  0  0  0
   57.7050   32.4450   44.1660 C   0  0  0  0  0  0  0  0  0  0  0  0
   58.6150   33.6840   44.1800 C   0  0  0  0  0  0  0  0  0  0  0  0
   58.3960   34.4590   45.3960 N   0  0  0  0  0  0  0  0  0  0  0  0
   59.4620   34.9050   46.2400 C   0  0  0  0  0  0  0  0  0  0  0  0
   59.7930   36.1250   46.2430 O   0  0  0  0  0  0  0  0  0  0  0  0
   60.1460   33.9480   47.1390 C   0  0  0  0  0  0  0  0  0  0  0  0
   59.8650   33.9370   48.5160 C   0  0  0  0  0  0  0  0  0  0  0  0
   60.5410   33.0630   49.3710 C   0  0  0  0  0  0  0  0  0  0  0  0
   61.5320   32.2090   48.8700 C   0  0  0  0  0  0  0  0  0  0  0  0
   62.2590   31.3000   49.7760 C   0  0  0  0  0  0  0  0  0  0  0  0
   61.5920   30.1510   50.2360 C   0  0  0  0  0  0  0  0  0  0  0  0
   62.2270   29.2610   51.1040 C   0  0  0  0  0  0  0  0  0  0  0  0
   63.5350   29.5070   51.5220 C   0  0  0  0  0  0  0  0  0  0  0  0
   64.2150   30.6380   51.0660 C   0  0  0  0  0  0  0  0  0  0  0  0
   63.5940   31.5450   50.1880 C   0  0  0  0  0  0  0  0  0  0  0  0
   64.5360   32.9220   49.5800 S   0  0  0  0  0  0  0  0  0  0  0  0
   66.2220   32.6680   49.8640 N   0  0  0  0  0  0  0  0  0  0  0  0
   64.1220   34.1790   50.2930 O   0  0  0  0  0  0  0  0  0  0  0  0
   64.2920   33.1130   48.1110 O   0  0  0  0  0  0  0  0  0  0  0  0
   61.7910   32.1860   47.4940 C   0  0  0  0  0  0  0  0  0  0  0  0
   61.1080   33.0540   46.6340 C   0  0  0  0  0  0  0  0  0  0  0  0
   58.7780   28.5480   46.7860 N   0  0  0  0  0  0  0  0  0  0  0  0
   58.9840   29.1660   48.1090 C   0  0  0  0  0  0  0  0  0  0  0  0
   58.6200   27.1850   46.6820 C   0  0  0  0  0  0  0  0  0  0  0  0
   58.5630   26.4730   47.7230 O   0  0  0  0  0  0  0  0  0  0  0  0
   58.5080   26.5610   45.4210 C   0  0  0  0  0  0  0  0  0  0  0  0
   58.4930   25.0370   45.3140 C   0  0  0  0  0  0  0  0  0  0  0  0
   57.0630   24.4050   45.3220 C   0  0  0  0  0  0  0  0  0  0  0  0
   56.7110   23.9350   43.8980 C   0  0  0  0  0  0  0  0  0  0  0  0
   56.9610   23.2020   46.2790 C   0  0  0  0  0  0  0  0  0  0  0  0
   56.0570   25.4090   45.7270 C   0  0  0  0  0  0  0  0  0  0  0  0
   55.2750   26.1990   46.0490 N   0  0  0  0  0  0  0  0  0  0  0  0
   57.5866   25.9391   42.9770 H   0  0  0  0  0  0  0  0  0  0  0  0
   57.5404   27.6263   42.3623 H   0  0  0  0  0  0  0  0  0  0  0  0
   59.0869   26.7124   42.3623 H   0  0  0  0  0  0  0  0  0  0  0  0
   59.5171   31.0871   46.6018 H   0  0  0  0  0  0  0  0  0  0  0  0
   59.7110   31.0356   44.7947 H   0  0  0  0  0  0  0  0  0  0  0  0
   56.9067   30.9317   45.4744 H   0  0  0  0  0  0  0  0  0  0  0  0
   57.7255   32.3491   46.2971 H   0  0  0  0  0  0  0  0  0  0  0  0
   58.0146   31.7954   43.3340 H   0  0  0  0  0  0  0  0  0  0  0  0
   56.6716   32.8047   44.0534 H   0  0  0  0  0  0  0  0  0  0  0  0
   59.6662   33.3627   44.1388 H   0  0  0  0  0  0  0  0  0  0  0  0
   58.3785   34.3116   43.3081 H   0  0  0  0  0  0  0  0  0  0  0  0
   59.1069   34.6219   48.9237 H   0  0  0  0  0  0  0  0  0  0  0  0
   60.2939   33.0454   50.4427 H   0  0  0  0  0  0  0  0  0  0  0  0
   60.5608   29.9516   49.9091 H   0  0  0  0  0  0  0  0  0  0  0  0
   61.6958   28.3654   51.4585 H   0  0  0  0  0  0  0  0  0  0  0  0
   64.0315   28.8088   52.2120 H   0  0  0  0  0  0  0  0  0  0  0  0
   65.2478   30.8219   51.3970 H   0  0  0  0  0  0  0  0  0  0  0  0
   66.3270   31.7040   50.2590 H   0  0  0  0  0  0  0  0  0  0  0  0
   66.7070   32.6740   48.9370 H   0  0  0  0  0  0  0  0  0  0  0  0
   62.5336   31.4836   47.0876 H   0  0  0  0  0  0  0  0  0  0  0  0
   61.3249   33.0370   45.5557 H   0  0  0  0  0  0  0  0  0  0  0  0
   58.7410   28.4370   48.8961 H   0  0  0  0  0  0  0  0  0  0  0  0
   60.0344   29.4770   48.2089 H   0  0  0  0  0  0  0  0  0  0  0  0
   58.3303   30.0450   48.2089 H   0  0  0  0  0  0  0  0  0  0  0  0
   58.9899   24.7528   44.3747 H   0  0  0  0  0  0  0  0  0  0  0  0
   59.0115   24.6538   46.2052 H   0  0  0  0  0  0  0  0  0  0  0  0
   56.0525   23.0557   43.9544 H   0  0  0  0  0  0  0  0  0  0  0  0
   56.1957   24.7452   43.3613 H   0  0  0  0  0  0  0  0  0  0  0  0
   57.6335   23.6684   43.3613 H   0  0  0  0  0  0  0  0  0  0  0  0
   56.9912   23.5576   47.3195 H   0  0  0  0  0  0  0  0  0  0  0  0
   56.0146   22.6706   46.1004 H   0  0  0  0  0  0  0  0  0  0  0  0
   57.8044   22.5188   46.1004 H   0  0  0  0  0  0  0  0  0  0  0  0
  1  2  1  0
  2  3  1  0
  3  4  2  0
  4  5  1  0
  5  6  1  0
  6  7  1  0
  7  8  1  0
  8  9  1  0
  9 10  1  0
 10 11  2  0
 10 12  1  0
 12 13  2  0
 13 14  1  0
 14 15  2  0
 15 16  1  0
 16 17  2  0
 17 18  1  0
 18 19  2  0
 19 20  1  0
 20 21  2  0
 21 22  1  0
 22 23  1  0
 22 24  2  0
 22 25  2  0
 15 26  1  0
 26 27  2  0
  4 28  1  0
 28 29  1  0
 28 30  1  0
 30 31  2  0
 30 32  1  0
 32 33  1  0
 33 34  1  0
 34 35  1  0
 34 36  1  0
 34 37  1  0
 37 38  3  0
 32  2  2  0
 27 12  1  0
 21 16  1  0
  1 39  1  0
  1 40  1  0
  1 41  1  0
  5 42  1  0
  5 43  1  0
  6 44  1  0
  6 45  1  0
  7 46  1  0
  7 47  1  0
  8 48  1  0
  8 49  1  0
 13 50  1  0
 14 51  1  0
 17 52  1  0
 18 53  1  0
 19 54  1  0
 20 55  1  0
 23 56  1  0
 23 57  1  0
 26 58  1  0
 27 59  1  0
 29 60  1  0
 29 61  1  0
 29 62  1  0
 33 63  1  0
 33 64  1  0
 35 65  1  0
 35 66  1  0
 35 67  1  0
 36 68  1  0
 36 69  1  0
 36 70  1  0
M  CHG  1   9  -1
M  END
>  <UniqueID>  (49) 
47

>  <SMILES>  (49) 
Cc1nc(CCCC[N-]C(=O)c2ccc(-c3ccccc3S(N)(=O)=O)cc2)n(C)c(=O)c1CC(C)(C)C#N

>  <Energy>  (49) 
80.31866589128413

>  <Genealogy>  (49) 
Cc1nc(CCCC[N-]C(=O)c2ccc(-c3ccccc3S(N)(=O)=O)cc2)n(C)c(=O)c1CC(C)(C)C#N (protonated)
Cc1nc(CCCC[N-]C(=O)c2ccc(-c3ccccc3S(N)(=O)=O)cc2)n(C)c(=O)c1CC(C)(C)C#N (3D coordinates assigned)
Cc1nc(CCCC[N-]C(=O)c2ccc(-c3ccccc3S(N)(=O)=O)cc2)n(C)c(=O)c1CC(C)(C)C#N (optimized conformer: 80.31866589128413 kcal/mol)

>  <smiles>  (49) 
Cc1nc(CCCCNC(=O)c2ccc(-c3ccccc3S(N)(=O)=O)cc2)n(C)c(=O)c1CC(C)(C)C#N

>  <score_type>  (49) 
oracle

>  <origin>  (49) 
adg

>  <m_score__min__energy>  (49) 
-11.380000000000001

>  <m_primary>  (49) 
energy

$$$$
49:0
     RDKit          3D

 48 52  0  0  1  0  0  0  0  0999 V2000
   62.4030   31.9270   47.7830 O   0  0  0  0  0  0  0  0  0  0  0  0
   61.3120   32.2380   47.2750 C   0  0  0  0  0  0  0  0  0  0  0  0
   60.5180   31.5360   46.4390 N   0  0  0  0  0  0  0  0  0  0  0  0
   59.4030   32.0610   46.0240 C   0  0  0  0  0  0  0  0  0  0  0  0
   58.4460   31.4840   45.1520 C   0  0  0  0  0  0  0  0  0  0  0  0
   58.6290   30.1860   44.6140 N   0  0  0  0  0  0  0  0  0  0  0  0
   58.5550   29.1580   45.3890 C   0  0  0  0  0  0  0  0  0  0  0  0
   57.7450   28.0710   45.0450 C   0  0  0  0  0  0  0  0  0  0  0  0
   57.6540   26.9530   45.8710 C   0  0  0  0  0  0  0  0  0  0  0  0
   56.8160   25.8350   45.5120 C   0  0  0  0  0  0  0  0  0  0  0  0
   55.5210   25.6750   45.9760 C   0  0  0  0  0  0  0  0  0  0  0  0
   54.7310   24.5910   45.6180 C   0  0  0  0  0  0  0  0  0  0  0  0
   55.2020   23.6100   44.7720 C   0  0  0  0  0  0  0  0  0  0  0  0
   56.4870   23.7550   44.3020 C   0  0  0  0  0  0  0  0  0  0  0  0
   57.0060   22.7040   43.3900 C   0  0  0  0  0  0  0  0  0  0  0  0
   55.9240   22.2800   42.6230 O   0  0  0  0  0  0  0  0  0  0  0  0
   57.2770   24.8390   44.6610 C   0  0  0  0  0  0  0  0  0  0  0  0
   58.3970   27.0120   46.9990 N   0  0  0  0  0  0  0  0  0  0  0  0
   59.1710   28.0670   47.3140 C   0  0  0  0  0  0  0  0  0  0  0  0
   59.9420   28.0490   48.5510 C   0  0  0  0  0  0  0  0  0  0  0  0
   60.3930   29.2070   49.1440 C   0  0  0  0  0  0  0  0  0  0  0  0
   61.1200   29.1060   50.3210 C   0  0  0  0  0  0  0  0  0  0  0  0
   61.3930   27.9000   50.8970 C   0  0  0  0  0  0  0  0  0  0  0  0
   60.9240   26.7470   50.2770 C   0  0  0  0  0  0  0  0  0  0  0  0
   60.2260   26.8750   49.1420 N   0  0  0  0  0  0  0  0  0  0  0  0
   59.2650   29.1460   46.5260 N   0  0  0  0  0  0  0  0  0  0  0  0
   57.3240   32.1870   44.8220 C   0  0  0  0  0  0  0  0  0  0  0  0
   57.0180   33.4460   45.2670 C   0  0  0  0  0  0  0  0  0  0  0  0
   57.9360   34.0380   46.1210 C   0  0  0  0  0  0  0  0  0  0  0  0
   59.0670   33.3160   46.4480 C   0  0  0  0  0  0  0  0  0  0  0  0
   60.4690   33.8340   47.5600 S   0  0  0  0  0  0  0  0  0  0  0  0
   60.8610   30.5530   46.1560 H   0  0  0  0  0  0  0  0  0  0  0  0
   57.1707   28.0993   44.1073 H   0  0  0  0  0  0  0  0  0  0  0  0
   55.1031   26.4346   46.6530 H   0  0  0  0  0  0  0  0  0  0  0  0
   53.7090   24.5134   46.0174 H   0  0  0  0  0  0  0  0  0  0  0  0
   54.5787   22.7501   44.4856 H   0  0  0  0  0  0  0  0  0  0  0  0
   57.7930   23.1173   42.7420 H   0  0  0  0  0  0  0  0  0  0  0  0
   57.4469   21.8687   43.9539 H   0  0  0  0  0  0  0  0  0  0  0  0
   56.0090   22.5810   41.6750 H   0  0  0  0  0  0  0  0  0  0  0  0
   58.2985   24.9110   44.2594 H   0  0  0  0  0  0  0  0  0  0  0  0
   58.3890   26.2240   47.6700 H   0  0  0  0  0  0  0  0  0  0  0  0
   60.1818   30.1888   48.6951 H   0  0  0  0  0  0  0  0  0  0  0  0
   61.4866   30.0241   50.8034 H   0  0  0  0  0  0  0  0  0  0  0  0
   61.9712   27.8409   51.8309 H   0  0  0  0  0  0  0  0  0  0  0  0
   61.1216   25.7546   50.7085 H   0  0  0  0  0  0  0  0  0  0  0  0
   56.6064   31.7031   44.1430 H   0  0  0  0  0  0  0  0  0  0  0  0
   56.0939   33.9595   44.9632 H   0  0  0  0  0  0  0  0  0  0  0  0
   57.7692   35.0478   46.5241 H   0  0  0  0  0  0  0  0  0  0  0  0
  1  2  2  0
  2  3  1  0
  3  4  1  0
  4  5  2  0
  5  6  1  0
  6  7  2  0
  7  8  1  0
  8  9  2  0
  9 10  1  0
 10 11  2  0
 11 12  1  0
 12 13  2  0
 13 14  1  0
 14 15  1  0
 15 16  1  0
 14 17  2  0
  9 18  1  0
 18 19  1  0
 19 20  1  0
 20 21  2  0
 21 22  1  0
 22 23  2  0
 23 24  1  0
 24 25  2  0
 19 26  2  0
  5 27  1  0
 27 28  2  0
 28 29  1  0
 29 30  2  0
 30 31  1  0
 31  2  1  0
 30  4  1  0
 26  7  1  0
 17 10  1  0
 25 20  1  0
  3 32  1  0
  8 33  1  0
 11 34  1  0
 12 35  1  0
 13 36  1  0
 15 37  1  0
 15 38  1  0
 16 39  1  0
 17 40  1  0
 18 41  1  0
 21 42  1  0
 22 43  1  0
 23 44  1  0
 24 45  1  0
 27 46  1  0
 28 47  1  0
 29 48  1  0
M  END
>  <smiles>  (50) 
O=c1[nH]c2c(N=c3cc(-c4cccc(CO)c4)[nH]c(-c4ccccn4)n3)cccc2s1

>  <score_type>  (50) 
oracle

>  <origin>  (50) 
adg

>  <m_score__min__energy>  (50) 
-9.3399999999999999

>  <m_primary>  (50) 
energy

$$$$
50:0
     RDKit          3D

 36 37  0  0  0  0  0  0  0  0999 V2000
   58.0894   29.1003   43.3356 H   0  0  0  0  0  0  0  0  0  0  0  0
   57.6740   29.5080   44.2690 C   0  0  0  0  0  0  0  0  0  0  0  0
   56.7390   28.6500   45.0260 C   0  0  0  0  0  0  0  0  0  0  0  0
   55.5340   29.0170   45.1200 O   0  0  0  0  0  0  0  0  0  0  0  0
   57.1410   27.3530   45.6160 C   0  0  0  0  0  0  0  0  0  0  0  0
   58.5070   27.0530   45.7710 C   0  0  0  0  0  0  0  0  0  0  0  0
   59.2661   27.7768   45.4396 H   0  0  0  0  0  0  0  0  0  0  0  0
   58.9060   25.8420   46.3430 C   0  0  0  0  0  0  0  0  0  0  0  0
   59.9763   25.6094   46.4451 H   0  0  0  0  0  0  0  0  0  0  0  0
   57.9490   24.9270   46.7850 C   0  0  0  0  0  0  0  0  0  0  0  0
   58.2649   23.9737   47.2337 H   0  0  0  0  0  0  0  0  0  0  0  0
   56.5890   25.2230   46.6570 C   0  0  0  0  0  0  0  0  0  0  0  0
   55.8369   24.5043   47.0144 H   0  0  0  0  0  0  0  0  0  0  0  0
   56.1790   26.4280   46.0770 C   0  0  0  0  0  0  0  0  0  0  0  0
   54.8190   26.7120   45.9920 O   0  0  0  0  0  0  0  0  0  0  0  0
   58.0590   30.7450   44.6260 C   0  0  0  0  0  0  0  0  0  0  0  0
   58.7930   30.8390   45.4399 H   0  0  0  0  0  0  0  0  0  0  0  0
   57.5740   31.9590   44.0130 N   0  0  0  0  0  0  0  0  0  0  0  0
   58.0860   32.3870   42.7050 C   0  0  0  0  0  0  0  0  0  0  0  0
   58.9226   33.0864   42.8497 H   0  0  0  0  0  0  0  0  0  0  0  0
   58.4355   31.5085   42.1427 H   0  0  0  0  0  0  0  0  0  0  0  0
   57.2834   32.8867   42.1427 H   0  0  0  0  0  0  0  0  0  0  0  0
   57.0090   32.9930   44.8900 C   0  0  0  0  0  0  0  0  0  0  0  0
   56.5850   33.7984   44.2723 H   0  0  0  0  0  0  0  0  0  0  0  0
   56.2255   32.5384   45.5141 H   0  0  0  0  0  0  0  0  0  0  0  0
   58.0690   33.5650   45.7860 C   0  0  0  0  0  0  0  0  0  0  0  0
   58.9750   34.5210   45.2950 C   0  0  0  0  0  0  0  0  0  0  0  0
   58.9072   34.8543   44.2489 H   0  0  0  0  0  0  0  0  0  0  0  0
   59.9630   35.0500   46.1330 C   0  0  0  0  0  0  0  0  0  0  0  0
   60.6636   35.8057   45.7482 H   0  0  0  0  0  0  0  0  0  0  0  0
   60.0600   34.6180   47.4600 C   0  0  0  0  0  0  0  0  0  0  0  0
   60.8357   35.0357   48.1187 H   0  0  0  0  0  0  0  0  0  0  0  0
   59.1730   33.6570   47.9490 C   0  0  0  0  0  0  0  0  0  0  0  0
   59.2540   33.3148   48.9913 H   0  0  0  0  0  0  0  0  0  0  0  0
   58.1820   33.1290   47.1160 C   0  0  0  0  0  0  0  0  0  0  0  0
   57.4880   32.3689   47.5041 H   0  0  0  0  0  0  0  0  0  0  0  0
  1  2  1  0
  2  3  1  0
  3  4  2  0
  3  5  1  0
  5  6  2  0
  6  7  1  0
  6  8  1  0
  8  9  1  0
  8 10  2  0
 10 11  1  0
 10 12  1  0
 12 13  1  0
 12 14  2  0
 14 15  1  0
  2 16  2  0
 16 17  1  0
 16 18  1  0
 18 19  1  0
 19 20  1  0
 19 21  1  0
 19 22  1  0
 18 23  1  0
 23 24  1  0
 23 25  1  0
 23 26  1  0
 26 27  2  0
 27 28  1  0
 27 29  1  0
 29 30  1  0
 29 31  2  0
 31 32  1  0
 31 33  1  0
 33 34  1  0
 33 35  2  0
 35 36  1  0
 14  5  1  0
 35 26  1  0
M  CHG  1  15  -1
M  END
>  <UniqueID>  (51) 
48

>  <SMILES>  (51) 
CN(/C=C\C(=O)c1ccccc1[O-])Cc1ccccc1

>  <Energy>  (51) 
43.92323775487465

>  <Genealogy>  (51) 
CN(C=CC(=O)c1ccccc1[O-])Cc1ccccc1 (protonated)
CN(/C=C\C(=O)c1ccccc1[O-])Cc1ccccc1 (cis-trans isomerization)
CN(/C=C\C(=O)c1ccccc1[O-])Cc1ccccc1 (3D coordinates assigned)
CN(/C=C\C(=O)c1ccccc1[O-])Cc1ccccc1 (optimized conformer: 43.92323775487465 kcal/mol)

>  <smiles>  (51) 
CN(C=CC(=O)c1ccccc1O)Cc1ccccc1

>  <score_type>  (51) 
oracle

>  <origin>  (51) 
adg

>  <m_score__min__energy>  (51) 
-11.98

>  <m_primary>  (51) 
energy

$$$$
51:0
     RDKit          3D

 53 56  0  0  0  0  0  0  0  0999 V2000
   58.9240   34.2820   47.8730 C   0  0  0  0  0  0  0  0  0  0  0  0
   58.6700   33.7450   46.4940 C   0  0  0  0  0  0  0  0  0  0  0  0
   59.3170   34.3090   45.3880 C   0  0  0  0  0  0  0  0  0  0  0  0
   59.0510   33.8360   44.1010 C   0  0  0  0  0  0  0  0  0  0  0  0
   58.1180   32.8050   43.8990 C   0  0  0  0  0  0  0  0  0  0  0  0
   57.7930   32.3560   42.4980 C   0  0  0  0  0  0  0  0  0  0  0  0
   57.4370   32.2530   45.0030 C   0  0  0  0  0  0  0  0  0  0  0  0
   56.4520   31.2290   44.7890 N   0  0  0  0  0  0  0  0  0  0  0  0
   56.8070   29.5300   44.7150 S   0  0  0  0  0  0  0  0  0  0  0  0
   57.2570   29.1480   43.3330 O   0  0  0  0  0  0  0  0  0  0  0  0
   55.5670   28.7490   45.0470 O   0  0  0  0  0  0  0  0  0  0  0  0
   58.0520   29.1740   45.9090 C   0  0  0  0  0  0  0  0  0  0  0  0
   57.9490   27.9990   46.6940 C   0  0  0  0  0  0  0  0  0  0  0  0
   58.8290   27.7710   47.7670 C   0  0  0  0  0  0  0  0  0  0  0  0
   59.7980   28.7400   48.0250 C   0  0  0  0  0  0  0  0  0  0  0  0
   59.9080   29.8670   47.2600 C   0  0  0  0  0  0  0  0  0  0  0  0
   59.0610   30.1200   46.1860 C   0  0  0  0  0  0  0  0  0  0  0  0
   60.8080   30.6990   47.8070 N   0  0  0  0  0  0  0  0  0  0  0  0
   61.2160   30.0600   48.9340 C   0  0  0  0  0  0  0  0  0  0  0  0
   62.0710   30.7300   49.9790 C   0  0  0  0  0  0  0  0  0  0  0  0
   61.5820   32.0450   50.2590 O   0  0  0  0  0  0  0  0  0  0  0  0
   60.3390   32.3360   50.8460 C   0  0  0  0  0  0  0  0  0  0  0  0
   60.2640   33.4050   51.7520 C   0  0  0  0  0  0  0  0  0  0  0  0
   59.0420   33.7630   52.3250 C   0  0  0  0  0  0  0  0  0  0  0  0
   57.8860   33.0460   52.0080 C   0  0  0  0  0  0  0  0  0  0  0  0
   57.9490   31.9690   51.1200 C   0  0  0  0  0  0  0  0  0  0  0  0
   59.1690   31.6090   50.5440 C   0  0  0  0  0  0  0  0  0  0  0  0
   60.6450   28.8300   49.0710 N   0  0  0  0  0  0  0  0  0  0  0  0
   60.7470   27.9060   50.2010 C   0  0  0  0  0  0  0  0  0  0  0  0
   57.7280   32.7250   46.2960 C   0  0  0  0  0  0  0  0  0  0  0  0
   58.5788   33.5521   48.6201 H   0  0  0  0  0  0  0  0  0  0  0  0
   60.0016   34.4596   48.0046 H   0  0  0  0  0  0  0  0  0  0  0  0
   58.3778   35.2277   48.0046 H   0  0  0  0  0  0  0  0  0  0  0  0
   60.0374   35.1275   45.5331 H   0  0  0  0  0  0  0  0  0  0  0  0
   59.5758   34.2739   43.2391 H   0  0  0  0  0  0  0  0  0  0  0  0
   57.1485   31.4655   42.5386 H   0  0  0  0  0  0  0  0  0  0  0  0
   57.2691   33.1639   41.9663 H   0  0  0  0  0  0  0  0  0  0  0  0
   58.7242   32.1107   41.9663 H   0  0  0  0  0  0  0  0  0  0  0  0
   57.1716   27.2564   46.4614 H   0  0  0  0  0  0  0  0  0  0  0  0
   58.7556   26.8610   48.3807 H   0  0  0  0  0  0  0  0  0  0  0  0
   59.1742   31.0268   45.5736 H   0  0  0  0  0  0  0  0  0  0  0  0
   61.0480   31.6670   47.4950 H   0  0  0  0  0  0  0  0  0  0  0  0
   62.0498   30.1318   50.9019 H   0  0  0  0  0  0  0  0  0  0  0  0
   63.1009   30.8067   49.6002 H   0  0  0  0  0  0  0  0  0  0  0  0
   61.1743   33.9649   52.0126 H   0  0  0  0  0  0  0  0  0  0  0  0
   58.9898   34.6093   53.0257 H   0  0  0  0  0  0  0  0  0  0  0  0
   56.9235   33.3299   52.4586 H   0  0  0  0  0  0  0  0  0  0  0  0
   57.0373   31.4046   50.8746 H   0  0  0  0  0  0  0  0  0  0  0  0
   59.2176   30.7552   49.8521 H   0  0  0  0  0  0  0  0  0  0  0  0
   60.6847   28.4705   51.1430 H   0  0  0  0  0  0  0  0  0  0  0  0
   59.9238   27.1779   50.1547 H   0  0  0  0  0  0  0  0  0  0  0  0
   61.7092   27.3750   50.1547 H   0  0  0  0  0  0  0  0  0  0  0  0
   57.2101   32.2885   47.1627 H   0  0  0  0  0  0  0  0  0  0  0  0
  1  2  1  0
  2  3  2  0
  3  4  1  0
  4  5  2  0
  5  6  1  0
  5  7  1  0
  7  8  1  0
  8  9  1  0
  9 10  2  0
  9 11  2  0
  9 12  1  0
 12 13  2  0
 13 14  1  0
 14 15  2  0
 15 16  1  0
 16 17  2  0
 16 18  1  0
 18 19  2  0
 19 20  1  0
 20 21  1  0
 21 22  1  0
 22 23  2  0
 23 24  1  0
 24 25  2  0
 25 26  1  0
 26 27  2  0
 19 28  1  0
 28 29  1  0
  7 30  2  0
 30  2  1  0
 17 12  1  0
 27 22  1  0
 28 15  1  0
  1 31  1  0
  1 32  1  0
  1 33  1  0
  3 34  1  0
  4 35  1  0
  6 36  1  0
  6 37  1  0
  6 38  1  0
 13 39  1  0
 14 40  1  0
 17 41  1  0
 18 42  1  0
 20 43  1  0
 20 44  1  0
 23 45  1  0
 24 46  1  0
 25 47  1  0
 26 48  1  0
 27 49  1  0
 29 50  1  0
 29 51  1  0
 29 52  1  0
 30 53  1  0
M  CHG  2   8  -1  18   1
M  END
>  <UniqueID>  (52) 
49

>  <SMILES>  (52) 
Cc1ccc(C)c([N-]S(=O)(=O)c2ccc3c(c2)[nH+]c(COc2ccccc2)n3C)c1

>  <Energy>  (52) 
96.74068280169132

>  <Genealogy>  (52) 
Cc1ccc(C)c([N-]S(=O)(=O)c2ccc3c(c2)[nH+]c(COc2ccccc2)n3C)c1 (protonated)
Cc1ccc(C)c([N-]S(=O)(=O)c2ccc3c(c2)[nH+]c(COc2ccccc2)n3C)c1 (3D coordinates assigned)
Cc1ccc(C)c([N-]S(=O)(=O)c2ccc3c(c2)[nH+]c(COc2ccccc2)n3C)c1 (optimized conformer: 96.74068280169132 kcal/mol)

>  <smiles>  (52) 
Cc1ccc(C)c(NS(=O)(=O)c2ccc3c(c2)nc(COc2ccccc2)n3C)c1

>  <score_type>  (52) 
oracle

>  <origin>  (52) 
adg

>  <m_score__min__energy>  (52) 
-9.3000000000000007

>  <m_primary>  (52) 
energy

$$$$
52:0
     RDKit          3D

 30 31  0  0  0  0  0  0  0  0999 V2000
   54.2234   30.0039   43.9189 H   0  0  0  0  0  0  0  0  0  0  0  0
   55.2460   29.7880   44.2620 C   0  0  0  0  0  0  0  0  0  0  0  0
   55.5190   28.6080   44.8770 N   0  0  0  0  0  0  0  0  0  0  0  0
   56.7690   28.3090   45.3190 C   0  0  0  0  0  0  0  0  0  0  0  0
   57.0890   26.6450   46.1940 Br  0  0  0  0  0  0  0  0  0  0  0  0
   57.8130   29.2210   45.1430 C   0  0  0  0  0  0  0  0  0  0  0  0
   58.8220   28.9853   45.5124 H   0  0  0  0  0  0  0  0  0  0  0  0
   57.5650   30.4450   44.4890 C   0  0  0  0  0  0  0  0  0  0  0  0
   58.4890   31.3450   44.2950 N   0  0  0  0  0  0  0  0  0  0  0  0
   58.3460   32.6290   43.6700 C   0  0  0  0  0  0  0  0  0  0  0  0
   57.7470   32.7040   42.5640 O   0  0  0  0  0  0  0  0  0  0  0  0
   59.0950   33.8290   44.1930 C   0  0  0  0  0  0  0  0  0  0  0  0
   60.0726   33.5009   44.5759 H   0  0  0  0  0  0  0  0  0  0  0  0
   59.2176   34.5454   43.3673 H   0  0  0  0  0  0  0  0  0  0  0  0
   58.3520   34.5010   45.2840 N   0  0  0  0  0  0  0  0  0  0  0  0
   57.2740   33.6610   45.8570 C   0  0  0  0  0  0  0  0  0  0  0  0
   56.4693   34.3189   46.2169 H   0  0  0  0  0  0  0  0  0  0  0  0
   56.9234   32.9848   45.0634 H   0  0  0  0  0  0  0  0  0  0  0  0
   57.7590   32.7870   47.0320 C   0  0  0  0  0  0  0  0  0  0  0  0
   57.5042   33.2849   47.9792 H   0  0  0  0  0  0  0  0  0  0  0  0
   57.2647   31.8066   46.9655 H   0  0  0  0  0  0  0  0  0  0  0  0
   59.1540   32.5900   46.9760 O   0  0  0  0  0  0  0  0  0  0  0  0
   59.8260   33.8180   47.1950 C   0  0  0  0  0  0  0  0  0  0  0  0
   59.7345   34.0823   48.2588 H   0  0  0  0  0  0  0  0  0  0  0  0
   60.8747   33.6762   46.8947 H   0  0  0  0  0  0  0  0  0  0  0  0
   59.2560   34.9820   46.3470 C   0  0  0  0  0  0  0  0  0  0  0  0
   58.6976   35.6620   47.0072 H   0  0  0  0  0  0  0  0  0  0  0  0
   60.1007   35.4978   45.8669 H   0  0  0  0  0  0  0  0  0  0  0  0
   56.2600   30.7280   44.0640 C   0  0  0  0  0  0  0  0  0  0  0  0
   56.0348   31.6877   43.5758 H   0  0  0  0  0  0  0  0  0  0  0  0
  1  2  1  0
  2  3  1  0
  3  4  1  0
  4  5  1  0
  4  6  2  0
  6  7  1  0
  6  8  1  0
  8  9  2  0
  9 10  1  0
 10 11  2  0
 10 12  1  0
 12 13  1  0
 12 14  1  0
 12 15  1  0
 15 16  1  0
 16 17  1  0
 16 18  1  0
 16 19  1  0
 19 20  1  0
 19 21  1  0
 19 22  1  0
 22 23  1  0
 23 24  1  0
 23 25  1  0
 23 26  1  0
 26 27  1  0
 26 28  1  0
  8 29  1  0
 29 30  1  0
 29  2  2  0
 26 15  1  0
M  CHG  1   3  -1
M  END
>  <UniqueID>  (53) 
50

>  <SMILES>  (53) 
O=C(CN1CCOCC1)/N=c1/cc[n-]c(Br)c1

>  <Energy>  (53) 
51.625575400297144

>  <Genealogy>  (53) 
O=C(CN1CCOCC1)N=c1cc[n-]c(Br)c1 (protonated)
O=C(CN1CCOCC1)/N=c1/cc[n-]c(Br)c1 (cis-trans isomerization)
O=C(CN1CCOCC1)/N=c1/cc[n-]c(Br)c1 (3D coordinates assigned)
O=C(CN1CCOCC1)/N=c1/cc[n-]c(Br)c1 (nonaromatic ring conformer: 51.625575400297144 kcal/mol)

>  <smiles>  (53) 
O=C(CN1CCOCC1)N=c1cc[nH]c(Br)c1

>  <score_type>  (53) 
oracle

>  <origin>  (53) 
adg

>  <m_score__min__energy>  (53) 
-8.5

>  <m_primary>  (53) 
energy

$$$$
53:0
     RDKit          3D

 34 36  0  0  0  0  0  0  0  0999 V2000
   58.4590   22.6240   45.2800 C   0  0  0  0  0  0  0  0  0  0  0  0
   58.4130   23.5460   46.3610 O   0  0  0  0  0  0  0  0  0  0  0  0
   57.8460   24.8130   46.2120 C   0  0  0  0  0  0  0  0  0  0  0  0
   56.4520   24.9400   46.1710 C   0  0  0  0  0  0  0  0  0  0  0  0
   55.6510   23.8090   46.2820 O   0  0  0  0  0  0  0  0  0  0  0  0
   55.8620   26.1990   46.0200 C   0  0  0  0  0  0  0  0  0  0  0  0
   54.4730   26.3100   45.9940 O   0  0  0  0  0  0  0  0  0  0  0  0
   56.6670   27.3380   45.8960 C   0  0  0  0  0  0  0  0  0  0  0  0
   58.0670   27.2250   45.9180 C   0  0  0  0  0  0  0  0  0  0  0  0
   58.6590   25.9610   46.1190 C   0  0  0  0  0  0  0  0  0  0  0  0
   60.1660   25.8630   46.1890 C   0  0  0  0  0  0  0  0  0  0  0  0
   60.7440   27.1330   46.8260 C   0  0  0  0  0  0  0  0  0  0  0  0
   60.1960   28.3270   46.1840 N   0  0  0  0  0  0  0  0  0  0  0  0
   58.9560   28.4160   45.7920 C   0  0  0  0  0  0  0  0  0  0  0  0
   58.5070   29.6750   45.1530 C   0  0  0  0  0  0  0  0  0  0  0  0
   58.8500   30.9240   45.7030 C   0  0  0  0  0  0  0  0  0  0  0  0
   58.4010   32.1060   45.1040 C   0  0  0  0  0  0  0  0  0  0  0  0
   57.5980   32.0520   43.9620 C   0  0  0  0  0  0  0  0  0  0  0  0
   57.2370   30.8150   43.4200 C   0  0  0  0  0  0  0  0  0  0  0  0
   57.6840   29.6310   44.0140 C   0  0  0  0  0  0  0  0  0  0  0  0
   58.5102   21.5985   45.6747 H   0  0  0  0  0  0  0  0  0  0  0  0
   57.5542   22.7353   44.6644 H   0  0  0  0  0  0  0  0  0  0  0  0
   59.3482   22.8248   44.6644 H   0  0  0  0  0  0  0  0  0  0  0  0
   53.8750   25.5830   46.3710 H   0  0  0  0  0  0  0  0  0  0  0  0
   56.2002   28.3273   45.7807 H   0  0  0  0  0  0  0  0  0  0  0  0
   60.4467   24.9902   46.7968 H   0  0  0  0  0  0  0  0  0  0  0  0
   60.5689   25.7533   45.1713 H   0  0  0  0  0  0  0  0  0  0  0  0
   60.4891   27.1488   47.8959 H   0  0  0  0  0  0  0  0  0  0  0  0
   61.8361   27.1297   46.6946 H   0  0  0  0  0  0  0  0  0  0  0  0
   59.4738   30.9713   46.6078 H   0  0  0  0  0  0  0  0  0  0  0  0
   58.6807   33.0795   45.5330 H   0  0  0  0  0  0  0  0  0  0  0  0
   57.2500   32.9824   43.4896 H   0  0  0  0  0  0  0  0  0  0  0  0
   56.5999   30.7732   42.5243 H   0  0  0  0  0  0  0  0  0  0  0  0
   57.3903   28.6602   43.5881 H   0  0  0  0  0  0  0  0  0  0  0  0
  1  2  1  0
  2  3  1  0
  3  4  2  0
  4  5  1  0
  4  6  1  0
  6  7  1  0
  6  8  2  0
  8  9  1  0
  9 10  2  0
 10 11  1  0
 11 12  1  0
 12 13  1  0
 13 14  2  0
 14 15  1  0
 15 16  2  0
 16 17  1  0
 17 18  2  0
 18 19  1  0
 19 20  2  0
 10  3  1  0
 20 15  1  0
 14  9  1  0
  1 21  1  0
  1 22  1  0
  1 23  1  0
  7 24  1  0
  8 25  1  0
 11 26  1  0
 11 27  1  0
 12 28  1  0
 12 29  1  0
 16 30  1  0
 17 31  1  0
 18 32  1  0
 19 33  1  0
 20 34  1  0
M  CHG  1   5  -1
M  END
>  <UniqueID>  (54) 
51

>  <SMILES>  (54) 
COc1c([O-])c(O)cc2c1CCN=C2c1ccccc1

>  <Energy>  (54) 
50.448133136497376

>  <Genealogy>  (54) 
COc1c([O-])c(O)cc2c1CCN=C2c1ccccc1 (protonated)
COc1c([O-])c(O)cc2c1CCN=C2c1ccccc1 (3D coordinates assigned)
COc1c([O-])c(O)cc2c1CCN=C2c1ccccc1 (nonaromatic ring conformer: 50.448133136497376 kcal/mol)

>  <smiles>  (54) 
COc1c(O)c(O)cc2c1CCN=C2c1ccccc1

>  <score_type>  (54) 
oracle

>  <origin>  (54) 
adg

>  <m_score__min__energy>  (54) 
-9.9900000000000002

>  <m_primary>  (54) 
energy

$$$$
54:0
     RDKit          3D

 64 67  0  0  0  0  0  0  0  0999 V2000
   53.3540   22.2120   46.5020 C   0  0  0  0  0  0  0  0  0  0  0  0
   54.0600   22.2490   45.2610 O   0  0  0  0  0  0  0  0  0  0  0  0
   55.1100   23.1350   44.9600 C   0  0  0  0  0  0  0  0  0  0  0  0
   55.2520   24.3800   45.6080 C   0  0  0  0  0  0  0  0  0  0  0  0
   56.3350   25.2200   45.3030 C   0  0  0  0  0  0  0  0  0  0  0  0
   56.4890   26.5510   45.9940 C   0  0  0  0  0  0  0  0  0  0  0  0
   57.4460   26.4770   47.1000 N   0  0  0  0  0  0  0  0  0  0  0  0
   58.8680   26.5530   46.9350 C   0  0  0  0  0  0  0  0  0  0  0  0
   59.5370   25.5040   46.7360 O   0  0  0  0  0  0  0  0  0  0  0  0
   59.5600   27.8570   47.0160 C   0  0  0  0  0  0  0  0  0  0  0  0
   59.5780   28.5760   48.2220 C   0  0  0  0  0  0  0  0  0  0  0  0
   60.1480   29.8500   48.2780 C   0  0  0  0  0  0  0  0  0  0  0  0
   60.6530   30.4580   47.1200 C   0  0  0  0  0  0  0  0  0  0  0  0
   61.1890   31.8770   47.1620 C   0  0  0  0  0  0  0  0  0  0  0  0
   60.2250   32.8860   47.6670 N   0  0  0  0  0  0  0  0  0  0  0  0
   60.7380   33.7830   48.7210 C   0  0  0  0  0  0  0  0  0  0  0  0
   62.0980   33.3070   49.1490 C   0  0  0  0  0  0  0  0  0  0  0  0
   63.2500   33.7610   48.4880 C   0  0  0  0  0  0  0  0  0  0  0  0
   64.5180   33.3550   48.9200 C   0  0  0  0  0  0  0  0  0  0  0  0
   64.6460   32.4970   50.0180 C   0  0  0  0  0  0  0  0  0  0  0  0
   65.8780   32.1030   50.4320 F   0  0  0  0  0  0  0  0  0  0  0  0
   63.5050   32.0430   50.6840 C   0  0  0  0  0  0  0  0  0  0  0  0
   62.2340   32.4500   50.2560 C   0  0  0  0  0  0  0  0  0  0  0  0
   59.3470   33.7380   46.4170 S   0  0  0  0  0  0  0  0  0  0  0  0
   58.2970   34.6130   47.0440 O   0  0  0  0  0  0  0  0  0  0  0  0
   60.2800   34.6110   45.6240 O   0  0  0  0  0  0  0  0  0  0  0  0
   58.5280   32.5770   45.3800 C   0  0  0  0  0  0  0  0  0  0  0  0
   57.9740   31.3960   45.8980 C   0  0  0  0  0  0  0  0  0  0  0  0
   57.2860   30.5120   45.0540 C   0  0  0  0  0  0  0  0  0  0  0  0
   57.1550   30.8030   43.6900 C   0  0  0  0  0  0  0  0  0  0  0  0
   56.2830   29.7040   42.6340 Cl  0  0  0  0  0  0  0  0  0  0  0  0
   57.7180   31.9730   43.1710 C   0  0  0  0  0  0  0  0  0  0  0  0
   58.4050   32.8550   44.0130 C   0  0  0  0  0  0  0  0  0  0  0  0
   60.6900   29.7130   45.9270 C   0  0  0  0  0  0  0  0  0  0  0  0
   60.1540   28.4210   45.8780 C   0  0  0  0  0  0  0  0  0  0  0  0
   57.2710   24.8180   44.3380 C   0  0  0  0  0  0  0  0  0  0  0  0
   57.1270   23.5960   43.6830 C   0  0  0  0  0  0  0  0  0  0  0  0
   56.0580   22.7500   43.9910 C   0  0  0  0  0  0  0  0  0  0  0  0
   55.9500   21.5300   43.3190 O   0  0  0  0  0  0  0  0  0  0  0  0
   54.0726   22.2497   47.3339 H   0  0  0  0  0  0  0  0  0  0  0  0
   52.6758   23.0758   46.5639 H   0  0  0  0  0  0  0  0  0  0  0  0
   52.7698   21.2820   46.5639 H   0  0  0  0  0  0  0  0  0  0  0  0
   54.5099   24.6946   46.3566 H   0  0  0  0  0  0  0  0  0  0  0  0
   56.8440   27.2932   45.2639 H   0  0  0  0  0  0  0  0  0  0  0  0
   55.5105   26.8406   46.4047 H   0  0  0  0  0  0  0  0  0  0  0  0
   59.1403   28.1330   49.1287 H   0  0  0  0  0  0  0  0  0  0  0  0
   60.2012   30.3813   49.2397 H   0  0  0  0  0  0  0  0  0  0  0  0
   62.0738   31.8905   47.8154 H   0  0  0  0  0  0  0  0  0  0  0  0
   61.4165   32.1556   46.1225 H   0  0  0  0  0  0  0  0  0  0  0  0
   60.8125   34.8081   48.3289 H   0  0  0  0  0  0  0  0  0  0  0  0
   60.0533   33.7748   49.5819 H   0  0  0  0  0  0  0  0  0  0  0  0
   63.1559   34.4388   47.6268 H   0  0  0  0  0  0  0  0  0  0  0  0
   65.4164   33.7114   48.3949 H   0  0  0  0  0  0  0  0  0  0  0  0
   63.6042   31.3656   51.5450 H   0  0  0  0  0  0  0  0  0  0  0  0
   61.3383   32.0975   50.7885 H   0  0  0  0  0  0  0  0  0  0  0  0
   58.0796   31.1633   46.9679 H   0  0  0  0  0  0  0  0  0  0  0  0
   56.8489   29.5894   45.4635 H   0  0  0  0  0  0  0  0  0  0  0  0
   57.6208   32.2006   42.0992 H   0  0  0  0  0  0  0  0  0  0  0  0
   58.8507   33.7714   43.5988 H   0  0  0  0  0  0  0  0  0  0  0  0
   61.1440   30.1496   45.0252 H   0  0  0  0  0  0  0  0  0  0  0  0
   60.1990   27.8451   44.9419 H   0  0  0  0  0  0  0  0  0  0  0  0
   58.1230   25.4707   44.0971 H   0  0  0  0  0  0  0  0  0  0  0  0
   57.8592   23.2957   42.9190 H   0  0  0  0  0  0  0  0  0  0  0  0
   55.4990   20.7200   43.7320 H   0  0  0  0  0  0  0  0  0  0  0  0
  1  2  1  0
  2  3  1  0
  3  4  2  0
  4  5  1  0
  5  6  1  0
  6  7  1  0
  7  8  1  0
  8  9  2  0
  8 10  1  0
 10 11  2  0
 11 12  1  0
 12 13  2  0
 13 14  1  0
 14 15  1  0
 15 16  1  0
 16 17  1  0
 17 18  2  0
 18 19  1  0
 19 20  2  0
 20 21  1  0
 20 22  1  0
 22 23  2  0
 15 24  1  0
 24 25  2  0
 24 26  2  0
 24 27  1  0
 27 28  2  0
 28 29  1  0
 29 30  2  0
 30 31  1  0
 30 32  1  0
 32 33  2  0
 13 34  1  0
 34 35  2  0
  5 36  2  0
 36 37  1  0
 37 38  2  0
 38 39  1  0
 38  3  1  0
 35 10  1  0
 23 17  1  0
 33 27  1  0
  1 40  1  0
  1 41  1  0
  1 42  1  0
  4 43  1  0
  6 44  1  0
  6 45  1  0
 11 46  1  0
 12 47  1  0
 14 48  1  0
 14 49  1  0
 16 50  1  0
 16 51  1  0
 18 52  1  0
 19 53  1  0
 22 54  1  0
 23 55  1  0
 28 56  1  0
 29 57  1  0
 32 58  1  0
 33 59  1  0
 34 60  1  0
 35 61  1  0
 36 62  1  0
 37 63  1  0
 39 64  1  0
M  CHG  1   7  -1
M  END
>  <UniqueID>  (55) 
52

>  <SMILES>  (55) 
COc1cc(C[N-]C(=O)c2ccc(CN(Cc3ccc(F)cc3)S(=O)(=O)c3ccc(Cl)cc3)cc2)ccc1O

>  <Energy>  (55) 
75.29644418818822

>  <Genealogy>  (55) 
COc1cc(C[N-]C(=O)c2ccc(CN(Cc3ccc(F)cc3)S(=O)(=O)c3ccc(Cl)cc3)cc2)ccc1O (protonated)
COc1cc(C[N-]C(=O)c2ccc(CN(Cc3ccc(F)cc3)S(=O)(=O)c3ccc(Cl)cc3)cc2)ccc1O (3D coordinates assigned)
COc1cc(C[N-]C(=O)c2ccc(CN(Cc3ccc(F)cc3)S(=O)(=O)c3ccc(Cl)cc3)cc2)ccc1O (optimized conformer: 75.29644418818822 kcal/mol)

>  <smiles>  (55) 
COc1cc(CNC(=O)c2ccc(CN(Cc3ccc(F)cc3)S(=O)(=O)c3ccc(Cl)cc3)cc2)ccc1O

>  <score_type>  (55) 
oracle

>  <origin>  (55) 
adg

>  <m_score__min__energy>  (55) 
-11.6

>  <m_primary>  (55) 
energy

$$$$
55:0
     RDKit          3D

 53 55  0  0  0  0  0  0  0  0999 V2000
   58.4450   34.2240   52.7340 C   0  0  0  0  0  0  0  0  0  0  0  0
   57.9230   33.0050   52.2170 O   0  0  0  0  0  0  0  0  0  0  0  0
   58.6650   32.0920   51.4480 C   0  0  0  0  0  0  0  0  0  0  0  0
   58.0760   30.9740   50.8270 C   0  0  0  0  0  0  0  0  0  0  0  0
   58.8650   30.0840   50.0900 C   0  0  0  0  0  0  0  0  0  0  0  0
   60.2380   30.3000   49.9640 C   0  0  0  0  0  0  0  0  0  0  0  0
   60.8380   31.4180   50.5710 C   0  0  0  0  0  0  0  0  0  0  0  0
   62.2440   31.6830   50.4650 N   0  0  0  0  0  0  0  0  0  0  0  0
   62.9560   32.9910   49.5740 S   0  0  0  0  0  0  0  0  0  0  0  0
   64.2540   32.5380   48.9610 O   0  0  0  0  0  0  0  0  0  0  0  0
   63.2420   34.1300   50.5110 O   0  0  0  0  0  0  0  0  0  0  0  0
   61.8350   33.5510   48.3350 C   0  0  0  0  0  0  0  0  0  0  0  0
   62.1090   33.3510   46.9730 C   0  0  0  0  0  0  0  0  0  0  0  0
   61.2210   33.8230   46.0010 C   0  0  0  0  0  0  0  0  0  0  0  0
   60.0450   34.4920   46.3790 C   0  0  0  0  0  0  0  0  0  0  0  0
   59.1050   35.0360   45.3320 C   0  0  0  0  0  0  0  0  0  0  0  0
   57.7990   34.2330   45.2700 C   0  0  0  0  0  0  0  0  0  0  0  0
   57.9540   32.8680   45.8820 C   0  0  0  0  0  0  0  0  0  0  0  0
   57.6010   32.6850   47.0790 O   0  0  0  0  0  0  0  0  0  0  0  0
   58.5380   31.7950   45.1230 N   0  0  0  0  0  0  0  0  0  0  0  0
   58.6450   30.4480   45.6230 C   0  0  0  0  0  0  0  0  0  0  0  0
   59.7860   30.0820   46.3660 C   0  0  0  0  0  0  0  0  0  0  0  0
   59.9010   28.8040   46.9120 C   0  0  0  0  0  0  0  0  0  0  0  0
   58.8750   27.8770   46.7360 C   0  0  0  0  0  0  0  0  0  0  0  0
   57.7310   28.2210   46.0140 C   0  0  0  0  0  0  0  0  0  0  0  0
   57.5940   29.5050   45.4430 C   0  0  0  0  0  0  0  0  0  0  0  0
   56.3660   29.8050   44.6520 C   0  0  0  0  0  0  0  0  0  0  0  0
   55.1650   29.0660   44.8760 N   0  0  0  0  0  0  0  0  0  0  0  0
   56.3710   30.6960   43.7620 O   0  0  0  0  0  0  0  0  0  0  0  0
   59.7770   34.6930   47.7430 C   0  0  0  0  0  0  0  0  0  0  0  0
   60.6650   34.2200   48.7140 C   0  0  0  0  0  0  0  0  0  0  0  0
   60.0410   32.3080   51.3070 C   0  0  0  0  0  0  0  0  0  0  0  0
   58.4312   34.1917   53.8334 H   0  0  0  0  0  0  0  0  0  0  0  0
   59.4793   34.3576   52.3841 H   0  0  0  0  0  0  0  0  0  0  0  0
   57.8280   35.0647   52.3841 H   0  0  0  0  0  0  0  0  0  0  0  0
   56.9940   30.8000   50.9214 H   0  0  0  0  0  0  0  0  0  0  0  0
   58.4013   29.2107   49.6080 H   0  0  0  0  0  0  0  0  0  0  0  0
   60.8533   29.5933   49.3878 H   0  0  0  0  0  0  0  0  0  0  0  0
   63.0243   32.8218   46.6694 H   0  0  0  0  0  0  0  0  0  0  0  0
   61.4446   33.6696   44.9350 H   0  0  0  0  0  0  0  0  0  0  0  0
   58.8688   36.0827   45.5742 H   0  0  0  0  0  0  0  0  0  0  0  0
   59.6010   34.9603   44.3531 H   0  0  0  0  0  0  0  0  0  0  0  0
   57.0173   34.7815   45.8160 H   0  0  0  0  0  0  0  0  0  0  0  0
   57.5259   34.1048   44.2122 H   0  0  0  0  0  0  0  0  0  0  0  0
   58.8740   31.9960   44.1520 H   0  0  0  0  0  0  0  0  0  0  0  0
   60.5944   30.8126   46.5166 H   0  0  0  0  0  0  0  0  0  0  0  0
   60.8008   28.5276   47.4812 H   0  0  0  0  0  0  0  0  0  0  0  0
   58.9673   26.8696   47.1681 H   0  0  0  0  0  0  0  0  0  0  0  0
   56.9258   27.4822   45.8883 H   0  0  0  0  0  0  0  0  0  0  0  0
   54.4820   29.3610   45.6110 H   0  0  0  0  0  0  0  0  0  0  0  0
   58.8641   35.2251   48.0488 H   0  0  0  0  0  0  0  0  0  0  0  0
   60.4434   34.3742   49.7803 H   0  0  0  0  0  0  0  0  0  0  0  0
   60.5035   33.1871   51.7795 H   0  0  0  0  0  0  0  0  0  0  0  0
  1  2  1  0
  2  3  1  0
  3  4  2  0
  4  5  1  0
  5  6  2  0
  6  7  1  0
  7  8  1  0
  8  9  1  0
  9 10  2  0
  9 11  2  0
  9 12  1  0
 12 13  2  0
 13 14  1  0
 14 15  2  0
 15 16  1  0
 16 17  1  0
 17 18  1  0
 18 19  2  0
 18 20  1  0
 20 21  1  0
 21 22  2  0
 22 23  1  0
 23 24  2  0
 24 25  1  0
 25 26  2  0
 26 27  1  0
 27 28  1  0
 27 29  2  0
 15 30  1  0
 30 31  2  0
  7 32  2  0
 32  3  1  0
 31 12  1  0
 26 21  1  0
  1 33  1  0
  1 34  1  0
  1 35  1  0
  4 36  1  0
  5 37  1  0
  6 38  1  0
 13 39  1  0
 14 40  1  0
 16 41  1  0
 16 42  1  0
 17 43  1  0
 17 44  1  0
 20 45  1  0
 22 46  1  0
 23 47  1  0
 24 48  1  0
 25 49  1  0
 28 50  1  0
 30 51  1  0
 31 52  1  0
 32 53  1  0
M  CHG  2   8  -1  28  -1
M  END
>  <UniqueID>  (56) 
53

>  <SMILES>  (56) 
COc1cccc([N-]S(=O)(=O)c2ccc(CCC(=O)Nc3ccccc3C([NH-])=O)cc2)c1

>  <Energy>  (56) 
60.236921357993

>  <Genealogy>  (56) 
COc1cccc([N-]S(=O)(=O)c2ccc(CCC(=O)Nc3ccccc3C([NH-])=O)cc2)c1 (protonated)
COc1cccc([N-]S(=O)(=O)c2ccc(CCC(=O)Nc3ccccc3C([NH-])=O)cc2)c1 (3D coordinates assigned)
COc1cccc([N-]S(=O)(=O)c2ccc(CCC(=O)Nc3ccccc3C([NH-])=O)cc2)c1 (optimized conformer: 60.236921357993 kcal/mol)

>  <smiles>  (56) 
COc1cccc(NS(=O)(=O)c2ccc(CCC(=O)Nc3ccccc3C(N)=O)cc2)c1

>  <score_type>  (56) 
oracle

>  <origin>  (56) 
adg

>  <m_score__min__energy>  (56) 
-13.029999999999999

>  <m_primary>  (56) 
energy

$$$$
56:0
     RDKit          3D

 48 51  0  0  0  0  0  0  0  0999 V2000
   56.7890   30.0010   45.2290 O   0  0  0  0  0  0  0  0  0  0  0  0
   57.9150   30.4330   45.5710 C   0  0  0  0  0  0  0  0  0  0  0  0
   58.9410   29.5460   45.9430 N   0  0  0  0  0  0  0  0  0  0  0  0
   58.8880   28.1420   45.9940 C   0  0  0  0  0  0  0  0  0  0  0  0
   59.9360   27.2920   46.2220 C   0  0  0  0  0  0  0  0  0  0  0  0
   59.7840   25.8990   46.3010 C   0  0  0  0  0  0  0  0  0  0  0  0
   58.5080   25.3860   46.1390 C   0  0  0  0  0  0  0  0  0  0  0  0
   57.4420   26.1790   45.9130 C   0  0  0  0  0  0  0  0  0  0  0  0
   56.0620   25.7490   45.7450 C   0  0  0  0  0  0  0  0  0  0  0  0
   55.0750   26.3500   46.2650 O   0  0  0  0  0  0  0  0  0  0  0  0
   55.6850   24.6110   44.9890 O   0  0  0  0  0  0  0  0  0  0  0  0
   54.7040   23.8180   45.6600 C   0  0  0  0  0  0  0  0  0  0  0  0
   53.3790   24.1100   45.3940 C   0  0  0  0  0  0  0  0  0  0  0  0
   52.4090   23.3450   46.0280 C   0  0  0  0  0  0  0  0  0  0  0  0
   52.7910   22.3380   46.8890 C   0  0  0  0  0  0  0  0  0  0  0  0
   54.1110   22.0440   47.1560 C   0  0  0  0  0  0  0  0  0  0  0  0
   55.0960   22.8090   46.5230 C   0  0  0  0  0  0  0  0  0  0  0  0
   56.5010   22.5590   46.7950 C   0  0  0  0  0  0  0  0  0  0  0  0
   56.9970   22.7760   47.9560 O   0  0  0  0  0  0  0  0  0  0  0  0
   57.3180   22.0690   45.7490 N   0  0  0  0  0  0  0  0  0  0  0  0
   57.0170   22.0080   44.5040 C   0  0  0  0  0  0  0  0  0  0  0  0
   56.6040   20.8660   43.9080 N   0  0  0  0  0  0  0  0  0  0  0  0
   56.3670   21.1450   42.6290 N   0  0  0  0  0  0  0  0  0  0  0  0
   56.6200   22.4140   42.4320 N   0  0  0  0  0  0  0  0  0  0  0  0
   57.0160   22.9680   43.5520 N   0  0  0  0  0  0  0  0  0  0  0  0
   57.6400   27.5550   45.8400 C   0  0  0  0  0  0  0  0  0  0  0  0
   58.1870   31.8880   45.5860 C   0  0  0  0  0  0  0  0  0  0  0  0
   59.2150   32.3580   46.3440 C   0  0  0  0  0  0  0  0  0  0  0  0
   59.4630   33.7310   46.3610 C   0  0  0  0  0  0  0  0  0  0  0  0
   58.7000   34.6370   45.6340 C   0  0  0  0  0  0  0  0  0  0  0  0
   57.6630   34.1550   44.8690 C   0  0  0  0  0  0  0  0  0  0  0  0
   57.4320   32.7790   44.8670 C   0  0  0  0  0  0  0  0  0  0  0  0
   59.8610   30.0030   46.2110 H   0  0  0  0  0  0  0  0  0  0  0  0
   60.9416   27.7193   46.3489 H   0  0  0  0  0  0  0  0  0  0  0  0
   60.6454   25.2400   46.4846 H   0  0  0  0  0  0  0  0  0  0  0  0
   58.3599   24.2975   46.1966 H   0  0  0  0  0  0  0  0  0  0  0  0
   53.1027   24.9207   44.7037 H   0  0  0  0  0  0  0  0  0  0  0  0
   51.3423   23.5411   45.8445 H   0  0  0  0  0  0  0  0  0  0  0  0
   52.0088   21.7438   47.3840 H   0  0  0  0  0  0  0  0  0  0  0  0
   54.3817   21.2317   47.8465 H   0  0  0  0  0  0  0  0  0  0  0  0
   56.5200   22.9080   41.4990 H   0  0  0  0  0  0  0  0  0  0  0  0
   57.2610   23.9730   43.6280 H   0  0  0  0  0  0  0  0  0  0  0  0
   56.7716   28.2036   45.6526 H   0  0  0  0  0  0  0  0  0  0  0  0
   59.8385   31.6686   46.9321 H   0  0  0  0  0  0  0  0  0  0  0  0
   60.2942   34.1108   46.9732 H   0  0  0  0  0  0  0  0  0  0  0  0
   58.9200   35.7142   45.6694 H   0  0  0  0  0  0  0  0  0  0  0  0
   57.0340   34.8351   44.2759 H   0  0  0  0  0  0  0  0  0  0  0  0
   56.6028   32.3893   44.2583 H   0  0  0  0  0  0  0  0  0  0  0  0
  1  2  2  0
  2  3  1  0
  3  4  1  0
  4  5  2  0
  5  6  1  0
  6  7  2  0
  7  8  1  0
  8  9  1  0
  9 10  2  0
  9 11  1  0
 11 12  1  0
 12 13  2  0
 13 14  1  0
 14 15  2  0
 15 16  1  0
 16 17  2  0
 17 18  1  0
 18 19  2  0
 18 20  1  0
 20 21  2  3
 21 22  1  0
 22 23  2  0
 23 24  1  0
 24 25  1  0
  8 26  2  0
  2 27  1  0
 27 28  2  0
 28 29  1  0
 29 30  2  0
 30 31  1  0
 31 32  2  0
 26  4  1  0
 32 27  1  0
 17 12  1  0
 25 21  1  0
  3 33  1  0
  5 34  1  0
  6 35  1  0
  7 36  1  0
 13 37  1  0
 14 38  1  0
 15 39  1  0
 16 40  1  0
 24 41  1  0
 25 42  1  0
 26 43  1  0
 28 44  1  0
 29 45  1  0
 30 46  1  0
 31 47  1  0
 32 48  1  0
M  END
>  <smiles>  (57) 
O=C(Nc1cccc(C(=O)Oc2ccccc2C(=O)N=c2nn[nH][nH]2)c1)c1ccccc1

>  <score_type>  (57) 
oracle

>  <origin>  (57) 
adg

>  <m_score__min__energy>  (57) 
-10.869999999999999

>  <m_primary>  (57) 
energy

$$$$
57:0
     RDKit          3D

 55 58  0  0  1  0  0  0  0  0999 V2000
   59.3800   33.4480   51.4230 C   0  0  0  0  0  0  0  0  0  0  0  0
   60.0900   32.6050   50.5370 O   0  0  0  0  0  0  0  0  0  0  0  0
   61.4460   32.6760   50.3340 C   0  0  0  0  0  0  0  0  0  0  0  0
   62.3630   31.8350   50.9330 C   0  0  0  0  0  0  0  0  0  0  0  0
   63.7240   31.9260   50.7130 C   0  0  0  0  0  0  0  0  0  0  0  0
   64.1720   32.9100   49.8500 C   0  0  0  0  0  0  0  0  0  0  0  0
   63.2670   33.7580   49.2440 C   0  0  0  0  0  0  0  0  0  0  0  0
   61.9070   33.6610   49.4690 C   0  0  0  0  0  0  0  0  0  0  0  0
   58.1390   31.5340   47.0790 N   0  0  0  0  0  0  0  0  0  0  0  0
   58.6950   32.6730   47.0960 C   0  0  0  0  0  0  0  0  0  0  0  0
   59.8010   35.1290   47.0160 N   0  0  0  0  0  0  0  0  0  0  0  0
   58.8850   34.8600   46.0560 C   0  0  0  0  0  0  0  0  0  0  0  0
   58.3220   33.5870   46.1090 C   0  0  0  0  0  0  0  0  0  0  0  0
   57.1310   33.1920   44.8870 Cl  0  0  0  0  0  0  0  0  0  0  0  0
   60.1410   34.2280   47.9550 C   0  0  0  0  0  0  0  0  0  0  0  0
   61.0090   34.5580   48.8220 N   0  0  0  0  0  0  0  0  0  0  0  0
   58.5890   30.5090   46.2000 C   0  0  0  0  0  0  0  0  0  0  0  0
   57.9950   30.2550   44.9770 C   0  0  0  0  0  0  0  0  0  0  0  0
   58.4620   29.2440   44.1430 C   0  0  0  0  0  0  0  0  0  0  0  0
   59.5450   28.4800   44.5500 C   0  0  0  0  0  0  0  0  0  0  0  0
   60.1400   28.7420   45.7840 C   0  0  0  0  0  0  0  0  0  0  0  0
   59.6690   29.7530   46.6150 C   0  0  0  0  0  0  0  0  0  0  0  0
   60.4220   30.0670   48.1540 S   0  0  0  0  0  0  0  0  0  0  0  0
   59.3500   30.6090   49.3420 N   0  0  0  0  0  0  0  0  0  0  0  0
   61.5020   31.0950   47.9640 O   0  0  0  0  0  0  0  0  0  0  0  0
   61.0730   28.8050   48.6410 O   0  0  0  0  0  0  0  0  0  0  0  0
   59.6110   32.9950   48.0270 N   0  0  0  0  0  0  0  0  0  0  0  0
   65.6610   32.8460   49.7440 C   0  0  0  0  0  0  0  0  0  0  0  0
   66.0360   31.9390   50.8940 C   0  0  0  0  0  0  0  0  0  0  0  0
   64.8400   31.1840   51.2070 N   0  0  0  0  0  0  0  0  0  0  0  0
   64.7890   29.6760   52.0250 S   0  0  0  0  0  0  0  0  0  0  0  0
   64.9250   29.9040   53.7800 C   0  0  0  0  0  0  0  0  0  0  0  0
   63.5170   28.9160   51.6840 O   0  0  0  0  0  0  0  0  0  0  0  0
   65.9790   28.8390   51.5970 O   0  0  0  0  0  0  0  0  0  0  0  0
   59.6145   33.1696   52.4610 H   0  0  0  0  0  0  0  0  0  0  0  0
   59.6736   34.4937   51.2486 H   0  0  0  0  0  0  0  0  0  0  0  0
   58.2997   33.3365   51.2486 H   0  0  0  0  0  0  0  0  0  0  0  0
   61.9929   31.0569   51.6167 H   0  0  0  0  0  0  0  0  0  0  0  0
   63.6400   34.5352   48.5607 H   0  0  0  0  0  0  0  0  0  0  0  0
   60.2660   36.0760   47.0320 H   0  0  0  0  0  0  0  0  0  0  0  0
   58.6048   35.5956   45.2876 H   0  0  0  0  0  0  0  0  0  0  0  0
   57.1366   30.8642   44.6575 H   0  0  0  0  0  0  0  0  0  0  0  0
   57.9784   29.0534   43.1736 H   0  0  0  0  0  0  0  0  0  0  0  0
   59.9309   27.6757   43.9065 H   0  0  0  0  0  0  0  0  0  0  0  0
   60.9997   28.1364   46.1067 H   0  0  0  0  0  0  0  0  0  0  0  0
   58.7630   31.4170   49.1220 H   0  0  0  0  0  0  0  0  0  0  0  0
   59.6120   30.4560   50.3190 H   0  0  0  0  0  0  0  0  0  0  0  0
   59.8950   32.3150   48.7680 H   0  0  0  0  0  0  0  0  0  0  0  0
   65.9722   32.4151   48.7809 H   0  0  0  0  0  0  0  0  0  0  0  0
   66.1452   33.8326   49.7897 H   0  0  0  0  0  0  0  0  0  0  0  0
   66.8502   31.2613   50.5977 H   0  0  0  0  0  0  0  0  0  0  0  0
   66.3919   32.5124   51.7626 H   0  0  0  0  0  0  0  0  0  0  0  0
   64.4278   29.0704   54.2977 H   0  0  0  0  0  0  0  0  0  0  0  0
   65.9871   29.9313   54.0650 H   0  0  0  0  0  0  0  0  0  0  0  0
   64.4444   30.8515   54.0650 H   0  0  0  0  0  0  0  0  0  0  0  0
  1  2  1  0
  2  3  1  0
  3  4  2  0
  4  5  1  0
  5  6  2  0
  6  7  1  0
  7  8  2  0
  8  9  1  0
  9 10  2  0
 10 11  1  0
 11 12  1  0
 12 13  2  0
 13 14  1  0
 13 15  1  0
 15 16  2  0
 16 17  1  0
 17 18  2  0
 18 19  1  0
 19 20  2  0
 20 21  1  0
 21 22  2  0
 22 23  1  0
 23 24  1  0
 23 25  2  0
 23 26  2  0
 15 27  1  0
  6 28  1  0
 28 29  1  0
 29 30  1  0
 30 31  1  0
 31 32  1  0
 31 33  2  0
 31 34  2  0
  8  3  1  0
 27 10  1  0
 30  5  1  0
 22 17  1  0
  1 35  1  0
  1 36  1  0
  1 37  1  0
  4 38  1  0
  7 39  1  0
 11 40  1  0
 12 41  1  0
 18 42  1  0
 19 43  1  0
 20 44  1  0
 21 45  1  0
 24 46  1  0
 24 47  1  0
 27 48  1  0
 28 49  1  0
 28 50  1  0
 29 51  1  0
 29 52  1  0
 32 53  1  0
 32 54  1  0
 32 55  1  0
M  END
>  <smiles>  (58) 
COc1cc2c(cc1N=c1[nH]cc(Cl)c(=Nc3ccccc3S(N)(=O)=O)[nH]1)CCN2S(C)(=O)=O

>  <score_type>  (58) 
oracle

>  <origin>  (58) 
adg

>  <m_score__min__energy>  (58) 
-9.5800000000000001

>  <m_primary>  (58) 
energy

$$$$
58:0
     RDKit          3D

 58 61  0  0  0  0  0  0  0  0999 V2000
   52.8650   24.3063   45.5727 H   0  0  0  0  0  0  0  0  0  0  0  0
   53.9410   24.4500   45.3950 C   0  0  0  0  0  0  0  0  0  0  0  0
   54.5880   25.5070   45.9550 N   0  0  0  0  0  0  0  0  0  0  0  0
   55.9160   25.7330   45.7520 C   0  0  0  0  0  0  0  0  0  0  0  0
   56.5250   26.7370   46.3130 N   0  0  0  0  0  0  0  0  0  0  0  0
   57.3170   27.7450   45.6620 C   0  0  0  0  0  0  0  0  0  0  0  0
   58.6020   27.4750   45.1540 C   0  0  0  0  0  0  0  0  0  0  0  0
   59.0168   26.4586   45.2232 H   0  0  0  0  0  0  0  0  0  0  0  0
   59.3520   28.4950   44.5620 C   0  0  0  0  0  0  0  0  0  0  0  0
   60.3502   28.2763   44.1549 H   0  0  0  0  0  0  0  0  0  0  0  0
   58.8380   29.7900   44.4860 C   0  0  0  0  0  0  0  0  0  0  0  0
   59.4345   30.5882   44.0200 H   0  0  0  0  0  0  0  0  0  0  0  0
   57.5680   30.0800   44.9990 C   0  0  0  0  0  0  0  0  0  0  0  0
   57.0990   31.4000   44.9230 O   0  0  0  0  0  0  0  0  0  0  0  0
   57.8070   32.5430   45.3250 C   0  0  0  0  0  0  0  0  0  0  0  0
   58.0210   33.6240   44.4490 C   0  0  0  0  0  0  0  0  0  0  0  0
   57.6182   33.5867   43.4261 H   0  0  0  0  0  0  0  0  0  0  0  0
   58.7420   34.7440   44.8710 C   0  0  0  0  0  0  0  0  0  0  0  0
   58.9012   35.5868   44.1823 H   0  0  0  0  0  0  0  0  0  0  0  0
   59.2600   34.7940   46.1650 C   0  0  0  0  0  0  0  0  0  0  0  0
   59.8162   35.6817   46.5004 H   0  0  0  0  0  0  0  0  0  0  0  0
   59.0730   33.7180   47.0350 C   0  0  0  0  0  0  0  0  0  0  0  0
   59.4772   33.7642   48.0570 H   0  0  0  0  0  0  0  0  0  0  0  0
   58.3710   32.5760   46.6120 C   0  0  0  0  0  0  0  0  0  0  0  0
   58.1540   31.4670   47.4980 N   0  0  0  0  0  0  0  0  0  0  0  0
   59.1790   30.6210   48.0350 C   0  0  0  0  0  0  0  0  0  0  0  0
   59.1660   29.3930   47.7540 O   0  0  0  0  0  0  0  0  0  0  0  0
   60.2030   31.1730   48.8730 N   0  0  0  0  0  0  0  0  0  0  0  0
   61.3690   31.9130   48.4710 C   0  0  0  0  0  0  0  0  0  0  0  0
   62.2740   31.3960   47.5230 C   0  0  0  0  0  0  0  0  0  0  0  0
   62.1025   30.3985   47.0922 H   0  0  0  0  0  0  0  0  0  0  0  0
   63.3870   32.1400   47.1260 C   0  0  0  0  0  0  0  0  0  0  0  0
   64.0937   31.7218   46.3941 H   0  0  0  0  0  0  0  0  0  0  0  0
   63.6050   33.4120   47.6550 C   0  0  0  0  0  0  0  0  0  0  0  0
   64.4876   33.9917   47.3468 H   0  0  0  0  0  0  0  0  0  0  0  0
   62.7050   33.9490   48.5740 C   0  0  0  0  0  0  0  0  0  0  0  0
   62.8785   34.9554   48.9827 H   0  0  0  0  0  0  0  0  0  0  0  0
   61.5780   33.2160   48.9830 C   0  0  0  0  0  0  0  0  0  0  0  0
   60.6190   33.8510   49.9690 C   0  0  0  0  0  0  0  0  0  0  0  0
   59.6782   34.0911   49.4520 H   0  0  0  0  0  0  0  0  0  0  0  0
   61.0824   34.7645   50.3699 H   0  0  0  0  0  0  0  0  0  0  0  0
   60.3330   32.9370   51.0920 N   0  0  0  0  0  0  0  0  0  0  0  0
   60.9250   33.4670   52.3300 C   0  0  0  0  0  0  0  0  0  0  0  0
   60.4223   33.0169   53.1988 H   0  0  0  0  0  0  0  0  0  0  0  0
   61.9968   33.2210   52.3585 H   0  0  0  0  0  0  0  0  0  0  0  0
   60.7986   34.5593   52.3585 H   0  0  0  0  0  0  0  0  0  0  0  0
   58.8800   32.7750   51.2760 C   0  0  0  0  0  0  0  0  0  0  0  0
   58.6472   32.7490   52.3508 H   0  0  0  0  0  0  0  0  0  0  0  0
   58.3546   33.6201   50.8073 H   0  0  0  0  0  0  0  0  0  0  0  0
   58.5536   31.8349   50.8073 H   0  0  0  0  0  0  0  0  0  0  0  0
   56.8230   29.0570   45.6110 C   0  0  0  0  0  0  0  0  0  0  0  0
   55.8430   29.2875   46.0543 H   0  0  0  0  0  0  0  0  0  0  0  0
   56.6500   24.8400   44.9610 C   0  0  0  0  0  0  0  0  0  0  0  0
   57.7268   24.9979   44.8010 H   0  0  0  0  0  0  0  0  0  0  0  0
   56.0050   23.7480   44.3770 C   0  0  0  0  0  0  0  0  0  0  0  0
   56.5713   23.0471   43.7461 H   0  0  0  0  0  0  0  0  0  0  0  0
   54.6440   23.5470   44.5940 C   0  0  0  0  0  0  0  0  0  0  0  0
   54.1289   22.6875   44.1401 H   0  0  0  0  0  0  0  0  0  0  0  0
  1  2  1  0
  2  3  1  0
  3  4  1  0
  4  5  2  0
  5  6  1  0
  6  7  2  0
  7  8  1  0
  7  9  1  0
  9 10  1  0
  9 11  2  0
 11 12  1  0
 11 13  1  0
 13 14  1  0
 14 15  1  0
 15 16  2  0
 16 17  1  0
 16 18  1  0
 18 19  1  0
 18 20  2  0
 20 21  1  0
 20 22  1  0
 22 23  1  0
 22 24  2  0
 24 25  1  0
 25 26  1  0
 26 27  2  0
 26 28  1  0
 28 29  1  0
 29 30  2  0
 30 31  1  0
 30 32  1  0
 32 33  1  0
 32 34  2  0
 34 35  1  0
 34 36  1  0
 36 37  1  0
 36 38  2  0
 38 39  1  0
 39 40  1  0
 39 41  1  0
 39 42  1  0
 42 43  1  0
 43 44  1  0
 43 45  1  0
 43 46  1  0
 42 47  1  0
 47 48  1  0
 47 49  1  0
 47 50  1  0
 13 51  2  0
 51 52  1  0
  4 53  1  0
 53 54  1  0
 53 55  2  0
 55 56  1  0
 55 57  1  0
 57 58  1  0
 57  2  2  0
 51  6  1  0
 24 15  1  0
 38 29  1  0
M  CHG  3   3  -1  25  -1  28  -1
M  END
>  <UniqueID>  (59) 
54

>  <SMILES>  (59) 
CN(C)Cc1ccccc1[N-]C(=O)[N-]c1ccccc1Oc1cccc(/N=c2/cccc[n-]2)c1

>  <Energy>  (59) 
83.18771346962741

>  <Genealogy>  (59) 
CN(C)Cc1ccccc1[N-]C(=O)[N-]c1ccccc1Oc1cccc(N=c2cccc[n-]2)c1 (protonated)
CN(C)Cc1ccccc1[N-]C(=O)[N-]c1ccccc1Oc1cccc(/N=c2/cccc[n-]2)c1 (cis-trans isomerization)
CN(C)Cc1ccccc1[N-]C(=O)[N-]c1ccccc1Oc1cccc(/N=c2/cccc[n-]2)c1 (3D coordinates assigned)
CN(C)Cc1ccccc1[N-]C(=O)[N-]c1ccccc1Oc1cccc(/N=c2/cccc[n-]2)c1 (optimized conformer: 83.18771346962741 kcal/mol)

>  <smiles>  (59) 
CN(C)Cc1ccccc1NC(=O)Nc1ccccc1Oc1cccc(N=c2cccc[nH]2)c1

>  <score_type>  (59) 
oracle

>  <origin>  (59) 
adg

>  <m_score__min__energy>  (59) 
-14.26

>  <m_primary>  (59) 
energy

$$$$
59:0
     RDKit          3D

 48 50  0  0  0  0  0  0  0  0999 V2000
   61.7885   29.8722   46.3864 H   0  0  0  0  0  0  0  0  0  0  0  0
   60.7760   29.5110   46.1530 C   0  0  0  0  0  0  0  0  0  0  0  0
   59.7870   29.5210   47.1390 C   0  0  0  0  0  0  0  0  0  0  0  0
   60.0213   29.8895   48.1486 H   0  0  0  0  0  0  0  0  0  0  0  0
   58.4990   29.0630   46.8440 C   0  0  0  0  0  0  0  0  0  0  0  0
   57.7230   29.0707   47.6236 H   0  0  0  0  0  0  0  0  0  0  0  0
   58.1920   28.5930   45.5560 C   0  0  0  0  0  0  0  0  0  0  0  0
   56.8170   28.0800   45.2330 C   0  0  0  0  0  0  0  0  0  0  0  0
   56.4526   27.4674   46.0708 H   0  0  0  0  0  0  0  0  0  0  0  0
   56.8683   27.4743   44.3162 H   0  0  0  0  0  0  0  0  0  0  0  0
   55.9190   29.1660   45.0200 O   0  0  0  0  0  0  0  0  0  0  0  0
   56.2370   30.2870   44.2430 C   0  0  0  0  0  0  0  0  0  0  0  0
   56.5200   30.1630   43.0220 O   0  0  0  0  0  0  0  0  0  0  0  0
   56.2610   31.5870   44.8370 N   0  0  0  0  0  0  0  0  0  0  0  0
   57.4660   32.2630   45.2180 C   0  0  0  0  0  0  0  0  0  0  0  0
   57.7980   32.3240   46.5720 C   0  0  0  0  0  0  0  0  0  0  0  0
   57.1585   31.8249   47.3149 H   0  0  0  0  0  0  0  0  0  0  0  0
   58.9340   33.0130   46.9880 C   0  0  0  0  0  0  0  0  0  0  0  0
   59.1874   33.0675   48.0570 H   0  0  0  0  0  0  0  0  0  0  0  0
   59.7570   33.6400   46.0320 C   0  0  0  0  0  0  0  0  0  0  0  0
   60.8280   34.3080   46.3640 N   0  0  0  0  0  0  0  0  0  0  0  0
   62.2110   33.8290   46.3720 C   0  0  0  0  0  0  0  0  0  0  0  0
   62.2401   32.8031   45.9761 H   0  0  0  0  0  0  0  0  0  0  0  0
   62.8203   34.4973   45.7458 H   0  0  0  0  0  0  0  0  0  0  0  0
   62.7780   33.8350   47.7950 C   0  0  0  0  0  0  0  0  0  0  0  0
   63.7257   33.2767   47.8090 H   0  0  0  0  0  0  0  0  0  0  0  0
   62.9457   34.8768   48.1057 H   0  0  0  0  0  0  0  0  0  0  0  0
   61.8120   33.1930   48.7520 C   0  0  0  0  0  0  0  0  0  0  0  0
   61.7230   31.7940   48.8390 C   0  0  0  0  0  0  0  0  0  0  0  0
   62.3802   31.1635   48.2221 H   0  0  0  0  0  0  0  0  0  0  0  0
   60.8020   31.2000   49.7070 C   0  0  0  0  0  0  0  0  0  0  0  0
   60.7429   30.1039   49.7787 H   0  0  0  0  0  0  0  0  0  0  0  0
   59.9560   31.9970   50.4840 C   0  0  0  0  0  0  0  0  0  0  0  0
   59.2323   31.5280   51.1668 H   0  0  0  0  0  0  0  0  0  0  0  0
   60.0300   33.3900   50.3930 C   0  0  0  0  0  0  0  0  0  0  0  0
   59.2040   34.1620   51.1430 F   0  0  0  0  0  0  0  0  0  0  0  0
   60.9510   33.9870   49.5270 C   0  0  0  0  0  0  0  0  0  0  0  0
   61.0015   35.0833   49.4523 H   0  0  0  0  0  0  0  0  0  0  0  0
   59.4350   33.5350   44.7100 N   0  0  0  0  0  0  0  0  0  0  0  0
   60.0640   33.9780   44.0020 H   0  0  0  0  0  0  0  0  0  0  0  0
   58.3330   32.8560   44.2770 C   0  0  0  0  0  0  0  0  0  0  0  0
   58.1120   32.7100   42.8680 N   0  0  0  0  0  0  0  0  0  0  0  0
   58.7600   33.1610   42.1840 H   0  0  0  0  0  0  0  0  0  0  0  0
   57.3680   32.0860   42.4890 H   0  0  0  0  0  0  0  0  0  0  0  0
   59.1930   28.5830   44.5710 C   0  0  0  0  0  0  0  0  0  0  0  0
   58.9638   28.2126   43.5609 H   0  0  0  0  0  0  0  0  0  0  0  0
   60.4800   29.0420   44.8690 C   0  0  0  0  0  0  0  0  0  0  0  0
   61.2598   29.0342   44.0932 H   0  0  0  0  0  0  0  0  0  0  0  0
  1  2  1  0
  2  3  2  0
  3  4  1  0
  3  5  1  0
  5  6  1  0
  5  7  2  0
  7  8  1  0
  8  9  1  0
  8 10  1  0
  8 11  1  0
 11 12  1  0
 12 13  2  0
 12 14  1  0
 14 15  1  0
 15 16  1  0
 16 17  1  0
 16 18  2  0
 18 19  1  0
 18 20  1  0
 20 21  2  0
 21 22  1  0
 22 23  1  0
 22 24  1  0
 22 25  1  0
 25 26  1  0
 25 27  1  0
 25 28  1  0
 28 29  2  0
 29 30  1  0
 29 31  1  0
 31 32  1  0
 31 33  2  0
 33 34  1  0
 33 35  1  0
 35 36  1  0
 35 37  2  0
 37 38  1  0
 20 39  1  0
 39 40  1  0
 39 41  1  0
 41 42  1  0
 42 43  1  0
 42 44  1  0
  7 45  1  0
 45 46  1  0
 45 47  2  0
 47 48  1  0
 47  2  1  0
 41 15  2  0
 37 28  1  0
M  CHG  1  14  -1
M  END
>  <UniqueID>  (60) 
55

>  <SMILES>  (60) 
Nc1[nH]/c(=N/CCc2cccc(F)c2)ccc1[N-]C(=O)OCc1ccccc1

>  <Energy>  (60) 
54.22337937536022

>  <Genealogy>  (60) 
Nc1[nH]c(=NCCc2cccc(F)c2)ccc1[N-]C(=O)OCc1ccccc1 (protonated)
Nc1[nH]/c(=N/CCc2cccc(F)c2)ccc1[N-]C(=O)OCc1ccccc1 (cis-trans isomerization)
Nc1[nH]/c(=N/CCc2cccc(F)c2)ccc1[N-]C(=O)OCc1ccccc1 (3D coordinates assigned)
Nc1[nH]/c(=N/CCc2cccc(F)c2)ccc1[N-]C(=O)OCc1ccccc1 (optimized conformer: 54.22337937536022 kcal/mol)

>  <smiles>  (60) 
Nc1[nH]c(=NCCc2cccc(F)c2)ccc1NC(=O)OCc1ccccc1

>  <score_type>  (60) 
oracle

>  <origin>  (60) 
adg

>  <m_score__min__energy>  (60) 
-9.8200000000000003

>  <m_primary>  (60) 
energy

$$$$
60:0
     RDKit          3D

 39 41  0  0  0  0  0  0  0  0999 V2000
   55.9120   30.8340   44.8690 O   0  0  0  0  0  0  0  0  0  0  0  0
   57.0090   30.8660   44.2520 C   0  0  0  0  0  0  0  0  0  0  0  0
   57.6540   32.1280   44.0430 N   0  0  0  0  0  0  0  0  0  0  0  0
   58.3100   32.8980   45.0610 C   0  0  0  0  0  0  0  0  0  0  0  0
   58.6330   34.2320   44.7790 C   0  0  0  0  0  0  0  0  0  0  0  0
   59.2880   35.0190   45.7290 C   0  0  0  0  0  0  0  0  0  0  0  0
   59.6080   34.4860   46.9780 C   0  0  0  0  0  0  0  0  0  0  0  0
   59.2620   33.1690   47.2860 C   0  0  0  0  0  0  0  0  0  0  0  0
   58.6120   32.3620   46.3370 C   0  0  0  0  0  0  0  0  0  0  0  0
   58.1590   31.0490   46.7080 N   0  0  0  0  0  0  0  0  0  0  0  0
   58.8910   30.1590   47.5760 C   0  0  0  0  0  0  0  0  0  0  0  0
   58.6370   30.1390   48.9630 C   0  0  0  0  0  0  0  0  0  0  0  0
   59.4080   29.3430   49.8140 C   0  0  0  0  0  0  0  0  0  0  0  0
   60.4420   28.5620   49.2980 C   0  0  0  0  0  0  0  0  0  0  0  0
   60.7080   28.5740   47.9280 C   0  0  0  0  0  0  0  0  0  0  0  0
   59.9430   29.3670   47.0650 C   0  0  0  0  0  0  0  0  0  0  0  0
   60.3290   29.3430   45.3490 Cl  0  0  0  0  0  0  0  0  0  0  0  0
   57.5620   29.6630   43.6990 N   0  0  0  0  0  0  0  0  0  0  0  0
   57.4340   28.3610   44.2990 C   0  0  0  0  0  0  0  0  0  0  0  0
   57.8460   27.2310   43.5750 C   0  0  0  0  0  0  0  0  0  0  0  0
   57.8270   25.9630   44.1650 C   0  0  0  0  0  0  0  0  0  0  0  0
   57.4030   25.8130   45.4890 C   0  0  0  0  0  0  0  0  0  0  0  0
   57.4020   24.2260   46.2360 Cl  0  0  0  0  0  0  0  0  0  0  0  0
   56.9960   26.9320   46.2210 C   0  0  0  0  0  0  0  0  0  0  0  0
   57.0130   28.2000   45.6340 C   0  0  0  0  0  0  0  0  0  0  0  0
   58.3687   34.6627   43.8020 H   0  0  0  0  0  0  0  0  0  0  0  0
   59.5519   36.0603   45.4921 H   0  0  0  0  0  0  0  0  0  0  0  0
   60.1335   35.1041   47.7209 H   0  0  0  0  0  0  0  0  0  0  0  0
   59.5000   32.7600   48.2790 H   0  0  0  0  0  0  0  0  0  0  0  0
   57.2800   30.7040   46.2630 H   0  0  0  0  0  0  0  0  0  0  0  0
   57.8256   30.7548   49.3782 H   0  0  0  0  0  0  0  0  0  0  0  0
   59.1989   29.3322   50.8939 H   0  0  0  0  0  0  0  0  0  0  0  0
   61.0476   27.9368   49.9706 H   0  0  0  0  0  0  0  0  0  0  0  0
   61.5238   27.9565   47.5241 H   0  0  0  0  0  0  0  0  0  0  0  0
   58.1300   29.7500   42.8260 H   0  0  0  0  0  0  0  0  0  0  0  0
   58.1866   27.3437   42.5351 H   0  0  0  0  0  0  0  0  0  0  0  0
   58.1459   25.0831   43.5870 H   0  0  0  0  0  0  0  0  0  0  0  0
   56.6613   26.8141   47.2622 H   0  0  0  0  0  0  0  0  0  0  0  0
   56.6960   29.0771   46.2172 H   0  0  0  0  0  0  0  0  0  0  0  0
  1  2  2  0
  2  3  1  0
  3  4  1  0
  4  5  2  0
  5  6  1  0
  6  7  2  0
  7  8  1  0
  8  9  2  0
  9 10  1  0
 10 11  1  0
 11 12  2  0
 12 13  1  0
 13 14  2  0
 14 15  1  0
 15 16  2  0
 16 17  1  0
  2 18  1  0
 18 19  1  0
 19 20  2  0
 20 21  1  0
 21 22  2  0
 22 23  1  0
 22 24  1  0
 24 25  2  0
  9  4  1  0
 16 11  1  0
 25 19  1  0
  5 26  1  0
  6 27  1  0
  7 28  1  0
  8 29  1  0
 10 30  1  0
 12 31  1  0
 13 32  1  0
 14 33  1  0
 15 34  1  0
 18 35  1  0
 20 36  1  0
 21 37  1  0
 24 38  1  0
 25 39  1  0
M  CHG  1   3  -1
M  END
>  <UniqueID>  (61) 
56

>  <SMILES>  (61) 
O=C([N-]c1ccccc1Nc1ccccc1Cl)Nc1ccc(Cl)cc1

>  <Energy>  (61) 
52.56469769210153

>  <Genealogy>  (61) 
O=C([N-]c1ccccc1Nc1ccccc1Cl)Nc1ccc(Cl)cc1 (protonated)
O=C([N-]c1ccccc1Nc1ccccc1Cl)Nc1ccc(Cl)cc1 (3D coordinates assigned)
O=C([N-]c1ccccc1Nc1ccccc1Cl)Nc1ccc(Cl)cc1 (optimized conformer: 52.56469769210153 kcal/mol)

>  <smiles>  (61) 
O=C(Nc1ccc(Cl)cc1)Nc1ccccc1Nc1ccccc1Cl

>  <score_type>  (61) 
oracle

>  <origin>  (61) 
adg

>  <m_score__min__energy>  (61) 
-10.33

>  <m_primary>  (61) 
energy

$$$$
61:0
     RDKit          3D

 47 49  0  0  0  0  0  0  0  0999 V2000
   57.3770   33.8090   46.0100 C   0  0  0  0  0  0  0  0  0  0  0  0
   58.6720   33.8740   45.2070 C   0  0  0  0  0  0  0  0  0  0  0  0
   59.7930   34.5310   46.0170 C   0  0  0  0  0  0  0  0  0  0  0  0
   60.5140   33.5070   46.8430 C   0  0  0  0  0  0  0  0  0  0  0  0
   61.5340   33.8840   47.7240 C   0  0  0  0  0  0  0  0  0  0  0  0
   62.1550   32.8940   48.5020 C   0  0  0  0  0  0  0  0  0  0  0  0
   63.2060   33.2240   49.4330 N   0  0  0  0  0  0  0  0  0  0  0  0
   62.8980   33.9140   50.5750 C   0  0  0  0  0  0  0  0  0  0  0  0
   63.8910   34.2420   51.5000 C   0  0  0  0  0  0  0  0  0  0  0  0
   65.2070   33.8560   51.2600 C   0  0  0  0  0  0  0  0  0  0  0  0
   65.5200   33.1420   50.1000 C   0  0  0  0  0  0  0  0  0  0  0  0
   66.8650   32.7280   49.8460 N   0  0  0  0  0  0  0  0  0  0  0  0
   64.4970   32.8310   49.1940 C   0  0  0  0  0  0  0  0  0  0  0  0
   61.7310   31.6050   48.3910 N   0  0  0  0  0  0  0  0  0  0  0  0
   60.7390   31.2490   47.5350 C   0  0  0  0  0  0  0  0  0  0  0  0
   60.3570   30.0060   47.4860 N   0  0  0  0  0  0  0  0  0  0  0  0
   59.6240   29.3690   46.4250 C   0  0  0  0  0  0  0  0  0  0  0  0
   60.1120   28.1650   45.9030 C   0  0  0  0  0  0  0  0  0  0  0  0
   59.4440   27.5270   44.8530 C   0  0  0  0  0  0  0  0  0  0  0  0
   58.2910   28.0960   44.3070 C   0  0  0  0  0  0  0  0  0  0  0  0
   57.8050   29.3120   44.8030 C   0  0  0  0  0  0  0  0  0  0  0  0
   56.3760   30.0550   44.0930 S   0  0  0  0  0  0  0  0  0  0  0  0
   56.4780   29.9830   42.3690 N   0  0  0  0  0  0  0  0  0  0  0  0
   56.2830   31.4900   44.5300 O   0  0  0  0  0  0  0  0  0  0  0  0
   55.1390   29.3320   44.5500 O   0  0  0  0  0  0  0  0  0  0  0  0
   58.4820   29.9560   45.8480 C   0  0  0  0  0  0  0  0  0  0  0  0
   60.1320   32.2050   46.7790 N   0  0  0  0  0  0  0  0  0  0  0  0
   57.6110   33.8207   47.0848 H   0  0  0  0  0  0  0  0  0  0  0  0
   56.7480   34.6767   45.7622 H   0  0  0  0  0  0  0  0  0  0  0  0
   56.8380   32.8827   45.7622 H   0  0  0  0  0  0  0  0  0  0  0  0
   58.9771   32.8528   44.9347 H   0  0  0  0  0  0  0  0  0  0  0  0
   58.4931   34.4785   44.3056 H   0  0  0  0  0  0  0  0  0  0  0  0
   60.5059   35.0076   45.3281 H   0  0  0  0  0  0  0  0  0  0  0  0
   59.3531   35.2836   46.6879 H   0  0  0  0  0  0  0  0  0  0  0  0
   61.8434   34.9365   47.8054 H   0  0  0  0  0  0  0  0  0  0  0  0
   61.8568   34.2131   50.7657 H   0  0  0  0  0  0  0  0  0  0  0  0
   63.6354   34.8014   52.4120 H   0  0  0  0  0  0  0  0  0  0  0  0
   65.9975   34.1121   51.9808 H   0  0  0  0  0  0  0  0  0  0  0  0
   67.2280   32.6610   48.8680 H   0  0  0  0  0  0  0  0  0  0  0  0
   67.5070   32.4850   50.6330 H   0  0  0  0  0  0  0  0  0  0  0  0
   64.7329   32.2651   48.2807 H   0  0  0  0  0  0  0  0  0  0  0  0
   61.0261   27.7183   46.3212 H   0  0  0  0  0  0  0  0  0  0  0  0
   59.8273   26.5753   44.4563 H   0  0  0  0  0  0  0  0  0  0  0  0
   57.7639   27.5880   43.4860 H   0  0  0  0  0  0  0  0  0  0  0  0
   55.7660   29.2880   42.0500 H   0  0  0  0  0  0  0  0  0  0  0  0
   57.4150   29.5830   42.1360 H   0  0  0  0  0  0  0  0  0  0  0  0
   58.1188   30.9256   46.2193 H   0  0  0  0  0  0  0  0  0  0  0  0
  1  2  1  0
  2  3  1  0
  3  4  1  0
  4  5  1  0
  5  6  2  0
  6  7  1  0
  7  8  2  0
  8  9  1  0
  9 10  2  0
 10 11  1  0
 11 12  1  0
 11 13  2  0
  6 14  1  0
 14 15  1  0
 15 16  2  3
 16 17  1  0
 17 18  2  0
 18 19  1  0
 19 20  2  0
 20 21  1  0
 21 22  1  0
 22 23  1  0
 22 24  2  0
 22 25  2  0
 21 26  2  0
 15 27  1  0
 27  4  2  0
 13  7  1  0
 26 17  1  0
  1 28  1  0
  1 29  1  0
  1 30  1  0
  2 31  1  0
  2 32  1  0
  3 33  1  0
  3 34  1  0
  5 35  1  0
  8 36  1  0
  9 37  1  0
 10 38  1  0
 12 39  1  0
 12 40  1  0
 13 41  1  0
 18 42  1  0
 19 43  1  0
 20 44  1  0
 23 45  1  0
 23 46  1  0
 26 47  1  0
M  CHG  2   7   1  14  -1
M  END
>  <UniqueID>  (62) 
57

>  <SMILES>  (62) 
CCCc1cc(-[n+]2cccc(N)c2)[n-]c(=Nc2cccc(S(N)(=O)=O)c2)n1

>  <Energy>  (62) 
53.03753041723771

>  <Genealogy>  (62) 
CCCc1cc(-[n+]2cccc(N)c2)[n-]c(=Nc2cccc(S(N)(=O)=O)c2)n1 (protonated)
CCCc1cc(-[n+]2cccc(N)c2)[n-]c(=Nc2cccc(S(N)(=O)=O)c2)n1 (3D coordinates assigned)
CCCc1cc(-[n+]2cccc(N)c2)[n-]c(=Nc2cccc(S(N)(=O)=O)c2)n1 (optimized conformer: 53.03753041723771 kcal/mol)

>  <smiles>  (62) 
CCCc1cc(-[n+]2cccc(N)c2)[nH]c(=Nc2cccc(S(N)(=O)=O)c2)n1

>  <score_type>  (62) 
oracle

>  <origin>  (62) 
adg

>  <m_score__min__energy>  (62) 
-9.2400000000000002

>  <m_primary>  (62) 
energy

$$$$
62:0
     RDKit          3D

 35 37  0  0  0  0  0  0  0  0999 V2000
   58.9720   27.7520   45.1630 O   0  0  0  0  0  0  0  0  0  0  0  0
   57.8020   27.9110   45.6050 C   0  0  0  0  0  0  0  0  0  0  0  0
   57.3670   29.2130   46.0360 N   0  0  0  0  0  0  0  0  0  0  0  0
   58.2590   30.3100   46.2970 C   0  0  0  0  0  0  0  0  0  0  0  0
   57.9920   31.6040   45.8150 C   0  0  0  0  0  0  0  0  0  0  0  0
   58.8880   32.6480   46.0640 C   0  0  0  0  0  0  0  0  0  0  0  0
   60.0600   32.4210   46.7920 C   0  0  0  0  0  0  0  0  0  0  0  0
   60.9390   33.4930   47.0090 O   0  0  0  0  0  0  0  0  0  0  0  0
   62.0080   33.4980   47.9160 C   0  0  0  0  0  0  0  0  0  0  0  0
   61.8620   34.1910   49.1240 C   0  0  0  0  0  0  0  0  0  0  0  0
   62.9010   34.2050   50.0610 C   0  0  0  0  0  0  0  0  0  0  0  0
   64.0890   33.5170   49.8000 C   0  0  0  0  0  0  0  0  0  0  0  0
   64.2360   32.8060   48.6070 C   0  0  0  0  0  0  0  0  0  0  0  0
   63.2000   32.7910   47.6680 C   0  0  0  0  0  0  0  0  0  0  0  0
   60.3500   31.1200   47.2400 C   0  0  0  0  0  0  0  0  0  0  0  0
   59.4560   30.0750   46.9920 C   0  0  0  0  0  0  0  0  0  0  0  0
   56.8700   26.7640   45.6390 C   0  0  0  0  0  0  0  0  0  0  0  0
   57.3090   25.4600   45.3710 C   0  0  0  0  0  0  0  0  0  0  0  0
   56.3960   24.4080   45.4190 C   0  0  0  0  0  0  0  0  0  0  0  0
   55.0660   24.6770   45.7350 C   0  0  0  0  0  0  0  0  0  0  0  0
   54.2210   23.7460   45.7870 O   0  0  0  0  0  0  0  0  0  0  0  0
   54.6850   25.9550   45.9910 N   0  0  0  0  0  0  0  0  0  0  0  0
   55.5580   26.9640   45.9440 N   0  0  0  0  0  0  0  0  0  0  0  0
   56.3400   29.4030   46.0760 H   0  0  0  0  0  0  0  0  0  0  0  0
   57.0743   31.7955   45.2396 H   0  0  0  0  0  0  0  0  0  0  0  0
   58.6690   33.6567   45.6839 H   0  0  0  0  0  0  0  0  0  0  0  0
   60.9255   34.7272   49.3374 H   0  0  0  0  0  0  0  0  0  0  0  0
   62.7825   34.7583   51.0043 H   0  0  0  0  0  0  0  0  0  0  0  0
   64.9081   33.5354   50.5340 H   0  0  0  0  0  0  0  0  0  0  0  0
   65.1678   32.2572   48.4058 H   0  0  0  0  0  0  0  0  0  0  0  0
   63.3167   32.2248   46.7322 H   0  0  0  0  0  0  0  0  0  0  0  0
   61.2837   30.9242   47.7875 H   0  0  0  0  0  0  0  0  0  0  0  0
   59.6921   29.0600   47.3442 H   0  0  0  0  0  0  0  0  0  0  0  0
   58.3640   25.2688   45.1252 H   0  0  0  0  0  0  0  0  0  0  0  0
   56.7214   23.3782   45.2100 H   0  0  0  0  0  0  0  0  0  0  0  0
  1  2  2  0
  2  3  1  0
  3  4  1  0
  4  5  2  0
  5  6  1  0
  6  7  2  0
  7  8  1  0
  8  9  1  0
  9 10  2  0
 10 11  1  0
 11 12  2  0
 12 13  1  0
 13 14  2  0
  7 15  1  0
 15 16  2  0
  2 17  1  0
 17 18  1  0
 18 19  2  0
 19 20  1  0
 20 21  2  0
 20 22  1  0
 22 23  1  0
 16  4  1  0
 23 17  2  0
 14  9  1  0
  3 24  1  0
  5 25  1  0
  6 26  1  0
 10 27  1  0
 11 28  1  0
 12 29  1  0
 13 30  1  0
 14 31  1  0
 15 32  1  0
 16 33  1  0
 18 34  1  0
 19 35  1  0
M  CHG  1  22  -1
M  END
>  <UniqueID>  (63) 
58

>  <SMILES>  (63) 
O=C(Nc1ccc(Oc2ccccc2)cc1)c1ccc(=O)[n-]n1

>  <Energy>  (63) 
49.69087378024975

>  <Genealogy>  (63) 
O=C(Nc1ccc(Oc2ccccc2)cc1)c1ccc(=O)[n-]n1 (protonated)
O=C(Nc1ccc(Oc2ccccc2)cc1)c1ccc(=O)[n-]n1 (3D coordinates assigned)
O=C(Nc1ccc(Oc2ccccc2)cc1)c1ccc(=O)[n-]n1 (optimized conformer: 49.69087378024975 kcal/mol)

>  <smiles>  (63) 
O=C(Nc1ccc(Oc2ccccc2)cc1)c1ccc(=O)[nH]n1

>  <score_type>  (63) 
oracle

>  <origin>  (63) 
adg

>  <m_score__min__energy>  (63) 
-10.08

>  <m_primary>  (63) 
energy

$$$$
63:0
     RDKit          3D

 77 81  0  0  0  0  0  0  0  0999 V2000
   58.3620   34.4550   45.6970 C   0  0  0  0  0  0  0  0  0  0  0  0
   58.5270   33.1970   46.4420 N   0  0  0  0  0  0  0  0  0  0  0  0
   59.2350   32.1860   45.6190 C   0  0  0  0  0  0  0  0  0  0  0  0
   58.2530   31.1530   45.0920 C   0  0  0  0  0  0  0  0  0  0  0  0
   57.1890   31.5740   44.2720 C   0  0  0  0  0  0  0  0  0  0  0  0
   56.2770   30.6590   43.7500 C   0  0  0  0  0  0  0  0  0  0  0  0
   56.3990   29.3030   44.0540 C   0  0  0  0  0  0  0  0  0  0  0  0
   57.4200   28.8670   44.8980 C   0  0  0  0  0  0  0  0  0  0  0  0
   58.3540   29.7760   45.4270 C   0  0  0  0  0  0  0  0  0  0  0  0
   59.3570   29.2670   46.3860 C   0  0  0  0  0  0  0  0  0  0  0  0
   60.5850   29.3120   46.1140 O   0  0  0  0  0  0  0  0  0  0  0  0
   58.9230   28.7280   47.6380 N   0  0  0  0  0  0  0  0  0  0  0  0
   59.4160   29.1550   48.9110 C   0  0  0  0  0  0  0  0  0  0  0  0
   60.6710   28.7450   49.3900 C   0  0  0  0  0  0  0  0  0  0  0  0
   61.0930   29.1200   50.6670 C   0  0  0  0  0  0  0  0  0  0  0  0
   60.2620   29.8890   51.4820 C   0  0  0  0  0  0  0  0  0  0  0  0
   59.0100   30.3180   51.0140 C   0  0  0  0  0  0  0  0  0  0  0  0
   58.1040   31.1320   51.9150 C   0  0  0  0  0  0  0  0  0  0  0  0
   58.3000   32.5720   51.6950 N   0  0  0  0  0  0  0  0  0  0  0  0
   59.5940   32.9770   52.1820 C   0  0  0  0  0  0  0  0  0  0  0  0
   59.8510   33.0610   53.5600 C   0  0  0  0  0  0  0  0  0  0  0  0
   61.1230   33.4060   54.0230 C   0  0  0  0  0  0  0  0  0  0  0  0
   62.1410   33.6950   53.1150 C   0  0  0  0  0  0  0  0  0  0  0  0
   61.9060   33.6180   51.7330 C   0  0  0  0  0  0  0  0  0  0  0  0
   63.0210   33.8100   50.7820 C   0  0  0  0  0  0  0  0  0  0  0  0
   62.8970   34.6550   49.8500 O   0  0  0  0  0  0  0  0  0  0  0  0
   64.2280   33.0220   50.8750 N   0  0  0  0  0  0  0  0  0  0  0  0
   65.5300   33.7060   50.8370 C   0  0  0  0  0  0  0  0  0  0  0  0
   66.6590   32.7260   50.4750 C   0  0  0  0  0  0  0  0  0  0  0  0
   66.5800   31.5420   51.2480 O   0  0  0  0  0  0  0  0  0  0  0  0
   65.3980   30.8480   50.9090 C   0  0  0  0  0  0  0  0  0  0  0  0
   64.1630   31.6320   51.3590 C   0  0  0  0  0  0  0  0  0  0  0  0
   60.6230   33.2900   51.2720 C   0  0  0  0  0  0  0  0  0  0  0  0
   58.6020   29.9630   49.7190 C   0  0  0  0  0  0  0  0  0  0  0  0
   59.3450   33.5210   47.9610 S   0  0  0  0  0  0  0  0  0  0  0  0
   58.7250   32.7470   49.0960 O   0  0  0  0  0  0  0  0  0  0  0  0
   59.3000   34.9750   48.3220 O   0  0  0  0  0  0  0  0  0  0  0  0
   61.0280   33.0360   47.7900 C   0  0  0  0  0  0  0  0  0  0  0  0
   61.4830   31.8490   48.3810 C   0  0  0  0  0  0  0  0  0  0  0  0
   62.8230   31.4660   48.2500 C   0  0  0  0  0  0  0  0  0  0  0  0
   63.7130   32.2620   47.5260 C   0  0  0  0  0  0  0  0  0  0  0  0
   63.2600   33.4420   46.9330 C   0  0  0  0  0  0  0  0  0  0  0  0
   61.9240   33.8310   47.0670 C   0  0  0  0  0  0  0  0  0  0  0  0
   58.2526   35.2892   46.4057 H   0  0  0  0  0  0  0  0  0  0  0  0
   59.2455   34.6250   45.0642 H   0  0  0  0  0  0  0  0  0  0  0  0
   57.4645   34.3914   45.0642 H   0  0  0  0  0  0  0  0  0  0  0  0
   59.7246   32.6869   44.7709 H   0  0  0  0  0  0  0  0  0  0  0  0
   59.9864   31.6797   46.2427 H   0  0  0  0  0  0  0  0  0  0  0  0
   57.0757   32.6432   44.0395 H   0  0  0  0  0  0  0  0  0  0  0  0
   55.4613   31.0057   43.0986 H   0  0  0  0  0  0  0  0  0  0  0  0
   55.6900   28.5778   43.6281 H   0  0  0  0  0  0  0  0  0  0  0  0
   57.4958   27.7997   45.1530 H   0  0  0  0  0  0  0  0  0  0  0  0
   61.3238   28.1262   48.7568 H   0  0  0  0  0  0  0  0  0  0  0  0
   62.0830   28.8083   51.0313 H   0  0  0  0  0  0  0  0  0  0  0  0
   60.5895   30.1605   52.4964 H   0  0  0  0  0  0  0  0  0  0  0  0
   57.0565   30.8743   51.6997 H   0  0  0  0  0  0  0  0  0  0  0  0
   58.3500   30.9002   52.9618 H   0  0  0  0  0  0  0  0  0  0  0  0
   57.5460   33.1030   52.1850 H   0  0  0  0  0  0  0  0  0  0  0  0
   58.2340   32.8000   50.6710 H   0  0  0  0  0  0  0  0  0  0  0  0
   59.0453   32.8537   54.2796 H   0  0  0  0  0  0  0  0  0  0  0  0
   61.3216   33.4497   55.1040 H   0  0  0  0  0  0  0  0  0  0  0  0
   63.1356   33.9855   53.4843 H   0  0  0  0  0  0  0  0  0  0  0  0
   65.4936   34.5065   50.0835 H   0  0  0  0  0  0  0  0  0  0  0  0
   65.7352   34.1231   51.8340 H   0  0  0  0  0  0  0  0  0  0  0  0
   66.5785   32.4644   49.4096 H   0  0  0  0  0  0  0  0  0  0  0  0
   67.6225   33.2137   50.6842 H   0  0  0  0  0  0  0  0  0  0  0  0
   65.3605   30.7098   49.8184 H   0  0  0  0  0  0  0  0  0  0  0  0
   65.4024   29.8724   51.4171 H   0  0  0  0  0  0  0  0  0  0  0  0
   63.2610   31.1498   50.9541 H   0  0  0  0  0  0  0  0  0  0  0  0
   64.1285   31.6400   52.4584 H   0  0  0  0  0  0  0  0  0  0  0  0
   60.4183   33.2770   50.1913 H   0  0  0  0  0  0  0  0  0  0  0  0
   57.6358   30.3213   49.3342 H   0  0  0  0  0  0  0  0  0  0  0  0
   60.7850   31.2167   48.9493 H   0  0  0  0  0  0  0  0  0  0  0  0
   63.1759   30.5355   48.7186 H   0  0  0  0  0  0  0  0  0  0  0  0
   64.7660   31.9608   47.4234 H   0  0  0  0  0  0  0  0  0  0  0  0
   63.9576   34.0685   46.3577 H   0  0  0  0  0  0  0  0  0  0  0  0
   61.5760   34.7654   46.6024 H   0  0  0  0  0  0  0  0  0  0  0  0
  1  2  1  0
  2  3  1  0
  3  4  1  0
  4  5  2  0
  5  6  1  0
  6  7  2  0
  7  8  1  0
  8  9  2  0
  9 10  1  0
 10 11  2  0
 10 12  1  0
 12 13  1  0
 13 14  2  0
 14 15  1  0
 15 16  2  0
 16 17  1  0
 17 18  1  0
 18 19  1  0
 19 20  1  0
 20 21  2  0
 21 22  1  0
 22 23  2  0
 23 24  1  0
 24 25  1  0
 25 26  2  0
 25 27  1  0
 27 28  1  0
 28 29  1  0
 29 30  1  0
 30 31  1  0
 31 32  1  0
 24 33  2  0
 17 34  2  0
  2 35  1  0
 35 36  2  0
 35 37  2  0
 35 38  1  0
 38 39  2  0
 39 40  1  0
 40 41  2  0
 41 42  1  0
 42 43  2  0
  9  4  1  0
 34 13  1  0
 43 38  1  0
 33 20  1  0
 32 27  1  0
  1 44  1  0
  1 45  1  0
  1 46  1  0
  3 47  1  0
  3 48  1  0
  5 49  1  0
  6 50  1  0
  7 51  1  0
  8 52  1  0
 14 53  1  0
 15 54  1  0
 16 55  1  0
 18 56  1  0
 18 57  1  0
 19 58  1  0
 19 59  1  0
 21 60  1  0
 22 61  1  0
 23 62  1  0
 28 63  1  0
 28 64  1  0
 29 65  1  0
 29 66  1  0
 31 67  1  0
 31 68  1  0
 32 69  1  0
 32 70  1  0
 33 71  1  0
 34 72  1  0
 39 73  1  0
 40 74  1  0
 41 75  1  0
 42 76  1  0
 43 77  1  0
M  CHG  2  12  -1  19   1
M  END
>  <UniqueID>  (64) 
59

>  <SMILES>  (64) 
CN(Cc1ccccc1C(=O)[N-]c1cccc(C[NH2+]c2cccc(C(=O)N3CCOCC3)c2)c1)S(=O)(=O)c1ccccc1

>  <Energy>  (64) 
110.43430843858943

>  <Genealogy>  (64) 
CN(Cc1ccccc1C(=O)[N-]c1cccc(C[NH2+]c2cccc(C(=O)N3CCOCC3)c2)c1)S(=O)(=O)c1ccccc1 (protonated)
CN(Cc1ccccc1C(=O)[N-]c1cccc(C[NH2+]c2cccc(C(=O)N3CCOCC3)c2)c1)S(=O)(=O)c1ccccc1 (3D coordinates assigned)
CN(Cc1ccccc1C(=O)[N-]c1cccc(C[NH2+]c2cccc(C(=O)N3CCOCC3)c2)c1)S(=O)(=O)c1ccccc1 (nonaromatic ring conformer: 110.43430843858943 kcal/mol)

>  <smiles>  (64) 
CN(Cc1ccccc1C(=O)Nc1cccc(CNc2cccc(C(=O)N3CCOCC3)c2)c1)S(=O)(=O)c1ccccc1

>  <score_type>  (64) 
oracle

>  <origin>  (64) 
adg

>  <m_score__min__energy>  (64) 
-11.460000000000001

>  <m_primary>  (64) 
energy

$$$$
64:0
     RDKit          3D

 36 38  0  0  0  0  0  0  0  0999 V2000
   54.7630   26.3410   45.9940 N   0  0  0  0  0  0  0  0  0  0  0  0
   56.3800   25.7550   46.1480 S   0  0  0  0  0  0  0  0  0  0  0  0
   56.6290   24.7260   45.0810 O   0  0  0  0  0  0  0  0  0  0  0  0
   56.5530   25.1230   47.4990 O   0  0  0  0  0  0  0  0  0  0  0  0
   57.5110   27.0930   45.9770 C   0  0  0  0  0  0  0  0  0  0  0  0
   57.9130   27.5350   44.7080 C   0  0  0  0  0  0  0  0  0  0  0  0
   58.8320   28.5830   44.5910 C   0  0  0  0  0  0  0  0  0  0  0  0
   59.3310   29.2120   45.7380 C   0  0  0  0  0  0  0  0  0  0  0  0
   58.9160   28.7870   47.0110 C   0  0  0  0  0  0  0  0  0  0  0  0
   59.4830   29.6150   48.4580 S   0  0  0  0  0  0  0  0  0  0  0  0
   58.6030   29.2330   49.6150 O   0  0  0  0  0  0  0  0  0  0  0  0
   60.9050   29.2340   48.7660 O   0  0  0  0  0  0  0  0  0  0  0  0
   59.3920   31.3330   48.2210 N   0  0  0  0  0  0  0  0  0  0  0  0
   60.5020   32.1780   47.8750 C   0  0  0  0  0  0  0  0  0  0  0  0
   61.7250   32.0790   48.5720 C   0  0  0  0  0  0  0  0  0  0  0  0
   62.8140   32.8750   48.2180 C   0  0  0  0  0  0  0  0  0  0  0  0
   64.3340   32.7270   49.0850 Cl  0  0  0  0  0  0  0  0  0  0  0  0
   62.6960   33.7880   47.1710 C   0  0  0  0  0  0  0  0  0  0  0  0
   61.4910   33.9040   46.4690 C   0  0  0  0  0  0  0  0  0  0  0  0
   60.3840   33.1030   46.8050 C   0  0  0  0  0  0  0  0  0  0  0  0
   59.1480   33.2270   45.9870 C   0  0  0  0  0  0  0  0  0  0  0  0
   58.3600   34.3220   45.9500 N   0  0  0  0  0  0  0  0  0  0  0  0
   57.3670   33.9710   45.1080 C   0  0  0  0  0  0  0  0  0  0  0  0
   57.5850   32.6900   44.6620 C   0  0  0  0  0  0  0  0  0  0  0  0
   58.6890   32.2600   45.2190 O   0  0  0  0  0  0  0  0  0  0  0  0
   58.0250   27.7100   47.1250 C   0  0  0  0  0  0  0  0  0  0  0  0
   54.6460   27.0990   46.7080 H   0  0  0  0  0  0  0  0  0  0  0  0
   57.5055   27.0574   43.8047 H   0  0  0  0  0  0  0  0  0  0  0  0
   59.1634   28.9137   43.5956 H   0  0  0  0  0  0  0  0  0  0  0  0
   60.0489   30.0400   45.6422 H   0  0  0  0  0  0  0  0  0  0  0  0
   61.8205   31.3658   49.4040 H   0  0  0  0  0  0  0  0  0  0  0  0
   63.5534   34.4196   46.8957 H   0  0  0  0  0  0  0  0  0  0  0  0
   61.4083   34.6290   45.6459 H   0  0  0  0  0  0  0  0  0  0  0  0
   56.5173   34.6090   44.8234 H   0  0  0  0  0  0  0  0  0  0  0  0
   56.9477   32.1277   43.9637 H   0  0  0  0  0  0  0  0  0  0  0  0
   57.7283   27.3480   48.1205 H   0  0  0  0  0  0  0  0  0  0  0  0
  1  2  1  0
  2  3  2  0
  2  4  2  0
  2  5  1  0
  5  6  2  0
  6  7  1  0
  7  8  2  0
  8  9  1  0
  9 10  1  0
 10 11  2  0
 10 12  2  0
 10 13  1  0
 13 14  1  0
 14 15  2  0
 15 16  1  0
 16 17  1  0
 16 18  2  0
 18 19  1  0
 19 20  2  0
 20 21  1  0
 21 22  2  0
 22 23  1  0
 23 24  2  0
 24 25  1  0
  9 26  2  0
 26  5  1  0
 20 14  1  0
 25 21  1  0
  1 27  1  0
  6 28  1  0
  7 29  1  0
  8 30  1  0
 15 31  1  0
 18 32  1  0
 19 33  1  0
 23 34  1  0
 24 35  1  0
 26 36  1  0
M  CHG  2   1  -1  13  -1
M  END
>  <UniqueID>  (65) 
60

>  <SMILES>  (65) 
[NH-]S(=O)(=O)c1cccc(S(=O)(=O)[N-]c2cc(Cl)ccc2-c2ncco2)c1

>  <Energy>  (65) 
72.40170812016778

>  <Genealogy>  (65) 
[NH-]S(=O)(=O)c1cccc(S(=O)(=O)[N-]c2cc(Cl)ccc2-c2ncco2)c1 (protonated)
[NH-]S(=O)(=O)c1cccc(S(=O)(=O)[N-]c2cc(Cl)ccc2-c2ncco2)c1 (3D coordinates assigned)
[NH-]S(=O)(=O)c1cccc(S(=O)(=O)[N-]c2cc(Cl)ccc2-c2ncco2)c1 (optimized conformer: 72.40170812016778 kcal/mol)

>  <smiles>  (65) 
NS(=O)(=O)c1cccc(S(=O)(=O)Nc2cc(Cl)ccc2-c2ncco2)c1

>  <score_type>  (65) 
oracle

>  <origin>  (65) 
adg

>  <m_score__min__energy>  (65) 
-13.06

>  <m_primary>  (65) 
energy

$$$$
65:0
     RDKit          3D

 51 53  0  0  0  0  0  0  0  0999 V2000
   57.0860   30.9220   43.8240 C   0  0  0  0  0  0  0  0  0  0  0  0
   56.9010   30.4780   45.1650 O   0  0  0  0  0  0  0  0  0  0  0  0
   57.8010   29.6550   45.8590 C   0  0  0  0  0  0  0  0  0  0  0  0
   57.5210   28.2890   45.9400 C   0  0  0  0  0  0  0  0  0  0  0  0
   58.3770   27.4260   46.6280 C   0  0  0  0  0  0  0  0  0  0  0  0
   59.5430   27.9200   47.2420 C   0  0  0  0  0  0  0  0  0  0  0  0
   60.4270   27.0780   47.9380 O   0  0  0  0  0  0  0  0  0  0  0  0
   60.6300   27.1070   49.3470 C   0  0  0  0  0  0  0  0  0  0  0  0
   59.8430   29.2910   47.1510 C   0  0  0  0  0  0  0  0  0  0  0  0
   61.0200   29.8060   47.8010 N   0  0  0  0  0  0  0  0  0  0  0  0
   61.5950   31.0900   47.5090 C   0  0  0  0  0  0  0  0  0  0  0  0
   61.1490   31.7950   46.5630 O   0  0  0  0  0  0  0  0  0  0  0  0
   62.7730   31.5860   48.2950 C   0  0  0  0  0  0  0  0  0  0  0  0
   62.3370   32.0530   49.6300 N   0  0  0  0  0  0  0  0  0  0  0  0
   62.4950   33.5160   49.7780 C   0  0  0  0  0  0  0  0  0  0  0  0
   61.5550   34.2860   48.8330 C   0  0  0  0  0  0  0  0  0  0  0  0
   60.2650   33.5960   48.7170 N   0  0  0  0  0  0  0  0  0  0  0  0
   59.4300   33.8090   47.5630 C   0  0  0  0  0  0  0  0  0  0  0  0
   58.1500   33.2300   47.4890 C   0  0  0  0  0  0  0  0  0  0  0  0
   57.3480   33.4270   46.3610 C   0  0  0  0  0  0  0  0  0  0  0  0
   57.8160   34.1990   45.2950 C   0  0  0  0  0  0  0  0  0  0  0  0
   57.0370   34.3900   44.2020 F   0  0  0  0  0  0  0  0  0  0  0  0
   59.0900   34.7710   45.3530 C   0  0  0  0  0  0  0  0  0  0  0  0
   59.8960   34.5750   46.4790 C   0  0  0  0  0  0  0  0  0  0  0  0
   59.8750   32.6630   49.7790 C   0  0  0  0  0  0  0  0  0  0  0  0
   60.9650   31.5910   49.9760 C   0  0  0  0  0  0  0  0  0  0  0  0
   58.9630   30.1550   46.4740 C   0  0  0  0  0  0  0  0  0  0  0  0
   57.5091   31.9374   43.8290 H   0  0  0  0  0  0  0  0  0  0  0  0
   57.7749   30.2403   43.3038 H   0  0  0  0  0  0  0  0  0  0  0  0
   56.1168   30.9312   43.3038 H   0  0  0  0  0  0  0  0  0  0  0  0
   56.6173   27.8889   45.4571 H   0  0  0  0  0  0  0  0  0  0  0  0
   58.1384   26.3540   46.6903 H   0  0  0  0  0  0  0  0  0  0  0  0
   59.6663   26.9693   49.8592 H   0  0  0  0  0  0  0  0  0  0  0  0
   61.3173   26.2979   49.6352 H   0  0  0  0  0  0  0  0  0  0  0  0
   61.0632   28.0762   49.6352 H   0  0  0  0  0  0  0  0  0  0  0  0
   61.5440   29.1710   48.4430 H   0  0  0  0  0  0  0  0  0  0  0  0
   63.4995   30.7689   48.4154 H   0  0  0  0  0  0  0  0  0  0  0  0
   63.2369   32.4248   47.7553 H   0  0  0  0  0  0  0  0  0  0  0  0
   62.2654   33.7966   50.8165 H   0  0  0  0  0  0  0  0  0  0  0  0
   63.5319   33.7779   49.5204 H   0  0  0  0  0  0  0  0  0  0  0  0
   61.3898   35.2977   49.2320 H   0  0  0  0  0  0  0  0  0  0  0  0
   62.0193   34.3422   47.8374 H   0  0  0  0  0  0  0  0  0  0  0  0
   57.7778   32.6183   48.3241 H   0  0  0  0  0  0  0  0  0  0  0  0
   56.3470   32.9735   46.3128 H   0  0  0  0  0  0  0  0  0  0  0  0
   59.4592   35.3761   44.5119 H   0  0  0  0  0  0  0  0  0  0  0  0
   60.9002   35.0224   46.5172 H   0  0  0  0  0  0  0  0  0  0  0  0
   59.7387   33.2189   50.7184 H   0  0  0  0  0  0  0  0  0  0  0  0
   58.9345   32.1689   49.4937 H   0  0  0  0  0  0  0  0  0  0  0  0
   60.9598   31.2822   51.0317 H   0  0  0  0  0  0  0  0  0  0  0  0
   60.7255   30.7636   49.2919 H   0  0  0  0  0  0  0  0  0  0  0  0
   59.1856   31.2311   46.4252 H   0  0  0  0  0  0  0  0  0  0  0  0
  1  2  1  0
  2  3  1  0
  3  4  2  0
  4  5  1  0
  5  6  2  0
  6  7  1  0
  7  8  1  0
  6  9  1  0
  9 10  1  0
 10 11  1  0
 11 12  2  0
 11 13  1  0
 13 14  1  0
 14 15  1  0
 15 16  1  0
 16 17  1  0
 17 18  1  0
 18 19  2  0
 19 20  1  0
 20 21  2  0
 21 22  1  0
 21 23  1  0
 23 24  2  0
 17 25  1  0
 25 26  1  0
  9 27  2  0
 27  3  1  0
 26 14  1  0
 24 18  1  0
  1 28  1  0
  1 29  1  0
  1 30  1  0
  4 31  1  0
  5 32  1  0
  8 33  1  0
  8 34  1  0
  8 35  1  0
 10 36  1  0
 13 37  1  0
 13 38  1  0
 15 39  1  0
 15 40  1  0
 16 41  1  0
 16 42  1  0
 19 43  1  0
 20 44  1  0
 23 45  1  0
 24 46  1  0
 25 47  1  0
 25 48  1  0
 26 49  1  0
 26 50  1  0
 27 51  1  0
M  END
>  <UniqueID>  (66) 
61

>  <SMILES>  (66) 
COc1ccc(OC)c(NC(=O)CN2CCN(c3ccc(F)cc3)CC2)c1

>  <Energy>  (66) 
65.5126395258144

>  <Genealogy>  (66) 
COc1ccc(OC)c(NC(=O)CN2CCN(c3ccc(F)cc3)CC2)c1 (3D coordinates assigned)
COc1ccc(OC)c(NC(=O)CN2CCN(c3ccc(F)cc3)CC2)c1 (nonaromatic ring conformer: 65.5126395258144 kcal/mol)

>  <smiles>  (66) 
COc1ccc(OC)c(NC(=O)CN2CCN(c3ccc(F)cc3)CC2)c1

>  <score_type>  (66) 
oracle

>  <origin>  (66) 
adg

>  <m_score__min__energy>  (66) 
-8.3300000000000001

>  <m_primary>  (66) 
energy

$$$$
66:0
     RDKit          3D

 56 59  0  0  0  0  0  0  0  0999 V2000
   59.6560   34.5110   49.5160 C   0  0  0  0  0  0  0  0  0  0  0  0
   59.6070   33.0500   49.1300 C   0  0  0  0  0  0  0  0  0  0  0  0
   59.9070   32.6380   47.8090 C   0  0  0  0  0  0  0  0  0  0  0  0
   60.2280   33.5930   46.7880 N   0  0  0  0  0  0  0  0  0  0  0  0
   61.6040   34.0670   46.6220 C   0  0  0  0  0  0  0  0  0  0  0  0
   62.4960   33.4630   47.6720 C   0  0  0  0  0  0  0  0  0  0  0  0
   63.0180   32.1740   47.4950 C   0  0  0  0  0  0  0  0  0  0  0  0
   63.7980   31.5880   48.4920 C   0  0  0  0  0  0  0  0  0  0  0  0
   64.0580   32.2780   49.6800 C   0  0  0  0  0  0  0  0  0  0  0  0
   64.8140   31.6840   50.6360 F   0  0  0  0  0  0  0  0  0  0  0  0
   63.5320   33.5690   49.8810 C   0  0  0  0  0  0  0  0  0  0  0  0
   63.8070   34.2950   51.1770 C   0  0  0  0  0  0  0  0  0  0  0  0
   63.4560   35.6320   51.1020 F   0  0  0  0  0  0  0  0  0  0  0  0
   65.1560   34.2150   51.4770 F   0  0  0  0  0  0  0  0  0  0  0  0
   63.0810   33.7060   52.1970 F   0  0  0  0  0  0  0  0  0  0  0  0
   62.7450   34.1520   48.8700 C   0  0  0  0  0  0  0  0  0  0  0  0
   58.9490   34.2690   45.8300 S   0  0  0  0  0  0  0  0  0  0  0  0
   59.4480   35.4860   45.1040 O   0  0  0  0  0  0  0  0  0  0  0  0
   57.8070   34.6820   46.7160 O   0  0  0  0  0  0  0  0  0  0  0  0
   58.3840   33.0580   44.6860 C   0  0  0  0  0  0  0  0  0  0  0  0
   58.4620   33.2920   43.3070 C   0  0  0  0  0  0  0  0  0  0  0  0
   58.0380   32.3140   42.4040 C   0  0  0  0  0  0  0  0  0  0  0  0
   57.5460   31.0930   42.8730 C   0  0  0  0  0  0  0  0  0  0  0  0
   57.4760   30.8450   44.2520 C   0  0  0  0  0  0  0  0  0  0  0  0
   56.8780   29.3060   44.8610 S   0  0  0  0  0  0  0  0  0  0  0  0
   55.1500   29.2970   44.8170 N   0  0  0  0  0  0  0  0  0  0  0  0
   57.4100   28.1890   44.0070 O   0  0  0  0  0  0  0  0  0  0  0  0
   57.3270   29.0990   46.2810 O   0  0  0  0  0  0  0  0  0  0  0  0
   57.8890   31.8340   45.1540 C   0  0  0  0  0  0  0  0  0  0  0  0
   59.8950   31.3170   47.4820 N   0  0  0  0  0  0  0  0  0  0  0  0
   59.5840   30.3530   48.3840 C   0  0  0  0  0  0  0  0  0  0  0  0
   59.2630   30.6940   49.6990 C   0  0  0  0  0  0  0  0  0  0  0  0
   58.9380   29.6940   50.6290 C   0  0  0  0  0  0  0  0  0  0  0  0
   58.6180   30.0360   51.9430 C   0  0  0  0  0  0  0  0  0  0  0  0
   58.6190   31.3740   52.3380 C   0  0  0  0  0  0  0  0  0  0  0  0
   58.9410   32.3800   51.4220 C   0  0  0  0  0  0  0  0  0  0  0  0
   59.2710   32.0570   50.0860 C   0  0  0  0  0  0  0  0  0  0  0  0
   59.6590   34.6007   50.6123 H   0  0  0  0  0  0  0  0  0  0  0  0
   60.5700   34.9675   49.1082 H   0  0  0  0  0  0  0  0  0  0  0  0
   58.7747   35.0277   49.1082 H   0  0  0  0  0  0  0  0  0  0  0  0
   61.9695   33.7777   45.6256 H   0  0  0  0  0  0  0  0  0  0  0  0
   61.6197   35.1619   46.7267 H   0  0  0  0  0  0  0  0  0  0  0  0
   62.8116   31.6224   46.5660 H   0  0  0  0  0  0  0  0  0  0  0  0
   64.2102   30.5791   48.3430 H   0  0  0  0  0  0  0  0  0  0  0  0
   62.3213   35.1561   49.0197 H   0  0  0  0  0  0  0  0  0  0  0  0
   58.8581   34.2481   42.9343 H   0  0  0  0  0  0  0  0  0  0  0  0
   58.0915   32.5053   41.3221 H   0  0  0  0  0  0  0  0  0  0  0  0
   57.2130   30.3249   42.1595 H   0  0  0  0  0  0  0  0  0  0  0  0
   54.8170   29.3550   45.8050 H   0  0  0  0  0  0  0  0  0  0  0  0
   57.8242   31.6483   46.2363 H   0  0  0  0  0  0  0  0  0  0  0  0
   60.1240   31.0300   46.5040 H   0  0  0  0  0  0  0  0  0  0  0  0
   59.5847   29.2965   48.0776 H   0  0  0  0  0  0  0  0  0  0  0  0
   58.9357   28.6380   50.3208 H   0  0  0  0  0  0  0  0  0  0  0  0
   58.3645   29.2494   52.6689 H   0  0  0  0  0  0  0  0  0  0  0  0
   58.3652   31.6388   53.3751 H   0  0  0  0  0  0  0  0  0  0  0  0
   58.9375   33.4319   51.7437 H   0  0  0  0  0  0  0  0  0  0  0  0
  1  2  1  0
  2  3  2  0
  3  4  1  0
  4  5  1  0
  5  6  1  0
  6  7  2  0
  7  8  1  0
  8  9  2  0
  9 10  1  0
  9 11  1  0
 11 12  1  0
 12 13  1  0
 12 14  1  0
 12 15  1  0
 11 16  2  0
  4 17  1  0
 17 18  2  0
 17 19  2  0
 17 20  1  0
 20 21  2  0
 21 22  1  0
 22 23  2  0
 23 24  1  0
 24 25  1  0
 25 26  1  0
 25 27  2  0
 25 28  2  0
 24 29  2  0
  3 30  1  0
 30 31  2  0
 31 32  1  0
 32 33  2  0
 33 34  1  0
 34 35  2  0
 35 36  1  0
 36 37  2  0
 37  2  1  0
 16  6  1  0
 29 20  1  0
 37 32  1  0
  1 38  1  0
  1 39  1  0
  1 40  1  0
  5 41  1  0
  5 42  1  0
  7 43  1  0
  8 44  1  0
 16 45  1  0
 21 46  1  0
 22 47  1  0
 23 48  1  0
 26 49  1  0
 29 50  1  0
 30 51  1  0
 31 52  1  0
 33 53  1  0
 34 54  1  0
 35 55  1  0
 36 56  1  0
M  CHG  2  26  -1  30   1
M  END
>  <UniqueID>  (67) 
62

>  <SMILES>  (67) 
Cc1c(N(Cc2ccc(F)c(C(F)(F)F)c2)S(=O)(=O)c2cccc(S([NH-])(=O)=O)c2)[nH+]cc2ccccc12

>  <Energy>  (67) 
69.9481768646768

>  <Genealogy>  (67) 
Cc1c(N(Cc2ccc(F)c(C(F)(F)F)c2)S(=O)(=O)c2cccc(S([NH-])(=O)=O)c2)[nH+]cc2ccccc12 (protonated)
Cc1c(N(Cc2ccc(F)c(C(F)(F)F)c2)S(=O)(=O)c2cccc(S([NH-])(=O)=O)c2)[nH+]cc2ccccc12 (3D coordinates assigned)
Cc1c(N(Cc2ccc(F)c(C(F)(F)F)c2)S(=O)(=O)c2cccc(S([NH-])(=O)=O)c2)[nH+]cc2ccccc12 (optimized conformer: 69.9481768646768 kcal/mol)

>  <smiles>  (67) 
Cc1c(N(Cc2ccc(F)c(C(F)(F)F)c2)S(=O)(=O)c2cccc(S(N)(=O)=O)c2)ncc2ccccc12

>  <score_type>  (67) 
oracle

>  <origin>  (67) 
adg

>  <m_score__min__energy>  (67) 
-10.970000000000001

>  <m_primary>  (67) 
energy

$$$$
67:0
     RDKit          3D

 42 43  0  0  0  0  0  0  0  0999 V2000
   57.7350   31.9230   42.8370 C   0  0  0  0  0  0  0  0  0  0  0  0
   58.1260   32.3720   44.2190 C   0  0  0  0  0  0  0  0  0  0  0  0
   58.5540   33.6900   44.4320 C   0  0  0  0  0  0  0  0  0  0  0  0
   58.9170   34.1260   45.7070 C   0  0  0  0  0  0  0  0  0  0  0  0
   59.3360   35.4410   45.8710 O   0  0  0  0  0  0  0  0  0  0  0  0
   58.8530   33.2430   46.8050 C   0  0  0  0  0  0  0  0  0  0  0  0
   59.2230   33.7090   48.2070 C   0  0  0  0  0  0  0  0  0  0  0  0
   60.6950   34.1320   48.2810 C   0  0  0  0  0  0  0  0  0  0  0  0
   58.9050   32.6280   49.2470 C   0  0  0  0  0  0  0  0  0  0  0  0
   58.4230   31.9200   46.5870 C   0  0  0  0  0  0  0  0  0  0  0  0
   58.0830   31.4700   45.3000 C   0  0  0  0  0  0  0  0  0  0  0  0
   57.6300   30.1250   45.0750 N   0  0  0  0  0  0  0  0  0  0  0  0
   56.2750   29.6960   44.8850 C   0  0  0  0  0  0  0  0  0  0  0  0
   55.3990   30.5080   44.4870 O   0  0  0  0  0  0  0  0  0  0  0  0
   55.8780   28.3710   45.2500 N   0  0  0  0  0  0  0  0  0  0  0  0
   56.7470   27.3200   45.6920 C   0  0  0  0  0  0  0  0  0  0  0  0
   58.1410   27.4960   45.7790 C   0  0  0  0  0  0  0  0  0  0  0  0
   58.9580   26.4400   46.1890 C   0  0  0  0  0  0  0  0  0  0  0  0
   58.3980   25.1990   46.5040 C   0  0  0  0  0  0  0  0  0  0  0  0
   57.0140   25.0060   46.4020 C   0  0  0  0  0  0  0  0  0  0  0  0
   56.3120   23.4340   46.7670 S   0  0  0  0  0  0  0  0  0  0  0  0
   57.3270   22.5950   47.8860 N   0  0  0  0  0  0  0  0  0  0  0  0
   56.1860   22.6270   45.5050 O   0  0  0  0  0  0  0  0  0  0  0  0
   54.9440   23.6120   47.3640 O   0  0  0  0  0  0  0  0  0  0  0  0
   56.1960   26.0650   45.9810 C   0  0  0  0  0  0  0  0  0  0  0  0
   57.0142   31.0953   42.9106 H   0  0  0  0  0  0  0  0  0  0  0  0
   57.2752   32.7626   42.2951 H   0  0  0  0  0  0  0  0  0  0  0  0
   58.6298   31.5829   42.2951 H   0  0  0  0  0  0  0  0  0  0  0  0
   58.6043   34.3888   43.5840 H   0  0  0  0  0  0  0  0  0  0  0  0
   58.6105   34.5924   48.4402 H   0  0  0  0  0  0  0  0  0  0  0  0
   60.9989   34.2193   49.3346 H   0  0  0  0  0  0  0  0  0  0  0  0
   61.3191   33.3769   47.7808 H   0  0  0  0  0  0  0  0  0  0  0  0
   60.8230   35.1033   47.7808 H   0  0  0  0  0  0  0  0  0  0  0  0
   59.0275   33.0443   50.2578 H   0  0  0  0  0  0  0  0  0  0  0  0
   57.8681   32.2856   49.1146 H   0  0  0  0  0  0  0  0  0  0  0  0
   59.5913   31.7786   49.1146 H   0  0  0  0  0  0  0  0  0  0  0  0
   58.3521   31.2272   47.4384 H   0  0  0  0  0  0  0  0  0  0  0  0
   58.5881   28.4680   45.5233 H   0  0  0  0  0  0  0  0  0  0  0  0
   60.0457   26.5856   46.2642 H   0  0  0  0  0  0  0  0  0  0  0  0
   59.0449   24.3722   46.8326 H   0  0  0  0  0  0  0  0  0  0  0  0
   57.8780   23.3190   48.3990 H   0  0  0  0  0  0  0  0  0  0  0  0
   55.1122   25.9085   45.8769 H   0  0  0  0  0  0  0  0  0  0  0  0
  1  2  1  0
  2  3  2  0
  3  4  1  0
  4  5  1  0
  4  6  2  0
  6  7  1  0
  7  8  1  0
  7  9  1  0
  6 10  1  0
 10 11  2  0
 11 12  1  0
 12 13  1  0
 13 14  2  0
 13 15  1  0
 15 16  1  0
 16 17  2  0
 17 18  1  0
 18 19  2  0
 19 20  1  0
 20 21  1  0
 21 22  1  0
 21 23  2  0
 21 24  2  0
 20 25  2  0
 11  2  1  0
 25 16  1  0
  1 26  1  0
  1 27  1  0
  1 28  1  0
  3 29  1  0
  7 30  1  0
  8 31  1  0
  8 32  1  0
  8 33  1  0
  9 34  1  0
  9 35  1  0
  9 36  1  0
 10 37  1  0
 17 38  1  0
 18 39  1  0
 19 40  1  0
 22 41  1  0
 25 42  1  0
M  CHG  4   5  -1  12  -1  15  -1  22  -1
M  END
>  <UniqueID>  (68) 
63

>  <SMILES>  (68) 
Cc1cc([O-])c(C(C)C)cc1[N-]C(=O)[N-]c1cccc(S([NH-])(=O)=O)c1

>  <Energy>  (68) 
45.9683268763305

>  <Genealogy>  (68) 
Cc1cc([O-])c(C(C)C)cc1[N-]C(=O)[N-]c1cccc(S([NH-])(=O)=O)c1 (protonated)
Cc1cc([O-])c(C(C)C)cc1[N-]C(=O)[N-]c1cccc(S([NH-])(=O)=O)c1 (3D coordinates assigned)
Cc1cc([O-])c(C(C)C)cc1[N-]C(=O)[N-]c1cccc(S([NH-])(=O)=O)c1 (optimized conformer: 45.9683268763305 kcal/mol)

>  <smiles>  (68) 
Cc1cc(O)c(C(C)C)cc1NC(=O)Nc1cccc(S(N)(=O)=O)c1

>  <score_type>  (68) 
oracle

>  <origin>  (68) 
adg

>  <m_score__min__energy>  (68) 
-14.02

>  <m_primary>  (68) 
energy

$$$$
68:0
     RDKit          3D

 57 60  0  0  0  0  0  0  0  0999 V2000
   61.3850   30.6810   49.6350 C   0  0  0  0  0  0  0  0  0  0  0  0
   59.8590   30.8050   49.3890 C   0  0  1  0  0  0  0  0  0  0  0  0
   59.5150   30.5340   47.9340 C   0  0  0  0  0  0  0  0  0  0  0  0
   60.3090   29.8970   47.1890 O   0  0  0  0  0  0  0  0  0  0  0  0
   58.3130   31.0860   47.3800 N   0  0  0  0  0  0  0  0  0  0  0  0
   58.2680   32.2760   46.5800 C   0  0  0  0  0  0  0  0  0  0  0  0
   58.7810   33.4630   47.1210 C   0  0  0  0  0  0  0  0  0  0  0  0
   58.7960   34.6360   46.3640 C   0  0  0  0  0  0  0  0  0  0  0  0
   58.2860   34.6390   45.0630 C   0  0  0  0  0  0  0  0  0  0  0  0
   57.7440   33.4710   44.5220 C   0  0  0  0  0  0  0  0  0  0  0  0
   57.7200   32.2830   45.2720 C   0  0  0  0  0  0  0  0  0  0  0  0
   57.0350   31.0940   44.7120 C   0  0  0  0  0  0  0  0  0  0  0  0
   55.7980   31.1660   44.4760 O   0  0  0  0  0  0  0  0  0  0  0  0
   57.7660   29.8370   44.4140 C   0  0  0  0  0  0  0  0  0  0  0  0
   57.1300   28.7700   43.7520 C   0  0  0  0  0  0  0  0  0  0  0  0
   57.8350   27.6020   43.4510 C   0  0  0  0  0  0  0  0  0  0  0  0
   59.1850   27.4840   43.8000 C   0  0  0  0  0  0  0  0  0  0  0  0
   59.8340   28.5370   44.4590 C   0  0  0  0  0  0  0  0  0  0  0  0
   61.2100   28.4110   44.8290 N   0  0  0  0  0  0  0  0  0  0  0  0
   59.1250   29.7110   44.7570 C   0  0  0  0  0  0  0  0  0  0  0  0
   59.0890   29.8790   50.3310 C   0  0  0  0  0  0  0  0  0  0  0  0
   58.5220   31.1520   50.9340 C   0  0  0  0  0  0  0  0  0  0  0  0
   59.1990   32.0210   49.9530 N   0  0  1  0  0  0  0  0  0  0  0  0
   60.0450   33.0690   50.5090 C   0  0  0  0  0  0  0  0  0  0  0  0
   60.5370   32.9180   51.6200 O   0  0  0  0  0  0  0  0  0  0  0  0
   60.5610   34.2170   49.6700 C   0  0  0  0  0  0  0  0  0  0  0  0
   61.8090   33.8330   48.9130 C   0  0  0  0  0  0  0  0  0  0  0  0
   61.8010   33.7490   47.5090 C   0  0  0  0  0  0  0  0  0  0  0  0
   62.9550   33.3690   46.8160 C   0  0  0  0  0  0  0  0  0  0  0  0
   64.1260   33.0680   47.5170 C   0  0  0  0  0  0  0  0  0  0  0  0
   64.1440   33.1370   48.9120 C   0  0  0  0  0  0  0  0  0  0  0  0
   62.9900   33.5130   49.6090 C   0  0  0  0  0  0  0  0  0  0  0  0
   61.5818   30.6650   50.7171 H   0  0  0  0  0  0  0  0  0  0  0  0
   61.7551   29.7498   49.1812 H   0  0  0  0  0  0  0  0  0  0  0  0
   61.9006   31.5402   49.1812 H   0  0  0  0  0  0  0  0  0  0  0  0
   59.1742   33.4704   48.1483 H   0  0  0  0  0  0  0  0  0  0  0  0
   59.2104   35.5603   46.7928 H   0  0  0  0  0  0  0  0  0  0  0  0
   58.3114   35.5617   44.4647 H   0  0  0  0  0  0  0  0  0  0  0  0
   57.3331   33.4812   43.5017 H   0  0  0  0  0  0  0  0  0  0  0  0
   56.0704   28.8564   43.4696 H   0  0  0  0  0  0  0  0  0  0  0  0
   57.3271   26.7721   42.9378 H   0  0  0  0  0  0  0  0  0  0  0  0
   59.7372   26.5642   43.5570 H   0  0  0  0  0  0  0  0  0  0  0  0
   61.9230   28.0960   44.1350 H   0  0  0  0  0  0  0  0  0  0  0  0
   61.5230   28.6390   45.7990 H   0  0  0  0  0  0  0  0  0  0  0  0
   59.6372   30.5418   45.2643 H   0  0  0  0  0  0  0  0  0  0  0  0
   58.3508   29.2265   49.8419 H   0  0  0  0  0  0  0  0  0  0  0  0
   59.5820   29.1036   50.9358 H   0  0  0  0  0  0  0  0  0  0  0  0
   57.4247   31.2079   50.8815 H   0  0  0  0  0  0  0  0  0  0  0  0
   58.6815   31.3435   52.0054 H   0  0  0  0  0  0  0  0  0  0  0  0
   58.4860   32.4560   49.3230 H   0  0  0  0  0  0  0  0  0  0  0  0
   59.7830   34.5114   48.9503 H   0  0  0  0  0  0  0  0  0  0  0  0
   60.8089   35.0513   50.3426 H   0  0  0  0  0  0  0  0  0  0  0  0
   60.8816   33.9836   46.9526 H   0  0  0  0  0  0  0  0  0  0  0  0
   62.9409   33.3070   45.7178 H   0  0  0  0  0  0  0  0  0  0  0  0
   65.0345   32.7764   46.9696 H   0  0  0  0  0  0  0  0  0  0  0  0
   65.0651   32.8958   49.4628 H   0  0  0  0  0  0  0  0  0  0  0  0
   63.0060   33.5588   50.7079 H   0  0  0  0  0  0  0  0  0  0  0  0
  2  1  1  6
  2  3  1  0
  3  4  2  0
  3  5  1  0
  5  6  1  0
  6  7  2  0
  7  8  1  0
  8  9  2  0
  9 10  1  0
 10 11  2  0
 11 12  1  0
 12 13  2  0
 12 14  1  0
 14 15  2  0
 15 16  1  0
 16 17  2  0
 17 18  1  0
 18 19  1  0
 18 20  2  0
  2 21  1  0
 21 22  1  0
 22 23  1  0
 23 24  1  0
 24 25  2  0
 24 26  1  0
 26 27  1  0
 27 28  2  0
 28 29  1  0
 29 30  2  0
 30 31  1  0
 31 32  2  0
 23  2  1  0
 32 27  1  0
 11  6  1  0
 20 14  1  0
  1 33  1  0
  1 34  1  0
  1 35  1  0
  7 36  1  0
  8 37  1  0
  9 38  1  0
 10 39  1  0
 15 40  1  0
 16 41  1  0
 17 42  1  0
 19 43  1  0
 19 44  1  0
 20 45  1  0
 21 46  1  0
 21 47  1  0
 22 48  1  0
 22 49  1  0
 23 50  1  6
 26 51  1  0
 26 52  1  0
 28 53  1  0
 29 54  1  0
 30 55  1  0
 31 56  1  0
 32 57  1  0
M  CHG  2   5  -1  23   1
M  END
>  <UniqueID>  (69) 
64

>  <SMILES>  (69) 
C[C@@]1(C(=O)[N-]c2ccccc2C(=O)c2cccc(N)c2)CC[N@H+]1C(=O)Cc1ccccc1

>  <Energy>  (69) 
155.63143720534785

>  <Genealogy>  (69) 
CC1(C(=O)[N-]c2ccccc2C(=O)c2cccc(N)c2)CC[NH+]1C(=O)Cc1ccccc1 (protonated)
C[C@@]1(C(=O)[N-]c2ccccc2C(=O)c2cccc(N)c2)CC[N@H+]1C(=O)Cc1ccccc1 (chirality)
C[C@@]1(C(=O)[N-]c2ccccc2C(=O)c2cccc(N)c2)CC[N@H+]1C(=O)Cc1ccccc1 (3D coordinates assigned)
C[C@@]1(C(=O)[N-]c2ccccc2C(=O)c2cccc(N)c2)CC[N@H+]1C(=O)Cc1ccccc1 (nonaromatic ring conformer: 155.63143720534785 kcal/mol)

>  <smiles>  (69) 
CC1(C(=O)Nc2ccccc2C(=O)c2cccc(N)c2)CCN1C(=O)Cc1ccccc1

>  <score_type>  (69) 
oracle

>  <origin>  (69) 
adg

>  <m_score__min__energy>  (69) 
-10.76

>  <m_primary>  (69) 
energy

$$$$
69:0
     RDKit          3D

 44 47  0  0  0  0  0  0  0  0999 V2000
   57.1970   33.8620   45.4050 C   0  0  0  0  0  0  0  0  0  0  0  0
   57.7500   34.2310   46.6630 O   0  0  0  0  0  0  0  0  0  0  0  0
   59.0950   34.5840   46.8230 C   0  0  0  0  0  0  0  0  0  0  0  0
   59.4610   35.7750   46.6240 O   0  0  0  0  0  0  0  0  0  0  0  0
   60.0600   33.5880   47.2180 N   0  0  0  0  0  0  0  0  0  0  0  0
   61.4920   33.9450   47.2260 C   0  0  0  0  0  0  0  0  0  0  0  0
   62.3940   32.7350   47.3130 C   0  0  0  0  0  0  0  0  0  0  0  0
   63.7690   32.8020   46.7060 C   0  0  0  0  0  0  0  0  0  0  0  0
   62.0000   31.6450   47.9920 C   0  0  0  0  0  0  0  0  0  0  0  0
   60.6370   31.5980   48.6260 C   0  0  1  0  0  0  0  0  0  0  0  0
   59.5870   32.2710   47.6890 C   0  0  2  0  0  0  0  0  0  0  0  0
   59.2080   31.3730   46.4740 C   0  0  0  0  0  0  0  0  0  0  0  0
   58.9040   29.9600   46.9050 C   0  0  0  0  0  0  0  0  0  0  0  0
   58.1460   29.0510   46.1390 C   0  0  0  0  0  0  0  0  0  0  0  0
   57.9640   27.7110   46.5890 C   0  0  0  0  0  0  0  0  0  0  0  0
   57.2140   26.7560   45.8260 N   0  0  0  0  0  0  0  0  0  0  0  0
   56.0850   26.0040   46.2870 C   0  0  0  0  0  0  0  0  0  0  0  0
   54.7770   26.2560   45.7790 N   0  0  0  0  0  0  0  0  0  0  0  0
   56.2460   25.1450   47.1930 O   0  0  0  0  0  0  0  0  0  0  0  0
   58.5920   27.2770   47.7800 C   0  0  0  0  0  0  0  0  0  0  0  0
   59.3450   28.2020   48.5010 C   0  0  0  0  0  0  0  0  0  0  0  0
   60.0820   28.0850   49.6660 C   0  0  0  0  0  0  0  0  0  0  0  0
   60.6380   29.3500   49.8620 C   0  0  0  0  0  0  0  0  0  0  0  0
   61.4870   29.6850   50.9130 O   0  0  0  0  0  0  0  0  0  0  0  0
   60.2540   30.2070   48.8850 N   0  0  0  0  0  0  0  0  0  0  0  0
   59.4840   29.4860   48.0670 C   0  0  0  0  0  0  0  0  0  0  0  0
   56.2918   33.2580   45.5654 H   0  0  0  0  0  0  0  0  0  0  0  0
   56.9373   34.7685   44.8385 H   0  0  0  0  0  0  0  0  0  0  0  0
   57.9344   33.2743   44.8385 H   0  0  0  0  0  0  0  0  0  0  0  0
   61.7238   34.4910   46.2996 H   0  0  0  0  0  0  0  0  0  0  0  0
   61.6759   34.5616   48.1182 H   0  0  0  0  0  0  0  0  0  0  0  0
   64.5220   32.8387   47.5070 H   0  0  0  0  0  0  0  0  0  0  0  0
   63.9389   31.9111   46.0836 H   0  0  0  0  0  0  0  0  0  0  0  0
   63.8514   33.7052   46.0836 H   0  0  0  0  0  0  0  0  0  0  0  0
   62.6771   30.7831   48.0847 H   0  0  0  0  0  0  0  0  0  0  0  0
   60.6687   32.1462   49.5792 H   0  0  0  0  0  0  0  0  0  0  0  0
   58.6783   32.4115   48.2927 H   0  0  0  0  0  0  0  0  0  0  0  0
   58.3201   31.7951   45.9806 H   0  0  0  0  0  0  0  0  0  0  0  0
   60.0640   31.3468   45.7837 H   0  0  0  0  0  0  0  0  0  0  0  0
   57.6935   29.3771   45.1909 H   0  0  0  0  0  0  0  0  0  0  0  0
   54.0490   26.7130   46.3720 H   0  0  0  0  0  0  0  0  0  0  0  0
   58.4889   26.2384   48.1274 H   0  0  0  0  0  0  0  0  0  0  0  0
   60.2029   27.1927   50.2978 H   0  0  0  0  0  0  0  0  0  0  0  0
   61.5530   29.1070   51.7420 H   0  0  0  0  0  0  0  0  0  0  0  0
  1  2  1  0
  2  3  1  0
  3  4  2  0
  3  5  1  0
  5  6  1  0
  6  7  1  0
  7  8  1  0
  7  9  2  0
  9 10  1  0
 10 11  1  0
 11 12  1  0
 12 13  1  0
 13 14  2  0
 14 15  1  0
 15 16  1  0
 16 17  1  0
 17 18  1  0
 17 19  2  0
 15 20  2  0
 20 21  1  0
 21 22  1  0
 22 23  2  0
 23 24  1  0
 23 25  1  0
 25 26  1  0
 11  5  1  0
 26 13  1  0
 25 10  1  0
 26 21  2  0
  1 27  1  0
  1 28  1  0
  1 29  1  0
  6 30  1  0
  6 31  1  0
  8 32  1  0
  8 33  1  0
  8 34  1  0
  9 35  1  0
 10 36  1  1
 11 37  1  1
 12 38  1  0
 12 39  1  0
 14 40  1  0
 18 41  1  0
 20 42  1  0
 22 43  1  0
 24 44  1  0
M  CHG  2  16  -1  18  -1
M  END
>  <UniqueID>  (70) 
65

>  <SMILES>  (70) 
COC(=O)N1CC(C)=C[C@H]2[C@@H]1Cc1cc([N-]C([NH-])=O)cc3cc(O)n2c13

>  <Energy>  (70) 
85.13807915560173

>  <Genealogy>  (70) 
COC(=O)N1CC(C)=CC2C1Cc1cc([N-]C([NH-])=O)cc3cc(O)n2c13 (protonated)
COC(=O)N1CC(C)=C[C@H]2[C@@H]1Cc1cc([N-]C([NH-])=O)cc3cc(O)n2c13 (chirality)
COC(=O)N1CC(C)=C[C@H]2[C@@H]1Cc1cc([N-]C([NH-])=O)cc3cc(O)n2c13 (3D coordinates assigned)
COC(=O)N1CC(C)=C[C@H]2[C@@H]1Cc1cc([N-]C([NH-])=O)cc3cc(O)n2c13 (nonaromatic ring conformer: 85.13807915560173 kcal/mol)

>  <smiles>  (70) 
COC(=O)N1CC(C)=CC2C1Cc1cc(NC(N)=O)cc3cc(O)n2c13

>  <score_type>  (70) 
oracle

>  <origin>  (70) 
adg

>  <m_score__min__energy>  (70) 
-11.91

>  <m_primary>  (70) 
energy

$$$$
70:0
     RDKit          3D

 53 55  0  0  0  0  0  0  0  0999 V2000
   63.0810   33.9630   47.2280 C   0  0  0  0  0  0  0  0  0  0  0  0
   62.0920   32.8420   47.3330 C   0  0  0  0  0  0  0  0  0  0  0  0
   62.4360   31.5590   47.0890 N   0  0  0  0  0  0  0  0  0  0  0  0
   61.2980   30.8630   47.2660 C   0  0  0  0  0  0  0  0  0  0  0  0
   60.2830   31.7320   47.6020 C   0  0  0  0  0  0  0  0  0  0  0  0
   58.9260   31.3300   47.8560 N   0  0  0  0  0  0  0  0  0  0  0  0
   58.0630   31.3260   46.9570 O   0  0  0  0  0  0  0  0  0  0  0  0
   58.5800   30.8680   49.1040 O   0  0  0  0  0  0  0  0  0  0  0  0
   60.7800   32.9920   47.6470 N   0  0  0  0  0  0  0  0  0  0  0  0
   60.0940   34.2580   47.9530 C   0  0  0  0  0  0  0  0  0  0  0  0
   59.7090   35.0210   46.6780 C   0  0  0  0  0  0  0  0  0  0  0  0
   58.7820   34.2520   45.8550 N   0  0  0  0  0  0  0  0  0  0  0  0
   59.0780   33.5810   44.7290 C   0  0  0  0  0  0  0  0  0  0  0  0
   57.9130   32.9580   44.3440 C   0  0  0  0  0  0  0  0  0  0  0  0
   57.7660   31.9780   43.2200 C   0  0  0  0  0  0  0  0  0  0  0  0
   56.8320   30.8900   43.5820 N   0  0  0  0  0  0  0  0  0  0  0  0
   57.5070   29.8570   44.3290 C   0  0  0  0  0  0  0  0  0  0  0  0
   58.8950   29.9060   44.5180 C   0  0  0  0  0  0  0  0  0  0  0  0
   59.5360   28.9230   45.2720 C   0  0  0  0  0  0  0  0  0  0  0  0
   58.8050   27.8790   45.8580 C   0  0  0  0  0  0  0  0  0  0  0  0
   59.4950   26.9210   46.6780 N   0  0  0  0  0  0  0  0  0  0  0  0
   60.0590   27.3650   47.9520 C   0  0  0  0  0  0  0  0  0  0  0  0
   60.0260   25.7050   46.0650 C   0  0  0  0  0  0  0  0  0  0  0  0
   57.4000   27.8170   45.6780 C   0  0  0  0  0  0  0  0  0  0  0  0
   56.5780   26.7140   46.2420 C   0  0  0  0  0  0  0  0  0  0  0  0
   55.1680   26.6850   46.0250 N   0  0  0  0  0  0  0  0  0  0  0  0
   57.1130   25.7810   46.8980 O   0  0  0  0  0  0  0  0  0  0  0  0
   56.7680   28.8220   44.9230 C   0  0  0  0  0  0  0  0  0  0  0  0
   56.9530   33.2450   45.2460 N   0  0  0  0  0  0  0  0  0  0  0  0
   57.5090   34.0400   46.1500 N   0  0  0  0  0  0  0  0  0  0  0  0
   63.3711   34.2918   48.2369 H   0  0  0  0  0  0  0  0  0  0  0  0
   63.9724   33.6158   46.6850 H   0  0  0  0  0  0  0  0  0  0  0  0
   62.6255   34.8042   46.6850 H   0  0  0  0  0  0  0  0  0  0  0  0
   61.1945   29.7731   47.1593 H   0  0  0  0  0  0  0  0  0  0  0  0
   59.1810   34.0387   48.5260 H   0  0  0  0  0  0  0  0  0  0  0  0
   60.7835   34.8886   48.5335 H   0  0  0  0  0  0  0  0  0  0  0  0
   59.2327   35.9715   46.9602 H   0  0  0  0  0  0  0  0  0  0  0  0
   60.6233   35.2001   46.0932 H   0  0  0  0  0  0  0  0  0  0  0  0
   60.0519   33.5385   44.2195 H   0  0  0  0  0  0  0  0  0  0  0  0
   57.3801   32.5029   42.3337 H   0  0  0  0  0  0  0  0  0  0  0  0
   58.7515   31.5372   43.0092 H   0  0  0  0  0  0  0  0  0  0  0  0
   56.0280   31.2420   44.1550 H   0  0  0  0  0  0  0  0  0  0  0  0
   56.4170   30.4850   42.7100 H   0  0  0  0  0  0  0  0  0  0  0  0
   59.4807   30.7224   44.0702 H   0  0  0  0  0  0  0  0  0  0  0  0
   60.6266   28.9670   45.4086 H   0  0  0  0  0  0  0  0  0  0  0  0
   59.4905   26.9174   48.7805 H   0  0  0  0  0  0  0  0  0  0  0  0
   61.1110   27.0501   48.0169 H   0  0  0  0  0  0  0  0  0  0  0  0
   59.9998   28.4615   48.0169 H   0  0  0  0  0  0  0  0  0  0  0  0
   60.3333   25.0014   46.8527 H   0  0  0  0  0  0  0  0  0  0  0  0
   59.2491   25.2398   45.4405 H   0  0  0  0  0  0  0  0  0  0  0  0
   60.8953   25.9587   45.4405 H   0  0  0  0  0  0  0  0  0  0  0  0
   54.5080   27.1010   46.7200 H   0  0  0  0  0  0  0  0  0  0  0  0
   55.6757   28.7962   44.7960 H   0  0  0  0  0  0  0  0  0  0  0  0
  1  2  1  0
  2  3  2  0
  3  4  1  0
  4  5  2  0
  5  6  1  0
  6  7  2  0
  6  8  1  0
  5  9  1  0
  9 10  1  0
 10 11  1  0
 11 12  1  0
 12 13  1  0
 13 14  2  0
 14 15  1  0
 15 16  1  0
 16 17  1  0
 17 18  2  0
 18 19  1  0
 19 20  2  0
 20 21  1  0
 21 22  1  0
 21 23  1  0
 20 24  1  0
 24 25  1  0
 25 26  1  0
 25 27  2  0
 24 28  2  0
 14 29  1  0
 29 30  2  0
  9  2  1  0
 30 12  1  0
 28 17  1  0
  1 31  1  0
  1 32  1  0
  1 33  1  0
  4 34  1  0
 10 35  1  0
 10 36  1  0
 11 37  1  0
 11 38  1  0
 13 39  1  0
 15 40  1  0
 15 41  1  0
 16 42  1  0
 16 43  1  0
 18 44  1  0
 19 45  1  0
 22 46  1  0
 22 47  1  0
 22 48  1  0
 23 49  1  0
 23 50  1  0
 23 51  1  0
 26 52  1  0
 28 53  1  0
M  CHG  4   6   1   8  -1  16   1  26  -1
M  END
>  <UniqueID>  (71) 
66

>  <SMILES>  (71) 
Cc1ncc([N+](=O)[O-])n1CCn1cc(C[NH2+]c2ccc(N(C)C)c(C([NH-])=O)c2)nn1

>  <Energy>  (71) 
123.71113318679579

>  <Genealogy>  (71) 
Cc1ncc([N+](=O)[O-])n1CCn1cc(C[NH2+]c2ccc(N(C)C)c(C([NH-])=O)c2)nn1 (protonated)
Cc1ncc([N+](=O)[O-])n1CCn1cc(C[NH2+]c2ccc(N(C)C)c(C([NH-])=O)c2)nn1 (3D coordinates assigned)
Cc1ncc([N+](=O)[O-])n1CCn1cc(C[NH2+]c2ccc(N(C)C)c(C([NH-])=O)c2)nn1 (optimized conformer: 123.71113318679579 kcal/mol)

>  <smiles>  (71) 
Cc1ncc([N+](=O)[O-])n1CCn1cc(CNc2ccc(N(C)C)c(C(N)=O)c2)nn1

>  <score_type>  (71) 
oracle

>  <origin>  (71) 
adg

>  <m_score__min__energy>  (71) 
-10.91

>  <m_primary>  (71) 
energy

$$$$
71:0
     RDKit          3D

 54 57  0  0  0  0  0  0  0  0999 V2000
   58.6496   31.6445   43.6688 H   0  0  0  0  0  0  0  0  0  0  0  0
   58.2620   30.7070   44.0940 C   0  0  0  0  0  0  0  0  0  0  0  0
   56.6420   30.2440   44.1560 S   0  0  0  0  0  0  0  0  0  0  0  0
   56.9810   28.7820   44.9020 C   0  0  0  0  0  0  0  0  0  0  0  0
   56.0620   27.9310   45.2530 N   0  0  0  0  0  0  0  0  0  0  0  0
   56.2550   26.7310   46.0090 C   0  0  0  0  0  0  0  0  0  0  0  0
   55.3090   25.9060   46.0740 O   0  0  0  0  0  0  0  0  0  0  0  0
   57.6210   26.3540   46.5420 C   0  0  1  0  0  0  0  0  0  0  0  0
   58.3482   26.4184   45.7192 H   0  0  0  0  0  0  0  0  0  0  0  0
   58.0150   27.2740   47.6170 N   0  0  0  0  0  0  0  0  0  0  0  0
   59.7320   27.5330   47.6370 S   0  0  0  0  0  0  0  0  0  0  0  0
   60.3710   26.6930   48.7080 O   0  0  0  0  0  0  0  0  0  0  0  0
   60.3070   27.1270   46.3100 O   0  0  0  0  0  0  0  0  0  0  0  0
   60.0650   29.2400   47.9100 C   0  0  0  0  0  0  0  0  0  0  0  0
   59.4590   29.9030   48.9840 C   0  0  0  0  0  0  0  0  0  0  0  0
   58.7595   29.3613   49.6377 H   0  0  0  0  0  0  0  0  0  0  0  0
   59.7390   31.2500   49.2290 C   0  0  0  0  0  0  0  0  0  0  0  0
   59.2521   31.7660   50.0696 H   0  0  0  0  0  0  0  0  0  0  0  0
   60.6360   31.9460   48.4100 C   0  0  0  0  0  0  0  0  0  0  0  0
   60.9140   33.3210   48.6990 N   0  0  0  0  0  0  0  0  0  0  0  0
   60.1160   34.2580   48.3800 N   0  0  0  0  0  0  0  0  0  0  0  0
   59.3300   34.2150   47.1830 C   0  0  0  0  0  0  0  0  0  0  0  0
   58.1210   33.5060   47.1910 C   0  0  0  0  0  0  0  0  0  0  0  0
   57.7952   32.9897   48.1060 H   0  0  0  0  0  0  0  0  0  0  0  0
   57.3270   33.4520   46.0410 C   0  0  0  0  0  0  0  0  0  0  0  0
   56.3780   32.8959   46.0539 H   0  0  0  0  0  0  0  0  0  0  0  0
   57.7390   34.1050   44.8740 C   0  0  0  0  0  0  0  0  0  0  0  0
   57.1143   34.0621   43.9696 H   0  0  0  0  0  0  0  0  0  0  0  0
   58.9450   34.8120   44.8580 C   0  0  0  0  0  0  0  0  0  0  0  0
   59.2686   35.3239   43.9397 H   0  0  0  0  0  0  0  0  0  0  0  0
   59.7400   34.8700   46.0050 C   0  0  0  0  0  0  0  0  0  0  0  0
   60.6878   35.4280   45.9885 H   0  0  0  0  0  0  0  0  0  0  0  0
   61.2450   31.2790   47.3330 C   0  0  0  0  0  0  0  0  0  0  0  0
   61.9480   31.8192   46.6819 H   0  0  0  0  0  0  0  0  0  0  0  0
   60.9620   29.9330   47.0850 C   0  0  0  0  0  0  0  0  0  0  0  0
   61.4436   29.4167   46.2415 H   0  0  0  0  0  0  0  0  0  0  0  0
   57.5920   24.9210   47.0930 C   0  0  0  0  0  0  0  0  0  0  0  0
   58.4462   24.7784   47.7712 H   0  0  0  0  0  0  0  0  0  0  0  0
   56.6449   24.7704   47.6317 H   0  0  0  0  0  0  0  0  0  0  0  0
   57.6760   23.9130   45.9740 C   0  0  0  0  0  0  0  0  0  0  0  0
   58.9170   23.3760   45.5880 C   0  0  0  0  0  0  0  0  0  0  0  0
   59.8302   23.6584   46.1323 H   0  0  0  0  0  0  0  0  0  0  0  0
   58.9930   22.4840   44.5140 C   0  0  0  0  0  0  0  0  0  0  0  0
   59.9644   22.0603   44.2193 H   0  0  0  0  0  0  0  0  0  0  0  0
   57.8350   22.1300   43.8140 C   0  0  0  0  0  0  0  0  0  0  0  0
   57.8955   21.4248   42.9720 H   0  0  0  0  0  0  0  0  0  0  0  0
   56.6010   22.6720   44.1840 C   0  0  0  0  0  0  0  0  0  0  0  0
   55.6919   22.3969   43.6291 H   0  0  0  0  0  0  0  0  0  0  0  0
   56.5200   23.5630   45.2580 C   0  0  0  0  0  0  0  0  0  0  0  0
   55.5477   23.9912   45.5431 H   0  0  0  0  0  0  0  0  0  0  0  0
   58.3080   28.6370   45.1290 N   0  0  0  0  0  0  0  0  0  0  0  0
   58.7520   27.8420   45.6360 H   0  0  0  0  0  0  0  0  0  0  0  0
   59.0220   29.6990   44.6730 C   0  0  0  0  0  0  0  0  0  0  0  0
   60.1174   29.7561   44.7559 H   0  0  0  0  0  0  0  0  0  0  0  0
  1  2  1  0
  2  3  1  0
  3  4  1  0
  4  5  2  0
  5  6  1  0
  6  7  2  0
  6  8  1  0
  8  9  1  6
  8 10  1  0
 10 11  1  0
 11 12  2  0
 11 13  2  0
 11 14  1  0
 14 15  2  0
 15 16  1  0
 15 17  1  0
 17 18  1  0
 17 19  2  0
 19 20  1  0
 20 21  2  0
 21 22  1  0
 22 23  2  0
 23 24  1  0
 23 25  1  0
 25 26  1  0
 25 27  2  0
 27 28  1  0
 27 29  1  0
 29 30  1  0
 29 31  2  0
 31 32  1  0
 19 33  1  0
 33 34  1  0
 33 35  2  0
 35 36  1  0
  8 37  1  0
 37 38  1  0
 37 39  1  0
 37 40  1  0
 40 41  2  0
 41 42  1  0
 41 43  1  0
 43 44  1  0
 43 45  2  0
 45 46  1  0
 45 47  1  0
 47 48  1  0
 47 49  2  0
 49 50  1  0
  4 51  1  0
 51 52  1  0
 51 53  1  0
 53 54  1  0
 53  2  2  0
 35 14  1  0
 49 40  1  0
 31 22  1  0
M  CHG  1  10  -1
M  END
>  <UniqueID>  (72) 
67

>  <SMILES>  (72) 
O=C(/N=c1\[nH]ccs1)[C@H](Cc1ccccc1)[N-]S(=O)(=O)c1ccc(/N=N/c2ccccc2)cc1

>  <Energy>  (72) 
88.78967110850594

>  <Genealogy>  (72) 
O=C(N=c1[nH]ccs1)C(Cc1ccccc1)[N-]S(=O)(=O)c1ccc(N=Nc2ccccc2)cc1 (protonated)
O=C(N=c1[nH]ccs1)[C@H](Cc1ccccc1)[N-]S(=O)(=O)c1ccc(N=Nc2ccccc2)cc1 (chirality)
O=C(/N=c1\[nH]ccs1)[C@H](Cc1ccccc1)[N-]S(=O)(=O)c1ccc(/N=N/c2ccccc2)cc1 (cis-trans isomerization)
O=C(/N=c1\[nH]ccs1)[C@H](Cc1ccccc1)[N-]S(=O)(=O)c1ccc(/N=N/c2ccccc2)cc1 (3D coordinates assigned)
O=C(/N=c1\[nH]ccs1)[C@H](Cc1ccccc1)[N-]S(=O)(=O)c1ccc(/N=N/c2ccccc2)cc1 (optimized conformer: 88.78967110850594 kcal/mol)

>  <smiles>  (72) 
O=C(N=c1[nH]ccs1)C(Cc1ccccc1)NS(=O)(=O)c1ccc(N=Nc2ccccc2)cc1

>  <score_type>  (72) 
oracle

>  <origin>  (72) 
adg

>  <m_score__min__energy>  (72) 
-11.99

>  <m_primary>  (72) 
energy

$$$$
72:0
     RDKit          3D

 39 42  0  0  0  0  0  0  0  0999 V2000
   58.8087   22.1011   42.9547 H   0  0  0  0  0  0  0  0  0  0  0  0
   58.0650   21.8150   43.7130 C   0  0  0  0  0  0  0  0  0  0  0  0
   56.7170   21.6520   43.4380 C   0  0  0  0  0  0  0  0  0  0  0  0
   56.1340   21.8410   42.2300 F   0  0  0  0  0  0  0  0  0  0  0  0
   55.9090   21.2280   44.8480 S   0  0  0  0  0  0  0  0  0  0  0  0
   57.2810   21.2120   45.8260 C   0  0  0  0  0  0  0  0  0  0  0  0
   57.2680   20.9450   47.2750 C   0  0  0  0  0  0  0  0  0  0  0  0
   57.3440   19.7530   47.6720 O   0  0  0  0  0  0  0  0  0  0  0  0
   57.2020   21.9930   48.2540 N   0  0  0  0  0  0  0  0  0  0  0  0
   56.6500   23.3290   48.0490 C   0  0  0  0  0  0  0  0  0  0  0  0
   55.5958   23.2411   47.7475 H   0  0  0  0  0  0  0  0  0  0  0  0
   56.7338   23.8930   48.9897 H   0  0  0  0  0  0  0  0  0  0  0  0
   57.4230   24.0760   46.9590 C   0  0  0  0  0  0  0  0  0  0  0  0
   58.3502   24.4844   47.3874 H   0  0  0  0  0  0  0  0  0  0  0  0
   57.6594   23.3748   46.1451 H   0  0  0  0  0  0  0  0  0  0  0  0
   56.5990   25.1960   46.4100 C   0  0  0  0  0  0  0  0  0  0  0  0
   55.2560   25.1590   46.3180 N   0  0  0  0  0  0  0  0  0  0  0  0
   54.8750   26.3380   45.8560 N   0  0  0  0  0  0  0  0  0  0  0  0
   55.9990   27.0570   45.6910 C   0  0  0  0  0  0  0  0  0  0  0  0
   55.9930   28.2840   45.2630 N   0  0  0  0  0  0  0  0  0  0  0  0
   56.8670   28.7900   44.2070 C   0  0  0  0  0  0  0  0  0  0  0  0
   57.7277   28.1143   44.0945 H   0  0  0  0  0  0  0  0  0  0  0  0
   56.2980   28.8387   43.2669 H   0  0  0  0  0  0  0  0  0  0  0  0
   57.3590   30.1620   44.5470 C   0  0  0  0  0  0  0  0  0  0  0  0
   57.6070   30.5670   45.8180 N   0  0  0  0  0  0  0  0  0  0  0  0
   57.9650   31.8750   45.8490 C   0  0  0  0  0  0  0  0  0  0  0  0
   58.2730   32.5810   47.0130 C   0  0  0  0  0  0  0  0  0  0  0  0
   58.2563   32.0813   47.9928 H   0  0  0  0  0  0  0  0  0  0  0  0
   58.6050   33.9430   46.9090 C   0  0  0  0  0  0  0  0  0  0  0  0
   58.8508   34.5161   47.8152 H   0  0  0  0  0  0  0  0  0  0  0  0
   58.6250   34.5790   45.6520 C   0  0  0  0  0  0  0  0  0  0  0  0
   58.8848   35.6456   45.5823 H   0  0  0  0  0  0  0  0  0  0  0  0
   58.3150   33.8580   44.4880 C   0  0  0  0  0  0  0  0  0  0  0  0
   58.3279   34.3444   43.5015 H   0  0  0  0  0  0  0  0  0  0  0  0
   57.9910   32.5110   44.6170 C   0  0  0  0  0  0  0  0  0  0  0  0
   57.5530   31.4160   43.4240 S   0  0  0  0  0  0  0  0  0  0  0  0
   57.1160   26.3820   46.0320 N   0  0  0  0  0  0  0  0  0  0  0  0
   58.3830   21.5780   45.0560 C   0  0  0  0  0  0  0  0  0  0  0  0
   59.4009   21.6714   45.4624 H   0  0  0  0  0  0  0  0  0  0  0  0
  1  2  1  0
  2  3  2  0
  3  4  1  0
  3  5  1  0
  5  6  1  0
  6  7  1  0
  7  8  2  0
  7  9  1  0
  9 10  1  0
 10 11  1  0
 10 12  1  0
 10 13  1  0
 13 14  1  0
 13 15  1  0
 13 16  1  0
 16 17  2  0
 17 18  1  0
 18 19  1  0
 19 20  2  0
 20 21  1  0
 21 22  1  0
 21 23  1  0
 21 24  1  0
 24 25  2  0
 25 26  1  0
 26 27  2  0
 27 28  1  0
 27 29  1  0
 29 30  1  0
 29 31  2  0
 31 32  1  0
 31 33  1  0
 33 34  1  0
 33 35  2  0
 35 36  1  0
 19 37  1  0
  6 38  2  0
 38 39  1  0
 38  2  1  0
 37 16  1  0
 36 24  1  0
 35 26  1  0
M  CHG  3   9  -1  18  -1  37  -1
M  END
>  <UniqueID>  (73) 
68

>  <SMILES>  (73) 
O=C([N-]CCc1n[n-]/c(=N/Cc2nc3ccccc3s2)[n-]1)c1ccc(F)s1

>  <Energy>  (73) 
133.74015624419084

>  <Genealogy>  (73) 
O=C([N-]CCc1n[n-]c(=NCc2nc3ccccc3s2)[n-]1)c1ccc(F)s1 (protonated)
O=C([N-]CCc1n[n-]/c(=N/Cc2nc3ccccc3s2)[n-]1)c1ccc(F)s1 (cis-trans isomerization)
O=C([N-]CCc1n[n-]/c(=N/Cc2nc3ccccc3s2)[n-]1)c1ccc(F)s1 (3D coordinates assigned)
O=C([N-]CCc1n[n-]/c(=N/Cc2nc3ccccc3s2)[n-]1)c1ccc(F)s1 (optimized conformer: 133.74015624419084 kcal/mol)

>  <smiles>  (73) 
O=C(NCCc1n[nH]c(=NCc2nc3ccccc3s2)[nH]1)c1ccc(F)s1

>  <score_type>  (73) 
oracle

>  <origin>  (73) 
adg

>  <m_score__min__energy>  (73) 
-13.93

>  <m_primary>  (73) 
energy

$$$$
73:0
     RDKit          3D

 68 70  0  0  0  0  0  0  0  0999 V2000
   57.0320   22.2520   46.5900 C   0  0  0  0  0  0  0  0  0  0  0  0
   57.2780   23.5140   47.4080 C   0  0  0  0  0  0  0  0  0  0  0  0
   57.9110   24.5780   46.5600 C   0  0  0  0  0  0  0  0  0  0  0  0
   59.0590   25.1970   46.8960 N   0  0  0  0  0  0  0  0  0  0  0  0
   59.2900   26.1460   46.0030 N   0  0  0  0  0  0  0  0  0  0  0  0
   60.4160   27.0740   46.1200 C   0  0  0  0  0  0  0  0  0  0  0  0
   60.0310   28.2220   47.0130 C   0  0  0  0  0  0  0  0  0  0  0  0
   59.1830   29.2320   46.5310 C   0  0  0  0  0  0  0  0  0  0  0  0
   58.9110   30.3580   47.3130 C   0  0  0  0  0  0  0  0  0  0  0  0
   59.4800   30.4920   48.5850 C   0  0  0  0  0  0  0  0  0  0  0  0
   59.2520   31.7060   49.3160 N   0  0  0  0  0  0  0  0  0  0  0  0
   60.1340   32.8340   49.3700 C   0  0  0  0  0  0  0  0  0  0  0  0
   61.3220   32.7000   49.7700 O   0  0  0  0  0  0  0  0  0  0  0  0
   59.6250   34.1930   48.9930 C   0  0  0  0  0  0  0  0  0  0  0  0
   59.2600   34.2470   47.5300 C   0  0  0  0  0  0  0  0  0  0  0  0
   59.8420   35.2050   46.6850 C   0  0  0  0  0  0  0  0  0  0  0  0
   59.4720   35.2760   45.3410 C   0  0  0  0  0  0  0  0  0  0  0  0
   58.5180   34.3940   44.8270 C   0  0  0  0  0  0  0  0  0  0  0  0
   57.9380   33.4160   45.6490 C   0  0  0  0  0  0  0  0  0  0  0  0
   56.9100   32.5640   45.1110 N   0  0  0  0  0  0  0  0  0  0  0  0
   57.1460   31.5240   44.1480 C   0  0  0  0  0  0  0  0  0  0  0  0
   58.1480   31.5830   43.3830 O   0  0  0  0  0  0  0  0  0  0  0  0
   56.1700   30.3850   44.0140 C   0  0  0  0  0  0  0  0  0  0  0  0
   56.3690   29.3760   45.1500 C   0  0  0  0  0  0  0  0  0  0  0  0
   56.3180   29.7100   42.6470 C   0  0  0  0  0  0  0  0  0  0  0  0
   58.3140   33.3490   47.0030 C   0  0  0  0  0  0  0  0  0  0  0  0
   60.3370   29.4850   49.0650 C   0  0  0  0  0  0  0  0  0  0  0  0
   60.6050   28.3570   48.2850 C   0  0  0  0  0  0  0  0  0  0  0  0
   58.2790   26.1770   45.1020 C   0  0  0  0  0  0  0  0  0  0  0  0
   58.1850   27.1040   43.9180 C   0  0  0  0  0  0  0  0  0  0  0  0
   57.8440   26.3260   42.6530 C   0  0  0  0  0  0  0  0  0  0  0  0
   57.3840   25.1630   45.4160 C   0  0  0  0  0  0  0  0  0  0  0  0
   56.0900   24.8320   44.7250 C   0  0  0  0  0  0  0  0  0  0  0  0
   54.9280   25.1330   45.6170 C   0  0  0  0  0  0  0  0  0  0  0  0
   54.6770   26.3210   45.9520 O   0  0  0  0  0  0  0  0  0  0  0  0
   54.1240   24.1020   46.0840 O   0  0  0  0  0  0  0  0  0  0  0  0
   56.8663   21.4019   47.2682 H   0  0  0  0  0  0  0  0  0  0  0  0
   56.1445   22.3934   45.9557 H   0  0  0  0  0  0  0  0  0  0  0  0
   57.9076   22.0497   45.9557 H   0  0  0  0  0  0  0  0  0  0  0  0
   56.3185   23.8852   47.7973 H   0  0  0  0  0  0  0  0  0  0  0  0
   57.9574   23.2715   48.2385 H   0  0  0  0  0  0  0  0  0  0  0  0
   61.2807   26.5484   46.5512 H   0  0  0  0  0  0  0  0  0  0  0  0
   60.6791   27.4579   45.1233 H   0  0  0  0  0  0  0  0  0  0  0  0
   58.7305   29.1366   45.5329 H   0  0  0  0  0  0  0  0  0  0  0  0
   58.2455   31.1440   46.9265 H   0  0  0  0  0  0  0  0  0  0  0  0
   58.7335   34.4229   49.5949 H   0  0  0  0  0  0  0  0  0  0  0  0
   60.4191   34.9299   49.1835 H   0  0  0  0  0  0  0  0  0  0  0  0
   60.5930   35.9028   47.0838 H   0  0  0  0  0  0  0  0  0  0  0  0
   59.9329   36.0287   44.6844 H   0  0  0  0  0  0  0  0  0  0  0  0
   58.2196   34.4669   43.7707 H   0  0  0  0  0  0  0  0  0  0  0  0
   55.9250   32.7240   45.4250 H   0  0  0  0  0  0  0  0  0  0  0  0
   55.1481   30.7855   44.0866 H   0  0  0  0  0  0  0  0  0  0  0  0
   56.2678   29.8889   46.1179 H   0  0  0  0  0  0  0  0  0  0  0  0
   55.6098   28.5836   45.0738 H   0  0  0  0  0  0  0  0  0  0  0  0
   57.3722   28.9312   45.0738 H   0  0  0  0  0  0  0  0  0  0  0  0
   56.5517   28.6443   42.7876 H   0  0  0  0  0  0  0  0  0  0  0  0
   55.3770   29.8081   42.0858 H   0  0  0  0  0  0  0  0  0  0  0  0
   57.1316   30.1928   42.0858 H   0  0  0  0  0  0  0  0  0  0  0  0
   57.8638   32.5869   47.6561 H   0  0  0  0  0  0  0  0  0  0  0  0
   60.7981   29.5860   50.0586 H   0  0  0  0  0  0  0  0  0  0  0  0
   61.2701   27.5705   48.6711 H   0  0  0  0  0  0  0  0  0  0  0  0
   57.3998   27.8512   44.1054 H   0  0  0  0  0  0  0  0  0  0  0  0
   59.1569   27.5999   43.7780 H   0  0  0  0  0  0  0  0  0  0  0  0
   57.4163   25.3502   42.9268 H   0  0  0  0  0  0  0  0  0  0  0  0
   57.1122   26.8936   42.0595 H   0  0  0  0  0  0  0  0  0  0  0  0
   58.7574   26.1725   42.0595 H   0  0  0  0  0  0  0  0  0  0  0  0
   56.0063   25.4317   43.8067 H   0  0  0  0  0  0  0  0  0  0  0  0
   56.0818   23.7597   44.4797 H   0  0  0  0  0  0  0  0  0  0  0  0
  1  2  1  0
  2  3  1  0
  3  4  2  0
  4  5  1  0
  5  6  1  0
  6  7  1  0
  7  8  2  0
  8  9  1  0
  9 10  2  0
 10 11  1  0
 11 12  1  0
 12 13  2  0
 12 14  1  0
 14 15  1  0
 15 16  2  0
 16 17  1  0
 17 18  2  0
 18 19  1  0
 19 20  1  0
 20 21  1  0
 21 22  2  0
 21 23  1  0
 23 24  1  0
 23 25  1  0
 19 26  2  0
 10 27  1  0
 27 28  2  0
  5 29  1  0
 29 30  1  0
 30 31  1  0
 29 32  2  0
 32 33  1  0
 33 34  1  0
 34 35  2  0
 34 36  1  0
 32  3  1  0
 28  7  1  0
 26 15  1  0
  1 37  1  0
  1 38  1  0
  1 39  1  0
  2 40  1  0
  2 41  1  0
  6 42  1  0
  6 43  1  0
  8 44  1  0
  9 45  1  0
 14 46  1  0
 14 47  1  0
 16 48  1  0
 17 49  1  0
 18 50  1  0
 20 51  1  0
 23 52  1  0
 24 53  1  0
 24 54  1  0
 24 55  1  0
 25 56  1  0
 25 57  1  0
 25 58  1  0
 26 59  1  0
 27 60  1  0
 28 61  1  0
 30 62  1  0
 30 63  1  0
 31 64  1  0
 31 65  1  0
 31 66  1  0
 33 67  1  0
 33 68  1  0
M  CHG  2  11  -1  36  -1
M  END
>  <UniqueID>  (74) 
69

>  <SMILES>  (74) 
CCc1nn(Cc2ccc([N-]C(=O)Cc3cccc(NC(=O)C(C)C)c3)cc2)c(CC)c1CC(=O)[O-]

>  <Energy>  (74) 
87.96280244517813

>  <Genealogy>  (74) 
CCc1nn(Cc2ccc([N-]C(=O)Cc3cccc(NC(=O)C(C)C)c3)cc2)c(CC)c1CC(=O)[O-] (protonated)
CCc1nn(Cc2ccc([N-]C(=O)Cc3cccc(NC(=O)C(C)C)c3)cc2)c(CC)c1CC(=O)[O-] (3D coordinates assigned)
CCc1nn(Cc2ccc([N-]C(=O)Cc3cccc(NC(=O)C(C)C)c3)cc2)c(CC)c1CC(=O)[O-] (optimized conformer: 87.96280244517813 kcal/mol)

>  <smiles>  (74) 
CCc1nn(Cc2ccc(NC(=O)Cc3cccc(NC(=O)C(C)C)c3)cc2)c(CC)c1CC(=O)O

>  <score_type>  (74) 
oracle

>  <origin>  (74) 
adg

>  <m_score__min__energy>  (74) 
-12.65

>  <m_primary>  (74) 
energy

$$$$
74:0
     RDKit          3D

 45 47  0  0  0  0  0  0  0  0999 V2000
   55.9780   24.1560   44.4600 C   0  0  0  0  0  0  0  0  0  0  0  0
   55.0470   24.8290   45.8210 S   0  0  0  0  0  0  0  0  0  0  0  0
   55.4360   24.1230   47.0890 O   0  0  0  0  0  0  0  0  0  0  0  0
   53.5840   24.6130   45.5560 O   0  0  0  0  0  0  0  0  0  0  0  0
   55.3480   26.5280   45.9830 N   0  0  0  0  0  0  0  0  0  0  0  0
   56.6410   27.0450   46.3060 C   0  0  0  0  0  0  0  0  0  0  0  0
   57.5040   26.2560   47.0710 C   0  0  0  0  0  0  0  0  0  0  0  0
   58.7610   26.7360   47.4310 C   0  0  0  0  0  0  0  0  0  0  0  0
   59.1730   28.0020   47.0150 C   0  0  0  0  0  0  0  0  0  0  0  0
   58.3370   28.8060   46.2170 C   0  0  0  0  0  0  0  0  0  0  0  0
   58.8370   30.1330   45.7790 C   0  0  0  0  0  0  0  0  0  0  0  0
   59.9770   30.2450   45.2540 O   0  0  0  0  0  0  0  0  0  0  0  0
   58.0510   31.3050   46.0360 N   0  0  0  0  0  0  0  0  0  0  0  0
   58.5140   32.6650   46.0430 C   0  0  0  0  0  0  0  0  0  0  0  0
   58.4790   33.4490   44.8740 C   0  0  0  0  0  0  0  0  0  0  0  0
   58.9420   34.7660   44.8910 C   0  0  0  0  0  0  0  0  0  0  0  0
   59.4290   35.3220   46.0730 C   0  0  0  0  0  0  0  0  0  0  0  0
   59.4450   34.5660   47.2470 C   0  0  0  0  0  0  0  0  0  0  0  0
   58.9870   33.2360   47.2470 C   0  0  0  0  0  0  0  0  0  0  0  0
   59.0070   32.4600   48.5130 C   0  0  0  0  0  0  0  0  0  0  0  0
   57.9520   32.3540   49.1920 O   0  0  0  0  0  0  0  0  0  0  0  0
   60.2160   31.8850   49.0270 N   0  0  0  0  0  0  0  0  0  0  0  0
   61.5520   32.3160   48.7290 C   0  0  0  0  0  0  0  0  0  0  0  0
   62.2880   33.1180   49.6200 C   0  0  0  0  0  0  0  0  0  0  0  0
   63.5820   33.5320   49.2900 C   0  0  0  0  0  0  0  0  0  0  0  0
   64.1430   33.1630   48.0640 C   0  0  0  0  0  0  0  0  0  0  0  0
   63.4080   32.3880   47.1640 C   0  0  0  0  0  0  0  0  0  0  0  0
   62.1130   31.9720   47.4920 C   0  0  0  0  0  0  0  0  0  0  0  0
   57.0520   28.3180   45.8610 C   0  0  0  0  0  0  0  0  0  0  0  0
   55.9370   29.2790   44.8830 Cl  0  0  0  0  0  0  0  0  0  0  0  0
   56.8119   23.5532   44.8487 H   0  0  0  0  0  0  0  0  0  0  0  0
   55.3224   23.5217   43.8453 H   0  0  0  0  0  0  0  0  0  0  0  0
   56.3747   24.9775   43.8453 H   0  0  0  0  0  0  0  0  0  0  0  0
   57.1893   25.2515   47.3903 H   0  0  0  0  0  0  0  0  0  0  0  0
   59.4303   26.1153   48.0448 H   0  0  0  0  0  0  0  0  0  0  0  0
   60.1630   28.3767   47.3140 H   0  0  0  0  0  0  0  0  0  0  0  0
   58.0841   33.0209   43.9408 H   0  0  0  0  0  0  0  0  0  0  0  0
   58.9225   35.3664   43.9695 H   0  0  0  0  0  0  0  0  0  0  0  0
   59.8010   36.3572   46.0809 H   0  0  0  0  0  0  0  0  0  0  0  0
   59.8188   35.0142   48.1794 H   0  0  0  0  0  0  0  0  0  0  0  0
   61.8439   33.4205   50.5798 H   0  0  0  0  0  0  0  0  0  0  0  0
   64.1588   34.1483   49.9953 H   0  0  0  0  0  0  0  0  0  0  0  0
   65.1638   33.4831   47.8079 H   0  0  0  0  0  0  0  0  0  0  0  0
   63.8477   32.1044   46.1964 H   0  0  0  0  0  0  0  0  0  0  0  0
   61.5327   31.3722   46.7755 H   0  0  0  0  0  0  0  0  0  0  0  0
  1  2  1  0
  2  3  2  0
  2  4  2  0
  2  5  1  0
  5  6  1  0
  6  7  2  0
  7  8  1  0
  8  9  2  0
  9 10  1  0
 10 11  1  0
 11 12  2  0
 11 13  1  0
 13 14  1  0
 14 15  2  0
 15 16  1  0
 16 17  2  0
 17 18  1  0
 18 19  2  0
 19 20  1  0
 20 21  2  0
 20 22  1  0
 22 23  1  0
 23 24  2  0
 24 25  1  0
 25 26  2  0
 26 27  1  0
 27 28  2  0
 10 29  2  0
 29 30  1  0
 29  6  1  0
 19 14  1  0
 28 23  1  0
  1 31  1  0
  1 32  1  0
  1 33  1  0
  7 34  1  0
  8 35  1  0
  9 36  1  0
 15 37  1  0
 16 38  1  0
 17 39  1  0
 18 40  1  0
 24 41  1  0
 25 42  1  0
 26 43  1  0
 27 44  1  0
 28 45  1  0
M  CHG  3   5  -1  13  -1  22  -1
M  END
>  <UniqueID>  (75) 
70

>  <SMILES>  (75) 
CS(=O)(=O)[N-]c1cccc(C(=O)[N-]c2ccccc2C(=O)[N-]c2ccccc2)c1Cl

>  <Energy>  (75) 
70.06365599800274

>  <Genealogy>  (75) 
CS(=O)(=O)[N-]c1cccc(C(=O)[N-]c2ccccc2C(=O)[N-]c2ccccc2)c1Cl (protonated)
CS(=O)(=O)[N-]c1cccc(C(=O)[N-]c2ccccc2C(=O)[N-]c2ccccc2)c1Cl (3D coordinates assigned)
CS(=O)(=O)[N-]c1cccc(C(=O)[N-]c2ccccc2C(=O)[N-]c2ccccc2)c1Cl (optimized conformer: 70.06365599800274 kcal/mol)

>  <smiles>  (75) 
CS(=O)(=O)Nc1cccc(C(=O)Nc2ccccc2C(=O)Nc2ccccc2)c1Cl

>  <score_type>  (75) 
oracle

>  <origin>  (75) 
adg

>  <m_score__min__energy>  (75) 
-13.300000000000001

>  <m_primary>  (75) 
energy

$$$$
75:0
     RDKit          3D

 54 57  0  0  0  0  0  0  0  0999 V2000
   57.5270   30.1670   44.0370 C   0  0  0  0  0  0  0  0  0  0  0  0
   58.5550   30.7130   44.8560 O   0  0  0  0  0  0  0  0  0  0  0  0
   58.5260   31.9970   45.4250 C   0  0  0  0  0  0  0  0  0  0  0  0
   57.5540   32.9480   45.0570 C   0  0  0  0  0  0  0  0  0  0  0  0
   57.5380   34.2110   45.6520 C   0  0  0  0  0  0  0  0  0  0  0  0
   58.4800   34.5370   46.6260 C   0  0  0  0  0  0  0  0  0  0  0  0
   59.4480   33.6050   47.0000 C   0  0  0  0  0  0  0  0  0  0  0  0
   59.4970   32.3420   46.3900 C   0  0  0  0  0  0  0  0  0  0  0  0
   60.7520   31.1860   46.8710 S   0  0  0  0  0  0  0  0  0  0  0  0
   60.7760   30.0450   45.8900 O   0  0  0  0  0  0  0  0  0  0  0  0
   62.0860   31.8740   46.8030 O   0  0  0  0  0  0  0  0  0  0  0  0
   60.5430   30.5060   48.5310 C   0  0  1  0  0  0  0  0  0  0  0  0
   59.5800   31.2830   49.4210 C   0  0  0  0  0  0  0  0  0  0  0  0
   59.1190   30.3070   50.3940 N   0  0  0  0  0  0  0  0  0  0  0  0
   58.3170   30.6470   51.5340 C   0  0  0  0  0  0  0  0  0  0  0  0
   58.8410   31.3920   52.5440 N   0  0  0  0  0  0  0  0  0  0  0  0
   58.0980   31.7180   53.6320 C   0  0  0  0  0  0  0  0  0  0  0  0
   56.7760   31.2870   53.7280 C   0  0  0  0  0  0  0  0  0  0  0  0
   56.2450   30.5200   52.6850 C   0  0  0  0  0  0  0  0  0  0  0  0
   54.8290   30.0290   52.7450 C   0  0  0  0  0  0  0  0  0  0  0  0
   54.7920   28.6460   52.7060 F   0  0  0  0  0  0  0  0  0  0  0  0
   54.2390   30.4590   53.9200 F   0  0  0  0  0  0  0  0  0  0  0  0
   54.1180   30.5260   51.6690 F   0  0  0  0  0  0  0  0  0  0  0  0
   57.0270   30.2180   51.6140 N   0  0  0  0  0  0  0  0  0  0  0  0
   59.4970   28.9440   50.0470 C   0  0  0  0  0  0  0  0  0  0  0  0
   60.0780   29.0390   48.6300 C   0  0  1  0  0  0  0  0  0  0  0  0
   59.0340   28.6730   47.6050 C   0  0  0  0  0  0  0  0  0  0  0  0
   58.3250   29.5790   47.0880 O   0  0  0  0  0  0  0  0  0  0  0  0
   58.9250   27.3010   47.1870 N   0  0  0  0  0  0  0  0  0  0  0  0
   57.8750   26.5480   46.9890 C   0  0  0  0  0  0  0  0  0  0  0  0
   57.7410   25.2370   47.4960 C   0  0  0  0  0  0  0  0  0  0  0  0
   56.5700   24.5160   47.2390 C   0  0  0  0  0  0  0  0  0  0  0  0
   55.5740   25.0680   46.5000 N   0  0  0  0  0  0  0  0  0  0  0  0
   55.6790   26.3210   45.9900 C   0  0  0  0  0  0  0  0  0  0  0  0
   56.8290   27.0780   46.2210 C   0  0  0  0  0  0  0  0  0  0  0  0
   56.7351   29.7464   44.6742 H   0  0  0  0  0  0  0  0  0  0  0  0
   57.1044   30.9595   43.4019 H   0  0  0  0  0  0  0  0  0  0  0  0
   57.9470   29.3731   43.4019 H   0  0  0  0  0  0  0  0  0  0  0  0
   56.8022   32.6937   44.2954 H   0  0  0  0  0  0  0  0  0  0  0  0
   56.7806   34.9500   45.3515 H   0  0  0  0  0  0  0  0  0  0  0  0
   58.4601   35.5295   47.0999 H   0  0  0  0  0  0  0  0  0  0  0  0
   60.1796   33.8622   47.7801 H   0  0  0  0  0  0  0  0  0  0  0  0
   61.5842   30.5888   48.8761 H   0  0  0  0  0  0  0  0  0  0  0  0
   60.0972   32.1157   49.9201 H   0  0  0  0  0  0  0  0  0  0  0  0
   58.7520   31.7308   48.8519 H   0  0  0  0  0  0  0  0  0  0  0  0
   58.5392   32.3225   54.4382 H   0  0  0  0  0  0  0  0  0  0  0  0
   56.1634   31.5442   54.6047 H   0  0  0  0  0  0  0  0  0  0  0  0
   60.2525   28.5620   50.7494 H   0  0  0  0  0  0  0  0  0  0  0  0
   58.6419   28.2538   50.0965 H   0  0  0  0  0  0  0  0  0  0  0  0
   60.9069   28.3422   48.4365 H   0  0  0  0  0  0  0  0  0  0  0  0
   58.5509   24.7862   48.0883 H   0  0  0  0  0  0  0  0  0  0  0  0
   56.4558   23.4971   47.6376 H   0  0  0  0  0  0  0  0  0  0  0  0
   54.8561   26.7413   45.3932 H   0  0  0  0  0  0  0  0  0  0  0  0
   56.9143   28.0907   45.8002 H   0  0  0  0  0  0  0  0  0  0  0  0
  1  2  1  0
  2  3  1  0
  3  4  2  0
  4  5  1  0
  5  6  2  0
  6  7  1  0
  7  8  2  0
  8  9  1  0
  9 10  2  0
  9 11  2  0
  9 12  1  0
 12 13  1  0
 13 14  1  0
 14 15  1  0
 15 16  2  0
 16 17  1  0
 17 18  2  0
 18 19  1  0
 19 20  1  0
 20 21  1  0
 20 22  1  0
 20 23  1  0
 19 24  2  0
 14 25  1  0
 25 26  1  0
 26 27  1  0
 27 28  2  0
 27 29  1  0
 29 30  2  3
 30 31  1  0
 31 32  2  0
 32 33  1  0
 33 34  1  0
 34 35  2  0
  8  3  1  0
 26 12  1  0
 35 30  1  0
 24 15  1  0
  1 36  1  0
  1 37  1  0
  1 38  1  0
  4 39  1  0
  5 40  1  0
  6 41  1  0
  7 42  1  0
 12 43  1  1
 13 44  1  0
 13 45  1  0
 17 46  1  0
 18 47  1  0
 25 48  1  0
 25 49  1  0
 26 50  1  1
 31 51  1  0
 32 52  1  0
 34 53  1  0
 35 54  1  0
M  CHG  1  33  -1
M  END
>  <UniqueID>  (76) 
71

>  <SMILES>  (76) 
COc1ccccc1S(=O)(=O)[C@H]1CN(c2nccc(C(F)(F)F)n2)C[C@H]1C(=O)N=c1cc[n-]cc1

>  <Energy>  (76) 
66.72238489000071

>  <Genealogy>  (76) 
COc1ccccc1S(=O)(=O)C1CN(c2nccc(C(F)(F)F)n2)CC1C(=O)N=c1cc[n-]cc1 (protonated)
COc1ccccc1S(=O)(=O)[C@H]1CN(c2nccc(C(F)(F)F)n2)C[C@H]1C(=O)N=c1cc[n-]cc1 (chirality)
COc1ccccc1S(=O)(=O)[C@H]1CN(c2nccc(C(F)(F)F)n2)C[C@H]1C(=O)N=c1cc[n-]cc1 (3D coordinates assigned)
COc1ccccc1S(=O)(=O)[C@H]1CN(c2nccc(C(F)(F)F)n2)C[C@H]1C(=O)N=c1cc[n-]cc1 (nonaromatic ring conformer: 66.72238489000071 kcal/mol)

>  <smiles>  (76) 
COc1ccccc1S(=O)(=O)C1CN(c2nccc(C(F)(F)F)n2)CC1C(=O)N=c1cc[nH]cc1

>  <score_type>  (76) 
oracle

>  <origin>  (76) 
adg

>  <m_score__min__energy>  (76) 
-9.5700000000000003

>  <m_primary>  (76) 
energy

$$$$
76:0
     RDKit          3D

 26 27  0  0  0  0  0  0  0  0999 V2000
   57.1928   26.6664   44.3325 H   0  0  0  0  0  0  0  0  0  0  0  0
   57.0050   26.9370   45.3820 C   0  0  0  0  0  0  0  0  0  0  0  0
   56.0150   26.1310   46.1220 C   0  0  0  0  0  0  0  0  0  0  0  0
   56.3980   25.4870   47.1370 O   0  0  0  0  0  0  0  0  0  0  0  0
   54.6770   26.0650   45.7190 O   0  0  0  0  0  0  0  0  0  0  0  0
   53.9820   24.8350   45.5560 C   0  0  0  0  0  0  0  0  0  0  0  0
   53.7443   24.4144   46.5442 H   0  0  0  0  0  0  0  0  0  0  0  0
   53.0501   25.0114   44.9988 H   0  0  0  0  0  0  0  0  0  0  0  0
   54.6140   24.1278   44.9988 H   0  0  0  0  0  0  0  0  0  0  0  0
   57.6960   27.9740   45.8840 C   0  0  0  0  0  0  0  0  0  0  0  0
   59.1220   27.8580   46.9760 S   0  0  0  0  0  0  0  0  0  0  0  0
   59.4360   29.6020   46.6760 C   0  0  0  0  0  0  0  0  0  0  0  0
   60.9860   30.0960   46.4860 S   0  0  0  0  0  0  0  0  0  0  0  0
   58.3610   30.2930   46.0310 N   0  0  0  0  0  0  0  0  0  0  0  0
   58.2450   31.7210   45.9040 C   0  0  0  0  0  0  0  0  0  0  0  0
   58.8770   32.5950   46.7180 N   0  0  0  0  0  0  0  0  0  0  0  0
   58.6340   33.8860   46.3650 C   0  0  0  0  0  0  0  0  0  0  0  0
   59.2570   35.0310   47.0930 C   0  0  0  0  0  0  0  0  0  0  0  0
   59.1683   34.8680   48.1772 H   0  0  0  0  0  0  0  0  0  0  0  0
   60.3198   35.1050   46.8191 H   0  0  0  0  0  0  0  0  0  0  0  0
   58.7419   35.9635   46.8191 H   0  0  0  0  0  0  0  0  0  0  0  0
   57.8250   34.0520   45.2440 C   0  0  0  0  0  0  0  0  0  0  0  0
   57.5247   35.0115   44.7978 H   0  0  0  0  0  0  0  0  0  0  0  0
   57.3890   32.5240   44.6940 S   0  0  0  0  0  0  0  0  0  0  0  0
   57.3910   29.3650   45.5600 C   0  0  0  0  0  0  0  0  0  0  0  0
   56.3650   29.7190   44.9160 O   0  0  0  0  0  0  0  0  0  0  0  0
  1  2  1  0
  2  3  1  0
  3  4  2  0
  3  5  1  0
  5  6  1  0
  6  7  1  0
  6  8  1  0
  6  9  1  0
  2 10  2  0
 10 11  1  0
 11 12  1  0
 12 13  2  0
 12 14  1  0
 14 15  1  0
 15 16  2  0
 16 17  1  0
 17 18  1  0
 18 19  1  0
 18 20  1  0
 18 21  1  0
 17 22  2  0
 22 23  1  0
 22 24  1  0
 14 25  1  0
 25 26  2  0
 25 10  1  0
 24 15  1  0
M  END
>  <UniqueID>  (77) 
72

>  <SMILES>  (77) 
COC(=O)/C=C1\SC(=S)N(c2nc(C)cs2)C1=O

>  <Energy>  (77) 
76.1596000049673

>  <Genealogy>  (77) 
COC(=O)/C=C1\SC(=S)N(c2nc(C)cs2)C1=O (cis-trans isomerization)
COC(=O)/C=C1\SC(=S)N(c2nc(C)cs2)C1=O (3D coordinates assigned)
COC(=O)/C=C1\SC(=S)N(c2nc(C)cs2)C1=O (nonaromatic ring conformer: 76.1596000049673 kcal/mol)

>  <smiles>  (77) 
COC(=O)C=C1SC(=S)N(c2nc(C)cs2)C1=O

>  <score_type>  (77) 
oracle

>  <origin>  (77) 
adg

>  <m_score__min__energy>  (77) 
-7

>  <m_primary>  (77) 
energy

$$$$
77:0
     RDKit          3D

 53 55  0  0  0  0  0  0  0  0999 V2000
   64.8320   32.3630   46.9510 H   0  0  0  0  0  0  0  0  0  0  0  0
   64.0510   32.6950   46.3980 O   0  0  0  0  0  0  0  0  0  0  0  0
   63.0850   33.4930   46.9660 N   0  0  0  0  0  0  0  0  0  0  0  0
   63.2320   34.5270   46.9420 H   0  0  0  0  0  0  0  0  0  0  0  0
   61.9870   33.0000   47.4710 C   0  0  0  0  0  0  0  0  0  0  0  0
   60.6800   33.3320   46.8560 C   0  0  0  0  0  0  0  0  0  0  0  0
   59.6670   32.3640   46.6490 C   0  0  0  0  0  0  0  0  0  0  0  0
   59.7940   31.0410   47.0950 O   0  0  0  0  0  0  0  0  0  0  0  0
   59.0360   29.9570   46.6220 C   0  0  0  0  0  0  0  0  0  0  0  0
   57.7920   30.1370   45.9910 C   0  0  0  0  0  0  0  0  0  0  0  0
   57.3973   31.1524   45.8392 H   0  0  0  0  0  0  0  0  0  0  0  0
   57.0500   29.0250   45.5530 C   0  0  0  0  0  0  0  0  0  0  0  0
   55.7940   29.1540   44.9380 O   0  0  0  0  0  0  0  0  0  0  0  0
   55.5800   29.7450   43.6610 C   0  0  0  0  0  0  0  0  0  0  0  0
   55.2081   30.7721   43.7900 H   0  0  0  0  0  0  0  0  0  0  0  0
   56.5278   29.7656   43.1030 H   0  0  0  0  0  0  0  0  0  0  0  0
   54.8388   29.1540   43.1030 H   0  0  0  0  0  0  0  0  0  0  0  0
   57.5720   27.7390   45.7300 C   0  0  0  0  0  0  0  0  0  0  0  0
   56.9954   26.8660   45.3904 H   0  0  0  0  0  0  0  0  0  0  0  0
   58.8270   27.5510   46.3380 C   0  0  0  0  0  0  0  0  0  0  0  0
   59.3870   26.2790   46.5300 O   0  0  0  0  0  0  0  0  0  0  0  0
   60.7710   25.9780   46.3800 C   0  0  0  0  0  0  0  0  0  0  0  0
   61.2340   25.8773   47.3727 H   0  0  0  0  0  0  0  0  0  0  0  0
   60.8831   25.0345   45.8257 H   0  0  0  0  0  0  0  0  0  0  0  0
   61.2648   26.7897   45.8257 H   0  0  0  0  0  0  0  0  0  0  0  0
   59.5490   28.6660   46.7740 C   0  0  0  0  0  0  0  0  0  0  0  0
   60.5340   28.5252   47.2429 H   0  0  0  0  0  0  0  0  0  0  0  0
   58.5290   32.7140   45.9910 N   0  0  0  0  0  0  0  0  0  0  0  0
   58.3000   33.9820   45.5530 C   0  0  0  0  0  0  0  0  0  0  0  0
   57.0160   34.3090   44.8620 C   0  0  0  0  0  0  0  0  0  0  0  0
   56.2362   34.5076   45.6120 H   0  0  0  0  0  0  0  0  0  0  0  0
   57.1550   35.2004   44.2327 H   0  0  0  0  0  0  0  0  0  0  0  0
   56.7116   33.4597   44.2327 H   0  0  0  0  0  0  0  0  0  0  0  0
   59.2500   34.9790   45.7940 C   0  0  0  0  0  0  0  0  0  0  0  0
   59.0602   36.0145   45.4750 H   0  0  0  0  0  0  0  0  0  0  0  0
   60.4400   34.6500   46.4420 C   0  0  0  0  0  0  0  0  0  0  0  0
   61.1943   35.4284   46.6294 H   0  0  0  0  0  0  0  0  0  0  0  0
   61.9990   32.1120   48.6070 N   0  0  0  0  0  0  0  0  0  0  0  0
   61.1970   31.4440   48.6820 H   0  0  0  0  0  0  0  0  0  0  0  0
   62.9070   32.2390   49.7550 C   0  0  0  0  0  0  0  0  0  0  0  0
   62.5290   31.5111   50.4879 H   0  0  0  0  0  0  0  0  0  0  0  0
   62.9260   33.6590   50.3070 C   0  0  0  0  0  0  0  0  0  0  0  0
   62.8353   34.3915   49.4914 H   0  0  0  0  0  0  0  0  0  0  0  0
   62.0874   33.8451   50.9941 H   0  0  0  0  0  0  0  0  0  0  0  0
   64.2720   33.7970   51.0010 C   0  0  0  0  0  0  0  0  0  0  0  0
   64.6594   34.8194   50.8797 H   0  0  0  0  0  0  0  0  0  0  0  0
   64.1858   33.6016   52.0801 H   0  0  0  0  0  0  0  0  0  0  0  0
   65.2090   32.7940   50.3300 C   0  0  0  0  0  0  0  0  0  0  0  0
   65.9958   33.3250   49.7742 H   0  0  0  0  0  0  0  0  0  0  0  0
   65.6991   32.1527   51.0774 H   0  0  0  0  0  0  0  0  0  0  0  0
   64.3590   31.9640   49.3720 C   0  0  0  0  0  0  0  0  0  0  0  0
   64.5450   32.2705   48.3320 H   0  0  0  0  0  0  0  0  0  0  0  0
   64.5995   30.8930   49.4434 H   0  0  0  0  0  0  0  0  0  0  0  0
  1  2  1  0
  2  3  1  0
  3  4  1  0
  3  5  2  0
  5  6  1  0
  6  7  1  0
  7  8  1  0
  8  9  1  0
  9 10  2  0
 10 11  1  0
 10 12  1  0
 12 13  1  0
 13 14  1  0
 14 15  1  0
 14 16  1  0
 14 17  1  0
 12 18  2  0
 18 19  1  0
 18 20  1  0
 20 21  1  0
 21 22  1  0
 22 23  1  0
 22 24  1  0
 22 25  1  0
 20 26  2  0
 26 27  1  0
  7 28  2  0
 28 29  1  0
 29 30  1  0
 30 31  1  0
 30 32  1  0
 30 33  1  0
 29 34  2  0
 34 35  1  0
 34 36  1  0
 36 37  1  0
  5 38  1  0
 38 39  1  0
 38 40  1  0
 40 41  1  0
 40 42  1  0
 42 43  1  0
 42 44  1  0
 42 45  1  0
 45 46  1  0
 45 47  1  0
 45 48  1  0
 48 49  1  0
 48 50  1  0
 48 51  1  0
 51 52  1  0
 51 53  1  0
 36  6  2  0
 51 40  1  0
 26  9  1  0
M  CHG  1   3   1
M  END
>  <UniqueID>  (78) 
73

>  <SMILES>  (78) 
COc1cc(OC)cc(Oc2nc(C)ccc2/C(NC2CCCC2)=[NH+]/O)c1

>  <Energy>  (78) 
64.67807068502623

>  <Genealogy>  (78) 
COc1cc(OC)cc(Oc2nc(C)ccc2C(NC2CCCC2)=[NH+]O)c1 (protonated)
COc1cc(OC)cc(Oc2nc(C)ccc2/C(NC2CCCC2)=[NH+]/O)c1 (cis-trans isomerization)
COc1cc(OC)cc(Oc2nc(C)ccc2/C(NC2CCCC2)=[NH+]/O)c1 (3D coordinates assigned)
COc1cc(OC)cc(Oc2nc(C)ccc2/C(NC2CCCC2)=[NH+]/O)c1 (nonaromatic ring conformer: 64.67807068502623 kcal/mol)

>  <smiles>  (78) 
COc1cc(OC)cc(Oc2nc(C)ccc2C(=NO)NC2CCCC2)c1

>  <score_type>  (78) 
oracle

>  <origin>  (78) 
adg

>  <m_score__min__energy>  (78) 
-6.5700000000000003

>  <m_primary>  (78) 
energy

$$$$
78:0
     RDKit          3D

 52 56  0  0  1  0  0  0  0  0999 V2000
   55.7730   28.6490   45.2570 O   0  0  0  0  0  0  0  0  0  0  0  0
   56.3640   29.6740   44.5420 C   0  0  0  0  0  0  0  0  0  0  0  0
   56.3040   29.7470   43.1590 C   0  0  0  0  0  0  0  0  0  0  0  0
   56.8980   30.7770   42.4500 C   0  0  0  0  0  0  0  0  0  0  0  0
   57.5600   31.7430   43.1540 C   0  0  0  0  0  0  0  0  0  0  0  0
   57.6530   31.7240   44.5270 C   0  0  0  0  0  0  0  0  0  0  0  0
   58.3560   32.7500   45.2970 C   0  0  0  0  0  0  0  0  0  0  0  0
   58.8330   33.9070   44.7050 C   0  0  0  0  0  0  0  0  0  0  0  0
   59.4880   34.8380   45.4750 C   0  0  0  0  0  0  0  0  0  0  0  0
   59.6670   34.6210   46.8240 C   0  0  0  0  0  0  0  0  0  0  0  0
   59.2000   33.4650   47.4600 C   0  0  0  0  0  0  0  0  0  0  0  0
   59.4140   33.2780   48.8920 C   0  0  0  0  0  0  0  0  0  0  0  0
   60.5990   33.6440   49.4240 N   0  0  0  0  0  0  0  0  0  0  0  0
   60.8580   33.4990   50.7350 C   0  0  0  0  0  0  0  0  0  0  0  0
   61.9710   33.8330   51.2900 N   0  0  0  0  0  0  0  0  0  0  0  0
   63.1300   33.0040   51.0760 C   0  0  0  0  0  0  0  0  0  0  0  0
   63.2360   32.8590   49.5790 C   0  0  0  0  0  0  0  0  0  0  0  0
   62.9930   31.6380   48.9590 C   0  0  0  0  0  0  0  0  0  0  0  0
   63.1100   31.5790   47.5810 C   0  0  0  0  0  0  0  0  0  0  0  0
   63.4540   32.6690   46.8090 C   0  0  0  0  0  0  0  0  0  0  0  0
   63.6970   33.8890   47.4300 C   0  0  0  0  0  0  0  0  0  0  0  0
   63.5810   33.9550   48.8030 C   0  0  0  0  0  0  0  0  0  0  0  0
   59.8900   32.9620   51.5710 C   0  0  0  0  0  0  0  0  0  0  0  0
   60.1050   32.7940   52.9150 C   0  0  0  0  0  0  0  0  0  0  0  0
   59.1630   32.2630   53.7760 C   0  0  0  0  0  0  0  0  0  0  0  0
   57.9560   31.8960   53.2110 C   0  0  0  0  0  0  0  0  0  0  0  0
   57.7150   32.0560   51.8520 C   0  0  0  0  0  0  0  0  0  0  0  0
   58.6790   32.5870   51.0360 C   0  0  0  0  0  0  0  0  0  0  0  0
   58.4820   32.7590   49.7110 N   0  0  0  0  0  0  0  0  0  0  0  0
   58.5540   32.5590   46.6680 C   0  0  0  0  0  0  0  0  0  0  0  0
   57.0460   30.6760   45.2110 C   0  0  0  0  0  0  0  0  0  0  0  0
   55.1540   27.9470   44.8630 H   0  0  0  0  0  0  0  0  0  0  0  0
   55.7672   28.9613   42.6072 H   0  0  0  0  0  0  0  0  0  0  0  0
   56.8388   30.8166   41.3523 H   0  0  0  0  0  0  0  0  0  0  0  0
   58.0366   32.5669   42.6026 H   0  0  0  0  0  0  0  0  0  0  0  0
   58.6891   34.0795   43.6282 H   0  0  0  0  0  0  0  0  0  0  0  0
   59.8708   35.7598   45.0128 H   0  0  0  0  0  0  0  0  0  0  0  0
   60.1938   35.3807   47.4201 H   0  0  0  0  0  0  0  0  0  0  0  0
   64.0310   33.4869   51.4823 H   0  0  0  0  0  0  0  0  0  0  0  0
   63.0398   32.0303   51.5798 H   0  0  0  0  0  0  0  0  0  0  0  0
   62.7169   30.7485   49.5444 H   0  0  0  0  0  0  0  0  0  0  0  0
   62.9200   30.6190   47.0787 H   0  0  0  0  0  0  0  0  0  0  0  0
   63.5350   32.5743   45.7161 H   0  0  0  0  0  0  0  0  0  0  0  0
   63.9741   34.7769   46.8428 H   0  0  0  0  0  0  0  0  0  0  0  0
   63.7700   34.9166   49.3027 H   0  0  0  0  0  0  0  0  0  0  0  0
   61.0777   33.0976   53.3294 H   0  0  0  0  0  0  0  0  0  0  0  0
   59.3627   32.1394   54.8506 H   0  0  0  0  0  0  0  0  0  0  0  0
   57.1699   31.4684   53.8506 H   0  0  0  0  0  0  0  0  0  0  0  0
   56.7453   31.7548   51.4291 H   0  0  0  0  0  0  0  0  0  0  0  0
   57.5630   32.4680   49.3410 H   0  0  0  0  0  0  0  0  0  0  0  0
   58.1719   31.6367   47.1299 H   0  0  0  0  0  0  0  0  0  0  0  0
   57.1093   30.6425   46.3087 H   0  0  0  0  0  0  0  0  0  0  0  0
  1  2  1  0
  2  3  2  0
  3  4  1  0
  4  5  2  0
  5  6  1  0
  6  7  1  0
  7  8  2  0
  8  9  1  0
  9 10  2  0
 10 11  1  0
 11 12  1  0
 12 13  2  0
 13 14  1  0
 14 15  2  0
 15 16  1  0
 16 17  1  0
 17 18  2  0
 18 19  1  0
 19 20  2  0
 20 21  1  0
 21 22  2  0
 14 23  1  0
 23 24  2  0
 24 25  1  0
 25 26  2  0
 26 27  1  0
 27 28  2  0
 28 29  1  0
 11 30  2  0
  6 31  2  0
 31  2  1  0
 30  7  1  0
 29 12  1  0
 22 17  1  0
 28 23  1  0
  1 32  1  0
  3 33  1  0
  4 34  1  0
  5 35  1  0
  8 36  1  0
  9 37  1  0
 10 38  1  0
 16 39  1  0
 16 40  1  0
 18 41  1  0
 19 42  1  0
 20 43  1  0
 21 44  1  0
 22 45  1  0
 24 46  1  0
 25 47  1  0
 26 48  1  0
 27 49  1  0
 29 50  1  0
 30 51  1  0
 31 52  1  0
M  END
>  <smiles>  (79) 
Oc1cccc(-c2cccc(-c3nc(=NCc4ccccc4)c4ccccc4[nH]3)c2)c1

>  <score_type>  (79) 
oracle

>  <origin>  (79) 
adg

>  <m_score__min__energy>  (79) 
-10.75

>  <m_primary>  (79) 
energy

$$$$
79:0
     RDKit          3D

 37 39  0  0  0  0  0  0  0  0999 V2000
   56.6890   34.2610   45.5230 O   0  0  0  0  0  0  0  0  0  0  0  0
   57.7060   33.6500   45.9440 C   0  0  0  0  0  0  0  0  0  0  0  0
   58.3620   34.1270   47.1260 N   0  0  0  0  0  0  0  0  0  0  0  0
   59.7670   34.0410   47.4090 C   0  0  0  0  0  0  0  0  0  0  0  0
   60.2570   34.0000   48.7280 C   0  0  0  0  0  0  0  0  0  0  0  0
   61.6320   33.9150   48.9660 C   0  0  0  0  0  0  0  0  0  0  0  0
   62.5240   33.8420   47.8930 C   0  0  0  0  0  0  0  0  0  0  0  0
   62.0410   33.8440   46.5830 C   0  0  0  0  0  0  0  0  0  0  0  0
   60.6670   33.9400   46.3410 C   0  0  0  0  0  0  0  0  0  0  0  0
   58.1740   32.5020   45.2260 N   0  0  0  0  0  0  0  0  0  0  0  0
   58.2690   31.1720   45.7530 C   0  0  0  0  0  0  0  0  0  0  0  0
   58.9270   30.9710   46.9710 C   0  0  0  0  0  0  0  0  0  0  0  0
   59.0320   29.6880   47.5140 C   0  0  0  0  0  0  0  0  0  0  0  0
   58.5010   28.5930   46.8290 C   0  0  0  0  0  0  0  0  0  0  0  0
   57.8670   28.7720   45.5890 C   0  0  0  0  0  0  0  0  0  0  0  0
   57.3220   27.5880   44.8320 C   0  0  0  0  0  0  0  0  0  0  0  0
   57.2150   26.3740   45.7270 C   0  0  0  0  0  0  0  0  0  0  0  0
   55.9780   25.9890   46.2730 C   0  0  0  0  0  0  0  0  0  0  0  0
   54.8240   26.7110   45.9960 O   0  0  0  0  0  0  0  0  0  0  0  0
   55.9020   24.9050   47.0870 N   0  0  0  0  0  0  0  0  0  0  0  0
   57.0060   24.1750   47.3870 C   0  0  0  0  0  0  0  0  0  0  0  0
   56.9110   23.1760   48.1480 O   0  0  0  0  0  0  0  0  0  0  0  0
   58.2100   24.5140   46.8620 N   0  0  0  0  0  0  0  0  0  0  0  0
   58.3400   25.5870   46.0390 C   0  0  0  0  0  0  0  0  0  0  0  0
   59.4750   25.8650   45.5680 O   0  0  0  0  0  0  0  0  0  0  0  0
   57.7510   30.0660   45.0560 C   0  0  0  0  0  0  0  0  0  0  0  0
   59.5555   34.0350   49.5745 H   0  0  0  0  0  0  0  0  0  0  0  0
   62.0118   33.9056   49.9983 H   0  0  0  0  0  0  0  0  0  0  0  0
   63.6063   33.7830   48.0803 H   0  0  0  0  0  0  0  0  0  0  0  0
   62.7429   33.7699   45.7393 H   0  0  0  0  0  0  0  0  0  0  0  0
   60.2915   33.9361   45.3071 H   0  0  0  0  0  0  0  0  0  0  0  0
   59.3642   31.8280   47.5043 H   0  0  0  0  0  0  0  0  0  0  0  0
   59.5334   29.5402   48.4819 H   0  0  0  0  0  0  0  0  0  0  0  0
   58.5798   27.5853   47.2630 H   0  0  0  0  0  0  0  0  0  0  0  0
   56.3234   27.8379   44.4442 H   0  0  0  0  0  0  0  0  0  0  0  0
   58.0095   27.3542   44.0057 H   0  0  0  0  0  0  0  0  0  0  0  0
   57.2518   30.2154   44.0872 H   0  0  0  0  0  0  0  0  0  0  0  0
  1  2  2  0
  2  3  1  0
  3  4  1  0
  4  5  2  0
  5  6  1  0
  6  7  2  0
  7  8  1  0
  8  9  2  0
  2 10  1  0
 10 11  1  0
 11 12  2  0
 12 13  1  0
 13 14  2  0
 14 15  1  0
 15 16  1  0
 16 17  1  0
 17 18  2  0
 18 19  1  0
 18 20  1  0
 20 21  1  0
 21 22  2  0
 21 23  1  0
 23 24  1  0
 24 25  2  0
 15 26  2  0
  9  4  1  0
 26 11  1  0
 24 17  1  0
  5 27  1  0
  6 28  1  0
  7 29  1  0
  8 30  1  0
  9 31  1  0
 12 32  1  0
 13 33  1  0
 14 34  1  0
 16 35  1  0
 16 36  1  0
 26 37  1  0
M  CHG  5   3  -1  10  -1  19  -1  20  -1  23  -1
M  END
>  <UniqueID>  (80) 
74

>  <SMILES>  (80) 
O=C([N-]c1ccccc1)[N-]c1cccc(Cc2c([O-])[n-]c(=O)[n-]c2=O)c1

>  <Energy>  (80) 
45.92759986369803

>  <Genealogy>  (80) 
O=C([N-]c1ccccc1)[N-]c1cccc(Cc2c([O-])[n-]c(=O)[n-]c2=O)c1 (protonated)
O=C([N-]c1ccccc1)[N-]c1cccc(Cc2c([O-])[n-]c(=O)[n-]c2=O)c1 (3D coordinates assigned)
O=C([N-]c1ccccc1)[N-]c1cccc(Cc2c([O-])[n-]c(=O)[n-]c2=O)c1 (optimized conformer: 45.92759986369803 kcal/mol)

>  <smiles>  (80) 
O=C(Nc1ccccc1)Nc1cccc(Cc2c(O)[nH]c(=O)[nH]c2=O)c1

>  <score_type>  (80) 
oracle

>  <origin>  (80) 
adg

>  <m_score__min__energy>  (80) 
-17.600000000000001

>  <m_primary>  (80) 
energy

$$$$
80:0
     RDKit          3D

 40 42  0  0  0  0  0  0  0  0999 V2000
   59.6750   33.8500   50.8320 C   0  0  0  0  0  0  0  0  0  0  0  0
   59.7470   34.1350   49.4390 O   0  0  0  0  0  0  0  0  0  0  0  0
   59.5980   33.1780   48.4230 C   0  0  0  0  0  0  0  0  0  0  0  0
   59.5110   31.8000   48.7000 C   0  0  0  0  0  0  0  0  0  0  0  0
   59.3650   30.8780   47.6610 C   0  0  0  0  0  0  0  0  0  0  0  0
   59.3070   31.3110   46.3260 C   0  0  0  0  0  0  0  0  0  0  0  0
   59.1360   30.3610   45.2570 N   0  0  0  0  0  0  0  0  0  0  0  0
   60.1570   29.3500   44.9640 C   0  0  0  0  0  0  0  0  0  0  0  0
   59.5460   27.9360   45.0230 C   0  0  0  0  0  0  0  0  0  0  0  0
   58.0970   27.8910   44.6840 N   0  0  0  0  0  0  0  0  0  0  0  0
   57.2410   27.8080   45.8890 C   0  0  0  0  0  0  0  0  0  0  0  0
   56.9620   26.3780   46.2400 C   0  0  0  0  0  0  0  0  0  0  0  0
   57.8720   25.4910   46.5580 O   0  0  0  0  0  0  0  0  0  0  0  0
   57.2340   24.3610   46.7700 C   0  0  0  0  0  0  0  0  0  0  0  0
   57.8140   23.2940   47.1010 O   0  0  0  0  0  0  0  0  0  0  0  0
   55.8980   24.4480   46.5970 N   0  0  0  0  0  0  0  0  0  0  0  0
   55.7380   25.7400   46.2540 C   0  0  0  0  0  0  0  0  0  0  0  0
   54.5030   26.3090   45.9580 O   0  0  0  0  0  0  0  0  0  0  0  0
   57.6870   28.9970   43.7920 C   0  0  0  0  0  0  0  0  0  0  0  0
   57.9090   30.3680   44.4540 C   0  0  0  0  0  0  0  0  0  0  0  0
   59.3830   32.6850   46.0510 C   0  0  0  0  0  0  0  0  0  0  0  0
   59.5310   33.6110   47.0900 C   0  0  0  0  0  0  0  0  0  0  0  0
   59.6320   35.3230   46.7040 Cl  0  0  0  0  0  0  0  0  0  0  0  0
   59.9050   34.7604   51.4049 H   0  0  0  0  0  0  0  0  0  0  0  0
   58.6614   33.5047   51.0837 H   0  0  0  0  0  0  0  0  0  0  0  0
   60.4030   33.0647   51.0837 H   0  0  0  0  0  0  0  0  0  0  0  0
   59.5583   31.4476   49.7410 H   0  0  0  0  0  0  0  0  0  0  0  0
   59.2949   29.8044   47.8900 H   0  0  0  0  0  0  0  0  0  0  0  0
   60.5641   29.5272   43.9576 H   0  0  0  0  0  0  0  0  0  0  0  0
   60.9580   29.4241   45.7143 H   0  0  0  0  0  0  0  0  0  0  0  0
   60.0881   27.2944   44.3127 H   0  0  0  0  0  0  0  0  0  0  0  0
   59.6419   27.5896   46.0626 H   0  0  0  0  0  0  0  0  0  0  0  0
   57.7549   28.2935   46.7317 H   0  0  0  0  0  0  0  0  0  0  0  0
   56.2870   28.3151   45.6821 H   0  0  0  0  0  0  0  0  0  0  0  0
   53.6490   25.9660   46.3800 H   0  0  0  0  0  0  0  0  0  0  0  0
   58.2787   28.9473   42.8660 H   0  0  0  0  0  0  0  0  0  0  0  0
   56.6137   28.8873   43.5776 H   0  0  0  0  0  0  0  0  0  0  0  0
   57.9929   31.1375   43.6724 H   0  0  0  0  0  0  0  0  0  0  0  0
   57.0554   30.5860   45.1127 H   0  0  0  0  0  0  0  0  0  0  0  0
   59.3258   33.0371   45.0104 H   0  0  0  0  0  0  0  0  0  0  0  0
  1  2  1  0
  2  3  1  0
  3  4  2  0
  4  5  1  0
  5  6  2  0
  6  7  1  0
  7  8  1  0
  8  9  1  0
  9 10  1  0
 10 11  1  0
 11 12  1  0
 12 13  1  0
 13 14  1  0
 14 15  2  0
 14 16  1  0
 16 17  1  0
 17 18  1  0
 10 19  1  0
 19 20  1  0
  6 21  1  0
 21 22  2  0
 22 23  1  0
 22  3  1  0
 20  7  1  0
 17 12  2  0
  1 24  1  0
  1 25  1  0
  1 26  1  0
  4 27  1  0
  5 28  1  0
  8 29  1  0
  8 30  1  0
  9 31  1  0
  9 32  1  0
 11 33  1  0
 11 34  1  0
 18 35  1  0
 19 36  1  0
 19 37  1  0
 20 38  1  0
 20 39  1  0
 21 40  1  0
M  CHG  1  16  -1
M  END
>  <UniqueID>  (81) 
75

>  <SMILES>  (81) 
COc1ccc(N2CCN(Cc3oc(=O)[n-]c3O)CC2)cc1Cl

>  <Energy>  (81) 
83.4575381539562

>  <Genealogy>  (81) 
COc1ccc(N2CCN(Cc3oc(=O)[n-]c3O)CC2)cc1Cl (protonated)
COc1ccc(N2CCN(Cc3oc(=O)[n-]c3O)CC2)cc1Cl (3D coordinates assigned)
COc1ccc(N2CCN(Cc3oc(=O)[n-]c3O)CC2)cc1Cl (nonaromatic ring conformer: 83.4575381539562 kcal/mol)

>  <smiles>  (81) 
COc1ccc(N2CCN(Cc3oc(=O)[nH]c3O)CC2)cc1Cl

>  <score_type>  (81) 
oracle

>  <origin>  (81) 
adg

>  <m_score__min__energy>  (81) 
-9.4700000000000006

>  <m_primary>  (81) 
energy

$$$$
81:0
     RDKit          3D

 60 63  0  0  0  0  0  0  0  0999 V2000
   57.3620   22.5590   47.0540 N   0  0  0  0  0  0  0  0  0  0  0  0
   56.7350   24.1680   47.0800 S   0  0  0  0  0  0  0  0  0  0  0  0
   57.3320   24.9190   48.2370 O   0  0  0  0  0  0  0  0  0  0  0  0
   55.2430   24.1240   47.2530 O   0  0  0  0  0  0  0  0  0  0  0  0
   57.1360   24.9810   45.5700 C   0  0  0  0  0  0  0  0  0  0  0  0
   57.0840   24.2810   44.3580 C   0  0  0  0  0  0  0  0  0  0  0  0
   57.4000   24.9280   43.1610 C   0  0  0  0  0  0  0  0  0  0  0  0
   57.7550   26.2800   43.1650 C   0  0  0  0  0  0  0  0  0  0  0  0
   57.7810   27.0020   44.3720 C   0  0  0  0  0  0  0  0  0  0  0  0
   58.1620   28.3870   44.4090 N   0  0  0  0  0  0  0  0  0  0  0  0
   57.2370   29.4670   44.6390 C   0  0  0  0  0  0  0  0  0  0  0  0
   56.0210   29.2170   44.8680 O   0  0  0  0  0  0  0  0  0  0  0  0
   57.6860   30.8790   44.6250 C   0  0  0  0  0  0  0  0  0  0  0  0
   57.6820   31.6000   43.4180 C   0  0  0  0  0  0  0  0  0  0  0  0
   58.0910   32.9360   43.3880 C   0  0  0  0  0  0  0  0  0  0  0  0
   58.5010   33.5700   44.5620 C   0  0  0  0  0  0  0  0  0  0  0  0
   58.4990   32.8730   45.7760 C   0  0  0  0  0  0  0  0  0  0  0  0
   58.9820   33.6870   47.2650 S   0  0  0  0  0  0  0  0  0  0  0  0
   58.6270   35.1450   47.1730 O   0  0  0  0  0  0  0  0  0  0  0  0
   58.2220   33.0970   48.4210 O   0  0  0  0  0  0  0  0  0  0  0  0
   60.6940   33.5240   47.5580 N   0  0  0  0  0  0  0  0  0  0  0  0
   61.4650   34.0630   46.4330 C   0  0  0  0  0  0  0  0  0  0  0  0
   62.9600   33.7360   46.6050 C   0  0  0  0  0  0  0  0  0  0  0  0
   63.3330   33.4110   48.0000 N   0  0  0  0  0  0  0  0  0  0  0  0
   63.5380   31.9730   48.2890 C   0  0  0  0  0  0  0  0  0  0  0  0
   62.2600   31.1670   48.3080 C   0  0  0  0  0  0  0  0  0  0  0  0
   61.6070   30.8980   49.5230 C   0  0  0  0  0  0  0  0  0  0  0  0
   60.3980   30.1960   49.5360 C   0  0  0  0  0  0  0  0  0  0  0  0
   59.8370   29.7480   48.3380 C   0  0  0  0  0  0  0  0  0  0  0  0
   60.4870   29.9930   47.1260 C   0  0  0  0  0  0  0  0  0  0  0  0
   61.6960   30.6960   47.1090 C   0  0  0  0  0  0  0  0  0  0  0  0
   62.5980   34.1700   49.0340 C   0  0  0  0  0  0  0  0  0  0  0  0
   61.0710   34.2100   48.8010 C   0  0  0  0  0  0  0  0  0  0  0  0
   58.0890   31.5310   45.8060 C   0  0  0  0  0  0  0  0  0  0  0  0
   57.4870   26.3380   45.5730 C   0  0  0  0  0  0  0  0  0  0  0  0
   58.3490   22.6220   46.7200 H   0  0  0  0  0  0  0  0  0  0  0  0
   56.7938   23.2200   44.3487 H   0  0  0  0  0  0  0  0  0  0  0  0
   57.3694   24.3719   42.2124 H   0  0  0  0  0  0  0  0  0  0  0  0
   58.0150   26.7811   42.2209 H   0  0  0  0  0  0  0  0  0  0  0  0
   59.1800   28.5980   44.3230 H   0  0  0  0  0  0  0  0  0  0  0  0
   57.3544   31.1087   42.4900 H   0  0  0  0  0  0  0  0  0  0  0  0
   58.0898   33.4891   42.4372 H   0  0  0  0  0  0  0  0  0  0  0  0
   58.8266   34.6203   44.5332 H   0  0  0  0  0  0  0  0  0  0  0  0
   61.1011   33.6159   45.4962 H   0  0  0  0  0  0  0  0  0  0  0  0
   61.3385   35.1553   46.4029 H   0  0  0  0  0  0  0  0  0  0  0  0
   63.2037   32.8726   45.9685 H   0  0  0  0  0  0  0  0  0  0  0  0
   63.5246   34.6356   46.3186 H   0  0  0  0  0  0  0  0  0  0  0  0
   64.2003   31.5549   47.5167 H   0  0  0  0  0  0  0  0  0  0  0  0
   63.9733   31.9075   49.2971 H   0  0  0  0  0  0  0  0  0  0  0  0
   62.0498   31.2418   50.4694 H   0  0  0  0  0  0  0  0  0  0  0  0
   59.8884   29.9964   50.4902 H   0  0  0  0  0  0  0  0  0  0  0  0
   58.8823   29.2017   48.3488 H   0  0  0  0  0  0  0  0  0  0  0  0
   60.0476   29.6327   46.1841 H   0  0  0  0  0  0  0  0  0  0  0  0
   62.2081   30.8813   46.1533 H   0  0  0  0  0  0  0  0  0  0  0  0
   62.7889   33.7019   50.0110 H   0  0  0  0  0  0  0  0  0  0  0  0
   62.9590   35.2082   48.9909 H   0  0  0  0  0  0  0  0  0  0  0  0
   60.5681   33.7179   49.6466 H   0  0  0  0  0  0  0  0  0  0  0  0
   60.7636   35.2630   48.7189 H   0  0  0  0  0  0  0  0  0  0  0  0
   58.0825   30.9840   46.7603 H   0  0  0  0  0  0  0  0  0  0  0  0
   57.5324   26.8873   46.5249 H   0  0  0  0  0  0  0  0  0  0  0  0
  1  2  1  0
  2  3  2  0
  2  4  2  0
  2  5  1  0
  5  6  2  0
  6  7  1  0
  7  8  2  0
  8  9  1  0
  9 10  1  0
 10 11  1  0
 11 12  2  0
 11 13  1  0
 13 14  2  0
 14 15  1  0
 15 16  2  0
 16 17  1  0
 17 18  1  0
 18 19  2  0
 18 20  2  0
 18 21  1  0
 21 22  1  0
 22 23  1  0
 23 24  1  0
 24 25  1  0
 25 26  1  0
 26 27  2  0
 27 28  1  0
 28 29  2  0
 29 30  1  0
 30 31  2  0
 24 32  1  0
 32 33  1  0
 17 34  2  0
  9 35  2  0
 35  5  1  0
 34 13  1  0
 33 21  1  0
 31 26  1  0
  1 36  1  0
  6 37  1  0
  7 38  1  0
  8 39  1  0
 10 40  1  0
 14 41  1  0
 15 42  1  0
 16 43  1  0
 22 44  1  0
 22 45  1  0
 23 46  1  0
 23 47  1  0
 25 48  1  0
 25 49  1  0
 27 50  1  0
 28 51  1  0
 29 52  1  0
 30 53  1  0
 31 54  1  0
 32 55  1  0
 32 56  1  0
 33 57  1  0
 33 58  1  0
 34 59  1  0
 35 60  1  0
M  CHG  1   1  -1
M  END
>  <UniqueID>  (82) 
76

>  <SMILES>  (82) 
[NH-]S(=O)(=O)c1cccc(NC(=O)c2cccc(S(=O)(=O)N3CCN(Cc4ccccc4)CC3)c2)c1

>  <Energy>  (82) 
80.68916562076147

>  <Genealogy>  (82) 
[NH-]S(=O)(=O)c1cccc(NC(=O)c2cccc(S(=O)(=O)N3CCN(Cc4ccccc4)CC3)c2)c1 (protonated)
[NH-]S(=O)(=O)c1cccc(NC(=O)c2cccc(S(=O)(=O)N3CCN(Cc4ccccc4)CC3)c2)c1 (3D coordinates assigned)
[NH-]S(=O)(=O)c1cccc(NC(=O)c2cccc(S(=O)(=O)N3CCN(Cc4ccccc4)CC3)c2)c1 (nonaromatic ring conformer: 80.68916562076147 kcal/mol)

>  <smiles>  (82) 
NS(=O)(=O)c1cccc(NC(=O)c2cccc(S(=O)(=O)N3CCN(Cc4ccccc4)CC3)c2)c1

>  <score_type>  (82) 
oracle

>  <origin>  (82) 
adg

>  <m_score__min__energy>  (82) 
-13.68

>  <m_primary>  (82) 
energy

$$$$
82:0
     RDKit          3D

 49 51  0  0  0  0  0  0  0  0999 V2000
   55.5890   24.0500   44.3500 C   0  0  0  0  0  0  0  0  0  0  0  0
   54.9530   24.6610   45.8960 S   0  0  0  0  0  0  0  0  0  0  0  0
   53.9800   23.6790   46.4870 O   0  0  0  0  0  0  0  0  0  0  0  0
   54.2350   25.9570   45.6440 O   0  0  0  0  0  0  0  0  0  0  0  0
   56.2540   24.9500   47.0040 N   0  0  0  0  0  0  0  0  0  0  0  0
   57.5290   25.5180   46.6730 C   0  0  0  0  0  0  0  0  0  0  0  0
   58.6530   24.7240   46.3870 C   0  0  0  0  0  0  0  0  0  0  0  0
   59.8710   25.3230   46.0610 C   0  0  0  0  0  0  0  0  0  0  0  0
   59.9850   26.7140   46.0230 C   0  0  0  0  0  0  0  0  0  0  0  0
   58.8760   27.5270   46.3220 C   0  0  0  0  0  0  0  0  0  0  0  0
   58.9690   29.0060   46.2820 C   0  0  0  0  0  0  0  0  0  0  0  0
   60.0940   29.5510   46.4480 O   0  0  0  0  0  0  0  0  0  0  0  0
   57.8020   29.8230   46.0680 N   0  0  0  0  0  0  0  0  0  0  0  0
   57.8490   31.2550   45.9560 C   0  0  0  0  0  0  0  0  0  0  0  0
   58.7360   32.0120   46.7420 C   0  0  0  0  0  0  0  0  0  0  0  0
   58.7830   33.4070   46.6220 C   0  0  0  0  0  0  0  0  0  0  0  0
   59.8840   34.3470   47.6320 S   0  0  0  0  0  0  0  0  0  0  0  0
   59.2950   34.4940   49.0070 O   0  0  0  0  0  0  0  0  0  0  0  0
   60.0370   35.7220   47.0430 O   0  0  0  0  0  0  0  0  0  0  0  0
   61.4550   33.5930   47.7540 N   0  0  0  0  0  0  0  0  0  0  0  0
   62.2420   33.8410   46.5340 C   0  0  0  0  0  0  0  0  0  0  0  0
   63.7130   33.4260   46.7380 C   0  0  0  0  0  0  0  0  0  0  0  0
   63.8560   32.6200   47.8910 O   0  0  0  0  0  0  0  0  0  0  0  0
   63.5390   33.3720   49.0500 C   0  0  0  0  0  0  0  0  0  0  0  0
   62.1770   34.0900   48.9330 C   0  0  0  0  0  0  0  0  0  0  0  0
   57.9520   34.0500   45.6940 C   0  0  0  0  0  0  0  0  0  0  0  0
   57.0880   33.3040   44.8900 C   0  0  0  0  0  0  0  0  0  0  0  0
   57.0380   31.9110   45.0140 C   0  0  0  0  0  0  0  0  0  0  0  0
   56.1700   31.1850   44.2070 O   0  0  0  0  0  0  0  0  0  0  0  0
   57.6490   26.9130   46.6360 C   0  0  0  0  0  0  0  0  0  0  0  0
   56.3696   23.3000   44.5454 H   0  0  0  0  0  0  0  0  0  0  0  0
   54.7730   23.5885   43.7746 H   0  0  0  0  0  0  0  0  0  0  0  0
   56.0174   24.8839   43.7746 H   0  0  0  0  0  0  0  0  0  0  0  0
   58.5726   23.6274   46.4202 H   0  0  0  0  0  0  0  0  0  0  0  0
   60.7455   24.6959   45.8329 H   0  0  0  0  0  0  0  0  0  0  0  0
   60.9470   27.1769   45.7579 H   0  0  0  0  0  0  0  0  0  0  0  0
   56.8600   29.3740   46.0320 H   0  0  0  0  0  0  0  0  0  0  0  0
   59.3991   31.5040   47.4577 H   0  0  0  0  0  0  0  0  0  0  0  0
   61.8146   33.2586   45.7045 H   0  0  0  0  0  0  0  0  0  0  0  0
   62.2074   34.9162   46.3044 H   0  0  0  0  0  0  0  0  0  0  0  0
   64.0524   32.8593   45.8584 H   0  0  0  0  0  0  0  0  0  0  0  0
   64.3191   34.3347   46.8678 H   0  0  0  0  0  0  0  0  0  0  0  0
   63.5066   32.6921   49.9141 H   0  0  0  0  0  0  0  0  0  0  0  0
   64.3144   34.1426   49.1716 H   0  0  0  0  0  0  0  0  0  0  0  0
   61.5811   33.8933   49.8365 H   0  0  0  0  0  0  0  0  0  0  0  0
   62.3435   35.1723   48.8288 H   0  0  0  0  0  0  0  0  0  0  0  0
   57.9807   35.1455   45.5990 H   0  0  0  0  0  0  0  0  0  0  0  0
   56.4447   33.8127   44.1569 H   0  0  0  0  0  0  0  0  0  0  0  0
   56.7710   27.5382   46.8557 H   0  0  0  0  0  0  0  0  0  0  0  0
  1  2  1  0
  2  3  2  0
  2  4  2  0
  2  5  1  0
  5  6  1  0
  6  7  2  0
  7  8  1  0
  8  9  2  0
  9 10  1  0
 10 11  1  0
 11 12  2  0
 11 13  1  0
 13 14  1  0
 14 15  2  0
 15 16  1  0
 16 17  1  0
 17 18  2  0
 17 19  2  0
 17 20  1  0
 20 21  1  0
 21 22  1  0
 22 23  1  0
 23 24  1  0
 24 25  1  0
 16 26  2  0
 26 27  1  0
 27 28  2  0
 28 29  1  0
 10 30  2  0
 30  6  1  0
 28 14  1  0
 25 20  1  0
  1 31  1  0
  1 32  1  0
  1 33  1  0
  7 34  1  0
  8 35  1  0
  9 36  1  0
 13 37  1  0
 15 38  1  0
 21 39  1  0
 21 40  1  0
 22 41  1  0
 22 42  1  0
 24 43  1  0
 24 44  1  0
 25 45  1  0
 25 46  1  0
 26 47  1  0
 27 48  1  0
 30 49  1  0
M  CHG  2   5  -1  29  -1
M  END
>  <UniqueID>  (83) 
77

>  <SMILES>  (83) 
CS(=O)(=O)[N-]c1cccc(C(=O)Nc2cc(S(=O)(=O)N3CCOCC3)ccc2[O-])c1

>  <Energy>  (83) 
63.54271387597586

>  <Genealogy>  (83) 
CS(=O)(=O)[N-]c1cccc(C(=O)Nc2cc(S(=O)(=O)N3CCOCC3)ccc2[O-])c1 (protonated)
CS(=O)(=O)[N-]c1cccc(C(=O)Nc2cc(S(=O)(=O)N3CCOCC3)ccc2[O-])c1 (3D coordinates assigned)
CS(=O)(=O)[N-]c1cccc(C(=O)Nc2cc(S(=O)(=O)N3CCOCC3)ccc2[O-])c1 (nonaromatic ring conformer: 63.54271387597586 kcal/mol)

>  <smiles>  (83) 
CS(=O)(=O)Nc1cccc(C(=O)Nc2cc(S(=O)(=O)N3CCOCC3)ccc2O)c1

>  <score_type>  (83) 
oracle

>  <origin>  (83) 
adg

>  <m_score__min__energy>  (83) 
-12.609999999999999

>  <m_primary>  (83) 
energy

$$$$
83:0
     RDKit          3D

 53 55  0  0  0  0  0  0  0  0999 V2000
   61.1281   29.1208   45.2144 H   0  0  0  0  0  0  0  0  0  0  0  0
   60.0460   28.9990   45.3700 C   0  0  0  0  0  0  0  0  0  0  0  0
   59.4710   27.9430   44.8680 N   0  0  0  0  0  0  0  0  0  0  0  0
   58.5860   27.0480   45.5580 C   0  0  0  0  0  0  0  0  0  0  0  0
   57.2080   27.2730   45.4900 C   0  0  0  0  0  0  0  0  0  0  0  0
   56.8218   28.1257   44.9123 H   0  0  0  0  0  0  0  0  0  0  0  0
   56.3170   26.4220   46.1510 C   0  0  0  0  0  0  0  0  0  0  0  0
   54.9500   26.6530   46.0460 O   0  0  0  0  0  0  0  0  0  0  0  0
   56.8000   25.3330   46.8940 C   0  0  0  0  0  0  0  0  0  0  0  0
   55.8770   24.4450   47.5460 N   0  0  0  0  0  0  0  0  0  0  0  0
   55.1310   24.8570   48.1510 H   0  0  0  0  0  0  0  0  0  0  0  0
   55.7730   23.0230   47.2160 C   0  0  0  0  0  0  0  0  0  0  0  0
   56.7132   22.6913   46.7512 H   0  0  0  0  0  0  0  0  0  0  0  0
   55.5829   22.4601   48.1417 H   0  0  0  0  0  0  0  0  0  0  0  0
   54.6100   22.7700   46.2380 C   0  0  0  0  0  0  0  0  0  0  0  0
   54.8409   21.8767   45.6391 H   0  0  0  0  0  0  0  0  0  0  0  0
   53.6960   22.6324   46.8344 H   0  0  0  0  0  0  0  0  0  0  0  0
   54.3730   23.9500   45.2890 C   0  0  0  0  0  0  0  0  0  0  0  0
   53.2983   24.0281   45.0679 H   0  0  0  0  0  0  0  0  0  0  0  0
   54.7258   24.8740   45.7705 H   0  0  0  0  0  0  0  0  0  0  0  0
   55.0920   23.7560   44.0710 O   0  0  0  0  0  0  0  0  0  0  0  0
   56.2520   22.9770   43.9280 C   0  0  0  0  0  0  0  0  0  0  0  0
   57.4090   23.3800   44.6080 C   0  0  0  0  0  0  0  0  0  0  0  0
   57.3811   24.2726   45.2503 H   0  0  0  0  0  0  0  0  0  0  0  0
   58.5990   22.6570   44.4770 C   0  0  0  0  0  0  0  0  0  0  0  0
   59.5028   22.9839   45.0120 H   0  0  0  0  0  0  0  0  0  0  0  0
   58.6400   21.5200   43.6670 C   0  0  0  0  0  0  0  0  0  0  0  0
   59.5766   20.9526   43.5629 H   0  0  0  0  0  0  0  0  0  0  0  0
   57.4920   21.1030   42.9890 C   0  0  0  0  0  0  0  0  0  0  0  0
   57.5243   20.2058   42.3533 H   0  0  0  0  0  0  0  0  0  0  0  0
   56.3030   21.8250   43.1180 C   0  0  0  0  0  0  0  0  0  0  0  0
   55.4008   21.4921   42.5839 H   0  0  0  0  0  0  0  0  0  0  0  0
   58.1860   25.1370   47.0040 C   0  0  0  0  0  0  0  0  0  0  0  0
   58.5735   24.2998   47.6031 H   0  0  0  0  0  0  0  0  0  0  0  0
   59.0770   25.9990   46.3570 C   0  0  0  0  0  0  0  0  0  0  0  0
   60.4440   25.8210   46.5300 O   0  0  0  0  0  0  0  0  0  0  0  0
   59.3220   30.0600   46.1480 C   0  0  0  0  0  0  0  0  0  0  0  0
   59.8865   31.0029   46.0988 H   0  0  0  0  0  0  0  0  0  0  0  0
   59.2271   29.7497   47.1990 H   0  0  0  0  0  0  0  0  0  0  0  0
   57.9980   30.2530   45.5710 N   0  0  0  0  0  0  0  0  0  0  0  0
   57.4280   31.5180   45.2120 C   0  0  0  0  0  0  0  0  0  0  0  0
   56.3230   31.5280   44.6080 O   0  0  0  0  0  0  0  0  0  0  0  0
   58.0680   32.8030   45.5550 C   0  0  0  0  0  0  0  0  0  0  0  0
   58.2460   33.1880   46.8950 C   0  0  0  0  0  0  0  0  0  0  0  0
   57.8582   32.5514   47.7039 H   0  0  0  0  0  0  0  0  0  0  0  0
   58.9140   34.3770   47.2040 C   0  0  0  0  0  0  0  0  0  0  0  0
   59.0420   34.6780   48.2542 H   0  0  0  0  0  0  0  0  0  0  0  0
   59.4190   35.1830   46.1810 C   0  0  0  0  0  0  0  0  0  0  0  0
   59.9526   36.1130   46.4268 H   0  0  0  0  0  0  0  0  0  0  0  0
   59.2470   34.8090   44.8460 C   0  0  0  0  0  0  0  0  0  0  0  0
   59.6365   35.4495   44.0410 H   0  0  0  0  0  0  0  0  0  0  0  0
   58.5800   33.6210   44.5330 C   0  0  0  0  0  0  0  0  0  0  0  0
   58.4551   33.3247   43.4810 H   0  0  0  0  0  0  0  0  0  0  0  0
  1  2  1  0
  2  3  2  0
  3  4  1  0
  4  5  2  0
  5  6  1  0
  5  7  1  0
  7  8  1  0
  7  9  2  0
  9 10  1  0
 10 11  1  0
 10 12  1  0
 12 13  1  0
 12 14  1  0
 12 15  1  0
 15 16  1  0
 15 17  1  0
 15 18  1  0
 18 19  1  0
 18 20  1  0
 18 21  1  0
 21 22  1  0
 22 23  2  0
 23 24  1  0
 23 25  1  0
 25 26  1  0
 25 27  2  0
 27 28  1  0
 27 29  1  0
 29 30  1  0
 29 31  2  0
 31 32  1  0
  9 33  1  0
 33 34  1  0
 33 35  2  0
 35 36  1  0
  2 37  1  0
 37 38  1  0
 37 39  1  0
 37 40  1  0
 40 41  1  0
 41 42  2  0
 41 43  1  0
 43 44  2  0
 44 45  1  0
 44 46  1  0
 46 47  1  0
 46 48  2  0
 48 49  1  0
 48 50  1  0
 50 51  1  0
 50 52  2  0
 52 53  1  0
 35  4  1  0
 52 43  1  0
 31 22  1  0
M  CHG  3   8  -1  36  -1  40  -1
M  END
>  <UniqueID>  (84) 
78

>  <SMILES>  (84) 
O=C([N-]C/C=N\c1cc([O-])c(NCCCOc2ccccc2)cc1[O-])c1ccccc1

>  <Energy>  (84) 
59.906382644359084

>  <Genealogy>  (84) 
O=C([N-]CC=Nc1cc([O-])c(NCCCOc2ccccc2)cc1[O-])c1ccccc1 (protonated)
O=C([N-]C/C=N\c1cc([O-])c(NCCCOc2ccccc2)cc1[O-])c1ccccc1 (cis-trans isomerization)
O=C([N-]C/C=N\c1cc([O-])c(NCCCOc2ccccc2)cc1[O-])c1ccccc1 (3D coordinates assigned)
O=C([N-]C/C=N\c1cc([O-])c(NCCCOc2ccccc2)cc1[O-])c1ccccc1 (optimized conformer: 59.906382644359084 kcal/mol)

>  <smiles>  (84) 
O=C(NCC=Nc1cc(O)c(NCCCOc2ccccc2)cc1O)c1ccccc1

>  <score_type>  (84) 
oracle

>  <origin>  (84) 
adg

>  <m_score__min__energy>  (84) 
-14.42

>  <m_primary>  (84) 
energy

$$$$
84:0
     RDKit          3D

 38 40  0  0  0  0  0  0  0  0999 V2000
   54.1882   24.2683   46.0693 H   0  0  0  0  0  0  0  0  0  0  0  0
   55.1210   24.8450   45.9840 C   0  0  0  0  0  0  0  0  0  0  0  0
   55.1420   26.2050   46.0040 N   0  0  0  0  0  0  0  0  0  0  0  0
   56.3960   26.6950   45.8930 C   0  0  0  0  0  0  0  0  0  0  0  0
   56.6230   27.9750   45.8650 N   0  0  0  0  0  0  0  0  0  0  0  0
   56.2800   28.9500   44.8620 C   0  0  0  0  0  0  0  0  0  0  0  0
   55.1480   29.4980   44.9320 O   0  0  0  0  0  0  0  0  0  0  0  0
   57.2200   29.4010   43.7780 C   0  0  0  0  0  0  0  0  0  0  0  0
   56.7876   30.2709   43.2619 H   0  0  0  0  0  0  0  0  0  0  0  0
   57.3676   28.5749   43.0668 H   0  0  0  0  0  0  0  0  0  0  0  0
   58.8370   29.8660   44.4910 S   0  0  0  0  0  0  0  0  0  0  0  0
   58.2330   31.4170   45.1460 C   0  0  0  0  0  0  0  0  0  0  0  0
   56.9910   31.8960   44.9490 N   0  0  0  0  0  0  0  0  0  0  0  0
   56.9460   33.0690   45.5620 N   0  0  0  0  0  0  0  0  0  0  0  0
   58.1650   33.2580   46.1040 C   0  0  0  0  0  0  0  0  0  0  0  0
   58.5640   34.4780   46.8730 C   0  0  0  0  0  0  0  0  0  0  0  0
   58.3986   34.2981   47.9455 H   0  0  0  0  0  0  0  0  0  0  0  0
   57.9548   35.3265   46.5281 H   0  0  0  0  0  0  0  0  0  0  0  0
   59.9430   34.7870   46.6570 O   0  0  0  0  0  0  0  0  0  0  0  0
   61.0260   34.1080   47.2440 C   0  0  0  0  0  0  0  0  0  0  0  0
   61.0220   33.6930   48.5920 C   0  0  0  0  0  0  0  0  0  0  0  0
   60.1315   33.8641   49.2147 H   0  0  0  0  0  0  0  0  0  0  0  0
   62.1430   33.0660   49.1400 C   0  0  0  0  0  0  0  0  0  0  0  0
   62.1291   32.7476   50.1928 H   0  0  0  0  0  0  0  0  0  0  0  0
   63.2840   32.8390   48.3620 C   0  0  0  0  0  0  0  0  0  0  0  0
   64.3950   32.2340   48.9690 O   0  0  0  0  0  0  0  0  0  0  0  0
   65.2770   32.9020   49.8660 C   0  0  0  0  0  0  0  0  0  0  0  0
   64.9834   32.6796   50.9025 H   0  0  0  0  0  0  0  0  0  0  0  0
   66.3066   32.5551   49.6941 H   0  0  0  0  0  0  0  0  0  0  0  0
   65.2221   33.9871   49.6941 H   0  0  0  0  0  0  0  0  0  0  0  0
   63.2790   33.2260   47.0070 C   0  0  0  0  0  0  0  0  0  0  0  0
   64.1615   33.0346   46.3789 H   0  0  0  0  0  0  0  0  0  0  0  0
   62.1550   33.8530   46.4580 C   0  0  0  0  0  0  0  0  0  0  0  0
   62.1591   34.1482   45.3984 H   0  0  0  0  0  0  0  0  0  0  0  0
   58.9570   32.2410   45.8610 O   0  0  0  0  0  0  0  0  0  0  0  0
   57.5230   25.4500   45.7520 S   0  0  0  0  0  0  0  0  0  0  0  0
   56.3630   24.2370   45.8480 C   0  0  0  0  0  0  0  0  0  0  0  0
   56.5534   23.1543   45.8099 H   0  0  0  0  0  0  0  0  0  0  0  0
  1  2  1  0
  2  3  1  0
  3  4  1  0
  4  5  2  0
  5  6  1  0
  6  7  2  0
  6  8  1  0
  8  9  1  0
  8 10  1  0
  8 11  1  0
 11 12  1  0
 12 13  2  0
 13 14  1  0
 14 15  2  0
 15 16  1  0
 16 17  1  0
 16 18  1  0
 16 19  1  0
 19 20  1  0
 20 21  2  0
 21 22  1  0
 21 23  1  0
 23 24  1  0
 23 25  2  0
 25 26  1  0
 26 27  1  0
 27 28  1  0
 27 29  1  0
 27 30  1  0
 25 31  1  0
 31 32  1  0
 31 33  2  0
 33 34  1  0
 15 35  1  0
  4 36  1  0
 36 37  1  0
 37 38  1  0
 37  2  2  0
 35 12  1  0
 33 20  1  0
M  CHG  1   3  -1
M  END
>  <UniqueID>  (85) 
79

>  <SMILES>  (85) 
COc1ccc(OCc2nnc(SCC(=O)/N=c3/[n-]ccs3)o2)cc1

>  <Energy>  (85) 
102.76415673533832

>  <Genealogy>  (85) 
COc1ccc(OCc2nnc(SCC(=O)N=c3[n-]ccs3)o2)cc1 (protonated)
COc1ccc(OCc2nnc(SCC(=O)/N=c3/[n-]ccs3)o2)cc1 (cis-trans isomerization)
COc1ccc(OCc2nnc(SCC(=O)/N=c3/[n-]ccs3)o2)cc1 (3D coordinates assigned)
COc1ccc(OCc2nnc(SCC(=O)/N=c3/[n-]ccs3)o2)cc1 (optimized conformer: 102.76415673533832 kcal/mol)

>  <smiles>  (85) 
COc1ccc(OCc2nnc(SCC(=O)N=c3[nH]ccs3)o2)cc1

>  <score_type>  (85) 
oracle

>  <origin>  (85) 
adg

>  <m_score__min__energy>  (85) 
-10.039999999999999

>  <m_primary>  (85) 
energy

$$$$
85:0
     RDKit          3D

 34 36  0  0  0  0  0  0  0  0999 V2000
   57.5350   32.2860   43.8570 C   0  0  0  0  0  0  0  0  0  0  0  0
   57.7770   31.0140   44.6140 C   0  0  0  0  0  0  0  0  0  0  0  0
   59.0090   30.7940   45.2450 C   0  0  0  0  0  0  0  0  0  0  0  0
   59.2680   29.5910   45.9100 C   0  0  0  0  0  0  0  0  0  0  0  0
   60.5250   29.4160   46.5020 O   0  0  0  0  0  0  0  0  0  0  0  0
   60.9340   30.1080   47.6490 C   0  0  0  0  0  0  0  0  0  0  0  0
   60.7230   29.6120   48.7890 O   0  0  0  0  0  0  0  0  0  0  0  0
   61.5930   31.4280   47.5070 C   0  0  0  0  0  0  0  0  0  0  0  0
   62.9810   31.4590   47.2700 C   0  0  0  0  0  0  0  0  0  0  0  0
   63.6520   32.6740   47.1080 C   0  0  0  0  0  0  0  0  0  0  0  0
   62.9510   33.8760   47.1870 C   0  0  0  0  0  0  0  0  0  0  0  0
   61.5770   33.8670   47.4320 C   0  0  0  0  0  0  0  0  0  0  0  0
   60.8900   32.6570   47.5960 C   0  0  0  0  0  0  0  0  0  0  0  0
   59.0160   32.7780   48.0010 Br  0  0  0  0  0  0  0  0  0  0  0  0
   58.2660   28.5960   45.9770 C   0  0  0  0  0  0  0  0  0  0  0  0
   58.4460   27.4060   46.6990 C   0  0  0  0  0  0  0  0  0  0  0  0
   57.4350   26.4460   46.7290 C   0  0  0  0  0  0  0  0  0  0  0  0
   56.2400   26.6820   46.0480 C   0  0  0  0  0  0  0  0  0  0  0  0
   55.3250   25.8160   46.0710 O   0  0  0  0  0  0  0  0  0  0  0  0
   56.0590   27.8460   45.3660 N   0  0  0  0  0  0  0  0  0  0  0  0
   57.0290   28.8080   45.3200 C   0  0  0  0  0  0  0  0  0  0  0  0
   56.8000   30.0090   44.6340 C   0  0  0  0  0  0  0  0  0  0  0  0
   57.3780   33.1112   44.5672 H   0  0  0  0  0  0  0  0  0  0  0  0
   58.4071   32.5077   43.2243 H   0  0  0  0  0  0  0  0  0  0  0  0
   56.6424   32.1720   43.2243 H   0  0  0  0  0  0  0  0  0  0  0  0
   59.7814   31.5767   45.2169 H   0  0  0  0  0  0  0  0  0  0  0  0
   63.5436   30.5155   47.2117 H   0  0  0  0  0  0  0  0  0  0  0  0
   64.7354   32.6818   46.9178 H   0  0  0  0  0  0  0  0  0  0  0  0
   63.4804   34.8313   47.0563 H   0  0  0  0  0  0  0  0  0  0  0  0
   61.0286   34.8183   47.4969 H   0  0  0  0  0  0  0  0  0  0  0  0
   59.3863   27.2303   47.2422 H   0  0  0  0  0  0  0  0  0  0  0  0
   57.5786   25.5084   47.2861 H   0  0  0  0  0  0  0  0  0  0  0  0
   55.1500   28.0030   44.8720 H   0  0  0  0  0  0  0  0  0  0  0  0
   55.8466   30.1638   44.1076 H   0  0  0  0  0  0  0  0  0  0  0  0
  1  2  1  0
  2  3  2  0
  3  4  1  0
  4  5  1  0
  5  6  1  0
  6  7  2  0
  6  8  1  0
  8  9  2  0
  9 10  1  0
 10 11  2  0
 11 12  1  0
 12 13  2  0
 13 14  1  0
  4 15  2  0
 15 16  1  0
 16 17  2  0
 17 18  1  0
 18 19  2  0
 18 20  1  0
 20 21  1  0
 21 22  2  0
 22  2  1  0
 13  8  1  0
 21 15  1  0
  1 23  1  0
  1 24  1  0
  1 25  1  0
  3 26  1  0
  9 27  1  0
 10 28  1  0
 11 29  1  0
 12 30  1  0
 16 31  1  0
 17 32  1  0
 20 33  1  0
 22 34  1  0
M  END
>  <UniqueID>  (86) 
80

>  <SMILES>  (86) 
Cc1cc(OC(=O)c2ccccc2Br)c2ccc(=O)[nH]c2c1

>  <Energy>  (86) 
52.16874899201614

>  <Genealogy>  (86) 
Cc1cc(OC(=O)c2ccccc2Br)c2ccc(=O)[nH]c2c1 (3D coordinates assigned)
Cc1cc(OC(=O)c2ccccc2Br)c2ccc(=O)[nH]c2c1 (optimized conformer: 52.16874899201614 kcal/mol)

>  <smiles>  (86) 
Cc1cc(OC(=O)c2ccccc2Br)c2ccc(=O)[nH]c2c1

>  <score_type>  (86) 
oracle

>  <origin>  (86) 
adg

>  <m_score__min__energy>  (86) 
-8.2300000000000004

>  <m_primary>  (86) 
energy

$$$$
86:0
     RDKit          3D

 25 26  0  0  0  0  0  0  0  0999 V2000
   52.9740   27.2470   53.8850 C   0  0  0  0  0  0  0  0  0  0  0  0
   53.5450   28.5240   54.1500 O   0  0  0  0  0  0  0  0  0  0  0  0
   54.6270   29.0760   53.4450 C   0  0  0  0  0  0  0  0  0  0  0  0
   55.9150   28.5120   53.5060 C   0  0  0  0  0  0  0  0  0  0  0  0
   56.9530   29.0730   52.7620 C   0  0  0  0  0  0  0  0  0  0  0  0
   56.7220   30.1600   51.9820 N   0  0  0  0  0  0  0  0  0  0  0  0
   55.4930   30.7330   51.9020 C   0  0  0  0  0  0  0  0  0  0  0  0
   54.4150   30.2140   52.6370 C   0  0  0  0  0  0  0  0  0  0  0  0
   53.0850   30.8620   52.5480 C   0  0  0  0  0  0  0  0  0  0  0  0
   52.2240   30.8870   53.6610 C   0  0  0  0  0  0  0  0  0  0  0  0
   50.9740   31.5070   53.5740 C   0  0  0  0  0  0  0  0  0  0  0  0
   50.5730   32.1120   52.3800 C   0  0  0  0  0  0  0  0  0  0  0  0
   51.4230   32.1000   51.2710 C   0  0  0  0  0  0  0  0  0  0  0  0
   51.0250   32.7040   50.0840 O   0  0  0  0  0  0  0  0  0  0  0  0
   52.6750   31.4810   51.3530 C   0  0  0  0  0  0  0  0  0  0  0  0
   52.7481   26.7419   54.8357 H   0  0  0  0  0  0  0  0  0  0  0  0
   52.0464   27.3728   53.3073 H   0  0  0  0  0  0  0  0  0  0  0  0
   53.6863   26.6396   53.3073 H   0  0  0  0  0  0  0  0  0  0  0  0
   56.1025   27.6317   54.1383 H   0  0  0  0  0  0  0  0  0  0  0  0
   57.9605   28.6339   52.8073 H   0  0  0  0  0  0  0  0  0  0  0  0
   55.3411   31.6105   51.2563 H   0  0  0  0  0  0  0  0  0  0  0  0
   52.5364   30.4160   54.6047 H   0  0  0  0  0  0  0  0  0  0  0  0
   50.3049   31.5186   54.4471 H   0  0  0  0  0  0  0  0  0  0  0  0
   49.5883   32.5977   52.3131 H   0  0  0  0  0  0  0  0  0  0  0  0
   53.3423   31.4783   50.4785 H   0  0  0  0  0  0  0  0  0  0  0  0
  1  2  1  0
  2  3  1  0
  3  4  2  0
  4  5  1  0
  5  6  2  0
  6  7  1  0
  7  8  2  0
  8  9  1  0
  9 10  2  0
 10 11  1  0
 11 12  2  0
 12 13  1  0
 13 14  1  0
 13 15  2  0
  8  3  1  0
 15  9  1  0
  1 16  1  0
  1 17  1  0
  1 18  1  0
  4 19  1  0
  5 20  1  0
  7 21  1  0
 10 22  1  0
 11 23  1  0
 12 24  1  0
 15 25  1  0
M  CHG  1  14  -1
M  END
>  <UniqueID>  (87) 
81

>  <SMILES>  (87) 
COc1ccncc1-c1cccc([O-])c1

>  <Energy>  (87) 
32.48930834166686

>  <Genealogy>  (87) 
COc1ccncc1-c1cccc([O-])c1 (protonated)
COc1ccncc1-c1cccc([O-])c1 (3D coordinates assigned)
COc1ccncc1-c1cccc([O-])c1 (optimized conformer: 32.48930834166686 kcal/mol)

>  <smiles>  (87) 
COc1ccncc1-c1cccc(O)c1

>  <score_type>  (87) 
oracle

>  <origin>  (87) 
adg

>  <m_score__min__energy>  (87) 
-9.3000000000000007

>  <m_primary>  (87) 
energy

$$$$
87:0
     RDKit          3D

 35 37  0  0  0  0  0  0  0  0999 V2000
   55.9910   24.4600   47.0660 O   0  0  0  0  0  0  0  0  0  0  0  0
   56.3110   25.5540   46.5330 C   0  0  0  0  0  0  0  0  0  0  0  0
   55.3950   26.4550   46.1170 N   0  0  0  0  0  0  0  0  0  0  0  0
   56.1600   27.4430   45.6220 C   0  0  0  0  0  0  0  0  0  0  0  0
   55.6540   28.6080   45.0530 O   0  0  0  0  0  0  0  0  0  0  0  0
   57.4900   27.1270   45.7570 C   0  0  0  0  0  0  0  0  0  0  0  0
   58.6550   27.9310   45.2690 C   0  0  0  0  0  0  0  0  0  0  0  0
   58.6040   29.3180   45.8470 C   0  0  0  0  0  0  0  0  0  0  0  0
   57.9580   30.3510   45.1500 C   0  0  0  0  0  0  0  0  0  0  0  0
   57.8800   31.6320   45.7030 C   0  0  0  0  0  0  0  0  0  0  0  0
   58.4360   31.9010   46.9590 C   0  0  0  0  0  0  0  0  0  0  0  0
   58.3360   33.2310   47.4840 N   0  0  0  0  0  0  0  0  0  0  0  0
   59.6730   34.2980   47.7660 S   0  0  0  0  0  0  0  0  0  0  0  0
   59.5270   34.9310   49.1210 O   0  0  0  0  0  0  0  0  0  0  0  0
   59.6730   35.3770   46.7190 O   0  0  0  0  0  0  0  0  0  0  0  0
   61.1840   33.4100   47.6680 C   0  0  0  0  0  0  0  0  0  0  0  0
   62.1560   33.7680   46.7270 C   0  0  0  0  0  0  0  0  0  0  0  0
   63.3440   33.0370   46.6600 C   0  0  0  0  0  0  0  0  0  0  0  0
   63.5490   31.9640   47.5290 C   0  0  0  0  0  0  0  0  0  0  0  0
   62.5560   31.6370   48.4570 C   0  0  0  0  0  0  0  0  0  0  0  0
   61.4050   32.3600   48.5060 N   0  0  0  0  0  0  0  0  0  0  0  0
   59.0680   30.8620   47.6670 C   0  0  0  0  0  0  0  0  0  0  0  0
   59.1480   29.5800   47.1140 C   0  0  0  0  0  0  0  0  0  0  0  0
   57.5970   25.9140   46.3280 N   0  0  0  0  0  0  0  0  0  0  0  0
   54.7470   28.9640   45.3270 H   0  0  0  0  0  0  0  0  0  0  0  0
   59.5901   27.4418   45.5792 H   0  0  0  0  0  0  0  0  0  0  0  0
   58.6129   27.9965   44.1718 H   0  0  0  0  0  0  0  0  0  0  0  0
   57.5114   30.1514   44.1647 H   0  0  0  0  0  0  0  0  0  0  0  0
   57.3770   32.4363   45.1461 H   0  0  0  0  0  0  0  0  0  0  0  0
   61.9861   34.6161   46.0474 H   0  0  0  0  0  0  0  0  0  0  0  0
   64.1163   33.3061   45.9243 H   0  0  0  0  0  0  0  0  0  0  0  0
   64.4815   31.3823   47.4841 H   0  0  0  0  0  0  0  0  0  0  0  0
   62.7056   30.7944   49.1481 H   0  0  0  0  0  0  0  0  0  0  0  0
   59.5007   31.0589   48.6590 H   0  0  0  0  0  0  0  0  0  0  0  0
   59.6402   28.7722   47.6754 H   0  0  0  0  0  0  0  0  0  0  0  0
  1  2  2  0
  2  3  1  0
  3  4  1  0
  4  5  1  0
  4  6  2  0
  6  7  1  0
  7  8  1  0
  8  9  2  0
  9 10  1  0
 10 11  2  0
 11 12  1  0
 12 13  1  0
 13 14  2  0
 13 15  2  0
 13 16  1  0
 16 17  2  0
 17 18  1  0
 18 19  2  0
 19 20  1  0
 20 21  2  0
 11 22  1  0
 22 23  2  0
  6 24  1  0
 24  2  1  0
 23  8  1  0
 21 16  1  0
  5 25  1  0
  7 26  1  0
  7 27  1  0
  9 28  1  0
 10 29  1  0
 17 30  1  0
 18 31  1  0
 19 32  1  0
 20 33  1  0
 22 34  1  0
 23 35  1  0
M  CHG  3   3  -1  12  -1  24  -1
M  END
>  <UniqueID>  (88) 
82

>  <SMILES>  (88) 
O=c1[n-]c(O)c(Cc2ccc([N-]S(=O)(=O)c3ccccn3)cc2)[n-]1

>  <Energy>  (88) 
67.89802912182735

>  <Genealogy>  (88) 
O=c1[n-]c(O)c(Cc2ccc([N-]S(=O)(=O)c3ccccn3)cc2)[n-]1 (protonated)
O=c1[n-]c(O)c(Cc2ccc([N-]S(=O)(=O)c3ccccn3)cc2)[n-]1 (3D coordinates assigned)
O=c1[n-]c(O)c(Cc2ccc([N-]S(=O)(=O)c3ccccn3)cc2)[n-]1 (optimized conformer: 67.89802912182735 kcal/mol)

>  <smiles>  (88) 
O=c1[nH]c(O)c(Cc2ccc(NS(=O)(=O)c3ccccn3)cc2)[nH]1

>  <score_type>  (88) 
oracle

>  <origin>  (88) 
adg

>  <m_score__min__energy>  (88) 
-14.09

>  <m_primary>  (88) 
energy

$$$$
88:0
     RDKit          3D

 53 54  0  0  0  0  0  0  0  0999 V2000
   63.2380   33.8860   46.3570 C   0  0  0  0  0  0  0  0  0  0  0  0
   62.6060   33.4280   47.4450 C   0  0  0  0  0  0  0  0  0  0  0  0
   63.2980   32.4180   48.3300 C   0  0  0  0  0  0  0  0  0  0  0  0
   64.5200   33.0340   49.0070 C   0  0  0  0  0  0  0  0  0  0  0  0
   61.2030   33.8240   47.7400 C   0  0  0  0  0  0  0  0  0  0  0  0
   60.9730   34.6410   48.6720 O   0  0  0  0  0  0  0  0  0  0  0  0
   60.0510   33.2710   46.9920 C   0  0  0  0  0  0  0  0  0  0  0  0
   59.4400   34.0770   46.0200 C   0  0  0  0  0  0  0  0  0  0  0  0
   58.3170   33.6240   45.3260 C   0  0  0  0  0  0  0  0  0  0  0  0
   57.7870   32.3580   45.5810 C   0  0  0  0  0  0  0  0  0  0  0  0
   56.6330   31.9700   44.8810 O   0  0  0  0  0  0  0  0  0  0  0  0
   56.5500   30.8730   43.9730 C   0  0  0  0  0  0  0  0  0  0  0  0
   56.2360   29.5960   44.7060 C   0  0  0  0  0  0  0  0  0  0  0  0
   55.1380   29.0200   44.4900 O   0  0  0  0  0  0  0  0  0  0  0  0
   57.1310   29.0420   45.6780 N   0  0  0  0  0  0  0  0  0  0  0  0
   57.5610   27.6760   45.7450 C   0  0  0  0  0  0  0  0  0  0  0  0
   56.6100   26.6580   45.6310 C   0  0  0  0  0  0  0  0  0  0  0  0
   57.0030   25.3170   45.6560 C   0  0  0  0  0  0  0  0  0  0  0  0
   58.3620   24.9740   45.7780 C   0  0  0  0  0  0  0  0  0  0  0  0
   58.7860   23.5560   45.8010 C   0  0  0  0  0  0  0  0  0  0  0  0
   59.9810   23.2490   45.5360 O   0  0  0  0  0  0  0  0  0  0  0  0
   57.8550   22.5570   46.1130 O   0  0  0  0  0  0  0  0  0  0  0  0
   57.7650   21.3180   45.4130 C   0  0  0  0  0  0  0  0  0  0  0  0
   57.1710   21.5250   44.0240 C   0  0  0  0  0  0  0  0  0  0  0  0
   59.3160   26.0010   45.8650 C   0  0  0  0  0  0  0  0  0  0  0  0
   58.9200   27.3400   45.8410 C   0  0  0  0  0  0  0  0  0  0  0  0
   58.4180   31.5260   46.5250 C   0  0  0  0  0  0  0  0  0  0  0  0
   59.5580   31.9640   47.2210 C   0  0  0  0  0  0  0  0  0  0  0  0
   60.1980   31.0320   48.2170 C   0  0  0  0  0  0  0  0  0  0  0  0
   62.7458   34.6216   45.7039 H   0  0  0  0  0  0  0  0  0  0  0  0
   64.2494   33.5266   46.1163 H   0  0  0  0  0  0  0  0  0  0  0  0
   62.5941   32.0733   49.1018 H   0  0  0  0  0  0  0  0  0  0  0  0
   63.6292   31.5737   47.7076 H   0  0  0  0  0  0  0  0  0  0  0  0
   64.4028   32.9749   50.0991 H   0  0  0  0  0  0  0  0  0  0  0  0
   65.4231   32.4834   48.7048 H   0  0  0  0  0  0  0  0  0  0  0  0
   64.6145   34.0874   48.7048 H   0  0  0  0  0  0  0  0  0  0  0  0
   59.8495   35.0746   45.8029 H   0  0  0  0  0  0  0  0  0  0  0  0
   57.8453   34.2704   44.5713 H   0  0  0  0  0  0  0  0  0  0  0  0
   55.7558   31.0720   43.2384 H   0  0  0  0  0  0  0  0  0  0  0  0
   57.5199   30.7599   43.4665 H   0  0  0  0  0  0  0  0  0  0  0  0
   55.5458   26.9138   45.5209 H   0  0  0  0  0  0  0  0  0  0  0  0
   56.2444   24.5241   45.5797 H   0  0  0  0  0  0  0  0  0  0  0  0
   58.7714   20.8852   45.3144 H   0  0  0  0  0  0  0  0  0  0  0  0
   57.1110   20.6388   45.9794 H   0  0  0  0  0  0  0  0  0  0  0  0
   56.1361   21.8857   44.1178 H   0  0  0  0  0  0  0  0  0  0  0  0
   57.7698   22.2675   43.4761 H   0  0  0  0  0  0  0  0  0  0  0  0
   57.1787   20.5712   43.4761 H   0  0  0  0  0  0  0  0  0  0  0  0
   60.3831   25.7488   45.9527 H   0  0  0  0  0  0  0  0  0  0  0  0
   59.6775   28.1356   45.8977 H   0  0  0  0  0  0  0  0  0  0  0  0
   58.0143   30.5215   46.7203 H   0  0  0  0  0  0  0  0  0  0  0  0
   59.9657   31.3703   49.2376 H   0  0  0  0  0  0  0  0  0  0  0  0
   59.8074   30.0142   48.0703 H   0  0  0  0  0  0  0  0  0  0  0  0
   61.2882   31.0310   48.0703 H   0  0  0  0  0  0  0  0  0  0  0  0
  1  2  2  0
  2  3  1  0
  3  4  1  0
  2  5  1  0
  5  6  2  0
  5  7  1  0
  7  8  2  0
  8  9  1  0
  9 10  2  0
 10 11  1  0
 11 12  1  0
 12 13  1  0
 13 14  2  0
 13 15  1  0
 15 16  1  0
 16 17  2  0
 17 18  1  0
 18 19  2  0
 19 20  1  0
 20 21  2  0
 20 22  1  0
 22 23  1  0
 23 24  1  0
 19 25  1  0
 25 26  2  0
 10 27  1  0
 27 28  2  0
 28 29  1  0
 28  7  1  0
 26 16  1  0
  1 30  1  0
  1 31  1  0
  3 32  1  0
  3 33  1  0
  4 34  1  0
  4 35  1  0
  4 36  1  0
  8 37  1  0
  9 38  1  0
 12 39  1  0
 12 40  1  0
 17 41  1  0
 18 42  1  0
 23 43  1  0
 23 44  1  0
 24 45  1  0
 24 46  1  0
 24 47  1  0
 25 48  1  0
 26 49  1  0
 27 50  1  0
 29 51  1  0
 29 52  1  0
 29 53  1  0
M  CHG  1  15  -1
M  END
>  <UniqueID>  (89) 
83

>  <SMILES>  (89) 
C=C(CC)C(=O)c1ccc(OCC(=O)[N-]c2ccc(C(=O)OCC)cc2)cc1C

>  <Energy>  (89) 
56.77370838875202

>  <Genealogy>  (89) 
C=C(CC)C(=O)c1ccc(OCC(=O)[N-]c2ccc(C(=O)OCC)cc2)cc1C (protonated)
C=C(CC)C(=O)c1ccc(OCC(=O)[N-]c2ccc(C(=O)OCC)cc2)cc1C (3D coordinates assigned)
C=C(CC)C(=O)c1ccc(OCC(=O)[N-]c2ccc(C(=O)OCC)cc2)cc1C (optimized conformer: 56.77370838875202 kcal/mol)

>  <smiles>  (89) 
C=C(CC)C(=O)c1ccc(OCC(=O)Nc2ccc(C(=O)OCC)cc2)cc1C

>  <score_type>  (89) 
oracle

>  <origin>  (89) 
adg

>  <m_score__min__energy>  (89) 
-10.35

>  <m_primary>  (89) 
energy

$$$$
89:0
     RDKit          3D

 48 50  0  0  0  0  0  0  0  0999 V2000
   56.5550   30.1590   42.8150 C   0  0  0  0  0  0  0  0  0  0  0  0
   56.9260   31.3710   43.4620 O   0  0  0  0  0  0  0  0  0  0  0  0
   57.3840   31.4120   44.7830 C   0  0  0  0  0  0  0  0  0  0  0  0
   57.0210   30.5280   45.6050 O   0  0  0  0  0  0  0  0  0  0  0  0
   58.2480   32.5330   45.2200 C   0  0  0  0  0  0  0  0  0  0  0  0
   58.1660   33.7450   44.5100 C   0  0  0  0  0  0  0  0  0  0  0  0
   58.8780   34.8680   44.9300 C   0  0  0  0  0  0  0  0  0  0  0  0
   59.6840   34.8020   46.0640 C   0  0  0  0  0  0  0  0  0  0  0  0
   59.7970   33.6050   46.7710 C   0  0  0  0  0  0  0  0  0  0  0  0
   59.1050   32.4540   46.3550 C   0  0  0  0  0  0  0  0  0  0  0  0
   59.3520   31.1880   47.0820 C   0  0  0  0  0  0  0  0  0  0  0  0
   58.8510   31.0100   48.2260 O   0  0  0  0  0  0  0  0  0  0  0  0
   60.0740   30.1290   46.4380 N   0  0  0  0  0  0  0  0  0  0  0  0
   59.5150   28.9300   45.8840 C   0  0  0  0  0  0  0  0  0  0  0  0
   59.2570   28.7950   44.5080 C   0  0  0  0  0  0  0  0  0  0  0  0
   58.7090   27.6110   44.0100 C   0  0  0  0  0  0  0  0  0  0  0  0
   58.3920   26.5640   44.8790 C   0  0  0  0  0  0  0  0  0  0  0  0
   58.5930   26.7020   46.2570 C   0  0  0  0  0  0  0  0  0  0  0  0
   58.2610   25.5990   47.1140 N   0  0  0  0  0  0  0  0  0  0  0  0
   57.1610   24.6930   46.9540 C   0  0  0  0  0  0  0  0  0  0  0  0
   56.2460   24.6490   47.8190 O   0  0  0  0  0  0  0  0  0  0  0  0
   57.1090   23.8150   45.7620 C   0  0  0  0  0  0  0  0  0  0  0  0
   58.3160   23.2530   45.3060 C   0  0  0  0  0  0  0  0  0  0  0  0
   58.3330   22.3870   44.2120 C   0  0  0  0  0  0  0  0  0  0  0  0
   57.1470   22.0690   43.5550 C   0  0  0  0  0  0  0  0  0  0  0  0
   55.9410   22.6280   43.9800 C   0  0  0  0  0  0  0  0  0  0  0  0
   55.9020   23.5120   45.0720 C   0  0  0  0  0  0  0  0  0  0  0  0
   54.3490   24.2570   45.4910 S   0  0  0  0  0  0  0  0  0  0  0  0
   54.5310   25.9700   45.6350 N   0  0  0  0  0  0  0  0  0  0  0  0
   53.3360   23.9800   44.4150 O   0  0  0  0  0  0  0  0  0  0  0  0
   53.8470   23.6870   46.7880 O   0  0  0  0  0  0  0  0  0  0  0  0
   59.1690   27.8860   46.7530 C   0  0  0  0  0  0  0  0  0  0  0  0
   56.3214   29.3959   43.5720 H   0  0  0  0  0  0  0  0  0  0  0  0
   55.6696   30.3350   42.1864 H   0  0  0  0  0  0  0  0  0  0  0  0
   57.3872   29.8093   42.1864 H   0  0  0  0  0  0  0  0  0  0  0  0
   57.5326   33.8074   43.6128 H   0  0  0  0  0  0  0  0  0  0  0  0
   58.8029   35.8084   44.3643 H   0  0  0  0  0  0  0  0  0  0  0  0
   60.2316   35.6941   46.4021 H   0  0  0  0  0  0  0  0  0  0  0  0
   60.4357   33.5609   47.6655 H   0  0  0  0  0  0  0  0  0  0  0  0
   59.4874   29.6239   43.8226 H   0  0  0  0  0  0  0  0  0  0  0  0
   58.5265   27.5024   42.9307 H   0  0  0  0  0  0  0  0  0  0  0  0
   57.9819   25.6255   44.4776 H   0  0  0  0  0  0  0  0  0  0  0  0
   59.2577   23.4995   45.8183 H   0  0  0  0  0  0  0  0  0  0  0  0
   59.2844   21.9550   43.8681 H   0  0  0  0  0  0  0  0  0  0  0  0
   57.1608   21.3766   42.7003 H   0  0  0  0  0  0  0  0  0  0  0  0
   55.0092   22.3736   43.4537 H   0  0  0  0  0  0  0  0  0  0  0  0
   53.6080   26.3510   45.9390 H   0  0  0  0  0  0  0  0  0  0  0  0
   59.3495   27.9934   47.8328 H   0  0  0  0  0  0  0  0  0  0  0  0
  1  2  1  0
  2  3  1  0
  3  4  2  0
  3  5  1  0
  5  6  2  0
  6  7  1  0
  7  8  2  0
  8  9  1  0
  9 10  2  0
 10 11  1  0
 11 12  2  0
 11 13  1  0
 13 14  1  0
 14 15  2  0
 15 16  1  0
 16 17  2  0
 17 18  1  0
 18 19  1  0
 19 20  1  0
 20 21  2  0
 20 22  1  0
 22 23  2  0
 23 24  1  0
 24 25  2  0
 25 26  1  0
 26 27  2  0
 27 28  1  0
 28 29  1  0
 28 30  2  0
 28 31  2  0
 18 32  2  0
 10  5  1  0
 32 14  1  0
 27 22  1  0
  1 33  1  0
  1 34  1  0
  1 35  1  0
  6 36  1  0
  7 37  1  0
  8 38  1  0
  9 39  1  0
 15 40  1  0
 16 41  1  0
 17 42  1  0
 23 43  1  0
 24 44  1  0
 25 45  1  0
 26 46  1  0
 29 47  1  0
 32 48  1  0
M  CHG  3  13  -1  19  -1  29  -1
M  END
>  <UniqueID>  (90) 
84

>  <SMILES>  (90) 
COC(=O)c1ccccc1C(=O)[N-]c1cccc([N-]C(=O)c2ccccc2S([NH-])(=O)=O)c1

>  <Energy>  (90) 
70.55713779549824

>  <Genealogy>  (90) 
COC(=O)c1ccccc1C(=O)[N-]c1cccc([N-]C(=O)c2ccccc2S([NH-])(=O)=O)c1 (protonated)
COC(=O)c1ccccc1C(=O)[N-]c1cccc([N-]C(=O)c2ccccc2S([NH-])(=O)=O)c1 (3D coordinates assigned)
COC(=O)c1ccccc1C(=O)[N-]c1cccc([N-]C(=O)c2ccccc2S([NH-])(=O)=O)c1 (optimized conformer: 70.55713779549824 kcal/mol)

>  <smiles>  (90) 
COC(=O)c1ccccc1C(=O)Nc1cccc(NC(=O)c2ccccc2S(N)(=O)=O)c1

>  <score_type>  (90) 
oracle

>  <origin>  (90) 
adg

>  <m_score__min__energy>  (90) 
-14.35

>  <m_primary>  (90) 
energy

$$$$
90:0
     RDKit          3D

 57 60  0  0  0  0  0  0  0  0999 V2000
   63.0999   31.1816   50.6421 H   0  0  0  0  0  0  0  0  0  0  0  0
   62.6670   31.2010   49.6310 C   0  0  0  0  0  0  0  0  0  0  0  0
   61.6430   30.3650   49.3130 N   0  0  0  0  0  0  0  0  0  0  0  0
   61.0780   30.3570   48.0720 C   0  0  0  0  0  0  0  0  0  0  0  0
   60.1080   29.5400   47.7880 N   0  0  0  0  0  0  0  0  0  0  0  0
   59.5800   29.1900   46.1720 S   0  0  0  0  0  0  0  0  0  0  0  0
   60.7390   28.6630   45.3740 O   0  0  0  0  0  0  0  0  0  0  0  0
   59.0820   30.4570   45.5340 O   0  0  0  0  0  0  0  0  0  0  0  0
   58.3090   27.9650   46.2130 C   0  0  0  0  0  0  0  0  0  0  0  0
   58.5630   26.7000   46.7420 C   0  0  0  0  0  0  0  0  0  0  0  0
   59.5510   26.4746   47.1698 H   0  0  0  0  0  0  0  0  0  0  0  0
   57.5730   25.7200   46.7320 C   0  0  0  0  0  0  0  0  0  0  0  0
   57.7786   24.7243   47.1520 H   0  0  0  0  0  0  0  0  0  0  0  0
   56.3040   26.0080   46.1810 C   0  0  0  0  0  0  0  0  0  0  0  0
   55.3110   25.1530   46.1210 N   0  0  0  0  0  0  0  0  0  0  0  0
   55.0400   23.8160   45.5570 C   0  0  0  0  0  0  0  0  0  0  0  0
   55.0874   23.3300   46.5427 H   0  0  0  0  0  0  0  0  0  0  0  0
   55.6070   23.5030   44.1870 C   0  0  0  0  0  0  0  0  0  0  0  0
   56.2169   24.2507   43.6588 H   0  0  0  0  0  0  0  0  0  0  0  0
   56.2288   22.7000   43.7645 H   0  0  0  0  0  0  0  0  0  0  0  0
   54.1000   23.7310   44.3720 C   0  0  0  0  0  0  0  0  0  0  0  0
   53.6278   24.6424   43.9766 H   0  0  0  0  0  0  0  0  0  0  0  0
   53.1898   23.1596   44.1374 H   0  0  0  0  0  0  0  0  0  0  0  0
   56.0860   27.2600   45.6760 N   0  0  0  0  0  0  0  0  0  0  0  0
   55.1450   27.4670   45.2720 H   0  0  0  0  0  0  0  0  0  0  0  0
   57.0430   28.2370   45.6820 C   0  0  0  0  0  0  0  0  0  0  0  0
   56.7920   29.5160   45.1660 O   0  0  0  0  0  0  0  0  0  0  0  0
   56.7130   29.8380   43.7810 C   0  0  0  0  0  0  0  0  0  0  0  0
   55.7142   29.5806   43.3986 H   0  0  0  0  0  0  0  0  0  0  0  0
   57.4704   29.2683   43.2225 H   0  0  0  0  0  0  0  0  0  0  0  0
   56.9580   31.3300   43.6060 C   0  0  0  0  0  0  0  0  0  0  0  0
   56.3042   31.7176   42.8108 H   0  0  0  0  0  0  0  0  0  0  0  0
   58.0101   31.4979   43.3322 H   0  0  0  0  0  0  0  0  0  0  0  0
   56.6650   32.0260   44.8600 N   0  0  0  0  0  0  0  0  0  0  0  0
   57.6010   33.4870   44.9730 S   0  0  0  0  0  0  0  0  0  0  0  0
   56.7060   34.6920   44.8730 O   0  0  0  0  0  0  0  0  0  0  0  0
   58.5850   33.5300   43.8390 O   0  0  0  0  0  0  0  0  0  0  0  0
   58.4710   33.5060   46.5050 C   0  0  0  0  0  0  0  0  0  0  0  0
   58.1300   32.6000   47.5190 C   0  0  0  0  0  0  0  0  0  0  0  0
   57.3469   31.8484   47.3407 H   0  0  0  0  0  0  0  0  0  0  0  0
   58.7800   32.6470   48.7550 C   0  0  0  0  0  0  0  0  0  0  0  0
   58.5119   31.9276   49.5428 H   0  0  0  0  0  0  0  0  0  0  0  0
   59.7730   33.6080   48.9950 C   0  0  0  0  0  0  0  0  0  0  0  0
   60.4880   33.6420   50.3130 C   0  0  0  0  0  0  0  0  0  0  0  0
   59.7525   33.6070   51.1302 H   0  0  0  0  0  0  0  0  0  0  0  0
   61.1606   32.7748   50.3877 H   0  0  0  0  0  0  0  0  0  0  0  0
   61.0753   34.5691   50.3877 H   0  0  0  0  0  0  0  0  0  0  0  0
   60.1330   34.4970   47.9710 C   0  0  0  0  0  0  0  0  0  0  0  0
   60.9317   35.2340   48.1411 H   0  0  0  0  0  0  0  0  0  0  0  0
   59.4810   34.4500   46.7360 C   0  0  0  0  0  0  0  0  0  0  0  0
   59.7617   35.1571   45.9415 H   0  0  0  0  0  0  0  0  0  0  0  0
   61.5550   31.2310   47.0890 C   0  0  0  0  0  0  0  0  0  0  0  0
   61.1058   31.2360   46.0849 H   0  0  0  0  0  0  0  0  0  0  0  0
   62.6070   32.0970   47.3950 C   0  0  0  0  0  0  0  0  0  0  0  0
   62.9920   32.7876   46.6303 H   0  0  0  0  0  0  0  0  0  0  0  0
   63.1690   32.0850   48.6720 C   0  0  0  0  0  0  0  0  0  0  0  0
   64.1910   32.9210   48.9800 F   0  0  0  0  0  0  0  0  0  0  0  0
  1  2  1  0
  2  3  1  0
  3  4  1  0
  4  5  2  0
  5  6  1  0
  6  7  2  0
  6  8  2  0
  6  9  1  0
  9 10  1  0
 10 11  1  0
 10 12  2  0
 12 13  1  0
 12 14  1  0
 14 15  2  3
 15 16  1  0
 16 17  1  0
 16 18  1  0
 18 19  1  0
 18 20  1  0
 18 21  1  0
 21 22  1  0
 21 23  1  0
 14 24  1  0
 24 25  1  0
 24 26  1  0
 26 27  1  0
 27 28  1  0
 28 29  1  0
 28 30  1  0
 28 31  1  0
 31 32  1  0
 31 33  1  0
 31 34  1  0
 34 35  1  0
 35 36  2  0
 35 37  2  0
 35 38  1  0
 38 39  2  0
 39 40  1  0
 39 41  1  0
 41 42  1  0
 41 43  2  0
 43 44  1  0
 44 45  1  0
 44 46  1  0
 44 47  1  0
 43 48  1  0
 48 49  1  0
 48 50  2  0
 50 51  1  0
  4 52  1  0
 52 53  1  0
 52 54  2  0
 54 55  1  0
 54 56  1  0
 56 57  1  0
 56  2  2  0
 26  9  2  0
 50 38  1  0
 21 16  1  0
M  CHG  2   3  -1  34  -1
M  END
>  <UniqueID>  (91) 
85

>  <SMILES>  (91) 
Cc1ccc(S(=O)(=O)[N-]CCOc2[nH]c(=NC3CC3)ccc2S(=O)(=O)/N=c2/ccc(F)c[n-]2)cc1

>  <Energy>  (91) 
338.4156278724149

>  <Genealogy>  (91) 
Cc1ccc(S(=O)(=O)[N-]CCOc2[nH]c(=NC3CC3)ccc2S(=O)(=O)N=c2ccc(F)c[n-]2)cc1 (protonated)
Cc1ccc(S(=O)(=O)[N-]CCOc2[nH]c(=NC3CC3)ccc2S(=O)(=O)/N=c2/ccc(F)c[n-]2)cc1 (cis-trans isomerization)
Cc1ccc(S(=O)(=O)[N-]CCOc2[nH]c(=NC3CC3)ccc2S(=O)(=O)/N=c2/ccc(F)c[n-]2)cc1 (3D coordinates assigned)
Cc1ccc(S(=O)(=O)[N-]CCOc2[nH]c(=NC3CC3)ccc2S(=O)(=O)/N=c2/ccc(F)c[n-]2)cc1 (nonaromatic ring conformer: 338.4156278724149 kcal/mol)

>  <smiles>  (91) 
Cc1ccc(S(=O)(=O)NCCOc2[nH]c(=NC3CC3)ccc2S(=O)(=O)N=c2ccc(F)c[nH]2)cc1

>  <score_type>  (91) 
oracle

>  <origin>  (91) 
adg

>  <m_score__min__energy>  (91) 
-12.07

>  <m_primary>  (91) 
energy

$$$$
91:0
     RDKit          3D

 35 37  0  0  0  0  0  0  0  0999 V2000
   59.9440   30.8240   48.1820 O   0  0  0  0  0  0  0  0  0  0  0  0
   60.9820   30.8590   47.4650 C   0  0  0  0  0  0  0  0  0  0  0  0
   61.1000   29.9840   46.3290 N   0  0  0  0  0  0  0  0  0  0  0  0
   59.9910   29.2920   45.7290 C   0  0  0  0  0  0  0  0  0  0  0  0
   60.0630   27.9020   45.5500 C   0  0  0  0  0  0  0  0  0  0  0  0
   59.0090   27.2100   44.9480 C   0  0  0  0  0  0  0  0  0  0  0  0
   57.8800   27.9010   44.5030 C   0  0  0  0  0  0  0  0  0  0  0  0
   57.8050   29.2920   44.6490 C   0  0  0  0  0  0  0  0  0  0  0  0
   56.3970   30.1740   44.0620 S   0  0  0  0  0  0  0  0  0  0  0  0
   56.5040   30.4090   42.5810 O   0  0  0  0  0  0  0  0  0  0  0  0
   55.1630   29.3660   44.3440 O   0  0  0  0  0  0  0  0  0  0  0  0
   56.2730   31.7050   44.8680 N   0  0  0  0  0  0  0  0  0  0  0  0
   57.2870   32.4920   45.0470 C   0  0  0  0  0  0  0  0  0  0  0  0
   57.6960   32.9350   46.2550 N   0  0  0  0  0  0  0  0  0  0  0  0
   58.7770   33.7520   46.1430 C   0  0  0  0  0  0  0  0  0  0  0  0
   59.2270   33.9600   44.8440 C   0  0  0  0  0  0  0  0  0  0  0  0
   58.2360   33.0890   43.7980 S   0  0  0  0  0  0  0  0  0  0  0  0
   58.8600   29.9850   45.2600 C   0  0  0  0  0  0  0  0  0  0  0  0
   62.0880   31.7750   47.8180 C   0  0  0  0  0  0  0  0  0  0  0  0
   62.2990   32.9680   47.1030 C   0  0  0  0  0  0  0  0  0  0  0  0
   63.3560   33.8080   47.4620 C   0  0  0  0  0  0  0  0  0  0  0  0
   64.1930   33.4570   48.5220 C   0  0  0  0  0  0  0  0  0  0  0  0
   63.9590   32.2640   49.2090 C   0  0  0  0  0  0  0  0  0  0  0  0
   62.9250   31.4600   48.8460 N   0  0  0  0  0  0  0  0  0  0  0  0
   62.0570   29.7750   45.9630 H   0  0  0  0  0  0  0  0  0  0  0  0
   60.9553   27.3535   45.8859 H   0  0  0  0  0  0  0  0  0  0  0  0
   59.0686   26.1186   44.8243 H   0  0  0  0  0  0  0  0  0  0  0  0
   57.0484   27.3521   44.0371 H   0  0  0  0  0  0  0  0  0  0  0  0
   59.2602   34.2146   47.0162 H   0  0  0  0  0  0  0  0  0  0  0  0
   60.0828   34.5856   44.5504 H   0  0  0  0  0  0  0  0  0  0  0  0
   58.8029   31.0777   45.3733 H   0  0  0  0  0  0  0  0  0  0  0  0
   61.6365   33.2375   46.2673 H   0  0  0  0  0  0  0  0  0  0  0  0
   63.5281   34.7440   46.9104 H   0  0  0  0  0  0  0  0  0  0  0  0
   65.0272   34.1123   48.8129 H   0  0  0  0  0  0  0  0  0  0  0  0
   64.6125   31.9745   50.0452 H   0  0  0  0  0  0  0  0  0  0  0  0
  1  2  2  0
  2  3  1  0
  3  4  1  0
  4  5  2  0
  5  6  1  0
  6  7  2  0
  7  8  1  0
  8  9  1  0
  9 10  2  0
  9 11  2  0
  9 12  1  0
 12 13  2  3
 13 14  1  0
 14 15  1  0
 15 16  2  0
 16 17  1  0
  8 18  2  0
  2 19  1  0
 19 20  2  0
 20 21  1  0
 21 22  2  0
 22 23  1  0
 23 24  2  0
 18  4  1  0
 24 19  1  0
 17 13  1  0
  3 25  1  0
  5 26  1  0
  6 27  1  0
  7 28  1  0
 15 29  1  0
 16 30  1  0
 18 31  1  0
 20 32  1  0
 21 33  1  0
 22 34  1  0
 23 35  1  0
M  CHG  1  14  -1
M  END
>  <UniqueID>  (92) 
86

>  <SMILES>  (92) 
O=C(Nc1cccc(S(=O)(=O)N=c2[n-]ccs2)c1)c1ccccn1

>  <Energy>  (92) 
74.66401768884933

>  <Genealogy>  (92) 
O=C(Nc1cccc(S(=O)(=O)N=c2[n-]ccs2)c1)c1ccccn1 (protonated)
O=C(Nc1cccc(S(=O)(=O)N=c2[n-]ccs2)c1)c1ccccn1 (3D coordinates assigned)
O=C(Nc1cccc(S(=O)(=O)N=c2[n-]ccs2)c1)c1ccccn1 (optimized conformer: 74.66401768884933 kcal/mol)

>  <smiles>  (92) 
O=C(Nc1cccc(S(=O)(=O)N=c2[nH]ccs2)c1)c1ccccn1

>  <score_type>  (92) 
oracle

>  <origin>  (92) 
adg

>  <m_score__min__energy>  (92) 
-10.08

>  <m_primary>  (92) 
energy

$$$$
92:0
     RDKit          3D

 31 32  0  0  0  0  0  0  0  0999 V2000
   54.3950   24.0900   45.7180 C   0  0  0  0  0  0  0  0  0  0  0  0
   55.5760   23.3650   45.1420 C   0  0  0  0  0  0  0  0  0  0  0  0
   55.4240   22.7490   43.9400 N   0  0  0  0  0  0  0  0  0  0  0  0
   56.4560   22.0980   43.3510 C   0  0  0  0  0  0  0  0  0  0  0  0
   56.2900   21.5390   42.2360 O   0  0  0  0  0  0  0  0  0  0  0  0
   57.6390   22.0490   43.9440 O   0  0  0  0  0  0  0  0  0  0  0  0
   57.8640   22.6190   45.1220 C   0  0  0  0  0  0  0  0  0  0  0  0
   59.0100   22.5160   45.6360 O   0  0  0  0  0  0  0  0  0  0  0  0
   56.8320   23.3110   45.7900 C   0  0  0  0  0  0  0  0  0  0  0  0
   57.0780   23.9440   47.1130 C   0  0  0  0  0  0  0  0  0  0  0  0
   57.3830   23.2340   48.1080 O   0  0  0  0  0  0  0  0  0  0  0  0
   56.9240   25.3630   47.2620 N   0  0  0  0  0  0  0  0  0  0  0  0
   57.6310   26.3810   46.5390 C   0  0  0  0  0  0  0  0  0  0  0  0
   59.0330   26.3730   46.4160 C   0  0  0  0  0  0  0  0  0  0  0  0
   59.6790   27.3680   45.6780 C   0  0  0  0  0  0  0  0  0  0  0  0
   58.9360   28.3700   45.0490 C   0  0  0  0  0  0  0  0  0  0  0  0
   57.5390   28.3790   45.1500 C   0  0  0  0  0  0  0  0  0  0  0  0
   56.5980   29.6210   44.3310 S   0  0  0  0  0  0  0  0  0  0  0  0
   57.0150   29.6540   42.6540 N   0  0  0  0  0  0  0  0  0  0  0  0
   56.8830   30.9630   44.9440 O   0  0  0  0  0  0  0  0  0  0  0  0
   55.1310   29.3270   44.4770 O   0  0  0  0  0  0  0  0  0  0  0  0
   56.8920   27.3740   45.8830 C   0  0  0  0  0  0  0  0  0  0  0  0
   54.4457   24.0589   46.8164 H   0  0  0  0  0  0  0  0  0  0  0  0
   54.4067   25.1367   45.3799 H   0  0  0  0  0  0  0  0  0  0  0  0
   53.4669   23.6058   45.3799 H   0  0  0  0  0  0  0  0  0  0  0  0
   59.6218   25.5812   46.9022 H   0  0  0  0  0  0  0  0  0  0  0  0
   60.7756   27.3624   45.5920 H   0  0  0  0  0  0  0  0  0  0  0  0
   59.4494   29.1539   44.4729 H   0  0  0  0  0  0  0  0  0  0  0  0
   57.8590   30.2610   42.5610 H   0  0  0  0  0  0  0  0  0  0  0  0
   57.3110   28.6870   42.3940 H   0  0  0  0  0  0  0  0  0  0  0  0
   55.7937   27.3652   45.9435 H   0  0  0  0  0  0  0  0  0  0  0  0
  1  2  1  0
  2  3  1  0
  3  4  1  0
  4  5  2  0
  4  6  1  0
  6  7  1  0
  7  8  2  0
  7  9  1  0
  9 10  1  0
 10 11  2  0
 10 12  1  0
 12 13  1  0
 13 14  2  0
 14 15  1  0
 15 16  2  0
 16 17  1  0
 17 18  1  0
 18 19  1  0
 18 20  2  0
 18 21  2  0
 17 22  2  0
  9  2  2  0
 22 13  1  0
  1 23  1  0
  1 24  1  0
  1 25  1  0
 14 26  1  0
 15 27  1  0
 16 28  1  0
 19 29  1  0
 19 30  1  0
 22 31  1  0
M  CHG  2   3  -1  12  -1
M  END
>  <UniqueID>  (93) 
87

>  <SMILES>  (93) 
Cc1[n-]c(=O)oc(=O)c1C(=O)[N-]c1cccc(S(N)(=O)=O)c1

>  <Energy>  (93) 
40.53735276005621

>  <Genealogy>  (93) 
Cc1[n-]c(=O)oc(=O)c1C(=O)[N-]c1cccc(S(N)(=O)=O)c1 (protonated)
Cc1[n-]c(=O)oc(=O)c1C(=O)[N-]c1cccc(S(N)(=O)=O)c1 (3D coordinates assigned)
Cc1[n-]c(=O)oc(=O)c1C(=O)[N-]c1cccc(S(N)(=O)=O)c1 (optimized conformer: 40.53735276005621 kcal/mol)

>  <smiles>  (93) 
Cc1[nH]c(=O)oc(=O)c1C(=O)Nc1cccc(S(N)(=O)=O)c1

>  <score_type>  (93) 
oracle

>  <origin>  (93) 
adg

>  <m_score__min__energy>  (93) 
-11.52

>  <m_primary>  (93) 
energy

$$$$
93:0
     RDKit          3D

 45 47  0  0  0  0  0  0  0  0999 V2000
   59.3940   36.0010   44.7520 O   0  0  0  0  0  0  0  0  0  0  0  0
   59.3860   34.9040   45.2920 C   0  0  0  0  0  0  0  0  0  0  0  0
   58.8620   33.7010   44.5550 C   0  0  0  0  0  0  0  0  0  0  0  0
   57.9930   32.8470   45.4980 C   0  0  1  0  0  0  0  0  0  0  0  0
   57.7890   31.4550   44.9370 C   0  0  0  0  0  0  0  0  0  0  0  0
   58.7040   30.4200   45.2180 C   0  0  0  0  0  0  0  0  0  0  0  0
   58.5130   29.1440   44.6790 C   0  0  0  0  0  0  0  0  0  0  0  0
   57.4170   28.8880   43.8520 C   0  0  0  0  0  0  0  0  0  0  0  0
   56.5110   29.9100   43.5580 C   0  0  0  0  0  0  0  0  0  0  0  0
   56.6950   31.1880   44.0940 C   0  0  0  0  0  0  0  0  0  0  0  0
   58.5810   32.7990   46.8940 C   0  0  0  0  0  0  0  0  0  0  0  0
   57.8710   32.4140   47.8140 O   0  0  0  0  0  0  0  0  0  0  0  0
   59.9250   33.3250   47.1310 N   0  0  2  0  0  0  0  0  0  0  0  0
   60.3830   33.1340   48.5490 C   0  0  0  0  0  0  0  0  0  0  0  0
   61.5320   34.1200   48.9270 C   0  0  0  0  0  0  0  0  0  0  0  0
   62.7560   34.1220   47.9970 C   0  0  0  0  0  0  0  0  0  0  0  0
   63.8920   33.1880   48.4450 C   0  0  0  0  0  0  0  0  0  0  0  0
   63.4780   31.7380   48.7870 C   0  0  0  0  0  0  0  0  0  0  0  0
   62.1880   31.2410   48.1090 C   0  0  0  0  0  0  0  0  0  0  0  0
   60.8480   31.6590   48.7760 C   0  0  0  0  0  0  0  0  0  0  0  0
   59.9330   34.7470   46.6950 C   0  0  0  0  0  0  0  0  0  0  0  0
   58.2549   34.0328   43.6999 H   0  0  0  0  0  0  0  0  0  0  0  0
   59.7093   33.0977   44.1971 H   0  0  0  0  0  0  0  0  0  0  0  0
   57.0055   33.3260   45.5721 H   0  0  0  0  0  0  0  0  0  0  0  0
   59.5721   30.6171   45.8642 H   0  0  0  0  0  0  0  0  0  0  0  0
   59.2279   28.3396   44.9069 H   0  0  0  0  0  0  0  0  0  0  0  0
   57.2672   27.8823   43.4324 H   0  0  0  0  0  0  0  0  0  0  0  0
   55.6505   29.7086   42.9030 H   0  0  0  0  0  0  0  0  0  0  0  0
   55.9802   31.9893   43.8552 H   0  0  0  0  0  0  0  0  0  0  0  0
   60.5890   32.8000   46.5130 H   0  0  0  0  0  0  0  0  0  0  0  0
   59.5258   33.3511   49.2033 H   0  0  0  0  0  0  0  0  0  0  0  0
   61.1133   35.1372   48.9333 H   0  0  0  0  0  0  0  0  0  0  0  0
   61.9044   33.7784   49.9041 H   0  0  0  0  0  0  0  0  0  0  0  0
   62.4278   33.8092   46.9948 H   0  0  0  0  0  0  0  0  0  0  0  0
   63.1630   35.1438   48.0138 H   0  0  0  0  0  0  0  0  0  0  0  0
   64.6328   33.1445   47.6330 H   0  0  0  0  0  0  0  0  0  0  0  0
   64.2781   33.6164   49.3817 H   0  0  0  0  0  0  0  0  0  0  0  0
   64.2987   31.0708   48.4849 H   0  0  0  0  0  0  0  0  0  0  0  0
   63.2748   31.7283   49.8680 H   0  0  0  0  0  0  0  0  0  0  0  0
   62.1826   31.6258   47.0785 H   0  0  0  0  0  0  0  0  0  0  0  0
   62.2222   30.1443   48.1873 H   0  0  0  0  0  0  0  0  0  0  0  0
   60.0606   30.9972   48.3862 H   0  0  0  0  0  0  0  0  0  0  0  0
   61.0241   31.5739   49.8585 H   0  0  0  0  0  0  0  0  0  0  0  0
   59.3136   35.3360   47.3874 H   0  0  0  0  0  0  0  0  0  0  0  0
   60.9742   35.1019   46.6996 H   0  0  0  0  0  0  0  0  0  0  0  0
  1  2  2  0
  2  3  1  0
  3  4  1  0
  4  5  1  0
  5  6  2  0
  6  7  1  0
  7  8  2  0
  8  9  1  0
  9 10  2  0
  4 11  1  0
 11 12  2  0
 11 13  1  0
 13 14  1  0
 14 15  1  0
 15 16  1  0
 16 17  1  0
 17 18  1  0
 18 19  1  0
 19 20  1  0
 13 21  1  0
 21  2  1  0
 10  5  1  0
 20 14  1  0
  3 22  1  0
  3 23  1  0
  4 24  1  1
  6 25  1  0
  7 26  1  0
  8 27  1  0
  9 28  1  0
 10 29  1  0
 13 30  1  6
 14 31  1  0
 15 32  1  0
 15 33  1  0
 16 34  1  0
 16 35  1  0
 17 36  1  0
 17 37  1  0
 18 38  1  0
 18 39  1  0
 19 40  1  0
 19 41  1  0
 20 42  1  0
 20 43  1  0
 21 44  1  0
 21 45  1  0
M  CHG  1  13   1
M  END
>  <UniqueID>  (94) 
88

>  <SMILES>  (94) 
O=C1C[C@@H](c2ccccc2)C(=O)[N@H+](C2CCCCCC2)C1

>  <Energy>  (94) 
66.84400907777848

>  <Genealogy>  (94) 
O=C1CC(c2ccccc2)C(=O)[NH+](C2CCCCCC2)C1 (protonated)
O=C1C[C@@H](c2ccccc2)C(=O)[N@H+](C2CCCCCC2)C1 (chirality)
O=C1C[C@@H](c2ccccc2)C(=O)[N@H+](C2CCCCCC2)C1 (3D coordinates assigned)
O=C1C[C@@H](c2ccccc2)C(=O)[N@H+](C2CCCCCC2)C1 (nonaromatic ring conformer: 66.84400907777848 kcal/mol)

>  <smiles>  (94) 
O=C1CC(c2ccccc2)C(=O)N(C2CCCCCC2)C1

>  <score_type>  (94) 
oracle

>  <origin>  (94) 
adg

>  <m_score__min__energy>  (94) 
-4.7699999999999996

>  <m_primary>  (94) 
energy

$$$$
94:0
     RDKit          3D

 38 38  0  0  0  0  0  0  0  0999 V2000
   63.2540   31.7420   47.5970 C   0  0  0  0  0  0  0  0  0  0  0  0
   63.2420   33.5000   47.8760 S   0  0  0  0  0  0  0  0  0  0  0  0
   63.7480   34.2280   46.6620 O   0  0  0  0  0  0  0  0  0  0  0  0
   64.1480   33.8060   49.0350 O   0  0  0  0  0  0  0  0  0  0  0  0
   61.6390   34.0330   48.2660 N   0  0  0  0  0  0  0  0  0  0  0  0
   60.4750   33.8620   47.4480 C   0  0  0  0  0  0  0  0  0  0  0  0
   60.0810   34.8160   46.4920 C   0  0  0  0  0  0  0  0  0  0  0  0
   58.9570   34.5900   45.6920 C   0  0  0  0  0  0  0  0  0  0  0  0
   58.2050   33.4140   45.8380 C   0  0  0  0  0  0  0  0  0  0  0  0
   57.0600   33.1220   44.8990 C   0  0  0  0  0  0  0  0  0  0  0  0
   57.5170   32.3170   43.6740 C   0  0  0  0  0  0  0  0  0  0  0  0
   56.8210   30.9910   43.5960 C   0  0  0  0  0  0  0  0  0  0  0  0
   56.8030   30.3470   42.5120 O   0  0  0  0  0  0  0  0  0  0  0  0
   56.2710   30.4250   44.7860 N   0  0  0  0  0  0  0  0  0  0  0  0
   55.9320   29.0160   44.9250 C   0  0  0  0  0  0  0  0  0  0  0  0
   57.1920   28.2030   45.2200 C   0  0  0  0  0  0  0  0  0  0  0  0
   56.8160   26.5720   45.8530 S   0  0  0  0  0  0  0  0  0  0  0  0
   55.1050   26.3580   45.9770 N   0  0  0  0  0  0  0  0  0  0  0  0
   57.3710   25.5430   44.9080 O   0  0  0  0  0  0  0  0  0  0  0  0
   57.4450   26.3860   47.2050 O   0  0  0  0  0  0  0  0  0  0  0  0
   58.5900   32.4700   46.8010 C   0  0  0  0  0  0  0  0  0  0  0  0
   59.7120   32.6960   47.6020 C   0  0  0  0  0  0  0  0  0  0  0  0
   63.2576   31.2173   48.5638 H   0  0  0  0  0  0  0  0  0  0  0  0
   62.3578   31.4550   47.0274 H   0  0  0  0  0  0  0  0  0  0  0  0
   64.1540   31.4673   47.0274 H   0  0  0  0  0  0  0  0  0  0  0  0
   60.6599   35.7438   46.3735 H   0  0  0  0  0  0  0  0  0  0  0  0
   58.6600   35.3389   44.9431 H   0  0  0  0  0  0  0  0  0  0  0  0
   56.2952   32.5447   45.4391 H   0  0  0  0  0  0  0  0  0  0  0  0
   56.6551   34.0817   44.5453 H   0  0  0  0  0  0  0  0  0  0  0  0
   57.2921   32.8926   42.7640 H   0  0  0  0  0  0  0  0  0  0  0  0
   58.5979   32.1343   43.7651 H   0  0  0  0  0  0  0  0  0  0  0  0
   55.2170   28.8930   45.7518 H   0  0  0  0  0  0  0  0  0  0  0  0
   55.4822   28.6581   43.9871 H   0  0  0  0  0  0  0  0  0  0  0  0
   57.7701   28.0969   44.2902 H   0  0  0  0  0  0  0  0  0  0  0  0
   57.7652   28.7390   45.9909 H   0  0  0  0  0  0  0  0  0  0  0  0
   54.7450   27.0830   46.6370 H   0  0  0  0  0  0  0  0  0  0  0  0
   58.0054   31.5467   46.9263 H   0  0  0  0  0  0  0  0  0  0  0  0
   59.9993   31.9526   48.3602 H   0  0  0  0  0  0  0  0  0  0  0  0
  1  2  1  0
  2  3  2  0
  2  4  2  0
  2  5  1  0
  5  6  1  0
  6  7  2  0
  7  8  1  0
  8  9  2  0
  9 10  1  0
 10 11  1  0
 11 12  1  0
 12 13  2  0
 12 14  1  0
 14 15  1  0
 15 16  1  0
 16 17  1  0
 17 18  1  0
 17 19  2  0
 17 20  2  0
  9 21  1  0
 21 22  2  0
 22  6  1  0
  1 23  1  0
  1 24  1  0
  1 25  1  0
  7 26  1  0
  8 27  1  0
 10 28  1  0
 10 29  1  0
 11 30  1  0
 11 31  1  0
 15 32  1  0
 15 33  1  0
 16 34  1  0
 16 35  1  0
 18 36  1  0
 21 37  1  0
 22 38  1  0
M  CHG  3   5  -1  14  -1  18  -1
M  END
>  <UniqueID>  (95) 
89

>  <SMILES>  (95) 
CS(=O)(=O)[N-]c1ccc(CCC(=O)[N-]CCS([NH-])(=O)=O)cc1

>  <Energy>  (95) 
19.40575437182104

>  <Genealogy>  (95) 
CS(=O)(=O)[N-]c1ccc(CCC(=O)[N-]CCS([NH-])(=O)=O)cc1 (protonated)
CS(=O)(=O)[N-]c1ccc(CCC(=O)[N-]CCS([NH-])(=O)=O)cc1 (3D coordinates assigned)
CS(=O)(=O)[N-]c1ccc(CCC(=O)[N-]CCS([NH-])(=O)=O)cc1 (optimized conformer: 19.40575437182104 kcal/mol)

>  <smiles>  (95) 
CS(=O)(=O)Nc1ccc(CCC(=O)NCCS(N)(=O)=O)cc1

>  <score_type>  (95) 
oracle

>  <origin>  (95) 
adg

>  <m_score__min__energy>  (95) 
-13.640000000000001

>  <m_primary>  (95) 
energy

$$$$
95:0
     RDKit          3D

 34 36  0  0  0  0  0  0  0  0999 V2000
   55.3730   30.7550   44.1140 O   0  0  0  0  0  0  0  0  0  0  0  0
   56.1470   30.0130   44.7730 C   0  0  0  0  0  0  0  0  0  0  0  0
   55.6560   28.7510   45.2490 N   0  0  0  0  0  0  0  0  0  0  0  0
   56.4580   27.6200   45.6190 C   0  0  0  0  0  0  0  0  0  0  0  0
   57.8620   27.7000   45.6510 C   0  0  0  0  0  0  0  0  0  0  0  0
   58.6220   26.5820   46.0080 C   0  0  0  0  0  0  0  0  0  0  0  0
   57.9880   25.3850   46.3530 C   0  0  0  0  0  0  0  0  0  0  0  0
   56.5940   25.3080   46.3520 C   0  0  0  0  0  0  0  0  0  0  0  0
   55.8280   26.4230   45.9920 C   0  0  0  0  0  0  0  0  0  0  0  0
   54.4400   26.3330   45.9940 O   0  0  0  0  0  0  0  0  0  0  0  0
   57.4910   30.4540   45.0170 N   0  0  0  0  0  0  0  0  0  0  0  0
   57.9040   31.7540   45.4690 C   0  0  0  0  0  0  0  0  0  0  0  0
   57.3750   32.9210   44.8840 C   0  0  0  0  0  0  0  0  0  0  0  0
   57.7550   34.1810   45.3460 C   0  0  0  0  0  0  0  0  0  0  0  0
   58.6410   34.2960   46.4150 C   0  0  0  0  0  0  0  0  0  0  0  0
   59.1390   33.1500   47.0360 C   0  0  0  0  0  0  0  0  0  0  0  0
   58.7760   31.8700   46.5780 C   0  0  0  0  0  0  0  0  0  0  0  0
   59.2760   30.7070   47.2670 N   0  0  0  0  0  0  0  0  0  0  0  0
   60.2140   29.8400   46.8320 C   0  0  0  0  0  0  0  0  0  0  0  0
   60.4480   28.8790   47.7930 C   0  0  0  0  0  0  0  0  0  0  0  0
   59.6240   29.1780   48.8590 C   0  0  0  0  0  0  0  0  0  0  0  0
   58.9200   30.3110   48.5070 C   0  0  0  0  0  0  0  0  0  0  0  0
   58.3635   28.6448   45.3944 H   0  0  0  0  0  0  0  0  0  0  0  0
   59.7202   26.6445   46.0174 H   0  0  0  0  0  0  0  0  0  0  0  0
   58.5874   24.5037   46.6253 H   0  0  0  0  0  0  0  0  0  0  0  0
   56.0963   24.3687   46.6348 H   0  0  0  0  0  0  0  0  0  0  0  0
   56.6560   32.8380   44.0557 H   0  0  0  0  0  0  0  0  0  0  0  0
   57.3543   35.0857   44.8654 H   0  0  0  0  0  0  0  0  0  0  0  0
   58.9482   35.2909   46.7697 H   0  0  0  0  0  0  0  0  0  0  0  0
   59.8224   33.2482   47.8924 H   0  0  0  0  0  0  0  0  0  0  0  0
   60.7175   29.8921   45.8554 H   0  0  0  0  0  0  0  0  0  0  0  0
   61.1538   28.0381   47.7235 H   0  0  0  0  0  0  0  0  0  0  0  0
   59.5442   28.6216   49.8046 H   0  0  0  0  0  0  0  0  0  0  0  0
   58.1784   30.8167   49.1428 H   0  0  0  0  0  0  0  0  0  0  0  0
  1  2  2  0
  2  3  1  0
  3  4  1  0
  4  5  2  0
  5  6  1  0
  6  7  2  0
  7  8  1  0
  8  9  2  0
  9 10  1  0
  2 11  1  0
 11 12  1  0
 12 13  2  0
 13 14  1  0
 14 15  2  0
 15 16  1  0
 16 17  2  0
 17 18  1  0
 18 19  1  0
 19 20  2  0
 20 21  1  0
 21 22  2  0
  9  4  1  0
 17 12  1  0
 22 18  1  0
  5 23  1  0
  6 24  1  0
  7 25  1  0
  8 26  1  0
 13 27  1  0
 14 28  1  0
 15 29  1  0
 16 30  1  0
 19 31  1  0
 20 32  1  0
 21 33  1  0
 22 34  1  0
M  CHG  3   3  -1  10  -1  11  -1
M  END
>  <UniqueID>  (96) 
90

>  <SMILES>  (96) 
O=C([N-]c1ccccc1[O-])[N-]c1ccccc1-n1cccc1

>  <Energy>  (96) 
75.26175690977756

>  <Genealogy>  (96) 
O=C([N-]c1ccccc1[O-])[N-]c1ccccc1-n1cccc1 (protonated)
O=C([N-]c1ccccc1[O-])[N-]c1ccccc1-n1cccc1 (3D coordinates assigned)
O=C([N-]c1ccccc1[O-])[N-]c1ccccc1-n1cccc1 (optimized conformer: 75.26175690977756 kcal/mol)

>  <smiles>  (96) 
O=C(Nc1ccccc1O)Nc1ccccc1-n1cccc1

>  <score_type>  (96) 
oracle

>  <origin>  (96) 
adg

>  <m_score__min__energy>  (96) 
-15.02

>  <m_primary>  (96) 
energy

$$$$
96:0
     RDKit          3D

 43 46  0  0  1  0  0  0  0  0999 V2000
   55.1330   26.7130   45.9870 O   0  0  0  0  0  0  0  0  0  0  0  0
   56.4630   26.4560   46.2650 C   0  0  0  0  0  0  0  0  0  0  0  0
   56.8970   25.1590   46.4070 C   0  0  0  0  0  0  0  0  0  0  0  0
   58.1940   24.8480   46.6800 N   0  0  0  0  0  0  0  0  0  0  0  0
   59.0890   25.8490   46.8180 C   0  0  0  0  0  0  0  0  0  0  0  0
   58.6730   27.1570   46.6790 C   0  0  0  0  0  0  0  0  0  0  0  0
   59.6580   28.1720   46.8340 N   0  0  0  0  0  0  0  0  0  0  0  0
   59.3200   29.3850   46.5850 C   0  0  0  0  0  0  0  0  0  0  0  0
   59.3710   30.3380   47.5490 N   0  0  0  0  0  0  0  0  0  0  0  0
   59.0400   31.6050   47.3690 C   0  0  0  0  0  0  0  0  0  0  0  0
   59.0750   32.4290   48.2950 N   0  0  0  0  0  0  0  0  0  0  0  0
   59.9620   33.0130   49.0990 C   0  0  0  0  0  0  0  0  0  0  0  0
   61.2750   33.0350   48.3360 C   0  0  0  0  0  0  0  0  0  0  0  0
   62.3550   32.2680   48.7070 C   0  0  0  0  0  0  0  0  0  0  0  0
   63.5610   32.2600   48.0520 C   0  0  0  0  0  0  0  0  0  0  0  0
   63.7160   33.0630   46.9530 C   0  0  0  0  0  0  0  0  0  0  0  0
   62.6590   33.8480   46.5480 C   0  0  0  0  0  0  0  0  0  0  0  0
   61.4400   33.8430   47.2280 C   0  0  0  0  0  0  0  0  0  0  0  0
   58.6100   32.0390   46.1340 C   0  0  0  0  0  0  0  0  0  0  0  0
   58.2840   33.3440   45.9730 C   0  0  0  0  0  0  0  0  0  0  0  0
   57.8520   33.7140   44.6770 C   0  0  0  0  0  0  0  0  0  0  0  0
   57.8000   32.7510   43.7170 C   0  0  0  0  0  0  0  0  0  0  0  0
   58.1390   31.4290   43.9020 C   0  0  0  0  0  0  0  0  0  0  0  0
   58.5570   31.0690   45.1510 C   0  0  0  0  0  0  0  0  0  0  0  0
   58.9000   29.7890   45.3730 N   0  0  0  0  0  0  0  0  0  0  0  0
   57.3630   27.4950   46.4020 C   0  0  0  0  0  0  0  0  0  0  0  0
   54.4010   26.3310   46.5720 H   0  0  0  0  0  0  0  0  0  0  0  0
   56.1689   24.3420   46.2958 H   0  0  0  0  0  0  0  0  0  0  0  0
   60.1425   25.6234   47.0397 H   0  0  0  0  0  0  0  0  0  0  0  0
   59.6990   30.0030   48.4840 H   0  0  0  0  0  0  0  0  0  0  0  0
   59.6428   34.0381   49.3384 H   0  0  0  0  0  0  0  0  0  0  0  0
   60.0600   32.4692   50.0501 H   0  0  0  0  0  0  0  0  0  0  0  0
   62.2446   31.6177   49.5873 H   0  0  0  0  0  0  0  0  0  0  0  0
   64.3859   31.6221   48.4022 H   0  0  0  0  0  0  0  0  0  0  0  0
   64.6686   33.0806   46.4032 H   0  0  0  0  0  0  0  0  0  0  0  0
   62.7786   34.4951   45.6665 H   0  0  0  0  0  0  0  0  0  0  0  0
   60.6131   34.4808   46.8824 H   0  0  0  0  0  0  0  0  0  0  0  0
   58.3508   34.0697   46.7969 H   0  0  0  0  0  0  0  0  0  0  0  0
   57.5660   34.7520   44.4518 H   0  0  0  0  0  0  0  0  0  0  0  0
   57.4607   33.0519   42.7149 H   0  0  0  0  0  0  0  0  0  0  0  0
   58.0760   30.6979   43.0825 H   0  0  0  0  0  0  0  0  0  0  0  0
   58.8470   29.0970   44.6150 H   0  0  0  0  0  0  0  0  0  0  0  0
   57.0503   28.5442   46.2953 H   0  0  0  0  0  0  0  0  0  0  0  0
  1  2  1  0
  2  3  2  0
  3  4  1  0
  4  5  2  0
  5  6  1  0
  6  7  1  0
  7  8  2  0
  8  9  1  0
  9 10  1  0
 10 11  2  0
 11 12  1  0
 12 13  1  0
 13 14  2  0
 14 15  1  0
 15 16  2  0
 16 17  1  0
 17 18  2  0
 10 19  1  0
 19 20  2  0
 20 21  1  0
 21 22  2  0
 22 23  1  0
 23 24  2  0
 24 25  1  0
  6 26  2  0
 26  2  1  0
 25  8  1  0
 18 13  1  0
 24 19  1  0
  1 27  1  0
  3 28  1  0
  5 29  1  0
  9 30  1  0
 12 31  1  0
 12 32  1  0
 14 33  1  0
 15 34  1  0
 16 35  1  0
 17 36  1  0
 18 37  1  0
 20 38  1  0
 21 39  1  0
 22 40  1  0
 23 41  1  0
 25 42  1  0
 26 43  1  0
M  END
>  <smiles>  (97) 
Oc1cncc(N=c2[nH]c(=NCc3ccccc3)c3ccccc3[nH]2)c1

>  <score_type>  (97) 
oracle

>  <origin>  (97) 
adg

>  <m_score__min__energy>  (97) 
-9.2400000000000002

>  <m_primary>  (97) 
energy

$$$$
97:0
     RDKit          3D

 39 40  0  0  0  0  0  0  0  0999 V2000
   61.1890   30.1170   46.5840 C   0  0  0  0  0  0  0  0  0  0  0  0
   60.2400   28.9790   46.7980 C   0  0  0  0  0  0  0  0  0  0  0  0
   59.8360   28.2000   45.7580 N   0  0  0  0  0  0  0  0  0  0  0  0
   58.9760   27.2320   46.1440 C   0  0  0  0  0  0  0  0  0  0  0  0
   58.3840   26.2520   45.2230 C   0  0  0  0  0  0  0  0  0  0  0  0
   57.4090   26.6530   44.2590 N   0  0  0  0  0  0  0  0  0  0  0  0
   58.7380   25.0450   45.2810 O   0  0  0  0  0  0  0  0  0  0  0  0
   58.6800   27.3030   47.7970 S   0  0  0  0  0  0  0  0  0  0  0  0
   59.6920   28.6260   48.0390 C   0  0  0  0  0  0  0  0  0  0  0  0
   59.9100   29.2720   49.3460 C   0  0  0  0  0  0  0  0  0  0  0  0
   60.7340   28.7920   50.1700 O   0  0  0  0  0  0  0  0  0  0  0  0
   59.1830   30.4610   49.6720 N   0  0  0  0  0  0  0  0  0  0  0  0
   59.1170   31.6350   48.8070 C   0  0  0  0  0  0  0  0  0  0  0  0
   58.3190   31.3380   47.5320 C   0  0  0  0  0  0  0  0  0  0  0  0
   58.5640   32.3830   46.4690 C   0  0  0  0  0  0  0  0  0  0  0  0
   59.6570   33.2580   46.5990 C   0  0  0  0  0  0  0  0  0  0  0  0
   59.9270   34.2050   45.6120 C   0  0  0  0  0  0  0  0  0  0  0  0
   59.1140   34.2860   44.4810 C   0  0  0  0  0  0  0  0  0  0  0  0
   58.0300   33.4180   44.3320 C   0  0  0  0  0  0  0  0  0  0  0  0
   57.7460   32.4540   45.3200 C   0  0  0  0  0  0  0  0  0  0  0  0
   56.6740   31.5560   45.2010 O   0  0  0  0  0  0  0  0  0  0  0  0
   56.6830   30.1420   44.2370 S   0  0  0  0  0  0  0  0  0  0  0  0
   55.5590   28.9920   44.8720 N   0  0  0  0  0  0  0  0  0  0  0  0
   58.0610   29.5450   44.2200 O   0  0  0  0  0  0  0  0  0  0  0  0
   56.2830   30.5010   42.8340 O   0  0  0  0  0  0  0  0  0  0  0  0
   61.5164   30.5096   47.5580 H   0  0  0  0  0  0  0  0  0  0  0  0
   62.0637   29.7636   46.0184 H   0  0  0  0  0  0  0  0  0  0  0  0
   60.6842   30.9140   46.0184 H   0  0  0  0  0  0  0  0  0  0  0  0
   57.0950   27.6460   44.1880 H   0  0  0  0  0  0  0  0  0  0  0  0
   56.9930   25.9490   43.6090 H   0  0  0  0  0  0  0  0  0  0  0  0
   58.6294   32.4562   49.3527 H   0  0  0  0  0  0  0  0  0  0  0  0
   60.1413   31.9154   48.5203 H   0  0  0  0  0  0  0  0  0  0  0  0
   58.6207   30.3545   47.1425 H   0  0  0  0  0  0  0  0  0  0  0  0
   57.2485   31.3476   47.7850 H   0  0  0  0  0  0  0  0  0  0  0  0
   60.3041   33.1949   47.4863 H   0  0  0  0  0  0  0  0  0  0  0  0
   60.7814   34.8886   45.7250 H   0  0  0  0  0  0  0  0  0  0  0  0
   59.3273   35.0355   43.7046 H   0  0  0  0  0  0  0  0  0  0  0  0
   57.3936   33.4873   43.4374 H   0  0  0  0  0  0  0  0  0  0  0  0
   54.7040   29.5250   45.1460 H   0  0  0  0  0  0  0  0  0  0  0  0
  1  2  1  0
  2  3  1  0
  3  4  2  0
  4  5  1  0
  5  6  1  0
  5  7  2  0
  4  8  1  0
  8  9  1  0
  9 10  1  0
 10 11  2  0
 10 12  1  0
 12 13  1  0
 13 14  1  0
 14 15  1  0
 15 16  2  0
 16 17  1  0
 17 18  2  0
 18 19  1  0
 19 20  2  0
 20 21  1  0
 21 22  1  0
 22 23  1  0
 22 24  2  0
 22 25  2  0
  9  2  2  0
 20 15  1  0
  1 26  1  0
  1 27  1  0
  1 28  1  0
  6 29  1  0
  6 30  1  0
 13 31  1  0
 13 32  1  0
 14 33  1  0
 14 34  1  0
 16 35  1  0
 17 36  1  0
 18 37  1  0
 19 38  1  0
 23 39  1  0
M  CHG  2  12  -1  23  -1
M  END
>  <UniqueID>  (98) 
91

>  <SMILES>  (98) 
Cc1nc(C(N)=O)sc1C(=O)[N-]CCc1ccccc1OS([NH-])(=O)=O

>  <Energy>  (98) 
58.86455313560671

>  <Genealogy>  (98) 
Cc1nc(C(N)=O)sc1C(=O)[N-]CCc1ccccc1OS([NH-])(=O)=O (protonated)
Cc1nc(C(N)=O)sc1C(=O)[N-]CCc1ccccc1OS([NH-])(=O)=O (3D coordinates assigned)
Cc1nc(C(N)=O)sc1C(=O)[N-]CCc1ccccc1OS([NH-])(=O)=O (optimized conformer: 58.86455313560671 kcal/mol)

>  <smiles>  (98) 
Cc1nc(C(N)=O)sc1C(=O)NCCc1ccccc1OS(N)(=O)=O

>  <score_type>  (98) 
oracle

>  <origin>  (98) 
adg

>  <m_score__min__energy>  (98) 
-12.609999999999999

>  <m_primary>  (98) 
energy

$$$$
98:0
     RDKit          3D

 51 54  0  0  0  0  0  0  0  0999 V2000
   59.0410   29.3870   44.8390 C   0  0  0  0  0  0  0  0  0  0  0  0
   57.8200   28.6550   44.4640 N   0  0  0  0  0  0  0  0  0  0  0  0
   58.1840   27.5020   43.6210 C   0  0  0  0  0  0  0  0  0  0  0  0
   56.8830   29.5560   43.7600 C   0  0  0  0  0  0  0  0  0  0  0  0
   57.4330   30.9810   43.7080 C   0  0  0  0  0  0  0  0  0  0  0  0
   57.0110   31.6930   44.8690 O   0  0  0  0  0  0  0  0  0  0  0  0
   57.8130   32.5970   45.5810 C   0  0  0  0  0  0  0  0  0  0  0  0
   58.3290   33.7710   44.9980 C   0  0  0  0  0  0  0  0  0  0  0  0
   59.1210   34.6400   45.7510 C   0  0  0  0  0  0  0  0  0  0  0  0
   59.6080   35.7730   45.1870 F   0  0  0  0  0  0  0  0  0  0  0  0
   59.4110   34.3480   47.0860 C   0  0  0  0  0  0  0  0  0  0  0  0
   58.9160   33.1740   47.6750 C   0  0  0  0  0  0  0  0  0  0  0  0
   59.2220   32.8550   49.0900 C   0  0  0  0  0  0  0  0  0  0  0  0
   58.1850   32.6260   49.9460 N   0  0  0  0  0  0  0  0  0  0  0  0
   58.3980   32.3830   51.2670 C   0  0  0  0  0  0  0  0  0  0  0  0
   57.3160   32.1620   52.1350 C   0  0  0  0  0  0  0  0  0  0  0  0
   57.5410   31.9150   53.4910 C   0  0  0  0  0  0  0  0  0  0  0  0
   58.8450   31.8880   53.9920 C   0  0  0  0  0  0  0  0  0  0  0  0
   59.9290   32.1070   53.1390 C   0  0  0  0  0  0  0  0  0  0  0  0
   59.7130   32.3560   51.7700 C   0  0  0  0  0  0  0  0  0  0  0  0
   60.7720   32.5730   50.8740 C   0  0  0  0  0  0  0  0  0  0  0  0
   61.9650   32.5280   51.2860 O   0  0  0  0  0  0  0  0  0  0  0  0
   60.5170   32.8150   49.5510 N   0  0  0  0  0  0  0  0  0  0  0  0
   61.5990   32.9660   48.6560 N   0  0  0  0  0  0  0  0  0  0  0  0
   62.0770   32.0200   47.8270 C   0  0  0  0  0  0  0  0  0  0  0  0
   63.1460   32.5330   47.1190 C   0  0  0  0  0  0  0  0  0  0  0  0
   63.3180   33.8380   47.5490 C   0  0  0  0  0  0  0  0  0  0  0  0
   62.3480   34.0750   48.5030 C   0  0  0  0  0  0  0  0  0  0  0  0
   58.1090   32.3110   46.9190 C   0  0  0  0  0  0  0  0  0  0  0  0
   59.1185   29.4335   45.9353 H   0  0  0  0  0  0  0  0  0  0  0  0
   59.9202   28.8669   44.4310 H   0  0  0  0  0  0  0  0  0  0  0  0
   58.9966   30.4076   44.4310 H   0  0  0  0  0  0  0  0  0  0  0  0
   58.4531   26.6496   44.2620 H   0  0  0  0  0  0  0  0  0  0  0  0
   57.3288   27.2276   42.9859 H   0  0  0  0  0  0  0  0  0  0  0  0
   59.0417   27.7684   42.9859 H   0  0  0  0  0  0  0  0  0  0  0  0
   56.7337   29.1898   42.7336 H   0  0  0  0  0  0  0  0  0  0  0  0
   55.9283   29.5671   44.3063 H   0  0  0  0  0  0  0  0  0  0  0  0
   58.5321   30.9495   43.6759 H   0  0  0  0  0  0  0  0  0  0  0  0
   57.0557   31.4884   42.8079 H   0  0  0  0  0  0  0  0  0  0  0  0
   58.1072   34.0039   43.9461 H   0  0  0  0  0  0  0  0  0  0  0  0
   60.0289   35.0399   47.6771 H   0  0  0  0  0  0  0  0  0  0  0  0
   57.2040   32.6630   49.5830 H   0  0  0  0  0  0  0  0  0  0  0  0
   56.2876   32.1836   51.7452 H   0  0  0  0  0  0  0  0  0  0  0  0
   56.6899   31.7414   54.1659 H   0  0  0  0  0  0  0  0  0  0  0  0
   59.0183   31.6938   55.0608 H   0  0  0  0  0  0  0  0  0  0  0  0
   60.9540   32.0849   53.5376 H   0  0  0  0  0  0  0  0  0  0  0  0
   61.6791   30.9992   47.7288 H   0  0  0  0  0  0  0  0  0  0  0  0
   63.7446   32.0071   46.3607 H   0  0  0  0  0  0  0  0  0  0  0  0
   64.0805   34.5490   47.1982 H   0  0  0  0  0  0  0  0  0  0  0  0
   62.2092   35.0189   49.0506 H   0  0  0  0  0  0  0  0  0  0  0  0
   57.7042   31.3993   47.3827 H   0  0  0  0  0  0  0  0  0  0  0  0
  1  2  1  0
  2  3  1  0
  2  4  1  0
  4  5  1  0
  5  6  1  0
  6  7  1  0
  7  8  2  0
  8  9  1  0
  9 10  1  0
  9 11  2  0
 11 12  1  0
 12 13  1  0
 13 14  2  0
 14 15  1  0
 15 16  2  0
 16 17  1  0
 17 18  2  0
 18 19  1  0
 19 20  2  0
 20 21  1  0
 21 22  2  0
 21 23  1  0
 23 24  1  0
 24 25  1  0
 25 26  2  0
 26 27  1  0
 27 28  2  0
 12 29  2  0
 29  7  1  0
 23 13  1  0
 28 24  1  0
 20 15  1  0
  1 30  1  0
  1 31  1  0
  1 32  1  0
  3 33  1  0
  3 34  1  0
  3 35  1  0
  4 36  1  0
  4 37  1  0
  5 38  1  0
  5 39  1  0
  8 40  1  0
 11 41  1  0
 14 42  1  0
 16 43  1  0
 17 44  1  0
 18 45  1  0
 19 46  1  0
 25 47  1  0
 26 48  1  0
 27 49  1  0
 28 50  1  0
 29 51  1  0
M  CHG  1  14   1
M  END
>  <UniqueID>  (99) 
92

>  <SMILES>  (99) 
CN(C)CCOc1cc(F)cc(-c2[nH+]c3ccccc3c(=O)n2-n2cccc2)c1

>  <Energy>  (99) 
97.73591567202243

>  <Genealogy>  (99) 
CN(C)CCOc1cc(F)cc(-c2[nH+]c3ccccc3c(=O)n2-n2cccc2)c1 (protonated)
CN(C)CCOc1cc(F)cc(-c2[nH+]c3ccccc3c(=O)n2-n2cccc2)c1 (3D coordinates assigned)
CN(C)CCOc1cc(F)cc(-c2[nH+]c3ccccc3c(=O)n2-n2cccc2)c1 (optimized conformer: 97.73591567202243 kcal/mol)

>  <smiles>  (99) 
CN(C)CCOc1cc(F)cc(-c2nc3ccccc3c(=O)n2-n2cccc2)c1

>  <score_type>  (99) 
oracle

>  <origin>  (99) 
adg

>  <m_score__min__energy>  (99) 
-6.5999999999999996

>  <m_primary>  (99) 
energy

$$$$
