0:0
     RDKit          3D

 61 64  0  0  0  0  0  0  0  0999 V2000
   65.6780   31.9880   50.5830 C   0  0  0  0  0  0  0  0  0  0  0  0
   64.2700   31.9400   50.3660 O   0  0  0  0  0  0  0  0  0  0  0  0
   63.6380   32.3110   49.1690 C   0  0  0  0  0  0  0  0  0  0  0  0
   64.1220   33.3770   48.3740 C   0  0  0  0  0  0  0  0  0  0  0  0
   63.4820   33.7160   47.1790 C   0  0  0  0  0  0  0  0  0  0  0  0
   62.3680   32.9920   46.7540 C   0  0  0  0  0  0  0  0  0  0  0  0
   61.8790   31.9370   47.5280 C   0  0  0  0  0  0  0  0  0  0  0  0
   62.4890   31.6020   48.7510 C   0  0  0  0  0  0  0  0  0  0  0  0
   61.9290   30.4560   49.5630 C   0  0  0  0  0  0  0  0  0  0  0  0
   61.0250   29.6650   48.7340 N   0  0  0  0  0  0  0  0  0  0  0  0
   60.4800   28.4170   49.1770 C   0  0  0  0  0  0  0  0  0  0  0  0
   60.4210   28.1440   50.4090 O   0  0  0  0  0  0  0  0  0  0  0  0
   60.1290   27.3650   48.1730 C   0  0  0  0  0  0  0  0  0  0  0  0
   59.2140   27.9570   47.1480 C   0  0  0  0  0  0  0  0  0  0  0  0
   58.0640   27.3020   46.6960 C   0  0  0  0  0  0  0  0  0  0  0  0
   57.2880   28.3050   45.6010 S   0  0  0  0  0  0  0  0  0  0  0  0
   58.4390   29.5360   45.7630 C   0  0  0  0  0  0  0  0  0  0  0  0
   58.4500   30.6590   45.1100 N   0  0  0  0  0  0  0  0  0  0  0  0
   57.8010   31.8510   45.5620 C   0  0  0  0  0  0  0  0  0  0  0  0
   56.6130   32.0610   45.2000 O   0  0  0  0  0  0  0  0  0  0  0  0
   58.4850   32.8320   46.4450 C   0  0  0  0  0  0  0  0  0  0  0  0
   59.0180   34.0280   45.9310 C   0  0  0  0  0  0  0  0  0  0  0  0
   59.6710   34.9310   46.7760 C   0  0  0  0  0  0  0  0  0  0  0  0
   59.7850   34.6600   48.1420 C   0  0  0  0  0  0  0  0  0  0  0  0
   59.2430   33.4800   48.6700 C   0  0  0  0  0  0  0  0  0  0  0  0
   59.3700   33.1190   50.3920 S   0  0  0  0  0  0  0  0  0  0  0  0
   58.9300   34.3290   51.1690 O   0  0  0  0  0  0  0  0  0  0  0  0
   60.7980   32.8060   50.7510 O   0  0  0  0  0  0  0  0  0  0  0  0
   58.3470   31.7590   50.7840 N   0  0  0  0  0  0  0  0  0  0  0  0
   59.1520   30.7070   51.4330 C   0  0  0  0  0  0  0  0  0  0  0  0
   58.2550   29.6310   52.0730 C   0  0  0  0  0  0  0  0  0  0  0  0
   56.9150   29.7510   51.6270 O   0  0  0  0  0  0  0  0  0  0  0  0
   56.3760   30.9830   52.0730 C   0  0  0  0  0  0  0  0  0  0  0  0
   57.2480   32.1910   51.6620 C   0  0  0  0  0  0  0  0  0  0  0  0
   58.5970   32.5720   47.8240 C   0  0  0  0  0  0  0  0  0  0  0  0
   59.4130   29.2030   46.6350 N   0  0  0  0  0  0  0  0  0  0  0  0
   65.8824   31.9950   51.6638 H   0  0  0  0  0  0  0  0  0  0  0  0
   66.1497   31.1054   50.1263 H   0  0  0  0  0  0  0  0  0  0  0  0
   66.0885   32.9007   50.1263 H   0  0  0  0  0  0  0  0  0  0  0  0
   65.0078   33.9424   48.6989 H   0  0  0  0  0  0  0  0  0  0  0  0
   63.8568   34.5541   46.5732 H   0  0  0  0  0  0  0  0  0  0  0  0
   61.8732   33.2526   45.8067 H   0  0  0  0  0  0  0  0  0  0  0  0
   61.0086   31.3625   47.1781 H   0  0  0  0  0  0  0  0  0  0  0  0
   62.7540   29.8194   49.9154 H   0  0  0  0  0  0  0  0  0  0  0  0
   61.3775   30.8554   50.4269 H   0  0  0  0  0  0  0  0  0  0  0  0
   60.9090   29.9450   47.7300 H   0  0  0  0  0  0  0  0  0  0  0  0
   61.0448   27.0015   47.6840 H   0  0  0  0  0  0  0  0  0  0  0  0
   59.6299   26.5232   48.6753 H   0  0  0  0  0  0  0  0  0  0  0  0
   57.7273   26.3017   47.0057 H   0  0  0  0  0  0  0  0  0  0  0  0
   58.9207   34.2542   44.8589 H   0  0  0  0  0  0  0  0  0  0  0  0
   60.0964   35.8579   46.3638 H   0  0  0  0  0  0  0  0  0  0  0  0
   60.3000   35.3726   48.8030 H   0  0  0  0  0  0  0  0  0  0  0  0
   59.7975   30.2332   50.6788 H   0  0  0  0  0  0  0  0  0  0  0  0
   59.7565   31.1717   52.2259 H   0  0  0  0  0  0  0  0  0  0  0  0
   58.6367   28.6362   51.7996 H   0  0  0  0  0  0  0  0  0  0  0  0
   58.2728   29.7660   53.1645 H   0  0  0  0  0  0  0  0  0  0  0  0
   55.3729   31.1075   51.6390 H   0  0  0  0  0  0  0  0  0  0  0  0
   56.3391   30.9546   53.1720 H   0  0  0  0  0  0  0  0  0  0  0  0
   56.6241   32.9226   51.1276 H   0  0  0  0  0  0  0  0  0  0  0  0
   57.6747   32.6461   52.5680 H   0  0  0  0  0  0  0  0  0  0  0  0
   58.1727   31.6464   48.2402 H   0  0  0  0  0  0  0  0  0  0  0  0
  1  2  1  0
  2  3  1  0
  3  4  2  0
  4  5  1  0
  5  6  2  0
  6  7  1  0
  7  8  2  0
  8  9  1  0
  9 10  1  0
 10 11  1  0
 11 12  2  0
 11 13  1  0
 13 14  1  0
 14 15  2  0
 15 16  1  0
 16 17  1  0
 17 18  2  3
 18 19  1  0
 19 20  2  0
 19 21  1  0
 21 22  2  0
 22 23  1  0
 23 24  2  0
 24 25  1  0
 25 26  1  0
 26 27  2  0
 26 28  2  0
 26 29  1  0
 29 30  1  0
 30 31  1  0
 31 32  1  0
 32 33  1  0
 33 34  1  0
 25 35  2  0
 17 36  1  0
  8  3  1  0
 36 14  1  0
 35 21  1  0
 34 29  1  0
  1 37  1  0
  1 38  1  0
  1 39  1  0
  4 40  1  0
  5 41  1  0
  6 42  1  0
  7 43  1  0
  9 44  1  0
  9 45  1  0
 10 46  1  0
 13 47  1  0
 13 48  1  0
 15 49  1  0
 22 50  1  0
 23 51  1  0
 24 52  1  0
 30 53  1  0
 30 54  1  0
 31 55  1  0
 31 56  1  0
 33 57  1  0
 33 58  1  0
 34 59  1  0
 34 60  1  0
 35 61  1  0
M  CHG  1  36  -1
M  END
>  <UniqueID>  (1) 
1

>  <SMILES>  (1) 
COc1ccccc1CNC(=O)Cc1csc(=NC(=O)c2cccc(S(=O)(=O)N3CCOCC3)c2)[n-]1

>  <Energy>  (1) 
101.93555145061009

>  <Genealogy>  (1) 
COc1ccccc1CNC(=O)Cc1csc(=NC(=O)c2cccc(S(=O)(=O)N3CCOCC3)c2)[n-]1 (protonated)
COc1ccccc1CNC(=O)Cc1csc(=NC(=O)c2cccc(S(=O)(=O)N3CCOCC3)c2)[n-]1 (3D coordinates assigned)
COc1ccccc1CNC(=O)Cc1csc(=NC(=O)c2cccc(S(=O)(=O)N3CCOCC3)c2)[n-]1 (nonaromatic ring conformer: 101.93555145061009 kcal/mol)

>  <smiles>  (1) 
COc1ccccc1CNC(=O)Cc1csc(=NC(=O)c2cccc(S(=O)(=O)N3CCOCC3)c2)[nH]1

>  <score_type>  (1) 
oracle

>  <origin>  (1) 
adg

>  <m_score__min__energy>  (1) 
-11.359999999999999

>  <m_primary>  (1) 
energy

$$$$
1:0
     RDKit          3D

 46 48  0  0  0  0  0  0  0  0999 V2000
   61.1240   30.1070   49.2280 C   0  0  0  0  0  0  0  0  0  0  0  0
   60.3750   29.6630   48.0070 C   0  0  0  0  0  0  0  0  0  0  0  0
   59.1880   28.9240   48.1310 C   0  0  0  0  0  0  0  0  0  0  0  0
   58.4710   28.5450   46.9920 C   0  0  0  0  0  0  0  0  0  0  0  0
   58.9250   28.9160   45.7220 C   0  0  0  0  0  0  0  0  0  0  0  0
   58.0040   28.4330   44.2610 S   0  0  0  0  0  0  0  0  0  0  0  0
   57.6830   30.1540   43.7420 C   0  0  0  0  0  0  0  0  0  0  0  0
   56.5030   30.7280   44.4790 C   0  0  0  0  0  0  0  0  0  0  0  0
   55.4140   30.0940   44.4960 O   0  0  0  0  0  0  0  0  0  0  0  0
   56.6030   31.9380   45.2380 N   0  0  0  0  0  0  0  0  0  0  0  0
   57.4050   33.0930   44.8560 C   0  0  0  0  0  0  0  0  0  0  0  0
   58.5510   33.2420   45.8140 C   0  0  0  0  0  0  0  0  0  0  0  0
   58.4550   32.7360   47.1180 C   0  0  0  0  0  0  0  0  0  0  0  0
   59.5360   32.8440   47.9990 C   0  0  0  0  0  0  0  0  0  0  0  0
   60.7330   33.4580   47.5890 C   0  0  0  0  0  0  0  0  0  0  0  0
   61.8560   33.5580   48.4880 N   0  0  0  0  0  0  0  0  0  0  0  0
   61.7900   34.0950   49.8380 C   0  0  0  0  0  0  0  0  0  0  0  0
   63.2480   34.2270   50.3170 C   0  0  0  0  0  0  0  0  0  0  0  0
   64.1200   33.4520   49.3210 C   0  0  0  0  0  0  0  0  0  0  0  0
   63.1870   33.1480   48.2180 C   0  0  0  0  0  0  0  0  0  0  0  0
   63.5230   32.5210   47.1790 O   0  0  0  0  0  0  0  0  0  0  0  0
   60.8330   33.9370   46.2720 C   0  0  0  0  0  0  0  0  0  0  0  0
   59.7530   33.8290   45.3920 C   0  0  0  0  0  0  0  0  0  0  0  0
   60.1010   29.6640   45.5920 C   0  0  0  0  0  0  0  0  0  0  0  0
   60.8190   30.0430   46.7310 C   0  0  0  0  0  0  0  0  0  0  0  0
   60.5808   29.7850   50.1287 H   0  0  0  0  0  0  0  0  0  0  0  0
   62.1283   29.6582   49.2255 H   0  0  0  0  0  0  0  0  0  0  0  0
   61.2123   31.2034   49.2255 H   0  0  0  0  0  0  0  0  0  0  0  0
   58.8203   28.6418   49.1286 H   0  0  0  0  0  0  0  0  0  0  0  0
   57.5487   27.9543   47.0948 H   0  0  0  0  0  0  0  0  0  0  0  0
   58.5722   30.7657   43.9545 H   0  0  0  0  0  0  0  0  0  0  0  0
   57.4601   30.1596   42.6648 H   0  0  0  0  0  0  0  0  0  0  0  0
   57.7944   32.9489   43.8374 H   0  0  0  0  0  0  0  0  0  0  0  0
   56.7818   33.9990   44.8842 H   0  0  0  0  0  0  0  0  0  0  0  0
   57.5248   32.2516   47.4499 H   0  0  0  0  0  0  0  0  0  0  0  0
   59.4492   32.4455   49.0206 H   0  0  0  0  0  0  0  0  0  0  0  0
   61.2990   35.0793   49.8337 H   0  0  0  0  0  0  0  0  0  0  0  0
   61.2063   33.4410   50.5025 H   0  0  0  0  0  0  0  0  0  0  0  0
   63.5452   35.2859   50.3348 H   0  0  0  0  0  0  0  0  0  0  0  0
   63.3643   33.8262   51.3348 H   0  0  0  0  0  0  0  0  0  0  0  0
   64.9593   34.0695   48.9684 H   0  0  0  0  0  0  0  0  0  0  0  0
   64.5773   32.5523   49.7584 H   0  0  0  0  0  0  0  0  0  0  0  0
   61.7700   34.4012   45.9305 H   0  0  0  0  0  0  0  0  0  0  0  0
   59.8459   34.2063   44.3629 H   0  0  0  0  0  0  0  0  0  0  0  0
   60.4607   29.9539   44.5937 H   0  0  0  0  0  0  0  0  0  0  0  0
   61.7359   30.6416   46.6262 H   0  0  0  0  0  0  0  0  0  0  0  0
  1  2  1  0
  2  3  2  0
  3  4  1  0
  4  5  2  0
  5  6  1  0
  6  7  1  0
  7  8  1  0
  8  9  2  0
  8 10  1  0
 10 11  1  0
 11 12  1  0
 12 13  2  0
 13 14  1  0
 14 15  2  0
 15 16  1  0
 16 17  1  0
 17 18  1  0
 18 19  1  0
 19 20  1  0
 20 21  2  0
 15 22  1  0
 22 23  2  0
  5 24  1  0
 24 25  2  0
 25  2  1  0
 23 12  1  0
 20 16  1  0
  1 26  1  0
  1 27  1  0
  1 28  1  0
  3 29  1  0
  4 30  1  0
  7 31  1  0
  7 32  1  0
 11 33  1  0
 11 34  1  0
 13 35  1  0
 14 36  1  0
 17 37  1  0
 17 38  1  0
 18 39  1  0
 18 40  1  0
 19 41  1  0
 19 42  1  0
 22 43  1  0
 23 44  1  0
 24 45  1  0
 25 46  1  0
M  CHG  1  10  -1
M  END
>  <UniqueID>  (2) 
2

>  <SMILES>  (2) 
Cc1ccc(SCC(=O)[N-]Cc2ccc(N3CCCC3=O)cc2)cc1

>  <Energy>  (2) 
50.46943864214058

>  <Genealogy>  (2) 
Cc1ccc(SCC(=O)[N-]Cc2ccc(N3CCCC3=O)cc2)cc1 (protonated)
Cc1ccc(SCC(=O)[N-]Cc2ccc(N3CCCC3=O)cc2)cc1 (3D coordinates assigned)
Cc1ccc(SCC(=O)[N-]Cc2ccc(N3CCCC3=O)cc2)cc1 (nonaromatic ring conformer: 50.46943864214058 kcal/mol)

>  <smiles>  (2) 
Cc1ccc(SCC(=O)NCc2ccc(N3CCCC3=O)cc2)cc1

>  <score_type>  (2) 
oracle

>  <origin>  (2) 
adg

>  <m_score__min__energy>  (2) 
-9.9299999999999997

>  <m_primary>  (2) 
energy

$$$$
2:0
     RDKit          3D

 52 54  0  0  0  0  0  0  0  0999 V2000
   64.4380   32.8000   48.8210 C   0  0  0  0  0  0  0  0  0  0  0  0
   63.0420   32.7060   48.2840 C   0  0  0  0  0  0  0  0  0  0  0  0
   62.4600   33.7990   47.6250 C   0  0  0  0  0  0  0  0  0  0  0  0
   61.1830   33.6880   47.0660 C   0  0  0  0  0  0  0  0  0  0  0  0
   60.4780   32.4750   47.1410 C   0  0  0  0  0  0  0  0  0  0  0  0
   59.1160   32.3500   46.5050 C   0  0  0  0  0  0  0  0  0  0  0  0
   59.1870   31.6040   45.2480 N   0  0  0  0  0  0  0  0  0  0  0  0
   59.0210   30.1880   45.1110 C   0  0  0  0  0  0  0  0  0  0  0  0
   60.0400   29.4490   45.1270 O   0  0  0  0  0  0  0  0  0  0  0  0
   57.6960   29.5700   44.9650 C   0  0  0  0  0  0  0  0  0  0  0  0
   57.1960   28.4660   45.6300 C   0  0  0  0  0  0  0  0  0  0  0  0
   57.9210   27.6210   46.6500 C   0  0  0  0  0  0  0  0  0  0  0  0
   57.9810   26.1800   46.3090 N   0  0  0  0  0  0  0  0  0  0  0  0
   59.3550   25.6560   46.3800 C   0  0  0  0  0  0  0  0  0  0  0  0
   57.3530   25.8430   45.0130 C   0  0  0  0  0  0  0  0  0  0  0  0
   56.3400   24.7290   45.1660 C   0  0  0  0  0  0  0  0  0  0  0  0
   56.7200   23.4030   44.8730 C   0  0  0  0  0  0  0  0  0  0  0  0
   55.7980   22.3590   44.9780 C   0  0  0  0  0  0  0  0  0  0  0  0
   54.4860   22.6220   45.3750 C   0  0  0  0  0  0  0  0  0  0  0  0
   54.0930   23.9320   45.6700 C   0  0  0  0  0  0  0  0  0  0  0  0
   55.0050   24.9900   45.5670 C   0  0  0  0  0  0  0  0  0  0  0  0
   54.5550   26.2820   45.8650 O   0  0  0  0  0  0  0  0  0  0  0  0
   55.9060   28.2870   45.2790 N   0  0  0  0  0  0  0  0  0  0  0  0
   55.5710   29.2210   44.3990 N   0  0  0  0  0  0  0  0  0  0  0  0
   56.6450   30.0090   44.1860 C   0  0  0  0  0  0  0  0  0  0  0  0
   56.6470   31.1870   43.2640 C   0  0  0  0  0  0  0  0  0  0  0  0
   61.0600   31.3810   47.8070 C   0  0  0  0  0  0  0  0  0  0  0  0
   62.3380   31.4930   48.3630 C   0  0  0  0  0  0  0  0  0  0  0  0
   64.4088   32.7980   49.9206 H   0  0  0  0  0  0  0  0  0  0  0  0
   65.0253   31.9394   48.4683 H   0  0  0  0  0  0  0  0  0  0  0  0
   64.9046   33.7316   48.4683 H   0  0  0  0  0  0  0  0  0  0  0  0
   63.0108   34.7480   47.5476 H   0  0  0  0  0  0  0  0  0  0  0  0
   60.7280   34.5551   46.5649 H   0  0  0  0  0  0  0  0  0  0  0  0
   58.4432   31.8232   47.1977 H   0  0  0  0  0  0  0  0  0  0  0  0
   58.7370   33.3601   46.2904 H   0  0  0  0  0  0  0  0  0  0  0  0
   58.9505   27.9975   46.7416 H   0  0  0  0  0  0  0  0  0  0  0  0
   57.3542   27.7015   47.5893 H   0  0  0  0  0  0  0  0  0  0  0  0
   59.6505   25.5433   47.4336 H   0  0  0  0  0  0  0  0  0  0  0  0
   59.4005   24.6774   45.8797 H   0  0  0  0  0  0  0  0  0  0  0  0
   60.0406   26.3558   45.8797 H   0  0  0  0  0  0  0  0  0  0  0  0
   56.8468   26.7358   44.6172 H   0  0  0  0  0  0  0  0  0  0  0  0
   58.1402   25.5042   44.3234 H   0  0  0  0  0  0  0  0  0  0  0  0
   57.7522   23.1888   44.5588 H   0  0  0  0  0  0  0  0  0  0  0  0
   56.1062   21.3285   44.7476 H   0  0  0  0  0  0  0  0  0  0  0  0
   53.7607   21.7990   45.4560 H   0  0  0  0  0  0  0  0  0  0  0  0
   53.0586   24.1328   45.9856 H   0  0  0  0  0  0  0  0  0  0  0  0
   54.7720   27.0930   45.2970 H   0  0  0  0  0  0  0  0  0  0  0  0
   56.6486   32.1149   43.8547 H   0  0  0  0  0  0  0  0  0  0  0  0
   57.5451   31.1546   42.6297 H   0  0  0  0  0  0  0  0  0  0  0  0
   55.7488   31.1577   42.6297 H   0  0  0  0  0  0  0  0  0  0  0  0
   60.5074   30.4336   47.8907 H   0  0  0  0  0  0  0  0  0  0  0  0
   62.7944   30.6270   48.8647 H   0  0  0  0  0  0  0  0  0  0  0  0
  1  2  1  0
  2  3  2  0
  3  4  1  0
  4  5  2  0
  5  6  1  0
  6  7  1  0
  7  8  1  0
  8  9  2  0
  8 10  1  0
 10 11  1  0
 11 12  1  0
 12 13  1  0
 13 14  1  0
 13 15  1  0
 15 16  1  0
 16 17  2  0
 17 18  1  0
 18 19  2  0
 19 20  1  0
 20 21  2  0
 21 22  1  0
 11 23  2  0
 23 24  1  0
 24 25  1  0
 25 26  1  0
  5 27  1  0
 27 28  2  0
 28  2  1  0
 25 10  2  0
 21 16  1  0
  1 29  1  0
  1 30  1  0
  1 31  1  0
  3 32  1  0
  4 33  1  0
  6 34  1  0
  6 35  1  0
 12 36  1  0
 12 37  1  0
 14 38  1  0
 14 39  1  0
 14 40  1  0
 15 41  1  0
 15 42  1  0
 17 43  1  0
 18 44  1  0
 19 45  1  0
 20 46  1  0
 22 47  1  0
 26 48  1  0
 26 49  1  0
 26 50  1  0
 27 51  1  0
 28 52  1  0
M  CHG  2   7  -1  24  -1
M  END
>  <UniqueID>  (3) 
3

>  <SMILES>  (3) 
Cc1ccc(C[N-]C(=O)c2c(CN(C)Cc3ccccc3O)n[n-]c2C)cc1

>  <Energy>  (3) 
85.65108745540542

>  <Genealogy>  (3) 
Cc1ccc(C[N-]C(=O)c2c(CN(C)Cc3ccccc3O)n[n-]c2C)cc1 (protonated)
Cc1ccc(C[N-]C(=O)c2c(CN(C)Cc3ccccc3O)n[n-]c2C)cc1 (3D coordinates assigned)
Cc1ccc(C[N-]C(=O)c2c(CN(C)Cc3ccccc3O)n[n-]c2C)cc1 (optimized conformer: 85.65108745540542 kcal/mol)

>  <smiles>  (3) 
Cc1ccc(CNC(=O)c2c(CN(C)Cc3ccccc3O)n[nH]c2C)cc1

>  <score_type>  (3) 
oracle

>  <origin>  (3) 
adg

>  <m_score__min__energy>  (3) 
-11.789999999999999

>  <m_primary>  (3) 
energy

$$$$
3:0
     RDKit          3D

 53 55  0  0  0  0  0  0  0  0999 V2000
   59.2660   35.4890   47.1230 O   0  0  0  0  0  0  0  0  0  0  0  0
   58.9130   34.4000   46.6940 C   0  0  0  0  0  0  0  0  0  0  0  0
   57.9180   33.5760   47.4580 C   0  0  0  0  0  0  0  0  0  0  0  0
   58.3810   32.1110   47.4940 C   0  0  0  0  0  0  0  0  0  0  0  0
   58.7620   31.5030   46.0890 C   0  0  0  0  0  0  0  0  0  0  0  0
   60.2040   30.8770   46.1570 C   0  0  0  0  0  0  0  0  0  0  0  0
   60.2650   29.4170   46.5740 C   0  0  0  0  0  0  0  0  0  0  0  0
   60.3780   28.3920   45.6160 C   0  0  0  0  0  0  0  0  0  0  0  0
   60.4140   27.0510   46.0110 C   0  0  0  0  0  0  0  0  0  0  0  0
   60.3130   26.7160   47.3620 C   0  0  0  0  0  0  0  0  0  0  0  0
   60.1590   27.7190   48.3200 C   0  0  0  0  0  0  0  0  0  0  0  0
   60.1270   29.0610   47.9300 C   0  0  0  0  0  0  0  0  0  0  0  0
   57.7890   30.4560   45.7030 N   0  0  0  0  0  0  0  0  0  0  0  0
   57.4060   30.1380   44.3520 C   0  0  0  0  0  0  0  0  0  0  0  0
   58.0910   30.5390   43.3760 O   0  0  0  0  0  0  0  0  0  0  0  0
   56.1410   29.3800   44.0860 C   0  0  0  0  0  0  0  0  0  0  0  0
   55.8060   28.5630   45.2470 N   0  0  0  0  0  0  0  0  0  0  0  0
   56.7120   27.6210   45.8340 C   0  0  0  0  0  0  0  0  0  0  0  0
   57.5190   28.0030   46.7230 O   0  0  0  0  0  0  0  0  0  0  0  0
   56.7000   26.2030   45.4080 C   0  0  0  0  0  0  0  0  0  0  0  0
   57.6930   25.7030   44.5500 C   0  0  0  0  0  0  0  0  0  0  0  0
   57.6590   24.3720   44.1290 C   0  0  0  0  0  0  0  0  0  0  0  0
   56.6360   23.5240   44.5590 C   0  0  0  0  0  0  0  0  0  0  0  0
   55.6450   23.9940   45.4360 C   0  0  0  0  0  0  0  0  0  0  0  0
   54.5070   23.0970   45.8550 C   0  0  0  0  0  0  0  0  0  0  0  0
   54.4420   23.0630   47.2370 F   0  0  0  0  0  0  0  0  0  0  0  0
   54.6980   21.8110   45.3820 F   0  0  0  0  0  0  0  0  0  0  0  0
   53.3050   23.5670   45.3580 F   0  0  0  0  0  0  0  0  0  0  0  0
   55.6740   25.3410   45.8390 C   0  0  0  0  0  0  0  0  0  0  0  0
   58.7650   32.5930   44.9700 C   0  0  0  0  0  0  0  0  0  0  0  0
   59.4630   33.8940   45.3910 C   0  0  0  0  0  0  0  0  0  0  0  0
   57.8372   33.9597   48.4857 H   0  0  0  0  0  0  0  0  0  0  0  0
   56.9371   33.6370   46.9639 H   0  0  0  0  0  0  0  0  0  0  0  0
   59.2650   32.0474   48.1455 H   0  0  0  0  0  0  0  0  0  0  0  0
   57.5265   31.5251   47.8636 H   0  0  0  0  0  0  0  0  0  0  0  0
   60.6583   30.9635   45.1589 H   0  0  0  0  0  0  0  0  0  0  0  0
   60.7393   31.4366   46.9382 H   0  0  0  0  0  0  0  0  0  0  0  0
   60.4385   28.6479   44.5479 H   0  0  0  0  0  0  0  0  0  0  0  0
   60.5221   26.2588   45.2555 H   0  0  0  0  0  0  0  0  0  0  0  0
   60.3548   25.6613   47.6717 H   0  0  0  0  0  0  0  0  0  0  0  0
   60.0627   27.4533   49.3831 H   0  0  0  0  0  0  0  0  0  0  0  0
   59.9929   29.8461   48.6887 H   0  0  0  0  0  0  0  0  0  0  0  0
   57.3280   29.8920   46.4480 H   0  0  0  0  0  0  0  0  0  0  0  0
   55.3236   30.0895   43.8896 H   0  0  0  0  0  0  0  0  0  0  0  0
   56.2826   28.7294   43.2104 H   0  0  0  0  0  0  0  0  0  0  0  0
   58.5027   26.3640   44.2074 H   0  0  0  0  0  0  0  0  0  0  0  0
   58.4409   23.9900   43.4562 H   0  0  0  0  0  0  0  0  0  0  0  0
   56.6063   22.4817   44.2086 H   0  0  0  0  0  0  0  0  0  0  0  0
   54.8839   25.7264   46.5002 H   0  0  0  0  0  0  0  0  0  0  0  0
   59.2842   32.1875   44.0891 H   0  0  0  0  0  0  0  0  0  0  0  0
   57.7153   32.8415   44.7546 H   0  0  0  0  0  0  0  0  0  0  0  0
   60.5406   33.7042   45.5044 H   0  0  0  0  0  0  0  0  0  0  0  0
   59.2863   34.6543   44.6160 H   0  0  0  0  0  0  0  0  0  0  0  0
  1  2  2  0
  2  3  1  0
  3  4  1  0
  4  5  1  0
  5  6  1  0
  6  7  1  0
  7  8  2  0
  8  9  1  0
  9 10  2  0
 10 11  1  0
 11 12  2  0
  5 13  1  0
 13 14  1  0
 14 15  2  0
 14 16  1  0
 16 17  1  0
 17 18  1  0
 18 19  2  0
 18 20  1  0
 20 21  2  0
 21 22  1  0
 22 23  2  0
 23 24  1  0
 24 25  1  0
 25 26  1  0
 25 27  1  0
 25 28  1  0
 24 29  2  0
  5 30  1  0
 30 31  1  0
 31  2  1  0
 12  7  1  0
 29 20  1  0
  3 32  1  0
  3 33  1  0
  4 34  1  0
  4 35  1  0
  6 36  1  0
  6 37  1  0
  8 38  1  0
  9 39  1  0
 10 40  1  0
 11 41  1  0
 12 42  1  0
 13 43  1  0
 16 44  1  0
 16 45  1  0
 21 46  1  0
 22 47  1  0
 23 48  1  0
 29 49  1  0
 30 50  1  0
 30 51  1  0
 31 52  1  0
 31 53  1  0
M  CHG  1  17  -1
M  END
>  <UniqueID>  (4) 
4

>  <SMILES>  (4) 
O=C1CCC(Cc2ccccc2)(NC(=O)C[N-]C(=O)c2cccc(C(F)(F)F)c2)CC1

>  <Energy>  (4) 
56.885826205287756

>  <Genealogy>  (4) 
O=C1CCC(Cc2ccccc2)(NC(=O)C[N-]C(=O)c2cccc(C(F)(F)F)c2)CC1 (protonated)
O=C1CCC(Cc2ccccc2)(NC(=O)C[N-]C(=O)c2cccc(C(F)(F)F)c2)CC1 (3D coordinates assigned)
O=C1CCC(Cc2ccccc2)(NC(=O)C[N-]C(=O)c2cccc(C(F)(F)F)c2)CC1 (nonaromatic ring conformer: 56.885826205287756 kcal/mol)

>  <smiles>  (4) 
O=C1CCC(Cc2ccccc2)(NC(=O)CNC(=O)c2cccc(C(F)(F)F)c2)CC1

>  <score_type>  (4) 
oracle

>  <origin>  (4) 
adg

>  <m_score__min__energy>  (4) 
-10.23

>  <m_primary>  (4) 
energy

$$$$
4:0
     RDKit          3D

 39 41  0  0  0  0  0  0  0  0999 V2000
   55.1440   28.6010   45.6400 H   0  0  0  0  0  0  0  0  0  0  0  0
   55.5920   29.2690   44.9740 N   0  0  0  0  0  0  0  0  0  0  0  0
   56.9710   29.6120   45.0900 C   0  0  0  0  0  0  0  0  0  0  0  0
   57.4680   30.4400   44.2800 O   0  0  0  0  0  0  0  0  0  0  0  0
   57.8120   29.0050   46.1480 C   0  0  0  0  0  0  0  0  0  0  0  0
   58.8080   29.7620   46.7920 C   0  0  0  0  0  0  0  0  0  0  0  0
   58.9597   30.8155   46.5144 H   0  0  0  0  0  0  0  0  0  0  0  0
   59.6060   29.1820   47.7830 C   0  0  0  0  0  0  0  0  0  0  0  0
   60.3710   29.7861   48.2927 H   0  0  0  0  0  0  0  0  0  0  0  0
   59.4360   27.8350   48.1300 C   0  0  0  0  0  0  0  0  0  0  0  0
   60.2380   27.2350   49.1530 N   0  0  0  0  0  0  0  0  0  0  0  0
   60.6760   27.9010   50.3450 C   0  0  0  0  0  0  0  0  0  0  0  0
   61.9120   28.0530   50.5370 O   0  0  0  0  0  0  0  0  0  0  0  0
   59.6990   28.5120   51.3140 C   0  0  0  0  0  0  0  0  0  0  0  0
   58.8219   27.8534   51.3973 H   0  0  0  0  0  0  0  0  0  0  0  0
   60.2057   28.6229   52.2840 H   0  0  0  0  0  0  0  0  0  0  0  0
   59.2450   29.8690   50.8700 C   0  0  0  0  0  0  0  0  0  0  0  0
   60.2260   31.0200   50.1290 S   0  0  0  0  0  0  0  0  0  0  0  0
   58.9800   32.1560   50.0270 C   0  0  0  0  0  0  0  0  0  0  0  0
   59.0770   33.3560   49.5330 N   0  0  0  0  0  0  0  0  0  0  0  0
   59.2770   33.6840   48.1490 C   0  0  0  0  0  0  0  0  0  0  0  0
   58.1920   33.7330   47.2530 C   0  0  0  0  0  0  0  0  0  0  0  0
   57.1804   33.4827   47.6051 H   0  0  0  0  0  0  0  0  0  0  0  0
   58.3930   34.0980   45.9180 C   0  0  0  0  0  0  0  0  0  0  0  0
   57.0350   34.1510   44.8080 Cl  0  0  0  0  0  0  0  0  0  0  0  0
   59.6750   34.4340   45.4710 C   0  0  0  0  0  0  0  0  0  0  0  0
   59.8361   34.7092   44.4182 H   0  0  0  0  0  0  0  0  0  0  0  0
   60.7520   34.4200   46.3630 C   0  0  0  0  0  0  0  0  0  0  0  0
   61.7578   34.6936   46.0117 H   0  0  0  0  0  0  0  0  0  0  0  0
   60.5550   34.0590   47.7020 C   0  0  0  0  0  0  0  0  0  0  0  0
   62.0510   34.0700   48.8960 Br  0  0  0  0  0  0  0  0  0  0  0  0
   57.8370   31.6990   50.5820 N   0  0  0  0  0  0  0  0  0  0  0  0
   57.9820   30.4300   51.0510 C   0  0  0  0  0  0  0  0  0  0  0  0
   56.9380   29.7560   51.6780 O   0  0  0  0  0  0  0  0  0  0  0  0
   56.0200   29.7150   51.2540 H   0  0  0  0  0  0  0  0  0  0  0  0
   58.4240   27.0890   47.5210 C   0  0  0  0  0  0  0  0  0  0  0  0
   58.2558   26.0448   47.8232 H   0  0  0  0  0  0  0  0  0  0  0  0
   57.6240   27.6640   46.5290 C   0  0  0  0  0  0  0  0  0  0  0  0
   56.8415   27.0631   46.0427 H   0  0  0  0  0  0  0  0  0  0  0  0
  1  2  1  0
  2  3  1  0
  3  4  2  0
  3  5  1  0
  5  6  2  0
  6  7  1  0
  6  8  1  0
  8  9  1  0
  8 10  2  0
 10 11  1  0
 11 12  1  0
 12 13  2  0
 12 14  1  0
 14 15  1  0
 14 16  1  0
 14 17  1  0
 17 18  1  0
 18 19  1  0
 19 20  2  0
 20 21  1  0
 21 22  2  0
 22 23  1  0
 22 24  1  0
 24 25  1  0
 24 26  2  0
 26 27  1  0
 26 28  1  0
 28 29  1  0
 28 30  2  0
 30 31  1  0
 19 32  1  0
 32 33  1  0
 33 34  1  0
 34 35  1  0
 10 36  1  0
 36 37  1  0
 36 38  2  0
 38 39  1  0
 38  5  1  0
 33 17  2  0
 30 21  1  0
M  CHG  3   2  -1  11  -1  32  -1
M  END
>  <UniqueID>  (5) 
5

>  <SMILES>  (5) 
[NH-]C(=O)c1ccc([N-]C(=O)Cc2s/c(=N\c3cc(Cl)ccc3Br)[n-]c2O)cc1

>  <Energy>  (5) 
82.0757524446124

>  <Genealogy>  (5) 
[NH-]C(=O)c1ccc([N-]C(=O)Cc2sc(=Nc3cc(Cl)ccc3Br)[n-]c2O)cc1 (protonated)
[NH-]C(=O)c1ccc([N-]C(=O)Cc2s/c(=N\c3cc(Cl)ccc3Br)[n-]c2O)cc1 (cis-trans isomerization)
[NH-]C(=O)c1ccc([N-]C(=O)Cc2s/c(=N\c3cc(Cl)ccc3Br)[n-]c2O)cc1 (3D coordinates assigned)
[NH-]C(=O)c1ccc([N-]C(=O)Cc2s/c(=N\c3cc(Cl)ccc3Br)[n-]c2O)cc1 (optimized conformer: 82.0757524446124 kcal/mol)

>  <smiles>  (5) 
NC(=O)c1ccc(NC(=O)Cc2sc(=Nc3cc(Cl)ccc3Br)[nH]c2O)cc1

>  <score_type>  (5) 
oracle

>  <origin>  (5) 
adg

>  <m_score__min__energy>  (5) 
-13.470000000000001

>  <m_primary>  (5) 
energy

$$$$
5:0
     RDKit          3D

 48 50  0  0  0  0  0  0  0  0999 V2000
   57.3820   28.8080   43.5240 C   0  0  0  0  0  0  0  0  0  0  0  0
   56.5960   29.7080   44.8440 S   0  0  0  0  0  0  0  0  0  0  0  0
   55.1390   29.3430   44.9040 O   0  0  0  0  0  0  0  0  0  0  0  0
   56.7190   31.1780   44.5610 O   0  0  0  0  0  0  0  0  0  0  0  0
   57.3920   29.3630   46.3560 N   0  0  0  0  0  0  0  0  0  0  0  0
   58.7450   28.8390   46.1550 C   0  0  0  0  0  0  0  0  0  0  0  0
   59.7510   29.6020   46.9750 C   0  0  0  0  0  0  0  0  0  0  0  0
   60.4930   30.6450   46.4040 C   0  0  0  0  0  0  0  0  0  0  0  0
   61.4090   31.3670   47.1730 C   0  0  0  0  0  0  0  0  0  0  0  0
   61.6080   31.0540   48.5330 C   0  0  0  0  0  0  0  0  0  0  0  0
   62.5680   31.8140   49.3850 C   0  0  0  0  0  0  0  0  0  0  0  0
   63.8020   31.5660   49.2700 O   0  0  0  0  0  0  0  0  0  0  0  0
   62.1230   32.7990   50.3580 N   0  0  0  0  0  0  0  0  0  0  0  0
   61.9980   34.1350   49.7300 C   0  0  0  0  0  0  0  0  0  0  0  0
   60.8510   34.1880   48.7040 C   0  0  0  0  0  0  0  0  0  0  0  0
   59.6990   33.4030   49.1620 N   0  0  0  0  0  0  0  0  0  0  0  0
   58.8280   32.7590   48.2120 C   0  0  0  0  0  0  0  0  0  0  0  0
   58.4220   31.5860   48.4340 O   0  0  0  0  0  0  0  0  0  0  0  0
   58.4120   33.4260   46.9650 C   0  0  0  0  0  0  0  0  0  0  0  0
   57.1250   33.4810   46.4400 C   0  0  0  0  0  0  0  0  0  0  0  0
   57.0580   34.1490   45.2110 C   0  0  0  0  0  0  0  0  0  0  0  0
   58.2860   34.6110   44.7580 C   0  0  0  0  0  0  0  0  0  0  0  0
   59.4570   34.1820   45.8850 S   0  0  0  0  0  0  0  0  0  0  0  0
   59.6020   33.0820   50.5870 C   0  0  0  0  0  0  0  0  0  0  0  0
   60.8810   32.3660   51.0670 C   0  0  0  0  0  0  0  0  0  0  0  0
   60.8590   30.0050   49.0980 C   0  0  0  0  0  0  0  0  0  0  0  0
   59.9440   29.2840   48.3250 C   0  0  0  0  0  0  0  0  0  0  0  0
   58.0496   28.0436   43.9482 H   0  0  0  0  0  0  0  0  0  0  0  0
   56.6145   28.3214   42.9042 H   0  0  0  0  0  0  0  0  0  0  0  0
   57.9675   29.5030   42.9042 H   0  0  0  0  0  0  0  0  0  0  0  0
   58.7679   27.7804   46.4530 H   0  0  0  0  0  0  0  0  0  0  0  0
   59.0068   28.9482   45.0922 H   0  0  0  0  0  0  0  0  0  0  0  0
   60.3530   30.8970   45.3424 H   0  0  0  0  0  0  0  0  0  0  0  0
   61.9800   32.1870   46.7132 H   0  0  0  0  0  0  0  0  0  0  0  0
   62.8580   32.8740   51.0990 H   0  0  0  0  0  0  0  0  0  0  0  0
   61.8053   34.8798   50.5162 H   0  0  0  0  0  0  0  0  0  0  0  0
   62.9374   34.3489   49.1991 H   0  0  0  0  0  0  0  0  0  0  0  0
   60.5409   35.2342   48.5648 H   0  0  0  0  0  0  0  0  0  0  0  0
   61.2098   33.7628   47.7550 H   0  0  0  0  0  0  0  0  0  0  0  0
   56.2481   33.0438   46.9399 H   0  0  0  0  0  0  0  0  0  0  0  0
   56.1193   34.2941   44.6561 H   0  0  0  0  0  0  0  0  0  0  0  0
   58.4624   35.1627   43.8228 H   0  0  0  0  0  0  0  0  0  0  0  0
   59.4711   34.0120   51.1596 H   0  0  0  0  0  0  0  0  0  0  0  0
   58.7408   32.4159   50.7441 H   0  0  0  0  0  0  0  0  0  0  0  0
   61.0078   32.5675   52.1409 H   0  0  0  0  0  0  0  0  0  0  0  0
   60.7472   31.2961   50.8494 H   0  0  0  0  0  0  0  0  0  0  0  0
   60.9950   29.7496   50.1593 H   0  0  0  0  0  0  0  0  0  0  0  0
   59.3722   28.4619   48.7801 H   0  0  0  0  0  0  0  0  0  0  0  0
  1  2  1  0
  2  3  2  0
  2  4  2  0
  2  5  1  0
  5  6  1  0
  6  7  1  0
  7  8  2  0
  8  9  1  0
  9 10  2  0
 10 11  1  0
 11 12  2  0
 11 13  1  0
 13 14  1  0
 14 15  1  0
 15 16  1  0
 16 17  1  0
 17 18  2  0
 17 19  1  0
 19 20  2  0
 20 21  1  0
 21 22  2  0
 22 23  1  0
 16 24  1  0
 24 25  1  0
 10 26  1  0
 26 27  2  0
 27  7  1  0
 25 13  1  0
 23 19  1  0
  1 28  1  0
  1 29  1  0
  1 30  1  0
  6 31  1  0
  6 32  1  0
  8 33  1  0
  9 34  1  0
 13 35  1  0
 14 36  1  0
 14 37  1  0
 15 38  1  0
 15 39  1  0
 20 40  1  0
 21 41  1  0
 22 42  1  0
 24 43  1  0
 24 44  1  0
 25 45  1  0
 25 46  1  0
 26 47  1  0
 27 48  1  0
M  CHG  2   5  -1  13   1
M  END
>  <UniqueID>  (6) 
6

>  <SMILES>  (6) 
CS(=O)(=O)[N-]Cc1ccc(C(=O)[NH+]2CCN(C(=O)c3cccs3)CC2)cc1

>  <Energy>  (6) 
86.02062353594565

>  <Genealogy>  (6) 
CS(=O)(=O)[N-]Cc1ccc(C(=O)[NH+]2CCN(C(=O)c3cccs3)CC2)cc1 (protonated)
CS(=O)(=O)[N-]Cc1ccc(C(=O)[NH+]2CCN(C(=O)c3cccs3)CC2)cc1 (3D coordinates assigned)
CS(=O)(=O)[N-]Cc1ccc(C(=O)[NH+]2CCN(C(=O)c3cccs3)CC2)cc1 (nonaromatic ring conformer: 86.02062353594565 kcal/mol)

>  <smiles>  (6) 
CS(=O)(=O)NCc1ccc(C(=O)N2CCN(C(=O)c3cccs3)CC2)cc1

>  <score_type>  (6) 
oracle

>  <origin>  (6) 
adg

>  <m_score__min__energy>  (6) 
-9.0999999999999996

>  <m_primary>  (6) 
energy

$$$$
6:0
     RDKit          3D

 44 47  0  0  0  0  0  0  0  0999 V2000
   51.7280   33.2380   52.5060 H   0  0  0  0  0  0  0  0  0  0  0  0
   51.2290   33.1120   51.6340 O   0  0  0  0  0  0  0  0  0  0  0  0
   51.4980   32.0210   50.8150 C   0  0  0  0  0  0  0  0  0  0  0  0
   50.7450   31.6680   49.7590 N   0  0  0  0  0  0  0  0  0  0  0  0
   51.3990   30.5910   49.2770 C   0  0  0  0  0  0  0  0  0  0  0  0
   51.0030   29.9550   48.2660 O   0  0  0  0  0  0  0  0  0  0  0  0
   52.5130   30.2520   49.9600 N   0  0  0  0  0  0  0  0  0  0  0  0
   52.5550   31.1560   50.9550 C   0  0  0  0  0  0  0  0  0  0  0  0
   53.6390   31.2710   51.9470 C   0  0  0  0  0  0  0  0  0  0  0  0
   53.8866   32.2812   52.3051 H   0  0  0  0  0  0  0  0  0  0  0  0
   54.3580   30.2400   52.4570 C   0  0  0  0  0  0  0  0  0  0  0  0
   55.7690   30.2360   52.6890 C   0  0  0  0  0  0  0  0  0  0  0  0
   56.7470   31.2140   52.1600 C   0  0  0  0  0  0  0  0  0  0  0  0
   56.9990   32.4070   52.8550 C   0  0  0  0  0  0  0  0  0  0  0  0
   56.4574   32.6232   53.7877 H   0  0  0  0  0  0  0  0  0  0  0  0
   57.9350   33.3200   52.3660 C   0  0  0  0  0  0  0  0  0  0  0  0
   58.1177   34.2608   52.9060 H   0  0  0  0  0  0  0  0  0  0  0  0
   58.6400   33.0420   51.1930 C   0  0  0  0  0  0  0  0  0  0  0  0
   59.3726   33.7682   50.8110 H   0  0  0  0  0  0  0  0  0  0  0  0
   58.4210   31.8460   50.5000 C   0  0  0  0  0  0  0  0  0  0  0  0
   59.1800   31.5930   49.3100 N   0  0  0  0  0  0  0  0  0  0  0  0
   60.0890   32.7820   48.4320 S   0  0  0  0  0  0  0  0  0  0  0  0
   60.4380   33.9130   49.3590 O   0  0  0  0  0  0  0  0  0  0  0  0
   61.3560   32.1570   47.9220 O   0  0  0  0  0  0  0  0  0  0  0  0
   59.1510   33.3680   47.0620 C   0  0  0  0  0  0  0  0  0  0  0  0
   57.7940   33.0360   46.9500 C   0  0  0  0  0  0  0  0  0  0  0  0
   57.3226   32.3910   47.7061 H   0  0  0  0  0  0  0  0  0  0  0  0
   57.0380   33.5230   45.8790 C   0  0  0  0  0  0  0  0  0  0  0  0
   55.9730   33.2611   45.7944 H   0  0  0  0  0  0  0  0  0  0  0  0
   57.6340   34.3420   44.9160 C   0  0  0  0  0  0  0  0  0  0  0  0
   57.0375   34.7261   44.0754 H   0  0  0  0  0  0  0  0  0  0  0  0
   58.9880   34.6730   45.0210 C   0  0  0  0  0  0  0  0  0  0  0  0
   59.4568   35.3169   44.2624 H   0  0  0  0  0  0  0  0  0  0  0  0
   59.7470   34.1860   46.0900 C   0  0  0  0  0  0  0  0  0  0  0  0
   60.8132   34.4447   46.1690 H   0  0  0  0  0  0  0  0  0  0  0  0
   57.4740   30.9300   50.9920 C   0  0  0  0  0  0  0  0  0  0  0  0
   57.3012   29.9839   50.4581 H   0  0  0  0  0  0  0  0  0  0  0  0
   56.2310   29.0710   53.2970 C   0  0  0  0  0  0  0  0  0  0  0  0
   57.2707   28.8766   53.5991 H   0  0  0  0  0  0  0  0  0  0  0  0
   54.9500   28.0170   53.4930 S   0  0  0  0  0  0  0  0  0  0  0  0
   53.7700   29.0130   52.8370 C   0  0  0  0  0  0  0  0  0  0  0  0
   52.4860   28.6450   52.7590 C   0  0  0  0  0  0  0  0  0  0  0  0
   51.7436   29.3286   52.3213 H   0  0  0  0  0  0  0  0  0  0  0  0
   52.1728   27.6589   53.1325 H   0  0  0  0  0  0  0  0  0  0  0  0
  1  2  1  0
  2  3  1  0
  3  4  1  0
  4  5  1  0
  5  6  2  0
  5  7  1  0
  7  8  1  0
  8  9  1  0
  9 10  1  0
  9 11  2  0
 11 12  1  0
 12 13  1  0
 13 14  2  0
 14 15  1  0
 14 16  1  0
 16 17  1  0
 16 18  2  0
 18 19  1  0
 18 20  1  0
 20 21  1  0
 21 22  1  0
 22 23  2  0
 22 24  2  0
 22 25  1  0
 25 26  2  0
 26 27  1  0
 26 28  1  0
 28 29  1  0
 28 30  2  0
 30 31  1  0
 30 32  1  0
 32 33  1  0
 32 34  2  0
 34 35  1  0
 20 36  2  0
 36 37  1  0
 12 38  2  0
 38 39  1  0
 38 40  1  0
 40 41  1  0
 41 42  2  0
 42 43  1  0
 42 44  1  0
  8  3  2  0
 41 11  1  0
 36 13  1  0
 34 25  1  0
M  CHG  3   4  -1   7  -1  21  -1
M  END
>  <UniqueID>  (7) 
7

>  <SMILES>  (7) 
C=c1scc(-c2cccc([N-]S(=O)(=O)c3ccccc3)c2)/c1=C\c1[n-]c(=O)[n-]c1O

>  <Energy>  (7) 
122.18466570865218

>  <Genealogy>  (7) 
C=c1scc(-c2cccc([N-]S(=O)(=O)c3ccccc3)c2)c1=Cc1[n-]c(=O)[n-]c1O (protonated)
C=c1scc(-c2cccc([N-]S(=O)(=O)c3ccccc3)c2)/c1=C\c1[n-]c(=O)[n-]c1O (cis-trans isomerization)
C=c1scc(-c2cccc([N-]S(=O)(=O)c3ccccc3)c2)/c1=C\c1[n-]c(=O)[n-]c1O (3D coordinates assigned)
C=c1scc(-c2cccc([N-]S(=O)(=O)c3ccccc3)c2)/c1=C\c1[n-]c(=O)[n-]c1O (optimized conformer: 122.18466570865218 kcal/mol)

>  <smiles>  (7) 
C=c1scc(-c2cccc(NS(=O)(=O)c3ccccc3)c2)c1=Cc1[nH]c(=O)[nH]c1O

>  <score_type>  (7) 
oracle

>  <origin>  (7) 
adg

>  <m_score__min__energy>  (7) 
-15.720000000000001

>  <m_primary>  (7) 
energy

$$$$
7:0
     RDKit          3D

 43 45  0  0  0  0  0  0  0  0999 V2000
   59.8450   29.1540   44.5080 C   0  0  0  0  0  0  0  0  0  0  0  0
   59.7170   28.9780   45.9980 C   0  0  0  0  0  0  0  0  0  0  0  0
   60.7490   29.4570   46.8250 C   0  0  0  0  0  0  0  0  0  0  0  0
   60.6590   29.3470   48.2130 C   0  0  0  0  0  0  0  0  0  0  0  0
   59.5310   28.7700   48.7950 C   0  0  0  0  0  0  0  0  0  0  0  0
   58.4900   28.3010   47.9920 C   0  0  0  0  0  0  0  0  0  0  0  0
   58.5660   28.4020   46.5930 C   0  0  0  0  0  0  0  0  0  0  0  0
   57.2380   27.7460   45.6230 S   0  0  0  0  0  0  0  0  0  0  0  0
   57.7700   27.0380   44.4080 O   0  0  0  0  0  0  0  0  0  0  0  0
   56.4540   26.7550   46.4350 O   0  0  0  0  0  0  0  0  0  0  0  0
   56.1950   29.0340   45.1190 N   0  0  0  0  0  0  0  0  0  0  0  0
   56.6870   30.3230   44.7420 C   0  0  0  0  0  0  0  0  0  0  0  0
   56.2780   30.8770   43.6870 O   0  0  0  0  0  0  0  0  0  0  0  0
   57.5160   31.0570   45.6420 N   0  0  0  0  0  0  0  0  0  0  0  0
   57.9160   32.2970   45.5840 C   0  0  0  0  0  0  0  0  0  0  0  0
   57.7580   33.1770   44.1650 S   0  0  0  0  0  0  0  0  0  0  0  0
   58.3840   34.5820   44.8190 C   0  0  0  0  0  0  0  0  0  0  0  0
   58.7410   34.3240   46.1350 C   0  0  0  0  0  0  0  0  0  0  0  0
   59.3410   35.3310   46.8970 O   0  0  0  0  0  0  0  0  0  0  0  0
   58.4940   33.0430   46.5830 N   0  0  0  0  0  0  0  0  0  0  0  0
   59.0500   32.5160   47.8460 C   0  0  0  0  0  0  0  0  0  0  0  0
   60.4870   32.9410   48.0350 C   0  0  0  0  0  0  0  0  0  0  0  0
   61.4540   32.6070   47.0730 C   0  0  0  0  0  0  0  0  0  0  0  0
   62.7910   32.9720   47.2550 C   0  0  0  0  0  0  0  0  0  0  0  0
   63.1780   33.6610   48.4070 C   0  0  0  0  0  0  0  0  0  0  0  0
   62.2280   33.9790   49.3810 C   0  0  0  0  0  0  0  0  0  0  0  0
   60.8900   33.6150   49.2020 C   0  0  0  0  0  0  0  0  0  0  0  0
   60.4798   30.0268   44.2951 H   0  0  0  0  0  0  0  0  0  0  0  0
   60.3007   28.2536   44.0702 H   0  0  0  0  0  0  0  0  0  0  0  0
   58.8480   29.3102   44.0702 H   0  0  0  0  0  0  0  0  0  0  0  0
   61.6366   29.9234   46.3726 H   0  0  0  0  0  0  0  0  0  0  0  0
   61.4780   29.7155   48.8482 H   0  0  0  0  0  0  0  0  0  0  0  0
   59.4613   28.6842   49.8894 H   0  0  0  0  0  0  0  0  0  0  0  0
   57.6026   27.8485   48.4587 H   0  0  0  0  0  0  0  0  0  0  0  0
   58.4939   35.5440   44.2970 H   0  0  0  0  0  0  0  0  0  0  0  0
   58.8380   36.0310   47.4210 H   0  0  0  0  0  0  0  0  0  0  0  0
   58.4509   32.8957   48.6868 H   0  0  0  0  0  0  0  0  0  0  0  0
   59.0161   31.4172   47.8075 H   0  0  0  0  0  0  0  0  0  0  0  0
   61.1571   32.0541   46.1696 H   0  0  0  0  0  0  0  0  0  0  0  0
   63.5392   32.7164   46.4903 H   0  0  0  0  0  0  0  0  0  0  0  0
   64.2293   33.9528   48.5471 H   0  0  0  0  0  0  0  0  0  0  0  0
   62.5335   34.5169   50.2906 H   0  0  0  0  0  0  0  0  0  0  0  0
   60.1486   33.8569   49.9778 H   0  0  0  0  0  0  0  0  0  0  0  0
  1  2  1  0
  2  3  2  0
  3  4  1  0
  4  5  2  0
  5  6  1  0
  6  7  2  0
  7  8  1  0
  8  9  2  0
  8 10  2  0
  8 11  1  0
 11 12  1  0
 12 13  2  0
 12 14  1  0
 14 15  2  3
 15 16  1  0
 16 17  1  0
 17 18  2  0
 18 19  1  0
 18 20  1  0
 20 21  1  0
 21 22  1  0
 22 23  2  0
 23 24  1  0
 24 25  2  0
 25 26  1  0
 26 27  2  0
  7  2  1  0
 20 15  1  0
 27 22  1  0
  1 28  1  0
  1 29  1  0
  1 30  1  0
  3 31  1  0
  4 32  1  0
  5 33  1  0
  6 34  1  0
 17 35  1  0
 19 36  1  0
 21 37  1  0
 21 38  1  0
 23 39  1  0
 24 40  1  0
 25 41  1  0
 26 42  1  0
 27 43  1  0
M  CHG  1  11  -1
M  END
>  <UniqueID>  (8) 
8

>  <SMILES>  (8) 
Cc1ccccc1S(=O)(=O)[N-]C(=O)N=c1scc(O)n1Cc1ccccc1

>  <Energy>  (8) 
94.57698134731021

>  <Genealogy>  (8) 
Cc1ccccc1S(=O)(=O)[N-]C(=O)N=c1scc(O)n1Cc1ccccc1 (protonated)
Cc1ccccc1S(=O)(=O)[N-]C(=O)N=c1scc(O)n1Cc1ccccc1 (3D coordinates assigned)
Cc1ccccc1S(=O)(=O)[N-]C(=O)N=c1scc(O)n1Cc1ccccc1 (optimized conformer: 94.57698134731021 kcal/mol)

>  <smiles>  (8) 
Cc1ccccc1S(=O)(=O)NC(=O)N=c1scc(O)n1Cc1ccccc1

>  <score_type>  (8) 
oracle

>  <origin>  (8) 
adg

>  <m_score__min__energy>  (8) 
-9.9600000000000009

>  <m_primary>  (8) 
energy

$$$$
8:0
     RDKit          3D

 62 64  0  0  0  0  0  0  0  0999 V2000
   59.3520   27.3460   47.6960 C   0  0  0  0  0  0  0  0  0  0  0  0
   58.6510   27.7180   46.3800 C   0  0  0  0  0  0  0  0  0  0  0  0
   59.7190   27.8840   45.2800 C   0  0  0  0  0  0  0  0  0  0  0  0
   57.5640   26.6820   45.9620 C   0  0  1  0  0  0  0  0  0  0  0  0
   57.3530   25.7000   47.0310 N   0  0  0  0  0  0  0  0  0  0  0  0
   57.2710   24.2780   46.8580 C   0  0  0  0  0  0  0  0  0  0  0  0
   57.3650   23.5310   47.8770 O   0  0  0  0  0  0  0  0  0  0  0  0
   57.0380   23.6620   45.5330 C   0  0  0  0  0  0  0  0  0  0  0  0
   57.9130   22.6810   45.0330 C   0  0  0  0  0  0  0  0  0  0  0  0
   57.6830   22.1020   43.7840 C   0  0  0  0  0  0  0  0  0  0  0  0
   56.5990   22.5180   43.0100 C   0  0  0  0  0  0  0  0  0  0  0  0
   55.7430   23.5140   43.4850 C   0  0  0  0  0  0  0  0  0  0  0  0
   55.9630   24.0870   44.7400 C   0  0  0  0  0  0  0  0  0  0  0  0
   56.2260   27.3120   45.6570 C   0  0  0  0  0  0  0  0  0  0  0  0
   55.1760   26.7040   45.9900 O   0  0  0  0  0  0  0  0  0  0  0  0
   56.1250   28.5820   45.0090 N   0  0  0  0  0  0  0  0  0  0  0  0
   56.9190   28.9560   43.8480 C   0  0  0  0  0  0  0  0  0  0  0  0
   56.9040   30.4410   43.6420 C   0  0  0  0  0  0  0  0  0  0  0  0
   57.0470   30.9030   42.4820 O   0  0  0  0  0  0  0  0  0  0  0  0
   56.5360   31.3320   44.7000 N   0  0  0  0  0  0  0  0  0  0  0  0
   57.4300   31.8970   45.6640 C   0  0  0  0  0  0  0  0  0  0  0  0
   58.2750   31.0520   46.3880 C   0  0  0  0  0  0  0  0  0  0  0  0
   59.1170   31.5720   47.3780 C   0  0  0  0  0  0  0  0  0  0  0  0
   59.1010   32.9430   47.6730 C   0  0  0  0  0  0  0  0  0  0  0  0
   60.1190   33.5910   48.9620 S   0  0  0  0  0  0  0  0  0  0  0  0
   59.9900   32.7170   50.1750 O   0  0  0  0  0  0  0  0  0  0  0  0
   59.6420   34.9680   49.3300 O   0  0  0  0  0  0  0  0  0  0  0  0
   61.7960   33.6790   48.4830 N   0  0  0  0  0  0  0  0  0  0  0  0
   62.5740   32.5780   49.0640 C   0  0  0  0  0  0  0  0  0  0  0  0
   64.0600   32.7280   48.6720 C   0  0  0  0  0  0  0  0  0  0  0  0
   64.2570   33.7270   47.6880 O   0  0  0  0  0  0  0  0  0  0  0  0
   63.3940   33.4960   46.5940 C   0  0  0  0  0  0  0  0  0  0  0  0
   61.9230   33.6800   47.0160 C   0  0  0  0  0  0  0  0  0  0  0  0
   58.2440   33.7880   46.9620 C   0  0  0  0  0  0  0  0  0  0  0  0
   57.4070   33.2670   45.9640 C   0  0  0  0  0  0  0  0  0  0  0  0
   58.7348   27.6735   48.5455 H   0  0  0  0  0  0  0  0  0  0  0  0
   59.4905   26.2557   47.7422 H   0  0  0  0  0  0  0  0  0  0  0  0
   60.3325   27.8424   47.7422 H   0  0  0  0  0  0  0  0  0  0  0  0
   58.1150   28.6670   46.5286 H   0  0  0  0  0  0  0  0  0  0  0  0
   60.7039   28.0371   45.7453 H   0  0  0  0  0  0  0  0  0  0  0  0
   59.7454   26.9792   44.6550 H   0  0  0  0  0  0  0  0  0  0  0  0
   59.4695   28.7542   44.6550 H   0  0  0  0  0  0  0  0  0  0  0  0
   57.9469   26.2071   45.0466 H   0  0  0  0  0  0  0  0  0  0  0  0
   58.7830   22.3685   45.6292 H   0  0  0  0  0  0  0  0  0  0  0  0
   58.3567   21.3172   43.4095 H   0  0  0  0  0  0  0  0  0  0  0  0
   56.4187   22.0614   42.0256 H   0  0  0  0  0  0  0  0  0  0  0  0
   54.8943   23.8478   42.8700 H   0  0  0  0  0  0  0  0  0  0  0  0
   55.2896   24.8753   45.1076 H   0  0  0  0  0  0  0  0  0  0  0  0
   57.9568   28.6245   44.0001 H   0  0  0  0  0  0  0  0  0  0  0  0
   56.4869   28.4746   42.9583 H   0  0  0  0  0  0  0  0  0  0  0  0
   58.2786   29.9721   46.1789 H   0  0  0  0  0  0  0  0  0  0  0  0
   59.7946   30.9019   47.9274 H   0  0  0  0  0  0  0  0  0  0  0  0
   62.4805   32.6025   50.1597 H   0  0  0  0  0  0  0  0  0  0  0  0
   62.1912   31.6200   48.6822 H   0  0  0  0  0  0  0  0  0  0  0  0
   64.6374   32.9961   49.5691 H   0  0  0  0  0  0  0  0  0  0  0  0
   64.3958   31.7690   48.2505 H   0  0  0  0  0  0  0  0  0  0  0  0
   63.6312   34.2079   45.7897 H   0  0  0  0  0  0  0  0  0  0  0  0
   63.5357   32.4635   46.2420 H   0  0  0  0  0  0  0  0  0  0  0  0
   61.5520   34.6379   46.6225 H   0  0  0  0  0  0  0  0  0  0  0  0
   61.3327   32.8452   46.6104 H   0  0  0  0  0  0  0  0  0  0  0  0
   58.2259   34.8648   47.1858 H   0  0  0  0  0  0  0  0  0  0  0  0
   56.7292   33.9363   45.4139 H   0  0  0  0  0  0  0  0  0  0  0  0
  1  2  1  0
  2  3  1  0
  2  4  1  0
  4  5  1  0
  5  6  1  0
  6  7  2  0
  6  8  1  0
  8  9  2  0
  9 10  1  0
 10 11  2  0
 11 12  1  0
 12 13  2  0
  4 14  1  0
 14 15  2  0
 14 16  1  0
 16 17  1  0
 17 18  1  0
 18 19  2  0
 18 20  1  0
 20 21  1  0
 21 22  2  0
 22 23  1  0
 23 24  2  0
 24 25  1  0
 25 26  2  0
 25 27  2  0
 25 28  1  0
 28 29  1  0
 29 30  1  0
 30 31  1  0
 31 32  1  0
 32 33  1  0
 24 34  1  0
 34 35  2  0
 13  8  1  0
 35 21  1  0
 33 28  1  0
  1 36  1  0
  1 37  1  0
  1 38  1  0
  2 39  1  0
  3 40  1  0
  3 41  1  0
  3 42  1  0
  4 43  1  6
  9 44  1  0
 10 45  1  0
 11 46  1  0
 12 47  1  0
 13 48  1  0
 17 49  1  0
 17 50  1  0
 22 51  1  0
 23 52  1  0
 29 53  1  0
 29 54  1  0
 30 55  1  0
 30 56  1  0
 32 57  1  0
 32 58  1  0
 33 59  1  0
 33 60  1  0
 34 61  1  0
 35 62  1  0
M  CHG  3   5  -1  16  -1  20  -1
M  END
>  <UniqueID>  (9) 
9

>  <SMILES>  (9) 
CC(C)[C@@H]([N-]C(=O)c1ccccc1)C(=O)[N-]CC(=O)[N-]c1ccc(S(=O)(=O)N2CCOCC2)cc1

>  <Energy>  (9) 
78.20272128659035

>  <Genealogy>  (9) 
CC(C)C([N-]C(=O)c1ccccc1)C(=O)[N-]CC(=O)[N-]c1ccc(S(=O)(=O)N2CCOCC2)cc1 (protonated)
CC(C)[C@@H]([N-]C(=O)c1ccccc1)C(=O)[N-]CC(=O)[N-]c1ccc(S(=O)(=O)N2CCOCC2)cc1 (chirality)
CC(C)[C@@H]([N-]C(=O)c1ccccc1)C(=O)[N-]CC(=O)[N-]c1ccc(S(=O)(=O)N2CCOCC2)cc1 (3D coordinates assigned)
CC(C)[C@@H]([N-]C(=O)c1ccccc1)C(=O)[N-]CC(=O)[N-]c1ccc(S(=O)(=O)N2CCOCC2)cc1 (nonaromatic ring conformer: 78.20272128659035 kcal/mol)

>  <smiles>  (9) 
CC(C)C(NC(=O)c1ccccc1)C(=O)NCC(=O)Nc1ccc(S(=O)(=O)N2CCOCC2)cc1

>  <score_type>  (9) 
oracle

>  <origin>  (9) 
adg

>  <m_score__min__energy>  (9) 
-15.130000000000001

>  <m_primary>  (9) 
energy

$$$$
9:0
     RDKit          3D

 61 65  0  0  0  0  0  0  0  0999 V2000
   56.2580   24.4250   44.6330 C   0  0  0  0  0  0  0  0  0  0  0  0
   56.1480   25.5650   45.9910 S   0  0  0  0  0  0  0  0  0  0  0  0
   56.2690   24.8170   47.2870 O   0  0  0  0  0  0  0  0  0  0  0  0
   54.8170   26.2590   45.9570 O   0  0  0  0  0  0  0  0  0  0  0  0
   57.4400   26.7530   45.8700 C   0  0  0  0  0  0  0  0  0  0  0  0
   58.7750   26.3350   45.8300 C   0  0  0  0  0  0  0  0  0  0  0  0
   59.8010   27.2770   45.7240 C   0  0  0  0  0  0  0  0  0  0  0  0
   59.5010   28.6400   45.6620 C   0  0  0  0  0  0  0  0  0  0  0  0
   58.1680   29.0780   45.7220 C   0  0  0  0  0  0  0  0  0  0  0  0
   57.8410   30.5230   45.6400 C   0  0  0  0  0  0  0  0  0  0  0  0
   56.9410   30.9170   44.8510 O   0  0  0  0  0  0  0  0  0  0  0  0
   58.5390   31.4910   46.4410 N   0  0  0  0  0  0  0  0  0  0  0  0
   59.0170   32.7260   45.8120 C   0  0  0  0  0  0  0  0  0  0  0  0
   59.6420   33.6690   46.8520 C   0  0  0  0  0  0  0  0  0  0  0  0
   60.5340   32.9210   47.7640 N   0  0  0  0  0  0  0  0  0  0  0  0
   61.3330   33.7790   48.6450 C   0  0  0  0  0  0  0  0  0  0  0  0
   61.0030   34.9590   48.7250 O   0  0  0  0  0  0  0  0  0  0  0  0
   62.5300   33.3100   49.5220 C   0  0  1  0  0  0  0  0  0  0  0  0
   63.0920   34.5320   50.3260 C   0  0  0  0  0  0  0  0  0  0  0  0
   64.2500   34.1050   51.2560 C   0  0  2  0  0  0  0  0  0  0  0  0
   65.3950   33.5000   50.4160 C   0  0  0  0  0  0  0  0  0  0  0  0
   64.8680   32.2780   49.6400 C   0  0  1  0  0  0  0  0  0  0  0  0
   64.3460   31.2180   50.6340 C   0  0  0  0  0  0  0  0  0  0  0  0
   63.2100   31.8250   51.4870 C   0  0  1  0  0  0  0  0  0  0  0  0
   63.7390   33.0510   52.2600 C   0  0  0  0  0  0  0  0  0  0  0  0
   62.0490   32.2540   50.5630 C   0  0  0  0  0  0  0  0  0  0  0  0
   63.7260   32.7270   48.7010 C   0  0  0  0  0  0  0  0  0  0  0  0
   59.8810   31.8000   48.4970 C   0  0  0  0  0  0  0  0  0  0  0  0
   58.5200   31.3850   47.9040 C   0  0  0  0  0  0  0  0  0  0  0  0
   57.1380   28.1220   45.8230 C   0  0  0  0  0  0  0  0  0  0  0  0
   56.3568   23.4006   45.0213 H   0  0  0  0  0  0  0  0  0  0  0  0
   55.3486   24.4980   44.0184 H   0  0  0  0  0  0  0  0  0  0  0  0
   57.1366   24.6705   44.0184 H   0  0  0  0  0  0  0  0  0  0  0  0
   59.0167   25.2632   45.8821 H   0  0  0  0  0  0  0  0  0  0  0  0
   60.8489   26.9444   45.6892 H   0  0  0  0  0  0  0  0  0  0  0  0
   60.3139   29.3747   45.5656 H   0  0  0  0  0  0  0  0  0  0  0  0
   59.7738   32.4740   45.0545 H   0  0  0  0  0  0  0  0  0  0  0  0
   58.1605   33.2361   45.3471 H   0  0  0  0  0  0  0  0  0  0  0  0
   60.2241   34.4447   46.3329 H   0  0  0  0  0  0  0  0  0  0  0  0
   58.8362   34.1290   47.4428 H   0  0  0  0  0  0  0  0  0  0  0  0
   61.2240   32.4590   47.1200 H   0  0  0  0  0  0  0  0  0  0  0  0
   62.2836   34.9633   50.9346 H   0  0  0  0  0  0  0  0  0  0  0  0
   63.4762   35.2730   49.6095 H   0  0  0  0  0  0  0  0  0  0  0  0
   64.6230   34.9845   51.8012 H   0  0  0  0  0  0  0  0  0  0  0  0
   66.2132   33.1875   51.0815 H   0  0  0  0  0  0  0  0  0  0  0  0
   65.7687   34.2532   49.7067 H   0  0  0  0  0  0  0  0  0  0  0  0
   65.6808   31.8386   49.0431 H   0  0  0  0  0  0  0  0  0  0  0  0
   65.1670   30.8971   51.2921 H   0  0  0  0  0  0  0  0  0  0  0  0
   63.9619   30.3511   50.0764 H   0  0  0  0  0  0  0  0  0  0  0  0
   62.8490   31.0738   52.2049 H   0  0  0  0  0  0  0  0  0  0  0  0
   64.5632   32.7419   52.9197 H   0  0  0  0  0  0  0  0  0  0  0  0
   62.9288   33.4820   52.8664 H   0  0  0  0  0  0  0  0  0  0  0  0
   61.2447   32.6902   51.1736 H   0  0  0  0  0  0  0  0  0  0  0  0
   61.6830   31.3684   50.0229 H   0  0  0  0  0  0  0  0  0  0  0  0
   64.1047   33.5004   48.0165 H   0  0  0  0  0  0  0  0  0  0  0  0
   63.3720   31.8538   48.1333 H   0  0  0  0  0  0  0  0  0  0  0  0
   60.5523   30.9290   48.4700 H   0  0  0  0  0  0  0  0  0  0  0  0
   59.6926   32.1512   49.5223 H   0  0  0  0  0  0  0  0  0  0  0  0
   58.3043   30.3444   48.1881 H   0  0  0  0  0  0  0  0  0  0  0  0
   57.7427   32.0565   48.2976 H   0  0  0  0  0  0  0  0  0  0  0  0
   56.0894   28.4516   45.8653 H   0  0  0  0  0  0  0  0  0  0  0  0
  1  2  1  0
  2  3  2  0
  2  4  2  0
  2  5  1  0
  5  6  2  0
  6  7  1  0
  7  8  2  0
  8  9  1  0
  9 10  1  0
 10 11  2  0
 10 12  1  0
 12 13  1  0
 13 14  1  0
 14 15  1  0
 15 16  1  0
 16 17  2  0
 18 16  1  6
 18 19  1  0
 19 20  1  0
 20 21  1  0
 21 22  1  0
 22 23  1  0
 23 24  1  0
 24 25  1  0
 24 26  1  0
 22 27  1  0
 15 28  1  0
 28 29  1  0
  9 30  2  0
 30  5  1  0
 29 12  1  0
 26 18  1  0
 27 18  1  0
 25 20  1  0
  1 31  1  0
  1 32  1  0
  1 33  1  0
  6 34  1  0
  7 35  1  0
  8 36  1  0
 13 37  1  0
 13 38  1  0
 14 39  1  0
 14 40  1  0
 15 41  1  0
 19 42  1  0
 19 43  1  0
 20 44  1  1
 21 45  1  0
 21 46  1  0
 22 47  1  6
 23 48  1  0
 23 49  1  0
 24 50  1  1
 25 51  1  0
 25 52  1  0
 26 53  1  0
 26 54  1  0
 27 55  1  0
 27 56  1  0
 28 57  1  0
 28 58  1  0
 29 59  1  0
 29 60  1  0
 30 61  1  0
M  CHG  1  15   1
M  END
>  <UniqueID>  (10) 
10

>  <SMILES>  (10) 
CS(=O)(=O)c1cccc(C(=O)N2CC[NH+](C(=O)C34CC5CC(CC(C5)C3)C4)CC2)c1

>  <Energy>  (10) 
82.15517964262375

>  <Genealogy>  (10) 
CS(=O)(=O)c1cccc(C(=O)N2CC[NH+](C(=O)C34CC5CC(CC(C5)C3)C4)CC2)c1 (protonated)
CS(=O)(=O)c1cccc(C(=O)N2CC[NH+](C(=O)C34CC5CC(CC(C5)C3)C4)CC2)c1 (3D coordinates assigned)
CS(=O)(=O)c1cccc(C(=O)N2CC[NH+](C(=O)C34CC5CC(CC(C5)C3)C4)CC2)c1 (nonaromatic ring conformer: 82.15517964262375 kcal/mol)

>  <smiles>  (10) 
CS(=O)(=O)c1cccc(C(=O)N2CCN(C(=O)C34CC5CC(CC(C5)C3)C4)CC2)c1

>  <score_type>  (10) 
oracle

>  <origin>  (10) 
adg

>  <m_score__min__energy>  (10) 
-8.8200000000000003

>  <m_primary>  (10) 
energy

$$$$
10:0
     RDKit          3D

 36 38  0  0  0  0  0  0  0  0999 V2000
   57.9710   31.0400   53.9620 C   0  0  0  0  0  0  0  0  0  0  0  0
   57.3150   31.2640   52.3250 S   0  0  0  0  0  0  0  0  0  0  0  0
   56.2990   32.3720   52.3380 O   0  0  0  0  0  0  0  0  0  0  0  0
   56.6420   29.9980   51.8750 O   0  0  0  0  0  0  0  0  0  0  0  0
   58.6250   31.6690   51.2210 C   0  0  0  0  0  0  0  0  0  0  0  0
   59.2670   30.6620   50.4900 C   0  0  0  0  0  0  0  0  0  0  0  0
   60.2990   30.9840   49.6050 C   0  0  0  0  0  0  0  0  0  0  0  0
   60.7040   32.3190   49.4410 C   0  0  0  0  0  0  0  0  0  0  0  0
   61.7920   32.6710   48.5020 C   0  0  0  0  0  0  0  0  0  0  0  0
   61.6680   33.2120   47.2790 C   0  0  0  0  0  0  0  0  0  0  0  0
   60.4150   33.4650   46.5320 C   0  0  0  0  0  0  0  0  0  0  0  0
   59.4760   32.4330   46.3620 C   0  0  0  0  0  0  0  0  0  0  0  0
   58.2880   32.6670   45.6630 C   0  0  0  0  0  0  0  0  0  0  0  0
   58.0250   33.9330   45.1330 C   0  0  0  0  0  0  0  0  0  0  0  0
   58.9460   34.9690   45.3070 C   0  0  0  0  0  0  0  0  0  0  0  0
   60.1350   34.7400   46.0070 C   0  0  0  0  0  0  0  0  0  0  0  0
   63.0210   33.4520   46.7640 C   0  0  0  0  0  0  0  0  0  0  0  0
   63.3010   33.9290   45.6330 O   0  0  0  0  0  0  0  0  0  0  0  0
   64.0010   33.0390   47.7030 N   0  0  0  0  0  0  0  0  0  0  0  0
   63.2270   32.5510   48.7860 C   0  0  0  0  0  0  0  0  0  0  0  0
   63.7270   32.1070   49.8530 O   0  0  0  0  0  0  0  0  0  0  0  0
   60.0420   33.3280   50.1590 C   0  0  0  0  0  0  0  0  0  0  0  0
   59.0100   33.0050   51.0450 C   0  0  0  0  0  0  0  0  0  0  0  0
   57.2025   31.3024   54.7040 H   0  0  0  0  0  0  0  0  0  0  0  0
   58.2680   29.9895   54.0974 H   0  0  0  0  0  0  0  0  0  0  0  0
   58.8484   31.6895   54.0974 H   0  0  0  0  0  0  0  0  0  0  0  0
   58.9577   29.6136   50.6130 H   0  0  0  0  0  0  0  0  0  0  0  0
   60.7974   30.1873   49.0332 H   0  0  0  0  0  0  0  0  0  0  0  0
   59.6769   31.4360   46.7811 H   0  0  0  0  0  0  0  0  0  0  0  0
   57.5595   31.8536   45.5301 H   0  0  0  0  0  0  0  0  0  0  0  0
   57.0924   34.1139   44.5785 H   0  0  0  0  0  0  0  0  0  0  0  0
   58.7357   35.9662   44.8929 H   0  0  0  0  0  0  0  0  0  0  0  0
   60.8543   35.5602   46.1477 H   0  0  0  0  0  0  0  0  0  0  0  0
   65.0410   33.0830   47.6170 H   0  0  0  0  0  0  0  0  0  0  0  0
   60.3372   34.3789   50.0235 H   0  0  0  0  0  0  0  0  0  0  0  0
   58.4988   33.8016   51.6055 H   0  0  0  0  0  0  0  0  0  0  0  0
  1  2  1  0
  2  3  2  0
  2  4  2  0
  2  5  1  0
  5  6  2  0
  6  7  1  0
  7  8  2  0
  8  9  1  0
  9 10  2  0
 10 11  1  0
 11 12  2  0
 12 13  1  0
 13 14  2  0
 14 15  1  0
 15 16  2  0
 10 17  1  0
 17 18  2  0
 17 19  1  0
 19 20  1  0
 20 21  2  0
  8 22  1  0
 22 23  2  0
 23  5  1  0
 20  9  1  0
 16 11  1  0
  1 24  1  0
  1 25  1  0
  1 26  1  0
  6 27  1  0
  7 28  1  0
 12 29  1  0
 13 30  1  0
 14 31  1  0
 15 32  1  0
 16 33  1  0
 19 34  1  0
 22 35  1  0
 23 36  1  0
M  END
>  <UniqueID>  (11) 
11

>  <SMILES>  (11) 
CS(=O)(=O)c1ccc(C2=C(c3ccccc3)C(=O)NC2=O)cc1

>  <Energy>  (11) 
71.07937071038127

>  <Genealogy>  (11) 
CS(=O)(=O)c1ccc(C2=C(c3ccccc3)C(=O)NC2=O)cc1 (3D coordinates assigned)
CS(=O)(=O)c1ccc(C2=C(c3ccccc3)C(=O)NC2=O)cc1 (nonaromatic ring conformer: 71.07937071038127 kcal/mol)

>  <smiles>  (11) 
CS(=O)(=O)c1ccc(C2=C(c3ccccc3)C(=O)NC2=O)cc1

>  <score_type>  (11) 
oracle

>  <origin>  (11) 
adg

>  <m_score__min__energy>  (11) 
-8.0399999999999991

>  <m_primary>  (11) 
energy

$$$$
11:0
     RDKit          3D

 68 72  0  0  0  0  0  0  0  0999 V2000
   66.1920   32.8310   49.5890 N   0  0  0  0  0  0  0  0  0  0  0  0
   64.6910   32.4410   50.3560 S   0  0  0  0  0  0  0  0  0  0  0  0
   64.6520   30.9710   50.6660 O   0  0  0  0  0  0  0  0  0  0  0  0
   64.5810   33.2070   51.6440 O   0  0  0  0  0  0  0  0  0  0  0  0
   63.3510   32.8440   49.2820 C   0  0  0  0  0  0  0  0  0  0  0  0
   62.2580   33.5980   49.7380 C   0  0  0  0  0  0  0  0  0  0  0  0
   61.1920   33.8880   48.8790 C   0  0  0  0  0  0  0  0  0  0  0  0
   61.2120   33.4380   47.5490 C   0  0  0  0  0  0  0  0  0  0  0  0
   60.0760   33.6960   46.6430 C   0  0  0  0  0  0  0  0  0  0  0  0
   59.4870   32.7330   45.8980 N   0  0  0  0  0  0  0  0  0  0  0  0
   58.4240   33.2050   45.1920 C   0  0  0  0  0  0  0  0  0  0  0  0
   57.6540   32.3300   44.2920 C   0  0  0  0  0  0  0  0  0  0  0  0
   57.5550   32.6210   43.0730 O   0  0  0  0  0  0  0  0  0  0  0  0
   57.0030   31.1490   44.7850 N   0  0  0  0  0  0  0  0  0  0  0  0
   57.5540   29.8240   44.7250 C   0  0  0  0  0  0  0  0  0  0  0  0
   57.2300   28.9960   43.6470 C   0  0  0  0  0  0  0  0  0  0  0  0
   57.7790   27.7160   43.5540 C   0  0  0  0  0  0  0  0  0  0  0  0
   58.6680   27.2560   44.5300 C   0  0  0  0  0  0  0  0  0  0  0  0
   59.0170   28.0790   45.6150 C   0  0  0  0  0  0  0  0  0  0  0  0
   60.0190   27.6400   46.6150 C   0  0  0  0  0  0  0  0  0  0  0  0
   60.5890   26.5260   46.4550 O   0  0  0  0  0  0  0  0  0  0  0  0
   60.3320   28.4330   47.7780 N   0  0  0  0  0  0  0  0  0  0  0  0
   60.4460   27.7520   49.0760 C   0  0  0  0  0  0  0  0  0  0  0  0
   61.0070   28.6650   50.1750 C   0  0  0  0  0  0  0  0  0  0  0  0
   60.4330   30.1070   50.1830 C   0  0  0  0  0  0  0  0  0  0  0  0
   59.3890   30.2520   51.2340 N   0  0  0  0  0  0  0  0  0  0  0  0
   59.6060   29.3270   52.3760 C   0  0  0  0  0  0  0  0  0  0  0  0
   58.6510   29.5650   53.5690 C   0  0  0  0  0  0  0  0  0  0  0  0
   57.1410   30.3770   53.0640 S   0  0  0  0  0  0  0  0  0  0  0  0
   56.4040   30.8800   54.2720 O   0  0  0  0  0  0  0  0  0  0  0  0
   56.2740   29.4080   52.3120 O   0  0  0  0  0  0  0  0  0  0  0  0
   57.5970   31.7380   52.0030 C   0  0  0  0  0  0  0  0  0  0  0  0
   59.0800   31.6360   51.6540 C   0  0  0  0  0  0  0  0  0  0  0  0
   60.0000   30.6400   48.7830 C   0  0  0  0  0  0  0  0  0  0  0  0
   60.6690   29.8560   47.6540 C   0  0  0  0  0  0  0  0  0  0  0  0
   58.4650   29.3700   45.6960 C   0  0  0  0  0  0  0  0  0  0  0  0
   58.1420   34.5570   45.3780 C   0  0  0  0  0  0  0  0  0  0  0  0
   59.2840   35.1740   46.4480 S   0  0  0  0  0  0  0  0  0  0  0  0
   62.3250   32.7080   47.0880 C   0  0  0  0  0  0  0  0  0  0  0  0
   63.3800   32.4060   47.9530 C   0  0  0  0  0  0  0  0  0  0  0  0
   66.7620   31.9580   49.5670 H   0  0  0  0  0  0  0  0  0  0  0  0
   65.9710   33.0660   48.5930 H   0  0  0  0  0  0  0  0  0  0  0  0
   62.2395   33.9626   50.7756 H   0  0  0  0  0  0  0  0  0  0  0  0
   60.3349   34.4709   49.2472 H   0  0  0  0  0  0  0  0  0  0  0  0
   56.5399   29.3542   42.8689 H   0  0  0  0  0  0  0  0  0  0  0  0
   57.5107   27.0658   42.7083 H   0  0  0  0  0  0  0  0  0  0  0  0
   59.0961   26.2460   44.4486 H   0  0  0  0  0  0  0  0  0  0  0  0
   59.4474   27.4062   49.3812 H   0  0  0  0  0  0  0  0  0  0  0  0
   61.1458   26.9125   48.9512 H   0  0  0  0  0  0  0  0  0  0  0  0
   60.7853   28.2036   51.1486 H   0  0  0  0  0  0  0  0  0  0  0  0
   62.0841   28.7629   49.9746 H   0  0  0  0  0  0  0  0  0  0  0  0
   61.2643   30.7754   50.4516 H   0  0  0  0  0  0  0  0  0  0  0  0
   59.4627   28.2966   52.0185 H   0  0  0  0  0  0  0  0  0  0  0  0
   60.6264   29.5098   52.7440 H   0  0  0  0  0  0  0  0  0  0  0  0
   58.3986   28.5946   54.0213 H   0  0  0  0  0  0  0  0  0  0  0  0
   59.1638   30.2180   54.2905 H   0  0  0  0  0  0  0  0  0  0  0  0
   56.9996   31.6997   51.0802 H   0  0  0  0  0  0  0  0  0  0  0  0
   57.4071   32.6884   52.5233 H   0  0  0  0  0  0  0  0  0  0  0  0
   59.3129   32.3299   50.8328 H   0  0  0  0  0  0  0  0  0  0  0  0
   59.6848   31.8976   52.5348 H   0  0  0  0  0  0  0  0  0  0  0  0
   58.9084   30.5449   48.6862 H   0  0  0  0  0  0  0  0  0  0  0  0
   60.3098   31.6924   48.7033 H   0  0  0  0  0  0  0  0  0  0  0  0
   60.3125   30.2338   46.6844 H   0  0  0  0  0  0  0  0  0  0  0  0
   61.7600   29.9807   47.7183 H   0  0  0  0  0  0  0  0  0  0  0  0
   58.7487   30.0318   46.5276 H   0  0  0  0  0  0  0  0  0  0  0  0
   57.3208   35.1193   44.9096 H   0  0  0  0  0  0  0  0  0  0  0  0
   62.3639   32.3737   46.0408 H   0  0  0  0  0  0  0  0  0  0  0  0
   64.2372   31.8214   47.5878 H   0  0  0  0  0  0  0  0  0  0  0  0
  1  2  1  0
  2  3  2  0
  2  4  2  0
  2  5  1  0
  5  6  2  0
  6  7  1  0
  7  8  2  0
  8  9  1  0
  9 10  2  0
 10 11  1  0
 11 12  1  0
 12 13  2  0
 12 14  1  0
 14 15  1  0
 15 16  2  0
 16 17  1  0
 17 18  2  0
 18 19  1  0
 19 20  1  0
 20 21  2  0
 20 22  1  0
 22 23  1  0
 23 24  1  0
 24 25  1  0
 25 26  1  0
 26 27  1  0
 27 28  1  0
 28 29  1  0
 29 30  2  0
 29 31  2  0
 29 32  1  0
 32 33  1  0
 25 34  1  0
 34 35  1  0
 19 36  2  0
 11 37  2  0
 37 38  1  0
  8 39  1  0
 39 40  2  0
 40  5  1  0
 38  9  1  0
 36 15  1  0
 35 22  1  0
 33 26  1  0
  1 41  1  0
  1 42  1  0
  6 43  1  0
  7 44  1  0
 16 45  1  0
 17 46  1  0
 18 47  1  0
 23 48  1  0
 23 49  1  0
 24 50  1  0
 24 51  1  0
 25 52  1  0
 27 53  1  0
 27 54  1  0
 28 55  1  0
 28 56  1  0
 32 57  1  0
 32 58  1  0
 33 59  1  0
 33 60  1  0
 34 61  1  0
 34 62  1  0
 35 63  1  0
 35 64  1  0
 36 65  1  0
 37 66  1  0
 39 67  1  0
 40 68  1  0
M  CHG  1  14  -1
M  END
>  <UniqueID>  (12) 
12

>  <SMILES>  (12) 
NS(=O)(=O)c1ccc(-c2nc(C(=O)[N-]c3cccc(C(=O)N4CCC(N5CCS(=O)(=O)CC5)CC4)c3)cs2)cc1

>  <Energy>  (12) 
121.81875948027088

>  <Genealogy>  (12) 
NS(=O)(=O)c1ccc(-c2nc(C(=O)[N-]c3cccc(C(=O)N4CCC(N5CCS(=O)(=O)CC5)CC4)c3)cs2)cc1 (protonated)
NS(=O)(=O)c1ccc(-c2nc(C(=O)[N-]c3cccc(C(=O)N4CCC(N5CCS(=O)(=O)CC5)CC4)c3)cs2)cc1 (3D coordinates assigned)
NS(=O)(=O)c1ccc(-c2nc(C(=O)[N-]c3cccc(C(=O)N4CCC(N5CCS(=O)(=O)CC5)CC4)c3)cs2)cc1 (nonaromatic ring conformer: 121.81875948027088 kcal/mol)

>  <smiles>  (12) 
NS(=O)(=O)c1ccc(-c2nc(C(=O)Nc3cccc(C(=O)N4CCC(N5CCS(=O)(=O)CC5)CC4)c3)cs2)cc1

>  <score_type>  (12) 
oracle

>  <origin>  (12) 
adg

>  <m_score__min__energy>  (12) 
-11.93

>  <m_primary>  (12) 
energy

$$$$
12:0
     RDKit          3D

 64 67  0  0  0  0  0  0  0  0999 V2000
   56.4136   23.1236   46.9453 H   0  0  0  0  0  0  0  0  0  0  0  0
   57.0220   23.7710   47.5940 C   0  0  0  0  0  0  0  0  0  0  0  0
   57.1503   23.5197   48.6572 H   0  0  0  0  0  0  0  0  0  0  0  0
   57.6080   24.8680   47.0880 C   0  0  0  0  0  0  0  0  0  0  0  0
   58.3730   25.6530   47.9730 C   0  0  0  0  0  0  0  0  0  0  0  0
   58.2758   25.4978   49.0577 H   0  0  0  0  0  0  0  0  0  0  0  0
   59.2490   26.6210   47.4950 C   0  0  0  0  0  0  0  0  0  0  0  0
   59.8291   27.2316   48.2026 H   0  0  0  0  0  0  0  0  0  0  0  0
   59.3960   26.8220   46.1200 C   0  0  0  0  0  0  0  0  0  0  0  0
   60.3630   27.8550   45.6030 C   0  0  0  0  0  0  0  0  0  0  0  0
   60.4420   28.6679   46.3399 H   0  0  0  0  0  0  0  0  0  0  0  0
   61.3347   27.3634   45.4476 H   0  0  0  0  0  0  0  0  0  0  0  0
   59.9100   28.4450   44.2610 C   0  0  0  0  0  0  0  0  0  0  0  0
   60.7616   28.9616   43.7942 H   0  0  0  0  0  0  0  0  0  0  0  0
   59.5522   27.6188   43.6291 H   0  0  0  0  0  0  0  0  0  0  0  0
   58.7790   29.4260   44.4310 C   0  0  0  0  0  0  0  0  0  0  0  0
   58.9510   30.5800   45.2070 C   0  0  0  0  0  0  0  0  0  0  0  0
   59.9266   30.7961   45.6668 H   0  0  0  0  0  0  0  0  0  0  0  0
   57.8730   31.4590   45.3950 C   0  0  0  0  0  0  0  0  0  0  0  0
   57.9740   32.6750   46.2260 C   0  0  0  0  0  0  0  0  0  0  0  0
   57.1260   33.5860   46.0300 O   0  0  0  0  0  0  0  0  0  0  0  0
   59.0850   32.9210   47.1170 N   0  0  0  0  0  0  0  0  0  0  0  0
   59.7160   31.8340   47.8780 C   0  0  0  0  0  0  0  0  0  0  0  0
   58.9367   31.2915   48.4333 H   0  0  0  0  0  0  0  0  0  0  0  0
   60.2300   31.1751   47.1627 H   0  0  0  0  0  0  0  0  0  0  0  0
   60.7620   32.3550   48.8750 C   0  0  0  0  0  0  0  0  0  0  0  0
   60.2454   32.8183   49.7285 H   0  0  0  0  0  0  0  0  0  0  0  0
   61.3781   31.5075   49.2098 H   0  0  0  0  0  0  0  0  0  0  0  0
   61.6410   33.3520   48.2470 N   0  0  0  0  0  0  0  0  0  0  0  0
   63.0290   33.4870   48.6290 C   0  0  0  0  0  0  0  0  0  0  0  0
   63.8100   34.1670   47.9080 O   0  0  0  0  0  0  0  0  0  0  0  0
   63.5870   32.8500   49.8740 C   0  0  0  0  0  0  0  0  0  0  0  0
   63.3462   33.4835   50.7404 H   0  0  0  0  0  0  0  0  0  0  0  0
   63.1376   31.8524   49.9872 H   0  0  0  0  0  0  0  0  0  0  0  0
   65.1000   32.6910   49.7790 C   0  0  0  0  0  0  0  0  0  0  0  0
   65.5282   32.6460   50.7912 H   0  0  0  0  0  0  0  0  0  0  0  0
   65.3379   31.7629   49.2386 H   0  0  0  0  0  0  0  0  0  0  0  0
   65.5257   33.5494   49.2386 H   0  0  0  0  0  0  0  0  0  0  0  0
   61.0730   34.3430   47.3220 C   0  0  0  0  0  0  0  0  0  0  0  0
   61.4013   35.3469   47.6292 H   0  0  0  0  0  0  0  0  0  0  0  0
   61.4255   34.1068   46.3071 H   0  0  0  0  0  0  0  0  0  0  0  0
   59.5450   34.3010   47.3180 C   0  0  0  0  0  0  0  0  0  0  0  0
   59.1670   34.6752   48.2809 H   0  0  0  0  0  0  0  0  0  0  0  0
   59.1668   34.9322   46.5004 H   0  0  0  0  0  0  0  0  0  0  0  0
   56.6600   31.1460   44.8640 N   0  0  0  0  0  0  0  0  0  0  0  0
   56.4580   30.0300   44.1170 C   0  0  0  0  0  0  0  0  0  0  0  0
   55.0910   29.7220   43.5910 C   0  0  0  0  0  0  0  0  0  0  0  0
   54.4006   29.5664   44.4331 H   0  0  0  0  0  0  0  0  0  0  0  0
   54.7365   30.5628   42.9767 H   0  0  0  0  0  0  0  0  0  0  0  0
   55.1313   28.8104   42.9767 H   0  0  0  0  0  0  0  0  0  0  0  0
   57.5180   29.1470   43.8880 C   0  0  0  0  0  0  0  0  0  0  0  0
   57.3628   28.2397   43.2857 H   0  0  0  0  0  0  0  0  0  0  0  0
   58.5780   26.1150   45.2300 C   0  0  0  0  0  0  0  0  0  0  0  0
   58.6860   26.2850   44.1486 H   0  0  0  0  0  0  0  0  0  0  0  0
   57.6180   25.1890   45.6910 C   0  0  0  0  0  0  0  0  0  0  0  0
   56.7560   24.6960   44.7650 C   0  0  0  0  0  0  0  0  0  0  0  0
   57.1821   24.4096   43.7922 H   0  0  0  0  0  0  0  0  0  0  0  0
   55.3000   24.5070   44.9380 C   0  0  0  0  0  0  0  0  0  0  0  0
   54.6310   23.3700   44.6730 N   0  0  0  0  0  0  0  0  0  0  0  0
   53.3730   23.6440   45.0800 C   0  0  0  0  0  0  0  0  0  0  0  0
   52.4290   22.8150   44.9780 O   0  0  0  0  0  0  0  0  0  0  0  0
   53.2080   24.8680   45.6220 N   0  0  0  0  0  0  0  0  0  0  0  0
   54.4400   25.3990   45.5330 C   0  0  0  0  0  0  0  0  0  0  0  0
   54.7740   26.6640   45.9970 O   0  0  0  0  0  0  0  0  0  0  0  0
  1  2  1  0
  2  3  1  0
  2  4  2  0
  4  5  1  0
  5  6  1  0
  5  7  2  0
  7  8  1  0
  7  9  1  0
  9 10  1  0
 10 11  1  0
 10 12  1  0
 10 13  1  0
 13 14  1  0
 13 15  1  0
 13 16  1  0
 16 17  2  0
 17 18  1  0
 17 19  1  0
 19 20  1  0
 20 21  2  0
 20 22  1  0
 22 23  1  0
 23 24  1  0
 23 25  1  0
 23 26  1  0
 26 27  1  0
 26 28  1  0
 26 29  1  0
 29 30  1  0
 30 31  2  0
 30 32  1  0
 32 33  1  0
 32 34  1  0
 32 35  1  0
 35 36  1  0
 35 37  1  0
 35 38  1  0
 29 39  1  0
 39 40  1  0
 39 41  1  0
 39 42  1  0
 42 43  1  0
 42 44  1  0
 19 45  2  0
 45 46  1  0
 46 47  1  0
 47 48  1  0
 47 49  1  0
 47 50  1  0
 46 51  2  0
 51 52  1  0
  9 53  2  0
 53 54  1  0
 53 55  1  0
 55 56  2  0
 56 57  1  0
 56 58  1  0
 58 59  1  0
 59 60  1  0
 60 61  2  0
 60 62  1  0
 62 63  1  0
 63 64  1  0
 55  4  1  0
 63 58  2  0
 51 16  1  0
 42 22  1  0
M  CHG  3  59  -1  62  -1  64  -1
M  END
>  <UniqueID>  (13) 
13

>  <SMILES>  (13) 
C=c1ccc(CCc2cc(C)nc(C(=O)N3CCN(C(=O)CC)CC3)c2)c/c1=C/c1[n-]c(=O)[n-]c1[O-]

>  <Energy>  (13) 
117.6399598635768

>  <Genealogy>  (13) 
C=c1ccc(CCc2cc(C)nc(C(=O)N3CCN(C(=O)CC)CC3)c2)cc1=Cc1[n-]c(=O)[n-]c1[O-] (protonated)
C=c1ccc(CCc2cc(C)nc(C(=O)N3CCN(C(=O)CC)CC3)c2)c/c1=C/c1[n-]c(=O)[n-]c1[O-] (cis-trans isomerization)
C=c1ccc(CCc2cc(C)nc(C(=O)N3CCN(C(=O)CC)CC3)c2)c/c1=C/c1[n-]c(=O)[n-]c1[O-] (3D coordinates assigned)
C=c1ccc(CCc2cc(C)nc(C(=O)N3CCN(C(=O)CC)CC3)c2)c/c1=C/c1[n-]c(=O)[n-]c1[O-] (nonaromatic ring conformer: 117.6399598635768 kcal/mol)

>  <smiles>  (13) 
C=c1ccc(CCc2cc(C)nc(C(=O)N3CCN(C(=O)CC)CC3)c2)cc1=Cc1[nH]c(=O)[nH]c1O

>  <score_type>  (13) 
oracle

>  <origin>  (13) 
adg

>  <m_score__min__energy>  (13) 
-20.829999999999998

>  <m_primary>  (13) 
energy

$$$$
13:0
     RDKit          3D

 58 61  0  0  0  0  0  0  0  0999 V2000
   52.2100   30.4920   50.6480 C   0  0  0  0  0  0  0  0  0  0  0  0
   53.3000   31.2410   51.4070 C   0  0  0  0  0  0  0  0  0  0  0  0
   54.1110   30.2930   52.2580 C   0  0  0  0  0  0  0  0  0  0  0  0
   53.5180   29.1100   52.7310 C   0  0  0  0  0  0  0  0  0  0  0  0
   54.2570   28.2060   53.5000 C   0  0  0  0  0  0  0  0  0  0  0  0
   55.5990   28.4640   53.7870 C   0  0  0  0  0  0  0  0  0  0  0  0
   56.2060   29.6270   53.3060 C   0  0  0  0  0  0  0  0  0  0  0  0
   55.4700   30.5460   52.5480 C   0  0  0  0  0  0  0  0  0  0  0  0
   56.1070   31.7470   52.0970 N   0  0  0  0  0  0  0  0  0  0  0  0
   57.4560   31.7610   51.6220 C   0  0  0  0  0  0  0  0  0  0  0  0
   58.4000   31.6510   52.4500 O   0  0  0  0  0  0  0  0  0  0  0  0
   57.7330   31.9370   50.2260 N   0  0  0  0  0  0  0  0  0  0  0  0
   58.9060   31.4320   49.5590 C   0  0  0  0  0  0  0  0  0  0  0  0
   59.3700   30.1270   49.8170 C   0  0  0  0  0  0  0  0  0  0  0  0
   60.4880   29.6250   49.1490 C   0  0  0  0  0  0  0  0  0  0  0  0
   61.1620   30.4160   48.2190 C   0  0  0  0  0  0  0  0  0  0  0  0
   60.7110   31.7090   47.9450 C   0  0  0  0  0  0  0  0  0  0  0  0
   59.5770   32.2180   48.5920 C   0  0  0  0  0  0  0  0  0  0  0  0
   59.0460   33.8940   48.1930 S   0  0  0  0  0  0  0  0  0  0  0  0
   58.5330   33.4630   46.5270 C   0  0  0  0  0  0  0  0  0  0  0  0
   59.2510   33.9530   45.4290 C   0  0  0  0  0  0  0  0  0  0  0  0
   58.8690   33.6060   44.1310 C   0  0  0  0  0  0  0  0  0  0  0  0
   57.7720   32.7670   43.9240 C   0  0  0  0  0  0  0  0  0  0  0  0
   57.0470   32.2680   45.0210 C   0  0  0  0  0  0  0  0  0  0  0  0
   55.9360   31.3810   44.8400 N   0  0  0  0  0  0  0  0  0  0  0  0
   56.0120   30.0740   44.2520 C   0  0  0  0  0  0  0  0  0  0  0  0
   56.2250   29.9710   43.0180 O   0  0  0  0  0  0  0  0  0  0  0  0
   55.8480   28.8830   45.0350 N   0  0  0  0  0  0  0  0  0  0  0  0
   56.9110   28.1270   45.6320 C   0  0  0  0  0  0  0  0  0  0  0  0
   56.6790   26.7940   45.9980 C   0  0  0  0  0  0  0  0  0  0  0  0
   57.7050   26.0300   46.5660 C   0  0  0  0  0  0  0  0  0  0  0  0
   58.9610   26.6010   46.7910 C   0  0  0  0  0  0  0  0  0  0  0  0
   59.1900   27.9380   46.4580 C   0  0  0  0  0  0  0  0  0  0  0  0
   58.1700   28.7000   45.8840 C   0  0  0  0  0  0  0  0  0  0  0  0
   57.4140   32.6450   46.3180 C   0  0  0  0  0  0  0  0  0  0  0  0
   51.5224   30.0195   51.3650 H   0  0  0  0  0  0  0  0  0  0  0  0
   51.6520   31.1983   50.0157 H   0  0  0  0  0  0  0  0  0  0  0  0
   52.6693   29.7178   50.0157 H   0  0  0  0  0  0  0  0  0  0  0  0
   53.9658   31.7369   50.6854 H   0  0  0  0  0  0  0  0  0  0  0  0
   52.8244   31.9843   52.0637 H   0  0  0  0  0  0  0  0  0  0  0  0
   52.4656   28.8939   52.4947 H   0  0  0  0  0  0  0  0  0  0  0  0
   53.7805   27.2901   53.8795 H   0  0  0  0  0  0  0  0  0  0  0  0
   56.1786   27.7513   54.3921 H   0  0  0  0  0  0  0  0  0  0  0  0
   57.2666   29.8215   53.5237 H   0  0  0  0  0  0  0  0  0  0  0  0
   57.0400   32.4860   49.6780 H   0  0  0  0  0  0  0  0  0  0  0  0
   58.8463   29.4978   50.5518 H   0  0  0  0  0  0  0  0  0  0  0  0
   60.8383   28.6031   49.3566 H   0  0  0  0  0  0  0  0  0  0  0  0
   62.0488   30.0215   47.7013 H   0  0  0  0  0  0  0  0  0  0  0  0
   61.2497   32.3323   47.2161 H   0  0  0  0  0  0  0  0  0  0  0  0
   60.1170   34.6121   45.5890 H   0  0  0  0  0  0  0  0  0  0  0  0
   59.4333   33.9943   43.2703 H   0  0  0  0  0  0  0  0  0  0  0  0
   57.4742   32.4957   42.9004 H   0  0  0  0  0  0  0  0  0  0  0  0
   55.6869   26.3466   45.8382 H   0  0  0  0  0  0  0  0  0  0  0  0
   57.5229   24.9792   46.8356 H   0  0  0  0  0  0  0  0  0  0  0  0
   59.7689   25.9974   47.2303 H   0  0  0  0  0  0  0  0  0  0  0  0
   60.1742   28.3910   46.6479 H   0  0  0  0  0  0  0  0  0  0  0  0
   58.3526   29.7540   45.6277 H   0  0  0  0  0  0  0  0  0  0  0  0
   56.8216   32.2978   47.1773 H   0  0  0  0  0  0  0  0  0  0  0  0
  1  2  1  0
  2  3  1  0
  3  4  2  0
  4  5  1  0
  5  6  2  0
  6  7  1  0
  7  8  2  0
  8  9  1  0
  9 10  1  0
 10 11  2  0
 10 12  1  0
 12 13  1  0
 13 14  2  0
 14 15  1  0
 15 16  2  0
 16 17  1  0
 17 18  2  0
 18 19  1  0
 19 20  1  0
 20 21  2  0
 21 22  1  0
 22 23  2  0
 23 24  1  0
 24 25  1  0
 25 26  1  0
 26 27  2  0
 26 28  1  0
 28 29  1  0
 29 30  2  0
 30 31  1  0
 31 32  2  0
 32 33  1  0
 33 34  2  0
 24 35  2  0
  8  3  1  0
 18 13  1  0
 35 20  1  0
 34 29  1  0
  1 36  1  0
  1 37  1  0
  1 38  1  0
  2 39  1  0
  2 40  1  0
  4 41  1  0
  5 42  1  0
  6 43  1  0
  7 44  1  0
 12 45  1  0
 14 46  1  0
 15 47  1  0
 16 48  1  0
 17 49  1  0
 21 50  1  0
 22 51  1  0
 23 52  1  0
 30 53  1  0
 31 54  1  0
 32 55  1  0
 33 56  1  0
 34 57  1  0
 35 58  1  0
M  CHG  3   9  -1  25  -1  28  -1
M  END
>  <UniqueID>  (14) 
14

>  <SMILES>  (14) 
CCc1ccccc1[N-]C(=O)Nc1ccccc1Sc1cccc([N-]C(=O)[N-]c2ccccc2)c1

>  <Energy>  (14) 
67.39972715126437

>  <Genealogy>  (14) 
CCc1ccccc1[N-]C(=O)Nc1ccccc1Sc1cccc([N-]C(=O)[N-]c2ccccc2)c1 (protonated)
CCc1ccccc1[N-]C(=O)Nc1ccccc1Sc1cccc([N-]C(=O)[N-]c2ccccc2)c1 (3D coordinates assigned)
CCc1ccccc1[N-]C(=O)Nc1ccccc1Sc1cccc([N-]C(=O)[N-]c2ccccc2)c1 (optimized conformer: 67.39972715126437 kcal/mol)

>  <smiles>  (14) 
CCc1ccccc1NC(=O)Nc1ccccc1Sc1cccc(NC(=O)Nc2ccccc2)c1

>  <score_type>  (14) 
oracle

>  <origin>  (14) 
adg

>  <m_score__min__energy>  (14) 
-14.619999999999999

>  <m_primary>  (14) 
energy

$$$$
14:0
     RDKit          3D

 52 54  0  0  0  0  0  0  0  0999 V2000
   55.6270   25.9310   45.9800 C   0  0  0  0  0  0  0  0  0  0  0  0
   56.7770   25.0140   45.6640 C   0  0  0  0  0  0  0  0  0  0  0  0
   56.5220   23.8070   44.9900 C   0  0  0  0  0  0  0  0  0  0  0  0
   57.5710   22.9440   44.6520 C   0  0  0  0  0  0  0  0  0  0  0  0
   57.2190   21.4330   43.8160 S   0  0  0  0  0  0  0  0  0  0  0  0
   55.9630   21.6120   43.0090 O   0  0  0  0  0  0  0  0  0  0  0  0
   58.3450   21.0870   42.8790 O   0  0  0  0  0  0  0  0  0  0  0  0
   57.0000   20.1480   44.9820 N   0  0  0  0  0  0  0  0  0  0  0  0
   57.7880   20.4470   46.2020 C   0  0  0  0  0  0  0  0  0  0  0  0
   57.2850   19.6470   47.4090 C   0  0  0  0  0  0  0  0  0  0  0  0
   55.8280   20.0150   47.7480 C   0  0  0  0  0  0  0  0  0  0  0  0
   55.0510   20.5430   46.5310 C   0  0  0  0  0  0  0  0  0  0  0  0
   55.5530   19.8980   45.2300 C   0  0  0  0  0  0  0  0  0  0  0  0
   58.8860   23.2820   44.9940 C   0  0  0  0  0  0  0  0  0  0  0  0
   59.1480   24.4690   45.6810 C   0  0  0  0  0  0  0  0  0  0  0  0
   58.1020   25.3250   46.0460 C   0  0  0  0  0  0  0  0  0  0  0  0
   58.4120   26.5240   46.7730 N   0  0  0  0  0  0  0  0  0  0  0  0
   58.9870   27.6930   46.1670 C   0  0  0  0  0  0  0  0  0  0  0  0
   58.8840   27.9100   44.5370 S   0  0  0  0  0  0  0  0  0  0  0  0
   59.4330   28.7640   47.0150 N   0  0  0  0  0  0  0  0  0  0  0  0
   60.3500   29.7930   46.6020 C   0  0  0  0  0  0  0  0  0  0  0  0
   61.1100   29.5950   45.6150 O   0  0  0  0  0  0  0  0  0  0  0  0
   60.4490   31.0690   47.3530 C   0  0  0  0  0  0  0  0  0  0  0  0
   59.3160   31.6360   47.9670 C   0  0  0  0  0  0  0  0  0  0  0  0
   59.4190   32.8430   48.6650 C   0  0  0  0  0  0  0  0  0  0  0  0
   60.6480   33.4980   48.7570 C   0  0  0  0  0  0  0  0  0  0  0  0
   61.7790   32.9500   48.1440 C   0  0  0  0  0  0  0  0  0  0  0  0
   63.3220   33.7780   48.2560 Cl  0  0  0  0  0  0  0  0  0  0  0  0
   61.6800   31.7440   47.4430 C   0  0  0  0  0  0  0  0  0  0  0  0
   55.5170   26.0187   47.0710 H   0  0  0  0  0  0  0  0  0  0  0  0
   55.8215   26.9246   45.5500 H   0  0  0  0  0  0  0  0  0  0  0  0
   54.7016   25.5202   45.5500 H   0  0  0  0  0  0  0  0  0  0  0  0
   55.4886   23.5382   44.7258 H   0  0  0  0  0  0  0  0  0  0  0  0
   57.4020   19.2840   44.5460 H   0  0  0  0  0  0  0  0  0  0  0  0
   58.8418   20.1908   46.0180 H   0  0  0  0  0  0  0  0  0  0  0  0
   57.6778   21.5177   46.4289 H   0  0  0  0  0  0  0  0  0  0  0  0
   57.3399   18.5732   47.1768 H   0  0  0  0  0  0  0  0  0  0  0  0
   57.9176   19.8870   48.2763 H   0  0  0  0  0  0  0  0  0  0  0  0
   55.3180   19.1179   48.1290 H   0  0  0  0  0  0  0  0  0  0  0  0
   55.8543   20.8180   48.4994 H   0  0  0  0  0  0  0  0  0  0  0  0
   53.9834   20.3105   46.6583 H   0  0  0  0  0  0  0  0  0  0  0  0
   55.2054   21.6300   46.4635 H   0  0  0  0  0  0  0  0  0  0  0  0
   55.3894   18.8119   45.2905 H   0  0  0  0  0  0  0  0  0  0  0  0
   54.9919   20.3499   44.3987 H   0  0  0  0  0  0  0  0  0  0  0  0
   59.7140   22.6113   44.7210 H   0  0  0  0  0  0  0  0  0  0  0  0
   60.1844   24.7337   45.9375 H   0  0  0  0  0  0  0  0  0  0  0  0
   58.1100   26.5790   47.7720 H   0  0  0  0  0  0  0  0  0  0  0  0
   59.1520   28.7310   48.0210 H   0  0  0  0  0  0  0  0  0  0  0  0
   58.3438   31.1262   47.8971 H   0  0  0  0  0  0  0  0  0  0  0  0
   58.5288   33.2777   49.1431 H   0  0  0  0  0  0  0  0  0  0  0  0
   60.7269   34.4448   49.3114 H   0  0  0  0  0  0  0  0  0  0  0  0
   62.5716   31.3198   46.9582 H   0  0  0  0  0  0  0  0  0  0  0  0
  1  2  1  0
  2  3  2  0
  3  4  1  0
  4  5  1  0
  5  6  2  0
  5  7  2  0
  5  8  1  0
  8  9  1  0
  9 10  1  0
 10 11  1  0
 11 12  1  0
 12 13  1  0
  4 14  2  0
 14 15  1  0
 15 16  2  0
 16 17  1  0
 17 18  1  0
 18 19  2  0
 18 20  1  0
 20 21  1  0
 21 22  2  0
 21 23  1  0
 23 24  2  0
 24 25  1  0
 25 26  2  0
 26 27  1  0
 27 28  1  0
 27 29  2  0
 16  2  1  0
 29 23  1  0
 13  8  1  0
  1 30  1  0
  1 31  1  0
  1 32  1  0
  3 33  1  0
  8 34  1  0
  9 35  1  0
  9 36  1  0
 10 37  1  0
 10 38  1  0
 11 39  1  0
 11 40  1  0
 12 41  1  0
 12 42  1  0
 13 43  1  0
 13 44  1  0
 14 45  1  0
 15 46  1  0
 17 47  1  0
 20 48  1  0
 24 49  1  0
 25 50  1  0
 26 51  1  0
 29 52  1  0
M  CHG  1   8   1
M  END
>  <UniqueID>  (15) 
15

>  <SMILES>  (15) 
Cc1cc(S(=O)(=O)[NH+]2CCCCC2)ccc1NC(=S)NC(=O)c1cccc(Cl)c1

>  <Energy>  (15) 
69.35447102138679

>  <Genealogy>  (15) 
Cc1cc(S(=O)(=O)[NH+]2CCCCC2)ccc1NC(=S)NC(=O)c1cccc(Cl)c1 (protonated)
Cc1cc(S(=O)(=O)[NH+]2CCCCC2)ccc1NC(=S)NC(=O)c1cccc(Cl)c1 (3D coordinates assigned)
Cc1cc(S(=O)(=O)[NH+]2CCCCC2)ccc1NC(=S)NC(=O)c1cccc(Cl)c1 (nonaromatic ring conformer: 69.35447102138679 kcal/mol)

>  <smiles>  (15) 
Cc1cc(S(=O)(=O)N2CCCCC2)ccc1NC(=S)NC(=O)c1cccc(Cl)c1

>  <score_type>  (15) 
oracle

>  <origin>  (15) 
adg

>  <m_score__min__energy>  (15) 
-7.7800000000000002

>  <m_primary>  (15) 
energy

$$$$
15:0
     RDKit          3D

 39 41  0  0  0  0  0  0  0  0999 V2000
   53.0621   30.8476   49.8755 H   0  0  0  0  0  0  0  0  0  0  0  0
   53.1020   30.6740   50.9610 C   0  0  0  0  0  0  0  0  0  0  0  0
   54.0710   29.8770   51.4830 N   0  0  0  0  0  0  0  0  0  0  0  0
   54.1690   29.6160   52.8140 C   0  0  0  0  0  0  0  0  0  0  0  0
   55.1400   28.8440   53.2180 N   0  0  0  0  0  0  0  0  0  0  0  0
   56.5040   29.1820   53.5240 C   0  0  0  0  0  0  0  0  0  0  0  0
   57.0030   28.9050   54.6480 O   0  0  0  0  0  0  0  0  0  0  0  0
   57.3560   29.7770   52.4790 C   0  0  0  0  0  0  0  0  0  0  0  0
   58.6360   29.3100   52.1760 C   0  0  0  0  0  0  0  0  0  0  0  0
   59.1405   28.4607   52.6600 H   0  0  0  0  0  0  0  0  0  0  0  0
   59.2780   30.2620   50.9480 S   0  0  0  0  0  0  0  0  0  0  0  0
   57.9350   31.2540   50.7740 C   0  0  0  0  0  0  0  0  0  0  0  0
   57.8700   32.3740   49.8800 N   0  0  0  0  0  0  0  0  0  0  0  0
   56.9250   32.7230   49.6040 H   0  0  0  0  0  0  0  0  0  0  0  0
   59.0240   32.9860   49.2790 C   0  0  0  0  0  0  0  0  0  0  0  0
   58.9400   33.4520   47.8710 C   0  0  0  0  0  0  0  0  0  0  0  0
   57.8170   33.1670   47.0700 C   0  0  0  0  0  0  0  0  0  0  0  0
   56.9775   32.5932   47.4896 H   0  0  0  0  0  0  0  0  0  0  0  0
   57.7630   33.6090   45.7450 C   0  0  0  0  0  0  0  0  0  0  0  0
   56.8811   33.3838   45.1273 H   0  0  0  0  0  0  0  0  0  0  0  0
   58.8260   34.3360   45.2030 C   0  0  0  0  0  0  0  0  0  0  0  0
   58.7791   34.6859   44.1612 H   0  0  0  0  0  0  0  0  0  0  0  0
   59.9480   34.6180   45.9850 C   0  0  0  0  0  0  0  0  0  0  0  0
   60.7861   35.1879   45.5575 H   0  0  0  0  0  0  0  0  0  0  0  0
   60.0080   34.1770   47.3110 C   0  0  0  0  0  0  0  0  0  0  0  0
   60.8965   34.3986   47.9204 H   0  0  0  0  0  0  0  0  0  0  0  0
   60.1060   33.1700   49.9790 N   0  0  0  0  0  0  0  0  0  0  0  0
   61.0410   33.2280   49.5180 H   0  0  0  0  0  0  0  0  0  0  0  0
   60.0810   33.2680   51.0180 H   0  0  0  0  0  0  0  0  0  0  0  0
   56.9650   30.8760   51.6960 C   0  0  0  0  0  0  0  0  0  0  0  0
   55.9948   31.3835   51.8011 H   0  0  0  0  0  0  0  0  0  0  0  0
   53.2450   30.2180   53.6940 C   0  0  0  0  0  0  0  0  0  0  0  0
   53.3158   30.0411   54.7774 H   0  0  0  0  0  0  0  0  0  0  0  0
   52.2400   31.0400   53.1800 C   0  0  0  0  0  0  0  0  0  0  0  0
   51.5123   31.5053   53.8612 H   0  0  0  0  0  0  0  0  0  0  0  0
   52.1530   31.2760   51.7990 C   0  0  0  0  0  0  0  0  0  0  0  0
   51.0950   32.1440   51.2390 C   0  0  0  0  0  0  0  0  0  0  0  0
   51.0200   32.3430   49.9970 O   0  0  0  0  0  0  0  0  0  0  0  0
   50.1680   32.7540   52.0770 O   0  0  0  0  0  0  0  0  0  0  0  0
  1  2  1  0
  2  3  1  0
  3  4  1  0
  4  5  2  0
  5  6  1  0
  6  7  2  0
  6  8  1  0
  8  9  2  0
  9 10  1  0
  9 11  1  0
 11 12  1  0
 12 13  1  0
 13 14  1  0
 13 15  1  0
 15 16  1  0
 16 17  2  0
 17 18  1  0
 17 19  1  0
 19 20  1  0
 19 21  2  0
 21 22  1  0
 21 23  1  0
 23 24  1  0
 23 25  2  0
 25 26  1  0
 15 27  2  0
 27 28  1  0
 27 29  1  0
 12 30  2  0
 30 31  1  0
  4 32  1  0
 32 33  1  0
 32 34  2  0
 34 35  1  0
 34 36  1  0
 36 37  1  0
 37 38  2  0
 37 39  1  0
 36  2  2  0
 30  8  1  0
 25 16  1  0
M  CHG  3   3  -1  27   1  39  -1
M  END
>  <UniqueID>  (16) 
16

>  <SMILES>  (16) 
[NH2+]=C(Nc1cc(C(=O)/N=c2\ccc(C(=O)[O-])c[n-]2)cs1)c1ccccc1

>  <Energy>  (16) 
83.21011353849784

>  <Genealogy>  (16) 
[NH2+]=C(Nc1cc(C(=O)N=c2ccc(C(=O)[O-])c[n-]2)cs1)c1ccccc1 (protonated)
[NH2+]=C(Nc1cc(C(=O)/N=c2\ccc(C(=O)[O-])c[n-]2)cs1)c1ccccc1 (cis-trans isomerization)
[NH2+]=C(Nc1cc(C(=O)/N=c2\ccc(C(=O)[O-])c[n-]2)cs1)c1ccccc1 (3D coordinates assigned)
[NH2+]=C(Nc1cc(C(=O)/N=c2\ccc(C(=O)[O-])c[n-]2)cs1)c1ccccc1 (optimized conformer: 83.21011353849784 kcal/mol)

>  <smiles>  (16) 
N=C(Nc1cc(C(=O)N=c2ccc(C(=O)O)c[nH]2)cs1)c1ccccc1

>  <score_type>  (16) 
oracle

>  <origin>  (16) 
adg

>  <m_score__min__energy>  (16) 
-11.27

>  <m_primary>  (16) 
energy

$$$$
16:0
     RDKit          3D

 67 70  0  0  0  0  0  0  0  0999 V2000
   55.3860   26.1250   46.0280 N   0  0  0  0  0  0  0  0  0  0  0  0
   55.0230   24.4660   45.7000 S   0  0  0  0  0  0  0  0  0  0  0  0
   54.1780   23.9370   46.8250 O   0  0  0  0  0  0  0  0  0  0  0  0
   54.2590   24.3770   44.4080 O   0  0  0  0  0  0  0  0  0  0  0  0
   56.5190   23.5290   45.5730 C   0  0  0  0  0  0  0  0  0  0  0  0
   56.4580   22.1350   45.7290 C   0  0  0  0  0  0  0  0  0  0  0  0
   57.6050   21.3510   45.5810 C   0  0  0  0  0  0  0  0  0  0  0  0
   58.8270   21.9500   45.2770 C   0  0  0  0  0  0  0  0  0  0  0  0
   58.9090   23.3360   45.1290 C   0  0  0  0  0  0  0  0  0  0  0  0
   57.7660   24.1390   45.2870 C   0  0  0  0  0  0  0  0  0  0  0  0
   57.9140   25.6030   45.1590 C   0  0  0  0  0  0  0  0  0  0  0  0
   58.1270   26.3910   46.2990 C   0  0  0  0  0  0  0  0  0  0  0  0
   58.2590   27.7780   46.1830 C   0  0  0  0  0  0  0  0  0  0  0  0
   58.1810   28.3940   44.9230 C   0  0  0  0  0  0  0  0  0  0  0  0
   58.3150   29.8160   44.7770 N   0  0  0  0  0  0  0  0  0  0  0  0
   57.1950   30.7180   44.7570 C   0  0  0  0  0  0  0  0  0  0  0  0
   56.0220   30.2740   44.8840 O   0  0  0  0  0  0  0  0  0  0  0  0
   57.4080   32.1380   44.6900 N   0  0  0  0  0  0  0  0  0  0  0  0
   56.5590   33.0390   45.4790 C   0  0  0  0  0  0  0  0  0  0  0  0
   57.3740   34.2200   46.0370 C   0  0  0  0  0  0  0  0  0  0  0  0
   58.8760   33.8830   46.1950 C   0  0  0  0  0  0  0  0  0  0  0  0
   59.1580   32.7970   47.2590 C   0  0  0  0  0  0  0  0  0  0  0  0
   60.4590   32.2570   47.0980 O   0  0  0  0  0  0  0  0  0  0  0  0
   60.7250   31.2630   48.0720 C   0  0  0  0  0  0  0  0  0  0  0  0
   61.6880   31.7340   49.1770 C   0  0  0  0  0  0  0  0  0  0  0  0
   63.0980   31.6510   48.7270 N   0  0  0  0  0  0  0  0  0  0  0  0
   63.8640   32.8390   49.1280 C   0  0  0  0  0  0  0  0  0  0  0  0
   63.7500   33.8500   48.0050 C   0  0  0  0  0  0  0  0  0  0  0  0
   63.5820   33.0080   46.7600 C   0  0  0  0  0  0  0  0  0  0  0  0
   63.2040   31.6150   47.2560 C   0  0  0  0  0  0  0  0  0  0  0  0
   59.4920   33.4780   44.8280 C   0  0  0  0  0  0  0  0  0  0  0  0
   58.5090   32.7190   43.9110 C   0  0  0  0  0  0  0  0  0  0  0  0
   57.9330   27.6060   43.7890 C   0  0  0  0  0  0  0  0  0  0  0  0
   57.8040   26.2190   43.9050 C   0  0  0  0  0  0  0  0  0  0  0  0
   54.8710   26.6950   45.3190 H   0  0  0  0  0  0  0  0  0  0  0  0
   55.4978   21.6554   45.9701 H   0  0  0  0  0  0  0  0  0  0  0  0
   57.5440   20.2597   45.7045 H   0  0  0  0  0  0  0  0  0  0  0  0
   59.7272   21.3300   45.1537 H   0  0  0  0  0  0  0  0  0  0  0  0
   59.8751   23.8030   44.8870 H   0  0  0  0  0  0  0  0  0  0  0  0
   58.1905   25.9158   47.2890 H   0  0  0  0  0  0  0  0  0  0  0  0
   58.4246   28.3895   47.0822 H   0  0  0  0  0  0  0  0  0  0  0  0
   59.2660   30.2260   44.9130 H   0  0  0  0  0  0  0  0  0  0  0  0
   55.7548   33.4285   44.8375 H   0  0  0  0  0  0  0  0  0  0  0  0
   56.1393   32.4734   46.3240 H   0  0  0  0  0  0  0  0  0  0  0  0
   57.2745   35.0730   45.3496 H   0  0  0  0  0  0  0  0  0  0  0  0
   56.9782   34.4563   47.0357 H   0  0  0  0  0  0  0  0  0  0  0  0
   59.3590   34.8022   46.5578 H   0  0  0  0  0  0  0  0  0  0  0  0
   59.0750   33.2440   48.2607 H   0  0  0  0  0  0  0  0  0  0  0  0
   58.4237   31.9870   47.1377 H   0  0  0  0  0  0  0  0  0  0  0  0
   59.7737   30.9696   48.5399 H   0  0  0  0  0  0  0  0  0  0  0  0
   61.2098   30.4220   47.5546 H   0  0  0  0  0  0  0  0  0  0  0  0
   61.4545   32.7772   49.4364 H   0  0  0  0  0  0  0  0  0  0  0  0
   61.5616   31.0803   50.0526 H   0  0  0  0  0  0  0  0  0  0  0  0
   63.4486   33.2590   50.0560 H   0  0  0  0  0  0  0  0  0  0  0  0
   64.9169   32.5792   49.3122 H   0  0  0  0  0  0  0  0  0  0  0  0
   62.8771   34.5023   48.1550 H   0  0  0  0  0  0  0  0  0  0  0  0
   64.6243   34.5151   47.9478 H   0  0  0  0  0  0  0  0  0  0  0  0
   62.7845   33.4186   46.1232 H   0  0  0  0  0  0  0  0  0  0  0  0
   64.4996   32.9896   46.1536 H   0  0  0  0  0  0  0  0  0  0  0  0
   62.2381   31.3168   46.8222 H   0  0  0  0  0  0  0  0  0  0  0  0
   63.9712   30.8874   46.9526 H   0  0  0  0  0  0  0  0  0  0  0  0
   59.8183   34.3912   44.3088 H   0  0  0  0  0  0  0  0  0  0  0  0
   60.3295   32.7968   45.0393 H   0  0  0  0  0  0  0  0  0  0  0  0
   58.0956   33.4181   43.1692 H   0  0  0  0  0  0  0  0  0  0  0  0
   59.0531   31.9047   43.4101 H   0  0  0  0  0  0  0  0  0  0  0  0
   57.8395   28.0828   42.8021 H   0  0  0  0  0  0  0  0  0  0  0  0
   57.6156   25.6091   43.0092 H   0  0  0  0  0  0  0  0  0  0  0  0
  1  2  1  0
  2  3  2  0
  2  4  2  0
  2  5  1  0
  5  6  2  0
  6  7  1  0
  7  8  2  0
  8  9  1  0
  9 10  2  0
 10 11  1  0
 11 12  2  0
 12 13  1  0
 13 14  2  0
 14 15  1  0
 15 16  1  0
 16 17  2  0
 16 18  1  0
 18 19  1  0
 19 20  1  0
 20 21  1  0
 21 22  1  0
 22 23  1  0
 23 24  1  0
 24 25  1  0
 25 26  1  0
 26 27  1  0
 27 28  1  0
 28 29  1  0
 29 30  1  0
 21 31  1  0
 31 32  1  0
 14 33  1  0
 33 34  2  0
 10  5  1  0
 34 11  1  0
 32 18  1  0
 30 26  1  0
  1 35  1  0
  6 36  1  0
  7 37  1  0
  8 38  1  0
  9 39  1  0
 12 40  1  0
 13 41  1  0
 15 42  1  0
 19 43  1  0
 19 44  1  0
 20 45  1  0
 20 46  1  0
 21 47  1  0
 22 48  1  0
 22 49  1  0
 24 50  1  0
 24 51  1  0
 25 52  1  0
 25 53  1  0
 27 54  1  0
 27 55  1  0
 28 56  1  0
 28 57  1  0
 29 58  1  0
 29 59  1  0
 30 60  1  0
 30 61  1  0
 31 62  1  0
 31 63  1  0
 32 64  1  0
 32 65  1  0
 33 66  1  0
 34 67  1  0
M  CHG  1   1  -1
M  END
>  <UniqueID>  (17) 
17

>  <SMILES>  (17) 
[NH-]S(=O)(=O)c1ccccc1-c1ccc(NC(=O)N2CCC(COCCN3CCCC3)CC2)cc1

>  <Energy>  (17) 
86.87834577452139

>  <Genealogy>  (17) 
[NH-]S(=O)(=O)c1ccccc1-c1ccc(NC(=O)N2CCC(COCCN3CCCC3)CC2)cc1 (protonated)
[NH-]S(=O)(=O)c1ccccc1-c1ccc(NC(=O)N2CCC(COCCN3CCCC3)CC2)cc1 (3D coordinates assigned)
[NH-]S(=O)(=O)c1ccccc1-c1ccc(NC(=O)N2CCC(COCCN3CCCC3)CC2)cc1 (nonaromatic ring conformer: 86.87834577452139 kcal/mol)

>  <smiles>  (17) 
NS(=O)(=O)c1ccccc1-c1ccc(NC(=O)N2CCC(COCCN3CCCC3)CC2)cc1

>  <score_type>  (17) 
oracle

>  <origin>  (17) 
adg

>  <m_score__min__energy>  (17) 
-12.15

>  <m_primary>  (17) 
energy

$$$$
17:0
     RDKit          3D

 46 48  0  0  0  0  0  0  0  0999 V2000
   54.1520   28.1540   53.4490 C   0  0  0  0  0  0  0  0  0  0  0  0
   54.6450   29.2310   52.8130 C   0  0  0  0  0  0  0  0  0  0  0  0
   53.9080   30.3190   52.3190 C   0  0  0  0  0  0  0  0  0  0  0  0
   52.5810   30.4860   52.1480 C   0  0  0  0  0  0  0  0  0  0  0  0
   51.9210   30.9050   50.9020 C   0  0  0  0  0  0  0  0  0  0  0  0
   51.7950   30.1080   49.8260 N   0  0  0  0  0  0  0  0  0  0  0  0
   51.0310   30.8390   48.9850 C   0  0  0  0  0  0  0  0  0  0  0  0
   50.7000   30.4300   47.8420 O   0  0  0  0  0  0  0  0  0  0  0  0
   50.6360   32.0360   49.4710 N   0  0  0  0  0  0  0  0  0  0  0  0
   51.1960   32.0560   50.6910 C   0  0  0  0  0  0  0  0  0  0  0  0
   51.0230   33.0900   51.6020 O   0  0  0  0  0  0  0  0  0  0  0  0
   54.8300   31.2970   52.0000 C   0  0  0  0  0  0  0  0  0  0  0  0
   56.0830   30.7710   52.2440 C   0  0  0  0  0  0  0  0  0  0  0  0
   57.3360   31.5360   52.0720 C   0  0  0  0  0  0  0  0  0  0  0  0
   57.9140   32.0540   53.0650 O   0  0  0  0  0  0  0  0  0  0  0  0
   57.8700   31.7240   50.7530 N   0  0  0  0  0  0  0  0  0  0  0  0
   59.2640   32.0360   50.4290 C   0  0  0  0  0  0  0  0  0  0  0  0
   60.0120   30.7900   49.8850 C   0  0  0  0  0  0  0  0  0  0  0  0
   60.6330   31.0120   48.4990 C   0  0  0  0  0  0  0  0  0  0  0  0
   61.3870   32.2760   48.4700 N   0  0  0  0  0  0  0  0  0  0  0  0
   62.6640   32.3450   47.7970 C   0  0  0  0  0  0  0  0  0  0  0  0
   63.5280   33.5670   47.8870 C   0  0  0  0  0  0  0  0  0  0  0  0
   63.0670   31.3730   47.1030 O   0  0  0  0  0  0  0  0  0  0  0  0
   60.7850   33.4970   49.0350 C   0  0  0  0  0  0  0  0  0  0  0  0
   59.3440   33.2600   49.4980 C   0  0  0  0  0  0  0  0  0  0  0  0
   55.9750   29.4980   52.7020 N   0  0  0  0  0  0  0  0  0  0  0  0
   57.0860   28.6110   53.0680 C   0  0  0  0  0  0  0  0  0  0  0  0
   54.8309   27.3597   53.7927 H   0  0  0  0  0  0  0  0  0  0  0  0
   53.0698   28.0671   53.6256 H   0  0  0  0  0  0  0  0  0  0  0  0
   51.9350   30.2918   53.0169 H   0  0  0  0  0  0  0  0  0  0  0  0
   54.6075   32.3059   51.6223 H   0  0  0  0  0  0  0  0  0  0  0  0
   59.7903   32.3146   51.3538 H   0  0  0  0  0  0  0  0  0  0  0  0
   60.8153   30.5296   50.5899 H   0  0  0  0  0  0  0  0  0  0  0  0
   59.2711   29.9832   49.7847 H   0  0  0  0  0  0  0  0  0  0  0  0
   61.3135   30.1789   48.2693 H   0  0  0  0  0  0  0  0  0  0  0  0
   59.8277   31.0601   47.7512 H   0  0  0  0  0  0  0  0  0  0  0  0
   63.7034   33.8150   48.9442 H   0  0  0  0  0  0  0  0  0  0  0  0
   64.4906   33.3728   47.3914 H   0  0  0  0  0  0  0  0  0  0  0  0
   63.0239   34.4098   47.3914 H   0  0  0  0  0  0  0  0  0  0  0  0
   61.3861   33.8246   49.8960 H   0  0  0  0  0  0  0  0  0  0  0  0
   60.7689   34.2655   48.2482 H   0  0  0  0  0  0  0  0  0  0  0  0
   58.9882   34.1490   50.0394 H   0  0  0  0  0  0  0  0  0  0  0  0
   58.7157   33.0732   48.6147 H   0  0  0  0  0  0  0  0  0  0  0  0
   57.1614   28.5508   54.1638 H   0  0  0  0  0  0  0  0  0  0  0  0
   56.9042   27.6069   52.6572 H   0  0  0  0  0  0  0  0  0  0  0  0
   58.0249   29.0107   52.6572 H   0  0  0  0  0  0  0  0  0  0  0  0
  1  2  2  0
  2  3  1  0
  3  4  2  3
  4  5  1  0
  5  6  1  0
  6  7  1  0
  7  8  2  0
  7  9  1  0
  9 10  1  0
 10 11  1  0
  3 12  1  0
 12 13  2  0
 13 14  1  0
 14 15  2  0
 14 16  1  0
 16 17  1  0
 17 18  1  0
 18 19  1  0
 19 20  1  0
 20 21  1  0
 21 22  1  0
 21 23  2  0
 20 24  1  0
 24 25  1  0
 13 26  1  0
 26 27  1  0
 26  2  1  0
 10  5  2  0
 25 17  1  0
  1 28  1  0
  1 29  1  0
  4 30  1  0
 12 31  1  0
 17 32  1  0
 18 33  1  0
 18 34  1  0
 19 35  1  0
 19 36  1  0
 22 37  1  0
 22 38  1  0
 22 39  1  0
 24 40  1  0
 24 41  1  0
 25 42  1  0
 25 43  1  0
 27 44  1  0
 27 45  1  0
 27 46  1  0
M  CHG  4   6  -1   9  -1  11  -1  16  -1
M  END
>  <UniqueID>  (18) 
18

>  <SMILES>  (18) 
C=c1c(=Cc2[n-]c(=O)[n-]c2[O-])cc(C(=O)[N-]C2CCN(C(C)=O)CC2)n1C

>  <Energy>  (18) 
119.8702299962448

>  <Genealogy>  (18) 
C=c1c(=Cc2[n-]c(=O)[n-]c2[O-])cc(C(=O)[N-]C2CCN(C(C)=O)CC2)n1C (protonated)
C=c1c(=Cc2[n-]c(=O)[n-]c2[O-])cc(C(=O)[N-]C2CCN(C(C)=O)CC2)n1C (3D coordinates assigned)
C=c1c(=Cc2[n-]c(=O)[n-]c2[O-])cc(C(=O)[N-]C2CCN(C(C)=O)CC2)n1C (nonaromatic ring conformer: 119.8702299962448 kcal/mol)

>  <smiles>  (18) 
C=c1c(=Cc2[nH]c(=O)[nH]c2O)cc(C(=O)NC2CCN(C(C)=O)CC2)n1C

>  <score_type>  (18) 
oracle

>  <origin>  (18) 
adg

>  <m_score__min__energy>  (18) 
-18.210000000000001

>  <m_primary>  (18) 
energy

$$$$
18:0
     RDKit          3D

 42 45  0  0  0  0  0  0  0  0999 V2000
   57.6350   27.7710   43.4840 O   0  0  0  0  0  0  0  0  0  0  0  0
   57.3890   28.4200   44.5380 C   0  0  0  0  0  0  0  0  0  0  0  0
   56.8700   27.7400   45.6940 N   0  0  0  0  0  0  0  0  0  0  0  0
   56.8230   26.3090   45.8090 C   0  0  0  0  0  0  0  0  0  0  0  0
   58.0150   25.5770   45.7080 C   0  0  0  0  0  0  0  0  0  0  0  0
   58.0000   24.1830   45.8070 C   0  0  0  0  0  0  0  0  0  0  0  0
   56.7930   23.5070   45.9930 C   0  0  0  0  0  0  0  0  0  0  0  0
   55.5930   24.2220   46.0670 C   0  0  0  0  0  0  0  0  0  0  0  0
   54.0820   23.3510   46.2720 Cl  0  0  0  0  0  0  0  0  0  0  0  0
   55.6020   25.6220   45.9620 C   0  0  0  0  0  0  0  0  0  0  0  0
   54.3980   26.3190   45.9810 O   0  0  0  0  0  0  0  0  0  0  0  0
   57.6080   29.8810   44.5690 C   0  0  0  0  0  0  0  0  0  0  0  0
   57.5220   30.6560   43.4030 C   0  0  0  0  0  0  0  0  0  0  0  0
   57.7370   32.0360   43.4660 C   0  0  0  0  0  0  0  0  0  0  0  0
   57.6570   32.7230   42.4110 O   0  0  0  0  0  0  0  0  0  0  0  0
   58.0410   32.6410   44.7010 C   0  0  0  0  0  0  0  0  0  0  0  0
   58.2650   34.0230   44.8160 C   0  0  0  0  0  0  0  0  0  0  0  0
   58.5640   34.5830   46.0590 C   0  0  0  0  0  0  0  0  0  0  0  0
   58.6430   33.7770   47.1980 C   0  0  0  0  0  0  0  0  0  0  0  0
   58.4220   32.3920   47.1040 C   0  0  0  0  0  0  0  0  0  0  0  0
   58.4950   31.5350   48.2530 N   0  0  0  0  0  0  0  0  0  0  0  0
   59.8430   30.5340   48.6810 S   0  0  0  0  0  0  0  0  0  0  0  0
   61.0430   31.3980   48.9490 O   0  0  0  0  0  0  0  0  0  0  0  0
   59.5070   29.7180   49.8970 O   0  0  0  0  0  0  0  0  0  0  0  0
   60.1960   29.4580   47.3440 C   0  0  0  0  0  0  0  0  0  0  0  0
   60.7500   29.8280   46.1280 C   0  0  0  0  0  0  0  0  0  0  0  0
   60.9100   28.7490   45.2520 C   0  0  0  0  0  0  0  0  0  0  0  0
   60.4830   27.5350   45.7770 C   0  0  0  0  0  0  0  0  0  0  0  0
   59.9050   27.8040   47.3340 S   0  0  0  0  0  0  0  0  0  0  0  0
   58.1210   31.8260   45.8540 C   0  0  0  0  0  0  0  0  0  0  0  0
   57.9050   30.4870   45.7510 N   0  0  0  0  0  0  0  0  0  0  0  0
   56.3680   28.3010   46.4180 H   0  0  0  0  0  0  0  0  0  0  0  0
   58.9678   26.1034   45.5499 H   0  0  0  0  0  0  0  0  0  0  0  0
   58.9410   23.6175   45.7382 H   0  0  0  0  0  0  0  0  0  0  0  0
   56.7855   22.4106   46.0815 H   0  0  0  0  0  0  0  0  0  0  0  0
   57.2858   30.1787   42.4405 H   0  0  0  0  0  0  0  0  0  0  0  0
   58.2046   34.6650   43.9248 H   0  0  0  0  0  0  0  0  0  0  0  0
   58.7386   35.6658   46.1427 H   0  0  0  0  0  0  0  0  0  0  0  0
   58.8793   34.2286   48.1728 H   0  0  0  0  0  0  0  0  0  0  0  0
   61.0338   30.8610   45.8784 H   0  0  0  0  0  0  0  0  0  0  0  0
   61.3341   28.8518   44.2422 H   0  0  0  0  0  0  0  0  0  0  0  0
   60.5172   26.5635   45.2621 H   0  0  0  0  0  0  0  0  0  0  0  0
  1  2  2  0
  2  3  1  0
  3  4  1  0
  4  5  2  0
  5  6  1  0
  6  7  2  0
  7  8  1  0
  8  9  1  0
  8 10  2  0
 10 11  1  0
  2 12  1  0
 12 13  2  0
 13 14  1  0
 14 15  2  0
 14 16  1  0
 16 17  2  0
 17 18  1  0
 18 19  2  0
 19 20  1  0
 20 21  1  0
 21 22  1  0
 22 23  2  0
 22 24  2  0
 22 25  1  0
 25 26  2  0
 26 27  1  0
 27 28  2  0
 28 29  1  0
 20 30  2  0
 30 31  1  0
 10  4  1  0
 31 12  1  0
 30 16  1  0
 29 25  1  0
  3 32  1  0
  5 33  1  0
  6 34  1  0
  7 35  1  0
 13 36  1  0
 17 37  1  0
 18 38  1  0
 19 39  1  0
 26 40  1  0
 27 41  1  0
 28 42  1  0
M  CHG  3  11  -1  21  -1  31  -1
M  END
>  <UniqueID>  (19) 
19

>  <SMILES>  (19) 
O=C(Nc1cccc(Cl)c1[O-])c1cc(=O)c2cccc([N-]S(=O)(=O)c3cccs3)c2[n-]1

>  <Energy>  (19) 
87.18113118919473

>  <Genealogy>  (19) 
O=C(Nc1cccc(Cl)c1[O-])c1cc(=O)c2cccc([N-]S(=O)(=O)c3cccs3)c2[n-]1 (protonated)
O=C(Nc1cccc(Cl)c1[O-])c1cc(=O)c2cccc([N-]S(=O)(=O)c3cccs3)c2[n-]1 (3D coordinates assigned)
O=C(Nc1cccc(Cl)c1[O-])c1cc(=O)c2cccc([N-]S(=O)(=O)c3cccs3)c2[n-]1 (optimized conformer: 87.18113118919473 kcal/mol)

>  <smiles>  (19) 
O=C(Nc1cccc(Cl)c1O)c1cc(=O)c2cccc(NS(=O)(=O)c3cccs3)c2[nH]1

>  <score_type>  (19) 
oracle

>  <origin>  (19) 
adg

>  <m_score__min__energy>  (19) 
-15.26

>  <m_primary>  (19) 
energy

$$$$
19:0
     RDKit          3D

 59 62  0  0  0  0  0  0  0  0999 V2000
   57.5450   29.3490   44.2450 C   0  0  0  0  0  0  0  0  0  0  0  0
   57.9800   28.2250   44.8180 C   0  0  0  0  0  0  0  0  0  0  0  0
   57.2440   27.1000   44.8870 N   0  0  0  0  0  0  0  0  0  0  0  0
   57.9750   26.1760   45.5460 C   0  0  0  0  0  0  0  0  0  0  0  0
   57.5110   24.9290   45.7510 C   0  0  0  0  0  0  0  0  0  0  0  0
   56.1650   24.4540   45.3810 C   0  0  0  0  0  0  0  0  0  0  0  0
   55.0300   25.2340   45.6450 C   0  0  0  0  0  0  0  0  0  0  0  0
   55.1580   26.4940   46.2280 O   0  0  0  0  0  0  0  0  0  0  0  0
   53.7960   24.7580   45.3320 N   0  0  0  0  0  0  0  0  0  0  0  0
   53.6370   23.5270   44.7820 C   0  0  0  0  0  0  0  0  0  0  0  0
   52.4850   23.1100   44.4990 O   0  0  0  0  0  0  0  0  0  0  0  0
   54.7210   22.7440   44.5420 N   0  0  0  0  0  0  0  0  0  0  0  0
   55.9750   23.1750   44.8350 C   0  0  0  0  0  0  0  0  0  0  0  0
   56.9590   22.4200   44.6070 O   0  0  0  0  0  0  0  0  0  0  0  0
   59.2020   26.7340   45.9330 C   0  0  0  0  0  0  0  0  0  0  0  0
   60.3320   26.0760   46.6760 C   0  0  0  0  0  0  0  0  0  0  0  0
   59.2030   28.0370   45.4470 C   0  0  0  0  0  0  0  0  0  0  0  0
   60.2920   29.0280   45.5700 C   0  0  0  0  0  0  0  0  0  0  0  0
   61.1680   29.0930   44.6650 O   0  0  0  0  0  0  0  0  0  0  0  0
   60.3620   29.9210   46.6980 N   0  0  0  0  0  0  0  0  0  0  0  0
   59.1400   30.3150   47.4120 C   0  0  0  0  0  0  0  0  0  0  0  0
   59.2720   31.7500   47.9230 C   0  0  0  0  0  0  0  0  0  0  0  0
   60.5150   31.8940   48.7050 N   0  0  0  0  0  0  0  0  0  0  0  0
   60.6010   33.2300   49.3280 C   0  0  0  0  0  0  0  0  0  0  0  0
   59.3420   34.0170   49.0760 C   0  0  0  0  0  0  0  0  0  0  0  0
   59.1820   34.8450   48.0350 C   0  0  0  0  0  0  0  0  0  0  0  0
   58.7380   34.3890   46.7080 C   0  0  0  0  0  0  0  0  0  0  0  0
   57.4530   33.8460   46.5390 C   0  0  0  0  0  0  0  0  0  0  0  0
   57.0300   33.4310   45.2740 C   0  0  0  0  0  0  0  0  0  0  0  0
   57.8890   33.5430   44.1750 C   0  0  0  0  0  0  0  0  0  0  0  0
   59.1760   34.0640   44.3440 C   0  0  0  0  0  0  0  0  0  0  0  0
   59.6020   34.4830   45.6090 C   0  0  0  0  0  0  0  0  0  0  0  0
   61.6860   31.6490   47.8420 C   0  0  0  0  0  0  0  0  0  0  0  0
   61.6580   30.2110   47.3190 C   0  0  0  0  0  0  0  0  0  0  0  0
   58.1915   30.2386   44.2182 H   0  0  0  0  0  0  0  0  0  0  0  0
   56.5399   29.3859   43.7995 H   0  0  0  0  0  0  0  0  0  0  0  0
   56.2860   26.9670   44.4910 H   0  0  0  0  0  0  0  0  0  0  0  0
   58.1887   24.2083   46.2320 H   0  0  0  0  0  0  0  0  0  0  0  0
   54.3490   27.0870   46.3650 H   0  0  0  0  0  0  0  0  0  0  0  0
   60.1647   26.1734   47.7588 H   0  0  0  0  0  0  0  0  0  0  0  0
   60.3769   25.0105   46.4063 H   0  0  0  0  0  0  0  0  0  0  0  0
   61.2808   26.5628   46.4063 H   0  0  0  0  0  0  0  0  0  0  0  0
   58.2813   30.2496   46.7277 H   0  0  0  0  0  0  0  0  0  0  0  0
   58.9881   29.6399   48.2671 H   0  0  0  0  0  0  0  0  0  0  0  0
   59.2977   32.4407   47.0672 H   0  0  0  0  0  0  0  0  0  0  0  0
   58.4111   31.9853   48.5660 H   0  0  0  0  0  0  0  0  0  0  0  0
   60.7434   33.1142   50.4126 H   0  0  0  0  0  0  0  0  0  0  0  0
   61.4508   33.7717   48.8871 H   0  0  0  0  0  0  0  0  0  0  0  0
   58.5085   33.9060   49.7852 H   0  0  0  0  0  0  0  0  0  0  0  0
   59.3922   35.9151   48.1787 H   0  0  0  0  0  0  0  0  0  0  0  0
   56.7798   33.7477   47.4034 H   0  0  0  0  0  0  0  0  0  0  0  0
   56.0201   33.0155   45.1416 H   0  0  0  0  0  0  0  0  0  0  0  0
   57.5522   33.2214   43.1785 H   0  0  0  0  0  0  0  0  0  0  0  0
   59.8539   34.1444   43.4814 H   0  0  0  0  0  0  0  0  0  0  0  0
   60.6167   34.8868   45.7410 H   0  0  0  0  0  0  0  0  0  0  0  0
   61.6644   32.3465   46.9917 H   0  0  0  0  0  0  0  0  0  0  0  0
   62.6047   31.8030   48.4270 H   0  0  0  0  0  0  0  0  0  0  0  0
   62.4554   30.0807   46.5726 H   0  0  0  0  0  0  0  0  0  0  0  0
   61.8139   29.5207   48.1611 H   0  0  0  0  0  0  0  0  0  0  0  0
  1  2  2  0
  2  3  1  0
  3  4  1  0
  4  5  2  3
  5  6  1  0
  6  7  2  0
  7  8  1  0
  7  9  1  0
  9 10  1  0
 10 11  2  0
 10 12  1  0
 12 13  1  0
 13 14  2  0
  4 15  1  0
 15 16  1  0
 15 17  2  0
 17 18  1  0
 18 19  2  0
 18 20  1  0
 20 21  1  0
 21 22  1  0
 22 23  1  0
 23 24  1  0
 24 25  1  0
 25 26  2  3
 26 27  1  0
 27 28  2  0
 28 29  1  0
 29 30  2  0
 30 31  1  0
 31 32  2  0
 23 33  1  0
 33 34  1  0
 17  2  1  0
 34 20  1  0
 13  6  1  0
 32 27  1  0
  1 35  1  0
  1 36  1  0
  3 37  1  0
  5 38  1  0
  8 39  1  0
 16 40  1  0
 16 41  1  0
 16 42  1  0
 21 43  1  0
 21 44  1  0
 22 45  1  0
 22 46  1  0
 24 47  1  0
 24 48  1  0
 25 49  1  0
 26 50  1  0
 28 51  1  0
 29 52  1  0
 30 53  1  0
 31 54  1  0
 32 55  1  0
 33 56  1  0
 33 57  1  0
 34 58  1  0
 34 59  1  0
M  CHG  2   9  -1  12  -1
M  END
>  <UniqueID>  (20) 
20

>  <SMILES>  (20) 
C=c1[nH]c(=Cc2c(O)[n-]c(=O)[n-]c2=O)c(C)c1C(=O)N1CCN(CC=Cc2ccccc2)CC1

>  <Energy>  (20) 
111.18656642878803

>  <Genealogy>  (20) 
C=c1[nH]c(=Cc2c(O)[n-]c(=O)[n-]c2=O)c(C)c1C(=O)N1CCN(CC=Cc2ccccc2)CC1 (protonated)
C=c1[nH]c(=Cc2c(O)[n-]c(=O)[n-]c2=O)c(C)c1C(=O)N1CCN(CC=Cc2ccccc2)CC1 (3D coordinates assigned)
C=c1[nH]c(=Cc2c(O)[n-]c(=O)[n-]c2=O)c(C)c1C(=O)N1CCN(CC=Cc2ccccc2)CC1 (nonaromatic ring conformer: 111.18656642878803 kcal/mol)

>  <smiles>  (20) 
C=c1[nH]c(=Cc2c(O)[nH]c(=O)[nH]c2=O)c(C)c1C(=O)N1CCN(CC=Cc2ccccc2)CC1

>  <score_type>  (20) 
oracle

>  <origin>  (20) 
adg

>  <m_score__min__energy>  (20) 
-14.699999999999999

>  <m_primary>  (20) 
energy

$$$$
20:0
     RDKit          3D

 59 62  0  0  0  0  0  0  0  0999 V2000
   57.7950   32.0820   52.1130 C   0  0  0  0  0  0  0  0  0  0  0  0
   58.7500   31.3810   51.1900 C   0  0  0  0  0  0  0  0  0  0  0  0
   59.8330   30.6580   51.7120 C   0  0  0  0  0  0  0  0  0  0  0  0
   60.7110   29.9930   50.8550 C   0  0  0  0  0  0  0  0  0  0  0  0
   60.5090   30.0280   49.4730 C   0  0  0  0  0  0  0  0  0  0  0  0
   59.4060   30.7180   48.9320 C   0  0  0  0  0  0  0  0  0  0  0  0
   59.1800   30.7670   47.4660 C   0  0  0  0  0  0  0  0  0  0  0  0
   59.8400   29.9970   46.7120 O   0  0  0  0  0  0  0  0  0  0  0  0
   58.2240   31.6720   46.8880 N   0  0  0  0  0  0  0  0  0  0  0  0
   57.9160   31.6430   45.4920 C   0  0  0  0  0  0  0  0  0  0  0  0
   57.5090   30.4350   44.9100 C   0  0  0  0  0  0  0  0  0  0  0  0
   57.2530   30.3610   43.5400 C   0  0  0  0  0  0  0  0  0  0  0  0
   57.3950   31.4960   42.7420 C   0  0  0  0  0  0  0  0  0  0  0  0
   57.8020   32.7050   43.3090 C   0  0  0  0  0  0  0  0  0  0  0  0
   58.0770   32.7930   44.6860 C   0  0  0  0  0  0  0  0  0  0  0  0
   58.5030   34.0910   45.2690 C   0  0  0  0  0  0  0  0  0  0  0  0
   58.8210   35.0400   44.5060 O   0  0  0  0  0  0  0  0  0  0  0  0
   58.6430   34.2780   46.6870 N   0  0  0  0  0  0  0  0  0  0  0  0
   59.8180   34.0130   47.4660 C   0  0  0  0  0  0  0  0  0  0  0  0
   60.9740   33.5790   46.8150 C   0  0  0  0  0  0  0  0  0  0  0  0
   62.1430   33.3260   47.5370 C   0  0  0  0  0  0  0  0  0  0  0  0
   62.1750   33.5200   48.9280 C   0  0  0  0  0  0  0  0  0  0  0  0
   63.3800   33.2570   49.6720 N   0  0  0  0  0  0  0  0  0  0  0  0
   64.2760   32.1790   49.2310 C   0  0  0  0  0  0  0  0  0  0  0  0
   65.5180   32.0990   50.1190 C   0  0  0  0  0  0  0  0  0  0  0  0
   65.9900   33.4660   50.3910 N   0  0  0  0  0  0  0  0  0  0  0  0
   67.3350   33.4420   50.9810 C   0  0  0  0  0  0  0  0  0  0  0  0
   65.0530   34.1930   51.2750 C   0  0  0  0  0  0  0  0  0  0  0  0
   63.5690   33.8580   51.0000 C   0  0  0  0  0  0  0  0  0  0  0  0
   61.0180   33.9820   49.5790 C   0  0  0  0  0  0  0  0  0  0  0  0
   59.8500   34.2340   48.8540 C   0  0  0  0  0  0  0  0  0  0  0  0
   58.5330   31.3950   49.8040 C   0  0  0  0  0  0  0  0  0  0  0  0
   58.0757   31.8760   53.1564 H   0  0  0  0  0  0  0  0  0  0  0  0
   57.8364   33.1658   51.9293 H   0  0  0  0  0  0  0  0  0  0  0  0
   56.7735   31.7177   51.9293 H   0  0  0  0  0  0  0  0  0  0  0  0
   59.9906   30.6151   52.7998 H   0  0  0  0  0  0  0  0  0  0  0  0
   61.5660   29.4387   51.2695 H   0  0  0  0  0  0  0  0  0  0  0  0
   61.2148   29.5142   48.8037 H   0  0  0  0  0  0  0  0  0  0  0  0
   57.8090   32.4450   47.4550 H   0  0  0  0  0  0  0  0  0  0  0  0
   57.3905   29.5391   45.5371 H   0  0  0  0  0  0  0  0  0  0  0  0
   56.9393   29.4077   43.0897 H   0  0  0  0  0  0  0  0  0  0  0  0
   57.1859   31.4384   41.6636 H   0  0  0  0  0  0  0  0  0  0  0  0
   57.9086   33.5966   42.6737 H   0  0  0  0  0  0  0  0  0  0  0  0
   60.9645   33.4350   45.7245 H   0  0  0  0  0  0  0  0  0  0  0  0
   63.0436   32.9729   47.0133 H   0  0  0  0  0  0  0  0  0  0  0  0
   63.7371   31.2213   49.2796 H   0  0  0  0  0  0  0  0  0  0  0  0
   64.5962   32.3901   48.2000 H   0  0  0  0  0  0  0  0  0  0  0  0
   65.2651   31.5991   51.0657 H   0  0  0  0  0  0  0  0  0  0  0  0
   66.3062   31.5235   49.6115 H   0  0  0  0  0  0  0  0  0  0  0  0
   67.2542   33.4434   52.0780 H   0  0  0  0  0  0  0  0  0  0  0  0
   67.8630   32.5343   50.6534 H   0  0  0  0  0  0  0  0  0  0  0  0
   67.8950   34.3303   50.6534 H   0  0  0  0  0  0  0  0  0  0  0  0
   65.2826   33.9309   52.3183 H   0  0  0  0  0  0  0  0  0  0  0  0
   65.1865   35.2671   51.0787 H   0  0  0  0  0  0  0  0  0  0  0  0
   63.2167   33.1497   51.7643 H   0  0  0  0  0  0  0  0  0  0  0  0
   62.9956   34.7961   51.0345 H   0  0  0  0  0  0  0  0  0  0  0  0
   61.0320   34.1463   50.6666 H   0  0  0  0  0  0  0  0  0  0  0  0
   58.9532   34.6063   49.3709 H   0  0  0  0  0  0  0  0  0  0  0  0
   57.6707   31.9413   49.3941 H   0  0  0  0  0  0  0  0  0  0  0  0
  1  2  1  0
  2  3  2  0
  3  4  1  0
  4  5  2  0
  5  6  1  0
  6  7  1  0
  7  8  2  0
  7  9  1  0
  9 10  1  0
 10 11  2  0
 11 12  1  0
 12 13  2  0
 13 14  1  0
 14 15  2  0
 15 16  1  0
 16 17  2  0
 16 18  1  0
 18 19  1  0
 19 20  2  0
 20 21  1  0
 21 22  2  0
 22 23  1  0
 23 24  1  0
 24 25  1  0
 25 26  1  0
 26 27  1  0
 26 28  1  0
 28 29  1  0
 22 30  1  0
 30 31  2  0
  6 32  2  0
 32  2  1  0
 15 10  1  0
 31 19  1  0
 29 23  1  0
  1 33  1  0
  1 34  1  0
  1 35  1  0
  3 36  1  0
  4 37  1  0
  5 38  1  0
  9 39  1  0
 11 40  1  0
 12 41  1  0
 13 42  1  0
 14 43  1  0
 20 44  1  0
 21 45  1  0
 24 46  1  0
 24 47  1  0
 25 48  1  0
 25 49  1  0
 27 50  1  0
 27 51  1  0
 27 52  1  0
 28 53  1  0
 28 54  1  0
 29 55  1  0
 29 56  1  0
 30 57  1  0
 31 58  1  0
 32 59  1  0
M  CHG  1  18  -1
M  END
>  <UniqueID>  (21) 
21

>  <SMILES>  (21) 
Cc1cccc(C(=O)Nc2ccccc2C(=O)[N-]c2ccc(N3CCN(C)CC3)cc2)c1

>  <Energy>  (21) 
87.7502816254742

>  <Genealogy>  (21) 
Cc1cccc(C(=O)Nc2ccccc2C(=O)[N-]c2ccc(N3CCN(C)CC3)cc2)c1 (protonated)
Cc1cccc(C(=O)Nc2ccccc2C(=O)[N-]c2ccc(N3CCN(C)CC3)cc2)c1 (3D coordinates assigned)
Cc1cccc(C(=O)Nc2ccccc2C(=O)[N-]c2ccc(N3CCN(C)CC3)cc2)c1 (nonaromatic ring conformer: 87.7502816254742 kcal/mol)

>  <smiles>  (21) 
Cc1cccc(C(=O)Nc2ccccc2C(=O)Nc2ccc(N3CCN(C)CC3)cc2)c1

>  <score_type>  (21) 
oracle

>  <origin>  (21) 
adg

>  <m_score__min__energy>  (21) 
-9.9800000000000004

>  <m_primary>  (21) 
energy

$$$$
21:0
     RDKit          3D

 57 60  0  0  0  0  0  0  0  0999 V2000
   63.5500   31.8630   50.8140 C   0  0  0  0  0  0  0  0  0  0  0  0
   64.1590   33.1190   50.3420 N   0  0  0  0  0  0  0  0  0  0  0  0
   64.7220   32.9920   48.9760 C   0  0  0  0  0  0  0  0  0  0  0  0
   63.7680   33.4900   47.8720 C   0  0  0  0  0  0  0  0  0  0  0  0
   62.3700   33.3080   48.2930 N   0  0  0  0  0  0  0  0  0  0  0  0
   61.4480   33.5620   47.1680 C   0  0  0  0  0  0  0  0  0  0  0  0
   60.4830   32.4170   47.0050 C   0  0  0  0  0  0  0  0  0  0  0  0
   59.3820   32.5450   46.1460 C   0  0  0  0  0  0  0  0  0  0  0  0
   58.4970   31.4770   45.9680 C   0  0  0  0  0  0  0  0  0  0  0  0
   58.7130   30.2590   46.6260 C   0  0  0  0  0  0  0  0  0  0  0  0
   57.7760   29.1850   46.4410 N   0  0  0  0  0  0  0  0  0  0  0  0
   58.1430   27.7930   46.4060 C   0  0  0  0  0  0  0  0  0  0  0  0
   59.3510   27.4510   46.5150 O   0  0  0  0  0  0  0  0  0  0  0  0
   57.1140   26.7430   46.2510 C   0  0  0  0  0  0  0  0  0  0  0  0
   57.4130   25.4240   46.6260 C   0  0  0  0  0  0  0  0  0  0  0  0
   56.4610   24.4090   46.4790 C   0  0  0  0  0  0  0  0  0  0  0  0
   56.7840   23.0720   46.8980 N   0  0  0  0  0  0  0  0  0  0  0  0
   56.4810   21.8900   46.1360 C   0  0  0  0  0  0  0  0  0  0  0  0
   55.7320   20.8330   46.6880 C   0  0  0  0  0  0  0  0  0  0  0  0
   55.4310   19.7050   45.9170 C   0  0  0  0  0  0  0  0  0  0  0  0
   55.8630   19.6260   44.5920 C   0  0  0  0  0  0  0  0  0  0  0  0
   56.5900   20.6790   44.0300 C   0  0  0  0  0  0  0  0  0  0  0  0
   56.8930   21.8080   44.7960 C   0  0  0  0  0  0  0  0  0  0  0  0
   55.1870   24.7440   45.9830 C   0  0  0  0  0  0  0  0  0  0  0  0
   54.2790   23.8750   45.9010 O   0  0  0  0  0  0  0  0  0  0  0  0
   54.9240   26.0210   45.6030 N   0  0  0  0  0  0  0  0  0  0  0  0
   55.8440   27.0140   45.7080 C   0  0  0  0  0  0  0  0  0  0  0  0
   55.5190   28.2850   45.2480 O   0  0  0  0  0  0  0  0  0  0  0  0
   59.8070   30.1360   47.5010 C   0  0  0  0  0  0  0  0  0  0  0  0
   60.6900   31.2050   47.6810 C   0  0  0  0  0  0  0  0  0  0  0  0
   62.0590   34.1770   49.4520 C   0  0  0  0  0  0  0  0  0  0  0  0
   63.2300   34.2600   50.4580 C   0  0  0  0  0  0  0  0  0  0  0  0
   63.5434   31.8494   51.9139 H   0  0  0  0  0  0  0  0  0  0  0  0
   62.5178   31.7928   50.4402 H   0  0  0  0  0  0  0  0  0  0  0  0
   64.1341   31.0091   50.4402 H   0  0  0  0  0  0  0  0  0  0  0  0
   65.6506   33.5795   48.9256 H   0  0  0  0  0  0  0  0  0  0  0  0
   64.8972   31.9212   48.7952 H   0  0  0  0  0  0  0  0  0  0  0  0
   63.9553   34.5574   47.6834 H   0  0  0  0  0  0  0  0  0  0  0  0
   63.9461   32.9112   46.9537 H   0  0  0  0  0  0  0  0  0  0  0  0
   60.8835   34.4854   47.3646 H   0  0  0  0  0  0  0  0  0  0  0  0
   62.0357   33.6649   46.2439 H   0  0  0  0  0  0  0  0  0  0  0  0
   59.2136   33.4904   45.6094 H   0  0  0  0  0  0  0  0  0  0  0  0
   57.6255   31.5939   45.3070 H   0  0  0  0  0  0  0  0  0  0  0  0
   56.7780   29.4450   46.2760 H   0  0  0  0  0  0  0  0  0  0  0  0
   58.4043   25.1860   47.0391 H   0  0  0  0  0  0  0  0  0  0  0  0
   57.3350   22.9610   47.7790 H   0  0  0  0  0  0  0  0  0  0  0  0
   55.3823   20.8944   47.7291 H   0  0  0  0  0  0  0  0  0  0  0  0
   54.8527   18.8786   46.3559 H   0  0  0  0  0  0  0  0  0  0  0  0
   55.6312   18.7349   43.9902 H   0  0  0  0  0  0  0  0  0  0  0  0
   56.9241   20.6191   42.9837 H   0  0  0  0  0  0  0  0  0  0  0  0
   57.4579   22.6378   44.3463 H   0  0  0  0  0  0  0  0  0  0  0  0
   59.9688   29.1945   48.0463 H   0  0  0  0  0  0  0  0  0  0  0  0
   61.5515   31.0953   48.3561 H   0  0  0  0  0  0  0  0  0  0  0  0
   61.8366   35.1897   49.0845 H   0  0  0  0  0  0  0  0  0  0  0  0
   61.1966   33.7400   49.9767 H   0  0  0  0  0  0  0  0  0  0  0  0
   63.7885   35.1894   50.2728 H   0  0  0  0  0  0  0  0  0  0  0  0
   62.8015   34.2395   51.4709 H   0  0  0  0  0  0  0  0  0  0  0  0
  1  2  1  0
  2  3  1  0
  3  4  1  0
  4  5  1  0
  5  6  1  0
  6  7  1  0
  7  8  2  0
  8  9  1  0
  9 10  2  0
 10 11  1  0
 11 12  1  0
 12 13  2  0
 12 14  1  0
 14 15  1  0
 15 16  2  0
 16 17  1  0
 17 18  1  0
 18 19  2  0
 19 20  1  0
 20 21  2  0
 21 22  1  0
 22 23  2  0
 16 24  1  0
 24 25  2  0
 24 26  1  0
 26 27  1  0
 27 28  1  0
 10 29  1  0
 29 30  2  0
  5 31  1  0
 31 32  1  0
 32  2  1  0
 30  7  1  0
 27 14  2  0
 23 18  1  0
  1 33  1  0
  1 34  1  0
  1 35  1  0
  3 36  1  0
  3 37  1  0
  4 38  1  0
  4 39  1  0
  6 40  1  0
  6 41  1  0
  8 42  1  0
  9 43  1  0
 11 44  1  0
 15 45  1  0
 17 46  1  0
 19 47  1  0
 20 48  1  0
 21 49  1  0
 22 50  1  0
 23 51  1  0
 29 52  1  0
 30 53  1  0
 31 54  1  0
 31 55  1  0
 32 56  1  0
 32 57  1  0
M  CHG  2  26  -1  28  -1
M  END
>  <UniqueID>  (22) 
22

>  <SMILES>  (22) 
CN1CCN(Cc2ccc(NC(=O)c3cc(Nc4ccccc4)c(=O)[n-]c3[O-])cc2)CC1

>  <Energy>  (22) 
87.37420253300905

>  <Genealogy>  (22) 
CN1CCN(Cc2ccc(NC(=O)c3cc(Nc4ccccc4)c(=O)[n-]c3[O-])cc2)CC1 (protonated)
CN1CCN(Cc2ccc(NC(=O)c3cc(Nc4ccccc4)c(=O)[n-]c3[O-])cc2)CC1 (3D coordinates assigned)
CN1CCN(Cc2ccc(NC(=O)c3cc(Nc4ccccc4)c(=O)[n-]c3[O-])cc2)CC1 (nonaromatic ring conformer: 87.37420253300905 kcal/mol)

>  <smiles>  (22) 
CN1CCN(Cc2ccc(NC(=O)c3cc(Nc4ccccc4)c(=O)[nH]c3O)cc2)CC1

>  <score_type>  (22) 
oracle

>  <origin>  (22) 
adg

>  <m_score__min__energy>  (22) 
-12.93

>  <m_primary>  (22) 
energy

$$$$
22:0
     RDKit          3D

 53 56  0  0  0  0  0  0  0  0999 V2000
   57.2050   25.8960   46.7900 C   0  0  0  0  0  0  0  0  0  0  0  0
   57.4030   27.3300   46.4190 C   0  0  0  0  0  0  0  0  0  0  0  0
   56.6810   27.9470   45.5120 O   0  0  0  0  0  0  0  0  0  0  0  0
   57.1280   29.1760   45.3810 C   0  0  0  0  0  0  0  0  0  0  0  0
   56.5770   30.1350   44.4100 C   0  0  0  0  0  0  0  0  0  0  0  0
   56.2970   29.7240   43.2540 O   0  0  0  0  0  0  0  0  0  0  0  0
   56.3990   31.5280   44.7070 N   0  0  0  0  0  0  0  0  0  0  0  0
   57.3910   32.5920   44.5620 C   0  0  0  0  0  0  0  0  0  0  0  0
   57.9600   32.9790   45.8950 C   0  0  0  0  0  0  0  0  0  0  0  0
   57.7860   32.2620   47.0200 N   0  0  0  0  0  0  0  0  0  0  0  0
   58.5270   32.9250   47.9360 C   0  0  0  0  0  0  0  0  0  0  0  0
   58.6680   32.4910   49.3390 C   0  0  0  0  0  0  0  0  0  0  0  0
   59.3230   33.3090   50.2710 C   0  0  0  0  0  0  0  0  0  0  0  0
   59.4590   32.8760   51.5920 C   0  0  0  0  0  0  0  0  0  0  0  0
   58.9650   31.6670   51.9690 N   0  0  0  0  0  0  0  0  0  0  0  0
   58.3300   30.8510   51.0870 C   0  0  0  0  0  0  0  0  0  0  0  0
   57.8890   29.7360   51.4720 O   0  0  0  0  0  0  0  0  0  0  0  0
   58.1670   31.2490   49.7570 C   0  0  0  0  0  0  0  0  0  0  0  0
   59.1250   33.9830   47.4310 O   0  0  0  0  0  0  0  0  0  0  0  0
   58.7990   34.0390   46.1640 C   0  0  0  0  0  0  0  0  0  0  0  0
   59.2790   35.0800   45.2070 C   0  0  0  0  0  0  0  0  0  0  0  0
   58.1680   29.3970   46.2650 C   0  0  0  0  0  0  0  0  0  0  0  0
   58.3610   28.1990   46.9240 C   0  0  0  0  0  0  0  0  0  0  0  0
   59.4630   27.8930   47.8610 C   0  0  0  0  0  0  0  0  0  0  0  0
   60.3360   27.0400   47.5500 O   0  0  0  0  0  0  0  0  0  0  0  0
   59.5820   28.6120   49.0950 N   0  0  0  0  0  0  0  0  0  0  0  0
   60.8850   28.9570   49.6550 C   0  0  0  0  0  0  0  0  0  0  0  0
   61.3900   30.2390   49.0450 C   0  0  0  0  0  0  0  0  0  0  0  0
   62.1420   31.1470   49.8080 C   0  0  0  0  0  0  0  0  0  0  0  0
   62.6160   32.3300   49.2310 C   0  0  0  0  0  0  0  0  0  0  0  0
   62.3480   32.6120   47.8880 C   0  0  0  0  0  0  0  0  0  0  0  0
   62.8240   33.7500   47.3260 F   0  0  0  0  0  0  0  0  0  0  0  0
   61.5960   31.7160   47.1230 C   0  0  0  0  0  0  0  0  0  0  0  0
   61.1130   30.5370   47.6980 C   0  0  0  0  0  0  0  0  0  0  0  0
   57.1916   25.7992   47.8857 H   0  0  0  0  0  0  0  0  0  0  0  0
   56.2491   25.5395   46.3787 H   0  0  0  0  0  0  0  0  0  0  0  0
   58.0285   25.2938   46.3787 H   0  0  0  0  0  0  0  0  0  0  0  0
   58.2050   32.2392   43.9117 H   0  0  0  0  0  0  0  0  0  0  0  0
   56.9004   33.4720   44.1205 H   0  0  0  0  0  0  0  0  0  0  0  0
   59.7269   34.2850   49.9638 H   0  0  0  0  0  0  0  0  0  0  0  0
   59.9672   33.5150   52.3292 H   0  0  0  0  0  0  0  0  0  0  0  0
   57.6491   30.5924   49.0424 H   0  0  0  0  0  0  0  0  0  0  0  0
   59.6752   35.9392   45.7681 H   0  0  0  0  0  0  0  0  0  0  0  0
   60.0733   34.6578   44.5740 H   0  0  0  0  0  0  0  0  0  0  0  0
   58.4421   35.4099   44.5740 H   0  0  0  0  0  0  0  0  0  0  0  0
   58.7261   30.3333   46.4127 H   0  0  0  0  0  0  0  0  0  0  0  0
   58.7290   29.0190   49.5400 H   0  0  0  0  0  0  0  0  0  0  0  0
   60.7905   29.0849   50.7434 H   0  0  0  0  0  0  0  0  0  0  0  0
   61.5970   28.1485   49.4326 H   0  0  0  0  0  0  0  0  0  0  0  0
   62.3592   30.9271   50.8637 H   0  0  0  0  0  0  0  0  0  0  0  0
   63.2006   33.0396   49.8349 H   0  0  0  0  0  0  0  0  0  0  0  0
   61.3839   31.9390   46.0669 H   0  0  0  0  0  0  0  0  0  0  0  0
   60.5137   29.8391   47.0948 H   0  0  0  0  0  0  0  0  0  0  0  0
  1  2  1  0
  2  3  1  0
  3  4  1  0
  4  5  1  0
  5  6  2  0
  5  7  1  0
  7  8  1  0
  8  9  1  0
  9 10  1  0
 10 11  2  0
 11 12  1  0
 12 13  1  0
 13 14  2  0
 14 15  1  0
 15 16  1  0
 16 17  2  0
 16 18  1  0
 11 19  1  0
 19 20  1  0
 20 21  1  0
  4 22  2  0
 22 23  1  0
 23 24  1  0
 24 25  2  0
 24 26  1  0
 26 27  1  0
 27 28  1  0
 28 29  2  0
 29 30  1  0
 30 31  2  0
 31 32  1  0
 31 33  1  0
 33 34  2  0
 23  2  2  0
 34 28  1  0
 20  9  2  0
 18 12  2  0
  1 35  1  0
  1 36  1  0
  1 37  1  0
  8 38  1  0
  8 39  1  0
 13 40  1  0
 14 41  1  0
 18 42  1  0
 21 43  1  0
 21 44  1  0
 21 45  1  0
 22 46  1  0
 26 47  1  0
 27 48  1  0
 27 49  1  0
 29 50  1  0
 30 51  1  0
 33 52  1  0
 34 53  1  0
M  CHG  2   7  -1  15  -1
M  END
>  <UniqueID>  (23) 
23

>  <SMILES>  (23) 
Cc1oc(C(=O)[N-]Cc2nc(-c3cc[n-]c(=O)c3)oc2C)cc1C(=O)NCc1ccc(F)cc1

>  <Energy>  (23) 
105.10347348773738

>  <Genealogy>  (23) 
Cc1oc(C(=O)[N-]Cc2nc(-c3cc[n-]c(=O)c3)oc2C)cc1C(=O)NCc1ccc(F)cc1 (protonated)
Cc1oc(C(=O)[N-]Cc2nc(-c3cc[n-]c(=O)c3)oc2C)cc1C(=O)NCc1ccc(F)cc1 (3D coordinates assigned)
Cc1oc(C(=O)[N-]Cc2nc(-c3cc[n-]c(=O)c3)oc2C)cc1C(=O)NCc1ccc(F)cc1 (optimized conformer: 105.10347348773738 kcal/mol)

>  <smiles>  (23) 
Cc1oc(C(=O)NCc2nc(-c3cc[nH]c(=O)c3)oc2C)cc1C(=O)NCc1ccc(F)cc1

>  <score_type>  (23) 
oracle

>  <origin>  (23) 
adg

>  <m_score__min__energy>  (23) 
-12.800000000000001

>  <m_primary>  (23) 
energy

$$$$
23:0
     RDKit          3D

 19 19  0  0  0  0  0  0  0  0999 V2000
   60.3610   28.5810   44.7230 C   0  0  0  0  0  0  0  0  0  0  0  0
   59.2090   28.0110   44.3670 C   0  0  0  0  0  0  0  0  0  0  0  0
   57.9000   28.3640   44.9750 C   0  0  0  0  0  0  0  0  0  0  0  0
   56.9690   29.2900   44.2860 C   0  0  0  0  0  0  0  0  0  0  0  0
   55.9830   29.7850   44.8930 O   0  0  0  0  0  0  0  0  0  0  0  0
   57.6080   27.8390   46.1810 C   0  0  0  0  0  0  0  0  0  0  0  0
   57.1860   26.4440   46.4220 C   0  0  0  0  0  0  0  0  0  0  0  0
   57.9690   25.4480   46.8740 N   0  0  0  0  0  0  0  0  0  0  0  0
   57.1300   24.4060   47.0430 C   0  0  0  0  0  0  0  0  0  0  0  0
   57.5100   23.2810   47.4620 O   0  0  0  0  0  0  0  0  0  0  0  0
   55.8440   24.6790   46.7380 N   0  0  0  0  0  0  0  0  0  0  0  0
   55.8940   25.9700   46.3600 C   0  0  0  0  0  0  0  0  0  0  0  0
   54.7810   26.7030   45.9710 O   0  0  0  0  0  0  0  0  0  0  0  0
   61.2989   28.2768   44.2354 H   0  0  0  0  0  0  0  0  0  0  0  0
   60.3732   29.3554   45.5042 H   0  0  0  0  0  0  0  0  0  0  0  0
   59.2290   27.2398   43.5829 H   0  0  0  0  0  0  0  0  0  0  0  0
   57.1420   29.5479   43.2307 H   0  0  0  0  0  0  0  0  0  0  0  0
   57.6904   28.5015   47.0552 H   0  0  0  0  0  0  0  0  0  0  0  0
   58.9880   25.4770   47.1030 H   0  0  0  0  0  0  0  0  0  0  0  0
  1  2  2  0
  2  3  1  0
  3  4  1  0
  4  5  2  0
  3  6  2  3
  6  7  1  0
  7  8  1  0
  8  9  1  0
  9 10  2  0
  9 11  1  0
 11 12  1  0
 12 13  1  0
 12  7  2  0
  1 14  1  0
  1 15  1  0
  2 16  1  0
  4 17  1  0
  6 18  1  0
  8 19  1  0
M  CHG  2  11  -1  13  -1
M  END
>  <UniqueID>  (24) 
24

>  <SMILES>  (24) 
C=CC(C=O)=Cc1[nH]c(=O)[n-]c1[O-]

>  <Energy>  (24) 
55.32617018192679

>  <Genealogy>  (24) 
C=CC(C=O)=Cc1[nH]c(=O)[n-]c1[O-] (protonated)
C=CC(C=O)=Cc1[nH]c(=O)[n-]c1[O-] (3D coordinates assigned)
C=CC(C=O)=Cc1[nH]c(=O)[n-]c1[O-] (optimized conformer: 55.32617018192679 kcal/mol)

>  <smiles>  (24) 
C=CC(C=O)=Cc1[nH]c(=O)[nH]c1O

>  <score_type>  (24) 
oracle

>  <origin>  (24) 
adg

>  <m_score__min__energy>  (24) 
-12.23

>  <m_primary>  (24) 
energy

$$$$
24:0
     RDKit          3D

 66 71  0  0  0  0  0  0  0  0999 V2000
   64.2730   33.4760   48.3460 C   0  0  0  0  0  0  0  0  0  0  0  0
   63.0290   34.1500   48.8420 C   0  0  0  0  0  0  0  0  0  0  0  0
   63.1010   34.8160   49.9120 O   0  0  0  0  0  0  0  0  0  0  0  0
   61.7760   34.0690   48.1210 N   0  0  0  0  0  0  0  0  0  0  0  0
   61.6860   33.2880   46.8690 C   0  0  0  0  0  0  0  0  0  0  0  0
   60.5820   33.8230   45.9520 C   0  0  0  0  0  0  0  0  0  0  0  0
   59.3580   34.0280   46.7270 N   0  0  0  0  0  0  0  0  0  0  0  0
   58.2840   33.0640   46.6780 C   0  0  0  0  0  0  0  0  0  0  0  0
   57.6360   32.7850   47.7270 O   0  0  0  0  0  0  0  0  0  0  0  0
   57.9350   32.3750   45.4190 C   0  0  0  0  0  0  0  0  0  0  0  0
   58.1410   33.0180   44.1880 C   0  0  0  0  0  0  0  0  0  0  0  0
   57.7860   32.3830   42.9980 C   0  0  0  0  0  0  0  0  0  0  0  0
   57.2560   31.0910   43.0250 C   0  0  0  0  0  0  0  0  0  0  0  0
   57.0850   30.4150   44.2410 C   0  0  0  0  0  0  0  0  0  0  0  0
   56.5600   29.0810   44.2060 N   0  0  0  0  0  0  0  0  0  0  0  0
   56.6990   28.0430   45.1890 C   0  0  0  0  0  0  0  0  0  0  0  0
   55.6960   27.4160   45.6170 O   0  0  0  0  0  0  0  0  0  0  0  0
   57.9940   27.6950   45.6940 N   0  0  0  0  0  0  0  0  0  0  0  0
   58.8290   28.5080   46.5330 C   0  0  0  0  0  0  0  0  0  0  0  0
   58.6580   28.5680   47.9280 C   0  0  0  0  0  0  0  0  0  0  0  0
   59.5060   29.3590   48.7080 C   0  0  0  0  0  0  0  0  0  0  0  0
   60.5440   30.0880   48.1130 C   0  0  0  0  0  0  0  0  0  0  0  0
   61.4690   30.9000   48.9770 C   0  0  1  0  0  0  0  0  0  0  0  0
   60.8970   31.3750   50.3130 C   0  0  0  0  0  0  0  0  0  0  0  0
   61.8710   30.2060   50.2770 C   0  0  2  0  0  0  0  0  0  0  0  0
   63.2740   30.4890   50.7360 C   0  0  0  0  0  0  0  0  0  0  0  0
   64.0410   29.6050   51.4320 N   0  0  0  0  0  0  0  0  0  0  0  0
   65.1690   30.3010   51.6380 C   0  0  0  0  0  0  0  0  0  0  0  0
   66.3110   29.8890   52.3190 C   0  0  0  0  0  0  0  0  0  0  0  0
   67.3760   30.8040   52.4260 C   0  0  0  0  0  0  0  0  0  0  0  0
   67.2700   32.0920   51.8530 C   0  0  0  0  0  0  0  0  0  0  0  0
   66.0990   32.4740   51.1730 C   0  0  0  0  0  0  0  0  0  0  0  0
   65.0660   31.5410   51.0870 C   0  0  0  0  0  0  0  0  0  0  0  0
   63.8670   31.6910   50.5070 N   0  0  0  0  0  0  0  0  0  0  0  0
   60.7630   29.9700   46.7320 C   0  0  0  0  0  0  0  0  0  0  0  0
   59.9040   29.1930   45.9470 C   0  0  0  0  0  0  0  0  0  0  0  0
   57.3960   31.0770   45.4460 C   0  0  0  0  0  0  0  0  0  0  0  0
   59.4760   34.9530   47.8530 C   0  0  0  0  0  0  0  0  0  0  0  0
   60.5240   34.4160   48.8290 C   0  0  0  0  0  0  0  0  0  0  0  0
   64.8789   33.1477   49.2034 H   0  0  0  0  0  0  0  0  0  0  0  0
   63.9986   32.6032   47.7354 H   0  0  0  0  0  0  0  0  0  0  0  0
   64.8543   34.1826   47.7354 H   0  0  0  0  0  0  0  0  0  0  0  0
   62.6491   33.3469   46.3409 H   0  0  0  0  0  0  0  0  0  0  0  0
   61.4448   32.2466   47.1284 H   0  0  0  0  0  0  0  0  0  0  0  0
   60.9020   34.7795   45.5130 H   0  0  0  0  0  0  0  0  0  0  0  0
   60.3892   33.0961   45.1492 H   0  0  0  0  0  0  0  0  0  0  0  0
   58.5833   34.0248   44.1620 H   0  0  0  0  0  0  0  0  0  0  0  0
   57.9236   32.9003   42.0370 H   0  0  0  0  0  0  0  0  0  0  0  0
   56.9702   30.5995   42.0834 H   0  0  0  0  0  0  0  0  0  0  0  0
   57.8537   27.9901   48.4068 H   0  0  0  0  0  0  0  0  0  0  0  0
   59.3574   29.4096   49.7967 H   0  0  0  0  0  0  0  0  0  0  0  0
   61.9936   31.3939   48.1458 H   0  0  0  0  0  0  0  0  0  0  0  0
   61.2128   32.3410   50.7339 H   0  0  0  0  0  0  0  0  0  0  0  0
   59.8845   31.5311   50.7136 H   0  0  0  0  0  0  0  0  0  0  0  0
   61.8488   29.1746   50.6587 H   0  0  0  0  0  0  0  0  0  0  0  0
   66.3792   28.8830   52.7586 H   0  0  0  0  0  0  0  0  0  0  0  0
   68.2946   30.5153   52.9578 H   0  0  0  0  0  0  0  0  0  0  0  0
   68.1078   32.7996   51.9393 H   0  0  0  0  0  0  0  0  0  0  0  0
   66.0016   33.4738   50.7248 H   0  0  0  0  0  0  0  0  0  0  0  0
   61.6126   30.4899   46.2651 H   0  0  0  0  0  0  0  0  0  0  0  0
   60.0728   29.1187   44.8626 H   0  0  0  0  0  0  0  0  0  0  0  0
   57.2166   30.5770   46.4092 H   0  0  0  0  0  0  0  0  0  0  0  0
   59.7858   35.9428   47.4866 H   0  0  0  0  0  0  0  0  0  0  0  0
   58.5054   35.0450   48.3625 H   0  0  0  0  0  0  0  0  0  0  0  0
   60.7393   35.1851   49.5854 H   0  0  0  0  0  0  0  0  0  0  0  0
   60.1270   33.5080   49.3065 H   0  0  0  0  0  0  0  0  0  0  0  0
  1  2  1  0
  2  3  2  0
  2  4  1  0
  4  5  1  0
  5  6  1  0
  6  7  1  0
  7  8  1  0
  8  9  2  0
  8 10  1  0
 10 11  2  0
 11 12  1  0
 12 13  2  0
 13 14  1  0
 14 15  1  0
 15 16  1  0
 16 17  2  0
 16 18  1  0
 18 19  1  0
 19 20  2  0
 20 21  1  0
 21 22  2  0
 22 23  1  0
 23 24  1  0
 24 25  1  0
 25 26  1  0
 26 27  2  0
 27 28  1  0
 28 29  2  0
 29 30  1  0
 30 31  2  0
 31 32  1  0
 32 33  2  0
 33 34  1  0
 22 35  1  0
 35 36  2  0
 14 37  2  0
  7 38  1  0
 38 39  1  0
 39  4  1  0
 37 10  1  0
 36 19  1  0
 25 23  1  0
 34 26  1  0
 33 28  1  0
  1 40  1  0
  1 41  1  0
  1 42  1  0
  5 43  1  0
  5 44  1  0
  6 45  1  0
  6 46  1  0
 11 47  1  0
 12 48  1  0
 13 49  1  0
 20 50  1  0
 21 51  1  0
 23 52  1  6
 24 53  1  0
 24 54  1  0
 25 55  1  6
 29 56  1  0
 30 57  1  0
 31 58  1  0
 32 59  1  0
 35 60  1  0
 36 61  1  0
 37 62  1  0
 38 63  1  0
 38 64  1  0
 39 65  1  0
 39 66  1  0
M  CHG  3  15  -1  18  -1  34  -1
M  END
>  <UniqueID>  (25) 
25

>  <SMILES>  (25) 
CC(=O)N1CCN(C(=O)c2cccc([N-]C(=O)[N-]c3ccc([C@H]4C[C@@H]4c4nc5ccccc5[n-]4)cc3)c2)CC1

>  <Energy>  (25) 
386.6193439767983

>  <Genealogy>  (25) 
CC(=O)N1CCN(C(=O)c2cccc([N-]C(=O)[N-]c3ccc(C4CC4c4nc5ccccc5[n-]4)cc3)c2)CC1 (protonated)
CC(=O)N1CCN(C(=O)c2cccc([N-]C(=O)[N-]c3ccc([C@H]4C[C@@H]4c4nc5ccccc5[n-]4)cc3)c2)CC1 (chirality)
CC(=O)N1CCN(C(=O)c2cccc([N-]C(=O)[N-]c3ccc([C@H]4C[C@@H]4c4nc5ccccc5[n-]4)cc3)c2)CC1 (3D coordinates assigned)
CC(=O)N1CCN(C(=O)c2cccc([N-]C(=O)[N-]c3ccc([C@H]4C[C@@H]4c4nc5ccccc5[n-]4)cc3)c2)CC1 (nonaromatic ring conformer: 386.6193439767983 kcal/mol)

>  <smiles>  (25) 
CC(=O)N1CCN(C(=O)c2cccc(NC(=O)Nc3ccc(C4CC4c4nc5ccccc5[nH]4)cc3)c2)CC1

>  <score_type>  (25) 
oracle

>  <origin>  (25) 
adg

>  <m_score__min__energy>  (25) 
-13.67

>  <m_primary>  (25) 
energy

$$$$
25:0
     RDKit          3D

 61 64  0  0  0  0  0  0  0  0999 V2000
   57.9437   31.4890   42.4381 H   0  0  0  0  0  0  0  0  0  0  0  0
   57.3940   31.5950   43.3850 C   0  0  0  0  0  0  0  0  0  0  0  0
   56.6860   30.4030   43.8970 C   0  0  0  0  0  0  0  0  0  0  0  0
   55.8790   30.5020   44.8630 O   0  0  0  0  0  0  0  0  0  0  0  0
   57.0390   29.0450   43.3560 C   0  0  0  0  0  0  0  0  0  0  0  0
   56.1108   28.4976   43.1352 H   0  0  0  0  0  0  0  0  0  0  0  0
   57.6415   29.1859   42.4465 H   0  0  0  0  0  0  0  0  0  0  0  0
   57.8730   28.2270   44.3600 C   0  0  0  0  0  0  0  0  0  0  0  0
   57.3547   28.2304   45.3302 H   0  0  0  0  0  0  0  0  0  0  0  0
   57.9748   27.2112   43.9505 H   0  0  0  0  0  0  0  0  0  0  0  0
   59.2950   28.7850   44.5620 C   0  0  0  0  0  0  0  0  0  0  0  0
   59.7933   28.8227   43.5820 H   0  0  0  0  0  0  0  0  0  0  0  0
   59.1826   29.7782   45.0214 H   0  0  0  0  0  0  0  0  0  0  0  0
   60.1700   27.9520   45.5170 C   0  0  0  0  0  0  0  0  0  0  0  0
   59.9079   26.8907   45.3952 H   0  0  0  0  0  0  0  0  0  0  0  0
   61.2199   28.1508   45.2558 H   0  0  0  0  0  0  0  0  0  0  0  0
   59.9900   28.3270   46.9670 C   0  0  0  0  0  0  0  0  0  0  0  0
   59.2600   29.4750   47.3180 C   0  0  0  0  0  0  0  0  0  0  0  0
   58.8051   30.0958   46.5321 H   0  0  0  0  0  0  0  0  0  0  0  0
   59.1090   29.8320   48.6600 C   0  0  0  0  0  0  0  0  0  0  0  0
   58.5328   30.7297   48.9285 H   0  0  0  0  0  0  0  0  0  0  0  0
   59.6890   29.0500   49.6610 C   0  0  0  0  0  0  0  0  0  0  0  0
   59.5676   29.3316   50.7174 H   0  0  0  0  0  0  0  0  0  0  0  0
   60.4230   27.9110   49.3230 C   0  0  0  0  0  0  0  0  0  0  0  0
   60.8806   27.2978   50.1133 H   0  0  0  0  0  0  0  0  0  0  0  0
   60.5770   27.5490   47.9810 C   0  0  0  0  0  0  0  0  0  0  0  0
   61.1588   26.6533   47.7178 H   0  0  0  0  0  0  0  0  0  0  0  0
   57.4200   32.7950   43.9820 C   0  0  0  0  0  0  0  0  0  0  0  0
   56.7663   33.5798   43.5735 H   0  0  0  0  0  0  0  0  0  0  0  0
   58.2590   33.1440   45.1460 C   0  0  0  0  0  0  0  0  0  0  0  0
   59.1490   34.2230   45.0560 C   0  0  0  0  0  0  0  0  0  0  0  0
   59.2433   34.7756   44.1096 H   0  0  0  0  0  0  0  0  0  0  0  0
   59.9180   34.6020   46.1610 C   0  0  0  0  0  0  0  0  0  0  0  0
   60.6298   35.4361   46.0734 H   0  0  0  0  0  0  0  0  0  0  0  0
   59.7840   33.9190   47.3860 C   0  0  0  0  0  0  0  0  0  0  0  0
   60.5190   34.2620   48.5320 O   0  0  0  0  0  0  0  0  0  0  0  0
   61.9430   34.1980   48.6600 C   0  0  2  0  0  0  0  0  0  0  0  0
   62.3493   35.2094   48.5120 H   0  0  0  0  0  0  0  0  0  0  0  0
   62.5490   33.2470   47.5970 C   0  0  2  0  0  0  0  0  0  0  0  0
   62.2905   33.5906   46.5845 H   0  0  0  0  0  0  0  0  0  0  0  0
   62.0090   31.8230   47.8370 C   0  0  0  0  0  0  0  0  0  0  0  0
   62.4660   31.1304   47.1149 H   0  0  0  0  0  0  0  0  0  0  0  0
   60.9166   31.8169   47.7076 H   0  0  0  0  0  0  0  0  0  0  0  0
   62.3630   31.3760   49.2780 C   0  0  0  0  0  0  0  0  0  0  0  0
   62.9668   30.4577   49.2327 H   0  0  0  0  0  0  0  0  0  0  0  0
   61.4292   31.1933   49.8300 H   0  0  0  0  0  0  0  0  0  0  0  0
   63.1330   32.4300   49.9820 N   0  0  1  0  0  0  0  0  0  0  0  0
   63.3700   32.1010   50.9480 H   0  0  0  0  0  0  0  0  0  0  0  0
   64.3860   32.7180   49.2410 C   0  0  0  0  0  0  0  0  0  0  0  0
   64.9895   31.8002   49.1829 H   0  0  0  0  0  0  0  0  0  0  0  0
   64.9374   33.5062   49.7745 H   0  0  0  0  0  0  0  0  0  0  0  0
   64.0760   33.2140   47.8050 C   0  0  0  0  0  0  0  0  0  0  0  0
   64.5320   32.5306   47.0736 H   0  0  0  0  0  0  0  0  0  0  0  0
   64.4891   34.2240   47.6664 H   0  0  0  0  0  0  0  0  0  0  0  0
   62.3130   33.6640   50.0750 C   0  0  0  0  0  0  0  0  0  0  0  0
   62.8842   34.4354   50.6123 H   0  0  0  0  0  0  0  0  0  0  0  0
   61.3836   33.4266   50.6133 H   0  0  0  0  0  0  0  0  0  0  0  0
   58.8730   32.8600   47.4800 C   0  0  0  0  0  0  0  0  0  0  0  0
   58.7543   32.3262   48.4344 H   0  0  0  0  0  0  0  0  0  0  0  0
   58.1130   32.4750   46.3720 C   0  0  0  0  0  0  0  0  0  0  0  0
   57.3974   31.6443   46.4607 H   0  0  0  0  0  0  0  0  0  0  0  0
  1  2  1  0
  2  3  1  0
  3  4  2  0
  3  5  1  0
  5  6  1  0
  5  7  1  0
  5  8  1  0
  8  9  1  0
  8 10  1  0
  8 11  1  0
 11 12  1  0
 11 13  1  0
 11 14  1  0
 14 15  1  0
 14 16  1  0
 14 17  1  0
 17 18  2  0
 18 19  1  0
 18 20  1  0
 20 21  1  0
 20 22  2  0
 22 23  1  0
 22 24  1  0
 24 25  1  0
 24 26  2  0
 26 27  1  0
  2 28  2  0
 28 29  1  0
 28 30  1  0
 30 31  2  0
 31 32  1  0
 31 33  1  0
 33 34  1  0
 33 35  2  0
 35 36  1  0
 36 37  1  0
 37 38  1  6
 37 39  1  0
 39 40  1  6
 39 41  1  0
 41 42  1  0
 41 43  1  0
 41 44  1  0
 44 45  1  0
 44 46  1  0
 44 47  1  0
 47 48  1  1
 47 49  1  0
 49 50  1  0
 49 51  1  0
 49 52  1  0
 52 53  1  0
 52 54  1  0
 47 55  1  0
 55 56  1  0
 55 57  1  0
 35 58  1  0
 58 59  1  0
 58 60  2  0
 60 61  1  0
 26 17  1  0
 60 30  1  0
 55 37  1  0
 52 39  1  0
M  CHG  1  47   1
M  END
>  <UniqueID>  (26) 
26

>  <SMILES>  (26) 
O=C(/C=C\c1ccc(O[C@H]2C[NH+]3CCC2CC3)cc1)CCCCc1ccccc1

>  <Energy>  (26) 
80.055339680641

>  <Genealogy>  (26) 
O=C(C=Cc1ccc(OC2C[NH+]3CCC2CC3)cc1)CCCCc1ccccc1 (protonated)
O=C(C=Cc1ccc(O[C@H]2C[NH+]3CCC2CC3)cc1)CCCCc1ccccc1 (chirality)
O=C(/C=C\c1ccc(O[C@H]2C[NH+]3CCC2CC3)cc1)CCCCc1ccccc1 (cis-trans isomerization)
O=C(/C=C\c1ccc(O[C@H]2C[NH+]3CCC2CC3)cc1)CCCCc1ccccc1 (3D coordinates assigned)
O=C(/C=C\c1ccc(O[C@H]2C[NH+]3CCC2CC3)cc1)CCCCc1ccccc1 (nonaromatic ring conformer: 80.055339680641 kcal/mol)

>  <smiles>  (26) 
O=C(C=Cc1ccc(OC2CN3CCC2CC3)cc1)CCCCc1ccccc1

>  <score_type>  (26) 
oracle

>  <origin>  (26) 
adg

>  <m_score__min__energy>  (26) 
-8.3599999999999994

>  <m_primary>  (26) 
energy

$$$$
26:0
     RDKit          3D

 47 49  0  0  0  0  0  0  0  0999 V2000
   54.5980   24.6890   45.4930 C   0  0  0  0  0  0  0  0  0  0  0  0
   55.1780   25.8520   46.0730 O   0  0  0  0  0  0  0  0  0  0  0  0
   56.4780   25.8780   46.5820 C   0  0  0  0  0  0  0  0  0  0  0  0
   56.8000   25.1000   47.5210 O   0  0  0  0  0  0  0  0  0  0  0  0
   57.4940   26.8130   46.0610 C   0  0  0  0  0  0  0  0  0  0  0  0
   57.2480   28.0030   45.4950 C   0  0  0  0  0  0  0  0  0  0  0  0
   58.2060   29.0390   45.0660 C   0  0  0  0  0  0  0  0  0  0  0  0
   57.5020   30.0510   44.5680 C   0  0  0  0  0  0  0  0  0  0  0  0
   58.0740   31.2930   43.9640 C   0  0  0  0  0  0  0  0  0  0  0  0
   57.5640   32.4300   44.6550 O   0  0  0  0  0  0  0  0  0  0  0  0
   58.3460   33.3030   45.4240 C   0  0  0  0  0  0  0  0  0  0  0  0
   58.6830   34.5490   44.8890 C   0  0  0  0  0  0  0  0  0  0  0  0
   59.4380   35.4230   45.6040 N   0  0  0  0  0  0  0  0  0  0  0  0
   59.8930   35.1250   46.8490 C   0  0  0  0  0  0  0  0  0  0  0  0
   59.5960   33.8860   47.4340 C   0  0  0  0  0  0  0  0  0  0  0  0
   60.0760   33.5610   48.7980 C   0  0  0  0  0  0  0  0  0  0  0  0
   59.2470   33.5040   49.7480 O   0  0  0  0  0  0  0  0  0  0  0  0
   61.4630   33.2760   49.0540 N   0  0  0  0  0  0  0  0  0  0  0  0
   62.5070   34.2170   48.6200 C   0  0  0  0  0  0  0  0  0  0  0  0
   63.7210   33.4720   48.0340 C   0  0  0  0  0  0  0  0  0  0  0  0
   63.9500   32.0790   48.6540 C   0  0  0  0  0  0  0  0  0  0  0  0
   63.3220   31.9540   50.0450 C   0  0  0  0  0  0  0  0  0  0  0  0
   61.8040   32.1670   49.9570 C   0  0  0  0  0  0  0  0  0  0  0  0
   58.8040   32.9790   46.7130 C   0  0  0  0  0  0  0  0  0  0  0  0
   56.0930   29.6920   44.6510 C   0  0  0  0  0  0  0  0  0  0  0  0
   55.1260   30.4000   44.2630 O   0  0  0  0  0  0  0  0  0  0  0  0
   55.9570   28.4420   45.2260 O   0  0  0  0  0  0  0  0  0  0  0  0
   54.2599   24.0111   46.2906 H   0  0  0  0  0  0  0  0  0  0  0  0
   53.7391   24.9793   44.8700 H   0  0  0  0  0  0  0  0  0  0  0  0
   55.3466   24.1776   44.8700 H   0  0  0  0  0  0  0  0  0  0  0  0
   58.5470   26.5061   46.1446 H   0  0  0  0  0  0  0  0  0  0  0  0
   59.3019   28.9845   45.1438 H   0  0  0  0  0  0  0  0  0  0  0  0
   59.1705   31.2721   44.0497 H   0  0  0  0  0  0  0  0  0  0  0  0
   57.7926   31.3500   42.9021 H   0  0  0  0  0  0  0  0  0  0  0  0
   58.3347   34.8239   43.8825 H   0  0  0  0  0  0  0  0  0  0  0  0
   60.4976   35.8597   47.4009 H   0  0  0  0  0  0  0  0  0  0  0  0
   62.0908   34.8848   47.8514 H   0  0  0  0  0  0  0  0  0  0  0  0
   62.8417   34.7932   49.4952 H   0  0  0  0  0  0  0  0  0  0  0  0
   63.5645   33.3494   46.9521 H   0  0  0  0  0  0  0  0  0  0  0  0
   64.6110   34.0766   48.2627 H   0  0  0  0  0  0  0  0  0  0  0  0
   63.5038   31.3201   47.9945 H   0  0  0  0  0  0  0  0  0  0  0  0
   65.0349   31.9306   48.7590 H   0  0  0  0  0  0  0  0  0  0  0  0
   63.5263   30.9511   50.4481 H   0  0  0  0  0  0  0  0  0  0  0  0
   63.7560   32.7178   50.7070 H   0  0  0  0  0  0  0  0  0  0  0  0
   61.3356   31.2450   49.5822 H   0  0  0  0  0  0  0  0  0  0  0  0
   61.4334   32.4163   50.9622 H   0  0  0  0  0  0  0  0  0  0  0  0
   58.5401   32.0088   47.1592 H   0  0  0  0  0  0  0  0  0  0  0  0
  1  2  1  0
  2  3  1  0
  3  4  2  0
  3  5  1  0
  5  6  2  3
  6  7  1  0
  7  8  2  0
  8  9  1  0
  9 10  1  0
 10 11  1  0
 11 12  2  0
 12 13  1  0
 13 14  2  0
 14 15  1  0
 15 16  1  0
 16 17  2  0
 16 18  1  0
 18 19  1  0
 19 20  1  0
 20 21  1  0
 21 22  1  0
 22 23  1  0
 15 24  2  0
  8 25  1  0
 25 26  2  0
 25 27  1  0
 27  6  1  0
 24 11  1  0
 23 18  1  0
  1 28  1  0
  1 29  1  0
  1 30  1  0
  5 31  1  0
  7 32  1  0
  9 33  1  0
  9 34  1  0
 12 35  1  0
 14 36  1  0
 19 37  1  0
 19 38  1  0
 20 39  1  0
 20 40  1  0
 21 41  1  0
 21 42  1  0
 22 43  1  0
 22 44  1  0
 23 45  1  0
 23 46  1  0
 24 47  1  0
M  END
>  <UniqueID>  (27) 
27

>  <SMILES>  (27) 
COC(=O)C=C1C=C(COc2cncc(C(=O)N3CCCCC3)c2)C(=O)O1

>  <Energy>  (27) 
76.38381278386251

>  <Genealogy>  (27) 
COC(=O)C=C1C=C(COc2cncc(C(=O)N3CCCCC3)c2)C(=O)O1 (3D coordinates assigned)
COC(=O)C=C1C=C(COc2cncc(C(=O)N3CCCCC3)c2)C(=O)O1 (nonaromatic ring conformer: 76.38381278386251 kcal/mol)

>  <smiles>  (27) 
COC(=O)C=C1C=C(COc2cncc(C(=O)N3CCCCC3)c2)C(=O)O1

>  <score_type>  (27) 
oracle

>  <origin>  (27) 
adg

>  <m_score__min__energy>  (27) 
-9.2799999999999994

>  <m_primary>  (27) 
energy

$$$$
27:0
     RDKit          3D

 65 69  0  0  0  0  0  0  0  0999 V2000
   58.0020   28.3000   44.4890 O   0  0  0  0  0  0  0  0  0  0  0  0
   57.7250   28.6750   45.6590 C   0  0  0  0  0  0  0  0  0  0  0  0
   57.6940   27.6610   46.7720 C   0  0  0  0  0  0  0  0  0  0  0  0
   57.3280   26.3390   46.2640 N   0  0  0  0  0  0  0  0  0  0  0  0
   58.1620   25.3050   46.0130 C   0  0  0  0  0  0  0  0  0  0  0  0
   59.5310   25.3260   46.2510 O   0  0  0  0  0  0  0  0  0  0  0  0
   57.4600   24.2330   45.4990 C   0  0  0  0  0  0  0  0  0  0  0  0
   56.1370   24.6140   45.4640 C   0  0  0  0  0  0  0  0  0  0  0  0
   56.0920   25.9190   45.9120 C   0  0  0  0  0  0  0  0  0  0  0  0
   54.9470   26.7020   45.9930 O   0  0  0  0  0  0  0  0  0  0  0  0
   55.0330   23.7570   44.9230 C   0  0  0  0  0  0  0  0  0  0  0  0
   55.4680   22.2770   44.9010 C   0  0  0  0  0  0  0  0  0  0  0  0
   56.8890   22.1070   44.3190 C   0  0  0  0  0  0  0  0  0  0  0  0
   57.9450   22.8560   45.1590 C   0  0  0  0  0  0  0  0  0  0  0  0
   57.2780   30.0220   45.8610 N   0  0  0  0  0  0  0  0  0  0  0  0
   57.7470   31.1770   45.1480 C   0  0  0  0  0  0  0  0  0  0  0  0
   57.3370   31.4010   43.8230 C   0  0  0  0  0  0  0  0  0  0  0  0
   57.7450   32.5470   43.1380 C   0  0  0  0  0  0  0  0  0  0  0  0
   58.5520   33.4900   43.7740 C   0  0  0  0  0  0  0  0  0  0  0  0
   58.9430   33.2970   45.1010 C   0  0  0  0  0  0  0  0  0  0  0  0
   58.5340   32.1500   45.8080 C   0  0  0  0  0  0  0  0  0  0  0  0
   58.9700   31.9660   47.2150 C   0  0  0  0  0  0  0  0  0  0  0  0
   58.1690   31.4720   48.0540 O   0  0  0  0  0  0  0  0  0  0  0  0
   60.3080   32.2620   47.6370 N   0  0  0  0  0  0  0  0  0  0  0  0
   60.6950   32.7730   48.9220 C   0  0  0  0  0  0  0  0  0  0  0  0
   61.9620   33.3430   49.1380 C   0  0  0  0  0  0  0  0  0  0  0  0
   62.3000   33.8470   50.3960 C   0  0  0  0  0  0  0  0  0  0  0  0
   61.3770   33.7980   51.4430 C   0  0  0  0  0  0  0  0  0  0  0  0
   60.1050   33.2470   51.2340 C   0  0  0  0  0  0  0  0  0  0  0  0
   58.9180   33.2010   52.5350 S   0  0  0  0  0  0  0  0  0  0  0  0
   59.4000   34.0990   53.6400 O   0  0  0  0  0  0  0  0  0  0  0  0
   57.5980   33.7230   52.0420 O   0  0  0  0  0  0  0  0  0  0  0  0
   58.7610   31.5620   53.1310 N   0  0  0  0  0  0  0  0  0  0  0  0
   59.2770   30.5600   52.1770 C   0  0  0  0  0  0  0  0  0  0  0  0
   58.2500   30.2050   51.0920 C   0  0  0  0  0  0  0  0  0  0  0  0
   57.0280   29.7950   51.6690 O   0  0  0  0  0  0  0  0  0  0  0  0
   56.4720   30.8640   52.4060 C   0  0  0  0  0  0  0  0  0  0  0  0
   57.3880   31.2560   53.5760 C   0  0  0  0  0  0  0  0  0  0  0  0
   59.7650   32.7490   49.9680 C   0  0  0  0  0  0  0  0  0  0  0  0
   58.6897   27.6054   47.2363 H   0  0  0  0  0  0  0  0  0  0  0  0
   56.9421   27.9738   47.5114 H   0  0  0  0  0  0  0  0  0  0  0  0
   54.1436   23.8647   45.5613 H   0  0  0  0  0  0  0  0  0  0  0  0
   54.8004   24.0776   43.8968 H   0  0  0  0  0  0  0  0  0  0  0  0
   55.4550   21.8864   45.9292 H   0  0  0  0  0  0  0  0  0  0  0  0
   54.7666   21.7232   44.2597 H   0  0  0  0  0  0  0  0  0  0  0  0
   57.1412   21.0364   44.3021 H   0  0  0  0  0  0  0  0  0  0  0  0
   56.8960   22.5306   43.3038 H   0  0  0  0  0  0  0  0  0  0  0  0
   58.1319   22.2977   46.0881 H   0  0  0  0  0  0  0  0  0  0  0  0
   58.8734   22.9383   44.5748 H   0  0  0  0  0  0  0  0  0  0  0  0
   56.6891   30.6673   43.3211 H   0  0  0  0  0  0  0  0  0  0  0  0
   57.4298   32.7062   42.0962 H   0  0  0  0  0  0  0  0  0  0  0  0
   58.8812   34.3874   43.2296 H   0  0  0  0  0  0  0  0  0  0  0  0
   59.5757   34.0473   45.5978 H   0  0  0  0  0  0  0  0  0  0  0  0
   62.6890   33.3921   48.3140 H   0  0  0  0  0  0  0  0  0  0  0  0
   63.2958   34.2837   50.5626 H   0  0  0  0  0  0  0  0  0  0  0  0
   61.6486   34.1924   52.4333 H   0  0  0  0  0  0  0  0  0  0  0  0
   60.1781   30.9641   51.6925 H   0  0  0  0  0  0  0  0  0  0  0  0
   59.5012   29.6426   52.7411 H   0  0  0  0  0  0  0  0  0  0  0  0
   58.0720   31.0888   50.4618 H   0  0  0  0  0  0  0  0  0  0  0  0
   58.6489   29.3764   50.4884 H   0  0  0  0  0  0  0  0  0  0  0  0
   56.3441   31.7316   51.7420 H   0  0  0  0  0  0  0  0  0  0  0  0
   55.5004   30.5448   52.8110 H   0  0  0  0  0  0  0  0  0  0  0  0
   56.9697   32.1449   54.0709 H   0  0  0  0  0  0  0  0  0  0  0  0
   57.4395   30.4006   54.2657 H   0  0  0  0  0  0  0  0  0  0  0  0
   58.7600   32.3364   49.7955 H   0  0  0  0  0  0  0  0  0  0  0  0
  1  2  2  0
  2  3  1  0
  3  4  1  0
  4  5  1  0
  5  6  1  0
  5  7  2  0
  7  8  1  0
  8  9  2  0
  9 10  1  0
  8 11  1  0
 11 12  1  0
 12 13  1  0
 13 14  1  0
  2 15  1  0
 15 16  1  0
 16 17  2  0
 17 18  1  0
 18 19  2  0
 19 20  1  0
 20 21  2  0
 21 22  1  0
 22 23  2  0
 22 24  1  0
 24 25  1  0
 25 26  2  0
 26 27  1  0
 27 28  2  0
 28 29  1  0
 29 30  1  0
 30 31  2  0
 30 32  2  0
 30 33  1  0
 33 34  1  0
 34 35  1  0
 35 36  1  0
 36 37  1  0
 37 38  1  0
 29 39  2  0
  9  4  1  0
 21 16  1  0
 39 25  1  0
 14  7  1  0
 38 33  1  0
  3 40  1  0
  3 41  1  0
 11 42  1  0
 11 43  1  0
 12 44  1  0
 12 45  1  0
 13 46  1  0
 13 47  1  0
 14 48  1  0
 14 49  1  0
 17 50  1  0
 18 51  1  0
 19 52  1  0
 20 53  1  0
 26 54  1  0
 27 55  1  0
 28 56  1  0
 34 57  1  0
 34 58  1  0
 35 59  1  0
 35 60  1  0
 37 61  1  0
 37 62  1  0
 38 63  1  0
 38 64  1  0
 39 65  1  0
M  CHG  4   6  -1  10  -1  15  -1  24  -1
M  END
>  <UniqueID>  (28) 
28

>  <SMILES>  (28) 
O=C(Cn1c([O-])c2c(c1[O-])CCCC2)[N-]c1ccccc1C(=O)[N-]c1cccc(S(=O)(=O)N2CCOCC2)c1

>  <Energy>  (28) 
115.96704069568038

>  <Genealogy>  (28) 
O=C(Cn1c([O-])c2c(c1[O-])CCCC2)[N-]c1ccccc1C(=O)[N-]c1cccc(S(=O)(=O)N2CCOCC2)c1 (protonated)
O=C(Cn1c([O-])c2c(c1[O-])CCCC2)[N-]c1ccccc1C(=O)[N-]c1cccc(S(=O)(=O)N2CCOCC2)c1 (3D coordinates assigned)
O=C(Cn1c([O-])c2c(c1[O-])CCCC2)[N-]c1ccccc1C(=O)[N-]c1cccc(S(=O)(=O)N2CCOCC2)c1 (nonaromatic ring conformer: 115.96704069568038 kcal/mol)

>  <smiles>  (28) 
O=C(Cn1c(O)c2c(c1O)CCCC2)Nc1ccccc1C(=O)Nc1cccc(S(=O)(=O)N2CCOCC2)c1

>  <score_type>  (28) 
oracle

>  <origin>  (28) 
adg

>  <m_score__min__energy>  (28) 
-17.84

>  <m_primary>  (28) 
energy

$$$$
28:0
     RDKit          3D

 50 53  0  0  0  0  0  0  0  0999 V2000
   60.3670   26.6100   47.6080 C   0  0  0  0  0  0  0  0  0  0  0  0
   59.9340   27.8610   47.4020 C   0  0  0  0  0  0  0  0  0  0  0  0
   60.6830   28.8650   47.9380 N   0  0  0  0  0  0  0  0  0  0  0  0
   60.2660   30.1540   47.9800 C   0  0  0  0  0  0  0  0  0  0  0  0
   58.9980   30.4940   47.5110 C   0  0  0  0  0  0  0  0  0  0  0  0
   58.5050   31.8840   47.5920 C   0  0  0  0  0  0  0  0  0  0  0  0
   58.1880   32.3510   48.7210 O   0  0  0  0  0  0  0  0  0  0  0  0
   58.3830   32.7180   46.4240 N   0  0  0  0  0  0  0  0  0  0  0  0
   58.1930   32.1520   45.0990 C   0  0  0  0  0  0  0  0  0  0  0  0
   57.7840   33.3200   44.2200 C   0  0  0  0  0  0  0  0  0  0  0  0
   58.3310   34.5530   44.9260 C   0  0  0  0  0  0  0  0  0  0  0  0
   58.3810   34.1810   46.4140 C   0  0  2  0  0  0  0  0  0  0  0  0
   59.6370   34.7550   47.1340 C   0  0  0  0  0  0  0  0  0  0  0  0
   60.7540   33.8090   47.3800 N   0  0  0  0  0  0  0  0  0  0  0  0
   61.3330   33.7420   48.7200 C   0  0  0  0  0  0  0  0  0  0  0  0
   62.6150   32.9550   48.5550 C   0  0  0  0  0  0  0  0  0  0  0  0
   63.0900   33.2970   47.1500 C   0  0  0  0  0  0  0  0  0  0  0  0
   61.8670   33.8620   46.4290 C   0  0  0  0  0  0  0  0  0  0  0  0
   58.1960   29.4940   46.9520 C   0  0  0  0  0  0  0  0  0  0  0  0
   58.6790   28.1790   46.7900 C   0  0  0  0  0  0  0  0  0  0  0  0
   57.9310   27.3350   46.0360 C   0  0  0  0  0  0  0  0  0  0  0  0
   57.2690   26.1040   46.5110 C   0  0  0  0  0  0  0  0  0  0  0  0
   57.9080   25.0000   46.9410 N   0  0  0  0  0  0  0  0  0  0  0  0
   56.9070   24.1190   47.1510 C   0  0  0  0  0  0  0  0  0  0  0  0
   57.1080   22.9540   47.5830 O   0  0  0  0  0  0  0  0  0  0  0  0
   55.6740   24.5820   46.8540 N   0  0  0  0  0  0  0  0  0  0  0  0
   55.9230   25.8350   46.4390 C   0  0  0  0  0  0  0  0  0  0  0  0
   54.9410   26.7140   45.9990 O   0  0  0  0  0  0  0  0  0  0  0  0
   59.8032   25.7585   47.1991 H   0  0  0  0  0  0  0  0  0  0  0  0
   61.2863   26.4343   48.1860 H   0  0  0  0  0  0  0  0  0  0  0  0
   60.9290   30.9329   48.3847 H   0  0  0  0  0  0  0  0  0  0  0  0
   59.1287   31.7038   44.7336 H   0  0  0  0  0  0  0  0  0  0  0  0
   57.4365   31.3535   45.0985 H   0  0  0  0  0  0  0  0  0  0  0  0
   58.2239   33.2217   43.2166 H   0  0  0  0  0  0  0  0  0  0  0  0
   56.6940   33.3719   44.0816 H   0  0  0  0  0  0  0  0  0  0  0  0
   59.3383   34.7938   44.5553 H   0  0  0  0  0  0  0  0  0  0  0  0
   57.7046   35.4392   44.7464 H   0  0  0  0  0  0  0  0  0  0  0  0
   57.5294   34.6083   46.9637 H   0  0  0  0  0  0  0  0  0  0  0  0
   60.0271   35.5787   46.5181 H   0  0  0  0  0  0  0  0  0  0  0  0
   59.2864   35.0548   48.1326 H   0  0  0  0  0  0  0  0  0  0  0  0
   61.5458   34.7521   49.0999 H   0  0  0  0  0  0  0  0  0  0  0  0
   60.6496   33.2710   49.4419 H   0  0  0  0  0  0  0  0  0  0  0  0
   63.3599   33.2628   49.3036 H   0  0  0  0  0  0  0  0  0  0  0  0
   62.4651   31.8744   48.6959 H   0  0  0  0  0  0  0  0  0  0  0  0
   63.8937   34.0471   47.1883 H   0  0  0  0  0  0  0  0  0  0  0  0
   63.4968   32.4159   46.6321 H   0  0  0  0  0  0  0  0  0  0  0  0
   62.0545   34.9018   46.1229 H   0  0  0  0  0  0  0  0  0  0  0  0
   61.6399   33.2819   45.5224 H   0  0  0  0  0  0  0  0  0  0  0  0
   57.1716   29.7371   46.6334 H   0  0  0  0  0  0  0  0  0  0  0  0
   57.8064   27.5913   44.9736 H   0  0  0  0  0  0  0  0  0  0  0  0
  1  2  2  0
  2  3  1  0
  3  4  2  0
  4  5  1  0
  5  6  1  0
  6  7  2  0
  6  8  1  0
  8  9  1  0
  9 10  1  0
 10 11  1  0
 11 12  1  0
 12 13  1  0
 13 14  1  0
 14 15  1  0
 15 16  1  0
 16 17  1  0
 17 18  1  0
  5 19  2  0
 19 20  1  0
 20 21  2  3
 21 22  1  0
 22 23  1  0
 23 24  1  0
 24 25  2  0
 24 26  1  0
 26 27  1  0
 27 28  1  0
 20  2  1  0
 27 22  2  0
 12  8  1  0
 18 14  1  0
  1 29  1  0
  1 30  1  0
  4 31  1  0
  9 32  1  0
  9 33  1  0
 10 34  1  0
 10 35  1  0
 11 36  1  0
 11 37  1  0
 12 38  1  1
 13 39  1  0
 13 40  1  0
 15 41  1  0
 15 42  1  0
 16 43  1  0
 16 44  1  0
 17 45  1  0
 17 46  1  0
 18 47  1  0
 18 48  1  0
 19 49  1  0
 21 50  1  0
M  CHG  3  23  -1  26  -1  28  -1
M  END
>  <UniqueID>  (29) 
29

>  <SMILES>  (29) 
C=c1ncc(C(=O)N2CCC[C@@H]2CN2CCCC2)cc1=Cc1[n-]c(=O)[n-]c1[O-]

>  <Energy>  (29) 
116.78983150212285

>  <Genealogy>  (29) 
C=c1ncc(C(=O)N2CCCC2CN2CCCC2)cc1=Cc1[n-]c(=O)[n-]c1[O-] (protonated)
C=c1ncc(C(=O)N2CCC[C@@H]2CN2CCCC2)cc1=Cc1[n-]c(=O)[n-]c1[O-] (chirality)
C=c1ncc(C(=O)N2CCC[C@@H]2CN2CCCC2)cc1=Cc1[n-]c(=O)[n-]c1[O-] (3D coordinates assigned)
C=c1ncc(C(=O)N2CCC[C@@H]2CN2CCCC2)cc1=Cc1[n-]c(=O)[n-]c1[O-] (nonaromatic ring conformer: 116.78983150212285 kcal/mol)

>  <smiles>  (29) 
C=c1ncc(C(=O)N2CCCC2CN2CCCC2)cc1=Cc1[nH]c(=O)[nH]c1O

>  <score_type>  (29) 
oracle

>  <origin>  (29) 
adg

>  <m_score__min__energy>  (29) 
-17.989999999999998

>  <m_primary>  (29) 
energy

$$$$
29:0
     RDKit          3D

 36 38  0  0  0  0  0  0  0  0999 V2000
   58.9860   32.9250   43.0504 H   0  0  0  0  0  0  0  0  0  0  0  0
   58.4930   32.8510   44.0310 C   0  0  0  0  0  0  0  0  0  0  0  0
   58.6540   33.8640   44.9000 C   0  0  0  0  0  0  0  0  0  0  0  0
   58.0968   34.7954   44.7208 H   0  0  0  0  0  0  0  0  0  0  0  0
   59.5410   33.7960   46.0870 C   0  0  0  0  0  0  0  0  0  0  0  0
   59.0310   33.7370   47.3970 C   0  0  0  0  0  0  0  0  0  0  0  0
   57.9440   33.7310   47.5657 H   0  0  0  0  0  0  0  0  0  0  0  0
   59.9100   33.6860   48.4850 C   0  0  0  0  0  0  0  0  0  0  0  0
   59.4160   33.6220   49.7970 C   0  0  0  0  0  0  0  0  0  0  0  0
   58.3297   33.6118   49.9696 H   0  0  0  0  0  0  0  0  0  0  0  0
   60.2910   33.5710   50.8880 C   0  0  0  0  0  0  0  0  0  0  0  0
   59.7430   33.5060   52.1790 O   0  0  0  0  0  0  0  0  0  0  0  0
   58.5640   34.1900   52.5880 C   0  0  0  0  0  0  0  0  0  0  0  0
   58.5180   34.2167   53.6867 H   0  0  0  0  0  0  0  0  0  0  0  0
   58.5820   35.2179   52.1967 H   0  0  0  0  0  0  0  0  0  0  0  0
   57.6806   33.6641   52.1967 H   0  0  0  0  0  0  0  0  0  0  0  0
   61.6790   33.5880   50.6590 C   0  0  0  0  0  0  0  0  0  0  0  0
   62.3740   33.5475   51.5107 H   0  0  0  0  0  0  0  0  0  0  0  0
   62.1800   33.6560   49.3570 C   0  0  0  0  0  0  0  0  0  0  0  0
   63.2671   33.6697   49.1895 H   0  0  0  0  0  0  0  0  0  0  0  0
   61.3030   33.7070   48.2590 C   0  0  0  0  0  0  0  0  0  0  0  0
   61.7740   33.7850   46.9360 C   0  0  0  0  0  0  0  0  0  0  0  0
   63.0130   33.8120   46.6960 O   0  0  0  0  0  0  0  0  0  0  0  0
   60.8920   33.8320   45.8980 N   0  0  0  0  0  0  0  0  0  0  0  0
   61.2720   33.8890   44.9250 H   0  0  0  0  0  0  0  0  0  0  0  0
   57.6880   31.6390   44.3200 C   0  0  0  0  0  0  0  0  0  0  0  0
   58.0170   30.8670   45.4480 C   0  0  0  0  0  0  0  0  0  0  0  0
   58.8514   31.1760   46.0948 H   0  0  0  0  0  0  0  0  0  0  0  0
   57.2940   29.7100   45.7560 C   0  0  0  0  0  0  0  0  0  0  0  0
   57.5556   29.1188   46.6460 H   0  0  0  0  0  0  0  0  0  0  0  0
   56.2400   29.3050   44.9340 C   0  0  0  0  0  0  0  0  0  0  0  0
   55.5220   28.1550   45.2420 O   0  0  0  0  0  0  0  0  0  0  0  0
   55.9120   30.0520   43.8010 C   0  0  0  0  0  0  0  0  0  0  0  0
   55.0849   29.7289   43.1517 H   0  0  0  0  0  0  0  0  0  0  0  0
   56.6320   31.2100   43.4890 C   0  0  0  0  0  0  0  0  0  0  0  0
   56.3732   31.7894   42.5905 H   0  0  0  0  0  0  0  0  0  0  0  0
  1  2  1  0
  2  3  2  0
  3  4  1  0
  3  5  1  0
  5  6  2  0
  6  7  1  0
  6  8  1  0
  8  9  2  0
  9 10  1  0
  9 11  1  0
 11 12  1  0
 12 13  1  0
 13 14  1  0
 13 15  1  0
 13 16  1  0
 11 17  2  0
 17 18  1  0
 17 19  1  0
 19 20  1  0
 19 21  2  0
 21 22  1  0
 22 23  2  0
 22 24  1  0
 24 25  1  0
  2 26  1  0
 26 27  2  0
 27 28  1  0
 27 29  1  0
 29 30  1  0
 29 31  2  0
 31 32  1  0
 31 33  1  0
 33 34  1  0
 33 35  2  0
 35 36  1  0
 24  5  1  0
 35 26  1  0
 21  8  1  0
M  CHG  1  32  -1
M  END
>  <UniqueID>  (30) 
30

>  <SMILES>  (30) 
COc1ccc2c(=O)[nH]c(/C=C/c3ccc([O-])cc3)cc2c1

>  <Energy>  (30) 
48.20260869171905

>  <Genealogy>  (30) 
COc1ccc2c(=O)[nH]c(C=Cc3ccc([O-])cc3)cc2c1 (protonated)
COc1ccc2c(=O)[nH]c(/C=C/c3ccc([O-])cc3)cc2c1 (cis-trans isomerization)
COc1ccc2c(=O)[nH]c(/C=C/c3ccc([O-])cc3)cc2c1 (3D coordinates assigned)
COc1ccc2c(=O)[nH]c(/C=C/c3ccc([O-])cc3)cc2c1 (optimized conformer: 48.20260869171905 kcal/mol)

>  <smiles>  (30) 
COc1ccc2c(=O)[nH]c(C=Cc3ccc(O)cc3)cc2c1

>  <score_type>  (30) 
oracle

>  <origin>  (30) 
adg

>  <m_score__min__energy>  (30) 
-10.57

>  <m_primary>  (30) 
energy

$$$$
30:0
     RDKit          3D

 65 68  0  0  0  0  0  0  0  0999 V2000
   58.1500   33.5670   52.3970 C   0  0  0  0  0  0  0  0  0  0  0  0
   58.5130   32.5770   51.5860 C   0  0  0  0  0  0  0  0  0  0  0  0
   57.6390   31.8940   50.7010 N   0  0  0  0  0  0  0  0  0  0  0  0
   58.4380   30.9130   50.0370 C   0  0  0  0  0  0  0  0  0  0  0  0
   59.7160   30.9460   50.4400 C   0  0  0  0  0  0  0  0  0  0  0  0
   60.8740   30.1080   49.9490 C   0  0  0  0  0  0  0  0  0  0  0  0
   61.9730   30.8740   49.1870 C   0  0  0  0  0  0  0  0  0  0  0  0
   63.0510   31.5580   50.0220 C   0  0  0  0  0  0  0  0  0  0  0  0
   63.4700   31.0380   51.2680 C   0  0  0  0  0  0  0  0  0  0  0  0
   64.4840   31.6560   51.9990 C   0  0  0  0  0  0  0  0  0  0  0  0
   65.1210   32.7880   51.4960 C   0  0  0  0  0  0  0  0  0  0  0  0
   64.7490   33.3030   50.2550 C   0  0  0  0  0  0  0  0  0  0  0  0
   63.7190   32.7050   49.5140 C   0  0  0  0  0  0  0  0  0  0  0  0
   63.4190   33.2630   48.1770 C   0  0  0  0  0  0  0  0  0  0  0  0
   64.3770   33.4240   47.3730 O   0  0  0  0  0  0  0  0  0  0  0  0
   62.0810   33.6330   47.7800 N   0  0  0  0  0  0  0  0  0  0  0  0
   61.0730   34.0460   48.7730 C   0  0  0  0  0  0  0  0  0  0  0  0
   59.6760   33.4750   48.4470 C   0  0  0  0  0  0  0  0  0  0  0  0
   59.4470   33.2220   46.9370 C   0  0  0  0  0  0  0  0  0  0  0  0
   57.9940   33.3970   46.5660 C   0  0  0  0  0  0  0  0  0  0  0  0
   57.1190   33.4130   47.4760 O   0  0  0  0  0  0  0  0  0  0  0  0
   57.5920   33.5850   45.1980 N   0  0  0  0  0  0  0  0  0  0  0  0
   56.6640   34.6760   44.8900 C   0  0  0  0  0  0  0  0  0  0  0  0
   58.0210   32.6470   44.1510 C   0  0  0  0  0  0  0  0  0  0  0  0
   57.6740   31.2310   44.5320 C   0  0  0  0  0  0  0  0  0  0  0  0
   58.6140   30.4180   45.1850 C   0  0  0  0  0  0  0  0  0  0  0  0
   58.2970   29.0970   45.5150 C   0  0  0  0  0  0  0  0  0  0  0  0
   57.0420   28.5760   45.1890 C   0  0  0  0  0  0  0  0  0  0  0  0
   56.1050   29.3720   44.5270 C   0  0  0  0  0  0  0  0  0  0  0  0
   56.4200   30.6930   44.1930 C   0  0  0  0  0  0  0  0  0  0  0  0
   60.3330   34.1360   46.0780 C   0  0  0  0  0  0  0  0  0  0  0  0
   61.8100   33.8250   46.3460 C   0  0  0  0  0  0  0  0  0  0  0  0
   59.8330   32.0010   51.4400 C   0  0  0  0  0  0  0  0  0  0  0  0
   60.8790   32.3420   52.0540 O   0  0  0  0  0  0  0  0  0  0  0  0
   58.8948   34.0423   53.0523 H   0  0  0  0  0  0  0  0  0  0  0  0
   57.1051   33.9104   52.4123 H   0  0  0  0  0  0  0  0  0  0  0  0
   56.6210   32.0740   50.5490 H   0  0  0  0  0  0  0  0  0  0  0  0
   58.0497   30.2124   49.2831 H   0  0  0  0  0  0  0  0  0  0  0  0
   61.3393   29.6283   50.8227 H   0  0  0  0  0  0  0  0  0  0  0  0
   60.4465   29.3967   49.2270 H   0  0  0  0  0  0  0  0  0  0  0  0
   62.4752   30.1571   48.5208 H   0  0  0  0  0  0  0  0  0  0  0  0
   61.4462   31.6937   48.6765 H   0  0  0  0  0  0  0  0  0  0  0  0
   62.9891   30.1326   51.6667 H   0  0  0  0  0  0  0  0  0  0  0  0
   64.7819   31.2482   52.9762 H   0  0  0  0  0  0  0  0  0  0  0  0
   65.9173   33.2754   52.0777 H   0  0  0  0  0  0  0  0  0  0  0  0
   65.2677   34.1860   49.8534 H   0  0  0  0  0  0  0  0  0  0  0  0
   61.3822   33.6848   49.7650 H   0  0  0  0  0  0  0  0  0  0  0  0
   61.0055   35.1438   48.7540 H   0  0  0  0  0  0  0  0  0  0  0  0
   59.5568   32.5210   48.9815 H   0  0  0  0  0  0  0  0  0  0  0  0
   58.9382   34.2269   48.7637 H   0  0  0  0  0  0  0  0  0  0  0  0
   59.7303   32.1787   46.7338 H   0  0  0  0  0  0  0  0  0  0  0  0
   56.2905   35.1151   45.8268 H   0  0  0  0  0  0  0  0  0  0  0  0
   57.1865   35.4479   44.3060 H   0  0  0  0  0  0  0  0  0  0  0  0
   55.8182   34.2841   44.3060 H   0  0  0  0  0  0  0  0  0  0  0  0
   57.5151   32.9018   43.2081 H   0  0  0  0  0  0  0  0  0  0  0  0
   59.1117   32.7245   44.0310 H   0  0  0  0  0  0  0  0  0  0  0  0
   59.6051   30.8225   45.4383 H   0  0  0  0  0  0  0  0  0  0  0  0
   59.0361   28.4672   46.0317 H   0  0  0  0  0  0  0  0  0  0  0  0
   56.7921   27.5381   45.4541 H   0  0  0  0  0  0  0  0  0  0  0  0
   55.1186   28.9598   44.2681 H   0  0  0  0  0  0  0  0  0  0  0  0
   55.6832   31.3141   43.6626 H   0  0  0  0  0  0  0  0  0  0  0  0
   60.1108   33.9658   45.0142 H   0  0  0  0  0  0  0  0  0  0  0  0
   60.1296   35.1861   46.3347 H   0  0  0  0  0  0  0  0  0  0  0  0
   62.0831   32.9060   45.8067 H   0  0  0  0  0  0  0  0  0  0  0  0
   62.4063   34.6817   45.9989 H   0  0  0  0  0  0  0  0  0  0  0  0
  1  2  2  0
  2  3  1  0
  3  4  1  0
  4  5  2  0
  5  6  1  0
  6  7  1  0
  7  8  1  0
  8  9  2  0
  9 10  1  0
 10 11  2  0
 11 12  1  0
 12 13  2  0
 13 14  1  0
 14 15  2  0
 14 16  1  0
 16 17  1  0
 17 18  1  0
 18 19  1  0
 19 20  1  0
 20 21  2  0
 20 22  1  0
 22 23  1  0
 22 24  1  0
 24 25  1  0
 25 26  2  0
 26 27  1  0
 27 28  2  0
 28 29  1  0
 29 30  2  0
 19 31  1  0
 31 32  1  0
  5 33  1  0
 33 34  2  0
 33  2  1  0
 13  8  1  0
 32 16  1  0
 30 25  1  0
  1 35  1  0
  1 36  1  0
  3 37  1  0
  4 38  1  0
  6 39  1  0
  6 40  1  0
  7 41  1  0
  7 42  1  0
  9 43  1  0
 10 44  1  0
 11 45  1  0
 12 46  1  0
 17 47  1  0
 17 48  1  0
 18 49  1  0
 18 50  1  0
 19 51  1  0
 23 52  1  0
 23 53  1  0
 23 54  1  0
 24 55  1  0
 24 56  1  0
 26 57  1  0
 27 58  1  0
 28 59  1  0
 29 60  1  0
 30 61  1  0
 31 62  1  0
 31 63  1  0
 32 64  1  0
 32 65  1  0
M  END
>  <UniqueID>  (31) 
31

>  <SMILES>  (31) 
C=C1NC=C(CCc2ccccc2C(=O)N2CCC(C(=O)N(C)Cc3ccccc3)CC2)C1=O

>  <Energy>  (31) 
101.72916433249992

>  <Genealogy>  (31) 
C=C1NC=C(CCc2ccccc2C(=O)N2CCC(C(=O)N(C)Cc3ccccc3)CC2)C1=O (3D coordinates assigned)
C=C1NC=C(CCc2ccccc2C(=O)N2CCC(C(=O)N(C)Cc3ccccc3)CC2)C1=O (nonaromatic ring conformer: 101.72916433249992 kcal/mol)

>  <smiles>  (31) 
C=C1NC=C(CCc2ccccc2C(=O)N2CCC(C(=O)N(C)Cc3ccccc3)CC2)C1=O

>  <score_type>  (31) 
oracle

>  <origin>  (31) 
adg

>  <m_score__min__energy>  (31) 
-10.529999999999999

>  <m_primary>  (31) 
energy

$$$$
31:0
     RDKit          3D

 23 24  0  0  0  0  0  0  0  0999 V2000
   56.3960   24.0720   47.3810 O   0  0  0  0  0  0  0  0  0  0  0  0
   57.0540   24.3570   46.3450 C   0  0  0  0  0  0  0  0  0  0  0  0
   58.0420   25.3940   46.4180 N   0  0  0  0  0  0  0  0  0  0  0  0
   57.8940   26.7370   45.9360 C   0  0  0  0  0  0  0  0  0  0  0  0
   59.0100   27.5530   45.6750 C   0  0  0  0  0  0  0  0  0  0  0  0
   58.8320   28.8480   45.1790 C   0  0  0  0  0  0  0  0  0  0  0  0
   57.5460   29.3310   44.9220 C   0  0  0  0  0  0  0  0  0  0  0  0
   56.4340   28.5140   45.1540 C   0  0  0  0  0  0  0  0  0  0  0  0
   55.1560   28.9900   44.8900 O   0  0  0  0  0  0  0  0  0  0  0  0
   56.6090   27.2190   45.6520 C   0  0  0  0  0  0  0  0  0  0  0  0
   56.8410   23.5710   45.1150 C   0  0  0  0  0  0  0  0  0  0  0  0
   56.8030   24.0930   43.8330 C   0  0  0  0  0  0  0  0  0  0  0  0
   56.5560   23.0320   42.9910 C   0  0  0  0  0  0  0  0  0  0  0  0
   56.4510   21.9270   43.8070 C   0  0  0  0  0  0  0  0  0  0  0  0
   56.2000   20.6370   43.3550 O   0  0  0  0  0  0  0  0  0  0  0  0
   56.6160   22.2410   45.1050 N   0  0  0  0  0  0  0  0  0  0  0  0
   60.0247   27.1713   45.8616 H   0  0  0  0  0  0  0  0  0  0  0  0
   59.7064   29.4883   44.9906 H   0  0  0  0  0  0  0  0  0  0  0  0
   57.4081   30.3524   44.5377 H   0  0  0  0  0  0  0  0  0  0  0  0
   55.7334   26.5752   45.8217 H   0  0  0  0  0  0  0  0  0  0  0  0
   56.9424   25.1454   43.5448 H   0  0  0  0  0  0  0  0  0  0  0  0
   56.4621   23.0607   41.8954 H   0  0  0  0  0  0  0  0  0  0  0  0
   56.9110   19.9190   43.4270 H   0  0  0  0  0  0  0  0  0  0  0  0
  1  2  2  0
  2  3  1  0
  3  4  1  0
  4  5  2  0
  5  6  1  0
  6  7  2  0
  7  8  1  0
  8  9  1  0
  8 10  2  0
  2 11  1  0
 11 12  2  0
 12 13  1  0
 13 14  2  0
 14 15  1  0
 14 16  1  0
 10  4  1  0
 16 11  1  0
  5 17  1  0
  6 18  1  0
  7 19  1  0
 10 20  1  0
 12 21  1  0
 13 22  1  0
 15 23  1  0
M  CHG  3   3  -1   9  -1  16  -1
M  END
>  <UniqueID>  (32) 
32

>  <SMILES>  (32) 
O=C([N-]c1cccc([O-])c1)c1ccc(O)[n-]1

>  <Energy>  (32) 
52.75825125159399

>  <Genealogy>  (32) 
O=C([N-]c1cccc([O-])c1)c1ccc(O)[n-]1 (protonated)
O=C([N-]c1cccc([O-])c1)c1ccc(O)[n-]1 (3D coordinates assigned)
O=C([N-]c1cccc([O-])c1)c1ccc(O)[n-]1 (optimized conformer: 52.75825125159399 kcal/mol)

>  <smiles>  (32) 
O=C(Nc1cccc(O)c1)c1ccc(O)[nH]1

>  <score_type>  (32) 
oracle

>  <origin>  (32) 
adg

>  <m_score__min__energy>  (32) 
-11.890000000000001

>  <m_primary>  (32) 
energy

$$$$
32:0
     RDKit          3D

 39 41  0  0  0  0  0  0  0  0999 V2000
   61.1920   28.6330   44.8850 C   0  0  0  0  0  0  0  0  0  0  0  0
   59.8400   27.9270   44.9050 C   0  0  0  0  0  0  0  0  0  0  0  0
   58.7640   28.8640   44.5400 N   0  0  0  0  0  0  0  0  0  0  0  0
   58.7410   30.1020   45.1240 C   0  0  0  0  0  0  0  0  0  0  0  0
   57.7280   31.0260   44.8210 C   0  0  0  0  0  0  0  0  0  0  0  0
   57.7080   32.3620   45.4630 C   0  0  0  0  0  0  0  0  0  0  0  0
   56.6440   33.0380   45.4590 O   0  0  0  0  0  0  0  0  0  0  0  0
   58.8900   32.9180   46.0640 N   0  0  0  0  0  0  0  0  0  0  0  0
   59.3780   34.2220   45.5790 C   0  0  0  0  0  0  0  0  0  0  0  0
   60.5790   34.7490   46.3850 C   0  0  0  0  0  0  0  0  0  0  0  0
   61.5290   33.6350   46.7280 C   0  0  0  0  0  0  0  0  0  0  0  0
   62.9180   33.8160   46.7040 C   0  0  0  0  0  0  0  0  0  0  0  0
   63.7460   32.7980   47.0690 N   0  0  0  0  0  0  0  0  0  0  0  0
   63.2570   31.5950   47.4760 C   0  0  0  0  0  0  0  0  0  0  0  0
   61.8780   31.3770   47.5300 C   0  0  0  0  0  0  0  0  0  0  0  0
   61.0080   32.4050   47.1480 C   0  0  0  0  0  0  0  0  0  0  0  0
   59.5170   32.2400   47.2110 C   0  0  0  0  0  0  0  0  0  0  0  0
   56.7180   30.6430   43.9290 C   0  0  0  0  0  0  0  0  0  0  0  0
   56.7410   29.3770   43.3520 C   0  0  0  0  0  0  0  0  0  0  0  0
   57.7710   28.4890   43.6690 C   0  0  0  0  0  0  0  0  0  0  0  0
   57.7710   27.3410   43.1470 O   0  0  0  0  0  0  0  0  0  0  0  0
   61.5290   28.8090   45.9172 H   0  0  0  0  0  0  0  0  0  0  0  0
   61.9267   28.0034   44.3617 H   0  0  0  0  0  0  0  0  0  0  0  0
   61.0952   29.5957   44.3617 H   0  0  0  0  0  0  0  0  0  0  0  0
   59.8552   27.0951   44.1855 H   0  0  0  0  0  0  0  0  0  0  0  0
   59.6519   27.5468   45.9199 H   0  0  0  0  0  0  0  0  0  0  0  0
   59.5281   30.3771   45.8415 H   0  0  0  0  0  0  0  0  0  0  0  0
   59.6812   34.1143   44.5271 H   0  0  0  0  0  0  0  0  0  0  0  0
   58.5582   34.9460   45.6963 H   0  0  0  0  0  0  0  0  0  0  0  0
   61.1106   35.5035   45.7865 H   0  0  0  0  0  0  0  0  0  0  0  0
   60.2060   35.1916   47.3204 H   0  0  0  0  0  0  0  0  0  0  0  0
   63.3406   34.7818   46.3899 H   0  0  0  0  0  0  0  0  0  0  0  0
   64.7800   32.9460   47.0410 H   0  0  0  0  0  0  0  0  0  0  0  0
   63.9503   30.7909   47.7637 H   0  0  0  0  0  0  0  0  0  0  0  0
   61.4806   30.4089   47.8687 H   0  0  0  0  0  0  0  0  0  0  0  0
   59.2668   31.1692   47.1833 H   0  0  0  0  0  0  0  0  0  0  0  0
   59.1420   32.6849   48.1445 H   0  0  0  0  0  0  0  0  0  0  0  0
   55.9060   31.3437   43.6845 H   0  0  0  0  0  0  0  0  0  0  0  0
   55.9505   29.0767   42.6485 H   0  0  0  0  0  0  0  0  0  0  0  0
  1  2  1  0
  2  3  1  0
  3  4  1  0
  4  5  2  0
  5  6  1  0
  6  7  2  0
  6  8  1  0
  8  9  1  0
  9 10  1  0
 10 11  1  0
 11 12  2  0
 12 13  1  0
 13 14  2  0
 14 15  1  0
 15 16  2  0
 16 17  1  0
  5 18  1  0
 18 19  2  0
 19 20  1  0
 20 21  2  0
 20  3  1  0
 17  8  1  0
 16 11  1  0
  1 22  1  0
  1 23  1  0
  1 24  1  0
  2 25  1  0
  2 26  1  0
  4 27  1  0
  9 28  1  0
  9 29  1  0
 10 30  1  0
 10 31  1  0
 12 32  1  0
 13 33  1  0
 14 34  1  0
 15 35  1  0
 17 36  1  0
 17 37  1  0
 18 38  1  0
 19 39  1  0
M  CHG  1  13   1
M  END
>  <UniqueID>  (33) 
33

>  <SMILES>  (33) 
CCn1cc(C(=O)N2CCc3c[nH+]ccc3C2)ccc1=O

>  <Energy>  (33) 
47.76412077147737

>  <Genealogy>  (33) 
CCn1cc(C(=O)N2CCc3c[nH+]ccc3C2)ccc1=O (protonated)
CCn1cc(C(=O)N2CCc3c[nH+]ccc3C2)ccc1=O (3D coordinates assigned)
CCn1cc(C(=O)N2CCc3c[nH+]ccc3C2)ccc1=O (nonaromatic ring conformer: 47.76412077147737 kcal/mol)

>  <smiles>  (33) 
CCn1cc(C(=O)N2CCc3cnccc3C2)ccc1=O

>  <score_type>  (33) 
oracle

>  <origin>  (33) 
adg

>  <m_score__min__energy>  (33) 
-6.0199999999999996

>  <m_primary>  (33) 
energy

$$$$
33:0
     RDKit          3D

 62 66  0  0  0  0  0  0  0  0999 V2000
   61.0080   27.1340   50.0950 O   0  0  0  0  0  0  0  0  0  0  0  0
   60.8480   28.3250   49.7150 C   0  0  0  0  0  0  0  0  0  0  0  0
   60.0670   28.5880   48.4870 C   0  0  0  0  0  0  0  0  0  0  0  0
   60.3570   27.9090   47.2900 C   0  0  0  0  0  0  0  0  0  0  0  0
   59.5770   28.1200   46.1490 C   0  0  0  0  0  0  0  0  0  0  0  0
   58.4890   29.0040   46.1920 C   0  0  0  0  0  0  0  0  0  0  0  0
   57.4450   29.2050   44.7900 S   0  0  0  0  0  0  0  0  0  0  0  0
   55.9990   29.2320   45.1990 O   0  0  0  0  0  0  0  0  0  0  0  0
   57.6490   28.0470   43.8540 O   0  0  0  0  0  0  0  0  0  0  0  0
   57.8670   30.6780   43.9750 N   0  0  0  0  0  0  0  0  0  0  0  0
   58.1870   31.8770   44.6970 C   0  0  0  0  0  0  0  0  0  0  0  0
   57.3980   33.0190   44.5230 C   0  0  0  0  0  0  0  0  0  0  0  0
   57.7080   34.1990   45.2000 C   0  0  0  0  0  0  0  0  0  0  0  0
   58.7940   34.2430   46.0780 C   0  0  0  0  0  0  0  0  0  0  0  0
   59.5800   33.0930   46.3010 C   0  0  0  0  0  0  0  0  0  0  0  0
   60.7170   33.0960   47.2650 C   0  0  0  0  0  0  0  0  0  0  0  0
   61.7040   32.1020   47.2600 C   0  0  0  0  0  0  0  0  0  0  0  0
   62.7650   32.1800   48.1610 C   0  0  0  0  0  0  0  0  0  0  0  0
   62.8480   33.2650   49.0480 C   0  0  0  0  0  0  0  0  0  0  0  0
   63.9510   33.4210   49.9790 N   0  0  0  0  0  0  0  0  0  0  0  0
   65.1920   32.6450   49.8000 C   0  0  0  0  0  0  0  0  0  0  0  0
   66.3430   33.1530   50.6770 C   0  0  0  0  0  0  0  0  0  0  0  0
   65.8990   33.4770   51.9760 O   0  0  0  0  0  0  0  0  0  0  0  0
   65.0280   34.5840   51.8910 C   0  0  0  0  0  0  0  0  0  0  0  0
   63.7170   34.1810   51.2200 C   0  0  0  0  0  0  0  0  0  0  0  0
   61.8580   34.2010   49.0100 N   0  0  0  0  0  0  0  0  0  0  0  0
   60.8370   34.1200   48.1540 N   0  0  0  0  0  0  0  0  0  0  0  0
   59.2690   31.9160   45.5930 C   0  0  0  0  0  0  0  0  0  0  0  0
   58.1920   29.6750   47.3850 C   0  0  0  0  0  0  0  0  0  0  0  0
   58.9720   29.4680   48.5260 C   0  0  0  0  0  0  0  0  0  0  0  0
   61.4390   29.3930   50.4730 N   0  0  0  0  0  0  0  0  0  0  0  0
   60.7630   30.6490   50.7590 C   0  0  0  0  0  0  0  0  0  0  0  0
   61.7210   31.4350   51.6430 C   0  0  0  0  0  0  0  0  0  0  0  0
   62.7110   30.4150   52.1980 C   0  0  0  0  0  0  0  0  0  0  0  0
   62.6530   29.2190   51.2530 C   0  0  0  0  0  0  0  0  0  0  0  0
   61.2032   27.2072   47.2512 H   0  0  0  0  0  0  0  0  0  0  0  0
   59.8173   27.5912   45.2149 H   0  0  0  0  0  0  0  0  0  0  0  0
   58.1700   30.5950   42.9770 H   0  0  0  0  0  0  0  0  0  0  0  0
   56.5291   32.9866   43.8493 H   0  0  0  0  0  0  0  0  0  0  0  0
   57.0948   35.0984   45.0418 H   0  0  0  0  0  0  0  0  0  0  0  0
   59.0377   35.1807   46.5989 H   0  0  0  0  0  0  0  0  0  0  0  0
   61.6423   31.2647   46.5493 H   0  0  0  0  0  0  0  0  0  0  0  0
   63.5345   31.3941   48.1769 H   0  0  0  0  0  0  0  0  0  0  0  0
   64.9902   31.5950   50.0586 H   0  0  0  0  0  0  0  0  0  0  0  0
   65.5024   32.7547   48.7504 H   0  0  0  0  0  0  0  0  0  0  0  0
   67.1117   32.3693   50.7471 H   0  0  0  0  0  0  0  0  0  0  0  0
   66.7529   34.0634   50.2153 H   0  0  0  0  0  0  0  0  0  0  0  0
   64.8167   34.9573   52.9039 H   0  0  0  0  0  0  0  0  0  0  0  0
   65.5087   35.3703   51.2904 H   0  0  0  0  0  0  0  0  0  0  0  0
   63.1373   33.5571   51.9162 H   0  0  0  0  0  0  0  0  0  0  0  0
   63.1677   35.0984   50.9619 H   0  0  0  0  0  0  0  0  0  0  0  0
   59.8814   31.0147   45.7434 H   0  0  0  0  0  0  0  0  0  0  0  0
   57.3396   30.3692   47.4241 H   0  0  0  0  0  0  0  0  0  0  0  0
   58.7276   29.9965   49.4593 H   0  0  0  0  0  0  0  0  0  0  0  0
   60.5617   31.1980   49.8273 H   0  0  0  0  0  0  0  0  0  0  0  0
   59.7930   30.4871   51.2518 H   0  0  0  0  0  0  0  0  0  0  0  0
   62.2487   32.1977   51.0516 H   0  0  0  0  0  0  0  0  0  0  0  0
   61.1877   31.9600   52.4492 H   0  0  0  0  0  0  0  0  0  0  0  0
   63.7261   30.8384   52.2174 H   0  0  0  0  0  0  0  0  0  0  0  0
   62.4589   30.1274   53.2294 H   0  0  0  0  0  0  0  0  0  0  0  0
   63.5339   29.2075   50.5942 H   0  0  0  0  0  0  0  0  0  0  0  0
   62.6492   28.2665   51.8032 H   0  0  0  0  0  0  0  0  0  0  0  0
  1  2  2  0
  2  3  1  0
  3  4  2  0
  4  5  1  0
  5  6  2  0
  6  7  1  0
  7  8  2  0
  7  9  2  0
  7 10  1  0
 10 11  1  0
 11 12  2  0
 12 13  1  0
 13 14  2  0
 14 15  1  0
 15 16  1  0
 16 17  2  0
 17 18  1  0
 18 19  2  0
 19 20  1  0
 20 21  1  0
 21 22  1  0
 22 23  1  0
 23 24  1  0
 24 25  1  0
 19 26  1  0
 26 27  2  0
 15 28  2  0
  6 29  1  0
 29 30  2  0
  2 31  1  0
 31 32  1  0
 32 33  1  0
 33 34  1  0
 34 35  1  0
 30  3  1  0
 35 31  1  0
 28 11  1  0
 27 16  1  0
 25 20  1  0
  4 36  1  0
  5 37  1  0
 10 38  1  0
 12 39  1  0
 13 40  1  0
 14 41  1  0
 17 42  1  0
 18 43  1  0
 21 44  1  0
 21 45  1  0
 22 46  1  0
 22 47  1  0
 24 48  1  0
 24 49  1  0
 25 50  1  0
 25 51  1  0
 28 52  1  0
 29 53  1  0
 30 54  1  0
 32 55  1  0
 32 56  1  0
 33 57  1  0
 33 58  1  0
 34 59  1  0
 34 60  1  0
 35 61  1  0
 35 62  1  0
M  END
>  <UniqueID>  (34) 
34

>  <SMILES>  (34) 
O=C(c1ccc(S(=O)(=O)Nc2cccc(-c3ccc(N4CCOCC4)nn3)c2)cc1)N1CCCC1

>  <Energy>  (34) 
84.48676104581614

>  <Genealogy>  (34) 
O=C(c1ccc(S(=O)(=O)Nc2cccc(-c3ccc(N4CCOCC4)nn3)c2)cc1)N1CCCC1 (3D coordinates assigned)
O=C(c1ccc(S(=O)(=O)Nc2cccc(-c3ccc(N4CCOCC4)nn3)c2)cc1)N1CCCC1 (nonaromatic ring conformer: 84.48676104581614 kcal/mol)

>  <smiles>  (34) 
O=C(c1ccc(S(=O)(=O)Nc2cccc(-c3ccc(N4CCOCC4)nn3)c2)cc1)N1CCCC1

>  <score_type>  (34) 
oracle

>  <origin>  (34) 
adg

>  <m_score__min__energy>  (34) 
-10.74

>  <m_primary>  (34) 
energy

$$$$
34:0
     RDKit          3D

 57 60  0  0  0  0  0  0  0  0999 V2000
   57.4070   31.2930   43.0270 O   0  0  0  0  0  0  0  0  0  0  0  0
   56.7400   30.9180   44.0270 C   0  0  0  0  0  0  0  0  0  0  0  0
   55.9020   29.6750   43.9140 C   0  0  0  0  0  0  0  0  0  0  0  0
   55.7380   29.0570   45.2290 N   0  0  0  0  0  0  0  0  0  0  0  0
   57.0370   27.9400   45.5180 S   0  0  0  0  0  0  0  0  0  0  0  0
   57.4670   27.3310   44.2130 O   0  0  0  0  0  0  0  0  0  0  0  0
   56.5620   26.8420   46.4270 O   0  0  0  0  0  0  0  0  0  0  0  0
   58.4060   28.7870   46.2340 C   0  0  0  0  0  0  0  0  0  0  0  0
   58.5180   28.9290   47.6240 C   0  0  0  0  0  0  0  0  0  0  0  0
   59.6000   29.6200   48.1760 C   0  0  0  0  0  0  0  0  0  0  0  0
   60.5870   30.1830   47.3470 C   0  0  0  0  0  0  0  0  0  0  0  0
   61.7350   30.9260   47.9320 C   0  0  0  0  0  0  0  0  0  0  0  0
   62.0830   30.7560   49.2870 C   0  0  0  0  0  0  0  0  0  0  0  0
   63.1570   31.4650   49.8370 C   0  0  0  0  0  0  0  0  0  0  0  0
   63.8920   32.3500   49.0450 C   0  0  0  0  0  0  0  0  0  0  0  0
   63.5590   32.5250   47.7000 C   0  0  0  0  0  0  0  0  0  0  0  0
   62.4890   31.8160   47.1430 C   0  0  0  0  0  0  0  0  0  0  0  0
   60.4670   30.0370   45.9530 C   0  0  0  0  0  0  0  0  0  0  0  0
   59.3840   29.3450   45.4040 C   0  0  0  0  0  0  0  0  0  0  0  0
   56.7860   31.7150   45.2220 N   0  0  0  0  0  0  0  0  0  0  0  0
   57.7680   32.7030   45.5620 C   0  0  0  0  0  0  0  0  0  0  0  0
   58.2540   33.5470   44.5570 C   0  0  0  0  0  0  0  0  0  0  0  0
   59.2170   34.5160   44.8530 C   0  0  0  0  0  0  0  0  0  0  0  0
   59.7120   34.6380   46.1540 C   0  0  0  0  0  0  0  0  0  0  0  0
   59.2540   33.7810   47.1640 C   0  0  0  0  0  0  0  0  0  0  0  0
   59.9020   33.9030   48.7960 S   0  0  0  0  0  0  0  0  0  0  0  0
   61.3880   34.1310   48.7360 O   0  0  0  0  0  0  0  0  0  0  0  0
   59.2670   35.0760   49.4900 O   0  0  0  0  0  0  0  0  0  0  0  0
   59.5410   32.4400   49.6750 N   0  0  0  0  0  0  0  0  0  0  0  0
   60.0710   32.4960   51.0380 C   0  0  0  0  0  0  0  0  0  0  0  0
   59.1960   31.5800   51.8760 C   0  0  0  0  0  0  0  0  0  0  0  0
   57.8810   31.4820   51.1190 C   0  0  0  0  0  0  0  0  0  0  0  0
   58.0970   32.2500   49.8220 C   0  0  0  0  0  0  0  0  0  0  0  0
   58.2980   32.8010   46.8610 C   0  0  0  0  0  0  0  0  0  0  0  0
   54.9133   29.9385   43.5102 H   0  0  0  0  0  0  0  0  0  0  0  0
   56.4037   28.9630   43.2422 H   0  0  0  0  0  0  0  0  0  0  0  0
   57.7514   28.4949   48.2827 H   0  0  0  0  0  0  0  0  0  0  0  0
   59.6805   29.7245   49.2681 H   0  0  0  0  0  0  0  0  0  0  0  0
   61.5069   30.0617   49.9163 H   0  0  0  0  0  0  0  0  0  0  0  0
   63.4228   31.3250   50.8952 H   0  0  0  0  0  0  0  0  0  0  0  0
   64.7332   32.9092   49.4806 H   0  0  0  0  0  0  0  0  0  0  0  0
   64.1392   33.2218   47.0772 H   0  0  0  0  0  0  0  0  0  0  0  0
   62.2351   31.9547   46.0817 H   0  0  0  0  0  0  0  0  0  0  0  0
   61.2308   30.4704   45.2906 H   0  0  0  0  0  0  0  0  0  0  0  0
   59.3001   29.2385   44.3124 H   0  0  0  0  0  0  0  0  0  0  0  0
   57.8762   33.4473   43.5287 H   0  0  0  0  0  0  0  0  0  0  0  0
   59.5858   35.1837   44.0604 H   0  0  0  0  0  0  0  0  0  0  0  0
   60.4625   35.4081   46.3859 H   0  0  0  0  0  0  0  0  0  0  0  0
   61.1139   32.1466   51.0554 H   0  0  0  0  0  0  0  0  0  0  0  0
   60.0604   33.5244   51.4281 H   0  0  0  0  0  0  0  0  0  0  0  0
   59.6596   30.5873   51.9739 H   0  0  0  0  0  0  0  0  0  0  0  0
   59.0551   31.9664   52.8962 H   0  0  0  0  0  0  0  0  0  0  0  0
   57.6376   30.4305   50.9066 H   0  0  0  0  0  0  0  0  0  0  0  0
   57.0442   31.8944   51.7017 H   0  0  0  0  0  0  0  0  0  0  0  0
   57.7028   31.6744   48.9715 H   0  0  0  0  0  0  0  0  0  0  0  0
   57.5733   33.2170   49.8455 H   0  0  0  0  0  0  0  0  0  0  0  0
   57.9608   32.1052   47.6434 H   0  0  0  0  0  0  0  0  0  0  0  0
  1  2  2  0
  2  3  1  0
  3  4  1  0
  4  5  1  0
  5  6  2  0
  5  7  2  0
  5  8  1  0
  8  9  2  0
  9 10  1  0
 10 11  2  0
 11 12  1  0
 12 13  2  0
 13 14  1  0
 14 15  2  0
 15 16  1  0
 16 17  2  0
 11 18  1  0
 18 19  2  0
  2 20  1  0
 20 21  1  0
 21 22  2  0
 22 23  1  0
 23 24  2  0
 24 25  1  0
 25 26  1  0
 26 27  2  0
 26 28  2  0
 26 29  1  0
 29 30  1  0
 30 31  1  0
 31 32  1  0
 32 33  1  0
 25 34  2  0
 19  8  1  0
 34 21  1  0
 17 12  1  0
 33 29  1  0
  3 35  1  0
  3 36  1  0
  9 37  1  0
 10 38  1  0
 13 39  1  0
 14 40  1  0
 15 41  1  0
 16 42  1  0
 17 43  1  0
 18 44  1  0
 19 45  1  0
 22 46  1  0
 23 47  1  0
 24 48  1  0
 30 49  1  0
 30 50  1  0
 31 51  1  0
 31 52  1  0
 32 53  1  0
 32 54  1  0
 33 55  1  0
 33 56  1  0
 34 57  1  0
M  CHG  2   4  -1  20  -1
M  END
>  <UniqueID>  (35) 
35

>  <SMILES>  (35) 
O=C(C[N-]S(=O)(=O)c1ccc(-c2ccccc2)cc1)[N-]c1cccc(S(=O)(=O)N2CCCC2)c1

>  <Energy>  (35) 
67.75800522872741

>  <Genealogy>  (35) 
O=C(C[N-]S(=O)(=O)c1ccc(-c2ccccc2)cc1)[N-]c1cccc(S(=O)(=O)N2CCCC2)c1 (protonated)
O=C(C[N-]S(=O)(=O)c1ccc(-c2ccccc2)cc1)[N-]c1cccc(S(=O)(=O)N2CCCC2)c1 (3D coordinates assigned)
O=C(C[N-]S(=O)(=O)c1ccc(-c2ccccc2)cc1)[N-]c1cccc(S(=O)(=O)N2CCCC2)c1 (nonaromatic ring conformer: 67.75800522872741 kcal/mol)

>  <smiles>  (35) 
O=C(CNS(=O)(=O)c1ccc(-c2ccccc2)cc1)Nc1cccc(S(=O)(=O)N2CCCC2)c1

>  <score_type>  (35) 
oracle

>  <origin>  (35) 
adg

>  <m_score__min__energy>  (35) 
-13.59

>  <m_primary>  (35) 
energy

$$$$
35:0
     RDKit          3D

 34 36  0  0  0  0  0  0  0  0999 V2000
   55.8820   24.3540   47.5570 O   0  0  0  0  0  0  0  0  0  0  0  0
   55.8750   24.7200   46.3490 C   0  0  0  0  0  0  0  0  0  0  0  0
   55.5490   26.0770   46.0000 N   0  0  0  0  0  0  0  0  0  0  0  0
   56.3180   27.1310   45.9760 C   0  0  0  0  0  0  0  0  0  0  0  0
   57.5610   27.1930   46.6390 C   0  0  0  0  0  0  0  0  0  0  0  0
   58.3280   28.3570   46.5530 C   0  0  0  0  0  0  0  0  0  0  0  0
   57.8830   29.4450   45.7940 C   0  0  0  0  0  0  0  0  0  0  0  0
   58.6760   30.6430   45.7340 N   0  0  0  0  0  0  0  0  0  0  0  0
   58.1220   31.9640   45.6140 C   0  0  0  0  0  0  0  0  0  0  0  0
   56.9320   32.1210   45.2260 O   0  0  0  0  0  0  0  0  0  0  0  0
   58.9380   33.1560   45.8940 C   0  0  0  0  0  0  0  0  0  0  0  0
   58.5370   34.4760   45.7950 C   0  0  0  0  0  0  0  0  0  0  0  0
   59.6370   35.2270   46.1470 C   0  0  0  0  0  0  0  0  0  0  0  0
   60.6400   34.3250   46.4370 C   0  0  0  0  0  0  0  0  0  0  0  0
   60.1950   33.1010   46.2760 O   0  0  0  0  0  0  0  0  0  0  0  0
   56.6410   29.3450   45.1500 C   0  0  0  0  0  0  0  0  0  0  0  0
   55.9070   28.2060   45.2510 N   0  0  0  0  0  0  0  0  0  0  0  0
   56.1130   23.7210   45.2800 C   0  0  0  0  0  0  0  0  0  0  0  0
   57.2980   22.9650   45.2530 C   0  0  0  0  0  0  0  0  0  0  0  0
   57.5100   22.0290   44.2400 C   0  0  0  0  0  0  0  0  0  0  0  0
   56.5360   21.8530   43.2550 C   0  0  0  0  0  0  0  0  0  0  0  0
   56.7120   21.0140   42.3340 O   0  0  0  0  0  0  0  0  0  0  0  0
   55.3960   22.5900   43.2900 N   0  0  0  0  0  0  0  0  0  0  0  0
   55.1630   23.5080   44.2660 C   0  0  0  0  0  0  0  0  0  0  0  0
   57.9236   26.3316   47.2192 H   0  0  0  0  0  0  0  0  0  0  0  0
   59.2885   28.4189   47.0856 H   0  0  0  0  0  0  0  0  0  0  0  0
   59.7130   30.5370   45.6750 H   0  0  0  0  0  0  0  0  0  0  0  0
   57.5458   34.8487   45.4971 H   0  0  0  0  0  0  0  0  0  0  0  0
   59.7025   36.3243   46.1885 H   0  0  0  0  0  0  0  0  0  0  0  0
   61.6587   34.5916   46.7551 H   0  0  0  0  0  0  0  0  0  0  0  0
   56.2596   30.1920   44.5608 H   0  0  0  0  0  0  0  0  0  0  0  0
   58.0601   23.1117   46.0325 H   0  0  0  0  0  0  0  0  0  0  0  0
   58.4358   21.4353   44.2176 H   0  0  0  0  0  0  0  0  0  0  0  0
   54.2272   24.0862   44.2619 H   0  0  0  0  0  0  0  0  0  0  0  0
  1  2  2  0
  2  3  1  0
  3  4  2  3
  4  5  1  0
  5  6  2  0
  6  7  1  0
  7  8  1  0
  8  9  1  0
  9 10  2  0
  9 11  1  0
 11 12  2  0
 12 13  1  0
 13 14  2  0
 14 15  1  0
  7 16  2  0
 16 17  1  0
  2 18  1  0
 18 19  1  0
 19 20  2  0
 20 21  1  0
 21 22  2  0
 21 23  1  0
 23 24  1  0
 17  4  1  0
 24 18  2  0
 15 11  1  0
  5 25  1  0
  6 26  1  0
  8 27  1  0
 12 28  1  0
 13 29  1  0
 14 30  1  0
 16 31  1  0
 19 32  1  0
 20 33  1  0
 24 34  1  0
M  CHG  2  17  -1  23  -1
M  END
>  <UniqueID>  (36) 
36

>  <SMILES>  (36) 
O=C(N=c1ccc(NC(=O)c2ccco2)c[n-]1)c1ccc(=O)[n-]c1

>  <Energy>  (36) 
75.88835986412197

>  <Genealogy>  (36) 
O=C(N=c1ccc(NC(=O)c2ccco2)c[n-]1)c1ccc(=O)[n-]c1 (protonated)
O=C(N=c1ccc(NC(=O)c2ccco2)c[n-]1)c1ccc(=O)[n-]c1 (3D coordinates assigned)
O=C(N=c1ccc(NC(=O)c2ccco2)c[n-]1)c1ccc(=O)[n-]c1 (optimized conformer: 75.88835986412197 kcal/mol)

>  <smiles>  (36) 
O=C(N=c1ccc(NC(=O)c2ccco2)c[nH]1)c1ccc(=O)[nH]c1

>  <score_type>  (36) 
oracle

>  <origin>  (36) 
adg

>  <m_score__min__energy>  (36) 
-11.18

>  <m_primary>  (36) 
energy

$$$$
36:0
     RDKit          3D

 60 63  0  0  0  0  0  0  0  0999 V2000
   55.1299   27.6925   53.8592 H   0  0  0  0  0  0  0  0  0  0  0  0
   54.3670   28.3390   53.4010 C   0  0  0  0  0  0  0  0  0  0  0  0
   53.3259   27.9922   53.3249 H   0  0  0  0  0  0  0  0  0  0  0  0
   54.7070   29.5530   52.9340 C   0  0  0  0  0  0  0  0  0  0  0  0
   53.8350   30.4670   52.3320 C   0  0  0  0  0  0  0  0  0  0  0  0
   52.5280   30.2900   52.0510 C   0  0  0  0  0  0  0  0  0  0  0  0
   51.9146   29.7348   52.7759 H   0  0  0  0  0  0  0  0  0  0  0  0
   51.8710   30.7950   50.8320 C   0  0  0  0  0  0  0  0  0  0  0  0
   51.7420   30.0670   49.7090 N   0  0  0  0  0  0  0  0  0  0  0  0
   51.0200   30.8670   48.8960 C   0  0  0  0  0  0  0  0  0  0  0  0
   50.7010   30.5330   47.7250 O   0  0  0  0  0  0  0  0  0  0  0  0
   50.6580   32.0490   49.4390 N   0  0  0  0  0  0  0  0  0  0  0  0
   51.1930   31.9830   50.6690 C   0  0  0  0  0  0  0  0  0  0  0  0
   51.0220   32.9690   51.6330 O   0  0  0  0  0  0  0  0  0  0  0  0
   54.5960   31.5810   52.0150 C   0  0  0  0  0  0  0  0  0  0  0  0
   54.2433   32.4967   51.5179 H   0  0  0  0  0  0  0  0  0  0  0  0
   55.8810   31.3200   52.4430 C   0  0  0  0  0  0  0  0  0  0  0  0
   57.0310   32.2630   52.2450 C   0  0  0  0  0  0  0  0  0  0  0  0
   57.4179   32.5802   53.2246 H   0  0  0  0  0  0  0  0  0  0  0  0
   57.8286   31.7556   51.6826 H   0  0  0  0  0  0  0  0  0  0  0  0
   56.6896   33.1446   51.6826 H   0  0  0  0  0  0  0  0  0  0  0  0
   55.9610   30.0820   52.9930 N   0  0  0  0  0  0  0  0  0  0  0  0
   57.1940   29.4470   53.4970 C   0  0  0  0  0  0  0  0  0  0  0  0
   57.2862   29.6534   54.5735 H   0  0  0  0  0  0  0  0  0  0  0  0
   57.1242   28.3660   53.3059 H   0  0  0  0  0  0  0  0  0  0  0  0
   58.4480   29.9800   52.7780 C   0  0  0  0  0  0  0  0  0  0  0  0
   58.1632   30.8771   52.2086 H   0  0  0  0  0  0  0  0  0  0  0  0
   59.1940   30.1877   53.5592 H   0  0  0  0  0  0  0  0  0  0  0  0
   59.0980   28.9750   51.8030 C   0  0  0  0  0  0  0  0  0  0  0  0
   60.1623   28.8768   52.0629 H   0  0  0  0  0  0  0  0  0  0  0  0
   58.5529   28.0253   51.9073 H   0  0  0  0  0  0  0  0  0  0  0  0
   58.9980   29.3810   50.3770 N   0  0  0  0  0  0  0  0  0  0  0  0
   58.0680   29.0830   50.0030 H   0  0  0  0  0  0  0  0  0  0  0  0
   59.0720   30.8560   50.2740 C   0  0  0  0  0  0  0  0  0  0  0  0
   58.2877   31.2977   50.9063 H   0  0  0  0  0  0  0  0  0  0  0  0
   60.0709   31.1743   50.6069 H   0  0  0  0  0  0  0  0  0  0  0  0
   58.8720   31.3360   48.8180 C   0  0  0  0  0  0  0  0  0  0  0  0
   57.8561   31.7441   48.7115 H   0  0  0  0  0  0  0  0  0  0  0  0
   59.6257   32.1069   48.5997 H   0  0  0  0  0  0  0  0  0  0  0  0
   59.0480   30.2270   47.8590 N   0  0  0  0  0  0  0  0  0  0  0  0
   58.9880   30.6620   46.4460 C   0  0  0  0  0  0  0  0  0  0  0  0
   59.8287   30.2012   45.9067 H   0  0  0  0  0  0  0  0  0  0  0  0
   58.0090   30.3445   46.0577 H   0  0  0  0  0  0  0  0  0  0  0  0
   59.0670   32.1630   46.2570 C   0  0  0  0  0  0  0  0  0  0  0  0
   57.9560   32.8800   45.7810 C   0  0  0  0  0  0  0  0  0  0  0  0
   57.0212   32.3489   45.5486 H   0  0  0  0  0  0  0  0  0  0  0  0
   58.0320   34.2650   45.6010 C   0  0  0  0  0  0  0  0  0  0  0  0
   57.1564   34.8207   45.2342 H   0  0  0  0  0  0  0  0  0  0  0  0
   59.2200   34.9430   45.8870 C   0  0  0  0  0  0  0  0  0  0  0  0
   59.2783   36.0327   45.7484 H   0  0  0  0  0  0  0  0  0  0  0  0
   60.3340   34.2370   46.3490 C   0  0  0  0  0  0  0  0  0  0  0  0
   61.2698   34.7713   46.5698 H   0  0  0  0  0  0  0  0  0  0  0  0
   60.2610   32.8530   46.5310 C   0  0  0  0  0  0  0  0  0  0  0  0
   61.1420   32.3010   46.8903 H   0  0  0  0  0  0  0  0  0  0  0  0
   60.2420   29.4340   48.1830 C   0  0  0  0  0  0  0  0  0  0  0  0
   60.3939   28.6696   47.4067 H   0  0  0  0  0  0  0  0  0  0  0  0
   61.1174   30.0987   48.2266 H   0  0  0  0  0  0  0  0  0  0  0  0
   60.0590   28.7440   49.5520 C   0  0  0  0  0  0  0  0  0  0  0  0
   59.7888   27.6913   49.3825 H   0  0  0  0  0  0  0  0  0  0  0  0
   61.0078   28.8364   50.1008 H   0  0  0  0  0  0  0  0  0  0  0  0
  1  2  1  0
  2  3  1  0
  2  4  2  0
  4  5  1  0
  5  6  2  0
  6  7  1  0
  6  8  1  0
  8  9  1  0
  9 10  1  0
 10 11  2  0
 10 12  1  0
 12 13  1  0
 13 14  1  0
  5 15  1  0
 15 16  1  0
 15 17  2  0
 17 18  1  0
 18 19  1  0
 18 20  1  0
 18 21  1  0
 17 22  1  0
 22 23  1  0
 23 24  1  0
 23 25  1  0
 23 26  1  0
 26 27  1  0
 26 28  1  0
 26 29  1  0
 29 30  1  0
 29 31  1  0
 29 32  1  0
 32 33  1  0
 32 34  1  0
 34 35  1  0
 34 36  1  0
 34 37  1  0
 37 38  1  0
 37 39  1  0
 37 40  1  0
 40 41  1  0
 41 42  1  0
 41 43  1  0
 41 44  1  0
 44 45  2  0
 45 46  1  0
 45 47  1  0
 47 48  1  0
 47 49  2  0
 49 50  1  0
 49 51  1  0
 51 52  1  0
 51 53  2  0
 53 54  1  0
 40 55  1  0
 55 56  1  0
 55 57  1  0
 55 58  1  0
 58 59  1  0
 58 60  1  0
 22  4  1  0
 58 32  1  0
 13  8  2  0
 53 44  1  0
M  CHG  4   9  -1  12  -1  14  -1  32   1
M  END
>  <UniqueID>  (37) 
37

>  <SMILES>  (37) 
C=c1/c(=C/c2[n-]c(=O)[n-]c2[O-])cc(C)n1CCC[NH+]1CCN(Cc2ccccc2)CC1

>  <Energy>  (37) 
138.62039083001002

>  <Genealogy>  (37) 
C=c1c(=Cc2[n-]c(=O)[n-]c2[O-])cc(C)n1CCC[NH+]1CCN(Cc2ccccc2)CC1 (protonated)
C=c1/c(=C/c2[n-]c(=O)[n-]c2[O-])cc(C)n1CCC[NH+]1CCN(Cc2ccccc2)CC1 (cis-trans isomerization)
C=c1/c(=C/c2[n-]c(=O)[n-]c2[O-])cc(C)n1CCC[NH+]1CCN(Cc2ccccc2)CC1 (3D coordinates assigned)
C=c1/c(=C/c2[n-]c(=O)[n-]c2[O-])cc(C)n1CCC[NH+]1CCN(Cc2ccccc2)CC1 (nonaromatic ring conformer: 138.62039083001002 kcal/mol)

>  <smiles>  (37) 
C=c1c(=Cc2[nH]c(=O)[nH]c2O)cc(C)n1CCCN1CCN(Cc2ccccc2)CC1

>  <score_type>  (37) 
oracle

>  <origin>  (37) 
adg

>  <m_score__min__energy>  (37) 
-16.879999999999999

>  <m_primary>  (37) 
energy

$$$$
37:0
     RDKit          3D

 45 48  0  0  0  0  0  0  0  0999 V2000
   57.8740   26.5830   44.6960 O   0  0  0  0  0  0  0  0  0  0  0  0
   57.5430   26.9950   45.8400 C   0  0  0  0  0  0  0  0  0  0  0  0
   58.2640   28.1820   46.4200 C   0  0  0  0  0  0  0  0  0  0  0  0
   57.7430   29.4460   45.8010 C   0  0  0  0  0  0  0  0  0  0  0  0
   56.5310   29.6160   45.1430 C   0  0  0  0  0  0  0  0  0  0  0  0
   55.6300   28.5910   44.8760 O   0  0  0  0  0  0  0  0  0  0  0  0
   56.3110   30.9060   44.7950 N   0  0  0  0  0  0  0  0  0  0  0  0
   57.3970   31.5580   45.2530 C   0  0  0  0  0  0  0  0  0  0  0  0
   57.6430   32.9270   45.1620 C   0  0  0  0  0  0  0  0  0  0  0  0
   58.8290   33.4260   45.7280 C   0  0  0  0  0  0  0  0  0  0  0  0
   59.7440   32.5540   46.3660 C   0  0  0  0  0  0  0  0  0  0  0  0
   61.2340   33.1720   47.0730 S   0  0  0  0  0  0  0  0  0  0  0  0
   62.0270   33.8570   45.9950 O   0  0  0  0  0  0  0  0  0  0  0  0
   62.0570   32.0430   47.6260 O   0  0  0  0  0  0  0  0  0  0  0  0
   60.9010   34.3180   48.3430 N   0  0  0  0  0  0  0  0  0  0  0  0
   61.2060   33.7640   49.6640 C   0  0  0  0  0  0  0  0  0  0  0  0
   59.9690   33.2140   50.3250 C   0  0  0  0  0  0  0  0  0  0  0  0
   59.2810   32.1280   49.7590 C   0  0  0  0  0  0  0  0  0  0  0  0
   58.1430   31.6100   50.3860 C   0  0  0  0  0  0  0  0  0  0  0  0
   57.6840   32.1740   51.5800 C   0  0  0  0  0  0  0  0  0  0  0  0
   56.5810   31.6710   52.1880 F   0  0  0  0  0  0  0  0  0  0  0  0
   58.3620   33.2570   52.1480 C   0  0  0  0  0  0  0  0  0  0  0  0
   59.5000   33.7760   51.5230 C   0  0  0  0  0  0  0  0  0  0  0  0
   59.4710   31.1750   46.4350 C   0  0  0  0  0  0  0  0  0  0  0  0
   58.2830   30.7110   45.8710 C   0  0  0  0  0  0  0  0  0  0  0  0
   56.3810   26.4290   46.4660 N   0  0  0  0  0  0  0  0  0  0  0  0
   55.6270   25.4920   45.9780 C   0  0  0  0  0  0  0  0  0  0  0  0
   54.3010   25.6180   45.7500 N   0  0  0  0  0  0  0  0  0  0  0  0
   53.7690   24.4680   45.2590 C   0  0  0  0  0  0  0  0  0  0  0  0
   54.6700   23.4190   45.1070 C   0  0  0  0  0  0  0  0  0  0  0  0
   56.1850   23.9530   45.6080 S   0  0  0  0  0  0  0  0  0  0  0  0
   58.1000   28.2133   47.5072 H   0  0  0  0  0  0  0  0  0  0  0  0
   59.3399   28.0915   46.2098 H   0  0  0  0  0  0  0  0  0  0  0  0
   55.9580   27.6520   44.6840 H   0  0  0  0  0  0  0  0  0  0  0  0
   56.9293   33.5979   44.6615 H   0  0  0  0  0  0  0  0  0  0  0  0
   59.0480   34.5027   45.6748 H   0  0  0  0  0  0  0  0  0  0  0  0
   61.9425   32.9547   49.5520 H   0  0  0  0  0  0  0  0  0  0  0  0
   61.6077   34.5707   50.2948 H   0  0  0  0  0  0  0  0  0  0  0  0
   59.6387   31.6830   48.8187 H   0  0  0  0  0  0  0  0  0  0  0  0
   57.6089   30.7584   49.9394 H   0  0  0  0  0  0  0  0  0  0  0  0
   57.9999   33.7009   53.0870 H   0  0  0  0  0  0  0  0  0  0  0  0
   60.0303   34.6287   51.9721 H   0  0  0  0  0  0  0  0  0  0  0  0
   60.1749   30.4828   46.9201 H   0  0  0  0  0  0  0  0  0  0  0  0
   52.7040   24.3735   45.0007 H   0  0  0  0  0  0  0  0  0  0  0  0
   54.4332   22.4148   44.7255 H   0  0  0  0  0  0  0  0  0  0  0  0
  1  2  2  0
  2  3  1  0
  3  4  1  0
  4  5  2  0
  5  6  1  0
  5  7  1  0
  7  8  1  0
  8  9  2  0
  9 10  1  0
 10 11  2  0
 11 12  1  0
 12 13  2  0
 12 14  2  0
 12 15  1  0
 15 16  1  0
 16 17  1  0
 17 18  2  0
 18 19  1  0
 19 20  2  0
 20 21  1  0
 20 22  1  0
 22 23  2  0
 11 24  1  0
 24 25  2  0
  2 26  1  0
 26 27  2  3
 27 28  1  0
 28 29  1  0
 29 30  2  0
 30 31  1  0
 25  4  1  0
 31 27  1  0
 25  8  1  0
 23 17  1  0
  3 32  1  0
  3 33  1  0
  6 34  1  0
  9 35  1  0
 10 36  1  0
 16 37  1  0
 16 38  1  0
 18 39  1  0
 19 40  1  0
 22 41  1  0
 23 42  1  0
 24 43  1  0
 29 44  1  0
 30 45  1  0
M  CHG  3   7  -1  15  -1  28  -1
M  END
>  <UniqueID>  (38) 
38

>  <SMILES>  (38) 
O=C(Cc1c(O)[n-]c2ccc(S(=O)(=O)[N-]Cc3ccc(F)cc3)cc12)N=c1[n-]ccs1

>  <Energy>  (38) 
111.83622508673068

>  <Genealogy>  (38) 
O=C(Cc1c(O)[n-]c2ccc(S(=O)(=O)[N-]Cc3ccc(F)cc3)cc12)N=c1[n-]ccs1 (protonated)
O=C(Cc1c(O)[n-]c2ccc(S(=O)(=O)[N-]Cc3ccc(F)cc3)cc12)N=c1[n-]ccs1 (3D coordinates assigned)
O=C(Cc1c(O)[n-]c2ccc(S(=O)(=O)[N-]Cc3ccc(F)cc3)cc12)N=c1[n-]ccs1 (optimized conformer: 111.83622508673068 kcal/mol)

>  <smiles>  (38) 
O=C(Cc1c(O)[nH]c2ccc(S(=O)(=O)NCc3ccc(F)cc3)cc12)N=c1[nH]ccs1

>  <score_type>  (38) 
oracle

>  <origin>  (38) 
adg

>  <m_score__min__energy>  (38) 
-13.34

>  <m_primary>  (38) 
energy

$$$$
38:0
     RDKit          3D

 46 48  0  0  0  0  0  0  0  0999 V2000
   68.5770   33.7660   50.7890 C   0  0  0  0  0  0  0  0  0  0  0  0
   67.8890   32.5220   51.2600 C   0  0  0  0  0  0  0  0  0  0  0  0
   68.4990   31.7720   52.0690 O   0  0  0  0  0  0  0  0  0  0  0  0
   66.5200   32.1470   50.8390 C   0  0  0  0  0  0  0  0  0  0  0  0
   65.5910   33.1030   49.8060 S   0  0  0  0  0  0  0  0  0  0  0  0
   64.2710   32.0580   49.8400 C   0  0  0  0  0  0  0  0  0  0  0  0
   63.1580   32.2050   49.1840 N   0  0  0  0  0  0  0  0  0  0  0  0
   63.0220   32.7760   47.8740 C   0  0  0  0  0  0  0  0  0  0  0  0
   64.0650   33.1380   47.2650 O   0  0  0  0  0  0  0  0  0  0  0  0
   61.7090   32.8770   47.1930 C   0  0  0  0  0  0  0  0  0  0  0  0
   61.3140   34.0880   46.6000 C   0  0  0  0  0  0  0  0  0  0  0  0
   60.0930   34.1820   45.9270 C   0  0  0  0  0  0  0  0  0  0  0  0
   59.2550   33.0630   45.8280 C   0  0  0  0  0  0  0  0  0  0  0  0
   57.7540   33.1360   44.9090 S   0  0  0  0  0  0  0  0  0  0  0  0
   58.0360   33.4670   43.4690 O   0  0  0  0  0  0  0  0  0  0  0  0
   56.8890   34.2180   45.4890 O   0  0  0  0  0  0  0  0  0  0  0  0
   56.9100   31.6170   45.0100 N   0  0  0  0  0  0  0  0  0  0  0  0
   57.4870   30.6180   44.1050 C   0  0  0  0  0  0  0  0  0  0  0  0
   57.4970   29.2530   44.7410 C   0  0  0  0  0  0  0  0  0  0  0  0
   58.7140   28.5830   44.9520 C   0  0  0  0  0  0  0  0  0  0  0  0
   58.7240   27.2970   45.4990 C   0  0  0  0  0  0  0  0  0  0  0  0
   57.5220   26.6730   45.8450 C   0  0  0  0  0  0  0  0  0  0  0  0
   56.3080   27.3380   45.6500 C   0  0  0  0  0  0  0  0  0  0  0  0
   55.1140   26.7140   45.9900 O   0  0  0  0  0  0  0  0  0  0  0  0
   56.2940   28.6260   45.1070 C   0  0  0  0  0  0  0  0  0  0  0  0
   59.6410   31.8570   46.4250 C   0  0  0  0  0  0  0  0  0  0  0  0
   60.8630   31.7600   47.0940 C   0  0  0  0  0  0  0  0  0  0  0  0
   64.5110   30.9830   50.6150 N   0  0  0  0  0  0  0  0  0  0  0  0
   65.7480   31.0190   51.1830 C   0  0  0  0  0  0  0  0  0  0  0  0
   66.1730   29.9330   52.1210 C   0  0  0  0  0  0  0  0  0  0  0  0
   68.9033   34.3560   51.6581 H   0  0  0  0  0  0  0  0  0  0  0  0
   69.4525   33.4932   50.1814 H   0  0  0  0  0  0  0  0  0  0  0  0
   67.8806   34.3625   50.1814 H   0  0  0  0  0  0  0  0  0  0  0  0
   61.9705   34.9682   46.6660 H   0  0  0  0  0  0  0  0  0  0  0  0
   59.7887   35.1369   45.4737 H   0  0  0  0  0  0  0  0  0  0  0  0
   56.8887   30.5804   43.1827 H   0  0  0  0  0  0  0  0  0  0  0  0
   58.5244   30.9070   43.8808 H   0  0  0  0  0  0  0  0  0  0  0  0
   59.6624   29.0725   44.6856 H   0  0  0  0  0  0  0  0  0  0  0  0
   59.6792   26.7751   45.6575 H   0  0  0  0  0  0  0  0  0  0  0  0
   57.5314   25.6588   46.2707 H   0  0  0  0  0  0  0  0  0  0  0  0
   55.3376   29.1507   44.9657 H   0  0  0  0  0  0  0  0  0  0  0  0
   58.9782   30.9811   46.3668 H   0  0  0  0  0  0  0  0  0  0  0  0
   61.1647   30.8036   47.5459 H   0  0  0  0  0  0  0  0  0  0  0  0
   66.0402   30.2722   53.1589 H   0  0  0  0  0  0  0  0  0  0  0  0
   65.5592   29.0370   51.9467 H   0  0  0  0  0  0  0  0  0  0  0  0
   67.2319   29.6916   51.9467 H   0  0  0  0  0  0  0  0  0  0  0  0
  1  2  1  0
  2  3  2  0
  2  4  1  0
  4  5  1  0
  5  6  1  0
  6  7  2  3
  7  8  1  0
  8  9  2  0
  8 10  1  0
 10 11  2  0
 11 12  1  0
 12 13  2  0
 13 14  1  0
 14 15  2  0
 14 16  2  0
 14 17  1  0
 17 18  1  0
 18 19  1  0
 19 20  2  0
 20 21  1  0
 21 22  2  0
 22 23  1  0
 23 24  1  0
 23 25  2  0
 13 26  1  0
 26 27  2  0
  6 28  1  0
 28 29  1  0
 29 30  1  0
 29  4  2  0
 27 10  1  0
 25 19  1  0
  1 31  1  0
  1 32  1  0
  1 33  1  0
 11 34  1  0
 12 35  1  0
 18 36  1  0
 18 37  1  0
 20 38  1  0
 21 39  1  0
 22 40  1  0
 25 41  1  0
 26 42  1  0
 27 43  1  0
 30 44  1  0
 30 45  1  0
 30 46  1  0
M  CHG  3  17  -1  24  -1  28  -1
M  END
>  <UniqueID>  (39) 
39

>  <SMILES>  (39) 
CC(=O)c1sc(=NC(=O)c2ccc(S(=O)(=O)[N-]Cc3cccc([O-])c3)cc2)[n-]c1C

>  <Energy>  (39) 
82.92879685115754

>  <Genealogy>  (39) 
CC(=O)c1sc(=NC(=O)c2ccc(S(=O)(=O)[N-]Cc3cccc([O-])c3)cc2)[n-]c1C (protonated)
CC(=O)c1sc(=NC(=O)c2ccc(S(=O)(=O)[N-]Cc3cccc([O-])c3)cc2)[n-]c1C (3D coordinates assigned)
CC(=O)c1sc(=NC(=O)c2ccc(S(=O)(=O)[N-]Cc3cccc([O-])c3)cc2)[n-]c1C (optimized conformer: 82.92879685115754 kcal/mol)

>  <smiles>  (39) 
CC(=O)c1sc(=NC(=O)c2ccc(S(=O)(=O)NCc3cccc(O)c3)cc2)[nH]c1C

>  <score_type>  (39) 
oracle

>  <origin>  (39) 
adg

>  <m_score__min__energy>  (39) 
-15.609999999999999

>  <m_primary>  (39) 
energy

$$$$
39:0
     RDKit          3D

 60 63  0  0  0  0  0  0  0  0999 V2000
   63.6210   33.0016   45.8097 H   0  0  0  0  0  0  0  0  0  0  0  0
   63.0490   33.0910   46.7450 C   0  0  0  0  0  0  0  0  0  0  0  0
   61.8530   33.8110   46.7610 C   0  0  0  0  0  0  0  0  0  0  0  0
   61.4766   34.2733   45.8366 H   0  0  0  0  0  0  0  0  0  0  0  0
   61.1350   33.9440   47.9510 C   0  0  0  0  0  0  0  0  0  0  0  0
   59.6120   34.8900   47.9800 S   0  0  0  0  0  0  0  0  0  0  0  0
   58.7530   33.7200   46.9310 C   0  0  0  0  0  0  0  0  0  0  0  0
   58.1000   34.1550   45.7680 C   0  0  0  0  0  0  0  0  0  0  0  0
   58.1091   35.2213   45.4979 H   0  0  0  0  0  0  0  0  0  0  0  0
   57.4380   33.2330   44.9530 C   0  0  0  0  0  0  0  0  0  0  0  0
   56.9179   33.5772   44.0469 H   0  0  0  0  0  0  0  0  0  0  0  0
   57.4340   31.8690   45.2860 C   0  0  0  0  0  0  0  0  0  0  0  0
   56.7680   30.9320   44.4330 N   0  0  0  0  0  0  0  0  0  0  0  0
   56.3660   29.6160   44.8350 C   0  0  0  0  0  0  0  0  0  0  0  0
   55.1370   29.3310   44.8720 O   0  0  0  0  0  0  0  0  0  0  0  0
   57.3760   28.5410   45.0940 C   0  0  0  0  0  0  0  0  0  0  0  0
   56.9109   27.5539   44.9553 H   0  0  0  0  0  0  0  0  0  0  0  0
   57.7496   28.6161   46.1259 H   0  0  0  0  0  0  0  0  0  0  0  0
   58.4460   28.6980   44.1780 O   0  0  0  0  0  0  0  0  0  0  0  0
   59.5420   29.4830   44.4730 N   0  0  0  0  0  0  0  0  0  0  0  0
   60.5680   29.0080   45.1180 C   0  0  0  0  0  0  0  0  0  0  0  0
   60.5590   28.8930   46.5980 C   0  0  0  0  0  0  0  0  0  0  0  0
   60.8730   30.0040   47.3990 C   0  0  0  0  0  0  0  0  0  0  0  0
   61.1078   30.9702   46.9286 H   0  0  0  0  0  0  0  0  0  0  0  0
   60.8880   29.8850   48.7950 C   0  0  0  0  0  0  0  0  0  0  0  0
   61.1461   30.7557   49.4157 H   0  0  0  0  0  0  0  0  0  0  0  0
   60.5750   28.6590   49.4060 C   0  0  0  0  0  0  0  0  0  0  0  0
   60.6080   28.5120   51.1550 Cl  0  0  0  0  0  0  0  0  0  0  0  0
   60.2420   27.5560   48.6160 C   0  0  0  0  0  0  0  0  0  0  0  0
   59.9890   26.5964   49.0905 H   0  0  0  0  0  0  0  0  0  0  0  0
   60.2300   27.6710   47.2210 C   0  0  0  0  0  0  0  0  0  0  0  0
   59.9615   26.8002   46.6048 H   0  0  0  0  0  0  0  0  0  0  0  0
   61.7190   28.5870   44.3810 N   0  0  0  0  0  0  0  0  0  0  0  0
   62.5590   28.2110   44.8680 H   0  0  0  0  0  0  0  0  0  0  0  0
   61.7230   28.6350   43.3370 H   0  0  0  0  0  0  0  0  0  0  0  0
   58.0880   31.4380   46.4520 C   0  0  0  0  0  0  0  0  0  0  0  0
   58.0852   30.3711   46.7200 H   0  0  0  0  0  0  0  0  0  0  0  0
   58.7410   32.3590   47.2710 C   0  0  0  0  0  0  0  0  0  0  0  0
   59.2478   32.0174   48.1856 H   0  0  0  0  0  0  0  0  0  0  0  0
   61.6090   33.3370   49.1210 C   0  0  0  0  0  0  0  0  0  0  0  0
   61.0505   33.4558   50.0612 H   0  0  0  0  0  0  0  0  0  0  0  0
   62.7910   32.5780   49.1050 C   0  0  0  0  0  0  0  0  0  0  0  0
   63.2740   31.9040   50.3320 C   0  0  0  0  0  0  0  0  0  0  0  0
   62.4690   31.2320   51.0250 O   0  0  0  0  0  0  0  0  0  0  0  0
   64.6590   31.9580   50.7190 N   0  0  0  0  0  0  0  0  0  0  0  0
   65.3770   33.2390   50.7950 C   0  0  0  0  0  0  0  0  0  0  0  0
   64.8987   33.9616   50.1174 H   0  0  0  0  0  0  0  0  0  0  0  0
   65.3389   33.6045   51.8318 H   0  0  0  0  0  0  0  0  0  0  0  0
   66.8640   33.0610   50.3830 C   0  0  0  0  0  0  0  0  0  0  0  0
   67.0117   33.5360   49.4019 H   0  0  0  0  0  0  0  0  0  0  0  0
   67.4737   33.5268   51.1712 H   0  0  0  0  0  0  0  0  0  0  0  0
   67.2730   31.7030   50.2900 O   0  0  0  0  0  0  0  0  0  0  0  0
   66.8060   30.9670   51.4050 C   0  0  0  0  0  0  0  0  0  0  0  0
   67.3104   29.9900   51.4369 H   0  0  0  0  0  0  0  0  0  0  0  0
   67.0246   31.5224   52.3290 H   0  0  0  0  0  0  0  0  0  0  0  0
   65.2910   30.7570   51.2800 C   0  0  0  0  0  0  0  0  0  0  0  0
   65.0960   29.9004   50.6180 H   0  0  0  0  0  0  0  0  0  0  0  0
   64.8712   30.5624   52.2780 H   0  0  0  0  0  0  0  0  0  0  0  0
   63.5230   32.4840   47.9090 C   0  0  0  0  0  0  0  0  0  0  0  0
   64.4731   31.9300   47.8902 H   0  0  0  0  0  0  0  0  0  0  0  0
  1  2  1  0
  2  3  2  0
  3  4  1  0
  3  5  1  0
  5  6  1  0
  6  7  1  0
  7  8  2  0
  8  9  1  0
  8 10  1  0
 10 11  1  0
 10 12  2  0
 12 13  1  0
 13 14  1  0
 14 15  2  0
 14 16  1  0
 16 17  1  0
 16 18  1  0
 16 19  1  0
 19 20  1  0
 20 21  2  0
 21 22  1  0
 22 23  2  0
 23 24  1  0
 23 25  1  0
 25 26  1  0
 25 27  2  0
 27 28  1  0
 27 29  1  0
 29 30  1  0
 29 31  2  0
 31 32  1  0
 21 33  1  0
 33 34  1  0
 33 35  1  0
 12 36  1  0
 36 37  1  0
 36 38  2  0
 38 39  1  0
  5 40  2  0
 40 41  1  0
 40 42  1  0
 42 43  1  0
 43 44  2  0
 43 45  1  0
 45 46  1  0
 46 47  1  0
 46 48  1  0
 46 49  1  0
 49 50  1  0
 49 51  1  0
 49 52  1  0
 52 53  1  0
 53 54  1  0
 53 55  1  0
 53 56  1  0
 56 57  1  0
 56 58  1  0
 42 59  2  0
 59 60  1  0
 59  2  1  0
 38  7  1  0
 56 45  1  0
 31 22  1  0
M  CHG  1  13  -1
M  END
>  <UniqueID>  (40) 
40

>  <SMILES>  (40) 
N/C(=N/OCC(=O)[N-]c1ccc(Sc2cccc(C(=O)N3CCOCC3)c2)cc1)c1ccc(Cl)cc1

>  <Energy>  (40) 
69.31656661848191

>  <Genealogy>  (40) 
NC(=NOCC(=O)[N-]c1ccc(Sc2cccc(C(=O)N3CCOCC3)c2)cc1)c1ccc(Cl)cc1 (protonated)
N/C(=N/OCC(=O)[N-]c1ccc(Sc2cccc(C(=O)N3CCOCC3)c2)cc1)c1ccc(Cl)cc1 (cis-trans isomerization)
N/C(=N/OCC(=O)[N-]c1ccc(Sc2cccc(C(=O)N3CCOCC3)c2)cc1)c1ccc(Cl)cc1 (3D coordinates assigned)
N/C(=N/OCC(=O)[N-]c1ccc(Sc2cccc(C(=O)N3CCOCC3)c2)cc1)c1ccc(Cl)cc1 (nonaromatic ring conformer: 69.31656661848191 kcal/mol)

>  <smiles>  (40) 
NC(=NOCC(=O)Nc1ccc(Sc2cccc(C(=O)N3CCOCC3)c2)cc1)c1ccc(Cl)cc1

>  <score_type>  (40) 
oracle

>  <origin>  (40) 
adg

>  <m_score__min__energy>  (40) 
-11.73

>  <m_primary>  (40) 
energy

$$$$
40:0
     RDKit          3D

 60 63  0  0  0  0  0  0  0  0999 V2000
   56.3570   29.7520   42.2910 O   0  0  0  0  0  0  0  0  0  0  0  0
   56.5280   30.4740   43.3080 C   0  0  0  0  0  0  0  0  0  0  0  0
   55.5910   30.3340   44.4680 C   0  0  0  0  0  0  0  0  0  0  0  0
   55.4710   28.9680   44.8700 O   0  0  0  0  0  0  0  0  0  0  0  0
   56.4880   28.2020   45.4640 C   0  0  0  0  0  0  0  0  0  0  0  0
   57.8280   28.6330   45.5200 C   0  0  0  0  0  0  0  0  0  0  0  0
   58.8240   27.8330   46.1140 C   0  0  0  0  0  0  0  0  0  0  0  0
   60.2370   28.3050   46.1420 C   0  0  0  0  0  0  0  0  0  0  0  0
   61.0640   27.8290   45.3180 O   0  0  0  0  0  0  0  0  0  0  0  0
   60.7370   29.3190   47.1370 C   0  0  0  0  0  0  0  0  0  0  0  0
   60.4340   28.8790   48.5730 C   0  0  0  0  0  0  0  0  0  0  0  0
   59.9400   30.0130   49.3530 N   0  0  0  0  0  0  0  0  0  0  0  0
   58.6590   30.3930   49.4920 C   0  0  0  0  0  0  0  0  0  0  0  0
   58.6560   31.5580   50.2310 C   0  0  0  0  0  0  0  0  0  0  0  0
   57.5260   32.2820   50.5940 O   0  0  0  0  0  0  0  0  0  0  0  0
   59.9140   31.9280   50.5530 N   0  0  0  0  0  0  0  0  0  0  0  0
   60.6640   30.9590   49.9890 C   0  0  0  0  0  0  0  0  0  0  0  0
   61.9240   30.9520   50.0420 O   0  0  0  0  0  0  0  0  0  0  0  0
   58.4500   26.5940   46.6690 C   0  0  0  0  0  0  0  0  0  0  0  0
   57.1230   26.1670   46.6200 C   0  0  0  0  0  0  0  0  0  0  0  0
   56.1470   26.9630   46.0190 C   0  0  0  0  0  0  0  0  0  0  0  0
   54.8300   26.5210   45.9770 O   0  0  0  0  0  0  0  0  0  0  0  0
   57.5320   31.4990   43.3310 N   0  0  0  0  0  0  0  0  0  0  0  0
   58.0020   32.2550   44.4600 C   0  0  0  0  0  0  0  0  0  0  0  0
   58.5060   31.5530   45.5620 C   0  0  0  0  0  0  0  0  0  0  0  0
   58.9720   32.2370   46.6910 C   0  0  0  0  0  0  0  0  0  0  0  0
   58.9450   33.6400   46.7290 C   0  0  0  0  0  0  0  0  0  0  0  0
   59.4370   34.3850   47.9430 C   0  0  0  0  0  0  0  0  0  0  0  0
   60.9000   34.5710   47.8820 N   0  0  0  0  0  0  0  0  0  0  0  0
   61.5590   34.0560   49.0850 C   0  0  0  0  0  0  0  0  0  0  0  0
   62.9830   33.7040   48.6860 C   0  0  0  0  0  0  0  0  0  0  0  0
   62.9430   33.5270   47.1760 C   0  0  0  0  0  0  0  0  0  0  0  0
   61.5130   33.8470   46.7630 C   0  0  0  0  0  0  0  0  0  0  0  0
   58.4630   34.3480   45.6170 C   0  0  0  0  0  0  0  0  0  0  0  0
   58.0070   33.6640   44.4850 C   0  0  0  0  0  0  0  0  0  0  0  0
   55.9744   30.9249   45.3129 H   0  0  0  0  0  0  0  0  0  0  0  0
   54.5987   30.6966   44.1615 H   0  0  0  0  0  0  0  0  0  0  0  0
   58.1009   29.6094   45.0933 H   0  0  0  0  0  0  0  0  0  0  0  0
   61.8246   29.4329   47.0181 H   0  0  0  0  0  0  0  0  0  0  0  0
   60.2253   30.2744   46.9491 H   0  0  0  0  0  0  0  0  0  0  0  0
   59.6699   28.0878   48.5574 H   0  0  0  0  0  0  0  0  0  0  0  0
   61.3571   28.4992   49.0353 H   0  0  0  0  0  0  0  0  0  0  0  0
   57.7768   29.8723   49.0913 H   0  0  0  0  0  0  0  0  0  0  0  0
   56.6050   31.9960   50.2860 H   0  0  0  0  0  0  0  0  0  0  0  0
   59.2106   25.9577   47.1451 H   0  0  0  0  0  0  0  0  0  0  0  0
   56.8442   25.1971   47.0577 H   0  0  0  0  0  0  0  0  0  0  0  0
   58.5360   30.4536   45.5402 H   0  0  0  0  0  0  0  0  0  0  0  0
   59.3608   31.6729   47.5516 H   0  0  0  0  0  0  0  0  0  0  0  0
   58.9490   35.3699   47.9849 H   0  0  0  0  0  0  0  0  0  0  0  0
   59.1915   33.7996   48.8414 H   0  0  0  0  0  0  0  0  0  0  0  0
   61.5647   34.8241   49.8724 H   0  0  0  0  0  0  0  0  0  0  0  0
   61.0298   33.1764   49.4803 H   0  0  0  0  0  0  0  0  0  0  0  0
   63.6723   34.5160   48.9609 H   0  0  0  0  0  0  0  0  0  0  0  0
   63.3404   32.7975   49.1964 H   0  0  0  0  0  0  0  0  0  0  0  0
   63.6468   34.2185   46.6897 H   0  0  0  0  0  0  0  0  0  0  0  0
   63.2341   32.5089   46.8781 H   0  0  0  0  0  0  0  0  0  0  0  0
   61.5113   34.4747   45.8596 H   0  0  0  0  0  0  0  0  0  0  0  0
   60.9535   32.9280   46.5340 H   0  0  0  0  0  0  0  0  0  0  0  0
   58.4437   35.4477   45.6357 H   0  0  0  0  0  0  0  0  0  0  0  0
   57.6508   34.2285   43.6106 H   0  0  0  0  0  0  0  0  0  0  0  0
  1  2  2  0
  2  3  1  0
  3  4  1  0
  4  5  1  0
  5  6  2  0
  6  7  1  0
  7  8  1  0
  8  9  2  0
  8 10  1  0
 10 11  1  0
 11 12  1  0
 12 13  1  0
 13 14  2  0
 14 15  1  0
 14 16  1  0
 16 17  1  0
 17 18  2  0
  7 19  2  0
 19 20  1  0
 20 21  2  0
 21 22  1  0
  2 23  1  0
 23 24  1  0
 24 25  2  0
 25 26  1  0
 26 27  2  0
 27 28  1  0
 28 29  1  0
 29 30  1  0
 30 31  1  0
 31 32  1  0
 32 33  1  0
 27 34  1  0
 34 35  2  0
 21  5  1  0
 35 24  1  0
 17 12  1  0
 33 29  1  0
  3 36  1  0
  3 37  1  0
  6 38  1  0
 10 39  1  0
 10 40  1  0
 11 41  1  0
 11 42  1  0
 13 43  1  0
 15 44  1  0
 19 45  1  0
 20 46  1  0
 25 47  1  0
 26 48  1  0
 28 49  1  0
 28 50  1  0
 30 51  1  0
 30 52  1  0
 31 53  1  0
 31 54  1  0
 32 55  1  0
 32 56  1  0
 33 57  1  0
 33 58  1  0
 34 59  1  0
 35 60  1  0
M  CHG  3  16  -1  22  -1  23  -1
M  END
>  <UniqueID>  (41) 
41

>  <SMILES>  (41) 
O=C(COc1cc(C(=O)CCn2cc(O)[n-]c2=O)ccc1[O-])[N-]c1ccc(CN2CCCC2)cc1

>  <Energy>  (41) 
96.72991234117976

>  <Genealogy>  (41) 
O=C(COc1cc(C(=O)CCn2cc(O)[n-]c2=O)ccc1[O-])[N-]c1ccc(CN2CCCC2)cc1 (protonated)
O=C(COc1cc(C(=O)CCn2cc(O)[n-]c2=O)ccc1[O-])[N-]c1ccc(CN2CCCC2)cc1 (3D coordinates assigned)
O=C(COc1cc(C(=O)CCn2cc(O)[n-]c2=O)ccc1[O-])[N-]c1ccc(CN2CCCC2)cc1 (nonaromatic ring conformer: 96.72991234117976 kcal/mol)

>  <smiles>  (41) 
O=C(COc1cc(C(=O)CCn2cc(O)[nH]c2=O)ccc1O)Nc1ccc(CN2CCCC2)cc1

>  <score_type>  (41) 
oracle

>  <origin>  (41) 
adg

>  <m_score__min__energy>  (41) 
-15.32

>  <m_primary>  (41) 
energy

$$$$
41:0
     RDKit          3D

 45 48  0  0  0  0  0  0  0  0999 V2000
   56.6290   21.1930   45.5800 C   0  0  0  0  0  0  0  0  0  0  0  0
   57.5150   21.2370   44.4000 N   0  0  0  0  0  0  0  0  0  0  0  0
   57.0050   22.1110   43.3360 C   0  0  0  0  0  0  0  0  0  0  0  0
   56.9650   23.5920   43.7400 C   0  0  0  0  0  0  0  0  0  0  0  0
   58.0720   24.0320   44.6180 N   0  0  0  0  0  0  0  0  0  0  0  0
   58.1580   25.4440   44.9960 C   0  0  0  0  0  0  0  0  0  0  0  0
   58.6420   25.8350   46.2680 C   0  0  0  0  0  0  0  0  0  0  0  0
   58.7260   27.1810   46.6300 C   0  0  0  0  0  0  0  0  0  0  0  0
   58.3250   28.1760   45.7420 C   0  0  0  0  0  0  0  0  0  0  0  0
   58.4100   29.4830   46.1080 N   0  0  0  0  0  0  0  0  0  0  0  0
   58.0270   30.5000   45.2860 C   0  0  0  0  0  0  0  0  0  0  0  0
   58.1560   31.9020   45.7600 C   0  0  0  0  0  0  0  0  0  0  0  0
   57.7800   32.9640   44.9160 C   0  0  0  0  0  0  0  0  0  0  0  0
   57.9030   34.2890   45.3440 C   0  0  0  0  0  0  0  0  0  0  0  0
   58.4100   34.5710   46.6130 C   0  0  0  0  0  0  0  0  0  0  0  0
   58.7990   33.5290   47.4570 C   0  0  0  0  0  0  0  0  0  0  0  0
   59.3040   33.8050   48.6850 F   0  0  0  0  0  0  0  0  0  0  0  0
   58.6780   32.2010   47.0340 C   0  0  0  0  0  0  0  0  0  0  0  0
   57.5390   30.1940   44.0040 C   0  0  0  0  0  0  0  0  0  0  0  0
   57.4380   28.8610   43.5960 C   0  0  0  0  0  0  0  0  0  0  0  0
   56.9980   28.6010   42.4430 O   0  0  0  0  0  0  0  0  0  0  0  0
   57.8320   27.8290   44.4700 C   0  0  0  0  0  0  0  0  0  0  0  0
   57.7490   26.4710   44.1070 C   0  0  0  0  0  0  0  0  0  0  0  0
   59.0030   23.0680   45.2490 C   0  0  0  0  0  0  0  0  0  0  0  0
   58.8920   21.6250   44.7350 C   0  0  0  0  0  0  0  0  0  0  0  0
   57.2369   21.2232   46.4963 H   0  0  0  0  0  0  0  0  0  0  0  0
   55.9504   22.0586   45.5615 H   0  0  0  0  0  0  0  0  0  0  0  0
   56.0395   20.2645   45.5615 H   0  0  0  0  0  0  0  0  0  0  0  0
   57.5530   20.2650   44.0110 H   0  0  0  0  0  0  0  0  0  0  0  0
   57.6552   22.0059   42.4550 H   0  0  0  0  0  0  0  0  0  0  0  0
   55.9711   21.8008   43.1243 H   0  0  0  0  0  0  0  0  0  0  0  0
   56.9969   24.1969   42.8218 H   0  0  0  0  0  0  0  0  0  0  0  0
   56.0406   23.7269   44.3207 H   0  0  0  0  0  0  0  0  0  0  0  0
   58.9581   25.0631   46.9852 H   0  0  0  0  0  0  0  0  0  0  0  0
   59.1113   27.4571   47.6226 H   0  0  0  0  0  0  0  0  0  0  0  0
   57.3862   32.7495   43.9116 H   0  0  0  0  0  0  0  0  0  0  0  0
   57.5995   35.1110   44.6791 H   0  0  0  0  0  0  0  0  0  0  0  0
   58.5032   35.6144   46.9485 H   0  0  0  0  0  0  0  0  0  0  0  0
   58.9926   31.3846   47.7007 H   0  0  0  0  0  0  0  0  0  0  0  0
   57.2369   31.0028   43.3224 H   0  0  0  0  0  0  0  0  0  0  0  0
   57.3593   26.2012   43.1144 H   0  0  0  0  0  0  0  0  0  0  0  0
   60.0302   23.4168   45.0668 H   0  0  0  0  0  0  0  0  0  0  0  0
   58.7347   23.0354   46.3153 H   0  0  0  0  0  0  0  0  0  0  0  0
   59.5130   21.5261   43.8325 H   0  0  0  0  0  0  0  0  0  0  0  0
   59.2323   20.9616   45.5437 H   0  0  0  0  0  0  0  0  0  0  0  0
  1  2  1  0
  2  3  1  0
  3  4  1  0
  4  5  1  0
  5  6  1  0
  6  7  2  0
  7  8  1  0
  8  9  2  0
  9 10  1  0
 10 11  1  0
 11 12  1  0
 12 13  2  0
 13 14  1  0
 14 15  2  0
 15 16  1  0
 16 17  1  0
 16 18  2  0
 11 19  2  0
 19 20  1  0
 20 21  2  0
 20 22  1  0
 22 23  2  0
  5 24  1  0
 24 25  1  0
 25  2  1  0
 23  6  1  0
 22  9  1  0
 18 12  1  0
  1 26  1  0
  1 27  1  0
  1 28  1  0
  2 29  1  0
  3 30  1  0
  3 31  1  0
  4 32  1  0
  4 33  1  0
  7 34  1  0
  8 35  1  0
 13 36  1  0
 14 37  1  0
 15 38  1  0
 18 39  1  0
 19 40  1  0
 23 41  1  0
 24 42  1  0
 24 43  1  0
 25 44  1  0
 25 45  1  0
M  CHG  2   2   1  10  -1
M  END
>  <UniqueID>  (42) 
42

>  <SMILES>  (42) 
C[NH+]1CCN(c2ccc3[n-]c(-c4cccc(F)c4)cc(=O)c3c2)CC1

>  <Energy>  (42) 
68.07891259707147

>  <Genealogy>  (42) 
C[NH+]1CCN(c2ccc3[n-]c(-c4cccc(F)c4)cc(=O)c3c2)CC1 (protonated)
C[NH+]1CCN(c2ccc3[n-]c(-c4cccc(F)c4)cc(=O)c3c2)CC1 (3D coordinates assigned)
C[NH+]1CCN(c2ccc3[n-]c(-c4cccc(F)c4)cc(=O)c3c2)CC1 (nonaromatic ring conformer: 68.07891259707147 kcal/mol)

>  <smiles>  (42) 
CN1CCN(c2ccc3[nH]c(-c4cccc(F)c4)cc(=O)c3c2)CC1

>  <score_type>  (42) 
oracle

>  <origin>  (42) 
adg

>  <m_score__min__energy>  (42) 
-7.2800000000000002

>  <m_primary>  (42) 
energy

$$$$
42:0
     RDKit          3D

 67 71  0  0  0  0  0  0  0  0999 V2000
   57.7280   31.9560   41.9860 C   0  0  0  0  0  0  0  0  0  0  0  0
   57.9940   32.2260   43.4440 C   0  0  0  0  0  0  0  0  0  0  0  0
   58.5380   33.4710   43.7980 C   0  0  0  0  0  0  0  0  0  0  0  0
   58.7810   33.7940   45.1320 C   0  0  0  0  0  0  0  0  0  0  0  0
   58.5080   32.8700   46.1520 C   0  0  0  0  0  0  0  0  0  0  0  0
   58.7550   33.1960   47.5830 C   0  0  0  0  0  0  0  0  0  0  0  0
   58.8960   34.3930   47.9360 O   0  0  0  0  0  0  0  0  0  0  0  0
   58.8460   32.1550   48.6120 C   0  0  0  0  0  0  0  0  0  0  0  0
   59.7600   31.1630   48.5640 N   0  0  0  0  0  0  0  0  0  0  0  0
   59.4820   30.4300   49.6570 C   0  0  0  0  0  0  0  0  0  0  0  0
   60.1710   29.1800   50.0040 C   0  0  0  0  0  0  0  0  0  0  0  0
   60.0710   27.9780   49.3150 C   0  0  0  0  0  0  0  0  0  0  0  0
   60.8020   26.9390   49.9040 C   0  0  0  0  0  0  0  0  0  0  0  0
   61.4560   27.3090   51.0770 C   0  0  0  0  0  0  0  0  0  0  0  0
   62.3770   26.4260   51.8290 C   0  0  0  0  0  0  0  0  0  0  0  0
   62.3780   25.2000   51.5270 O   0  0  0  0  0  0  0  0  0  0  0  0
   63.1830   26.8700   52.9580 N   0  0  0  0  0  0  0  0  0  0  0  0
   63.9520   28.0920   52.6260 C   0  0  0  0  0  0  0  0  0  0  0  0
   65.2110   27.8130   51.7760 C   0  0  0  0  0  0  0  0  0  0  0  0
   65.7370   26.4440   51.9590 N   0  0  0  0  0  0  0  0  0  0  0  0
   67.1620   26.3790   51.6030 C   0  0  0  0  0  0  0  0  0  0  0  0
   65.5140   25.9550   53.3270 C   0  0  0  0  0  0  0  0  0  0  0  0
   64.0040   25.8060   53.5940 C   0  0  0  0  0  0  0  0  0  0  0  0
   61.1750   28.9520   51.3320 S   0  0  0  0  0  0  0  0  0  0  0  0
   58.4240   30.9900   50.3350 C   0  0  0  0  0  0  0  0  0  0  0  0
   58.0120   32.0840   49.6740 N   0  0  0  0  0  0  0  0  0  0  0  0
   57.9560   31.6260   45.8040 C   0  0  0  0  0  0  0  0  0  0  0  0
   57.6710   31.2970   44.4680 C   0  0  0  0  0  0  0  0  0  0  0  0
   56.8760   29.7320   44.1840 S   0  0  0  0  0  0  0  0  0  0  0  0
   56.1850   29.6850   42.8460 O   0  0  0  0  0  0  0  0  0  0  0  0
   55.8160   29.5800   45.2420 O   0  0  0  0  0  0  0  0  0  0  0  0
   58.0020   28.3930   44.3420 N   0  0  0  0  0  0  0  0  0  0  0  0
   57.6100   27.4100   45.3680 C   0  0  0  0  0  0  0  0  0  0  0  0
   57.8230   27.9250   46.8080 C   0  0  0  0  0  0  0  0  0  0  0  0
   58.6740   29.1220   46.8540 N   0  0  0  0  0  0  0  0  0  0  0  0
   59.8370   28.9530   45.9790 C   0  0  0  0  0  0  0  0  0  0  0  0
   59.3960   28.8610   44.5050 C   0  0  0  0  0  0  0  0  0  0  0  0
   56.9588   31.1753   41.8921 H   0  0  0  0  0  0  0  0  0  0  0  0
   57.3757   32.8781   41.5007 H   0  0  0  0  0  0  0  0  0  0  0  0
   58.6553   31.6175   41.5007 H   0  0  0  0  0  0  0  0  0  0  0  0
   58.7759   34.2021   43.0113 H   0  0  0  0  0  0  0  0  0  0  0  0
   59.1906   34.7824   45.3874 H   0  0  0  0  0  0  0  0  0  0  0  0
   59.4766   27.8546   48.3977 H   0  0  0  0  0  0  0  0  0  0  0  0
   60.8549   25.9254   49.4801 H   0  0  0  0  0  0  0  0  0  0  0  0
   62.4990   27.1700   53.6940 H   0  0  0  0  0  0  0  0  0  0  0  0
   63.2968   28.7745   52.0649 H   0  0  0  0  0  0  0  0  0  0  0  0
   64.2923   28.5294   53.5762 H   0  0  0  0  0  0  0  0  0  0  0  0
   64.9560   27.9521   50.7150 H   0  0  0  0  0  0  0  0  0  0  0  0
   65.9928   28.5136   52.1045 H   0  0  0  0  0  0  0  0  0  0  0  0
   67.7682   26.3513   52.5204 H   0  0  0  0  0  0  0  0  0  0  0  0
   67.3510   25.4713   51.0111 H   0  0  0  0  0  0  0  0  0  0  0  0
   67.4329   27.2657   51.0111 H   0  0  0  0  0  0  0  0  0  0  0  0
   66.0036   24.9775   53.4487 H   0  0  0  0  0  0  0  0  0  0  0  0
   65.9375   26.6761   54.0416 H   0  0  0  0  0  0  0  0  0  0  0  0
   63.6754   24.8318   53.2029 H   0  0  0  0  0  0  0  0  0  0  0  0
   63.8571   25.8893   54.6810 H   0  0  0  0  0  0  0  0  0  0  0  0
   57.9864   30.6041   51.2675 H   0  0  0  0  0  0  0  0  0  0  0  0
   57.7420   30.8927   46.5955 H   0  0  0  0  0  0  0  0  0  0  0  0
   56.5447   27.1703   45.2352 H   0  0  0  0  0  0  0  0  0  0  0  0
   58.2490   26.5243   45.2369 H   0  0  0  0  0  0  0  0  0  0  0  0
   56.8434   28.1709   47.2439 H   0  0  0  0  0  0  0  0  0  0  0  0
   58.3292   27.1312   47.3769 H   0  0  0  0  0  0  0  0  0  0  0  0
   59.0190   29.2300   47.8360 H   0  0  0  0  0  0  0  0  0  0  0  0
   60.5105   29.8139   46.1021 H   0  0  0  0  0  0  0  0  0  0  0  0
   60.3559   28.0227   46.2534 H   0  0  0  0  0  0  0  0  0  0  0  0
   59.4853   29.8587   44.0504 H   0  0  0  0  0  0  0  0  0  0  0  0
   60.0480   28.1235   44.0141 H   0  0  0  0  0  0  0  0  0  0  0  0
  1  2  1  0
  2  3  2  0
  3  4  1  0
  4  5  2  0
  5  6  1  0
  6  7  2  0
  6  8  1  0
  8  9  2  0
  9 10  1  0
 10 11  1  0
 11 12  2  0
 12 13  1  0
 13 14  2  0
 14 15  1  0
 15 16  2  0
 15 17  1  0
 17 18  1  0
 18 19  1  0
 19 20  1  0
 20 21  1  0
 20 22  1  0
 22 23  1  0
 14 24  1  0
 10 25  2  0
 25 26  1  0
  5 27  1  0
 27 28  2  0
 28 29  1  0
 29 30  2  0
 29 31  2  0
 29 32  1  0
 32 33  1  0
 33 34  1  0
 34 35  1  0
 35 36  1  0
 36 37  1  0
 28  2  1  0
 37 32  1  0
 26  8  1  0
 24 11  1  0
 23 17  1  0
  1 38  1  0
  1 39  1  0
  1 40  1  0
  3 41  1  0
  4 42  1  0
 12 43  1  0
 13 44  1  0
 17 45  1  0
 18 46  1  0
 18 47  1  0
 19 48  1  0
 19 49  1  0
 21 50  1  0
 21 51  1  0
 21 52  1  0
 22 53  1  0
 22 54  1  0
 23 55  1  0
 23 56  1  0
 25 57  1  0
 27 58  1  0
 33 59  1  0
 33 60  1  0
 34 61  1  0
 34 62  1  0
 35 63  1  0
 36 64  1  0
 36 65  1  0
 37 66  1  0
 37 67  1  0
M  CHG  2  17   1  26  -1
M  END
>  <UniqueID>  (43) 
43

>  <SMILES>  (43) 
Cc1ccc(C(=O)c2nc(-c3ccc(C(=O)[NH+]4CCN(C)CC4)s3)c[n-]2)cc1S(=O)(=O)N1CCNCC1

>  <Energy>  (43) 
165.27518574905181

>  <Genealogy>  (43) 
Cc1ccc(C(=O)c2nc(-c3ccc(C(=O)[NH+]4CCN(C)CC4)s3)c[n-]2)cc1S(=O)(=O)N1CCNCC1 (protonated)
Cc1ccc(C(=O)c2nc(-c3ccc(C(=O)[NH+]4CCN(C)CC4)s3)c[n-]2)cc1S(=O)(=O)N1CCNCC1 (3D coordinates assigned)
Cc1ccc(C(=O)c2nc(-c3ccc(C(=O)[NH+]4CCN(C)CC4)s3)c[n-]2)cc1S(=O)(=O)N1CCNCC1 (nonaromatic ring conformer: 165.27518574905181 kcal/mol)

>  <smiles>  (43) 
Cc1ccc(C(=O)c2nc(-c3ccc(C(=O)N4CCN(C)CC4)s3)c[nH]2)cc1S(=O)(=O)N1CCNCC1

>  <score_type>  (43) 
oracle

>  <origin>  (43) 
adg

>  <m_score__min__energy>  (43) 
-11.32

>  <m_primary>  (43) 
energy

$$$$
43:0
     RDKit          3D

 52 55  0  0  0  0  0  0  0  0999 V2000
   58.5210   34.2400   46.9190 C   0  0  0  0  0  0  0  0  0  0  0  0
   59.8930   34.5330   46.3350 C   0  0  0  0  0  0  0  0  0  0  0  0
   60.7140   33.3300   46.3780 N   0  0  0  0  0  0  0  0  0  0  0  0
   62.0320   33.3080   46.9340 C   0  0  0  0  0  0  0  0  0  0  0  0
   62.9890   33.8260   46.2980 O   0  0  0  0  0  0  0  0  0  0  0  0
   62.2510   32.7300   48.2780 C   0  0  0  0  0  0  0  0  0  0  0  0
   61.1460   32.1990   48.9700 C   0  0  0  0  0  0  0  0  0  0  0  0
   61.2800   31.6970   50.2720 C   0  0  0  0  0  0  0  0  0  0  0  0
   60.1400   31.1670   50.9710 N   0  0  0  0  0  0  0  0  0  0  0  0
   60.0100   29.8830   51.5940 C   0  0  0  0  0  0  0  0  0  0  0  0
   60.8830   28.9760   51.5510 O   0  0  0  0  0  0  0  0  0  0  0  0
   58.7010   29.7650   52.2260 C   0  0  0  0  0  0  0  0  0  0  0  0
   58.1250   28.7130   52.9330 C   0  0  0  0  0  0  0  0  0  0  0  0
   56.8220   28.8850   53.4300 C   0  0  0  0  0  0  0  0  0  0  0  0
   56.1250   30.1050   53.2280 C   0  0  0  0  0  0  0  0  0  0  0  0
   54.7860   30.2870   53.7030 N   0  0  0  0  0  0  0  0  0  0  0  0
   53.9460   29.2730   54.2700 C   0  0  0  0  0  0  0  0  0  0  0  0
   54.4740   28.3640   54.9640 O   0  0  0  0  0  0  0  0  0  0  0  0
   52.4670   29.2240   53.9980 C   0  0  0  0  0  0  0  0  0  0  0  0
   52.1080   30.1600   52.8760 C   0  0  0  0  0  0  0  0  0  0  0  0
   52.3270   29.7770   51.5420 C   0  0  0  0  0  0  0  0  0  0  0  0
   51.9670   30.6300   50.4960 C   0  0  0  0  0  0  0  0  0  0  0  0
   51.3780   31.8680   50.7720 C   0  0  0  0  0  0  0  0  0  0  0  0
   51.0190   32.7150   49.7310 O   0  0  0  0  0  0  0  0  0  0  0  0
   51.1480   32.2520   52.0970 C   0  0  0  0  0  0  0  0  0  0  0  0
   51.5070   31.4000   53.1470 C   0  0  0  0  0  0  0  0  0  0  0  0
   56.7280   31.1390   52.4850 C   0  0  0  0  0  0  0  0  0  0  0  0
   58.0190   30.9420   52.0030 C   0  0  0  0  0  0  0  0  0  0  0  0
   58.8920   31.8200   51.2330 C   0  0  0  0  0  0  0  0  0  0  0  0
   58.6190   33.0010   50.8880 O   0  0  0  0  0  0  0  0  0  0  0  0
   62.5370   31.7260   50.8890 C   0  0  0  0  0  0  0  0  0  0  0  0
   63.6450   32.2320   50.2110 C   0  0  0  0  0  0  0  0  0  0  0  0
   63.5220   32.7170   48.9050 C   0  0  0  0  0  0  0  0  0  0  0  0
   64.6850   33.1410   48.2570 O   0  0  0  0  0  0  0  0  0  0  0  0
   58.5797   34.2525   48.0174 H   0  0  0  0  0  0  0  0  0  0  0  0
   57.8075   35.0060   46.5812 H   0  0  0  0  0  0  0  0  0  0  0  0
   58.1826   33.2493   46.5812 H   0  0  0  0  0  0  0  0  0  0  0  0
   59.7830   34.8631   45.2915 H   0  0  0  0  0  0  0  0  0  0  0  0
   60.3775   35.3251   46.9248 H   0  0  0  0  0  0  0  0  0  0  0  0
   60.1610   32.1776   48.4809 H   0  0  0  0  0  0  0  0  0  0  0  0
   58.6741   27.7742   53.0978 H   0  0  0  0  0  0  0  0  0  0  0  0
   56.3371   28.0659   53.9813 H   0  0  0  0  0  0  0  0  0  0  0  0
   52.1837   28.1984   53.7189 H   0  0  0  0  0  0  0  0  0  0  0  0
   51.9272   29.5319   54.9056 H   0  0  0  0  0  0  0  0  0  0  0  0
   52.7839   28.8012   51.3204 H   0  0  0  0  0  0  0  0  0  0  0  0
   52.1470   30.3275   49.4538 H   0  0  0  0  0  0  0  0  0  0  0  0
   50.6841   33.2255   52.3139 H   0  0  0  0  0  0  0  0  0  0  0  0
   51.3180   31.7022   54.1877 H   0  0  0  0  0  0  0  0  0  0  0  0
   56.1916   32.0794   52.2904 H   0  0  0  0  0  0  0  0  0  0  0  0
   62.6507   31.3470   51.9154 H   0  0  0  0  0  0  0  0  0  0  0  0
   64.6260   32.2500   50.7083 H   0  0  0  0  0  0  0  0  0  0  0  0
   64.8170   33.0880   47.2570 H   0  0  0  0  0  0  0  0  0  0  0  0
  1  2  1  0
  2  3  1  0
  3  4  1  0
  4  5  2  0
  4  6  1  0
  6  7  2  0
  7  8  1  0
  8  9  1  0
  9 10  1  0
 10 11  2  0
 10 12  1  0
 12 13  2  0
 13 14  1  0
 14 15  2  0
 15 16  1  0
 16 17  1  0
 17 18  2  0
 17 19  1  0
 19 20  1  0
 20 21  2  0
 21 22  1  0
 22 23  2  0
 23 24  1  0
 23 25  1  0
 25 26  2  0
 15 27  1  0
 27 28  2  0
 28 29  1  0
 29 30  2  0
  8 31  2  0
 31 32  1  0
 32 33  2  0
 33 34  1  0
 33  6  1  0
 29  9  1  0
 28 12  1  0
 26 20  1  0
  1 35  1  0
  1 36  1  0
  1 37  1  0
  2 38  1  0
  2 39  1  0
  7 40  1  0
 13 41  1  0
 14 42  1  0
 19 43  1  0
 19 44  1  0
 21 45  1  0
 22 46  1  0
 25 47  1  0
 26 48  1  0
 27 49  1  0
 31 50  1  0
 32 51  1  0
 34 52  1  0
M  CHG  3   3  -1  16  -1  24  -1
M  END
>  <UniqueID>  (44) 
44

>  <SMILES>  (44) 
CC[N-]C(=O)c1cc(N2C(=O)c3ccc([N-]C(=O)Cc4ccc([O-])cc4)cc3C2=O)ccc1O

>  <Energy>  (44) 
97.5952568013545

>  <Genealogy>  (44) 
CC[N-]C(=O)c1cc(N2C(=O)c3ccc([N-]C(=O)Cc4ccc([O-])cc4)cc3C2=O)ccc1O (protonated)
CC[N-]C(=O)c1cc(N2C(=O)c3ccc([N-]C(=O)Cc4ccc([O-])cc4)cc3C2=O)ccc1O (3D coordinates assigned)
CC[N-]C(=O)c1cc(N2C(=O)c3ccc([N-]C(=O)Cc4ccc([O-])cc4)cc3C2=O)ccc1O (nonaromatic ring conformer: 97.5952568013545 kcal/mol)

>  <smiles>  (44) 
CCNC(=O)c1cc(N2C(=O)c3ccc(NC(=O)Cc4ccc(O)cc4)cc3C2=O)ccc1O

>  <score_type>  (44) 
oracle

>  <origin>  (44) 
adg

>  <m_score__min__energy>  (44) 
-13.08

>  <m_primary>  (44) 
energy

$$$$
44:0
     RDKit          3D

 38 40  0  0  0  0  0  0  0  0999 V2000
   57.0330   28.2140   45.6520 C   0  0  0  0  0  0  0  0  0  0  0  0
   56.2880   29.3610   45.2550 O   0  0  0  0  0  0  0  0  0  0  0  0
   56.7720   30.3680   44.4060 C   0  0  0  0  0  0  0  0  0  0  0  0
   56.6170   30.3140   43.0110 C   0  0  0  0  0  0  0  0  0  0  0  0
   57.1230   31.3380   42.2080 C   0  0  0  0  0  0  0  0  0  0  0  0
   57.7930   32.4180   42.7860 C   0  0  0  0  0  0  0  0  0  0  0  0
   57.9560   32.4950   44.1810 C   0  0  0  0  0  0  0  0  0  0  0  0
   58.6830   33.6270   44.8100 C   0  0  0  0  0  0  0  0  0  0  0  0
   59.6010   34.2150   44.1780 O   0  0  0  0  0  0  0  0  0  0  0  0
   58.2760   34.2230   46.4550 S   0  0  0  0  0  0  0  0  0  0  0  0
   59.2320   32.9370   47.2760 C   0  0  0  0  0  0  0  0  0  0  0  0
   58.5400   31.9540   47.9740 C   0  0  0  0  0  0  0  0  0  0  0  0
   59.2290   30.9500   48.6490 C   0  0  0  0  0  0  0  0  0  0  0  0
   58.5560   30.0690   49.2510 O   0  0  0  0  0  0  0  0  0  0  0  0
   60.6030   30.9200   48.6580 N   0  0  0  0  0  0  0  0  0  0  0  0
   61.3030   29.8660   49.4190 C   0  0  0  0  0  0  0  0  0  0  0  0
   61.3220   31.8750   47.9610 C   0  0  0  0  0  0  0  0  0  0  0  0
   62.7390   31.8620   47.9280 C   0  0  0  0  0  0  0  0  0  0  0  0
   63.4500   32.8380   47.2290 C   0  0  0  0  0  0  0  0  0  0  0  0
   62.7750   33.8440   46.5490 C   0  0  0  0  0  0  0  0  0  0  0  0
   61.3820   33.8850   46.5610 C   0  0  0  0  0  0  0  0  0  0  0  0
   60.6400   32.9100   47.2570 C   0  0  0  0  0  0  0  0  0  0  0  0
   57.4330   31.4620   44.9790 C   0  0  0  0  0  0  0  0  0  0  0  0
   57.0673   28.1611   46.7502 H   0  0  0  0  0  0  0  0  0  0  0  0
   56.5503   27.3082   45.2562 H   0  0  0  0  0  0  0  0  0  0  0  0
   58.0568   28.2867   45.2562 H   0  0  0  0  0  0  0  0  0  0  0  0
   56.0954   29.4624   42.5498 H   0  0  0  0  0  0  0  0  0  0  0  0
   56.9934   31.2937   41.1166 H   0  0  0  0  0  0  0  0  0  0  0  0
   58.1968   33.2155   42.1450 H   0  0  0  0  0  0  0  0  0  0  0  0
   57.4403   31.9695   47.9932 H   0  0  0  0  0  0  0  0  0  0  0  0
   61.1811   30.0495   50.4967 H   0  0  0  0  0  0  0  0  0  0  0  0
   60.8765   28.8847   49.1636 H   0  0  0  0  0  0  0  0  0  0  0  0
   62.3729   29.8785   49.1636 H   0  0  0  0  0  0  0  0  0  0  0  0
   63.2862   31.0707   48.4614 H   0  0  0  0  0  0  0  0  0  0  0  0
   64.5496   32.8108   47.2163 H   0  0  0  0  0  0  0  0  0  0  0  0
   63.3416   34.6103   45.9996 H   0  0  0  0  0  0  0  0  0  0  0  0
   60.8563   34.6867   46.0216 H   0  0  0  0  0  0  0  0  0  0  0  0
   57.5449   31.5140   46.0721 H   0  0  0  0  0  0  0  0  0  0  0  0
  1  2  1  0
  2  3  1  0
  3  4  2  0
  4  5  1  0
  5  6  2  0
  6  7  1  0
  7  8  1  0
  8  9  2  0
  8 10  1  0
 10 11  1  0
 11 12  2  0
 12 13  1  0
 13 14  2  0
 13 15  1  0
 15 16  1  0
 15 17  1  0
 17 18  2  0
 18 19  1  0
 19 20  2  0
 20 21  1  0
 21 22  2  0
  7 23  2  0
 23  3  1  0
 22 11  1  0
 22 17  1  0
  1 24  1  0
  1 25  1  0
  1 26  1  0
  4 27  1  0
  5 28  1  0
  6 29  1  0
 12 30  1  0
 16 31  1  0
 16 32  1  0
 16 33  1  0
 18 34  1  0
 19 35  1  0
 20 36  1  0
 21 37  1  0
 23 38  1  0
M  END
>  <UniqueID>  (45) 
45

>  <SMILES>  (45) 
COc1cccc(C(=O)Sc2cc(=O)n(C)c3ccccc23)c1

>  <Energy>  (45) 
49.10495809076715

>  <Genealogy>  (45) 
COc1cccc(C(=O)Sc2cc(=O)n(C)c3ccccc23)c1 (3D coordinates assigned)
COc1cccc(C(=O)Sc2cc(=O)n(C)c3ccccc23)c1 (optimized conformer: 49.10495809076715 kcal/mol)

>  <smiles>  (45) 
COc1cccc(C(=O)Sc2cc(=O)n(C)c3ccccc23)c1

>  <score_type>  (45) 
oracle

>  <origin>  (45) 
adg

>  <m_score__min__energy>  (45) 
-8.0099999999999998

>  <m_primary>  (45) 
energy

$$$$
45:0
     RDKit          3D

 43 45  0  0  0  0  0  0  0  0999 V2000
   55.1450   26.6290   46.1150 N   0  0  0  0  0  0  0  0  0  0  0  0
   56.3930   25.4360   46.2110 S   0  0  0  0  0  0  0  0  0  0  0  0
   56.0270   24.4300   47.2660 O   0  0  0  0  0  0  0  0  0  0  0  0
   56.5200   24.7330   44.8900 O   0  0  0  0  0  0  0  0  0  0  0  0
   57.9250   26.2190   46.6090 C   0  0  0  0  0  0  0  0  0  0  0  0
   57.9370   27.5170   47.1430 C   0  0  0  0  0  0  0  0  0  0  0  0
   59.1510   28.1520   47.4600 C   0  0  0  0  0  0  0  0  0  0  0  0
   59.1600   29.5220   48.0380 C   0  0  0  0  0  0  0  0  0  0  0  0
   59.5050   29.7250   49.3870 C   0  0  0  0  0  0  0  0  0  0  0  0
   59.5400   31.0150   49.9220 C   0  0  0  0  0  0  0  0  0  0  0  0
   59.2370   32.1160   49.1200 C   0  0  0  0  0  0  0  0  0  0  0  0
   58.8780   31.9340   47.7770 C   0  0  0  0  0  0  0  0  0  0  0  0
   58.6640   33.1270   46.8860 C   0  0  0  0  0  0  0  0  0  0  0  0
   58.9150   32.7430   45.5000 N   0  0  0  0  0  0  0  0  0  0  0  0
   57.9340   32.9650   44.4800 C   0  0  0  0  0  0  0  0  0  0  0  0
   57.1860   33.9780   44.5290 O   0  0  0  0  0  0  0  0  0  0  0  0
   57.7220   31.9390   43.4120 C   0  0  0  0  0  0  0  0  0  0  0  0
   57.1580   30.6970   44.0280 C   0  0  0  0  0  0  0  0  0  0  0  0
   57.7990   29.4840   44.1610 C   0  0  0  0  0  0  0  0  0  0  0  0
   56.8450   28.6150   44.6520 C   0  0  0  0  0  0  0  0  0  0  0  0
   55.7010   29.2440   44.7970 O   0  0  0  0  0  0  0  0  0  0  0  0
   55.8520   30.4950   44.4230 C   0  0  0  0  0  0  0  0  0  0  0  0
   58.8460   30.6370   47.2400 C   0  0  0  0  0  0  0  0  0  0  0  0
   60.3580   27.4670   47.2290 C   0  0  0  0  0  0  0  0  0  0  0  0
   60.3470   26.1760   46.6970 C   0  0  0  0  0  0  0  0  0  0  0  0
   59.1390   25.5510   46.3870 C   0  0  0  0  0  0  0  0  0  0  0  0
   59.1530   24.2640   45.8580 O   0  0  0  0  0  0  0  0  0  0  0  0
   55.2440   27.0980   45.1870 H   0  0  0  0  0  0  0  0  0  0  0  0
   56.9865   28.0432   47.3154 H   0  0  0  0  0  0  0  0  0  0  0  0
   59.7487   28.8623   50.0244 H   0  0  0  0  0  0  0  0  0  0  0  0
   59.8072   31.1633   50.9787 H   0  0  0  0  0  0  0  0  0  0  0  0
   59.2800   33.1305   49.5431 H   0  0  0  0  0  0  0  0  0  0  0  0
   57.6274   33.4808   46.9877 H   0  0  0  0  0  0  0  0  0  0  0  0
   59.3536   33.9333   47.1765 H   0  0  0  0  0  0  0  0  0  0  0  0
   59.6620   32.0330   45.3250 H   0  0  0  0  0  0  0  0  0  0  0  0
   57.0191   32.3292   42.6612 H   0  0  0  0  0  0  0  0  0  0  0  0
   58.6813   31.7077   42.9259 H   0  0  0  0  0  0  0  0  0  0  0  0
   58.8491   29.2563   43.9256 H   0  0  0  0  0  0  0  0  0  0  0  0
   57.0173   27.5542   44.8867 H   0  0  0  0  0  0  0  0  0  0  0  0
   55.0616   31.2600   44.4247 H   0  0  0  0  0  0  0  0  0  0  0  0
   58.5726   30.4914   46.1845 H   0  0  0  0  0  0  0  0  0  0  0  0
   61.3161   27.9513   47.4689 H   0  0  0  0  0  0  0  0  0  0  0  0
   61.2963   25.6488   46.5213 H   0  0  0  0  0  0  0  0  0  0  0  0
  1  2  1  0
  2  3  2  0
  2  4  2  0
  2  5  1  0
  5  6  2  0
  6  7  1  0
  7  8  1  0
  8  9  2  0
  9 10  1  0
 10 11  2  0
 11 12  1  0
 12 13  1  0
 13 14  1  0
 14 15  1  0
 15 16  2  0
 15 17  1  0
 17 18  1  0
 18 19  1  0
 19 20  2  0
 20 21  1  0
 21 22  1  0
 12 23  2  0
  7 24  2  0
 24 25  1  0
 25 26  2  0
 26 27  1  0
 26  5  1  0
 23  8  1  0
 22 18  2  0
  1 28  1  0
  6 29  1  0
  9 30  1  0
 10 31  1  0
 11 32  1  0
 13 33  1  0
 13 34  1  0
 14 35  1  0
 17 36  1  0
 17 37  1  0
 19 38  1  0
 20 39  1  0
 22 40  1  0
 23 41  1  0
 24 42  1  0
 25 43  1  0
M  CHG  2   1  -1  27  -1
M  END
>  <UniqueID>  (46) 
46

>  <SMILES>  (46) 
[NH-]S(=O)(=O)c1cc(-c2cccc(CNC(=O)Cc3ccoc3)c2)ccc1[O-]

>  <Energy>  (46) 
69.22180134712771

>  <Genealogy>  (46) 
[NH-]S(=O)(=O)c1cc(-c2cccc(CNC(=O)Cc3ccoc3)c2)ccc1[O-] (protonated)
[NH-]S(=O)(=O)c1cc(-c2cccc(CNC(=O)Cc3ccoc3)c2)ccc1[O-] (3D coordinates assigned)
[NH-]S(=O)(=O)c1cc(-c2cccc(CNC(=O)Cc3ccoc3)c2)ccc1[O-] (optimized conformer: 69.22180134712771 kcal/mol)

>  <smiles>  (46) 
NS(=O)(=O)c1cc(-c2cccc(CNC(=O)Cc3ccoc3)c2)ccc1O

>  <score_type>  (46) 
oracle

>  <origin>  (46) 
adg

>  <m_score__min__energy>  (46) 
-13.26

>  <m_primary>  (46) 
energy

$$$$
46:0
     RDKit          3D

 60 63  0  0  0  0  0  0  0  0999 V2000
   56.1140   31.0370   44.4680 O   0  0  0  0  0  0  0  0  0  0  0  0
   57.3200   30.6810   44.5510 C   0  0  0  0  0  0  0  0  0  0  0  0
   58.3590   31.5640   44.0990 N   0  0  0  0  0  0  0  0  0  0  0  0
   58.0570   32.9410   43.7120 C   0  0  0  0  0  0  0  0  0  0  0  0
   57.7560   33.7860   44.9170 C   0  0  0  0  0  0  0  0  0  0  0  0
   56.7360   34.5240   44.9190 O   0  0  0  0  0  0  0  0  0  0  0  0
   58.6290   33.7800   46.0520 N   0  0  0  0  0  0  0  0  0  0  0  0
   60.0760   33.8310   45.9630 C   0  0  0  0  0  0  0  0  0  0  0  0
   60.5650   33.8660   47.4040 C   0  0  0  0  0  0  0  0  0  0  0  0
   59.3850   33.4220   48.2690 C   0  0  0  0  0  0  0  0  0  0  0  0
   58.1440   33.4980   47.3870 C   0  0  0  0  0  0  0  0  0  0  0  0
   57.6450   29.3560   45.1260 C   0  0  0  0  0  0  0  0  0  0  0  0
   56.6750   28.3520   45.1220 C   0  0  0  0  0  0  0  0  0  0  0  0
   56.9750   27.0990   45.6650 C   0  0  0  0  0  0  0  0  0  0  0  0
   55.9950   25.9980   45.6610 C   0  0  0  0  0  0  0  0  0  0  0  0
   54.8050   26.2370   45.9910 O   0  0  0  0  0  0  0  0  0  0  0  0
   56.3570   24.6750   45.2300 N   0  0  0  0  0  0  0  0  0  0  0  0
   55.8930   23.4930   45.9570 C   0  0  0  0  0  0  0  0  0  0  0  0
   55.2050   22.5390   44.9720 C   0  0  0  0  0  0  0  0  0  0  0  0
   56.0410   22.2670   43.8600 O   0  0  0  0  0  0  0  0  0  0  0  0
   56.2780   23.4610   43.1280 C   0  0  0  0  0  0  0  0  0  0  0  0
   57.0780   24.4550   43.9730 C   0  0  0  0  0  0  0  0  0  0  0  0
   58.2090   26.8860   46.1890 N   0  0  0  0  0  0  0  0  0  0  0  0
   59.1450   27.8400   46.2270 N   0  0  0  0  0  0  0  0  0  0  0  0
   60.4450   27.5090   46.8140 C   0  0  0  0  0  0  0  0  0  0  0  0
   60.4920   27.9440   48.2540 C   0  0  0  0  0  0  0  0  0  0  0  0
   60.7740   27.0150   49.2710 C   0  0  0  0  0  0  0  0  0  0  0  0
   60.8000   27.4230   50.6080 C   0  0  0  0  0  0  0  0  0  0  0  0
   60.5220   28.7500   50.9430 C   0  0  0  0  0  0  0  0  0  0  0  0
   60.5340   29.1390   52.2420 F   0  0  0  0  0  0  0  0  0  0  0  0
   60.2300   29.6760   49.9370 C   0  0  0  0  0  0  0  0  0  0  0  0
   60.2150   29.2780   48.5960 C   0  0  0  0  0  0  0  0  0  0  0  0
   58.8960   29.0820   45.7090 C   0  0  0  0  0  0  0  0  0  0  0  0
   59.7780   29.9870   45.7750 O   0  0  0  0  0  0  0  0  0  0  0  0
   59.3190   31.1830   43.9520 H   0  0  0  0  0  0  0  0  0  0  0  0
   58.9239   33.3643   43.1834 H   0  0  0  0  0  0  0  0  0  0  0  0
   57.1720   32.9350   43.0587 H   0  0  0  0  0  0  0  0  0  0  0  0
   60.4621   32.9399   45.4465 H   0  0  0  0  0  0  0  0  0  0  0  0
   60.4216   34.7047   45.3909 H   0  0  0  0  0  0  0  0  0  0  0  0
   61.4133   33.1781   47.5351 H   0  0  0  0  0  0  0  0  0  0  0  0
   60.9099   34.8721   47.6846 H   0  0  0  0  0  0  0  0  0  0  0  0
   59.5386   32.3908   48.6197 H   0  0  0  0  0  0  0  0  0  0  0  0
   59.2805   34.0638   49.1562 H   0  0  0  0  0  0  0  0  0  0  0  0
   57.6021   32.5409   47.4040 H   0  0  0  0  0  0  0  0  0  0  0  0
   57.4441   34.2713   47.7366 H   0  0  0  0  0  0  0  0  0  0  0  0
   55.6803   28.5456   44.6941 H   0  0  0  0  0  0  0  0  0  0  0  0
   56.7510   22.9863   46.4230 H   0  0  0  0  0  0  0  0  0  0  0  0
   55.1823   23.7940   46.7408 H   0  0  0  0  0  0  0  0  0  0  0  0
   54.9737   21.5952   45.4875 H   0  0  0  0  0  0  0  0  0  0  0  0
   54.2827   23.0158   44.6086 H   0  0  0  0  0  0  0  0  0  0  0  0
   56.8455   23.2209   42.2168 H   0  0  0  0  0  0  0  0  0  0  0  0
   55.3116   23.9148   42.8629 H   0  0  0  0  0  0  0  0  0  0  0  0
   58.0766   24.0447   44.1839 H   0  0  0  0  0  0  0  0  0  0  0  0
   57.1944   25.4053   43.4314 H   0  0  0  0  0  0  0  0  0  0  0  0
   60.6027   26.4218   46.7577 H   0  0  0  0  0  0  0  0  0  0  0  0
   61.2345   28.0329   46.2553 H   0  0  0  0  0  0  0  0  0  0  0  0
   60.9747   25.9644   49.0141 H   0  0  0  0  0  0  0  0  0  0  0  0
   61.0401   26.6967   51.3984 H   0  0  0  0  0  0  0  0  0  0  0  0
   60.0113   30.7212   50.2009 H   0  0  0  0  0  0  0  0  0  0  0  0
   59.9860   30.0107   47.8082 H   0  0  0  0  0  0  0  0  0  0  0  0
  1  2  2  0
  2  3  1  0
  3  4  1  0
  4  5  1  0
  5  6  2  0
  5  7  1  0
  7  8  1  0
  8  9  1  0
  9 10  1  0
 10 11  1  0
  2 12  1  0
 12 13  2  0
 13 14  1  0
 14 15  1  0
 15 16  2  0
 15 17  1  0
 17 18  1  0
 18 19  1  0
 19 20  1  0
 20 21  1  0
 21 22  1  0
 14 23  2  0
 23 24  1  0
 24 25  1  0
 25 26  1  0
 26 27  2  0
 27 28  1  0
 28 29  2  0
 29 30  1  0
 29 31  1  0
 31 32  2  0
 24 33  1  0
 33 34  2  0
 11  7  1  0
 33 12  1  0
 22 17  1  0
 32 26  1  0
  3 35  1  0
  4 36  1  0
  4 37  1  0
  8 38  1  0
  8 39  1  0
  9 40  1  0
  9 41  1  0
 10 42  1  0
 10 43  1  0
 11 44  1  0
 11 45  1  0
 13 46  1  0
 18 47  1  0
 18 48  1  0
 19 49  1  0
 19 50  1  0
 21 51  1  0
 21 52  1  0
 22 53  1  0
 22 54  1  0
 25 55  1  0
 25 56  1  0
 27 57  1  0
 28 58  1  0
 31 59  1  0
 32 60  1  0
M  END
>  <UniqueID>  (47) 
47

>  <SMILES>  (47) 
O=C(NCC(=O)N1CCCC1)c1cc(C(=O)N2CCOCC2)nn(Cc2ccc(F)cc2)c1=O

>  <Energy>  (47) 
73.39410674006055

>  <Genealogy>  (47) 
O=C(NCC(=O)N1CCCC1)c1cc(C(=O)N2CCOCC2)nn(Cc2ccc(F)cc2)c1=O (3D coordinates assigned)
O=C(NCC(=O)N1CCCC1)c1cc(C(=O)N2CCOCC2)nn(Cc2ccc(F)cc2)c1=O (nonaromatic ring conformer: 73.39410674006055 kcal/mol)

>  <smiles>  (47) 
O=C(NCC(=O)N1CCCC1)c1cc(C(=O)N2CCOCC2)nn(Cc2ccc(F)cc2)c1=O

>  <score_type>  (47) 
oracle

>  <origin>  (47) 
adg

>  <m_score__min__energy>  (47) 
-9.25

>  <m_primary>  (47) 
energy

$$$$
47:0
     RDKit          3D

 43 45  0  0  0  0  0  0  0  0999 V2000
   60.9918   30.1179   45.1509 H   0  0  0  0  0  0  0  0  0  0  0  0
   60.2330   29.3230   45.1990 C   0  0  0  0  0  0  0  0  0  0  0  0
   59.9610   28.7665   44.2900 H   0  0  0  0  0  0  0  0  0  0  0  0
   59.6390   29.0320   46.3670 C   0  0  0  0  0  0  0  0  0  0  0  0
   58.6570   28.0550   46.6060 C   0  0  0  0  0  0  0  0  0  0  0  0
   58.1720   27.0750   45.8210 C   0  0  0  0  0  0  0  0  0  0  0  0
   58.3487   27.1642   44.7390 H   0  0  0  0  0  0  0  0  0  0  0  0
   57.4260   25.8950   46.2850 C   0  0  0  0  0  0  0  0  0  0  0  0
   57.9870   24.8070   46.8430 N   0  0  0  0  0  0  0  0  0  0  0  0
   56.9210   24.0700   47.2260 C   0  0  0  0  0  0  0  0  0  0  0  0
   57.0380   22.9510   47.7890 O   0  0  0  0  0  0  0  0  0  0  0  0
   55.7210   24.6360   46.9730 N   0  0  0  0  0  0  0  0  0  0  0  0
   56.0610   25.7970   46.3890 C   0  0  0  0  0  0  0  0  0  0  0  0
   55.1410   26.7470   45.9650 O   0  0  0  0  0  0  0  0  0  0  0  0
   58.2120   28.2630   47.9030 C   0  0  0  0  0  0  0  0  0  0  0  0
   57.4237   27.6989   48.4230 H   0  0  0  0  0  0  0  0  0  0  0  0
   58.9460   29.3120   48.4170 C   0  0  0  0  0  0  0  0  0  0  0  0
   58.8770   29.7720   49.8420 C   0  0  0  0  0  0  0  0  0  0  0  0
   59.0064   28.9095   50.5124 H   0  0  0  0  0  0  0  0  0  0  0  0
   59.6752   30.5052   50.0297 H   0  0  0  0  0  0  0  0  0  0  0  0
   57.8988   30.2388   50.0297 H   0  0  0  0  0  0  0  0  0  0  0  0
   59.8100   29.7750   47.4890 N   0  0  0  0  0  0  0  0  0  0  0  0
   60.6940   30.8960   47.6460 C   0  0  0  0  0  0  0  0  0  0  0  0
   61.9350   30.6840   47.7230 O   0  0  0  0  0  0  0  0  0  0  0  0
   60.1860   32.2490   47.6760 N   0  0  0  0  0  0  0  0  0  0  0  0
   61.1180   33.3450   47.9610 C   0  0  0  0  0  0  0  0  0  0  0  0
   61.2204   33.4655   49.0496 H   0  0  0  0  0  0  0  0  0  0  0  0
   62.1005   33.1139   47.5236 H   0  0  0  0  0  0  0  0  0  0  0  0
   60.7321   34.2776   47.5236 H   0  0  0  0  0  0  0  0  0  0  0  0
   58.7650   32.5410   47.4200 C   0  0  0  0  0  0  0  0  0  0  0  0
   58.1456   31.8117   47.9626 H   0  0  0  0  0  0  0  0  0  0  0  0
   58.5524   33.5637   47.7647 H   0  0  0  0  0  0  0  0  0  0  0  0
   58.4470   32.4580   45.9500 C   0  0  0  0  0  0  0  0  0  0  0  0
   58.8490   33.4820   45.0770 C   0  0  0  0  0  0  0  0  0  0  0  0
   59.4326   34.3313   45.4620 H   0  0  0  0  0  0  0  0  0  0  0  0
   58.5120   33.4280   43.7230 C   0  0  0  0  0  0  0  0  0  0  0  0
   58.8175   34.2419   43.0490 H   0  0  0  0  0  0  0  0  0  0  0  0
   57.7870   32.3420   43.2210 C   0  0  0  0  0  0  0  0  0  0  0  0
   57.3570   32.3220   41.5160 Cl  0  0  0  0  0  0  0  0  0  0  0  0
   57.4100   31.2970   44.0800 C   0  0  0  0  0  0  0  0  0  0  0  0
   56.5000   29.9130   43.4870 Cl  0  0  0  0  0  0  0  0  0  0  0  0
   57.7480   31.3540   45.4370 C   0  0  0  0  0  0  0  0  0  0  0  0
   57.4640   30.5282   46.1059 H   0  0  0  0  0  0  0  0  0  0  0  0
  1  2  1  0
  2  3  1  0
  2  4  2  0
  4  5  1  0
  5  6  2  0
  6  7  1  0
  6  8  1  0
  8  9  1  0
  9 10  1  0
 10 11  2  0
 10 12  1  0
 12 13  1  0
 13 14  1  0
  5 15  1  0
 15 16  1  0
 15 17  2  0
 17 18  1  0
 18 19  1  0
 18 20  1  0
 18 21  1  0
 17 22  1  0
 22 23  1  0
 23 24  2  0
 23 25  1  0
 25 26  1  0
 26 27  1  0
 26 28  1  0
 26 29  1  0
 25 30  1  0
 30 31  1  0
 30 32  1  0
 30 33  1  0
 33 34  2  0
 34 35  1  0
 34 36  1  0
 36 37  1  0
 36 38  2  0
 38 39  1  0
 38 40  1  0
 40 41  1  0
 40 42  2  0
 42 43  1  0
 22  4  1  0
 42 33  1  0
 13  8  2  0
M  CHG  3   9  -1  12  -1  14  -1
M  END
>  <UniqueID>  (48) 
48

>  <SMILES>  (48) 
C=c1/c(=C\c2[n-]c(=O)[n-]c2[O-])cc(C)n1C(=O)N(C)Cc1ccc(Cl)c(Cl)c1

>  <Energy>  (48) 
114.45633302200113

>  <Genealogy>  (48) 
C=c1c(=Cc2[n-]c(=O)[n-]c2[O-])cc(C)n1C(=O)N(C)Cc1ccc(Cl)c(Cl)c1 (protonated)
C=c1/c(=C\c2[n-]c(=O)[n-]c2[O-])cc(C)n1C(=O)N(C)Cc1ccc(Cl)c(Cl)c1 (cis-trans isomerization)
C=c1/c(=C\c2[n-]c(=O)[n-]c2[O-])cc(C)n1C(=O)N(C)Cc1ccc(Cl)c(Cl)c1 (3D coordinates assigned)
C=c1/c(=C\c2[n-]c(=O)[n-]c2[O-])cc(C)n1C(=O)N(C)Cc1ccc(Cl)c(Cl)c1 (optimized conformer: 114.45633302200113 kcal/mol)

>  <smiles>  (48) 
C=c1c(=Cc2[nH]c(=O)[nH]c2O)cc(C)n1C(=O)N(C)Cc1ccc(Cl)c(Cl)c1

>  <score_type>  (48) 
oracle

>  <origin>  (48) 
adg

>  <m_score__min__energy>  (48) 
-16.75

>  <m_primary>  (48) 
energy

$$$$
48:0
     RDKit          3D

 54 58  0  0  0  0  0  0  0  0999 V2000
   58.2710   31.6430   46.9540 N   0  0  0  0  0  0  0  0  0  0  0  0
   57.9140   32.5990   45.9490 C   0  0  0  0  0  0  0  0  0  0  0  0
   57.8330   33.8170   46.2670 O   0  0  0  0  0  0  0  0  0  0  0  0
   57.6860   32.1970   44.5390 C   0  0  0  0  0  0  0  0  0  0  0  0
   58.1210   33.0580   43.5140 C   0  0  0  0  0  0  0  0  0  0  0  0
   57.9310   32.7210   42.1730 C   0  0  0  0  0  0  0  0  0  0  0  0
   57.3030   31.5230   41.8330 C   0  0  0  0  0  0  0  0  0  0  0  0
   56.8480   30.6650   42.8360 C   0  0  0  0  0  0  0  0  0  0  0  0
   57.0100   31.0010   44.1960 C   0  0  0  0  0  0  0  0  0  0  0  0
   56.5170   30.1270   45.2260 N   0  0  0  0  0  0  0  0  0  0  0  0
   57.2550   29.0540   45.8210 C   0  0  0  0  0  0  0  0  0  0  0  0
   57.7110   29.1680   46.9960 O   0  0  0  0  0  0  0  0  0  0  0  0
   57.4650   27.7880   45.0480 C   0  0  0  0  0  0  0  0  0  0  0  0
   57.0130   26.6110   45.8700 C   0  0  0  0  0  0  0  0  0  0  0  0
   55.9860   25.8130   45.5210 N   0  0  0  0  0  0  0  0  0  0  0  0
   55.9000   24.9440   46.5560 C   0  0  0  0  0  0  0  0  0  0  0  0
   55.0490   24.0180   46.5970 O   0  0  0  0  0  0  0  0  0  0  0  0
   56.7990   25.1460   47.5420 N   0  0  0  0  0  0  0  0  0  0  0  0
   57.5010   26.2090   47.1040 C   0  0  0  0  0  0  0  0  0  0  0  0
   58.6410   26.8140   47.8700 C   0  0  0  0  0  0  0  0  0  0  0  0
   60.1830   26.7600   46.8900 S   0  0  0  0  0  0  0  0  0  0  0  0
   60.4240   28.5430   46.8880 C   0  0  0  0  0  0  0  0  0  0  0  0
   60.2630   29.2520   45.7560 N   0  0  0  0  0  0  0  0  0  0  0  0
   60.5630   30.5090   46.0340 N   0  0  0  0  0  0  0  0  0  0  0  0
   60.9250   30.5520   47.3290 C   0  0  0  0  0  0  0  0  0  0  0  0
   61.3820   31.8010   47.9780 C   0  0  0  0  0  0  0  0  0  0  0  0
   62.5800   32.4110   47.5810 C   0  0  0  0  0  0  0  0  0  0  0  0
   62.9950   33.6000   48.1840 C   0  0  0  0  0  0  0  0  0  0  0  0
   62.2020   34.1820   49.1740 C   0  0  0  0  0  0  0  0  0  0  0  0
   61.0300   33.5940   49.5360 N   0  0  0  0  0  0  0  0  0  0  0  0
   60.6000   32.4360   48.9640 C   0  0  0  0  0  0  0  0  0  0  0  0
   59.5070   31.9380   49.3340 O   0  0  0  0  0  0  0  0  0  0  0  0
   60.8480   29.3310   47.9190 N   0  0  0  0  0  0  0  0  0  0  0  0
   61.1570   29.0730   49.3430 C   0  0  0  0  0  0  0  0  0  0  0  0
   60.7460   27.6950   49.8330 C   0  0  0  0  0  0  0  0  0  0  0  0
   60.0210   28.9350   50.3450 C   0  0  0  0  0  0  0  0  0  0  0  0
   58.5310   30.6650   46.7000 H   0  0  0  0  0  0  0  0  0  0  0  0
   58.4020   31.9500   47.9450 H   0  0  0  0  0  0  0  0  0  0  0  0
   58.6156   34.0059   43.7724 H   0  0  0  0  0  0  0  0  0  0  0  0
   58.2776   33.4023   41.3819 H   0  0  0  0  0  0  0  0  0  0  0  0
   57.1663   31.2543   40.7751 H   0  0  0  0  0  0  0  0  0  0  0  0
   56.3587   29.7184   42.5630 H   0  0  0  0  0  0  0  0  0  0  0  0
   56.8828   27.8280   44.1156 H   0  0  0  0  0  0  0  0  0  0  0  0
   58.5337   27.6784   44.8117 H   0  0  0  0  0  0  0  0  0  0  0  0
   58.4008   27.8610   48.1070 H   0  0  0  0  0  0  0  0  0  0  0  0
   58.7904   26.2366   48.7943 H   0  0  0  0  0  0  0  0  0  0  0  0
   63.1946   31.9519   46.7926 H   0  0  0  0  0  0  0  0  0  0  0  0
   63.9400   34.0745   47.8810 H   0  0  0  0  0  0  0  0  0  0  0  0
   62.5241   35.1144   49.6607 H   0  0  0  0  0  0  0  0  0  0  0  0
   62.0701   29.6862   49.3288 H   0  0  0  0  0  0  0  0  0  0  0  0
   60.2330   26.9995   49.1525 H   0  0  0  0  0  0  0  0  0  0  0  0
   61.2680   26.8489   50.3038 H   0  0  0  0  0  0  0  0  0  0  0  0
   58.9851   29.1348   50.0337 H   0  0  0  0  0  0  0  0  0  0  0  0
   59.8030   29.3553   51.3379 H   0  0  0  0  0  0  0  0  0  0  0  0
  1  2  1  0
  2  3  2  0
  2  4  1  0
  4  5  2  0
  5  6  1  0
  6  7  2  0
  7  8  1  0
  8  9  2  0
  9 10  1  0
 10 11  1  0
 11 12  2  0
 11 13  1  0
 13 14  1  0
 14 15  1  0
 15 16  1  0
 16 17  2  0
 16 18  1  0
 18 19  1  0
 19 20  1  0
 20 21  1  0
 21 22  1  0
 22 23  2  0
 23 24  1  0
 24 25  2  0
 25 26  1  0
 26 27  2  0
 27 28  1  0
 28 29  2  0
 29 30  1  0
 30 31  1  0
 31 32  2  0
 25 33  1  0
 33 34  1  0
 34 35  1  0
 35 36  1  0
  9  4  1  0
 19 14  2  0
 33 22  1  0
 36 34  1  0
 31 26  1  0
  1 37  1  0
  1 38  1  0
  5 39  1  0
  6 40  1  0
  7 41  1  0
  8 42  1  0
 13 43  1  0
 13 44  1  0
 20 45  1  0
 20 46  1  0
 27 47  1  0
 28 48  1  0
 29 49  1  0
 34 50  1  0
 35 51  1  0
 35 52  1  0
 36 53  1  0
 36 54  1  0
M  CHG  4  10  -1  15  -1  18  -1  30  -1
M  END
>  <UniqueID>  (49) 
49

>  <SMILES>  (49) 
NC(=O)c1ccccc1[N-]C(=O)Cc1[n-]c(=O)[n-]c1CSc1nnc(-c2ccc[n-]c2=O)n1C1CC1

>  <Energy>  (49) 
403.25332756178915

>  <Genealogy>  (49) 
NC(=O)c1ccccc1[N-]C(=O)Cc1[n-]c(=O)[n-]c1CSc1nnc(-c2ccc[n-]c2=O)n1C1CC1 (protonated)
NC(=O)c1ccccc1[N-]C(=O)Cc1[n-]c(=O)[n-]c1CSc1nnc(-c2ccc[n-]c2=O)n1C1CC1 (3D coordinates assigned)
NC(=O)c1ccccc1[N-]C(=O)Cc1[n-]c(=O)[n-]c1CSc1nnc(-c2ccc[n-]c2=O)n1C1CC1 (nonaromatic ring conformer: 403.25332756178915 kcal/mol)

>  <smiles>  (49) 
NC(=O)c1ccccc1NC(=O)Cc1[nH]c(=O)[nH]c1CSc1nnc(-c2ccc[nH]c2=O)n1C1CC1

>  <score_type>  (49) 
oracle

>  <origin>  (49) 
adg

>  <m_score__min__energy>  (49) 
-15.35

>  <m_primary>  (49) 
energy

$$$$
49:0
     RDKit          3D

 34 36  0  0  0  0  0  0  0  0999 V2000
   55.0060   30.7275   43.7615 H   0  0  0  0  0  0  0  0  0  0  0  0
   55.7980   30.0930   44.1860 C   0  0  0  0  0  0  0  0  0  0  0  0
   55.5320   28.9520   44.8770 N   0  0  0  0  0  0  0  0  0  0  0  0
   56.6640   28.3470   45.3000 C   0  0  0  0  0  0  0  0  0  0  0  0
   56.6380   27.2580   46.0110 N   0  0  0  0  0  0  0  0  0  0  0  0
   55.9160   26.0590   45.6920 C   0  0  0  0  0  0  0  0  0  0  0  0
   54.6620   26.0580   45.8210 O   0  0  0  0  0  0  0  0  0  0  0  0
   56.5890   24.8490   45.1620 C   0  0  0  0  0  0  0  0  0  0  0  0
   56.0120   24.1460   44.0890 C   0  0  0  0  0  0  0  0  0  0  0  0
   55.0680   24.4993   43.6485 H   0  0  0  0  0  0  0  0  0  0  0  0
   56.6310   23.0010   43.5790 C   0  0  0  0  0  0  0  0  0  0  0  0
   56.1685   22.4518   42.7456 H   0  0  0  0  0  0  0  0  0  0  0  0
   57.8360   22.5530   44.1260 C   0  0  0  0  0  0  0  0  0  0  0  0
   58.3191   21.6491   43.7265 H   0  0  0  0  0  0  0  0  0  0  0  0
   58.4270   23.2530   45.1800 C   0  0  0  0  0  0  0  0  0  0  0  0
   59.3781   22.9013   45.6062 H   0  0  0  0  0  0  0  0  0  0  0  0
   57.8140   24.4000   45.6960 C   0  0  0  0  0  0  0  0  0  0  0  0
   58.4320   25.0820   46.6940 F   0  0  0  0  0  0  0  0  0  0  0  0
   58.0440   29.2160   44.8590 S   0  0  0  0  0  0  0  0  0  0  0  0
   57.1510   30.3950   44.0580 C   0  0  0  0  0  0  0  0  0  0  0  0
   57.7160   31.6240   43.4220 C   0  0  0  0  0  0  0  0  0  0  0  0
   58.5811   31.3478   42.8013 H   0  0  0  0  0  0  0  0  0  0  0  0
   56.9426   32.0946   42.7971 H   0  0  0  0  0  0  0  0  0  0  0  0
   58.1540   32.5980   44.4810 C   0  0  0  0  0  0  0  0  0  0  0  0
   58.6610   33.8570   44.1210 C   0  0  0  0  0  0  0  0  0  0  0  0
   58.7105   34.1454   43.0606 H   0  0  0  0  0  0  0  0  0  0  0  0
   59.1030   34.7450   45.1060 C   0  0  0  0  0  0  0  0  0  0  0  0
   59.4934   35.7326   44.8192 H   0  0  0  0  0  0  0  0  0  0  0  0
   59.0500   34.3810   46.4540 C   0  0  0  0  0  0  0  0  0  0  0  0
   59.3952   35.0830   47.2273 H   0  0  0  0  0  0  0  0  0  0  0  0
   58.5580   33.1240   46.8200 C   0  0  0  0  0  0  0  0  0  0  0  0
   58.5040   32.6630   48.5120 Cl  0  0  0  0  0  0  0  0  0  0  0  0
   58.1160   32.2320   45.8380 C   0  0  0  0  0  0  0  0  0  0  0  0
   57.7374   31.2408   46.1281 H   0  0  0  0  0  0  0  0  0  0  0  0
  1  2  1  0
  2  3  1  0
  3  4  1  0
  4  5  2  0
  5  6  1  0
  6  7  2  0
  6  8  1  0
  8  9  2  0
  9 10  1  0
  9 11  1  0
 11 12  1  0
 11 13  2  0
 13 14  1  0
 13 15  1  0
 15 16  1  0
 15 17  2  0
 17 18  1  0
  4 19  1  0
 19 20  1  0
 20 21  1  0
 21 22  1  0
 21 23  1  0
 21 24  1  0
 24 25  2  0
 25 26  1  0
 25 27  1  0
 27 28  1  0
 27 29  2  0
 29 30  1  0
 29 31  1  0
 31 32  1  0
 31 33  2  0
 33 34  1  0
 20  2  2  0
 33 24  1  0
 17  8  1  0
M  CHG  1   3  -1
M  END
>  <UniqueID>  (50) 
50

>  <SMILES>  (50) 
O=C(/N=c1/[n-]cc(Cc2cccc(Cl)c2)s1)c1ccccc1F

>  <Energy>  (50) 
74.33750387923783

>  <Genealogy>  (50) 
O=C(N=c1[n-]cc(Cc2cccc(Cl)c2)s1)c1ccccc1F (protonated)
O=C(/N=c1/[n-]cc(Cc2cccc(Cl)c2)s1)c1ccccc1F (cis-trans isomerization)
O=C(/N=c1/[n-]cc(Cc2cccc(Cl)c2)s1)c1ccccc1F (3D coordinates assigned)
O=C(/N=c1/[n-]cc(Cc2cccc(Cl)c2)s1)c1ccccc1F (optimized conformer: 74.33750387923783 kcal/mol)

>  <smiles>  (50) 
O=C(N=c1[nH]cc(Cc2cccc(Cl)c2)s1)c1ccccc1F

>  <score_type>  (50) 
oracle

>  <origin>  (50) 
adg

>  <m_score__min__energy>  (50) 
-10.869999999999999

>  <m_primary>  (50) 
energy

$$$$
50:0
     RDKit          3D

 34 36  0  0  0  0  0  0  0  0999 V2000
   55.6810   29.8880   43.2830 C   0  0  0  0  0  0  0  0  0  0  0  0
   56.6000   29.6460   44.2180 C   0  0  0  0  0  0  0  0  0  0  0  0
   56.6710   28.4890   44.9030 N   0  0  0  0  0  0  0  0  0  0  0  0
   57.7020   28.6010   45.7700 C   0  0  0  0  0  0  0  0  0  0  0  0
   58.0310   27.6190   46.6280 C   0  0  0  0  0  0  0  0  0  0  0  0
   57.5170   26.2310   46.5800 C   0  0  0  0  0  0  0  0  0  0  0  0
   58.2690   25.1220   46.7040 N   0  0  0  0  0  0  0  0  0  0  0  0
   57.3850   24.1160   46.5340 C   0  0  0  0  0  0  0  0  0  0  0  0
   57.7190   22.9040   46.5870 O   0  0  0  0  0  0  0  0  0  0  0  0
   56.1170   24.5130   46.3000 N   0  0  0  0  0  0  0  0  0  0  0  0
   56.2140   25.8530   46.3270 C   0  0  0  0  0  0  0  0  0  0  0  0
   55.1230   26.6960   46.1300 O   0  0  0  0  0  0  0  0  0  0  0  0
   58.2960   29.8510   45.6380 C   0  0  0  0  0  0  0  0  0  0  0  0
   57.6000   30.5120   44.6420 C   0  0  0  0  0  0  0  0  0  0  0  0
   57.8390   31.9350   44.2190 C   0  0  0  0  0  0  0  0  0  0  0  0
   58.4200   32.7280   45.3580 C   0  0  0  0  0  0  0  0  0  0  0  0
   59.3230   33.7760   45.1120 C   0  0  0  0  0  0  0  0  0  0  0  0
   59.8360   34.5280   46.1740 C   0  0  0  0  0  0  0  0  0  0  0  0
   59.4480   34.2440   47.4860 C   0  0  0  0  0  0  0  0  0  0  0  0
   58.5450   33.2070   47.7400 C   0  0  0  0  0  0  0  0  0  0  0  0
   58.1660   32.9350   49.0130 F   0  0  0  0  0  0  0  0  0  0  0  0
   58.0300   32.4520   46.6800 C   0  0  0  0  0  0  0  0  0  0  0  0
   55.6732   30.8537   42.7564 H   0  0  0  0  0  0  0  0  0  0  0  0
   54.9305   29.1220   43.0382 H   0  0  0  0  0  0  0  0  0  0  0  0
   56.0400   27.6620   44.7910 H   0  0  0  0  0  0  0  0  0  0  0  0
   58.7402   27.8672   47.4314 H   0  0  0  0  0  0  0  0  0  0  0  0
   54.3230   26.6900   46.7490 H   0  0  0  0  0  0  0  0  0  0  0  0
   59.1507   30.2380   46.2122 H   0  0  0  0  0  0  0  0  0  0  0  0
   58.5409   31.9488   43.3721 H   0  0  0  0  0  0  0  0  0  0  0  0
   56.8806   32.3856   43.9217 H   0  0  0  0  0  0  0  0  0  0  0  0
   59.6277   34.0059   44.0803 H   0  0  0  0  0  0  0  0  0  0  0  0
   60.5461   35.3444   45.9760 H   0  0  0  0  0  0  0  0  0  0  0  0
   59.8532   34.8365   48.3195 H   0  0  0  0  0  0  0  0  0  0  0  0
   57.3170   31.6392   46.8823 H   0  0  0  0  0  0  0  0  0  0  0  0
  1  2  2  0
  2  3  1  0
  3  4  1  0
  4  5  2  3
  5  6  1  0
  6  7  1  0
  7  8  1  0
  8  9  2  0
  8 10  1  0
 10 11  1  0
 11 12  1  0
  4 13  1  0
 13 14  2  0
 14 15  1  0
 15 16  1  0
 16 17  2  0
 17 18  1  0
 18 19  2  0
 19 20  1  0
 20 21  1  0
 20 22  2  0
 14  2  1  0
 22 16  1  0
 11  6  2  0
  1 23  1  0
  1 24  1  0
  3 25  1  0
  5 26  1  0
 12 27  1  0
 13 28  1  0
 15 29  1  0
 15 30  1  0
 17 31  1  0
 18 32  1  0
 19 33  1  0
 22 34  1  0
M  CHG  2   7  -1  10  -1
M  END
>  <UniqueID>  (51) 
51

>  <SMILES>  (51) 
C=c1[nH]c(=Cc2[n-]c(=O)[n-]c2O)cc1Cc1cccc(F)c1

>  <Energy>  (51) 
93.10510151540399

>  <Genealogy>  (51) 
C=c1[nH]c(=Cc2[n-]c(=O)[n-]c2O)cc1Cc1cccc(F)c1 (protonated)
C=c1[nH]c(=Cc2[n-]c(=O)[n-]c2O)cc1Cc1cccc(F)c1 (3D coordinates assigned)
C=c1[nH]c(=Cc2[n-]c(=O)[n-]c2O)cc1Cc1cccc(F)c1 (optimized conformer: 93.10510151540399 kcal/mol)

>  <smiles>  (51) 
C=c1[nH]c(=Cc2[nH]c(=O)[nH]c2O)cc1Cc1cccc(F)c1

>  <score_type>  (51) 
oracle

>  <origin>  (51) 
adg

>  <m_score__min__energy>  (51) 
-12.75

>  <m_primary>  (51) 
energy

$$$$
51:0
     RDKit          3D

 61 64  0  0  0  0  0  0  0  0999 V2000
   55.1910   22.2000   47.0380 C   0  0  0  0  0  0  0  0  0  0  0  0
   56.6080   22.0370   47.4960 C   0  0  0  0  0  0  0  0  0  0  0  0
   57.0390   22.7540   48.4380 O   0  0  0  0  0  0  0  0  0  0  0  0
   57.4880   21.0880   46.8830 N   0  0  0  0  0  0  0  0  0  0  0  0
   57.1640   20.3330   45.6770 C   0  0  0  0  0  0  0  0  0  0  0  0
   57.5210   21.1550   44.4360 C   0  0  2  0  0  0  0  0  0  0  0  0
   58.1510   22.5340   44.7990 C   0  0  0  0  0  0  0  0  0  0  0  0
   57.2660   23.5290   44.2030 N   0  0  0  0  0  0  0  0  0  0  0  0
   57.4190   24.9550   44.2880 C   0  0  0  0  0  0  0  0  0  0  0  0
   57.7690   25.6980   43.1490 C   0  0  0  0  0  0  0  0  0  0  0  0
   57.9160   27.0860   43.2330 C   0  0  0  0  0  0  0  0  0  0  0  0
   57.7000   27.7590   44.4510 C   0  0  0  0  0  0  0  0  0  0  0  0
   57.8360   29.1950   44.5160 N   0  0  0  0  0  0  0  0  0  0  0  0
   58.8480   29.7870   45.4080 C   0  0  0  0  0  0  0  0  0  0  0  0
   58.9610   31.3020   45.2200 C   0  0  0  0  0  0  0  0  0  0  0  0
   57.6260   31.8980   45.1000 N   0  0  0  0  0  0  0  0  0  0  0  0
   57.3270   33.1450   45.7520 C   0  0  0  0  0  0  0  0  0  0  0  0
   56.7850   34.0750   45.1010 O   0  0  0  0  0  0  0  0  0  0  0  0
   57.6580   33.3650   47.1290 N   0  0  0  0  0  0  0  0  0  0  0  0
   58.9860   33.4400   47.6690 C   0  0  0  0  0  0  0  0  0  0  0  0
   60.0590   33.9500   46.9180 C   0  0  0  0  0  0  0  0  0  0  0  0
   61.3450   33.9950   47.4630 C   0  0  0  0  0  0  0  0  0  0  0  0
   61.5790   33.5140   48.7560 C   0  0  0  0  0  0  0  0  0  0  0  0
   63.2050   33.5480   49.4270 S   0  0  0  0  0  0  0  0  0  0  0  0
   63.5550   32.0170   50.1520 N   0  0  0  0  0  0  0  0  0  0  0  0
   64.1990   33.8300   48.3340 O   0  0  0  0  0  0  0  0  0  0  0  0
   63.3090   34.6320   50.4650 O   0  0  0  0  0  0  0  0  0  0  0  0
   60.5180   32.9690   49.4930 C   0  0  0  0  0  0  0  0  0  0  0  0
   59.2300   32.9310   48.9490 C   0  0  0  0  0  0  0  0  0  0  0  0
   56.6450   31.3280   44.1680 C   0  0  0  0  0  0  0  0  0  0  0  0
   57.1590   30.0380   43.5190 C   0  0  0  0  0  0  0  0  0  0  0  0
   57.3350   27.0100   45.5900 C   0  0  0  0  0  0  0  0  0  0  0  0
   57.0370   27.6200   46.7640 F   0  0  0  0  0  0  0  0  0  0  0  0
   57.2140   25.6200   45.5080 C   0  0  0  0  0  0  0  0  0  0  0  0
   56.2140   22.8300   43.5760 C   0  0  0  0  0  0  0  0  0  0  0  0
   55.2360   23.3820   43.0040 O   0  0  0  0  0  0  0  0  0  0  0  0
   56.3400   21.4670   43.7030 O   0  0  0  0  0  0  0  0  0  0  0  0
   54.5292   22.2761   47.9133 H   0  0  0  0  0  0  0  0  0  0  0  0
   55.1043   23.1140   46.4322 H   0  0  0  0  0  0  0  0  0  0  0  0
   54.8990   21.3295   46.4322 H   0  0  0  0  0  0  0  0  0  0  0  0
   57.7368   19.3940   45.6697 H   0  0  0  0  0  0  0  0  0  0  0  0
   56.0866   20.1114   45.6670 H   0  0  0  0  0  0  0  0  0  0  0  0
   58.2329   20.5421   43.8637 H   0  0  0  0  0  0  0  0  0  0  0  0
   58.1955   22.6622   45.8906 H   0  0  0  0  0  0  0  0  0  0  0  0
   59.1818   22.6254   44.4261 H   0  0  0  0  0  0  0  0  0  0  0  0
   57.9280   25.1867   42.1881 H   0  0  0  0  0  0  0  0  0  0  0  0
   58.2033   27.6581   42.3385 H   0  0  0  0  0  0  0  0  0  0  0  0
   58.5679   29.5783   46.4511 H   0  0  0  0  0  0  0  0  0  0  0  0
   59.8223   29.3400   45.1611 H   0  0  0  0  0  0  0  0  0  0  0  0
   59.4772   31.7384   46.0878 H   0  0  0  0  0  0  0  0  0  0  0  0
   59.5304   31.5085   44.3018 H   0  0  0  0  0  0  0  0  0  0  0  0
   59.8855   34.3159   45.8952 H   0  0  0  0  0  0  0  0  0  0  0  0
   62.1760   34.4099   46.8737 H   0  0  0  0  0  0  0  0  0  0  0  0
   62.9620   31.3060   49.6660 H   0  0  0  0  0  0  0  0  0  0  0  0
   60.6991   32.5701   50.5020 H   0  0  0  0  0  0  0  0  0  0  0  0
   58.4034   32.4980   49.5315 H   0  0  0  0  0  0  0  0  0  0  0  0
   55.7189   31.1053   44.7181 H   0  0  0  0  0  0  0  0  0  0  0  0
   56.4639   32.0634   43.3703 H   0  0  0  0  0  0  0  0  0  0  0  0
   56.3098   29.4837   43.0928 H   0  0  0  0  0  0  0  0  0  0  0  0
   57.8766   30.2991   42.7273 H   0  0  0  0  0  0  0  0  0  0  0  0
   56.9558   25.0415   46.4073 H   0  0  0  0  0  0  0  0  0  0  0  0
  1  2  1  0
  2  3  2  0
  2  4  1  0
  4  5  1  0
  5  6  1  0
  6  7  1  0
  7  8  1  0
  8  9  1  0
  9 10  2  0
 10 11  1  0
 11 12  2  0
 12 13  1  0
 13 14  1  0
 14 15  1  0
 15 16  1  0
 16 17  1  0
 17 18  2  0
 17 19  1  0
 19 20  1  0
 20 21  2  0
 21 22  1  0
 22 23  2  0
 23 24  1  0
 24 25  1  0
 24 26  2  0
 24 27  2  0
 23 28  1  0
 28 29  2  0
 16 30  1  0
 30 31  1  0
 12 32  1  0
 32 33  1  0
 32 34  2  0
  8 35  1  0
 35 36  2  0
 35 37  1  0
 37  6  1  0
 34  9  1  0
 31 13  1  0
 29 20  1  0
  1 38  1  0
  1 39  1  0
  1 40  1  0
  5 41  1  0
  5 42  1  0
  6 43  1  6
  7 44  1  0
  7 45  1  0
 10 46  1  0
 11 47  1  0
 14 48  1  0
 14 49  1  0
 15 50  1  0
 15 51  1  0
 21 52  1  0
 22 53  1  0
 25 54  1  0
 28 55  1  0
 29 56  1  0
 30 57  1  0
 30 58  1  0
 31 59  1  0
 31 60  1  0
 34 61  1  0
M  CHG  3   4  -1  19  -1  25  -1
M  END
>  <UniqueID>  (52) 
52

>  <SMILES>  (52) 
CC(=O)[N-]C[C@@H]1CN(c2ccc(N3CCN(C(=O)[N-]c4ccc(S([NH-])(=O)=O)cc4)CC3)c(F)c2)C(=O)O1

>  <Energy>  (52) 
87.55358205320822

>  <Genealogy>  (52) 
CC(=O)[N-]CC1CN(c2ccc(N3CCN(C(=O)[N-]c4ccc(S([NH-])(=O)=O)cc4)CC3)c(F)c2)C(=O)O1 (protonated)
CC(=O)[N-]C[C@@H]1CN(c2ccc(N3CCN(C(=O)[N-]c4ccc(S([NH-])(=O)=O)cc4)CC3)c(F)c2)C(=O)O1 (chirality)
CC(=O)[N-]C[C@@H]1CN(c2ccc(N3CCN(C(=O)[N-]c4ccc(S([NH-])(=O)=O)cc4)CC3)c(F)c2)C(=O)O1 (3D coordinates assigned)
CC(=O)[N-]C[C@@H]1CN(c2ccc(N3CCN(C(=O)[N-]c4ccc(S([NH-])(=O)=O)cc4)CC3)c(F)c2)C(=O)O1 (nonaromatic ring conformer: 87.55358205320822 kcal/mol)

>  <smiles>  (52) 
CC(=O)NCC1CN(c2ccc(N3CCN(C(=O)Nc4ccc(S(N)(=O)=O)cc4)CC3)c(F)c2)C(=O)O1

>  <score_type>  (52) 
oracle

>  <origin>  (52) 
adg

>  <m_score__min__energy>  (52) 
-14.65

>  <m_primary>  (52) 
energy

$$$$
52:0
     RDKit          3D

 48 51  0  0  0  0  0  0  0  0999 V2000
   52.5866   29.3329   50.0170 H   0  0  0  0  0  0  0  0  0  0  0  0
   52.0120   30.2590   49.8680 C   0  0  0  0  0  0  0  0  0  0  0  0
   51.6681   30.5369   48.8608 H   0  0  0  0  0  0  0  0  0  0  0  0
   51.7330   31.0430   50.9060 C   0  0  0  0  0  0  0  0  0  0  0  0
   51.0240   32.2040   50.7830 N   0  0  0  0  0  0  0  0  0  0  0  0
   50.8930   32.6910   52.0420 C   0  0  0  0  0  0  0  0  0  0  0  0
   50.2220   33.8620   52.3670 O   0  0  0  0  0  0  0  0  0  0  0  0
   51.5120   31.8430   52.9130 C   0  0  0  0  0  0  0  0  0  0  0  0
   52.0450   30.8280   52.2450 C   0  0  0  0  0  0  0  0  0  0  0  0
   52.6510   29.9970   53.1780 C   0  0  0  0  0  0  0  0  0  0  0  0
   53.4150   28.7540   52.9610 C   0  0  0  0  0  0  0  0  0  0  0  0
   53.0661   27.8140   53.4134 H   0  0  0  0  0  0  0  0  0  0  0  0
   54.4940   28.7590   52.2420 N   0  0  0  0  0  0  0  0  0  0  0  0
   55.7030   29.4870   52.5120 C   0  0  0  0  0  0  0  0  0  0  0  0
   55.9510   30.7770   52.0020 C   0  0  0  0  0  0  0  0  0  0  0  0
   55.2028   31.2647   51.3599 H   0  0  0  0  0  0  0  0  0  0  0  0
   57.1430   31.4400   52.3080 C   0  0  0  0  0  0  0  0  0  0  0  0
   57.3302   32.4430   51.8971 H   0  0  0  0  0  0  0  0  0  0  0  0
   58.1040   30.8360   53.1360 C   0  0  0  0  0  0  0  0  0  0  0  0
   59.3320   31.5210   53.4480 N   0  0  0  0  0  0  0  0  0  0  0  0
   60.5620   30.7610   53.6970 C   0  0  0  0  0  0  0  0  0  0  0  0
   60.2951   29.7405   54.0090 H   0  0  0  0  0  0  0  0  0  0  0  0
   61.1520   30.7439   52.7688 H   0  0  0  0  0  0  0  0  0  0  0  0
   61.4160   31.4170   54.8030 C   0  0  0  0  0  0  0  0  0  0  0  0
   61.0962   31.0073   55.7725 H   0  0  0  0  0  0  0  0  0  0  0  0
   62.4654   31.1888   54.5648 H   0  0  0  0  0  0  0  0  0  0  0  0
   61.3090   32.9020   54.8670 N   0  0  0  0  0  0  0  0  0  0  0  0
   62.2730   33.2830   55.0190 H   0  0  0  0  0  0  0  0  0  0  0  0
   60.5050   33.3330   56.0300 C   0  0  0  0  0  0  0  0  0  0  0  0
   61.0247   33.0544   56.9586 H   0  0  0  0  0  0  0  0  0  0  0  0
   60.3703   34.4243   55.9985 H   0  0  0  0  0  0  0  0  0  0  0  0
   59.5216   32.8411   55.9985 H   0  0  0  0  0  0  0  0  0  0  0  0
   60.8090   33.5030   53.6110 C   0  0  0  0  0  0  0  0  0  0  0  0
   60.7537   34.5945   53.7355 H   0  0  0  0  0  0  0  0  0  0  0  0
   61.5033   33.2332   52.8016 H   0  0  0  0  0  0  0  0  0  0  0  0
   59.4160   32.9730   53.2430 C   0  0  0  0  0  0  0  0  0  0  0  0
   58.6644   33.4691   53.8746 H   0  0  0  0  0  0  0  0  0  0  0  0
   59.2300   33.1873   52.1802 H   0  0  0  0  0  0  0  0  0  0  0  0
   57.8470   29.5580   53.6580 C   0  0  0  0  0  0  0  0  0  0  0  0
   58.5879   29.0758   54.3127 H   0  0  0  0  0  0  0  0  0  0  0  0
   56.6560   28.8950   53.3510 C   0  0  0  0  0  0  0  0  0  0  0  0
   56.4646   27.8973   53.7727 H   0  0  0  0  0  0  0  0  0  0  0  0
   52.3910   30.6350   54.4140 C   0  0  0  0  0  0  0  0  0  0  0  0
   52.7840   30.2100   55.6170 C   0  0  0  0  0  0  0  0  0  0  0  0
   53.3548   29.2743   55.7103 H   0  0  0  0  0  0  0  0  0  0  0  0
   52.5370   30.7955   56.5149 H   0  0  0  0  0  0  0  0  0  0  0  0
   51.6830   31.7840   54.2380 N   0  0  0  0  0  0  0  0  0  0  0  0
   51.3470   32.4610   54.9590 H   0  0  0  0  0  0  0  0  0  0  0  0
  1  2  1  0
  2  3  1  0
  2  4  2  0
  4  5  1  0
  5  6  1  0
  6  7  1  0
  6  8  2  0
  8  9  1  0
  9 10  2  0
 10 11  1  0
 11 12  1  0
 11 13  2  0
 13 14  1  0
 14 15  2  0
 15 16  1  0
 15 17  1  0
 17 18  1  0
 17 19  2  0
 19 20  1  0
 20 21  1  0
 21 22  1  0
 21 23  1  0
 21 24  1  0
 24 25  1  0
 24 26  1  0
 24 27  1  0
 27 28  1  0
 27 29  1  0
 29 30  1  0
 29 31  1  0
 29 32  1  0
 27 33  1  0
 33 34  1  0
 33 35  1  0
 33 36  1  0
 36 37  1  0
 36 38  1  0
 19 39  1  0
 39 40  1  0
 39 41  2  0
 41 42  1  0
 10 43  1  0
 43 44  2  0
 44 45  1  0
 44 46  1  0
 43 47  1  0
 47 48  1  0
  9  4  1  0
 41 14  1  0
 47  8  1  0
 36 20  1  0
M  CHG  3   5  -1   7  -1  27   1
M  END
>  <UniqueID>  (53) 
53

>  <SMILES>  (53) 
C=c1[nH]c2c([O-])[n-]c(=C)c2c1/C=N/c1ccc(N2CC[NH+](C)CC2)cc1

>  <Energy>  (53) 
151.8616941609201

>  <Genealogy>  (53) 
C=c1[nH]c2c([O-])[n-]c(=C)c2c1C=Nc1ccc(N2CC[NH+](C)CC2)cc1 (protonated)
C=c1[nH]c2c([O-])[n-]c(=C)c2c1/C=N/c1ccc(N2CC[NH+](C)CC2)cc1 (cis-trans isomerization)
C=c1[nH]c2c([O-])[n-]c(=C)c2c1/C=N/c1ccc(N2CC[NH+](C)CC2)cc1 (3D coordinates assigned)
C=c1[nH]c2c([O-])[n-]c(=C)c2c1/C=N/c1ccc(N2CC[NH+](C)CC2)cc1 (nonaromatic ring conformer: 151.8616941609201 kcal/mol)

>  <smiles>  (53) 
C=c1[nH]c2c(O)[nH]c(=C)c2c1C=Nc1ccc(N2CCN(C)CC2)cc1

>  <score_type>  (53) 
oracle

>  <origin>  (53) 
adg

>  <m_score__min__energy>  (53) 
-12.51

>  <m_primary>  (53) 
energy

$$$$
53:0
     RDKit          3D

 46 48  0  0  0  0  0  0  0  0999 V2000
   53.5620   27.9250   53.2360 C   0  0  0  0  0  0  0  0  0  0  0  0
   54.3610   28.9610   52.8900 C   0  0  0  0  0  0  0  0  0  0  0  0
   53.8370   30.1910   52.3660 C   0  0  0  0  0  0  0  0  0  0  0  0
   52.5020   30.4550   52.2930 C   0  0  0  0  0  0  0  0  0  0  0  0
   51.7690   30.8270   51.0670 C   0  0  0  0  0  0  0  0  0  0  0  0
   51.7620   30.0760   49.9520 N   0  0  0  0  0  0  0  0  0  0  0  0
   51.0750   30.8310   49.0670 C   0  0  0  0  0  0  0  0  0  0  0  0
   50.8400   30.4530   47.8900 O   0  0  0  0  0  0  0  0  0  0  0  0
   50.6670   32.0280   49.5410 N   0  0  0  0  0  0  0  0  0  0  0  0
   51.1260   32.0170   50.8030 C   0  0  0  0  0  0  0  0  0  0  0  0
   50.9900   33.0860   51.6810 O   0  0  0  0  0  0  0  0  0  0  0  0
   54.7620   31.1800   51.9700 C   0  0  0  0  0  0  0  0  0  0  0  0
   56.1350   30.9910   52.1090 C   0  0  0  0  0  0  0  0  0  0  0  0
   57.0880   32.0750   51.6580 C   0  0  0  0  0  0  0  0  0  0  0  0
   58.0660   31.5350   50.6200 C   0  0  0  0  0  0  0  0  0  0  0  0
   56.6010   29.7820   52.6320 C   0  0  0  0  0  0  0  0  0  0  0  0
   57.8420   29.6020   52.7780 O   0  0  0  0  0  0  0  0  0  0  0  0
   55.7270   28.8000   52.9980 N   0  0  0  0  0  0  0  0  0  0  0  0
   56.2430   27.6220   53.5130 O   0  0  0  0  0  0  0  0  0  0  0  0
   56.9090   27.5910   54.7700 C   0  0  0  0  0  0  0  0  0  0  0  0
   58.3100   27.1100   54.5740 C   0  0  0  0  0  0  0  0  0  0  0  0
   58.8950   26.5040   55.5120 O   0  0  0  0  0  0  0  0  0  0  0  0
   58.9590   27.3030   53.3070 N   0  0  0  0  0  0  0  0  0  0  0  0
   60.3590   27.0730   53.0730 C   0  0  0  0  0  0  0  0  0  0  0  0
   60.8060   25.7690   52.8090 C   0  0  0  0  0  0  0  0  0  0  0  0
   62.1590   25.5220   52.5550 C   0  0  0  0  0  0  0  0  0  0  0  0
   63.0740   26.5770   52.5460 C   0  0  0  0  0  0  0  0  0  0  0  0
   64.9210   26.2390   52.1940 Br  0  0  0  0  0  0  0  0  0  0  0  0
   62.6350   27.8840   52.7840 C   0  0  0  0  0  0  0  0  0  0  0  0
   61.2830   28.1340   53.0390 C   0  0  0  0  0  0  0  0  0  0  0  0
   54.0031   26.9992   53.6340 H   0  0  0  0  0  0  0  0  0  0  0  0
   52.4714   28.0087   53.1193 H   0  0  0  0  0  0  0  0  0  0  0  0
   51.9225   30.3850   53.2253 H   0  0  0  0  0  0  0  0  0  0  0  0
   54.3902   32.1224   51.5415 H   0  0  0  0  0  0  0  0  0  0  0  0
   56.5119   32.9013   51.2159 H   0  0  0  0  0  0  0  0  0  0  0  0
   57.6575   32.4303   52.5294 H   0  0  0  0  0  0  0  0  0  0  0  0
   58.9191   31.0639   51.1302 H   0  0  0  0  0  0  0  0  0  0  0  0
   57.5580   30.7895   49.9905 H   0  0  0  0  0  0  0  0  0  0  0  0
   58.4263   32.3620   49.9905 H   0  0  0  0  0  0  0  0  0  0  0  0
   56.9247   28.6022   55.2027 H   0  0  0  0  0  0  0  0  0  0  0  0
   56.3777   26.9111   55.4522 H   0  0  0  0  0  0  0  0  0  0  0  0
   58.3590   27.5540   52.4880 H   0  0  0  0  0  0  0  0  0  0  0  0
   60.0876   24.9360   52.8018 H   0  0  0  0  0  0  0  0  0  0  0  0
   62.5030   24.4951   52.3620 H   0  0  0  0  0  0  0  0  0  0  0  0
   63.3544   28.7160   52.7705 H   0  0  0  0  0  0  0  0  0  0  0  0
   60.9402   29.1645   53.2138 H   0  0  0  0  0  0  0  0  0  0  0  0
  1  2  2  0
  2  3  1  0
  3  4  2  3
  4  5  1  0
  5  6  1  0
  6  7  1  0
  7  8  2  0
  7  9  1  0
  9 10  1  0
 10 11  1  0
  3 12  1  0
 12 13  2  0
 13 14  1  0
 14 15  1  0
 13 16  1  0
 16 17  2  0
 16 18  1  0
 18 19  1  0
 19 20  1  0
 20 21  1  0
 21 22  2  0
 21 23  1  0
 23 24  1  0
 24 25  2  0
 25 26  1  0
 26 27  2  0
 27 28  1  0
 27 29  1  0
 29 30  2  0
 18  2  1  0
 30 24  1  0
 10  5  2  0
  1 31  1  0
  1 32  1  0
  4 33  1  0
 12 34  1  0
 14 35  1  0
 14 36  1  0
 15 37  1  0
 15 38  1  0
 15 39  1  0
 20 40  1  0
 20 41  1  0
 23 42  1  0
 25 43  1  0
 26 44  1  0
 29 45  1  0
 30 46  1  0
M  CHG  3   6  -1   9  -1  11  -1
M  END
>  <UniqueID>  (54) 
54

>  <SMILES>  (54) 
C=c1c(=Cc2[n-]c(=O)[n-]c2[O-])cc(CC)c(=O)n1OCC(=O)Nc1ccc(Br)cc1

>  <Energy>  (54) 
103.36469518066583

>  <Genealogy>  (54) 
C=c1c(=Cc2[n-]c(=O)[n-]c2[O-])cc(CC)c(=O)n1OCC(=O)Nc1ccc(Br)cc1 (protonated)
C=c1c(=Cc2[n-]c(=O)[n-]c2[O-])cc(CC)c(=O)n1OCC(=O)Nc1ccc(Br)cc1 (3D coordinates assigned)
C=c1c(=Cc2[n-]c(=O)[n-]c2[O-])cc(CC)c(=O)n1OCC(=O)Nc1ccc(Br)cc1 (optimized conformer: 103.36469518066583 kcal/mol)

>  <smiles>  (54) 
C=c1c(=Cc2[nH]c(=O)[nH]c2O)cc(CC)c(=O)n1OCC(=O)Nc1ccc(Br)cc1

>  <score_type>  (54) 
oracle

>  <origin>  (54) 
adg

>  <m_score__min__energy>  (54) 
-17.25

>  <m_primary>  (54) 
energy

$$$$
54:0
     RDKit          3D

 34 36  0  0  0  0  0  0  0  0999 V2000
   55.2320   27.6980   44.9930 H   0  0  0  0  0  0  0  0  0  0  0  0
   55.7360   28.6030   44.8700 N   0  0  0  0  0  0  0  0  0  0  0  0
   56.8040   28.9490   45.5200 C   0  0  0  0  0  0  0  0  0  0  0  0
   57.1960   30.2510   45.4660 N   0  0  0  0  0  0  0  0  0  0  0  0
   58.2690   30.7190   46.1530 C   0  0  0  0  0  0  0  0  0  0  0  0
   58.5528   31.7788   46.0743 H   0  0  0  0  0  0  0  0  0  0  0  0
   59.0120   29.8560   46.9590 C   0  0  0  0  0  0  0  0  0  0  0  0
   60.1500   30.3450   47.6920 C   0  0  0  0  0  0  0  0  0  0  0  0
   61.1040   30.7550   48.3050 C   0  0  0  0  0  0  0  0  0  0  0  0
   62.2620   31.2510   49.0490 C   0  0  0  0  0  0  0  0  0  0  0  0
   62.6121   30.4746   49.7452 H   0  0  0  0  0  0  0  0  0  0  0  0
   63.0716   31.5024   48.3480 H   0  0  0  0  0  0  0  0  0  0  0  0
   61.8770   32.4390   49.7980 N   0  0  0  0  0  0  0  0  0  0  0  0
   61.8350   33.7460   49.2150 C   0  0  0  0  0  0  0  0  0  0  0  0
   62.5540   34.6630   49.6990 O   0  0  0  0  0  0  0  0  0  0  0  0
   60.9550   34.0330   48.0500 C   0  0  0  0  0  0  0  0  0  0  0  0
   59.6330   34.4630   48.2600 C   0  0  0  0  0  0  0  0  0  0  0  0
   59.2547   34.5856   49.2856 H   0  0  0  0  0  0  0  0  0  0  0  0
   58.8200   34.7280   47.2050 N   0  0  0  0  0  0  0  0  0  0  0  0
   59.2600   34.5850   45.9290 C   0  0  0  0  0  0  0  0  0  0  0  0
   58.4900   34.8370   44.9670 O   0  0  0  0  0  0  0  0  0  0  0  0
   60.5300   34.1730   45.6930 N   0  0  0  0  0  0  0  0  0  0  0  0
   61.3840   33.8950   46.7120 C   0  0  0  0  0  0  0  0  0  0  0  0
   62.5540   33.5150   46.4370 O   0  0  0  0  0  0  0  0  0  0  0  0
   58.6460   28.5100   47.0350 C   0  0  0  0  0  0  0  0  0  0  0  0
   59.2263   27.8215   47.6669 H   0  0  0  0  0  0  0  0  0  0  0  0
   57.5430   28.0290   46.3110 C   0  0  0  0  0  0  0  0  0  0  0  0
   57.2260   26.5840   46.3700 C   0  0  0  0  0  0  0  0  0  0  0  0
   58.1460   25.6100   46.5090 N   0  0  0  0  0  0  0  0  0  0  0  0
   57.4050   24.4830   46.5750 C   0  0  0  0  0  0  0  0  0  0  0  0
   57.9170   23.3410   46.7030 O   0  0  0  0  0  0  0  0  0  0  0  0
   56.0710   24.6770   46.4960 N   0  0  0  0  0  0  0  0  0  0  0  0
   55.9740   26.0100   46.3730 C   0  0  0  0  0  0  0  0  0  0  0  0
   54.7660   26.6860   46.2500 O   0  0  0  0  0  0  0  0  0  0  0  0
  1  2  1  0
  2  3  2  0
  3  4  1  0
  4  5  1  0
  5  6  1  0
  5  7  2  0
  7  8  1  0
  8  9  3  0
  9 10  1  0
 10 11  1  0
 10 12  1  0
 10 13  1  0
 13 14  1  0
 14 15  2  0
 14 16  1  0
 16 17  2  0
 17 18  1  0
 17 19  1  0
 19 20  1  0
 20 21  2  0
 20 22  1  0
 22 23  1  0
 23 24  2  0
  7 25  1  0
 25 26  1  0
 25 27  2  0
 27 28  1  0
 28 29  1  0
 29 30  1  0
 30 31  2  0
 30 32  1  0
 32 33  1  0
 33 34  1  0
 27  3  1  0
 33 28  2  0
 23 16  1  0
M  CHG  7   4  -1  13  -1  19  -1  22  -1  29  -1  32  -1  34  -1
M  END
>  <UniqueID>  (55) 
55

>  <SMILES>  (55) 
[H]/N=c1/[n-]cc(C#CC[N-]C(=O)c2c[n-]c(=O)[n-]c2=O)cc1-c1[n-]c(=O)[n-]c1[O-]

>  <Energy>  (55) 
72.01407460614388

>  <Genealogy>  (55) 
N=c1[n-]cc(C#CC[N-]C(=O)c2c[n-]c(=O)[n-]c2=O)cc1-c1[n-]c(=O)[n-]c1[O-] (protonated)
[H]/N=c1/[n-]cc(C#CC[N-]C(=O)c2c[n-]c(=O)[n-]c2=O)cc1-c1[n-]c(=O)[n-]c1[O-] (cis-trans isomerization)
[H]/N=c1/[n-]cc(C#CC[N-]C(=O)c2c[n-]c(=O)[n-]c2=O)cc1-c1[n-]c(=O)[n-]c1[O-] (3D coordinates assigned)
[H]/N=c1/[n-]cc(C#CC[N-]C(=O)c2c[n-]c(=O)[n-]c2=O)cc1-c1[n-]c(=O)[n-]c1[O-] (optimized conformer: 72.01407460614388 kcal/mol)

>  <smiles>  (55) 
N=c1[nH]cc(C#CCNC(=O)c2c[nH]c(=O)[nH]c2=O)cc1-c1[nH]c(=O)[nH]c1O

>  <score_type>  (55) 
oracle

>  <origin>  (55) 
adg

>  <m_score__min__energy>  (55) 
-19.5

>  <m_primary>  (55) 
energy

$$$$
55:0
     RDKit          3D

 56 59  0  0  1  0  0  0  0  0999 V2000
   60.7660   29.8720   48.6860 C   0  0  0  0  0  0  0  0  0  0  0  0
   60.3880   31.1430   48.1280 O   0  0  0  0  0  0  0  0  0  0  0  0
   61.4310   32.0110   47.7620 C   0  0  0  0  0  0  0  0  0  0  0  0
   62.7190   31.8500   48.2770 C   0  0  0  0  0  0  0  0  0  0  0  0
   63.7580   32.6940   47.9330 C   0  0  0  0  0  0  0  0  0  0  0  0
   63.4710   33.7080   47.0550 C   0  0  0  0  0  0  0  0  0  0  0  0
   62.2060   33.8800   46.5370 C   0  0  0  0  0  0  0  0  0  0  0  0
   61.1430   33.0350   46.8760 C   0  0  0  0  0  0  0  0  0  0  0  0
   59.8800   33.3040   46.3410 N   0  0  0  0  0  0  0  0  0  0  0  0
   59.0340   32.5290   45.8220 C   0  0  0  0  0  0  0  0  0  0  0  0
   57.8420   32.9730   45.4290 N   0  0  0  0  0  0  0  0  0  0  0  0
   56.9890   32.1190   44.8590 C   0  0  0  0  0  0  0  0  0  0  0  0
   57.2740   30.7620   44.6430 C   0  0  0  0  0  0  0  0  0  0  0  0
   56.2680   29.9920   44.0730 N   0  0  0  0  0  0  0  0  0  0  0  0
   55.4390   29.4700   44.9010 O   0  0  0  0  0  0  0  0  0  0  0  0
   55.9930   29.7140   42.7710 O   0  0  0  0  0  0  0  0  0  0  0  0
   58.5050   30.3540   45.0540 C   0  0  0  0  0  0  0  0  0  0  0  0
   58.9610   29.2550   44.7290 N   0  0  0  0  0  0  0  0  0  0  0  0
   58.9190   27.9930   45.2750 C   0  0  0  0  0  0  0  0  0  0  0  0
   60.0420   27.5380   45.9870 C   0  0  0  0  0  0  0  0  0  0  0  0
   59.9120   26.3410   46.6650 C   0  0  0  0  0  0  0  0  0  0  0  0
   58.7250   25.6250   46.6400 C   0  0  0  0  0  0  0  0  0  0  0  0
   57.6160   26.0530   45.9470 C   0  0  0  0  0  0  0  0  0  0  0  0
   56.0660   25.2490   45.9820 S   0  0  0  0  0  0  0  0  0  0  0  0
   54.9930   26.3190   45.9880 O   0  0  0  0  0  0  0  0  0  0  0  0
   55.9130   24.5660   47.3430 O   0  0  0  0  0  0  0  0  0  0  0  0
   55.7050   24.1470   44.8030 N   0  0  0  0  0  0  0  0  0  0  0  0
   54.9580   22.9770   45.1310 C   0  0  0  0  0  0  0  0  0  0  0  0
   55.7030   21.7000   44.9220 C   0  0  0  0  0  0  0  0  0  0  0  0
   56.2710   21.6500   43.6460 O   0  0  0  0  0  0  0  0  0  0  0  0
   56.0720   22.7760   42.8940 C   0  0  0  0  0  0  0  0  0  0  0  0
   56.4700   24.0680   43.6230 C   0  0  0  0  0  0  0  0  0  0  0  0
   57.7340   27.2540   45.2600 C   0  0  0  0  0  0  0  0  0  0  0  0
   59.3700   31.2380   45.6420 N   0  0  0  0  0  0  0  0  0  0  0  0
   60.7477   29.9336   49.7841 H   0  0  0  0  0  0  0  0  0  0  0  0
   60.0588   29.0992   48.3503 H   0  0  0  0  0  0  0  0  0  0  0  0
   61.7806   29.6113   48.3503 H   0  0  0  0  0  0  0  0  0  0  0  0
   62.9128   31.0253   48.9787 H   0  0  0  0  0  0  0  0  0  0  0  0
   64.7691   32.5587   48.3446 H   0  0  0  0  0  0  0  0  0  0  0  0
   64.2712   34.4015   46.7569 H   0  0  0  0  0  0  0  0  0  0  0  0
   62.0258   34.7074   45.8349 H   0  0  0  0  0  0  0  0  0  0  0  0
   57.6470   33.9920   45.6010 H   0  0  0  0  0  0  0  0  0  0  0  0
   56.0075   32.5004   44.5407 H   0  0  0  0  0  0  0  0  0  0  0  0
   60.9820   28.1090   46.0038 H   0  0  0  0  0  0  0  0  0  0  0  0
   60.7667   25.9486   47.2355 H   0  0  0  0  0  0  0  0  0  0  0  0
   58.6676   24.6776   47.1960 H   0  0  0  0  0  0  0  0  0  0  0  0
   54.6675   23.0382   46.1902 H   0  0  0  0  0  0  0  0  0  0  0  0
   54.0915   22.9534   44.4537 H   0  0  0  0  0  0  0  0  0  0  0  0
   56.5022   21.6235   45.6739 H   0  0  0  0  0  0  0  0  0  0  0  0
   54.9957   20.8634   45.0218 H   0  0  0  0  0  0  0  0  0  0  0  0
   56.6718   22.6937   41.9756 H   0  0  0  0  0  0  0  0  0  0  0  0
   54.9950   22.8400   42.6795 H   0  0  0  0  0  0  0  0  0  0  0  0
   57.5412   24.0429   43.8719 H   0  0  0  0  0  0  0  0  0  0  0  0
   56.2840   24.9438   42.9840 H   0  0  0  0  0  0  0  0  0  0  0  0
   56.8729   27.6327   44.6899 H   0  0  0  0  0  0  0  0  0  0  0  0
   60.3260   30.9250   45.9750 H   0  0  0  0  0  0  0  0  0  0  0  0
  1  2  1  0
  2  3  1  0
  3  4  2  0
  4  5  1  0
  5  6  2  0
  6  7  1  0
  7  8  2  0
  8  9  1  0
  9 10  2  0
 10 11  1  0
 11 12  1  0
 12 13  2  0
 13 14  1  0
 14 15  2  0
 14 16  1  0
 13 17  1  0
 17 18  2  0
 18 19  1  0
 19 20  2  0
 20 21  1  0
 21 22  2  0
 22 23  1  0
 23 24  1  0
 24 25  2  0
 24 26  2  0
 24 27  1  0
 27 28  1  0
 28 29  1  0
 29 30  1  0
 30 31  1  0
 31 32  1  0
 23 33  2  0
 17 34  1  0
  8  3  1  0
 34 10  1  0
 33 19  1  0
 32 27  1  0
  1 35  1  0
  1 36  1  0
  1 37  1  0
  4 38  1  0
  5 39  1  0
  6 40  1  0
  7 41  1  0
 11 42  1  0
 12 43  1  0
 20 44  1  0
 21 45  1  0
 22 46  1  0
 28 47  1  0
 28 48  1  0
 29 49  1  0
 29 50  1  0
 31 51  1  0
 31 52  1  0
 32 53  1  0
 32 54  1  0
 33 55  1  0
 34 56  1  0
M  CHG  2  14   1  16  -1
M  END
>  <smiles>  (56) 
COc1ccccc1N=c1[nH]cc([N+](=O)[O-])c(=Nc2cccc(S(=O)(=O)N3CCOCC3)c2)[nH]1

>  <score_type>  (56) 
oracle

>  <origin>  (56) 
adg

>  <m_score__min__energy>  (56) 
-10.640000000000001

>  <m_primary>  (56) 
energy

$$$$
56:0
     RDKit          3D

 45 48  0  0  0  0  0  0  0  0999 V2000
   59.8920   31.1800   50.1090 C   0  0  0  0  0  0  0  0  0  0  0  0
   59.0740   32.7550   49.9650 S   0  0  0  0  0  0  0  0  0  0  0  0
   58.4110   33.0740   51.2760 O   0  0  0  0  0  0  0  0  0  0  0  0
   58.0250   32.7070   48.8920 O   0  0  0  0  0  0  0  0  0  0  0  0
   60.2320   33.9980   49.6130 N   0  0  0  0  0  0  0  0  0  0  0  0
   61.5580   33.8050   49.0960 C   0  0  0  0  0  0  0  0  0  0  0  0
   62.6960   34.0720   49.8820 C   0  0  0  0  0  0  0  0  0  0  0  0
   63.9760   33.8450   49.3770 C   0  0  0  0  0  0  0  0  0  0  0  0
   64.1410   33.3480   48.0860 C   0  0  0  0  0  0  0  0  0  0  0  0
   63.0270   33.0780   47.2910 C   0  0  0  0  0  0  0  0  0  0  0  0
   61.7260   33.3010   47.7820 C   0  0  0  0  0  0  0  0  0  0  0  0
   60.5550   33.0300   46.9110 C   0  0  0  0  0  0  0  0  0  0  0  0
   60.0470   34.0320   46.0370 C   0  0  0  0  0  0  0  0  0  0  0  0
   58.9430   33.7530   45.2120 C   0  0  0  0  0  0  0  0  0  0  0  0
   58.3890   32.4810   45.2940 C   0  0  0  0  0  0  0  0  0  0  0  0
   57.3530   31.9780   44.6030 N   0  0  0  0  0  0  0  0  0  0  0  0
   57.2230   30.6940   45.0260 C   0  0  0  0  0  0  0  0  0  0  0  0
   56.1860   29.7740   44.5170 C   0  0  0  0  0  0  0  0  0  0  0  0
   55.5750   30.0650   43.4560 O   0  0  0  0  0  0  0  0  0  0  0  0
   55.8130   28.5850   45.2260 N   0  0  0  0  0  0  0  0  0  0  0  0
   56.6730   27.4800   45.5320 C   0  0  0  0  0  0  0  0  0  0  0  0
   56.2580   26.4310   46.3740 C   0  0  0  0  0  0  0  0  0  0  0  0
   57.1250   25.3720   46.6590 C   0  0  0  0  0  0  0  0  0  0  0  0
   58.4160   25.3610   46.1230 C   0  0  0  0  0  0  0  0  0  0  0  0
   58.8440   26.4130   45.3080 C   0  0  0  0  0  0  0  0  0  0  0  0
   57.9790   27.4730   45.0200 C   0  0  0  0  0  0  0  0  0  0  0  0
   58.1710   30.3910   46.0070 C   0  0  0  0  0  0  0  0  0  0  0  0
   58.8980   31.5470   46.1430 C   0  0  0  0  0  0  0  0  0  0  0  0
   59.9610   31.7970   46.9450 N   0  0  0  0  0  0  0  0  0  0  0  0
   60.0218   30.9301   51.1723 H   0  0  0  0  0  0  0  0  0  0  0  0
   59.2827   30.4045   49.6218 H   0  0  0  0  0  0  0  0  0  0  0  0
   60.8768   31.2324   49.6218 H   0  0  0  0  0  0  0  0  0  0  0  0
   62.5740   34.4629   50.9029 H   0  0  0  0  0  0  0  0  0  0  0  0
   64.8574   34.0589   49.9995 H   0  0  0  0  0  0  0  0  0  0  0  0
   65.1523   33.1680   47.6925 H   0  0  0  0  0  0  0  0  0  0  0  0
   63.1659   32.6876   46.2720 H   0  0  0  0  0  0  0  0  0  0  0  0
   60.5184   35.0254   46.0069 H   0  0  0  0  0  0  0  0  0  0  0  0
   58.5339   34.5117   44.5286 H   0  0  0  0  0  0  0  0  0  0  0  0
   56.7800   32.4700   43.8820 H   0  0  0  0  0  0  0  0  0  0  0  0
   55.2479   26.4446   46.8093 H   0  0  0  0  0  0  0  0  0  0  0  0
   56.7911   24.5469   47.3054 H   0  0  0  0  0  0  0  0  0  0  0  0
   59.0954   24.5242   46.3426 H   0  0  0  0  0  0  0  0  0  0  0  0
   59.8626   26.4068   44.8928 H   0  0  0  0  0  0  0  0  0  0  0  0
   58.3241   28.3053   44.3890 H   0  0  0  0  0  0  0  0  0  0  0  0
   58.3042   29.4421   46.5472 H   0  0  0  0  0  0  0  0  0  0  0  0
  1  2  1  0
  2  3  2  0
  2  4  2  0
  2  5  1  0
  5  6  1  0
  6  7  2  0
  7  8  1  0
  8  9  2  0
  9 10  1  0
 10 11  2  0
 11 12  1  0
 12 13  2  0
 13 14  1  0
 14 15  2  0
 15 16  1  0
 16 17  1  0
 17 18  1  0
 18 19  2  0
 18 20  1  0
 20 21  1  0
 21 22  2  0
 22 23  1  0
 23 24  2  0
 24 25  1  0
 25 26  2  0
 17 27  2  0
 27 28  1  0
 28 29  2  0
 11  6  1  0
 29 12  1  0
 28 15  1  0
 26 21  1  0
  1 30  1  0
  1 31  1  0
  1 32  1  0
  7 33  1  0
  8 34  1  0
  9 35  1  0
 10 36  1  0
 13 37  1  0
 14 38  1  0
 16 39  1  0
 22 40  1  0
 23 41  1  0
 24 42  1  0
 25 43  1  0
 26 44  1  0
 27 45  1  0
M  CHG  2   5  -1  20  -1
M  END
>  <UniqueID>  (57) 
56

>  <SMILES>  (57) 
CS(=O)(=O)[N-]c1ccccc1-c1ccc2[nH]c(C(=O)[N-]c3ccccc3)cc2n1

>  <Energy>  (57) 
94.13285552955074

>  <Genealogy>  (57) 
CS(=O)(=O)[N-]c1ccccc1-c1ccc2[nH]c(C(=O)[N-]c3ccccc3)cc2n1 (protonated)
CS(=O)(=O)[N-]c1ccccc1-c1ccc2[nH]c(C(=O)[N-]c3ccccc3)cc2n1 (3D coordinates assigned)
CS(=O)(=O)[N-]c1ccccc1-c1ccc2[nH]c(C(=O)[N-]c3ccccc3)cc2n1 (optimized conformer: 94.13285552955074 kcal/mol)

>  <smiles>  (57) 
CS(=O)(=O)Nc1ccccc1-c1ccc2[nH]c(C(=O)Nc3ccccc3)cc2n1

>  <score_type>  (57) 
oracle

>  <origin>  (57) 
adg

>  <m_score__min__energy>  (57) 
-11.52

>  <m_primary>  (57) 
energy

$$$$
57:0
     RDKit          3D

 55 58  0  0  0  0  0  0  0  0999 V2000
   58.9290   26.0340   46.9710 O   0  0  0  0  0  0  0  0  0  0  0  0
   58.0970   26.8230   46.4450 C   0  0  0  0  0  0  0  0  0  0  0  0
   58.1600   28.2830   46.7730 C   0  0  0  0  0  0  0  0  0  0  0  0
   57.3620   29.0830   45.7850 C   0  0  0  0  0  0  0  0  0  0  0  0
   56.2010   28.6650   45.2440 N   0  0  0  0  0  0  0  0  0  0  0  0
   55.8210   29.7050   44.4750 C   0  0  0  0  0  0  0  0  0  0  0  0
   54.7680   29.6910   43.7860 O   0  0  0  0  0  0  0  0  0  0  0  0
   56.6570   30.7640   44.5060 N   0  0  0  0  0  0  0  0  0  0  0  0
   57.6260   30.3680   45.3510 C   0  0  0  0  0  0  0  0  0  0  0  0
   58.8060   31.2160   45.7100 C   0  0  0  0  0  0  0  0  0  0  0  0
   58.5510   32.9300   45.1290 S   0  0  0  0  0  0  0  0  0  0  0  0
   59.3730   33.7570   46.5470 C   0  0  2  0  0  0  0  0  0  0  0  0
   60.8370   33.3140   46.6070 C   0  0  0  0  0  0  0  0  0  0  0  0
   61.5970   33.9760   47.7720 C   0  0  0  0  0  0  0  0  0  0  0  0
   60.7520   34.2080   49.0510 C   0  0  0  0  0  0  0  0  0  0  0  0
   59.5050   33.4300   49.0560 N   0  0  0  0  0  0  0  0  0  0  0  0
   58.9830   32.8990   50.2870 C   0  0  0  0  0  0  0  0  0  0  0  0
   58.4070   31.6170   50.3170 C   0  0  0  0  0  0  0  0  0  0  0  0
   57.8870   31.1050   51.5090 C   0  0  0  0  0  0  0  0  0  0  0  0
   57.9360   31.8680   52.6790 C   0  0  0  0  0  0  0  0  0  0  0  0
   58.5120   33.1430   52.6630 C   0  0  0  0  0  0  0  0  0  0  0  0
   59.0380   33.6540   51.4730 C   0  0  0  0  0  0  0  0  0  0  0  0
   58.7210   33.3900   47.8500 C   0  0  0  0  0  0  0  0  0  0  0  0
   57.4920   33.1010   47.8950 O   0  0  0  0  0  0  0  0  0  0  0  0
   57.0530   26.3240   45.5970 N   0  0  0  0  0  0  0  0  0  0  0  0
   56.9440   24.9390   45.2280 C   0  0  0  0  0  0  0  0  0  0  0  0
   58.1010   24.2370   44.8370 C   0  0  0  0  0  0  0  0  0  0  0  0
   58.0260   22.9040   44.4280 C   0  0  0  0  0  0  0  0  0  0  0  0
   56.7920   22.2550   44.3950 C   0  0  0  0  0  0  0  0  0  0  0  0
   55.6320   22.9360   44.7680 C   0  0  0  0  0  0  0  0  0  0  0  0
   55.6860   24.2810   45.1910 C   0  0  0  0  0  0  0  0  0  0  0  0
   54.4230   24.9440   45.6160 C   0  0  0  0  0  0  0  0  0  0  0  0
   53.3270   24.3250   45.6100 O   0  0  0  0  0  0  0  0  0  0  0  0
   54.4320   26.2860   45.9820 O   0  0  0  0  0  0  0  0  0  0  0  0
   57.7523   28.4445   47.7818 H   0  0  0  0  0  0  0  0  0  0  0  0
   59.2091   28.6107   46.7287 H   0  0  0  0  0  0  0  0  0  0  0  0
   58.9333   31.2178   46.8026 H   0  0  0  0  0  0  0  0  0  0  0  0
   59.7046   30.8034   45.2281 H   0  0  0  0  0  0  0  0  0  0  0  0
   59.2905   34.8439   46.3990 H   0  0  0  0  0  0  0  0  0  0  0  0
   60.8719   32.2221   46.7360 H   0  0  0  0  0  0  0  0  0  0  0  0
   61.3220   33.6215   45.6688 H   0  0  0  0  0  0  0  0  0  0  0  0
   62.4477   33.3306   48.0363 H   0  0  0  0  0  0  0  0  0  0  0  0
   61.9014   34.9717   47.4171 H   0  0  0  0  0  0  0  0  0  0  0  0
   61.3515   33.9175   49.9263 H   0  0  0  0  0  0  0  0  0  0  0  0
   60.4791   35.2732   49.0801 H   0  0  0  0  0  0  0  0  0  0  0  0
   58.3654   31.0140   49.3980 H   0  0  0  0  0  0  0  0  0  0  0  0
   57.4388   30.1006   51.5263 H   0  0  0  0  0  0  0  0  0  0  0  0
   57.5208   31.4652   53.6146 H   0  0  0  0  0  0  0  0  0  0  0  0
   58.5508   33.7419   53.5848 H   0  0  0  0  0  0  0  0  0  0  0  0
   59.4980   34.6531   51.4637 H   0  0  0  0  0  0  0  0  0  0  0  0
   56.3230   26.9920   45.2630 H   0  0  0  0  0  0  0  0  0  0  0  0
   59.0762   24.7455   44.8541 H   0  0  0  0  0  0  0  0  0  0  0  0
   58.9390   22.3665   44.1322 H   0  0  0  0  0  0  0  0  0  0  0  0
   56.7327   21.2044   44.0744 H   0  0  0  0  0  0  0  0  0  0  0  0
   54.6628   22.4171   44.7317 H   0  0  0  0  0  0  0  0  0  0  0  0
  1  2  2  0
  2  3  1  0
  3  4  1  0
  4  5  1  0
  5  6  1  0
  6  7  2  0
  6  8  1  0
  8  9  1  0
  9 10  1  0
 10 11  1  0
 11 12  1  0
 12 13  1  0
 13 14  1  0
 14 15  1  0
 15 16  1  0
 16 17  1  0
 17 18  2  0
 18 19  1  0
 19 20  2  0
 20 21  1  0
 21 22  2  0
 16 23  1  0
 23 24  2  0
  2 25  1  0
 25 26  1  0
 26 27  2  0
 27 28  1  0
 28 29  2  0
 29 30  1  0
 30 31  2  0
 31 32  1  0
 32 33  2  0
 32 34  1  0
  9  4  2  0
 23 12  1  0
 31 26  1  0
 22 17  1  0
  3 35  1  0
  3 36  1  0
 10 37  1  0
 10 38  1  0
 12 39  1  6
 13 40  1  0
 13 41  1  0
 14 42  1  0
 14 43  1  0
 15 44  1  0
 15 45  1  0
 18 46  1  0
 19 47  1  0
 20 48  1  0
 21 49  1  0
 22 50  1  0
 25 51  1  0
 27 52  1  0
 28 53  1  0
 29 54  1  0
 30 55  1  0
M  CHG  3   5  -1   8  -1  34  -1
M  END
>  <UniqueID>  (58) 
57

>  <SMILES>  (58) 
O=C(Cc1[n-]c(=O)[n-]c1CS[C@@H]1CCCN(c2ccccc2)C1=O)Nc1ccccc1C(=O)[O-]

>  <Energy>  (58) 
96.61542188463888

>  <Genealogy>  (58) 
O=C(Cc1[n-]c(=O)[n-]c1CSC1CCCN(c2ccccc2)C1=O)Nc1ccccc1C(=O)[O-] (protonated)
O=C(Cc1[n-]c(=O)[n-]c1CS[C@@H]1CCCN(c2ccccc2)C1=O)Nc1ccccc1C(=O)[O-] (chirality)
O=C(Cc1[n-]c(=O)[n-]c1CS[C@@H]1CCCN(c2ccccc2)C1=O)Nc1ccccc1C(=O)[O-] (3D coordinates assigned)
O=C(Cc1[n-]c(=O)[n-]c1CS[C@@H]1CCCN(c2ccccc2)C1=O)Nc1ccccc1C(=O)[O-] (nonaromatic ring conformer: 96.61542188463888 kcal/mol)

>  <smiles>  (58) 
O=C(Cc1[nH]c(=O)[nH]c1CSC1CCCN(c2ccccc2)C1=O)Nc1ccccc1C(=O)O

>  <score_type>  (58) 
oracle

>  <origin>  (58) 
adg

>  <m_score__min__energy>  (58) 
-16.109999999999999

>  <m_primary>  (58) 
energy

$$$$
58:0
     RDKit          3D

 33 35  0  0  0  0  0  0  0  0999 V2000
   60.6090   30.5350   46.7400 C   0  0  0  0  0  0  0  0  0  0  0  0
   59.4280   30.2790   46.1350 C   0  0  0  0  0  0  0  0  0  0  0  0
   59.0870   28.9440   45.8070 C   0  0  0  0  0  0  0  0  0  0  0  0
   59.8990   28.0070   46.0460 O   0  0  0  0  0  0  0  0  0  0  0  0
   57.8430   28.6860   45.1830 C   0  0  0  0  0  0  0  0  0  0  0  0
   57.4000   27.4580   44.8400 C   0  0  0  0  0  0  0  0  0  0  0  0
   57.2510   26.3030   45.7510 C   0  0  0  0  0  0  0  0  0  0  0  0
   56.0000   25.9560   46.2870 C   0  0  0  0  0  0  0  0  0  0  0  0
   54.8700   26.7140   46.0010 O   0  0  0  0  0  0  0  0  0  0  0  0
   55.8850   24.8660   47.0890 N   0  0  0  0  0  0  0  0  0  0  0  0
   56.9620   24.0890   47.3720 C   0  0  0  0  0  0  0  0  0  0  0  0
   56.8330   23.0860   48.1210 O   0  0  0  0  0  0  0  0  0  0  0  0
   58.1760   24.3900   46.8460 N   0  0  0  0  0  0  0  0  0  0  0  0
   58.3440   25.4700   46.0390 C   0  0  0  0  0  0  0  0  0  0  0  0
   59.4830   25.7170   45.5620 O   0  0  0  0  0  0  0  0  0  0  0  0
   57.0410   29.7380   44.8840 N   0  0  0  0  0  0  0  0  0  0  0  0
   57.3700   31.0160   45.1870 C   0  0  0  0  0  0  0  0  0  0  0  0
   56.5660   31.9390   44.8810 O   0  0  0  0  0  0  0  0  0  0  0  0
   58.5510   31.2980   45.8200 N   0  0  0  0  0  0  0  0  0  0  0  0
   58.8420   32.6750   46.1360 C   0  0  0  0  0  0  0  0  0  0  0  0
   58.9600   33.0770   47.4750 C   0  0  0  0  0  0  0  0  0  0  0  0
   59.2400   34.4110   47.7840 C   0  0  0  0  0  0  0  0  0  0  0  0
   59.4060   35.3480   46.7600 C   0  0  0  0  0  0  0  0  0  0  0  0
   59.2920   34.9510   45.4240 C   0  0  0  0  0  0  0  0  0  0  0  0
   59.0110   33.6180   45.1090 C   0  0  0  0  0  0  0  0  0  0  0  0
   58.9030   33.2400   43.8110 F   0  0  0  0  0  0  0  0  0  0  0  0
   60.8819   31.5688   46.9983 H   0  0  0  0  0  0  0  0  0  0  0  0
   61.2973   29.7096   46.9741 H   0  0  0  0  0  0  0  0  0  0  0  0
   57.1247   27.3023   43.7865 H   0  0  0  0  0  0  0  0  0  0  0  0
   58.8320   32.3413   48.2827 H   0  0  0  0  0  0  0  0  0  0  0  0
   59.3299   34.7241   48.8347 H   0  0  0  0  0  0  0  0  0  0  0  0
   59.6263   36.3975   47.0051 H   0  0  0  0  0  0  0  0  0  0  0  0
   59.4237   35.6891   44.6191 H   0  0  0  0  0  0  0  0  0  0  0  0
  1  2  2  0
  2  3  1  0
  3  4  2  0
  3  5  1  0
  5  6  2  3
  6  7  1  0
  7  8  2  0
  8  9  1  0
  8 10  1  0
 10 11  1  0
 11 12  2  0
 11 13  1  0
 13 14  1  0
 14 15  2  0
  5 16  1  0
 16 17  1  0
 17 18  2  0
 17 19  1  0
 19 20  1  0
 20 21  2  0
 21 22  1  0
 22 23  2  0
 23 24  1  0
 24 25  2  0
 25 26  1  0
 19  2  1  0
 25 20  1  0
 14  7  1  0
  1 27  1  0
  1 28  1  0
  6 29  1  0
 21 30  1  0
 22 31  1  0
 23 32  1  0
 24 33  1  0
M  CHG  4   9  -1  10  -1  13  -1  16  -1
M  END
>  <UniqueID>  (59) 
58

>  <SMILES>  (59) 
C=c1c(=O)c(=Cc2c([O-])[n-]c(=O)[n-]c2=O)[n-]c(=O)n1-c1ccccc1F

>  <Energy>  (59) 
67.64744971767024

>  <Genealogy>  (59) 
C=c1c(=O)c(=Cc2c([O-])[n-]c(=O)[n-]c2=O)[n-]c(=O)n1-c1ccccc1F (protonated)
C=c1c(=O)c(=Cc2c([O-])[n-]c(=O)[n-]c2=O)[n-]c(=O)n1-c1ccccc1F (3D coordinates assigned)
C=c1c(=O)c(=Cc2c([O-])[n-]c(=O)[n-]c2=O)[n-]c(=O)n1-c1ccccc1F (optimized conformer: 67.64744971767024 kcal/mol)

>  <smiles>  (59) 
C=c1c(=O)c(=Cc2c(O)[nH]c(=O)[nH]c2=O)[nH]c(=O)n1-c1ccccc1F

>  <score_type>  (59) 
oracle

>  <origin>  (59) 
adg

>  <m_score__min__energy>  (59) 
-17.149999999999999

>  <m_primary>  (59) 
energy

$$$$
59:0
     RDKit          3D

 53 56  0  0  0  0  0  0  0  0999 V2000
   54.5980   28.5660   44.4970 H   0  0  0  0  0  0  0  0  0  0  0  0
   55.5350   28.9300   44.6370 O   0  0  0  0  0  0  0  0  0  0  0  0
   56.5230   28.1730   45.2630 C   0  0  0  0  0  0  0  0  0  0  0  0
   57.8590   28.6010   45.2540 C   0  0  0  0  0  0  0  0  0  0  0  0
   58.1270   29.5469   44.7605 H   0  0  0  0  0  0  0  0  0  0  0  0
   58.8570   27.8280   45.8720 C   0  0  0  0  0  0  0  0  0  0  0  0
   60.2940   28.2830   45.8650 C   0  0  0  0  0  0  0  0  0  0  0  0
   60.5771   28.5503   44.8362 H   0  0  0  0  0  0  0  0  0  0  0  0
   60.9140   27.4581   46.2461 H   0  0  0  0  0  0  0  0  0  0  0  0
   60.5070   29.4590   46.7410 N   0  0  0  0  0  0  0  0  0  0  0  0
   60.4170   29.0970   48.1820 C   0  0  0  0  0  0  0  0  0  0  0  0
   59.8434   28.1645   48.2893 H   0  0  0  0  0  0  0  0  0  0  0  0
   61.4306   28.9567   48.5856 H   0  0  0  0  0  0  0  0  0  0  0  0
   59.7250   30.2020   48.9440 C   0  0  0  0  0  0  0  0  0  0  0  0
   59.4560   31.4190   48.2950 C   0  0  0  0  0  0  0  0  0  0  0  0
   59.8022   31.5715   47.2621 H   0  0  0  0  0  0  0  0  0  0  0  0
   58.7510   32.4430   48.9480 C   0  0  0  0  0  0  0  0  0  0  0  0
   58.5950   33.7360   48.3440 N   0  0  0  0  0  0  0  0  0  0  0  0
   58.7440   34.1280   47.1050 C   0  0  0  0  0  0  0  0  0  0  0  0
   59.3870   35.3600   46.9190 C   0  0  0  0  0  0  0  0  0  0  0  0
   59.5720   36.0153   47.7830 H   0  0  0  0  0  0  0  0  0  0  0  0
   59.7930   35.7600   45.6490 C   0  0  0  0  0  0  0  0  0  0  0  0
   60.3287   36.7118   45.5188 H   0  0  0  0  0  0  0  0  0  0  0  0
   59.5300   34.9800   44.5730 N   0  0  0  0  0  0  0  0  0  0  0  0
   58.8280   33.8240   44.6800 C   0  0  0  0  0  0  0  0  0  0  0  0
   58.5260   33.1020   43.5190 C   0  0  0  0  0  0  0  0  0  0  0  0
   58.9492   33.4151   42.5531 H   0  0  0  0  0  0  0  0  0  0  0  0
   57.6910   31.9880   43.5830 C   0  0  0  0  0  0  0  0  0  0  0  0
   57.4781   31.4072   42.6734 H   0  0  0  0  0  0  0  0  0  0  0  0
   57.1260   31.6100   44.7990 C   0  0  0  0  0  0  0  0  0  0  0  0
   56.4318   30.7576   44.8382 H   0  0  0  0  0  0  0  0  0  0  0  0
   57.4370   32.3090   45.9710 C   0  0  0  0  0  0  0  0  0  0  0  0
   56.9615   32.0197   46.9198 H   0  0  0  0  0  0  0  0  0  0  0  0
   58.3560   33.3830   45.9480 C   0  0  0  0  0  0  0  0  0  0  0  0
   58.3670   32.2680   50.2810 C   0  0  0  0  0  0  0  0  0  0  0  0
   57.8353   33.0742   50.8077 H   0  0  0  0  0  0  0  0  0  0  0  0
   58.6550   31.0750   50.9470 C   0  0  0  0  0  0  0  0  0  0  0  0
   58.3389   30.9422   51.9922 H   0  0  0  0  0  0  0  0  0  0  0  0
   59.3430   30.0480   50.2930 C   0  0  0  0  0  0  0  0  0  0  0  0
   59.6510   28.8880   50.9960 O   0  0  0  0  0  0  0  0  0  0  0  0
   61.8060   30.0960   46.4230 C   0  0  0  0  0  0  0  0  0  0  0  0
   61.7205   30.6292   45.4647 H   0  0  0  0  0  0  0  0  0  0  0  0
   62.5752   29.3123   46.3597 H   0  0  0  0  0  0  0  0  0  0  0  0
   62.2090   31.0880   47.5130 C   0  0  0  0  0  0  0  0  0  0  0  0
   62.0272   30.6406   48.5013 H   0  0  0  0  0  0  0  0  0  0  0  0
   63.2770   31.3307   47.4112 H   0  0  0  0  0  0  0  0  0  0  0  0
   61.6128   32.0068   47.4112 H   0  0  0  0  0  0  0  0  0  0  0  0
   58.4940   26.6440   46.5330 C   0  0  0  0  0  0  0  0  0  0  0  0
   59.2625   26.0495   47.0488 H   0  0  0  0  0  0  0  0  0  0  0  0
   57.1660   26.2150   46.5410 C   0  0  0  0  0  0  0  0  0  0  0  0
   56.8945   25.2773   47.0481 H   0  0  0  0  0  0  0  0  0  0  0  0
   56.1800   26.9760   45.9050 C   0  0  0  0  0  0  0  0  0  0  0  0
   54.8600   26.5400   45.9120 O   0  0  0  0  0  0  0  0  0  0  0  0
  1  2  1  0
  2  3  1  0
  3  4  2  0
  4  5  1  0
  4  6  1  0
  6  7  1  0
  7  8  1  0
  7  9  1  0
  7 10  1  0
 10 11  1  0
 11 12  1  0
 11 13  1  0
 11 14  1  0
 14 15  2  0
 15 16  1  0
 15 17  1  0
 17 18  1  0
 18 19  2  0
 19 20  1  0
 20 21  1  0
 20 22  2  0
 22 23  1  0
 22 24  1  0
 24 25  1  0
 25 26  2  0
 26 27  1  0
 26 28  1  0
 28 29  1  0
 28 30  2  0
 30 31  1  0
 30 32  1  0
 32 33  1  0
 32 34  2  0
 17 35  2  0
 35 36  1  0
 35 37  1  0
 37 38  1  0
 37 39  2  0
 39 40  1  0
 10 41  1  0
 41 42  1  0
 41 43  1  0
 41 44  1  0
 44 45  1  0
 44 46  1  0
 44 47  1  0
  6 48  2  0
 48 49  1  0
 48 50  1  0
 50 51  1  0
 50 52  2  0
 52 53  1  0
 52  3  1  0
 39 14  1  0
 34 19  1  0
 34 25  1  0
M  CHG  3  24  -1  40  -1  53  -1
M  END
>  <UniqueID>  (60) 
59

>  <SMILES>  (60) 
CCN(Cc1ccc([O-])c(O)c1)Cc1cc(/N=c2/cc[n-]c3ccccc23)ccc1[O-]

>  <Energy>  (60) 
78.53352586140589

>  <Genealogy>  (60) 
CCN(Cc1ccc([O-])c(O)c1)Cc1cc(N=c2cc[n-]c3ccccc23)ccc1[O-] (protonated)
CCN(Cc1ccc([O-])c(O)c1)Cc1cc(/N=c2/cc[n-]c3ccccc23)ccc1[O-] (cis-trans isomerization)
CCN(Cc1ccc([O-])c(O)c1)Cc1cc(/N=c2/cc[n-]c3ccccc23)ccc1[O-] (3D coordinates assigned)
CCN(Cc1ccc([O-])c(O)c1)Cc1cc(/N=c2/cc[n-]c3ccccc23)ccc1[O-] (optimized conformer: 78.53352586140589 kcal/mol)

>  <smiles>  (60) 
CCN(Cc1ccc(O)c(O)c1)Cc1cc(N=c2cc[nH]c3ccccc23)ccc1O

>  <score_type>  (60) 
oracle

>  <origin>  (60) 
adg

>  <m_score__min__energy>  (60) 
-14.84

>  <m_primary>  (60) 
energy

$$$$
60:0
     RDKit          3D

 34 36  0  0  0  0  0  0  0  0999 V2000
   63.6920   33.0890   46.7440 C   0  0  0  0  0  0  0  0  0  0  0  0
   63.2740   33.4570   48.0940 C   0  0  0  0  0  0  0  0  0  0  0  0
   64.2780   33.4610   49.0810 C   0  0  0  0  0  0  0  0  0  0  0  0
   64.0040   33.7430   50.3940 C   0  0  0  0  0  0  0  0  0  0  0  0
   62.7130   34.0240   50.7270 C   0  0  0  0  0  0  0  0  0  0  0  0
   61.7340   34.0230   49.7690 C   0  0  0  0  0  0  0  0  0  0  0  0
   61.9740   33.7410   48.4160 C   0  0  0  0  0  0  0  0  0  0  0  0
   60.8600   33.8450   47.5150 C   0  0  0  0  0  0  0  0  0  0  0  0
   59.7880   33.0340   47.7750 N   0  0  0  0  0  0  0  0  0  0  0  0
   58.6890   32.9620   47.0180 C   0  0  0  0  0  0  0  0  0  0  0  0
   57.7810   32.1860   47.3560 O   0  0  0  0  0  0  0  0  0  0  0  0
   58.5870   33.7400   45.8880 C   0  0  0  0  0  0  0  0  0  0  0  0
   57.3630   33.6510   45.0530 C   0  0  0  0  0  0  0  0  0  0  0  0
   57.2580   32.2660   44.5160 C   0  0  0  0  0  0  0  0  0  0  0  0
   58.0960   31.6570   43.5960 C   0  0  0  0  0  0  0  0  0  0  0  0
   57.6590   30.3950   43.3680 N   0  0  0  0  0  0  0  0  0  0  0  0
   56.5520   30.2100   44.1390 C   0  0  0  0  0  0  0  0  0  0  0  0
   56.3160   31.3550   44.8340 N   0  0  0  0  0  0  0  0  0  0  0  0
   59.6490   34.5650   45.6040 C   0  0  0  0  0  0  0  0  0  0  0  0
   60.7490   34.5940   46.4220 N   0  0  0  0  0  0  0  0  0  0  0  0
   64.5165   32.3631   46.8005 H   0  0  0  0  0  0  0  0  0  0  0  0
   62.8437   32.6392   46.2073 H   0  0  0  0  0  0  0  0  0  0  0  0
   64.0306   33.9875   46.2073 H   0  0  0  0  0  0  0  0  0  0  0  0
   65.3134   33.2309   48.7896 H   0  0  0  0  0  0  0  0  0  0  0  0
   64.7997   33.7425   51.1535 H   0  0  0  0  0  0  0  0  0  0  0  0
   62.4554   34.2531   51.7716 H   0  0  0  0  0  0  0  0  0  0  0  0
   60.7041   34.2559   50.0773 H   0  0  0  0  0  0  0  0  0  0  0  0
   56.4784   33.8797   45.6655 H   0  0  0  0  0  0  0  0  0  0  0  0
   57.4177   34.3734   44.2253 H   0  0  0  0  0  0  0  0  0  0  0  0
   58.9747   32.1231   43.1263 H   0  0  0  0  0  0  0  0  0  0  0  0
   58.0900   29.6770   42.7140 H   0  0  0  0  0  0  0  0  0  0  0  0
   55.9506   29.2904   44.1909 H   0  0  0  0  0  0  0  0  0  0  0  0
   59.6161   35.2080   44.7121 H   0  0  0  0  0  0  0  0  0  0  0  0
   61.4710   35.2490   46.1540 H   0  0  0  0  0  0  0  0  0  0  0  0
  1  2  1  0
  2  3  2  0
  3  4  1  0
  4  5  2  0
  5  6  1  0
  6  7  2  0
  7  8  1  0
  8  9  2  0
  9 10  1  0
 10 11  2  0
 10 12  1  0
 12 13  1  0
 13 14  1  0
 14 15  2  0
 15 16  1  0
 16 17  1  0
 17 18  2  0
 12 19  2  0
 19 20  1  0
  7  2  1  0
 20  8  1  0
 18 14  1  0
  1 21  1  0
  1 22  1  0
  1 23  1  0
  3 24  1  0
  4 25  1  0
  5 26  1  0
  6 27  1  0
 13 28  1  0
 13 29  1  0
 15 30  1  0
 16 31  1  0
 17 32  1  0
 19 33  1  0
 20 34  1  0
M  END
>  <smiles>  (61) 
Cc1ccccc1-c1nc(=O)c(Cc2c[nH]cn2)c[nH]1

>  <score_type>  (61) 
oracle

>  <origin>  (61) 
adg

>  <m_score__min__energy>  (61) 
-7.25

>  <m_primary>  (61) 
energy

$$$$
61:0
     RDKit          3D

 50 53  0  0  0  0  0  0  0  0999 V2000
   63.7450   32.4850   47.8720 C   0  0  0  0  0  0  0  0  0  0  0  0
   63.0350   33.3380   46.9800 O   0  0  0  0  0  0  0  0  0  0  0  0
   61.6870   33.6980   47.1290 C   0  0  0  0  0  0  0  0  0  0  0  0
   60.7530   33.5630   46.0830 C   0  0  0  0  0  0  0  0  0  0  0  0
   59.4090   33.9280   46.2760 C   0  0  0  0  0  0  0  0  0  0  0  0
   58.4190   33.8150   45.1470 C   0  0  0  0  0  0  0  0  0  0  0  0
   57.1650   33.1210   45.6120 C   0  0  0  0  0  0  0  0  0  0  0  0
   56.6460   33.4580   46.7090 O   0  0  0  0  0  0  0  0  0  0  0  0
   56.5720   32.0510   44.8660 N   0  0  0  0  0  0  0  0  0  0  0  0
   57.1180   30.7370   44.6860 C   0  0  0  0  0  0  0  0  0  0  0  0
   56.9010   30.0070   43.5070 C   0  0  0  0  0  0  0  0  0  0  0  0
   57.4220   28.7170   43.3730 C   0  0  0  0  0  0  0  0  0  0  0  0
   58.1500   28.1410   44.4180 C   0  0  0  0  0  0  0  0  0  0  0  0
   58.3530   28.8550   45.6150 C   0  0  0  0  0  0  0  0  0  0  0  0
   59.0740   28.3250   46.6990 O   0  0  0  0  0  0  0  0  0  0  0  0
   58.6650   27.2110   47.4930 C   0  0  0  0  0  0  0  0  0  0  0  0
   57.7910   26.2900   46.7010 C   0  0  0  0  0  0  0  0  0  0  0  0
   58.3320   25.2100   46.0770 N   0  0  0  0  0  0  0  0  0  0  0  0
   57.5590   24.3580   45.3550 C   0  0  0  0  0  0  0  0  0  0  0  0
   58.1400   23.2560   44.7160 C   0  0  0  0  0  0  0  0  0  0  0  0
   57.3450   22.3800   43.9720 C   0  0  0  0  0  0  0  0  0  0  0  0
   55.9680   22.5990   43.8640 C   0  0  0  0  0  0  0  0  0  0  0  0
   55.3780   23.6970   44.5000 C   0  0  0  0  0  0  0  0  0  0  0  0
   56.1710   24.5850   45.2500 C   0  0  0  0  0  0  0  0  0  0  0  0
   55.6340   25.7020   45.9120 C   0  0  0  0  0  0  0  0  0  0  0  0
   54.4010   25.9570   45.8590 O   0  0  0  0  0  0  0  0  0  0  0  0
   56.4530   26.5220   46.6200 N   0  0  0  0  0  0  0  0  0  0  0  0
   57.8220   30.1440   45.7420 C   0  0  0  0  0  0  0  0  0  0  0  0
   59.0070   34.4490   47.5140 C   0  0  0  0  0  0  0  0  0  0  0  0
   59.9300   34.5850   48.5520 C   0  0  0  0  0  0  0  0  0  0  0  0
   61.2630   34.2110   48.3630 C   0  0  0  0  0  0  0  0  0  0  0  0
   62.1700   34.3520   49.4070 O   0  0  0  0  0  0  0  0  0  0  0  0
   63.5122   32.7647   48.9101 H   0  0  0  0  0  0  0  0  0  0  0  0
   63.4454   31.4411   47.6975 H   0  0  0  0  0  0  0  0  0  0  0  0
   64.8260   32.5902   47.6975 H   0  0  0  0  0  0  0  0  0  0  0  0
   61.0775   33.1693   45.1085 H   0  0  0  0  0  0  0  0  0  0  0  0
   58.1630   34.8227   44.7878 H   0  0  0  0  0  0  0  0  0  0  0  0
   58.8711   33.2264   44.3351 H   0  0  0  0  0  0  0  0  0  0  0  0
   56.3192   30.4515   42.6861 H   0  0  0  0  0  0  0  0  0  0  0  0
   57.2587   28.1534   42.4426 H   0  0  0  0  0  0  0  0  0  0  0  0
   58.5650   27.1285   44.3054 H   0  0  0  0  0  0  0  0  0  0  0  0
   59.5561   26.6617   47.8308 H   0  0  0  0  0  0  0  0  0  0  0  0
   58.0956   27.5828   48.3576 H   0  0  0  0  0  0  0  0  0  0  0  0
   59.2226   23.0797   44.7996 H   0  0  0  0  0  0  0  0  0  0  0  0
   57.8038   21.5155   43.4698 H   0  0  0  0  0  0  0  0  0  0  0  0
   55.3469   21.9061   43.2774 H   0  0  0  0  0  0  0  0  0  0  0  0
   54.2945   23.8659   44.4136 H   0  0  0  0  0  0  0  0  0  0  0  0
   57.9592   30.6979   46.6824 H   0  0  0  0  0  0  0  0  0  0  0  0
   57.9607   34.7516   47.6677 H   0  0  0  0  0  0  0  0  0  0  0  0
   59.6067   34.9883   49.5230 H   0  0  0  0  0  0  0  0  0  0  0  0
  1  2  1  0
  2  3  1  0
  3  4  2  0
  4  5  1  0
  5  6  1  0
  6  7  1  0
  7  8  2  0
  7  9  1  0
  9 10  1  0
 10 11  2  0
 11 12  1  0
 12 13  2  0
 13 14  1  0
 14 15  1  0
 15 16  1  0
 16 17  1  0
 17 18  2  0
 18 19  1  0
 19 20  2  0
 20 21  1  0
 21 22  2  0
 22 23  1  0
 23 24  2  0
 24 25  1  0
 25 26  2  0
 25 27  1  0
 14 28  2  0
  5 29  2  0
 29 30  1  0
 30 31  2  0
 31 32  1  0
 31  3  1  0
 28 10  1  0
 27 17  1  0
 24 19  1  0
  1 33  1  0
  1 34  1  0
  1 35  1  0
  4 36  1  0
  6 37  1  0
  6 38  1  0
 11 39  1  0
 12 40  1  0
 13 41  1  0
 16 42  1  0
 16 43  1  0
 20 44  1  0
 21 45  1  0
 22 46  1  0
 23 47  1  0
 28 48  1  0
 29 49  1  0
 30 50  1  0
M  CHG  3   9  -1  27  -1  32  -1
M  END
>  <UniqueID>  (62) 
60

>  <SMILES>  (62) 
COc1cc(CC(=O)[N-]c2cccc(OCc3nc4ccccc4c(=O)[n-]3)c2)ccc1[O-]

>  <Energy>  (62) 
61.95320805474893

>  <Genealogy>  (62) 
COc1cc(CC(=O)[N-]c2cccc(OCc3nc4ccccc4c(=O)[n-]3)c2)ccc1[O-] (protonated)
COc1cc(CC(=O)[N-]c2cccc(OCc3nc4ccccc4c(=O)[n-]3)c2)ccc1[O-] (3D coordinates assigned)
COc1cc(CC(=O)[N-]c2cccc(OCc3nc4ccccc4c(=O)[n-]3)c2)ccc1[O-] (optimized conformer: 61.95320805474893 kcal/mol)

>  <smiles>  (62) 
COc1cc(CC(=O)Nc2cccc(OCc3nc4ccccc4c(=O)[nH]3)c2)ccc1O

>  <score_type>  (62) 
oracle

>  <origin>  (62) 
adg

>  <m_score__min__energy>  (62) 
-16.16

>  <m_primary>  (62) 
energy

$$$$
62:0
     RDKit          3D

 39 41  0  0  0  0  0  0  0  0999 V2000
   61.2080   33.6690   48.3970 C   0  0  0  0  0  0  0  0  0  0  0  0
   61.3000   32.7220   47.3380 O   0  0  0  0  0  0  0  0  0  0  0  0
   60.2010   32.0660   46.7590 C   0  0  0  0  0  0  0  0  0  0  0  0
   60.0260   30.6720   46.8630 C   0  0  0  0  0  0  0  0  0  0  0  0
   58.9210   30.0520   46.2750 C   0  0  0  0  0  0  0  0  0  0  0  0
   58.7590   28.7080   46.3810 N   0  0  0  0  0  0  0  0  0  0  0  0
   57.6890   28.0790   45.8270 C   0  0  0  0  0  0  0  0  0  0  0  0
   57.5680   26.6090   45.9240 C   0  0  0  0  0  0  0  0  0  0  0  0
   58.7280   25.8330   45.7620 C   0  0  0  0  0  0  0  0  0  0  0  0
   58.6560   24.4410   45.7500 C   0  0  0  0  0  0  0  0  0  0  0  0
   57.4290   23.8030   45.9190 C   0  0  0  0  0  0  0  0  0  0  0  0
   56.2660   24.5490   46.1390 C   0  0  0  0  0  0  0  0  0  0  0  0
   55.0320   23.8450   46.3260 N   0  0  0  0  0  0  0  0  0  0  0  0
   53.8650   24.0040   45.5130 C   0  0  0  0  0  0  0  0  0  0  0  0
   53.1570   25.2420   45.4860 N   0  0  0  0  0  0  0  0  0  0  0  0
   53.4340   23.0240   44.8500 O   0  0  0  0  0  0  0  0  0  0  0  0
   56.3220   25.9600   46.1280 C   0  0  0  0  0  0  0  0  0  0  0  0
   55.1420   26.6820   46.3250 O   0  0  0  0  0  0  0  0  0  0  0  0
   56.7730   28.8020   45.1260 N   0  0  0  0  0  0  0  0  0  0  0  0
   56.8840   30.1480   44.9890 C   0  0  0  0  0  0  0  0  0  0  0  0
   56.0060   30.7760   44.3400 O   0  0  0  0  0  0  0  0  0  0  0  0
   57.9730   30.8190   45.5700 C   0  0  0  0  0  0  0  0  0  0  0  0
   58.1460   32.2100   45.4640 C   0  0  0  0  0  0  0  0  0  0  0  0
   59.2590   32.8360   46.0580 C   0  0  0  0  0  0  0  0  0  0  0  0
   59.4660   34.2220   45.9750 O   0  0  0  0  0  0  0  0  0  0  0  0
   59.0750   35.0330   44.8710 C   0  0  0  0  0  0  0  0  0  0  0  0
   61.2589   33.1451   49.3629 H   0  0  0  0  0  0  0  0  0  0  0  0
   62.0409   34.3837   48.3232 H   0  0  0  0  0  0  0  0  0  0  0  0
   60.2531   34.2100   48.3232 H   0  0  0  0  0  0  0  0  0  0  0  0
   60.7643   30.0679   47.4108 H   0  0  0  0  0  0  0  0  0  0  0  0
   59.7027   26.3289   45.6435 H   0  0  0  0  0  0  0  0  0  0  0  0
   59.5695   23.8452   45.6069 H   0  0  0  0  0  0  0  0  0  0  0  0
   57.3742   22.7051   45.8792 H   0  0  0  0  0  0  0  0  0  0  0  0
   53.6450   26.1330   45.2450 H   0  0  0  0  0  0  0  0  0  0  0  0
   54.2280   26.2550   46.3710 H   0  0  0  0  0  0  0  0  0  0  0  0
   57.4082   32.8127   44.9142 H   0  0  0  0  0  0  0  0  0  0  0  0
   58.6253   35.9657   45.2423 H   0  0  0  0  0  0  0  0  0  0  0  0
   59.9579   35.2698   44.2591 H   0  0  0  0  0  0  0  0  0  0  0  0
   58.3399   34.4897   44.2591 H   0  0  0  0  0  0  0  0  0  0  0  0
  1  2  1  0
  2  3  1  0
  3  4  2  0
  4  5  1  0
  5  6  1  0
  6  7  1  0
  7  8  1  0
  8  9  2  0
  9 10  1  0
 10 11  2  0
 11 12  1  0
 12 13  1  0
 13 14  1  0
 14 15  1  0
 14 16  2  0
 12 17  2  0
 17 18  1  0
  7 19  2  0
 19 20  1  0
 20 21  2  0
 20 22  1  0
 22 23  1  0
 23 24  2  0
 24 25  1  0
 25 26  1  0
 24  3  1  0
 22  5  2  0
 17  8  1  0
  1 27  1  0
  1 28  1  0
  1 29  1  0
  4 30  1  0
  9 31  1  0
 10 32  1  0
 11 33  1  0
 15 34  1  0
 18 35  1  0
 23 36  1  0
 26 37  1  0
 26 38  1  0
 26 39  1  0
M  CHG  3   6  -1  13  -1  15  -1
M  END
>  <UniqueID>  (63) 
61

>  <SMILES>  (63) 
COc1cc2[n-]c(-c3cccc([N-]C([NH-])=O)c3O)nc(=O)c2cc1OC

>  <Energy>  (63) 
56.88456680034269

>  <Genealogy>  (63) 
COc1cc2[n-]c(-c3cccc([N-]C([NH-])=O)c3O)nc(=O)c2cc1OC (protonated)
COc1cc2[n-]c(-c3cccc([N-]C([NH-])=O)c3O)nc(=O)c2cc1OC (3D coordinates assigned)
COc1cc2[n-]c(-c3cccc([N-]C([NH-])=O)c3O)nc(=O)c2cc1OC (optimized conformer: 56.88456680034269 kcal/mol)

>  <smiles>  (63) 
COc1cc2[nH]c(-c3cccc(NC(N)=O)c3O)nc(=O)c2cc1OC

>  <score_type>  (63) 
oracle

>  <origin>  (63) 
adg

>  <m_score__min__energy>  (63) 
-13.51

>  <m_primary>  (63) 
energy

$$$$
63:0
     RDKit          3D

 58 61  0  0  0  0  0  0  0  0999 V2000
   61.1470   28.2480   51.2580 C   0  0  0  0  0  0  0  0  0  0  0  0
   60.3570   28.3620   49.9860 C   0  0  0  0  0  0  0  0  0  0  0  0
   59.4480   29.4160   49.8130 C   0  0  0  0  0  0  0  0  0  0  0  0
   58.6830   29.5060   48.6470 C   0  0  0  0  0  0  0  0  0  0  0  0
   58.8020   28.5330   47.6400 C   0  0  0  0  0  0  0  0  0  0  0  0
   58.0360   28.6350   46.4230 N   0  0  0  0  0  0  0  0  0  0  0  0
   58.1620   29.9640   45.8880 C   0  0  0  0  0  0  0  0  0  0  0  0
   59.0950   30.8300   46.3360 N   0  0  0  0  0  0  0  0  0  0  0  0
   58.8710   31.9820   45.6760 C   0  0  0  0  0  0  0  0  0  0  0  0
   59.6530   33.2080   45.9180 C   0  0  0  0  0  0  0  0  0  0  0  0
   59.3380   34.2610   45.3010 O   0  0  0  0  0  0  0  0  0  0  0  0
   60.7620   33.2270   46.8350 N   0  0  0  0  0  0  0  0  0  0  0  0
   60.5900   32.6610   48.1840 C   0  0  0  0  0  0  0  0  0  0  0  0
   61.5680   33.2900   49.1810 C   0  0  0  0  0  0  0  0  0  0  0  0
   62.9300   33.2510   48.6410 N   0  0  0  0  0  0  0  0  0  0  0  0
   64.0280   32.8090   49.4560 C   0  0  0  0  0  0  0  0  0  0  0  0
   64.7960   31.9110   49.0160 O   0  0  0  0  0  0  0  0  0  0  0  0
   64.2800   33.3890   50.7490 N   0  0  0  0  0  0  0  0  0  0  0  0
   63.7220   34.6560   51.1920 C   0  0  0  0  0  0  0  0  0  0  0  0
   64.3700   34.9480   52.5400 C   0  0  0  0  0  0  0  0  0  0  0  0
   65.5600   34.0010   52.6550 C   0  0  0  0  0  0  0  0  0  0  0  0
   65.3200   32.8950   51.6380 C   0  0  0  0  0  0  0  0  0  0  0  0
   63.1750   33.5500   47.2240 C   0  0  0  0  0  0  0  0  0  0  0  0
   61.9150   34.0850   46.5350 C   0  0  0  0  0  0  0  0  0  0  0  0
   57.7850   31.8710   44.8290 C   0  0  0  0  0  0  0  0  0  0  0  0
   57.3230   30.5760   44.9560 C   0  0  0  0  0  0  0  0  0  0  0  0
   56.1580   30.0290   44.2290 C   0  0  0  0  0  0  0  0  0  0  0  0
   55.3160   29.0700   44.8650 N   0  0  0  0  0  0  0  0  0  0  0  0
   55.8840   30.4090   43.0610 O   0  0  0  0  0  0  0  0  0  0  0  0
   59.7080   27.4730   47.8210 C   0  0  0  0  0  0  0  0  0  0  0  0
   60.4730   27.3820   48.9860 C   0  0  0  0  0  0  0  0  0  0  0  0
   61.3180   26.3320   49.1460 F   0  0  0  0  0  0  0  0  0  0  0  0
   60.4704   28.3456   52.1198 H   0  0  0  0  0  0  0  0  0  0  0  0
   61.6463   27.2685   51.2930 H   0  0  0  0  0  0  0  0  0  0  0  0
   61.9029   29.0464   51.2930 H   0  0  0  0  0  0  0  0  0  0  0  0
   59.3366   30.1765   50.5999 H   0  0  0  0  0  0  0  0  0  0  0  0
   57.9828   30.3443   48.5165 H   0  0  0  0  0  0  0  0  0  0  0  0
   57.0380   28.3800   46.5860 H   0  0  0  0  0  0  0  0  0  0  0  0
   58.4060   27.9550   45.7200 H   0  0  0  0  0  0  0  0  0  0  0  0
   59.5610   32.8506   48.5235 H   0  0  0  0  0  0  0  0  0  0  0  0
   60.7912   31.5807   48.1352 H   0  0  0  0  0  0  0  0  0  0  0  0
   61.2789   34.3353   49.3645 H   0  0  0  0  0  0  0  0  0  0  0  0
   61.5371   32.7230   50.1231 H   0  0  0  0  0  0  0  0  0  0  0  0
   63.9611   35.4523   50.4718 H   0  0  0  0  0  0  0  0  0  0  0  0
   62.6259   34.6091   51.2720 H   0  0  0  0  0  0  0  0  0  0  0  0
   64.7095   35.9935   52.5813 H   0  0  0  0  0  0  0  0  0  0  0  0
   63.6593   34.8003   53.3665 H   0  0  0  0  0  0  0  0  0  0  0  0
   66.4949   34.5335   52.4262 H   0  0  0  0  0  0  0  0  0  0  0  0
   65.6542   33.5964   53.6735 H   0  0  0  0  0  0  0  0  0  0  0  0
   66.2407   32.6890   51.0724 H   0  0  0  0  0  0  0  0  0  0  0  0
   65.0211   31.9557   52.1262 H   0  0  0  0  0  0  0  0  0  0  0  0
   63.9704   34.3063   47.1510 H   0  0  0  0  0  0  0  0  0  0  0  0
   63.4726   32.6177   46.7218 H   0  0  0  0  0  0  0  0  0  0  0  0
   61.7110   35.1044   46.8943 H   0  0  0  0  0  0  0  0  0  0  0  0
   62.0798   34.0925   45.4474 H   0  0  0  0  0  0  0  0  0  0  0  0
   57.3707   32.6581   44.1819 H   0  0  0  0  0  0  0  0  0  0  0  0
   54.4390   29.3650   45.3480 H   0  0  0  0  0  0  0  0  0  0  0  0
   59.8153   26.7082   47.0377 H   0  0  0  0  0  0  0  0  0  0  0  0
  1  2  1  0
  2  3  2  0
  3  4  1  0
  4  5  2  0
  5  6  1  0
  6  7  1  0
  7  8  1  0
  8  9  1  0
  9 10  1  0
 10 11  2  0
 10 12  1  0
 12 13  1  0
 13 14  1  0
 14 15  1  0
 15 16  1  0
 16 17  2  0
 16 18  1  0
 18 19  1  0
 19 20  1  0
 20 21  1  0
 21 22  1  0
 15 23  1  0
 23 24  1  0
  9 25  2  0
 25 26  1  0
 26 27  1  0
 27 28  1  0
 27 29  2  0
  5 30  1  0
 30 31  2  0
 31 32  1  0
 31  2  1  0
 26  7  2  0
 24 12  1  0
 22 18  1  0
  1 33  1  0
  1 34  1  0
  1 35  1  0
  3 36  1  0
  4 37  1  0
  6 38  1  0
  6 39  1  0
 13 40  1  0
 13 41  1  0
 14 42  1  0
 14 43  1  0
 19 44  1  0
 19 45  1  0
 20 46  1  0
 20 47  1  0
 21 48  1  0
 21 49  1  0
 22 50  1  0
 22 51  1  0
 23 52  1  0
 23 53  1  0
 24 54  1  0
 24 55  1  0
 25 56  1  0
 28 57  1  0
 30 58  1  0
M  CHG  3   6   1   8  -1  28  -1
M  END
>  <UniqueID>  (64) 
62

>  <SMILES>  (64) 
Cc1ccc([NH2+]c2[n-]c(C(=O)N3CCN(C(=O)N4CCCC4)CC3)cc2C([NH-])=O)cc1F

>  <Energy>  (64) 
92.91675620078098

>  <Genealogy>  (64) 
Cc1ccc([NH2+]c2[n-]c(C(=O)N3CCN(C(=O)N4CCCC4)CC3)cc2C([NH-])=O)cc1F (protonated)
Cc1ccc([NH2+]c2[n-]c(C(=O)N3CCN(C(=O)N4CCCC4)CC3)cc2C([NH-])=O)cc1F (3D coordinates assigned)
Cc1ccc([NH2+]c2[n-]c(C(=O)N3CCN(C(=O)N4CCCC4)CC3)cc2C([NH-])=O)cc1F (nonaromatic ring conformer: 92.91675620078098 kcal/mol)

>  <smiles>  (64) 
Cc1ccc(Nc2[nH]c(C(=O)N3CCN(C(=O)N4CCCC4)CC3)cc2C(N)=O)cc1F

>  <score_type>  (64) 
oracle

>  <origin>  (64) 
adg

>  <m_score__min__energy>  (64) 
-10.66

>  <m_primary>  (64) 
energy

$$$$
64:0
     RDKit          3D

 47 49  0  0  0  0  0  0  0  0999 V2000
   58.9230   27.8710   44.1200 C   0  0  0  0  0  0  0  0  0  0  0  0
   58.9840   28.0700   45.4330 C   0  0  0  0  0  0  0  0  0  0  0  0
   58.5710   27.1550   46.3950 O   0  0  0  0  0  0  0  0  0  0  0  0
   58.7840   27.7340   47.6500 C   0  0  0  0  0  0  0  0  0  0  0  0
   59.3170   28.9550   47.5440 C   0  0  0  0  0  0  0  0  0  0  0  0
   59.6150   29.8860   48.6810 C   0  0  0  0  0  0  0  0  0  0  0  0
   59.5200   31.3240   48.2390 C   0  0  0  0  0  0  0  0  0  0  0  0
   58.3810   31.8660   48.1630 O   0  0  0  0  0  0  0  0  0  0  0  0
   60.6960   32.1140   47.9720 N   0  0  0  0  0  0  0  0  0  0  0  0
   62.0180   31.5600   47.7160 C   0  0  0  0  0  0  0  0  0  0  0  0
   62.9360   32.7650   47.5020 C   0  0  2  0  0  0  0  0  0  0  0  0
   64.2400   32.5710   48.1420 N   0  0  0  0  0  0  0  0  0  0  0  0
   62.1780   33.9720   48.0690 C   0  0  0  0  0  0  0  0  0  0  0  0
   60.7010   33.5700   48.0500 C   0  0  1  0  0  0  0  0  0  0  0  0
   59.9860   34.1550   46.8590 C   0  0  0  0  0  0  0  0  0  0  0  0
   60.0130   35.4000   46.6620 O   0  0  0  0  0  0  0  0  0  0  0  0
   59.2590   33.3030   45.9660 N   0  0  0  0  0  0  0  0  0  0  0  0
   58.5860   33.8350   44.7830 C   0  0  0  0  0  0  0  0  0  0  0  0
   57.9150   32.7300   44.0130 C   0  0  0  0  0  0  0  0  0  0  0  0
   57.9880   32.7000   42.6100 C   0  0  0  0  0  0  0  0  0  0  0  0
   57.3970   31.6530   41.8950 C   0  0  0  0  0  0  0  0  0  0  0  0
   56.7400   30.6240   42.5750 C   0  0  0  0  0  0  0  0  0  0  0  0
   56.6750   30.6380   43.9730 C   0  0  0  0  0  0  0  0  0  0  0  0
   55.8550   29.3410   44.8270 Cl  0  0  0  0  0  0  0  0  0  0  0  0
   57.2660   31.6840   44.6920 C   0  0  0  0  0  0  0  0  0  0  0  0
   59.4640   29.2470   46.1250 C   0  0  0  0  0  0  0  0  0  0  0  0
   59.8910   30.3160   45.6100 O   0  0  0  0  0  0  0  0  0  0  0  0
   59.2729   28.6517   43.4286 H   0  0  0  0  0  0  0  0  0  0  0  0
   58.5226   26.9257   43.7250 H   0  0  0  0  0  0  0  0  0  0  0  0
   58.5429   27.2453   48.6055 H   0  0  0  0  0  0  0  0  0  0  0  0
   58.8909   29.7095   49.4900 H   0  0  0  0  0  0  0  0  0  0  0  0
   60.6393   29.6938   49.0328 H   0  0  0  0  0  0  0  0  0  0  0  0
   62.3586   30.9662   48.5771 H   0  0  0  0  0  0  0  0  0  0  0  0
   62.0161   30.8903   46.8434 H   0  0  0  0  0  0  0  0  0  0  0  0
   63.1661   32.9149   46.4368 H   0  0  0  0  0  0  0  0  0  0  0  0
   64.9600   33.1530   47.6540 H   0  0  0  0  0  0  0  0  0  0  0  0
   64.5190   31.5690   48.0220 H   0  0  0  0  0  0  0  0  0  0  0  0
   62.5060   34.1840   49.0974 H   0  0  0  0  0  0  0  0  0  0  0  0
   62.3615   34.8833   47.4810 H   0  0  0  0  0  0  0  0  0  0  0  0
   60.1780   33.9436   48.9427 H   0  0  0  0  0  0  0  0  0  0  0  0
   59.2190   32.2770   46.1690 H   0  0  0  0  0  0  0  0  0  0  0  0
   57.8285   34.5682   45.0972 H   0  0  0  0  0  0  0  0  0  0  0  0
   59.3345   34.3146   44.1351 H   0  0  0  0  0  0  0  0  0  0  0  0
   58.5122   33.5034   42.0716 H   0  0  0  0  0  0  0  0  0  0  0  0
   57.4495   31.6396   40.7963 H   0  0  0  0  0  0  0  0  0  0  0  0
   56.2737   29.8026   42.0112 H   0  0  0  0  0  0  0  0  0  0  0  0
   57.2224   31.6873   45.7911 H   0  0  0  0  0  0  0  0  0  0  0  0
  1  2  2  0
  2  3  1  0
  3  4  1  0
  4  5  2  0
  5  6  1  0
  6  7  1  0
  7  8  2  0
  7  9  1  0
  9 10  1  0
 10 11  1  0
 11 12  1  0
 11 13  1  0
 13 14  1  0
 14 15  1  0
 15 16  2  0
 15 17  1  0
 17 18  1  0
 18 19  1  0
 19 20  2  0
 20 21  1  0
 21 22  2  0
 22 23  1  0
 23 24  1  0
 23 25  2  0
  5 26  1  0
 26 27  2  0
 26  2  1  0
 14  9  1  0
 25 19  1  0
  1 28  1  0
  1 29  1  0
  4 30  1  0
  6 31  1  0
  6 32  1  0
 10 33  1  0
 10 34  1  0
 11 35  1  6
 12 36  1  0
 12 37  1  0
 13 38  1  0
 13 39  1  0
 14 40  1  1
 17 41  1  0
 18 42  1  0
 18 43  1  0
 20 44  1  0
 21 45  1  0
 22 46  1  0
 25 47  1  0
M  END
>  <UniqueID>  (65) 
63

>  <SMILES>  (65) 
C=C1OC=C(CC(=O)N2C[C@H](N)C[C@H]2C(=O)NCc2cccc(Cl)c2)C1=O

>  <Energy>  (65) 
70.15530583934363

>  <Genealogy>  (65) 
C=C1OC=C(CC(=O)N2C[C@H](N)C[C@H]2C(=O)NCc2cccc(Cl)c2)C1=O (chirality)
C=C1OC=C(CC(=O)N2C[C@H](N)C[C@H]2C(=O)NCc2cccc(Cl)c2)C1=O (3D coordinates assigned)
C=C1OC=C(CC(=O)N2C[C@H](N)C[C@H]2C(=O)NCc2cccc(Cl)c2)C1=O (nonaromatic ring conformer: 70.15530583934363 kcal/mol)

>  <smiles>  (65) 
C=C1OC=C(CC(=O)N2CC(N)CC2C(=O)NCc2cccc(Cl)c2)C1=O

>  <score_type>  (65) 
oracle

>  <origin>  (65) 
adg

>  <m_score__min__energy>  (65) 
-8.0700000000000003

>  <m_primary>  (65) 
energy

$$$$
65:0
     RDKit          3D

 53 56  0  0  0  0  0  0  0  0999 V2000
   55.1550   30.3470   44.6890 O   0  0  0  0  0  0  0  0  0  0  0  0
   56.0280   29.4530   44.5370 C   0  0  0  0  0  0  0  0  0  0  0  0
   57.1160   29.6430   43.5300 C   0  0  0  0  0  0  0  0  0  0  0  0
   58.7590   29.4210   44.2950 S   0  0  0  0  0  0  0  0  0  0  0  0
   58.7410   30.9910   45.1580 C   0  0  0  0  0  0  0  0  0  0  0  0
   59.8090   31.3640   45.9080 N   0  0  0  0  0  0  0  0  0  0  0  0
   59.8410   32.5600   46.5590 C   0  0  0  0  0  0  0  0  0  0  0  0
   61.0440   32.9260   47.3500 C   0  0  0  0  0  0  0  0  0  0  0  0
   62.2340   32.1860   47.1940 C   0  0  0  0  0  0  0  0  0  0  0  0
   63.3750   32.5130   47.9310 C   0  0  0  0  0  0  0  0  0  0  0  0
   63.3430   33.5740   48.8380 C   0  0  0  0  0  0  0  0  0  0  0  0
   62.1680   34.3070   49.0130 C   0  0  0  0  0  0  0  0  0  0  0  0
   61.0220   33.9870   48.2780 C   0  0  0  0  0  0  0  0  0  0  0  0
   58.7400   33.4250   46.4390 C   0  0  0  0  0  0  0  0  0  0  0  0
   57.6480   33.0190   45.6700 C   0  0  0  0  0  0  0  0  0  0  0  0
   56.6460   33.7720   45.5470 O   0  0  0  0  0  0  0  0  0  0  0  0
   57.6670   31.8150   45.0470 N   0  0  0  0  0  0  0  0  0  0  0  0
   55.9350   28.2080   45.2410 N   0  0  0  0  0  0  0  0  0  0  0  0
   57.0090   27.5090   45.8820 C   0  0  0  0  0  0  0  0  0  0  0  0
   57.2460   26.1410   45.6570 C   0  0  0  0  0  0  0  0  0  0  0  0
   58.2780   25.4870   46.3360 C   0  0  0  0  0  0  0  0  0  0  0  0
   59.0710   26.1870   47.2510 C   0  0  0  0  0  0  0  0  0  0  0  0
   58.8300   27.5470   47.4980 C   0  0  0  0  0  0  0  0  0  0  0  0
   59.8110   28.4290   48.6730 S   0  0  0  0  0  0  0  0  0  0  0  0
   60.6070   27.4480   49.4870 O   0  0  0  0  0  0  0  0  0  0  0  0
   60.7780   29.3180   47.9410 O   0  0  0  0  0  0  0  0  0  0  0  0
   58.8240   29.3940   49.7470 N   0  0  0  0  0  0  0  0  0  0  0  0
   59.3130   29.2950   51.1360 C   0  0  0  0  0  0  0  0  0  0  0  0
   58.8440   30.5010   51.9660 C   0  0  0  0  0  0  0  0  0  0  0  0
   59.3090   31.7530   51.4740 O   0  0  0  0  0  0  0  0  0  0  0  0
   59.5950   31.7520   50.0810 C   0  0  0  0  0  0  0  0  0  0  0  0
   58.7050   30.7900   49.2710 C   0  0  0  0  0  0  0  0  0  0  0  0
   57.7980   28.2000   46.8110 C   0  0  0  0  0  0  0  0  0  0  0  0
   56.9922   28.9060   42.7228 H   0  0  0  0  0  0  0  0  0  0  0  0
   57.0500   30.6657   43.1304 H   0  0  0  0  0  0  0  0  0  0  0  0
   62.2643   31.3444   46.4863 H   0  0  0  0  0  0  0  0  0  0  0  0
   64.3002   31.9335   47.7964 H   0  0  0  0  0  0  0  0  0  0  0  0
   64.2435   33.8322   49.4145 H   0  0  0  0  0  0  0  0  0  0  0  0
   62.1433   35.1394   49.7317 H   0  0  0  0  0  0  0  0  0  0  0  0
   60.0985   34.5663   48.4248 H   0  0  0  0  0  0  0  0  0  0  0  0
   58.7387   34.4035   46.9415 H   0  0  0  0  0  0  0  0  0  0  0  0
   56.6181   25.5848   44.9454 H   0  0  0  0  0  0  0  0  0  0  0  0
   58.4669   24.4194   46.1503 H   0  0  0  0  0  0  0  0  0  0  0  0
   59.8860   25.6698   47.7785 H   0  0  0  0  0  0  0  0  0  0  0  0
   58.9248   28.3715   51.5902 H   0  0  0  0  0  0  0  0  0  0  0  0
   60.4128   29.2817   51.1230 H   0  0  0  0  0  0  0  0  0  0  0  0
   57.7441   30.5153   51.9660 H   0  0  0  0  0  0  0  0  0  0  0  0
   59.2636   30.3777   52.9753 H   0  0  0  0  0  0  0  0  0  0  0  0
   59.4474   32.7713   49.6946 H   0  0  0  0  0  0  0  0  0  0  0  0
   60.6331   31.4075   49.9644 H   0  0  0  0  0  0  0  0  0  0  0  0
   57.6569   31.1100   49.3665 H   0  0  0  0  0  0  0  0  0  0  0  0
   59.0358   30.8216   48.2224 H   0  0  0  0  0  0  0  0  0  0  0  0
   57.6054   29.2658   47.0030 H   0  0  0  0  0  0  0  0  0  0  0  0
  1  2  2  0
  2  3  1  0
  3  4  1  0
  4  5  1  0
  5  6  2  0
  6  7  1  0
  7  8  1  0
  8  9  2  0
  9 10  1  0
 10 11  2  0
 11 12  1  0
 12 13  2  0
  7 14  2  0
 14 15  1  0
 15 16  2  0
 15 17  1  0
  2 18  1  0
 18 19  1  0
 19 20  2  0
 20 21  1  0
 21 22  2  0
 22 23  1  0
 23 24  1  0
 24 25  2  0
 24 26  2  0
 24 27  1  0
 27 28  1  0
 28 29  1  0
 29 30  1  0
 30 31  1  0
 31 32  1  0
 23 33  2  0
 17  5  1  0
 33 19  1  0
 13  8  1  0
 32 27  1  0
  3 34  1  0
  3 35  1  0
  9 36  1  0
 10 37  1  0
 11 38  1  0
 12 39  1  0
 13 40  1  0
 14 41  1  0
 20 42  1  0
 21 43  1  0
 22 44  1  0
 28 45  1  0
 28 46  1  0
 29 47  1  0
 29 48  1  0
 31 49  1  0
 31 50  1  0
 32 51  1  0
 32 52  1  0
 33 53  1  0
M  CHG  2  17  -1  18  -1
M  END
>  <UniqueID>  (66) 
64

>  <SMILES>  (66) 
O=C(CSc1nc(-c2ccccc2)cc(=O)[n-]1)[N-]c1cccc(S(=O)(=O)N2CCOCC2)c1

>  <Energy>  (66) 
70.07582364386055

>  <Genealogy>  (66) 
O=C(CSc1nc(-c2ccccc2)cc(=O)[n-]1)[N-]c1cccc(S(=O)(=O)N2CCOCC2)c1 (protonated)
O=C(CSc1nc(-c2ccccc2)cc(=O)[n-]1)[N-]c1cccc(S(=O)(=O)N2CCOCC2)c1 (3D coordinates assigned)
O=C(CSc1nc(-c2ccccc2)cc(=O)[n-]1)[N-]c1cccc(S(=O)(=O)N2CCOCC2)c1 (nonaromatic ring conformer: 70.07582364386055 kcal/mol)

>  <smiles>  (66) 
O=C(CSc1nc(-c2ccccc2)cc(=O)[nH]1)Nc1cccc(S(=O)(=O)N2CCOCC2)c1

>  <score_type>  (66) 
oracle

>  <origin>  (66) 
adg

>  <m_score__min__energy>  (66) 
-12.640000000000001

>  <m_primary>  (66) 
energy

$$$$
66:0
     RDKit          3D

 53 56  0  0  0  0  0  0  0  0999 V2000
   59.7290   34.3820   49.8390 O   0  0  0  0  0  0  0  0  0  0  0  0
   59.5090   33.2010   49.4390 C   0  0  0  0  0  0  0  0  0  0  0  0
   59.9800   32.7850   48.0660 C   0  0  0  0  0  0  0  0  0  0  0  0
   59.1160   33.3640   46.9760 C   0  0  0  0  0  0  0  0  0  0  0  0
   59.6650   34.2410   46.0250 C   0  0  0  0  0  0  0  0  0  0  0  0
   58.8720   34.7370   44.9850 C   0  0  0  0  0  0  0  0  0  0  0  0
   57.5320   34.3550   44.8800 C   0  0  0  0  0  0  0  0  0  0  0  0
   56.9800   33.4770   45.8180 C   0  0  0  0  0  0  0  0  0  0  0  0
   57.7690   32.9790   46.8590 C   0  0  0  0  0  0  0  0  0  0  0  0
   58.8780   32.2530   50.3270 N   0  0  0  0  0  0  0  0  0  0  0  0
   58.1970   32.7260   51.5400 C   0  0  0  0  0  0  0  0  0  0  0  0
   56.9700   31.8500   51.8540 C   0  0  0  0  0  0  0  0  0  0  0  0
   57.1940   30.3860   51.6660 N   0  0  0  0  0  0  0  0  0  0  0  0
   56.7230   29.6460   52.8230 C   0  0  0  0  0  0  0  0  0  0  0  0
   57.5490   29.2550   53.6960 O   0  0  0  0  0  0  0  0  0  0  0  0
   55.2760   29.3770   53.0430 C   0  0  0  0  0  0  0  0  0  0  0  0
   54.8580   28.0980   53.4540 C   0  0  0  0  0  0  0  0  0  0  0  0
   53.5030   27.8250   53.6590 C   0  0  0  0  0  0  0  0  0  0  0  0
   52.5490   28.8240   53.4680 C   0  0  0  0  0  0  0  0  0  0  0  0
   52.9450   30.1140   53.0850 C   0  0  0  0  0  0  0  0  0  0  0  0
   51.9140   31.1840   52.8470 C   0  0  0  0  0  0  0  0  0  0  0  0
   51.6080   31.2800   51.3860 C   0  0  0  0  0  0  0  0  0  0  0  0
   51.7930   30.2840   50.4530 C   0  0  0  0  0  0  0  0  0  0  0  0
   51.3320   30.7080   49.2640 N   0  0  0  0  0  0  0  0  0  0  0  0
   50.8750   31.9510   49.5280 C   0  0  0  0  0  0  0  0  0  0  0  0
   50.3530   32.6840   48.6470 O   0  0  0  0  0  0  0  0  0  0  0  0
   51.0130   32.3410   50.8100 N   0  0  0  0  0  0  0  0  0  0  0  0
   54.3070   30.3830   52.8660 C   0  0  0  0  0  0  0  0  0  0  0  0
   58.5990   30.0300   51.3680 C   0  0  0  0  0  0  0  0  0  0  0  0
   59.1050   30.8130   50.1520 C   0  0  0  0  0  0  0  0  0  0  0  0
   61.0134   33.1340   47.9237 H   0  0  0  0  0  0  0  0  0  0  0  0
   59.9193   31.6885   48.0026 H   0  0  0  0  0  0  0  0  0  0  0  0
   60.7215   34.5383   46.0987 H   0  0  0  0  0  0  0  0  0  0  0  0
   59.3044   35.4296   44.2479 H   0  0  0  0  0  0  0  0  0  0  0  0
   56.9115   34.7449   44.0597 H   0  0  0  0  0  0  0  0  0  0  0  0
   55.9245   33.1781   45.7367 H   0  0  0  0  0  0  0  0  0  0  0  0
   57.3336   32.2822   47.5904 H   0  0  0  0  0  0  0  0  0  0  0  0
   58.8974   32.6829   52.3871 H   0  0  0  0  0  0  0  0  0  0  0  0
   57.8596   33.7599   51.3750 H   0  0  0  0  0  0  0  0  0  0  0  0
   56.6830   32.0225   52.9018 H   0  0  0  0  0  0  0  0  0  0  0  0
   56.1848   32.1419   51.1411 H   0  0  0  0  0  0  0  0  0  0  0  0
   56.6430   30.0730   50.8310 H   0  0  0  0  0  0  0  0  0  0  0  0
   55.6043   27.3061   53.6153 H   0  0  0  0  0  0  0  0  0  0  0  0
   53.1878   26.8187   53.9721 H   0  0  0  0  0  0  0  0  0  0  0  0
   51.4826   28.5997   53.6181 H   0  0  0  0  0  0  0  0  0  0  0  0
   50.9946   30.9334   53.3965 H   0  0  0  0  0  0  0  0  0  0  0  0
   52.3061   32.1495   53.1991 H   0  0  0  0  0  0  0  0  0  0  0  0
   52.2450   29.3005   50.6493 H   0  0  0  0  0  0  0  0  0  0  0  0
   54.6192   31.3902   52.5530 H   0  0  0  0  0  0  0  0  0  0  0  0
   59.2258   30.2700   52.2395 H   0  0  0  0  0  0  0  0  0  0  0  0
   58.6538   28.9540   51.1461 H   0  0  0  0  0  0  0  0  0  0  0  0
   60.1827   30.6303   50.0285 H   0  0  0  0  0  0  0  0  0  0  0  0
   58.5546   30.4752   49.2615 H   0  0  0  0  0  0  0  0  0  0  0  0
  1  2  2  0
  2  3  1  0
  3  4  1  0
  4  5  2  0
  5  6  1  0
  6  7  2  0
  7  8  1  0
  8  9  2  0
  2 10  1  0
 10 11  1  0
 11 12  1  0
 12 13  1  0
 13 14  1  0
 14 15  2  0
 14 16  1  0
 16 17  2  0
 17 18  1  0
 18 19  2  0
 19 20  1  0
 20 21  1  0
 21 22  1  0
 22 23  2  0
 23 24  1  0
 24 25  1  0
 25 26  2  0
 25 27  1  0
 20 28  2  0
 13 29  1  0
 29 30  1  0
  9  4  1  0
 30 10  1  0
 28 16  1  0
 27 22  1  0
  3 31  1  0
  3 32  1  0
  5 33  1  0
  6 34  1  0
  7 35  1  0
  8 36  1  0
  9 37  1  0
 11 38  1  0
 11 39  1  0
 12 40  1  0
 12 41  1  0
 13 42  1  0
 17 43  1  0
 18 44  1  0
 19 45  1  0
 21 46  1  0
 21 47  1  0
 23 48  1  0
 28 49  1  0
 29 50  1  0
 29 51  1  0
 30 52  1  0
 30 53  1  0
M  CHG  3  13   1  24  -1  27  -1
M  END
>  <UniqueID>  (67) 
65

>  <SMILES>  (67) 
O=C(Cc1ccccc1)N1CC[NH+](C(=O)c2cccc(Cc3c[n-]c(=O)[n-]3)c2)CC1

>  <Energy>  (67) 
94.06514632697225

>  <Genealogy>  (67) 
O=C(Cc1ccccc1)N1CC[NH+](C(=O)c2cccc(Cc3c[n-]c(=O)[n-]3)c2)CC1 (protonated)
O=C(Cc1ccccc1)N1CC[NH+](C(=O)c2cccc(Cc3c[n-]c(=O)[n-]3)c2)CC1 (3D coordinates assigned)
O=C(Cc1ccccc1)N1CC[NH+](C(=O)c2cccc(Cc3c[n-]c(=O)[n-]3)c2)CC1 (nonaromatic ring conformer: 94.06514632697225 kcal/mol)

>  <smiles>  (67) 
O=C(Cc1ccccc1)N1CCN(C(=O)c2cccc(Cc3c[nH]c(=O)[nH]3)c2)CC1

>  <score_type>  (67) 
oracle

>  <origin>  (67) 
adg

>  <m_score__min__energy>  (67) 
-13.44

>  <m_primary>  (67) 
energy

$$$$
67:0
     RDKit          3D

 64 67  0  0  0  0  0  0  0  0999 V2000
   55.6080   30.2370   44.1360 C   0  0  0  0  0  0  0  0  0  0  0  0
   57.1240   30.4260   43.9450 C   0  0  0  0  0  0  0  0  0  0  0  0
   57.3820   31.2650   42.6750 C   0  0  0  0  0  0  0  0  0  0  0  0
   57.7950   29.0460   43.7670 C   0  0  0  0  0  0  0  0  0  0  0  0
   57.6920   31.1130   45.1770 C   0  0  0  0  0  0  0  0  0  0  0  0
   57.6010   32.4580   45.5000 C   0  0  0  0  0  0  0  0  0  0  0  0
   58.2330   32.5490   46.7270 C   0  0  0  0  0  0  0  0  0  0  0  0
   58.4370   33.6360   47.4170 N   0  0  0  0  0  0  0  0  0  0  0  0
   59.5240   34.5620   47.2670 C   0  0  0  0  0  0  0  0  0  0  0  0
   59.3140   35.7230   46.8190 O   0  0  0  0  0  0  0  0  0  0  0  0
   60.8870   34.1660   47.6920 C   0  0  0  0  0  0  0  0  0  0  0  0
   61.8560   33.8180   46.7360 C   0  0  0  0  0  0  0  0  0  0  0  0
   63.1300   33.4200   47.1470 C   0  0  0  0  0  0  0  0  0  0  0  0
   63.9860   33.1000   46.2790 O   0  0  0  0  0  0  0  0  0  0  0  0
   63.4380   33.3710   48.5190 C   0  0  0  0  0  0  0  0  0  0  0  0
   64.7030   32.9600   48.9810 C   0  0  0  0  0  0  0  0  0  0  0  0
   64.9800   32.9090   50.3580 C   0  0  0  0  0  0  0  0  0  0  0  0
   66.2970   32.4300   50.8370 C   0  0  0  0  0  0  0  0  0  0  0  0
   66.5190   31.1890   50.8930 O   0  0  0  0  0  0  0  0  0  0  0  0
   67.3220   33.3430   51.2570 N   0  0  0  0  0  0  0  0  0  0  0  0
   67.0060   34.6890   51.7010 C   0  0  0  0  0  0  0  0  0  0  0  0
   68.1980   35.4870   51.2420 C   0  0  0  0  0  0  0  0  0  0  0  0
   68.9450   34.4940   50.3610 C   0  0  0  0  0  0  0  0  0  0  0  0
   68.5870   33.2010   50.7820 O   0  0  0  0  0  0  0  0  0  0  0  0
   63.9760   33.2620   51.2730 C   0  0  0  0  0  0  0  0  0  0  0  0
   62.7210   33.6750   50.8260 C   0  0  0  0  0  0  0  0  0  0  0  0
   62.4400   33.7300   49.4530 C   0  0  0  0  0  0  0  0  0  0  0  0
   61.2030   34.1120   49.0200 N   0  0  0  0  0  0  0  0  0  0  0  0
   58.6670   31.3250   47.1090 N   0  0  0  0  0  0  0  0  0  0  0  0
   59.3140   30.9400   48.3860 C   0  0  0  0  0  0  0  0  0  0  0  0
   58.9210   29.4960   48.7710 C   0  0  0  0  0  0  0  0  0  0  0  0
   60.8510   30.9990   48.2530 C   0  0  0  0  0  0  0  0  0  0  0  0
   58.8460   31.8910   49.5030 C   0  0  0  0  0  0  0  0  0  0  0  0
   58.3110   30.4510   46.1770 N   0  0  0  0  0  0  0  0  0  0  0  0
   55.3746   30.2079   45.2106 H   0  0  0  0  0  0  0  0  0  0  0  0
   55.0720   31.0753   43.6669 H   0  0  0  0  0  0  0  0  0  0  0  0
   55.2942   29.2928   43.6669 H   0  0  0  0  0  0  0  0  0  0  0  0
   57.6940   32.2797   42.9630 H   0  0  0  0  0  0  0  0  0  0  0  0
   58.1764   30.7925   42.0785 H   0  0  0  0  0  0  0  0  0  0  0  0
   56.4594   31.3205   42.0785 H   0  0  0  0  0  0  0  0  0  0  0  0
   58.0065   28.6110   44.7549 H   0  0  0  0  0  0  0  0  0  0  0  0
   57.1204   28.3794   43.2097 H   0  0  0  0  0  0  0  0  0  0  0  0
   58.7359   29.1649   43.2097 H   0  0  0  0  0  0  0  0  0  0  0  0
   57.1346   33.2653   44.9162 H   0  0  0  0  0  0  0  0  0  0  0  0
   61.6113   33.8590   45.6643 H   0  0  0  0  0  0  0  0  0  0  0  0
   65.4816   32.6762   48.2576 H   0  0  0  0  0  0  0  0  0  0  0  0
   66.0812   35.0536   51.2299 H   0  0  0  0  0  0  0  0  0  0  0  0
   66.8303   34.7575   52.7847 H   0  0  0  0  0  0  0  0  0  0  0  0
   67.8860   36.3713   50.6669 H   0  0  0  0  0  0  0  0  0  0  0  0
   68.8060   35.8799   52.0702 H   0  0  0  0  0  0  0  0  0  0  0  0
   68.6605   34.6382   49.3083 H   0  0  0  0  0  0  0  0  0  0  0  0
   70.0316   34.6418   50.4468 H   0  0  0  0  0  0  0  0  0  0  0  0
   64.1808   33.2125   52.3526 H   0  0  0  0  0  0  0  0  0  0  0  0
   61.9473   33.9592   51.5544 H   0  0  0  0  0  0  0  0  0  0  0  0
   60.4720   34.3460   49.7300 H   0  0  0  0  0  0  0  0  0  0  0  0
   58.8956   29.4027   49.8667 H   0  0  0  0  0  0  0  0  0  0  0  0
   57.9272   29.2646   48.3602 H   0  0  0  0  0  0  0  0  0  0  0  0
   59.6604   28.7928   48.3602 H   0  0  0  0  0  0  0  0  0  0  0  0
   61.3053   31.0164   49.2546 H   0  0  0  0  0  0  0  0  0  0  0  0
   61.2059   30.1138   47.7048 H   0  0  0  0  0  0  0  0  0  0  0  0
   61.1369   31.9088   47.7048 H   0  0  0  0  0  0  0  0  0  0  0  0
   59.0667   31.4425   50.4828 H   0  0  0  0  0  0  0  0  0  0  0  0
   59.3743   32.8515   49.4120 H   0  0  0  0  0  0  0  0  0  0  0  0
   57.7626   32.0584   49.4120 H   0  0  0  0  0  0  0  0  0  0  0  0
  1  2  1  0
  2  3  1  0
  2  4  1  0
  2  5  1  0
  5  6  2  0
  6  7  1  0
  7  8  2  3
  8  9  1  0
  9 10  2  0
  9 11  1  0
 11 12  2  0
 12 13  1  0
 13 14  2  0
 13 15  1  0
 15 16  2  0
 16 17  1  0
 17 18  1  0
 18 19  2  0
 18 20  1  0
 20 21  1  0
 21 22  1  0
 22 23  1  0
 23 24  1  0
 17 25  2  0
 25 26  1  0
 26 27  2  0
 27 28  1  0
  7 29  1  0
 29 30  1  0
 30 31  1  0
 30 32  1  0
 30 33  1  0
 29 34  1  0
 34  5  1  0
 28 11  1  0
 27 15  1  0
 24 20  1  0
  1 35  1  0
  1 36  1  0
  1 37  1  0
  3 38  1  0
  3 39  1  0
  3 40  1  0
  4 41  1  0
  4 42  1  0
  4 43  1  0
  6 44  1  0
 12 45  1  0
 16 46  1  0
 21 47  1  0
 21 48  1  0
 22 49  1  0
 22 50  1  0
 23 51  1  0
 23 52  1  0
 25 53  1  0
 26 54  1  0
 28 55  1  0
 31 56  1  0
 31 57  1  0
 31 58  1  0
 32 59  1  0
 32 60  1  0
 32 61  1  0
 33 62  1  0
 33 63  1  0
 33 64  1  0
M  CHG  1  34  -1
M  END
>  <UniqueID>  (68) 
66

>  <SMILES>  (68) 
CC(C)(C)c1cc(=NC(=O)c2cc(=O)c3cc(C(=O)N4CCCO4)ccc3[nH]2)n(C(C)(C)C)[n-]1

>  <Energy>  (68) 
114.04577089330377

>  <Genealogy>  (68) 
CC(C)(C)c1cc(=NC(=O)c2cc(=O)c3cc(C(=O)N4CCCO4)ccc3[nH]2)n(C(C)(C)C)[n-]1 (protonated)
CC(C)(C)c1cc(=NC(=O)c2cc(=O)c3cc(C(=O)N4CCCO4)ccc3[nH]2)n(C(C)(C)C)[n-]1 (3D coordinates assigned)
CC(C)(C)c1cc(=NC(=O)c2cc(=O)c3cc(C(=O)N4CCCO4)ccc3[nH]2)n(C(C)(C)C)[n-]1 (nonaromatic ring conformer: 114.04577089330377 kcal/mol)

>  <smiles>  (68) 
CC(C)(C)c1cc(=NC(=O)c2cc(=O)c3cc(C(=O)N4CCCO4)ccc3[nH]2)n(C(C)(C)C)[nH]1

>  <score_type>  (68) 
oracle

>  <origin>  (68) 
adg

>  <m_score__min__energy>  (68) 
-10.6

>  <m_primary>  (68) 
energy

$$$$
68:0
     RDKit          3D

 31 33  0  0  0  0  0  0  0  0999 V2000
   57.2360   21.8370   47.5400 O   0  0  0  0  0  0  0  0  0  0  0  0
   57.4050   22.5740   46.5330 C   0  0  0  0  0  0  0  0  0  0  0  0
   57.9540   23.8830   46.7280 N   0  0  0  0  0  0  0  0  0  0  0  0
   57.3650   25.1290   46.3230 C   0  0  0  0  0  0  0  0  0  0  0  0
   55.9810   25.3430   46.3570 C   0  0  0  0  0  0  0  0  0  0  0  0
   55.4730   26.5500   45.9970 N   0  0  0  0  0  0  0  0  0  0  0  0
   56.2840   27.5750   45.6180 C   0  0  0  0  0  0  0  0  0  0  0  0
   55.7970   28.7220   45.2440 N   0  0  0  0  0  0  0  0  0  0  0  0
   56.4860   29.7630   44.5310 C   0  0  0  0  0  0  0  0  0  0  0  0
   57.4650   30.5680   45.1450 C   0  0  0  0  0  0  0  0  0  0  0  0
   58.1380   31.5460   44.4060 C   0  0  0  0  0  0  0  0  0  0  0  0
   57.8560   31.7150   43.0470 C   0  0  0  0  0  0  0  0  0  0  0  0
   58.5120   32.6610   42.3300 F   0  0  0  0  0  0  0  0  0  0  0  0
   56.9090   30.8980   42.4240 C   0  0  0  0  0  0  0  0  0  0  0  0
   56.2360   29.9190   43.1610 C   0  0  0  0  0  0  0  0  0  0  0  0
   57.6300   27.3890   45.5960 N   0  0  0  0  0  0  0  0  0  0  0  0
   58.1850   26.2010   45.9500 C   0  0  0  0  0  0  0  0  0  0  0  0
   59.4370   26.0690   45.9300 O   0  0  0  0  0  0  0  0  0  0  0  0
   57.1070   22.0530   45.1470 C   0  0  0  0  0  0  0  0  0  0  0  0
   58.3310   21.9260   44.2510 C   0  0  0  0  0  0  0  0  0  0  0  0
   57.3090   23.0180   43.9840 C   0  0  0  0  0  0  0  0  0  0  0  0
   55.3064   24.5344   46.6749 H   0  0  0  0  0  0  0  0  0  0  0  0
   57.7012   30.4269   46.2100 H   0  0  0  0  0  0  0  0  0  0  0  0
   58.8901   32.1831   44.8944 H   0  0  0  0  0  0  0  0  0  0  0  0
   56.6929   31.0252   41.3530 H   0  0  0  0  0  0  0  0  0  0  0  0
   55.5048   29.2663   42.6617 H   0  0  0  0  0  0  0  0  0  0  0  0
   56.2799   21.4005   45.4634 H   0  0  0  0  0  0  0  0  0  0  0  0
   59.3261   22.1879   44.6397 H   0  0  0  0  0  0  0  0  0  0  0  0
   58.7764   21.1162   43.6545 H   0  0  0  0  0  0  0  0  0  0  0  0
   57.5641   24.0699   44.1801 H   0  0  0  0  0  0  0  0  0  0  0  0
   56.7084   23.3256   43.1153 H   0  0  0  0  0  0  0  0  0  0  0  0
  1  2  2  0
  2  3  1  0
  3  4  1  0
  4  5  2  0
  5  6  1  0
  6  7  1  0
  7  8  2  3
  8  9  1  0
  9 10  2  0
 10 11  1  0
 11 12  2  0
 12 13  1  0
 12 14  1  0
 14 15  2  0
  7 16  1  0
 16 17  1  0
 17 18  2  0
  2 19  1  0
 19 20  1  0
 20 21  1  0
 17  4  1  0
 21 19  1  0
 15  9  1  0
  5 22  1  0
 10 23  1  0
 11 24  1  0
 14 25  1  0
 15 26  1  0
 19 27  1  0
 20 28  1  0
 20 29  1  0
 21 30  1  0
 21 31  1  0
M  CHG  3   3  -1   6  -1  16  -1
M  END
>  <UniqueID>  (69) 
67

>  <SMILES>  (69) 
O=C([N-]c1c[n-]c(=Nc2ccc(F)cc2)[n-]c1=O)C1CC1

>  <Energy>  (69) 
309.41424550673435

>  <Genealogy>  (69) 
O=C([N-]c1c[n-]c(=Nc2ccc(F)cc2)[n-]c1=O)C1CC1 (protonated)
O=C([N-]c1c[n-]c(=Nc2ccc(F)cc2)[n-]c1=O)C1CC1 (3D coordinates assigned)
O=C([N-]c1c[n-]c(=Nc2ccc(F)cc2)[n-]c1=O)C1CC1 (nonaromatic ring conformer: 309.41424550673435 kcal/mol)

>  <smiles>  (69) 
O=C(Nc1c[nH]c(=Nc2ccc(F)cc2)[nH]c1=O)C1CC1

>  <score_type>  (69) 
oracle

>  <origin>  (69) 
adg

>  <m_score__min__energy>  (69) 
-12.17

>  <m_primary>  (69) 
energy

$$$$
69:0
     RDKit          3D

 58 62  0  0  0  0  0  0  0  0999 V2000
   58.9130   27.8930   44.0800 C   0  0  0  0  0  0  0  0  0  0  0  0
   58.0330   27.9570   45.3230 C   0  0  0  0  0  0  0  0  0  0  0  0
   58.4360   29.0770   46.1790 N   0  0  0  0  0  0  0  0  0  0  0  0
   58.1700   30.4090   46.0410 C   0  0  0  0  0  0  0  0  0  0  0  0
   57.4090   31.0360   44.9390 C   0  0  0  0  0  0  0  0  0  0  0  0
   56.2380   30.6340   44.6910 O   0  0  0  0  0  0  0  0  0  0  0  0
   57.9760   32.0550   44.1670 O   0  0  0  0  0  0  0  0  0  0  0  0
   57.7530   33.4420   44.4090 C   0  0  0  0  0  0  0  0  0  0  0  0
   57.9370   33.7720   45.8660 C   0  0  0  0  0  0  0  0  0  0  0  0
   56.9680   33.6040   46.6560 O   0  0  0  0  0  0  0  0  0  0  0  0
   59.2060   34.2320   46.3760 N   0  0  0  0  0  0  0  0  0  0  0  0
   59.2860   34.9640   47.6440 C   0  0  0  0  0  0  0  0  0  0  0  0
   60.0710   34.1330   48.6590 C   0  0  0  0  0  0  0  0  0  0  0  0
   61.3450   33.6870   48.0700 N   0  0  0  0  0  0  0  0  0  0  0  0
   62.5300   33.5740   48.8860 C   0  0  0  0  0  0  0  0  0  0  0  0
   63.3910   32.6890   48.6290 O   0  0  0  0  0  0  0  0  0  0  0  0
   62.7590   34.4810   50.0620 C   0  0  0  0  0  0  0  0  0  0  0  0
   63.9390   34.0850   50.9380 C   0  0  0  0  0  0  0  0  0  0  0  0
   62.5210   33.8410   51.4230 C   0  0  0  0  0  0  0  0  0  0  0  0
   61.3000   33.0180   46.7600 C   0  0  0  0  0  0  0  0  0  0  0  0
   60.4810   33.8440   45.7620 C   0  0  0  0  0  0  0  0  0  0  0  0
   58.7160   31.1280   47.1070 C   0  0  0  0  0  0  0  0  0  0  0  0
   59.3140   30.1830   47.9140 C   0  0  0  0  0  0  0  0  0  0  0  0
   60.0020   30.2860   49.1160 C   0  0  0  0  0  0  0  0  0  0  0  0
   60.1750   31.4170   49.6510 O   0  0  0  0  0  0  0  0  0  0  0  0
   60.4820   29.1310   49.6970 N   0  0  0  0  0  0  0  0  0  0  0  0
   61.1690   29.1810   50.8830 C   0  0  0  0  0  0  0  0  0  0  0  0
   61.6570   28.0150   51.4770 C   0  0  0  0  0  0  0  0  0  0  0  0
   61.4430   26.7850   50.8600 C   0  0  0  0  0  0  0  0  0  0  0  0
   60.7450   26.7260   49.6570 C   0  0  0  0  0  0  0  0  0  0  0  0
   60.2660   27.9050   49.0770 C   0  0  0  0  0  0  0  0  0  0  0  0
   59.5850   27.8310   47.8940 N   0  0  0  0  0  0  0  0  0  0  0  0
   59.1230   28.9720   47.3330 C   0  0  0  0  0  0  0  0  0  0  0  0
   59.9681   27.8163   44.3813 H   0  0  0  0  0  0  0  0  0  0  0  0
   58.6378   27.0125   43.4809 H   0  0  0  0  0  0  0  0  0  0  0  0
   58.7681   28.8041   43.4809 H   0  0  0  0  0  0  0  0  0  0  0  0
   56.9849   28.0930   45.0181 H   0  0  0  0  0  0  0  0  0  0  0  0
   58.1446   27.0193   45.8872 H   0  0  0  0  0  0  0  0  0  0  0  0
   58.4671   34.0303   43.8140 H   0  0  0  0  0  0  0  0  0  0  0  0
   56.7194   33.6859   44.1224 H   0  0  0  0  0  0  0  0  0  0  0  0
   59.7969   35.9246   47.4820 H   0  0  0  0  0  0  0  0  0  0  0  0
   58.2716   35.1502   48.0264 H   0  0  0  0  0  0  0  0  0  0  0  0
   60.2763   34.7452   49.5495 H   0  0  0  0  0  0  0  0  0  0  0  0
   59.4760   33.2516   48.9402 H   0  0  0  0  0  0  0  0  0  0  0  0
   62.4234   35.4047   49.5680 H   0  0  0  0  0  0  0  0  0  0  0  0
   64.5758   33.2351   50.6512 H   0  0  0  0  0  0  0  0  0  0  0  0
   64.8186   34.6089   51.3402 H   0  0  0  0  0  0  0  0  0  0  0  0
   62.1309   32.8145   51.4872 H   0  0  0  0  0  0  0  0  0  0  0  0
   61.9487   34.1150   52.3216 H   0  0  0  0  0  0  0  0  0  0  0  0
   62.3249   32.9013   46.3780 H   0  0  0  0  0  0  0  0  0  0  0  0
   60.8251   32.0331   46.8802 H   0  0  0  0  0  0  0  0  0  0  0  0
   61.0441   34.7474   45.4849 H   0  0  0  0  0  0  0  0  0  0  0  0
   60.2858   33.2423   44.8621 H   0  0  0  0  0  0  0  0  0  0  0  0
   58.6772   32.2154   47.2682 H   0  0  0  0  0  0  0  0  0  0  0  0
   61.3377   30.1515   51.3725 H   0  0  0  0  0  0  0  0  0  0  0  0
   62.2078   28.0679   52.4277 H   0  0  0  0  0  0  0  0  0  0  0  0
   61.8245   25.8625   51.3220 H   0  0  0  0  0  0  0  0  0  0  0  0
   60.5712   25.7575   49.1654 H   0  0  0  0  0  0  0  0  0  0  0  0
  1  2  1  0
  2  3  1  0
  3  4  1  0
  4  5  1  0
  5  6  2  0
  5  7  1  0
  7  8  1  0
  8  9  1  0
  9 10  2  0
  9 11  1  0
 11 12  1  0
 12 13  1  0
 13 14  1  0
 14 15  1  0
 15 16  2  0
 15 17  1  0
 17 18  1  0
 18 19  1  0
 14 20  1  0
 20 21  1  0
  4 22  2  0
 22 23  1  0
 23 24  1  0
 24 25  2  0
 24 26  1  0
 26 27  1  0
 27 28  2  0
 28 29  1  0
 29 30  2  0
 30 31  1  0
 31 32  2  0
 32 33  1  0
 33  3  1  0
 21 11  1  0
 33 23  2  0
 19 17  1  0
 31 26  1  0
  1 34  1  0
  1 35  1  0
  1 36  1  0
  2 37  1  0
  2 38  1  0
  8 39  1  0
  8 40  1  0
 12 41  1  0
 12 42  1  0
 13 43  1  0
 13 44  1  0
 17 45  1  0
 18 46  1  0
 18 47  1  0
 19 48  1  0
 19 49  1  0
 20 50  1  0
 20 51  1  0
 21 52  1  0
 21 53  1  0
 22 54  1  0
 27 55  1  0
 28 56  1  0
 29 57  1  0
 30 58  1  0
M  END
>  <UniqueID>  (70) 
68

>  <SMILES>  (70) 
CCn1c(C(=O)OCC(=O)N2CCN(C(=O)C3CC3)CC2)cc2c(=O)n3ccccc3nc21

>  <Energy>  (70) 
364.08792381711885

>  <Genealogy>  (70) 
CCn1c(C(=O)OCC(=O)N2CCN(C(=O)C3CC3)CC2)cc2c(=O)n3ccccc3nc21 (3D coordinates assigned)
CCn1c(C(=O)OCC(=O)N2CCN(C(=O)C3CC3)CC2)cc2c(=O)n3ccccc3nc21 (nonaromatic ring conformer: 364.08792381711885 kcal/mol)

>  <smiles>  (70) 
CCn1c(C(=O)OCC(=O)N2CCN(C(=O)C3CC3)CC2)cc2c(=O)n3ccccc3nc21

>  <score_type>  (70) 
oracle

>  <origin>  (70) 
adg

>  <m_score__min__energy>  (70) 
-8.0899999999999999

>  <m_primary>  (70) 
energy

$$$$
70:0
     RDKit          3D

 46 47  0  0  0  0  0  0  0  0999 V2000
   64.1660   33.4420   47.8660 C   0  0  0  0  0  0  0  0  0  0  0  0
   62.9500   33.1090   48.6230 N   0  0  0  0  0  0  0  0  0  0  0  0
   61.7920   33.9200   48.1710 C   0  0  0  0  0  0  0  0  0  0  0  0
   60.9140   33.1950   47.1400 C   0  0  0  0  0  0  0  0  0  0  0  0
   60.4890   31.8810   47.6440 N   0  0  0  0  0  0  0  0  0  0  0  0
   59.3480   31.1940   47.0860 C   0  0  0  0  0  0  0  0  0  0  0  0
   58.8400   30.2190   47.7040 O   0  0  0  0  0  0  0  0  0  0  0  0
   58.7220   31.6140   45.7850 C   0  0  0  0  0  0  0  0  0  0  0  0
   57.6390   30.7010   45.4320 N   0  0  0  0  0  0  0  0  0  0  0  0
   57.0460   30.6800   44.1240 C   0  0  0  0  0  0  0  0  0  0  0  0
   57.4120   31.5090   43.2460 O   0  0  0  0  0  0  0  0  0  0  0  0
   55.9620   29.6970   43.7990 C   0  0  0  0  0  0  0  0  0  0  0  0
   55.5460   28.9670   44.9930 N   0  0  0  0  0  0  0  0  0  0  0  0
   56.2260   27.8390   45.5610 C   0  0  0  0  0  0  0  0  0  0  0  0
   57.4690   27.9020   45.7410 O   0  0  0  0  0  0  0  0  0  0  0  0
   55.5200   26.6700   45.9920 N   0  0  0  0  0  0  0  0  0  0  0  0
   56.0340   25.3320   45.9540 C   0  0  0  0  0  0  0  0  0  0  0  0
   56.7100   24.8350   47.0740 C   0  0  0  0  0  0  0  0  0  0  0  0
   57.2320   23.5370   47.0650 C   0  0  0  0  0  0  0  0  0  0  0  0
   57.0940   22.7340   45.9290 C   0  0  0  0  0  0  0  0  0  0  0  0
   56.4430   23.2320   44.7940 C   0  0  0  0  0  0  0  0  0  0  0  0
   56.3110   22.4100   43.6210 C   0  0  0  0  0  0  0  0  0  0  0  0
   56.2050   21.7470   42.6780 N   0  0  0  0  0  0  0  0  0  0  0  0
   55.9220   24.5330   44.8020 C   0  0  0  0  0  0  0  0  0  0  0  0
   61.2370   31.2800   48.7550 C   0  0  0  0  0  0  0  0  0  0  0  0
   62.7190   31.6440   48.6280 C   0  0  0  0  0  0  0  0  0  0  0  0
   64.9841   33.6660   48.5664 H   0  0  0  0  0  0  0  0  0  0  0  0
   64.4490   32.5883   47.2327 H   0  0  0  0  0  0  0  0  0  0  0  0
   63.9745   34.3208   47.2327 H   0  0  0  0  0  0  0  0  0  0  0  0
   61.1733   34.1654   49.0468 H   0  0  0  0  0  0  0  0  0  0  0  0
   62.1930   34.8213   47.6843 H   0  0  0  0  0  0  0  0  0  0  0  0
   60.0234   33.8062   46.9321 H   0  0  0  0  0  0  0  0  0  0  0  0
   61.5008   33.0460   46.2216 H   0  0  0  0  0  0  0  0  0  0  0  0
   58.3203   32.6330   45.8867 H   0  0  0  0  0  0  0  0  0  0  0  0
   59.4856   31.5901   44.9936 H   0  0  0  0  0  0  0  0  0  0  0  0
   57.3180   30.0120   46.1480 H   0  0  0  0  0  0  0  0  0  0  0  0
   55.0969   30.2377   43.3877 H   0  0  0  0  0  0  0  0  0  0  0  0
   56.3496   28.9766   43.0637 H   0  0  0  0  0  0  0  0  0  0  0  0
   56.8315   25.4678   47.9655 H   0  0  0  0  0  0  0  0  0  0  0  0
   57.7517   23.1478   47.9529 H   0  0  0  0  0  0  0  0  0  0  0  0
   57.4971   21.7105   45.9269 H   0  0  0  0  0  0  0  0  0  0  0  0
   55.4243   24.9302   43.9051 H   0  0  0  0  0  0  0  0  0  0  0  0
   60.8460   31.6621   49.7095 H   0  0  0  0  0  0  0  0  0  0  0  0
   61.1239   30.1863   48.7242 H   0  0  0  0  0  0  0  0  0  0  0  0
   63.2633   31.2048   49.4770 H   0  0  0  0  0  0  0  0  0  0  0  0
   63.0773   31.2478   47.6664 H   0  0  0  0  0  0  0  0  0  0  0  0
  1  2  1  0
  2  3  1  0
  3  4  1  0
  4  5  1  0
  5  6  1  0
  6  7  2  0
  6  8  1  0
  8  9  1  0
  9 10  1  0
 10 11  2  0
 10 12  1  0
 12 13  1  0
 13 14  1  0
 14 15  2  0
 14 16  1  0
 16 17  1  0
 17 18  2  0
 18 19  1  0
 19 20  2  0
 20 21  1  0
 21 22  1  0
 22 23  3  0
 21 24  2  0
  5 25  1  0
 25 26  1  0
 26  2  1  0
 24 17  1  0
  1 27  1  0
  1 28  1  0
  1 29  1  0
  3 30  1  0
  3 31  1  0
  4 32  1  0
  4 33  1  0
  8 34  1  0
  8 35  1  0
  9 36  1  0
 12 37  1  0
 12 38  1  0
 18 39  1  0
 19 40  1  0
 20 41  1  0
 24 42  1  0
 25 43  1  0
 25 44  1  0
 26 45  1  0
 26 46  1  0
M  CHG  2  13  -1  16  -1
M  END
>  <UniqueID>  (71) 
69

>  <SMILES>  (71) 
CN1CCN(C(=O)CNC(=O)C[N-]C(=O)[N-]c2cccc(C#N)c2)CC1

>  <Energy>  (71) 
48.895496761380514

>  <Genealogy>  (71) 
CN1CCN(C(=O)CNC(=O)C[N-]C(=O)[N-]c2cccc(C#N)c2)CC1 (protonated)
CN1CCN(C(=O)CNC(=O)C[N-]C(=O)[N-]c2cccc(C#N)c2)CC1 (3D coordinates assigned)
CN1CCN(C(=O)CNC(=O)C[N-]C(=O)[N-]c2cccc(C#N)c2)CC1 (nonaromatic ring conformer: 48.895496761380514 kcal/mol)

>  <smiles>  (71) 
CN1CCN(C(=O)CNC(=O)CNC(=O)Nc2cccc(C#N)c2)CC1

>  <score_type>  (71) 
oracle

>  <origin>  (71) 
adg

>  <m_score__min__energy>  (71) 
-10.98

>  <m_primary>  (71) 
energy

$$$$
71:0
     RDKit          3D

 43 46  0  0  0  0  0  0  0  0999 V2000
   56.8834   23.1633   42.2511 H   0  0  0  0  0  0  0  0  0  0  0  0
   56.4340   23.1510   43.2550 C   0  0  0  0  0  0  0  0  0  0  0  0
   56.0380   21.9730   43.8070 N   0  0  0  0  0  0  0  0  0  0  0  0
   55.4830   21.9190   45.0460 C   0  0  0  0  0  0  0  0  0  0  0  0
   55.1749   20.9510   45.4680 H   0  0  0  0  0  0  0  0  0  0  0  0
   55.3030   23.0910   45.7850 C   0  0  0  0  0  0  0  0  0  0  0  0
   54.8707   23.0460   46.7955 H   0  0  0  0  0  0  0  0  0  0  0  0
   55.6750   24.3220   45.2340 C   0  0  0  0  0  0  0  0  0  0  0  0
   55.5130   25.5120   46.0260 N   0  0  0  0  0  0  0  0  0  0  0  0
   56.3570   26.4950   46.1440 C   0  0  0  0  0  0  0  0  0  0  0  0
   57.3540   26.4660   47.0720 N   0  0  0  0  0  0  0  0  0  0  0  0
   58.2510   27.4810   47.1740 C   0  0  0  0  0  0  0  0  0  0  0  0
   59.0513   27.4348   47.9272 H   0  0  0  0  0  0  0  0  0  0  0  0
   58.1560   28.5840   46.3210 C   0  0  0  0  0  0  0  0  0  0  0  0
   57.1400   28.5890   45.3630 C   0  0  0  0  0  0  0  0  0  0  0  0
   56.2710   27.5470   45.2880 N   0  0  0  0  0  0  0  0  0  0  0  0
   57.0450   29.7230   44.3960 C   0  0  0  0  0  0  0  0  0  0  0  0
   56.0258   29.7681   43.9846 H   0  0  0  0  0  0  0  0  0  0  0  0
   57.7665   29.5672   43.5804 H   0  0  0  0  0  0  0  0  0  0  0  0
   57.3640   31.0390   45.1100 C   0  0  0  0  0  0  0  0  0  0  0  0
   56.5601   31.2587   45.8280 H   0  0  0  0  0  0  0  0  0  0  0  0
   57.4421   31.8304   44.3500 H   0  0  0  0  0  0  0  0  0  0  0  0
   58.6480   30.9710   45.8360 N   0  0  0  0  0  0  0  0  0  0  0  0
   59.3620   32.1970   46.1210 C   0  0  0  0  0  0  0  0  0  0  0  0
   58.7920   33.4450   45.8140 C   0  0  0  0  0  0  0  0  0  0  0  0
   57.7998   33.4898   45.3411 H   0  0  0  0  0  0  0  0  0  0  0  0
   59.4740   34.6270   46.1040 C   0  0  0  0  0  0  0  0  0  0  0  0
   59.0157   35.5974   45.8626 H   0  0  0  0  0  0  0  0  0  0  0  0
   60.7350   34.5830   46.6990 C   0  0  0  0  0  0  0  0  0  0  0  0
   61.2625   35.5201   46.9302 H   0  0  0  0  0  0  0  0  0  0  0  0
   61.3360   33.3510   47.0050 C   0  0  0  0  0  0  0  0  0  0  0  0
   62.6780   33.3220   47.6380 C   0  0  0  0  0  0  0  0  0  0  0  0
   62.8550   33.8880   48.7490 O   0  0  0  0  0  0  0  0  0  0  0  0
   63.7880   32.6760   47.0080 N   0  0  0  0  0  0  0  0  0  0  0  0
   63.7400   32.3360   46.0220 H   0  0  0  0  0  0  0  0  0  0  0  0
   64.7050   32.6170   47.5040 H   0  0  0  0  0  0  0  0  0  0  0  0
   60.6370   32.1620   46.7220 C   0  0  0  0  0  0  0  0  0  0  0  0
   61.0918   31.1925   46.9732 H   0  0  0  0  0  0  0  0  0  0  0  0
   59.1740   29.6950   46.3640 C   0  0  0  0  0  0  0  0  0  0  0  0
   59.4846   29.8475   47.4082 H   0  0  0  0  0  0  0  0  0  0  0  0
   60.0198   29.3955   45.7277 H   0  0  0  0  0  0  0  0  0  0  0  0
   56.2710   24.3460   43.9610 C   0  0  0  0  0  0  0  0  0  0  0  0
   56.6065   25.2981   43.5240 H   0  0  0  0  0  0  0  0  0  0  0  0
  1  2  1  0
  2  3  2  0
  3  4  1  0
  4  5  1  0
  4  6  2  0
  6  7  1  0
  6  8  1  0
  8  9  1  0
  9 10  2  0
 10 11  1  0
 11 12  2  0
 12 13  1  0
 12 14  1  0
 14 15  2  0
 15 16  1  0
 15 17  1  0
 17 18  1  0
 17 19  1  0
 17 20  1  0
 20 21  1  0
 20 22  1  0
 20 23  1  0
 23 24  1  0
 24 25  2  0
 25 26  1  0
 25 27  1  0
 27 28  1  0
 27 29  2  0
 29 30  1  0
 29 31  1  0
 31 32  1  0
 32 33  2  0
 32 34  1  0
 34 35  1  0
 34 36  1  0
 31 37  2  0
 37 38  1  0
 23 39  1  0
 39 40  1  0
 39 41  1  0
  8 42  2  0
 42 43  1  0
 42  2  1  0
 16 10  1  0
 37 24  1  0
 39 14  1  0
M  CHG  1  16  -1
M  END
>  <UniqueID>  (72) 
70

>  <SMILES>  (72) 
NC(=O)c1cccc(N2CCc3[n-]/c(=N/c4ccncc4)ncc3C2)c1

>  <Energy>  (72) 
62.163677909244576

>  <Genealogy>  (72) 
NC(=O)c1cccc(N2CCc3[n-]c(=Nc4ccncc4)ncc3C2)c1 (protonated)
NC(=O)c1cccc(N2CCc3[n-]/c(=N/c4ccncc4)ncc3C2)c1 (cis-trans isomerization)
NC(=O)c1cccc(N2CCc3[n-]/c(=N/c4ccncc4)ncc3C2)c1 (3D coordinates assigned)
NC(=O)c1cccc(N2CCc3[n-]/c(=N/c4ccncc4)ncc3C2)c1 (nonaromatic ring conformer: 62.163677909244576 kcal/mol)

>  <smiles>  (72) 
NC(=O)c1cccc(N2CCc3[nH]c(=Nc4ccncc4)ncc3C2)c1

>  <score_type>  (72) 
oracle

>  <origin>  (72) 
adg

>  <m_score__min__energy>  (72) 
-10.18

>  <m_primary>  (72) 
energy

$$$$
72:0
     RDKit          3D

 50 53  0  0  0  0  0  0  0  0999 V2000
   57.2720   28.6820   43.1760 O   0  0  0  0  0  0  0  0  0  0  0  0
   57.4000   29.5180   44.1080 C   0  0  0  0  0  0  0  0  0  0  0  0
   56.8450   29.2050   45.4610 C   0  0  0  0  0  0  0  0  0  0  0  0
   56.7240   27.7220   45.6420 C   0  0  0  0  0  0  0  0  0  0  0  0
   55.5480   27.0930   45.8240 N   0  0  0  0  0  0  0  0  0  0  0  0
   55.9070   25.8020   45.9860 C   0  0  0  0  0  0  0  0  0  0  0  0
   55.0680   24.8840   46.1780 O   0  0  0  0  0  0  0  0  0  0  0  0
   57.2340   25.5740   45.9270 N   0  0  0  0  0  0  0  0  0  0  0  0
   57.7530   26.7990   45.7230 C   0  0  0  0  0  0  0  0  0  0  0  0
   59.2230   27.0540   45.5530 C   0  0  0  0  0  0  0  0  0  0  0  0
   59.7180   28.0210   46.5950 C   0  0  0  0  0  0  0  0  0  0  0  0
   60.4390   29.1690   46.2220 C   0  0  0  0  0  0  0  0  0  0  0  0
   60.9030   30.0580   47.1960 C   0  0  0  0  0  0  0  0  0  0  0  0
   60.6550   29.8110   48.5520 C   0  0  0  0  0  0  0  0  0  0  0  0
   61.1220   30.7080   49.5120 O   0  0  0  0  0  0  0  0  0  0  0  0
   59.9380   28.6670   48.9310 C   0  0  0  0  0  0  0  0  0  0  0  0
   59.4730   27.7760   47.9580 C   0  0  0  0  0  0  0  0  0  0  0  0
   58.1320   30.7350   43.9090 N   0  0  0  0  0  0  0  0  0  0  0  0
   58.1310   31.8870   44.7670 C   0  0  0  0  0  0  0  0  0  0  0  0
   57.0160   32.7360   44.8750 C   0  0  0  0  0  0  0  0  0  0  0  0
   57.0490   33.8300   45.7400 C   0  0  0  0  0  0  0  0  0  0  0  0
   58.1820   34.0810   46.5160 C   0  0  0  0  0  0  0  0  0  0  0  0
   59.3010   33.2290   46.4450 C   0  0  0  0  0  0  0  0  0  0  0  0
   60.4700   33.4740   47.2660 N   0  0  0  0  0  0  0  0  0  0  0  0
   60.4140   33.7510   48.6950 C   0  0  0  0  0  0  0  0  0  0  0  0
   61.8400   34.0910   49.1090 C   0  0  0  0  0  0  0  0  0  0  0  0
   62.7340   33.5700   47.9880 C   0  0  0  0  0  0  0  0  0  0  0  0
   61.8370   33.4590   46.7630 C   0  0  0  0  0  0  0  0  0  0  0  0
   59.2570   32.1280   45.5650 C   0  0  0  0  0  0  0  0  0  0  0  0
   57.5165   29.6113   46.2318 H   0  0  0  0  0  0  0  0  0  0  0  0
   55.8477   29.6598   45.5532 H   0  0  0  0  0  0  0  0  0  0  0  0
   59.7685   26.1041   45.6535 H   0  0  0  0  0  0  0  0  0  0  0  0
   59.3943   27.4883   44.5570 H   0  0  0  0  0  0  0  0  0  0  0  0
   60.6389   29.3685   45.1589 H   0  0  0  0  0  0  0  0  0  0  0  0
   61.4650   30.9548   46.8962 H   0  0  0  0  0  0  0  0  0  0  0  0
   61.0070   30.5300   50.5040 H   0  0  0  0  0  0  0  0  0  0  0  0
   59.7409   28.4699   49.9951 H   0  0  0  0  0  0  0  0  0  0  0  0
   58.9128   26.8790   48.2606 H   0  0  0  0  0  0  0  0  0  0  0  0
   56.1151   32.5373   44.2759 H   0  0  0  0  0  0  0  0  0  0  0  0
   56.1780   34.4981   45.8110 H   0  0  0  0  0  0  0  0  0  0  0  0
   58.2008   34.9514   47.1884 H   0  0  0  0  0  0  0  0  0  0  0  0
   59.7445   34.6007   48.8943 H   0  0  0  0  0  0  0  0  0  0  0  0
   60.0233   32.8910   49.2587 H   0  0  0  0  0  0  0  0  0  0  0  0
   61.9579   35.1792   49.2185 H   0  0  0  0  0  0  0  0  0  0  0  0
   62.0993   33.6379   50.0772 H   0  0  0  0  0  0  0  0  0  0  0  0
   63.5585   34.2727   47.7971 H   0  0  0  0  0  0  0  0  0  0  0  0
   63.1880   32.6023   48.2476 H   0  0  0  0  0  0  0  0  0  0  0  0
   62.0053   34.3104   46.0872 H   0  0  0  0  0  0  0  0  0  0  0  0
   62.0466   32.5432   46.1908 H   0  0  0  0  0  0  0  0  0  0  0  0
   60.1197   31.4482   45.5042 H   0  0  0  0  0  0  0  0  0  0  0  0
  1  2  2  0
  2  3  1  0
  3  4  1  0
  4  5  1  0
  5  6  1  0
  6  7  2  0
  6  8  1  0
  8  9  1  0
  9 10  1  0
 10 11  1  0
 11 12  2  0
 12 13  1  0
 13 14  2  0
 14 15  1  0
 14 16  1  0
 16 17  2  0
  2 18  1  0
 18 19  1  0
 19 20  2  0
 20 21  1  0
 21 22  2  0
 22 23  1  0
 23 24  1  0
 24 25  1  0
 25 26  1  0
 26 27  1  0
 27 28  1  0
 23 29  2  0
  9  4  2  0
 17 11  1  0
 29 19  1  0
 28 24  1  0
  3 30  1  0
  3 31  1  0
 10 32  1  0
 10 33  1  0
 12 34  1  0
 13 35  1  0
 15 36  1  0
 16 37  1  0
 17 38  1  0
 20 39  1  0
 21 40  1  0
 22 41  1  0
 25 42  1  0
 25 43  1  0
 26 44  1  0
 26 45  1  0
 27 46  1  0
 27 47  1  0
 28 48  1  0
 28 49  1  0
 29 50  1  0
M  CHG  3   5  -1   8  -1  18  -1
M  END
>  <UniqueID>  (73) 
71

>  <SMILES>  (73) 
O=C(Cc1[n-]c(=O)[n-]c1Cc1ccc(O)cc1)[N-]c1cccc(N2CCCC2)c1

>  <Energy>  (73) 
81.89455411970053

>  <Genealogy>  (73) 
O=C(Cc1[n-]c(=O)[n-]c1Cc1ccc(O)cc1)[N-]c1cccc(N2CCCC2)c1 (protonated)
O=C(Cc1[n-]c(=O)[n-]c1Cc1ccc(O)cc1)[N-]c1cccc(N2CCCC2)c1 (3D coordinates assigned)
O=C(Cc1[n-]c(=O)[n-]c1Cc1ccc(O)cc1)[N-]c1cccc(N2CCCC2)c1 (nonaromatic ring conformer: 81.89455411970053 kcal/mol)

>  <smiles>  (73) 
O=C(Cc1[nH]c(=O)[nH]c1Cc1ccc(O)cc1)Nc1cccc(N2CCCC2)c1

>  <score_type>  (73) 
oracle

>  <origin>  (73) 
adg

>  <m_score__min__energy>  (73) 
-13.67

>  <m_primary>  (73) 
energy

$$$$
73:0
     RDKit          3D

 53 56  0  0  0  0  0  0  0  0999 V2000
   54.1635   27.5754   54.5735 H   0  0  0  0  0  0  0  0  0  0  0  0
   53.6060   28.3010   53.9630 C   0  0  0  0  0  0  0  0  0  0  0  0
   52.5090   28.2439   53.9059 H   0  0  0  0  0  0  0  0  0  0  0  0
   54.2650   29.2570   53.2870 C   0  0  0  0  0  0  0  0  0  0  0  0
   53.6860   30.2440   52.4730 C   0  0  0  0  0  0  0  0  0  0  0  0
   52.3650   30.4470   52.2630 C   0  0  0  0  0  0  0  0  0  0  0  0
   51.6951   30.3114   53.1249 H   0  0  0  0  0  0  0  0  0  0  0  0
   51.7390   30.8350   50.9790 C   0  0  0  0  0  0  0  0  0  0  0  0
   51.6650   30.0800   49.8690 N   0  0  0  0  0  0  0  0  0  0  0  0
   51.0180   30.8710   48.9880 C   0  0  0  0  0  0  0  0  0  0  0  0
   50.7560   30.5030   47.8140 O   0  0  0  0  0  0  0  0  0  0  0  0
   50.6720   32.0840   49.4650 N   0  0  0  0  0  0  0  0  0  0  0  0
   51.1360   32.0450   50.7240 C   0  0  0  0  0  0  0  0  0  0  0  0
   51.0120   33.0980   51.6230 O   0  0  0  0  0  0  0  0  0  0  0  0
   54.7450   30.9640   51.9340 C   0  0  0  0  0  0  0  0  0  0  0  0
   54.6735   31.8180   51.2444 H   0  0  0  0  0  0  0  0  0  0  0  0
   55.9020   30.4030   52.4290 C   0  0  0  0  0  0  0  0  0  0  0  0
   57.2590   30.8360   52.0300 C   0  0  0  0  0  0  0  0  0  0  0  0
   57.9480   31.4700   52.8770 O   0  0  0  0  0  0  0  0  0  0  0  0
   57.7990   30.6140   50.6990 N   0  0  0  0  0  0  0  0  0  0  0  0
   57.0500   30.1110   50.1640 H   0  0  0  0  0  0  0  0  0  0  0  0
   58.0450   31.9140   50.0160 C   0  0  0  0  0  0  0  0  0  0  0  0
   57.1234   32.2103   49.4936 H   0  0  0  0  0  0  0  0  0  0  0  0
   58.3394   32.6325   50.7951 H   0  0  0  0  0  0  0  0  0  0  0  0
   59.1940   31.8740   48.9880 C   0  0  0  0  0  0  0  0  0  0  0  0
   58.9951   32.6120   48.1970 H   0  0  0  0  0  0  0  0  0  0  0  0
   60.1360   32.1088   49.5052 H   0  0  0  0  0  0  0  0  0  0  0  0
   59.3110   30.5430   48.3840 N   0  0  0  0  0  0  0  0  0  0  0  0
   59.6510   30.3980   46.9940 C   0  0  0  0  0  0  0  0  0  0  0  0
   60.5930   29.6290   46.6620 O   0  0  0  0  0  0  0  0  0  0  0  0
   58.9030   31.1090   45.9410 C   0  0  0  0  0  0  0  0  0  0  0  0
   58.4560   32.4180   46.0040 C   0  0  0  0  0  0  0  0  0  0  0  0
   58.6245   33.1334   46.8224 H   0  0  0  0  0  0  0  0  0  0  0  0
   57.7570   32.6470   44.8360 C   0  0  0  0  0  0  0  0  0  0  0  0
   57.2559   33.5803   44.5396 H   0  0  0  0  0  0  0  0  0  0  0  0
   57.8120   31.4690   44.1120 C   0  0  0  0  0  0  0  0  0  0  0  0
   57.1120   31.2160   42.8190 C   0  0  0  0  0  0  0  0  0  0  0  0
   56.0947   30.8483   43.0186 H   0  0  0  0  0  0  0  0  0  0  0  0
   57.0573   32.1512   42.2425 H   0  0  0  0  0  0  0  0  0  0  0  0
   57.6679   30.4619   42.2425 H   0  0  0  0  0  0  0  0  0  0  0  0
   58.4930   30.5300   44.7950 N   0  0  0  0  0  0  0  0  0  0  0  0
   58.6590   29.5430   44.4970 H   0  0  0  0  0  0  0  0  0  0  0  0
   59.3800   29.3670   49.2590 C   0  0  0  0  0  0  0  0  0  0  0  0
   58.6927   28.5961   48.8804 H   0  0  0  0  0  0  0  0  0  0  0  0
   60.4144   28.9929   49.2624 H   0  0  0  0  0  0  0  0  0  0  0  0
   58.9860   29.7280   50.6970 C   0  0  0  0  0  0  0  0  0  0  0  0
   58.7520   28.8070   51.2510 H   0  0  0  0  0  0  0  0  0  0  0  0
   59.8251   30.2537   51.1761 H   0  0  0  0  0  0  0  0  0  0  0  0
   55.6180   29.3870   53.2750 N   0  0  0  0  0  0  0  0  0  0  0  0
   56.6070   28.6040   54.0250 C   0  0  0  0  0  0  0  0  0  0  0  0
   56.4386   28.7374   55.1038 H   0  0  0  0  0  0  0  0  0  0  0  0
   56.5044   27.5397   53.7667 H   0  0  0  0  0  0  0  0  0  0  0  0
   57.6194   28.9480   53.7667 H   0  0  0  0  0  0  0  0  0  0  0  0
  1  2  1  0
  2  3  1  0
  2  4  2  0
  4  5  1  0
  5  6  2  0
  6  7  1  0
  6  8  1  0
  8  9  1  0
  9 10  1  0
 10 11  2  0
 10 12  1  0
 12 13  1  0
 13 14  1  0
  5 15  1  0
 15 16  1  0
 15 17  2  0
 17 18  1  0
 18 19  2  0
 18 20  1  0
 20 21  1  0
 20 22  1  0
 22 23  1  0
 22 24  1  0
 22 25  1  0
 25 26  1  0
 25 27  1  0
 25 28  1  0
 28 29  1  0
 29 30  2  0
 29 31  1  0
 31 32  2  0
 32 33  1  0
 32 34  1  0
 34 35  1  0
 34 36  2  0
 36 37  1  0
 37 38  1  0
 37 39  1  0
 37 40  1  0
 36 41  1  0
 41 42  1  0
 28 43  1  0
 43 44  1  0
 43 45  1  0
 43 46  1  0
 46 47  1  0
 46 48  1  0
 17 49  1  0
 49 50  1  0
 50 51  1  0
 50 52  1  0
 50 53  1  0
 49  4  1  0
 13  8  2  0
 46 20  1  0
 41 31  1  0
M  CHG  4   9  -1  12  -1  14  -1  20   1
M  END
>  <UniqueID>  (74) 
72

>  <SMILES>  (74) 
C=c1/c(=C/c2[n-]c(=O)[n-]c2[O-])cc(C(=O)[NH+]2CCN(C(=O)c3ccc(C)[nH]3)CC2)n1C

>  <Energy>  (74) 
163.07534078309624

>  <Genealogy>  (74) 
C=c1c(=Cc2[n-]c(=O)[n-]c2[O-])cc(C(=O)[NH+]2CCN(C(=O)c3ccc(C)[nH]3)CC2)n1C (protonated)
C=c1/c(=C/c2[n-]c(=O)[n-]c2[O-])cc(C(=O)[NH+]2CCN(C(=O)c3ccc(C)[nH]3)CC2)n1C (cis-trans isomerization)
C=c1/c(=C/c2[n-]c(=O)[n-]c2[O-])cc(C(=O)[NH+]2CCN(C(=O)c3ccc(C)[nH]3)CC2)n1C (3D coordinates assigned)
C=c1/c(=C/c2[n-]c(=O)[n-]c2[O-])cc(C(=O)[NH+]2CCN(C(=O)c3ccc(C)[nH]3)CC2)n1C (nonaromatic ring conformer: 163.07534078309624 kcal/mol)

>  <smiles>  (74) 
C=c1c(=Cc2[nH]c(=O)[nH]c2O)cc(C(=O)N2CCN(C(=O)c3ccc(C)[nH]3)CC2)n1C

>  <score_type>  (74) 
oracle

>  <origin>  (74) 
adg

>  <m_score__min__energy>  (74) 
-16.899999999999999

>  <m_primary>  (74) 
energy

$$$$
74:0
     RDKit          3D

 64 67  0  0  0  0  0  0  0  0999 V2000
   55.8580   22.3480   47.2450 C   0  0  0  0  0  0  0  0  0  0  0  0
   56.0070   22.4670   45.7540 C   0  0  0  0  0  0  0  0  0  0  0  0
   56.5180   21.3890   45.0120 C   0  0  0  0  0  0  0  0  0  0  0  0
   56.6560   21.4890   43.6250 C   0  0  0  0  0  0  0  0  0  0  0  0
   56.2990   22.6690   42.9700 C   0  0  0  0  0  0  0  0  0  0  0  0
   55.7870   23.7440   43.6980 C   0  0  0  0  0  0  0  0  0  0  0  0
   55.6080   23.6430   45.0860 C   0  0  0  0  0  0  0  0  0  0  0  0
   55.1140   24.7550   45.8480 N   0  0  0  0  0  0  0  0  0  0  0  0
   55.8630   25.8880   46.3030 C   0  0  0  0  0  0  0  0  0  0  0  0
   55.5520   27.0300   45.8750 O   0  0  0  0  0  0  0  0  0  0  0  0
   57.1020   25.7350   47.1410 C   0  0  0  0  0  0  0  0  0  0  0  0
   58.6560   25.7330   46.1690 S   0  0  0  0  0  0  0  0  0  0  0  0
   58.6060   27.4540   45.6020 C   0  0  0  0  0  0  0  0  0  0  0  0
   57.7120   27.7590   44.6190 N   0  0  0  0  0  0  0  0  0  0  0  0
   57.6210   29.0090   44.1020 C   0  0  0  0  0  0  0  0  0  0  0  0
   56.6610   29.3050   43.1200 C   0  0  0  0  0  0  0  0  0  0  0  0
   56.5840   30.5900   42.5770 C   0  0  0  0  0  0  0  0  0  0  0  0
   57.4640   31.5850   43.0060 C   0  0  0  0  0  0  0  0  0  0  0  0
   58.4270   31.2990   43.9780 C   0  0  0  0  0  0  0  0  0  0  0  0
   58.5090   30.0060   44.5350 C   0  0  0  0  0  0  0  0  0  0  0  0
   59.4720   29.6680   45.4980 C   0  0  0  0  0  0  0  0  0  0  0  0
   60.3480   30.5230   45.8130 O   0  0  0  0  0  0  0  0  0  0  0  0
   59.4880   28.4130   46.0680 N   0  0  0  0  0  0  0  0  0  0  0  0
   60.5610   28.0680   47.0380 C   0  0  0  0  0  0  0  0  0  0  0  0
   60.2520   28.4740   48.4940 C   0  0  0  0  0  0  0  0  0  0  0  0
   60.6710   29.9100   48.8320 C   0  0  0  0  0  0  0  0  0  0  0  0
   59.4970   30.8550   48.7480 C   0  0  0  0  0  0  0  0  0  0  0  0
   58.4870   30.6540   49.4770 O   0  0  0  0  0  0  0  0  0  0  0  0
   59.5220   32.0080   47.8860 N   0  0  0  0  0  0  0  0  0  0  0  0
   58.3330   32.3430   47.0900 C   0  0  0  0  0  0  0  0  0  0  0  0
   58.1170   33.8580   47.0640 C   0  0  0  0  0  0  0  0  0  0  0  0
   59.3960   34.5840   46.6330 C   0  0  0  0  0  0  0  0  0  0  0  0
   60.5620   34.2160   47.5550 C   0  0  0  0  0  0  0  0  0  0  0  0
   60.7800   32.7000   47.5810 C   0  0  0  0  0  0  0  0  0  0  0  0
   56.6255   22.9609   47.7403 H   0  0  0  0  0  0  0  0  0  0  0  0
   54.8593   22.6998   47.5429 H   0  0  0  0  0  0  0  0  0  0  0  0
   55.9802   21.2962   47.5429 H   0  0  0  0  0  0  0  0  0  0  0  0
   56.8110   20.4614   45.5255 H   0  0  0  0  0  0  0  0  0  0  0  0
   57.0463   20.6371   43.0488 H   0  0  0  0  0  0  0  0  0  0  0  0
   56.4213   22.7515   41.8799 H   0  0  0  0  0  0  0  0  0  0  0  0
   55.5218   24.6774   43.1798 H   0  0  0  0  0  0  0  0  0  0  0  0
   57.1417   26.5691   47.8570 H   0  0  0  0  0  0  0  0  0  0  0  0
   57.0337   24.7563   47.6386 H   0  0  0  0  0  0  0  0  0  0  0  0
   57.0800   27.0090   44.2600 H   0  0  0  0  0  0  0  0  0  0  0  0
   55.9678   28.5226   42.7775 H   0  0  0  0  0  0  0  0  0  0  0  0
   55.8288   30.8179   41.8103 H   0  0  0  0  0  0  0  0  0  0  0  0
   57.3995   32.5964   42.5782 H   0  0  0  0  0  0  0  0  0  0  0  0
   59.1224   32.0843   44.3092 H   0  0  0  0  0  0  0  0  0  0  0  0
   60.7153   26.9793   47.0088 H   0  0  0  0  0  0  0  0  0  0  0  0
   61.4546   28.6335   46.7351 H   0  0  0  0  0  0  0  0  0  0  0  0
   59.1685   28.3797   48.6590 H   0  0  0  0  0  0  0  0  0  0  0  0
   60.8337   27.8058   49.1460 H   0  0  0  0  0  0  0  0  0  0  0  0
   61.0785   29.9339   49.8534 H   0  0  0  0  0  0  0  0  0  0  0  0
   61.4302   30.2319   48.1040 H   0  0  0  0  0  0  0  0  0  0  0  0
   58.4714   31.9790   46.0612 H   0  0  0  0  0  0  0  0  0  0  0  0
   57.4530   31.8652   47.5452 H   0  0  0  0  0  0  0  0  0  0  0  0
   57.3112   34.0950   46.3537 H   0  0  0  0  0  0  0  0  0  0  0  0
   57.8465   34.1925   48.0764 H   0  0  0  0  0  0  0  0  0  0  0  0
   59.6457   34.2947   45.6015 H   0  0  0  0  0  0  0  0  0  0  0  0
   59.2252   35.6690   46.6934 H   0  0  0  0  0  0  0  0  0  0  0  0
   61.4774   34.7054   47.1910 H   0  0  0  0  0  0  0  0  0  0  0  0
   60.3249   34.5548   48.5743 H   0  0  0  0  0  0  0  0  0  0  0  0
   61.1465   32.3695   46.5979 H   0  0  0  0  0  0  0  0  0  0  0  0
   61.5183   32.4587   48.3599 H   0  0  0  0  0  0  0  0  0  0  0  0
  1  2  1  0
  2  3  2  0
  3  4  1  0
  4  5  2  0
  5  6  1  0
  6  7  2  0
  7  8  1  0
  8  9  1  0
  9 10  2  0
  9 11  1  0
 11 12  1  0
 12 13  1  0
 13 14  2  0
 14 15  1  0
 15 16  2  0
 16 17  1  0
 17 18  2  0
 18 19  1  0
 19 20  2  0
 20 21  1  0
 21 22  2  0
 21 23  1  0
 23 24  1  0
 24 25  1  0
 25 26  1  0
 26 27  1  0
 27 28  2  0
 27 29  1  0
 29 30  1  0
 30 31  1  0
 31 32  1  0
 32 33  1  0
 33 34  1  0
  7  2  1  0
 23 13  1  0
 34 29  1  0
 20 15  1  0
  1 35  1  0
  1 36  1  0
  1 37  1  0
  3 38  1  0
  4 39  1  0
  5 40  1  0
  6 41  1  0
 11 42  1  0
 11 43  1  0
 14 44  1  0
 16 45  1  0
 17 46  1  0
 18 47  1  0
 19 48  1  0
 24 49  1  0
 24 50  1  0
 25 51  1  0
 25 52  1  0
 26 53  1  0
 26 54  1  0
 30 55  1  0
 30 56  1  0
 31 57  1  0
 31 58  1  0
 32 59  1  0
 32 60  1  0
 33 61  1  0
 33 62  1  0
 34 63  1  0
 34 64  1  0
M  CHG  2   8  -1  14   1
M  END
>  <UniqueID>  (75) 
73

>  <SMILES>  (75) 
Cc1ccccc1[N-]C(=O)CSc1[nH+]c2ccccc2c(=O)n1CCCC(=O)N1CCCCC1

>  <Energy>  (75) 
73.46455297415632

>  <Genealogy>  (75) 
Cc1ccccc1[N-]C(=O)CSc1[nH+]c2ccccc2c(=O)n1CCCC(=O)N1CCCCC1 (protonated)
Cc1ccccc1[N-]C(=O)CSc1[nH+]c2ccccc2c(=O)n1CCCC(=O)N1CCCCC1 (3D coordinates assigned)
Cc1ccccc1[N-]C(=O)CSc1[nH+]c2ccccc2c(=O)n1CCCC(=O)N1CCCCC1 (nonaromatic ring conformer: 73.46455297415632 kcal/mol)

>  <smiles>  (75) 
Cc1ccccc1NC(=O)CSc1nc2ccccc2c(=O)n1CCCC(=O)N1CCCCC1

>  <score_type>  (75) 
oracle

>  <origin>  (75) 
adg

>  <m_score__min__energy>  (75) 
-10

>  <m_primary>  (75) 
energy

$$$$
75:0
     RDKit          3D

 27 28  0  0  0  0  0  0  0  0999 V2000
   53.6890   27.6090   53.2530 C   0  0  0  0  0  0  0  0  0  0  0  0
   53.9990   28.9110   53.2770 C   0  0  0  0  0  0  0  0  0  0  0  0
   52.9800   29.9360   52.9230 C   0  0  0  0  0  0  0  0  0  0  0  0
   51.7130   29.9150   53.5370 C   0  0  0  0  0  0  0  0  0  0  0  0
   50.7580   30.8860   53.2280 C   0  0  0  0  0  0  0  0  0  0  0  0
   51.0540   31.8910   52.3050 C   0  0  0  0  0  0  0  0  0  0  0  0
   50.1020   32.8580   52.0020 O   0  0  0  0  0  0  0  0  0  0  0  0
   52.3070   31.9260   51.6890 C   0  0  0  0  0  0  0  0  0  0  0  0
   53.2720   30.9540   51.9890 C   0  0  0  0  0  0  0  0  0  0  0  0
   54.5110   30.9900   51.3490 O   0  0  0  0  0  0  0  0  0  0  0  0
   55.3430   29.3400   53.7380 C   0  0  0  0  0  0  0  0  0  0  0  0
   56.4630   29.0160   52.9540 C   0  0  0  0  0  0  0  0  0  0  0  0
   57.7440   29.4030   53.3540 C   0  0  0  0  0  0  0  0  0  0  0  0
   57.9230   30.1100   54.5430 C   0  0  0  0  0  0  0  0  0  0  0  0
   56.8210   30.4240   55.3420 C   0  0  0  0  0  0  0  0  0  0  0  0
   55.5310   30.0410   54.9520 C   0  0  0  0  0  0  0  0  0  0  0  0
   54.1940   30.3940   56.0420 Cl  0  0  0  0  0  0  0  0  0  0  0  0
   54.4483   26.8579   53.5161 H   0  0  0  0  0  0  0  0  0  0  0  0
   52.6749   27.2902   52.9701 H   0  0  0  0  0  0  0  0  0  0  0  0
   51.4734   29.1271   54.2662 H   0  0  0  0  0  0  0  0  0  0  0  0
   49.7709   30.8590   53.7126 H   0  0  0  0  0  0  0  0  0  0  0  0
   52.5381   32.7207   50.9644 H   0  0  0  0  0  0  0  0  0  0  0  0
   55.0040   31.8610   51.1930 H   0  0  0  0  0  0  0  0  0  0  0  0
   56.3300   28.4534   52.0182 H   0  0  0  0  0  0  0  0  0  0  0  0
   58.6137   29.1497   52.7300 H   0  0  0  0  0  0  0  0  0  0  0  0
   58.9322   30.4204   54.8516 H   0  0  0  0  0  0  0  0  0  0  0  0
   56.9669   30.9751   56.2827 H   0  0  0  0  0  0  0  0  0  0  0  0
  1  2  2  0
  2  3  1  0
  3  4  2  0
  4  5  1  0
  5  6  2  0
  6  7  1  0
  6  8  1  0
  8  9  2  0
  9 10  1  0
  2 11  1  0
 11 12  2  0
 12 13  1  0
 13 14  2  0
 14 15  1  0
 15 16  2  0
 16 17  1  0
  9  3  1  0
 16 11  1  0
  1 18  1  0
  1 19  1  0
  4 20  1  0
  5 21  1  0
  8 22  1  0
 10 23  1  0
 12 24  1  0
 13 25  1  0
 14 26  1  0
 15 27  1  0
M  CHG  1   7  -1
M  END
>  <UniqueID>  (76) 
74

>  <SMILES>  (76) 
C=C(c1ccc([O-])cc1O)c1ccccc1Cl

>  <Energy>  (76) 
39.20400360948183

>  <Genealogy>  (76) 
C=C(c1ccc([O-])cc1O)c1ccccc1Cl (protonated)
C=C(c1ccc([O-])cc1O)c1ccccc1Cl (3D coordinates assigned)
C=C(c1ccc([O-])cc1O)c1ccccc1Cl (optimized conformer: 39.20400360948183 kcal/mol)

>  <smiles>  (76) 
C=C(c1ccc(O)cc1O)c1ccccc1Cl

>  <score_type>  (76) 
oracle

>  <origin>  (76) 
adg

>  <m_score__min__energy>  (76) 
-9.2899999999999991

>  <m_primary>  (76) 
energy

$$$$
76:0
     RDKit          3D

 56 59  0  0  0  0  0  0  0  0999 V2000
   60.9190   29.6310   49.3590 C   0  0  0  0  0  0  0  0  0  0  0  0
   60.6950   29.2940   47.9130 C   0  0  0  0  0  0  0  0  0  0  0  0
   61.0860   30.1110   47.0390 O   0  0  0  0  0  0  0  0  0  0  0  0
   60.0280   28.0320   47.4950 C   0  0  0  0  0  0  0  0  0  0  0  0
   60.7160   27.0510   46.7540 C   0  0  0  0  0  0  0  0  0  0  0  0
   60.0740   25.8700   46.3680 C   0  0  0  0  0  0  0  0  0  0  0  0
   58.7330   25.6470   46.7020 C   0  0  0  0  0  0  0  0  0  0  0  0
   58.1270   24.4090   46.2970 N   0  0  0  0  0  0  0  0  0  0  0  0
   57.9610   23.9180   44.9610 C   0  0  0  0  0  0  0  0  0  0  0  0
   58.1930   22.7100   44.6830 O   0  0  0  0  0  0  0  0  0  0  0  0
   57.3960   24.8160   43.9040 C   0  0  0  0  0  0  0  0  0  0  0  0
   57.4190   26.2100   44.3460 N   0  0  0  0  0  0  0  0  0  0  0  0
   57.8560   27.2790   43.4890 C   0  0  0  0  0  0  0  0  0  0  0  0
   58.2950   27.0110   42.3360 O   0  0  0  0  0  0  0  0  0  0  0  0
   57.8220   28.6920   43.9420 C   0  0  0  0  0  0  0  0  0  0  0  0
   58.9200   29.2330   44.6360 C   0  0  0  0  0  0  0  0  0  0  0  0
   58.9010   30.5620   45.0710 C   0  0  0  0  0  0  0  0  0  0  0  0
   57.7890   31.3720   44.8180 C   0  0  0  0  0  0  0  0  0  0  0  0
   57.7510   33.0470   45.3620 S   0  0  0  0  0  0  0  0  0  0  0  0
   56.5590   33.2710   46.2520 O   0  0  0  0  0  0  0  0  0  0  0  0
   57.6420   33.9430   44.1590 O   0  0  0  0  0  0  0  0  0  0  0  0
   59.2010   33.4150   46.2410 N   0  0  0  0  0  0  0  0  0  0  0  0
   60.4480   33.8710   45.6310 C   0  0  0  0  0  0  0  0  0  0  0  0
   61.4770   33.9560   46.7880 C   0  0  0  0  0  0  0  0  0  0  0  0
   60.7110   33.4660   47.9700 C   0  0  0  0  0  0  0  0  0  0  0  0
   61.1600   33.3040   49.2820 C   0  0  0  0  0  0  0  0  0  0  0  0
   60.2580   32.8160   50.2430 C   0  0  0  0  0  0  0  0  0  0  0  0
   58.9350   32.4990   49.8780 C   0  0  0  0  0  0  0  0  0  0  0  0
   58.5070   32.6720   48.5490 C   0  0  0  0  0  0  0  0  0  0  0  0
   59.4250   33.1650   47.6170 C   0  0  0  0  0  0  0  0  0  0  0  0
   56.6970   30.8450   44.1170 C   0  0  0  0  0  0  0  0  0  0  0  0
   56.7120   29.5190   43.6770 C   0  0  0  0  0  0  0  0  0  0  0  0
   58.0470   26.6080   47.4660 C   0  0  0  0  0  0  0  0  0  0  0  0
   58.6870   27.7910   47.8490 C   0  0  0  0  0  0  0  0  0  0  0  0
   60.4208   28.8815   49.9916 H   0  0  0  0  0  0  0  0  0  0  0  0
   61.9981   29.6320   49.5724 H   0  0  0  0  0  0  0  0  0  0  0  0
   60.5021   30.6263   49.5724 H   0  0  0  0  0  0  0  0  0  0  0  0
   61.7677   27.2154   46.4765 H   0  0  0  0  0  0  0  0  0  0  0  0
   60.6275   25.1099   45.7971 H   0  0  0  0  0  0  0  0  0  0  0  0
   57.9962   24.7175   42.9874 H   0  0  0  0  0  0  0  0  0  0  0  0
   56.3537   24.5229   43.7099 H   0  0  0  0  0  0  0  0  0  0  0  0
   57.1800   26.4020   45.3440 H   0  0  0  0  0  0  0  0  0  0  0  0
   59.8005   28.6054   44.8380 H   0  0  0  0  0  0  0  0  0  0  0  0
   59.7647   30.9723   45.6147 H   0  0  0  0  0  0  0  0  0  0  0  0
   60.7866   33.1536   44.8690 H   0  0  0  0  0  0  0  0  0  0  0  0
   60.3221   34.8414   45.1286 H   0  0  0  0  0  0  0  0  0  0  0  0
   62.3470   33.3129   46.5888 H   0  0  0  0  0  0  0  0  0  0  0  0
   61.8814   34.9692   46.9289 H   0  0  0  0  0  0  0  0  0  0  0  0
   62.1956   33.5525   49.5572 H   0  0  0  0  0  0  0  0  0  0  0  0
   60.5864   32.6811   51.2841 H   0  0  0  0  0  0  0  0  0  0  0  0
   58.2345   32.1151   50.6342 H   0  0  0  0  0  0  0  0  0  0  0  0
   57.4771   32.4258   48.2511 H   0  0  0  0  0  0  0  0  0  0  0  0
   55.8220   31.4791   43.9115 H   0  0  0  0  0  0  0  0  0  0  0  0
   55.8522   29.1180   43.1203 H   0  0  0  0  0  0  0  0  0  0  0  0
   57.0033   26.4285   47.7634 H   0  0  0  0  0  0  0  0  0  0  0  0
   58.1359   28.5422   48.4339 H   0  0  0  0  0  0  0  0  0  0  0  0
  1  2  1  0
  2  3  2  0
  2  4  1  0
  4  5  2  0
  5  6  1  0
  6  7  2  0
  7  8  1  0
  8  9  1  0
  9 10  2  0
  9 11  1  0
 11 12  1  0
 12 13  1  0
 13 14  2  0
 13 15  1  0
 15 16  2  0
 16 17  1  0
 17 18  2  0
 18 19  1  0
 19 20  2  0
 19 21  2  0
 19 22  1  0
 22 23  1  0
 23 24  1  0
 24 25  1  0
 25 26  2  0
 26 27  1  0
 27 28  2  0
 28 29  1  0
 29 30  2  0
 18 31  1  0
 31 32  2  0
  7 33  1  0
 33 34  2  0
 34  4  1  0
 32 15  1  0
 30 22  1  0
 30 25  1  0
  1 35  1  0
  1 36  1  0
  1 37  1  0
  5 38  1  0
  6 39  1  0
 11 40  1  0
 11 41  1  0
 12 42  1  0
 16 43  1  0
 17 44  1  0
 23 45  1  0
 23 46  1  0
 24 47  1  0
 24 48  1  0
 26 49  1  0
 27 50  1  0
 28 51  1  0
 29 52  1  0
 31 53  1  0
 32 54  1  0
 33 55  1  0
 34 56  1  0
M  CHG  1   8  -1
M  END
>  <UniqueID>  (77) 
75

>  <SMILES>  (77) 
CC(=O)c1ccc([N-]C(=O)CNC(=O)c2ccc(S(=O)(=O)N3CCc4ccccc43)cc2)cc1

>  <Energy>  (77) 
79.54354375381286

>  <Genealogy>  (77) 
CC(=O)c1ccc([N-]C(=O)CNC(=O)c2ccc(S(=O)(=O)N3CCc4ccccc43)cc2)cc1 (protonated)
CC(=O)c1ccc([N-]C(=O)CNC(=O)c2ccc(S(=O)(=O)N3CCc4ccccc43)cc2)cc1 (3D coordinates assigned)
CC(=O)c1ccc([N-]C(=O)CNC(=O)c2ccc(S(=O)(=O)N3CCc4ccccc43)cc2)cc1 (nonaromatic ring conformer: 79.54354375381286 kcal/mol)

>  <smiles>  (77) 
CC(=O)c1ccc(NC(=O)CNC(=O)c2ccc(S(=O)(=O)N3CCc4ccccc43)cc2)cc1

>  <score_type>  (77) 
oracle

>  <origin>  (77) 
adg

>  <m_score__min__energy>  (77) 
-11.51

>  <m_primary>  (77) 
energy

$$$$
77:0
     RDKit          3D

 58 62  0  0  0  0  0  0  0  0999 V2000
   61.2340   29.0030   44.5160 O   0  0  0  0  0  0  0  0  0  0  0  0
   60.7720   28.5870   45.6140 C   0  0  0  0  0  0  0  0  0  0  0  0
   60.4250   27.1220   45.7220 C   0  0  0  0  0  0  0  0  0  0  0  0
   58.9340   26.9020   45.8040 C   0  0  0  0  0  0  0  0  0  0  0  0
   58.0610   28.0000   45.8580 C   0  0  0  0  0  0  0  0  0  0  0  0
   56.6800   27.8020   45.9000 C   0  0  0  0  0  0  0  0  0  0  0  0
   56.1510   26.5080   45.8970 C   0  0  0  0  0  0  0  0  0  0  0  0
   54.7710   26.3430   45.9530 O   0  0  0  0  0  0  0  0  0  0  0  0
   57.0130   25.3940   45.8560 C   0  0  0  0  0  0  0  0  0  0  0  0
   56.4780   24.0120   45.8210 C   0  0  0  0  0  0  0  0  0  0  0  0
   55.9710   23.4130   46.9870 C   0  0  0  0  0  0  0  0  0  0  0  0
   55.4530   22.1170   46.9450 C   0  0  0  0  0  0  0  0  0  0  0  0
   55.4350   21.4070   45.7410 C   0  0  0  0  0  0  0  0  0  0  0  0
   55.9330   21.9930   44.5740 C   0  0  0  0  0  0  0  0  0  0  0  0
   55.9150   21.2710   43.3820 O   0  0  0  0  0  0  0  0  0  0  0  0
   56.4470   23.2960   44.6120 C   0  0  0  0  0  0  0  0  0  0  0  0
   58.4040   25.6010   45.8290 C   0  0  0  0  0  0  0  0  0  0  0  0
   60.5640   29.5200   46.7060 N   0  0  0  0  0  0  0  0  0  0  0  0
   60.4600   30.9530   46.3830 C   0  0  0  0  0  0  0  0  0  0  0  0
   60.8330   31.8150   47.5900 C   0  0  0  0  0  0  0  0  0  0  0  0
   60.0410   31.3950   48.7560 N   0  0  0  0  0  0  0  0  0  0  0  0
   60.1420   32.3420   49.8900 C   0  0  0  0  0  0  0  0  0  0  0  0
   59.1440   32.0820   50.9980 C   0  0  0  0  0  0  0  0  0  0  0  0
   59.1700   32.8620   52.1840 C   0  0  0  0  0  0  0  0  0  0  0  0
   58.2440   32.6250   53.2160 C   0  0  0  0  0  0  0  0  0  0  0  0
   57.3050   31.6140   53.0290 C   0  0  0  0  0  0  0  0  0  0  0  0
   57.2690   30.8690   51.8960 C   0  0  0  0  0  0  0  0  0  0  0  0
   58.1680   31.0680   50.8530 C   0  0  0  0  0  0  0  0  0  0  0  0
   56.2380   29.9520   51.9800 O   0  0  0  0  0  0  0  0  0  0  0  0
   55.5830   30.1350   53.2450 C   0  0  0  0  0  0  0  0  0  0  0  0
   56.2980   31.2040   53.8820 O   0  0  0  0  0  0  0  0  0  0  0  0
   60.3770   30.0110   49.1310 C   0  0  0  0  0  0  0  0  0  0  0  0
   60.0070   29.0610   47.9900 C   0  0  0  0  0  0  0  0  0  0  0  0
   60.8137   26.5981   44.8363 H   0  0  0  0  0  0  0  0  0  0  0  0
   60.8788   26.7310   46.6446 H   0  0  0  0  0  0  0  0  0  0  0  0
   58.4675   29.0221   45.8673 H   0  0  0  0  0  0  0  0  0  0  0  0
   56.0040   28.6691   45.9357 H   0  0  0  0  0  0  0  0  0  0  0  0
   55.9823   23.9676   47.9369 H   0  0  0  0  0  0  0  0  0  0  0  0
   55.0583   21.6538   47.8613 H   0  0  0  0  0  0  0  0  0  0  0  0
   55.0282   20.3854   45.7120 H   0  0  0  0  0  0  0  0  0  0  0  0
   55.5050   20.3450   43.3300 H   0  0  0  0  0  0  0  0  0  0  0  0
   56.8282   23.7609   43.6908 H   0  0  0  0  0  0  0  0  0  0  0  0
   59.0835   24.7359   45.8274 H   0  0  0  0  0  0  0  0  0  0  0  0
   61.1414   31.1847   45.5511 H   0  0  0  0  0  0  0  0  0  0  0  0
   59.4198   31.1745   46.1020 H   0  0  0  0  0  0  0  0  0  0  0  0
   61.9037   31.6930   47.8108 H   0  0  0  0  0  0  0  0  0  0  0  0
   60.6229   32.8711   47.3652 H   0  0  0  0  0  0  0  0  0  0  0  0
   61.1550   32.2694   50.3125 H   0  0  0  0  0  0  0  0  0  0  0  0
   59.9213   33.3428   49.4904 H   0  0  0  0  0  0  0  0  0  0  0  0
   59.9205   33.6583   52.2968 H   0  0  0  0  0  0  0  0  0  0  0  0
   58.2611   33.2195   54.1414 H   0  0  0  0  0  0  0  0  0  0  0  0
   58.1213   30.4543   49.9413 H   0  0  0  0  0  0  0  0  0  0  0  0
   54.5279   30.4092   53.0980 H   0  0  0  0  0  0  0  0  0  0  0  0
   55.5882   29.2162   53.8498 H   0  0  0  0  0  0  0  0  0  0  0  0
   61.4562   29.9386   49.3312 H   0  0  0  0  0  0  0  0  0  0  0  0
   59.8133   29.7320   50.0334 H   0  0  0  0  0  0  0  0  0  0  0  0
   60.4039   28.0600   48.2148 H   0  0  0  0  0  0  0  0  0  0  0  0
   58.9108   29.0358   47.9024 H   0  0  0  0  0  0  0  0  0  0  0  0
  1  2  2  0
  2  3  1  0
  3  4  1  0
  4  5  2  0
  5  6  1  0
  6  7  2  0
  7  8  1  0
  7  9  1  0
  9 10  1  0
 10 11  2  0
 11 12  1  0
 12 13  2  0
 13 14  1  0
 14 15  1  0
 14 16  2  0
  9 17  2  0
  2 18  1  0
 18 19  1  0
 19 20  1  0
 20 21  1  0
 21 22  1  0
 22 23  1  0
 23 24  2  0
 24 25  1  0
 25 26  2  0
 26 27  1  0
 27 28  2  0
 27 29  1  0
 29 30  1  0
 30 31  1  0
 21 32  1  0
 32 33  1  0
 17  4  1  0
 33 18  1  0
 16 10  1  0
 28 23  1  0
 31 26  1  0
  3 34  1  0
  3 35  1  0
  5 36  1  0
  6 37  1  0
 11 38  1  0
 12 39  1  0
 13 40  1  0
 15 41  1  0
 16 42  1  0
 17 43  1  0
 19 44  1  0
 19 45  1  0
 20 46  1  0
 20 47  1  0
 22 48  1  0
 22 49  1  0
 24 50  1  0
 25 51  1  0
 28 52  1  0
 30 53  1  0
 30 54  1  0
 32 55  1  0
 32 56  1  0
 33 57  1  0
 33 58  1  0
M  CHG  1   8  -1
M  END
>  <UniqueID>  (78) 
76

>  <SMILES>  (78) 
O=C(Cc1ccc([O-])c(-c2cccc(O)c2)c1)N1CCN(Cc2ccc3c(c2)OCO3)CC1

>  <Energy>  (78) 
99.44478016520648

>  <Genealogy>  (78) 
O=C(Cc1ccc([O-])c(-c2cccc(O)c2)c1)N1CCN(Cc2ccc3c(c2)OCO3)CC1 (protonated)
O=C(Cc1ccc([O-])c(-c2cccc(O)c2)c1)N1CCN(Cc2ccc3c(c2)OCO3)CC1 (3D coordinates assigned)
O=C(Cc1ccc([O-])c(-c2cccc(O)c2)c1)N1CCN(Cc2ccc3c(c2)OCO3)CC1 (nonaromatic ring conformer: 99.44478016520648 kcal/mol)

>  <smiles>  (78) 
O=C(Cc1ccc(O)c(-c2cccc(O)c2)c1)N1CCN(Cc2ccc3c(c2)OCO3)CC1

>  <score_type>  (78) 
oracle

>  <origin>  (78) 
adg

>  <m_score__min__energy>  (78) 
-11.91

>  <m_primary>  (78) 
energy

$$$$
78:0
     RDKit          3D

 42 44  0  0  0  0  0  0  0  0999 V2000
   53.1220   23.8570   45.8290 C   0  0  0  0  0  0  0  0  0  0  0  0
   54.1380   23.9860   44.7360 C   0  0  0  0  0  0  0  0  0  0  0  0
   53.7900   23.7190   43.5550 O   0  0  0  0  0  0  0  0  0  0  0  0
   55.5360   24.4100   45.0120 C   0  0  0  0  0  0  0  0  0  0  0  0
   55.8260   25.6490   45.6170 C   0  0  0  0  0  0  0  0  0  0  0  0
   54.7920   26.4990   45.9980 O   0  0  0  0  0  0  0  0  0  0  0  0
   57.1640   26.0270   45.8350 C   0  0  0  0  0  0  0  0  0  0  0  0
   57.5090   27.3350   46.4500 C   0  0  0  0  0  0  0  0  0  0  0  0
   57.7390   27.3950   47.6880 O   0  0  0  0  0  0  0  0  0  0  0  0
   57.5150   28.5850   45.6540 C   0  0  0  0  0  0  0  0  0  0  0  0
   56.4220   28.8320   44.8050 C   0  0  0  0  0  0  0  0  0  0  0  0
   56.3660   29.9960   44.0370 C   0  0  0  0  0  0  0  0  0  0  0  0
   57.4020   30.9250   44.1000 C   0  0  0  0  0  0  0  0  0  0  0  0
   58.5000   30.6930   44.9290 C   0  0  0  0  0  0  0  0  0  0  0  0
   58.5720   29.5320   45.7210 C   0  0  0  0  0  0  0  0  0  0  0  0
   59.8330   29.2890   46.5150 C   0  0  0  0  0  0  0  0  0  0  0  0
   59.7370   30.1830   48.1080 S   0  0  0  0  0  0  0  0  0  0  0  0
   60.6380   31.6250   47.5530 C   0  0  0  0  0  0  0  0  0  0  0  0
   59.9640   32.7240   47.1240 N   0  0  0  0  0  0  0  0  0  0  0  0
   60.6290   33.8300   46.7020 C   0  0  0  0  0  0  0  0  0  0  0  0
   59.9850   34.8390   46.3110 O   0  0  0  0  0  0  0  0  0  0  0  0
   62.0250   33.8450   46.7020 C   0  0  0  0  0  0  0  0  0  0  0  0
   62.7030   32.7020   47.1390 C   0  0  0  0  0  0  0  0  0  0  0  0
   64.1300   32.6640   47.1480 N   0  0  0  0  0  0  0  0  0  0  0  0
   61.9960   31.6190   47.5550 N   0  0  0  0  0  0  0  0  0  0  0  0
   58.1770   25.1340   45.4390 C   0  0  0  0  0  0  0  0  0  0  0  0
   59.5170   25.4460   45.6350 O   0  0  0  0  0  0  0  0  0  0  0  0
   57.8670   23.9670   44.8870 O   0  0  0  0  0  0  0  0  0  0  0  0
   56.6180   23.5770   44.6660 C   0  0  0  0  0  0  0  0  0  0  0  0
   56.4190   22.4580   44.1220 O   0  0  0  0  0  0  0  0  0  0  0  0
   53.6240   23.9207   46.8057 H   0  0  0  0  0  0  0  0  0  0  0  0
   52.3848   24.6688   45.7420 H   0  0  0  0  0  0  0  0  0  0  0  0
   52.6110   22.8868   45.7420 H   0  0  0  0  0  0  0  0  0  0  0  0
   55.6027   28.1005   44.7454 H   0  0  0  0  0  0  0  0  0  0  0  0
   55.5024   30.1801   43.3810 H   0  0  0  0  0  0  0  0  0  0  0  0
   57.3544   31.8427   43.4954 H   0  0  0  0  0  0  0  0  0  0  0  0
   59.3191   31.4263   44.9639 H   0  0  0  0  0  0  0  0  0  0  0  0
   59.9433   28.2114   46.7061 H   0  0  0  0  0  0  0  0  0  0  0  0
   60.7000   29.6524   45.9439 H   0  0  0  0  0  0  0  0  0  0  0  0
   62.5786   34.7343   46.3664 H   0  0  0  0  0  0  0  0  0  0  0  0
   64.6720   33.0020   47.9750 H   0  0  0  0  0  0  0  0  0  0  0  0
   64.6510   32.3070   46.3180 H   0  0  0  0  0  0  0  0  0  0  0  0
  1  2  1  0
  2  3  2  0
  2  4  1  0
  4  5  2  0
  5  6  1  0
  5  7  1  0
  7  8  1  0
  8  9  2  0
  8 10  1  0
 10 11  2  0
 11 12  1  0
 12 13  2  0
 13 14  1  0
 14 15  2  0
 15 16  1  0
 16 17  1  0
 17 18  1  0
 18 19  2  0
 19 20  1  0
 20 21  2  0
 20 22  1  0
 22 23  2  0
 23 24  1  0
 23 25  1  0
  7 26  2  0
 26 27  1  0
 26 28  1  0
 28 29  1  0
 29 30  2  0
 29  4  1  0
 15 10  1  0
 25 18  1  0
  1 31  1  0
  1 32  1  0
  1 33  1  0
 11 34  1  0
 12 35  1  0
 13 36  1  0
 14 37  1  0
 16 38  1  0
 16 39  1  0
 22 40  1  0
 24 41  1  0
 24 42  1  0
M  CHG  3   6  -1  25  -1  27  -1
M  END
>  <UniqueID>  (79) 
77

>  <SMILES>  (79) 
CC(=O)c1c([O-])c(C(=O)c2ccccc2CSc2nc(=O)cc(N)[n-]2)c([O-])oc1=O

>  <Energy>  (79) 
57.50493520487383

>  <Genealogy>  (79) 
CC(=O)c1c([O-])c(C(=O)c2ccccc2CSc2nc(=O)cc(N)[n-]2)c([O-])oc1=O (protonated)
CC(=O)c1c([O-])c(C(=O)c2ccccc2CSc2nc(=O)cc(N)[n-]2)c([O-])oc1=O (3D coordinates assigned)
CC(=O)c1c([O-])c(C(=O)c2ccccc2CSc2nc(=O)cc(N)[n-]2)c([O-])oc1=O (optimized conformer: 57.50493520487383 kcal/mol)

>  <smiles>  (79) 
CC(=O)c1c(O)c(C(=O)c2ccccc2CSc2nc(=O)cc(N)[nH]2)c(O)oc1=O

>  <score_type>  (79) 
oracle

>  <origin>  (79) 
adg

>  <m_score__min__energy>  (79) 
-14.81

>  <m_primary>  (79) 
energy

$$$$
79:0
     RDKit          3D

 59 62  0  0  0  0  0  0  0  0999 V2000
   60.3260   27.5680   45.9460 C   0  0  0  0  0  0  0  0  0  0  0  0
   59.2920   28.3550   45.5960 C   0  0  0  0  0  0  0  0  0  0  0  0
   58.0890   27.9100   45.0340 C   0  0  0  0  0  0  0  0  0  0  0  0
   57.7660   26.6510   44.6800 C   0  0  0  0  0  0  0  0  0  0  0  0
   57.1740   25.6580   45.5960 C   0  0  0  0  0  0  0  0  0  0  0  0
   57.8480   24.5950   46.0650 N   0  0  0  0  0  0  0  0  0  0  0  0
   56.9730   24.0180   46.9170 C   0  0  0  0  0  0  0  0  0  0  0  0
   57.2420   22.9680   47.5550 O   0  0  0  0  0  0  0  0  0  0  0  0
   55.7930   24.6630   47.0400 N   0  0  0  0  0  0  0  0  0  0  0  0
   55.9400   25.7070   46.2080 C   0  0  0  0  0  0  0  0  0  0  0  0
   54.9870   26.7090   46.0490 O   0  0  0  0  0  0  0  0  0  0  0  0
   57.3030   29.0360   44.8540 C   0  0  0  0  0  0  0  0  0  0  0  0
   58.0330   30.1080   45.3210 C   0  0  0  0  0  0  0  0  0  0  0  0
   57.5470   31.5260   45.2870 C   0  0  0  0  0  0  0  0  0  0  0  0
   59.2550   29.7080   45.7520 N   0  0  0  0  0  0  0  0  0  0  0  0
   60.2860   30.5980   46.3170 C   0  0  0  0  0  0  0  0  0  0  0  0
   59.8230   31.2390   47.6100 C   0  0  0  0  0  0  0  0  0  0  0  0
   59.2290   30.4300   48.5980 C   0  0  0  0  0  0  0  0  0  0  0  0
   58.7480   30.9900   49.7830 C   0  0  0  0  0  0  0  0  0  0  0  0
   58.8510   32.3620   50.0010 C   0  0  0  0  0  0  0  0  0  0  0  0
   59.4490   33.1790   49.0410 C   0  0  0  0  0  0  0  0  0  0  0  0
   59.9580   32.6290   47.8560 C   0  0  0  0  0  0  0  0  0  0  0  0
   60.6300   33.5300   46.9050 C   0  0  0  0  0  0  0  0  0  0  0  0
   60.0570   34.5990   46.5660 O   0  0  0  0  0  0  0  0  0  0  0  0
   61.9390   33.2470   46.3960 N   0  0  0  0  0  0  0  0  0  0  0  0
   63.1870   33.4370   47.1310 C   0  0  0  0  0  0  0  0  0  0  0  0
   62.9730   33.2450   48.6090 C   0  0  0  0  0  0  0  0  0  0  0  0
   62.9690   34.3490   49.4780 C   0  0  0  0  0  0  0  0  0  0  0  0
   62.7950   34.1620   50.8520 C   0  0  0  0  0  0  0  0  0  0  0  0
   62.6180   32.8760   51.3680 C   0  0  0  0  0  0  0  0  0  0  0  0
   62.6140   31.7670   50.5110 C   0  0  0  0  0  0  0  0  0  0  0  0
   62.3720   30.1510   51.1650 S   0  0  0  0  0  0  0  0  0  0  0  0
   63.9420   29.4660   51.6380 C   0  0  0  0  0  0  0  0  0  0  0  0
   61.4720   30.2120   52.3680 O   0  0  0  0  0  0  0  0  0  0  0  0
   61.7300   29.2750   50.1260 O   0  0  0  0  0  0  0  0  0  0  0  0
   62.7830   31.9550   49.1310 C   0  0  0  0  0  0  0  0  0  0  0  0
   61.2327   28.0127   46.3820 H   0  0  0  0  0  0  0  0  0  0  0  0
   60.2645   26.4800   45.7961 H   0  0  0  0  0  0  0  0  0  0  0  0
   57.9560   26.3437   43.6410 H   0  0  0  0  0  0  0  0  0  0  0  0
   55.1430   27.4700   45.4000 H   0  0  0  0  0  0  0  0  0  0  0  0
   56.2919   29.0686   44.4220 H   0  0  0  0  0  0  0  0  0  0  0  0
   57.4205   31.8950   46.3155 H   0  0  0  0  0  0  0  0  0  0  0  0
   58.2816   32.1528   44.7603 H   0  0  0  0  0  0  0  0  0  0  0  0
   56.5823   31.5704   44.7603 H   0  0  0  0  0  0  0  0  0  0  0  0
   61.1947   30.0107   46.5153 H   0  0  0  0  0  0  0  0  0  0  0  0
   60.4859   31.3981   45.5890 H   0  0  0  0  0  0  0  0  0  0  0  0
   59.1431   29.3456   48.4343 H   0  0  0  0  0  0  0  0  0  0  0  0
   58.2866   30.3463   50.5463 H   0  0  0  0  0  0  0  0  0  0  0  0
   58.4606   32.8016   50.9307 H   0  0  0  0  0  0  0  0  0  0  0  0
   59.5217   34.2627   49.2151 H   0  0  0  0  0  0  0  0  0  0  0  0
   63.9289   32.7064   46.7764 H   0  0  0  0  0  0  0  0  0  0  0  0
   63.5452   34.4625   46.9574 H   0  0  0  0  0  0  0  0  0  0  0  0
   63.1033   35.3639   49.0756 H   0  0  0  0  0  0  0  0  0  0  0  0
   62.7974   35.0293   51.5286 H   0  0  0  0  0  0  0  0  0  0  0  0
   62.4814   32.7333   52.4501 H   0  0  0  0  0  0  0  0  0  0  0  0
   64.0129   29.4351   52.7353 H   0  0  0  0  0  0  0  0  0  0  0  0
   64.0333   28.4463   51.2358 H   0  0  0  0  0  0  0  0  0  0  0  0
   64.7516   30.0927   51.2358 H   0  0  0  0  0  0  0  0  0  0  0  0
   62.7666   31.0878   48.4545 H   0  0  0  0  0  0  0  0  0  0  0  0
  1  2  2  0
  2  3  1  0
  3  4  2  3
  4  5  1  0
  5  6  1  0
  6  7  1  0
  7  8  2  0
  7  9  1  0
  9 10  1  0
 10 11  1  0
  3 12  1  0
 12 13  2  0
 13 14  1  0
 13 15  1  0
 15 16  1  0
 16 17  1  0
 17 18  2  0
 18 19  1  0
 19 20  2  0
 20 21  1  0
 21 22  2  0
 22 23  1  0
 23 24  2  0
 23 25  1  0
 25 26  1  0
 26 27  1  0
 27 28  2  0
 28 29  1  0
 29 30  2  0
 30 31  1  0
 31 32  1  0
 32 33  1  0
 32 34  2  0
 32 35  2  0
 31 36  2  0
 15  2  1  0
 22 17  1  0
 36 27  1  0
 10  5  2  0
  1 37  1  0
  1 38  1  0
  4 39  1  0
 11 40  1  0
 12 41  1  0
 14 42  1  0
 14 43  1  0
 14 44  1  0
 16 45  1  0
 16 46  1  0
 18 47  1  0
 19 48  1  0
 20 49  1  0
 21 50  1  0
 26 51  1  0
 26 52  1  0
 28 53  1  0
 29 54  1  0
 30 55  1  0
 33 56  1  0
 33 57  1  0
 33 58  1  0
 36 59  1  0
M  CHG  3   6  -1   9  -1  25  -1
M  END
>  <UniqueID>  (80) 
78

>  <SMILES>  (80) 
C=c1c(=Cc2[n-]c(=O)[n-]c2O)cc(C)n1Cc1ccccc1C(=O)[N-]Cc1cccc(S(C)(=O)=O)c1

>  <Energy>  (80) 
128.07856287232897

>  <Genealogy>  (80) 
C=c1c(=Cc2[n-]c(=O)[n-]c2O)cc(C)n1Cc1ccccc1C(=O)[N-]Cc1cccc(S(C)(=O)=O)c1 (protonated)
C=c1c(=Cc2[n-]c(=O)[n-]c2O)cc(C)n1Cc1ccccc1C(=O)[N-]Cc1cccc(S(C)(=O)=O)c1 (3D coordinates assigned)
C=c1c(=Cc2[n-]c(=O)[n-]c2O)cc(C)n1Cc1ccccc1C(=O)[N-]Cc1cccc(S(C)(=O)=O)c1 (optimized conformer: 128.07856287232897 kcal/mol)

>  <smiles>  (80) 
C=c1c(=Cc2[nH]c(=O)[nH]c2O)cc(C)n1Cc1ccccc1C(=O)NCc1cccc(S(C)(=O)=O)c1

>  <score_type>  (80) 
oracle

>  <origin>  (80) 
adg

>  <m_score__min__energy>  (80) 
-16.5

>  <m_primary>  (80) 
energy

$$$$
80:0
     RDKit          3D

 39 42  0  0  0  0  0  0  0  0999 V2000
   58.8930   33.8330   47.6400 C   0  0  0  0  0  0  0  0  0  0  0  0
   58.7050   33.0160   46.6000 C   0  0  0  0  0  0  0  0  0  0  0  0
   59.3090   31.7830   46.4400 C   0  0  0  0  0  0  0  0  0  0  0  0
   58.8380   31.2780   45.2410 C   0  0  0  0  0  0  0  0  0  0  0  0
   59.1560   29.9250   44.6880 C   0  0  0  0  0  0  0  0  0  0  0  0
   58.0090   28.9870   44.9280 C   0  0  0  0  0  0  0  0  0  0  0  0
   56.6450   29.2760   44.8990 C   0  0  0  0  0  0  0  0  0  0  0  0
   56.0850   30.5040   44.5580 O   0  0  0  0  0  0  0  0  0  0  0  0
   55.8900   28.2100   45.2520 N   0  0  0  0  0  0  0  0  0  0  0  0
   56.7870   27.2420   45.5180 C   0  0  0  0  0  0  0  0  0  0  0  0
   56.5040   25.9450   45.9400 C   0  0  0  0  0  0  0  0  0  0  0  0
   57.5850   25.0690   46.1880 C   0  0  0  0  0  0  0  0  0  0  0  0
   57.3250   23.6880   46.6380 C   0  0  0  0  0  0  0  0  0  0  0  0
   57.0230   22.6640   45.8130 N   0  0  0  0  0  0  0  0  0  0  0  0
   56.8910   21.6480   46.6900 C   0  0  0  0  0  0  0  0  0  0  0  0
   56.4960   20.2650   46.2960 C   0  0  0  0  0  0  0  0  0  0  0  0
   57.0830   22.0340   47.9660 N   0  0  0  0  0  0  0  0  0  0  0  0
   57.3550   23.3010   47.8910 O   0  0  0  0  0  0  0  0  0  0  0  0
   58.9150   25.5270   46.0050 C   0  0  0  0  0  0  0  0  0  0  0  0
   59.1700   26.8410   45.5780 C   0  0  0  0  0  0  0  0  0  0  0  0
   58.0770   27.6740   45.3400 C   0  0  0  0  0  0  0  0  0  0  0  0
   57.9670   32.1390   44.6730 N   0  0  0  0  0  0  0  0  0  0  0  0
   57.8830   33.2060   45.4910 C   0  0  0  0  0  0  0  0  0  0  0  0
   57.0990   34.2590   45.2350 C   0  0  0  0  0  0  0  0  0  0  0  0
   58.3680   34.7987   47.6828 H   0  0  0  0  0  0  0  0  0  0  0  0
   59.5728   33.5401   48.4536 H   0  0  0  0  0  0  0  0  0  0  0  0
   60.0202   31.3009   47.1269 H   0  0  0  0  0  0  0  0  0  0  0  0
   59.3381   30.0077   43.6063 H   0  0  0  0  0  0  0  0  0  0  0  0
   60.0529   29.5327   45.1897 H   0  0  0  0  0  0  0  0  0  0  0  0
   56.0240   31.2660   45.2210 H   0  0  0  0  0  0  0  0  0  0  0  0
   55.4649   25.6109   46.0768 H   0  0  0  0  0  0  0  0  0  0  0  0
   56.3236   19.6615   47.1994 H   0  0  0  0  0  0  0  0  0  0  0  0
   55.5729   20.3033   45.6990 H   0  0  0  0  0  0  0  0  0  0  0  0
   57.3001   19.8100   45.6990 H   0  0  0  0  0  0  0  0  0  0  0  0
   59.7563   24.8456   46.1996 H   0  0  0  0  0  0  0  0  0  0  0  0
   60.1995   27.2015   45.4358 H   0  0  0  0  0  0  0  0  0  0  0  0
   57.4510   31.9960   43.7750 H   0  0  0  0  0  0  0  0  0  0  0  0
   57.0677   35.1051   45.9373 H   0  0  0  0  0  0  0  0  0  0  0  0
   56.4855   34.2789   44.3222 H   0  0  0  0  0  0  0  0  0  0  0  0
  1  2  2  0
  2  3  1  0
  3  4  2  0
  4  5  1  0
  5  6  1  0
  6  7  2  0
  7  8  1  0
  7  9  1  0
  9 10  1  0
 10 11  2  0
 11 12  1  0
 12 13  1  0
 13 14  2  0
 14 15  1  0
 15 16  1  0
 15 17  2  0
 17 18  1  0
 12 19  2  0
 19 20  1  0
 20 21  2  0
  4 22  1  0
 22 23  1  0
 23 24  2  0
 23  2  1  0
 21  6  1  0
 21 10  1  0
 18 13  1  0
  1 25  1  0
  1 26  1  0
  3 27  1  0
  5 28  1  0
  5 29  1  0
  8 30  1  0
 11 31  1  0
 16 32  1  0
 16 33  1  0
 16 34  1  0
 19 35  1  0
 20 36  1  0
 22 37  1  0
 24 38  1  0
 24 39  1  0
M  CHG  1   9  -1
M  END
>  <UniqueID>  (81) 
79

>  <SMILES>  (81) 
C=c1cc(Cc2c(O)[n-]c3cc(-c4nc(C)no4)ccc23)[nH]c1=C

>  <Energy>  (81) 
131.2723985314148

>  <Genealogy>  (81) 
C=c1cc(Cc2c(O)[n-]c3cc(-c4nc(C)no4)ccc23)[nH]c1=C (protonated)
C=c1cc(Cc2c(O)[n-]c3cc(-c4nc(C)no4)ccc23)[nH]c1=C (3D coordinates assigned)
C=c1cc(Cc2c(O)[n-]c3cc(-c4nc(C)no4)ccc23)[nH]c1=C (optimized conformer: 131.2723985314148 kcal/mol)

>  <smiles>  (81) 
C=c1cc(Cc2c(O)[nH]c3cc(-c4nc(C)no4)ccc23)[nH]c1=C

>  <score_type>  (81) 
oracle

>  <origin>  (81) 
adg

>  <m_score__min__energy>  (81) 
-10.720000000000001

>  <m_primary>  (81) 
energy

$$$$
81:0
     RDKit          3D

 57 59  0  0  0  0  0  0  0  0999 V2000
   59.5860   34.9160   46.1670 C   0  0  0  0  0  0  0  0  0  0  0  0
   59.1290   33.6180   45.5100 C   0  0  0  0  0  0  0  0  0  0  0  0
   57.7870   33.1520   46.0770 C   0  0  0  0  0  0  0  0  0  0  0  0
   57.4920   31.7980   45.6190 N   0  0  0  0  0  0  0  0  0  0  0  0
   57.8360   30.6590   46.2510 C   0  0  0  0  0  0  0  0  0  0  0  0
   57.4380   29.5980   45.4640 C   0  0  0  0  0  0  0  0  0  0  0  0
   57.6190   28.1410   45.7660 C   0  0  0  0  0  0  0  0  0  0  0  0
   58.8680   27.6430   45.1480 N   0  0  0  0  0  0  0  0  0  0  0  0
   59.6580   28.7200   44.5020 C   0  0  0  0  0  0  0  0  0  0  0  0
   60.7250   29.3390   45.4290 C   0  0  0  0  0  0  0  0  0  0  0  0
   60.3320   29.1590   46.8350 N   0  0  0  0  0  0  0  0  0  0  0  0
   61.0930   30.0030   47.7810 C   0  0  0  0  0  0  0  0  0  0  0  0
   60.2260   30.8840   48.6580 C   0  0  0  0  0  0  0  0  0  0  0  0
   60.3520   32.2790   48.6100 C   0  0  0  0  0  0  0  0  0  0  0  0
   59.5430   33.0730   49.4230 C   0  0  0  0  0  0  0  0  0  0  0  0
   58.6320   32.4950   50.2490 N   0  0  0  0  0  0  0  0  0  0  0  0
   58.4690   31.1450   50.3180 C   0  0  0  0  0  0  0  0  0  0  0  0
   57.4600   30.5730   51.2350 C   0  0  0  0  0  0  0  0  0  0  0  0
   57.5870   29.3870   51.6490 O   0  0  0  0  0  0  0  0  0  0  0  0
   56.3340   31.3560   51.6620 N   0  0  0  0  0  0  0  0  0  0  0  0
   55.3280   30.8180   52.5700 C   0  0  0  0  0  0  0  0  0  0  0  0
   59.2670   30.3160   49.5110 C   0  0  0  0  0  0  0  0  0  0  0  0
   60.2970   27.7320   47.2140 C   0  0  0  0  0  0  0  0  0  0  0  0
   59.6850   26.8590   46.0960 C   0  0  0  0  0  0  0  0  0  0  0  0
   56.8580   30.1800   44.3480 C   0  0  0  0  0  0  0  0  0  0  0  0
   56.2870   29.4680   43.1650 C   0  0  0  0  0  0  0  0  0  0  0  0
   56.9120   31.5220   44.4600 N   0  0  0  0  0  0  0  0  0  0  0  0
   59.5475   34.8066   47.2609 H   0  0  0  0  0  0  0  0  0  0  0  0
   60.6173   35.1406   45.8570 H   0  0  0  0  0  0  0  0  0  0  0  0
   58.9229   35.7371   45.8570 H   0  0  0  0  0  0  0  0  0  0  0  0
   59.0233   33.7819   44.4274 H   0  0  0  0  0  0  0  0  0  0  0  0
   59.8811   32.8416   45.7138 H   0  0  0  0  0  0  0  0  0  0  0  0
   57.8330   33.1624   47.1760 H   0  0  0  0  0  0  0  0  0  0  0  0
   56.9941   33.8305   45.7292 H   0  0  0  0  0  0  0  0  0  0  0  0
   58.3448   30.5875   47.2236 H   0  0  0  0  0  0  0  0  0  0  0  0
   57.6710   27.9994   46.8556 H   0  0  0  0  0  0  0  0  0  0  0  0
   56.7665   27.5803   45.3550 H   0  0  0  0  0  0  0  0  0  0  0  0
   60.1639   28.3000   43.6201 H   0  0  0  0  0  0  0  0  0  0  0  0
   58.9548   29.5228   44.2356 H   0  0  0  0  0  0  0  0  0  0  0  0
   61.6916   28.8438   45.2542 H   0  0  0  0  0  0  0  0  0  0  0  0
   60.8133   30.4139   45.2124 H   0  0  0  0  0  0  0  0  0  0  0  0
   61.6861   29.3440   48.4321 H   0  0  0  0  0  0  0  0  0  0  0  0
   61.7182   30.6751   47.1749 H   0  0  0  0  0  0  0  0  0  0  0  0
   61.0848   32.7452   47.9350 H   0  0  0  0  0  0  0  0  0  0  0  0
   59.6427   34.1681   49.3954 H   0  0  0  0  0  0  0  0  0  0  0  0
   56.2190   32.3370   51.3230 H   0  0  0  0  0  0  0  0  0  0  0  0
   55.6445   30.9873   53.6098 H   0  0  0  0  0  0  0  0  0  0  0  0
   54.3667   31.3224   52.3926 H   0  0  0  0  0  0  0  0  0  0  0  0
   55.2138   29.7384   52.3926 H   0  0  0  0  0  0  0  0  0  0  0  0
   59.1402   29.2240   49.5478 H   0  0  0  0  0  0  0  0  0  0  0  0
   61.3238   27.3903   47.4115 H   0  0  0  0  0  0  0  0  0  0  0  0
   59.6686   27.6307   48.1111 H   0  0  0  0  0  0  0  0  0  0  0  0
   60.5014   26.3741   45.5406 H   0  0  0  0  0  0  0  0  0  0  0  0
   59.0249   26.1198   46.5734 H   0  0  0  0  0  0  0  0  0  0  0  0
   55.6332   28.6527   43.5082 H   0  0  0  0  0  0  0  0  0  0  0  0
   55.7031   30.1755   42.5579 H   0  0  0  0  0  0  0  0  0  0  0  0
   57.1044   29.0517   42.5579 H   0  0  0  0  0  0  0  0  0  0  0  0
  1  2  1  0
  2  3  1  0
  3  4  1  0
  4  5  1  0
  5  6  2  0
  6  7  1  0
  7  8  1  0
  8  9  1  0
  9 10  1  0
 10 11  1  0
 11 12  1  0
 12 13  1  0
 13 14  2  0
 14 15  1  0
 15 16  2  0
 16 17  1  0
 17 18  1  0
 18 19  2  0
 18 20  1  0
 20 21  1  0
 17 22  2  0
 11 23  1  0
 23 24  1  0
  6 25  1  0
 25 26  1  0
 25 27  2  0
 27  4  1  0
 24  8  1  0
 22 13  1  0
  1 28  1  0
  1 29  1  0
  1 30  1  0
  2 31  1  0
  2 32  1  0
  3 33  1  0
  3 34  1  0
  5 35  1  0
  7 36  1  0
  7 37  1  0
  9 38  1  0
  9 39  1  0
 10 40  1  0
 10 41  1  0
 12 42  1  0
 12 43  1  0
 14 44  1  0
 15 45  1  0
 20 46  1  0
 21 47  1  0
 21 48  1  0
 21 49  1  0
 22 50  1  0
 23 51  1  0
 23 52  1  0
 24 53  1  0
 24 54  1  0
 26 55  1  0
 26 56  1  0
 26 57  1  0
M  END
>  <UniqueID>  (82) 
80

>  <SMILES>  (82) 
CCCn1cc(CN2CCN(Cc3ccnc(C(=O)NC)c3)CC2)c(C)n1

>  <Energy>  (82) 
90.87574627935687

>  <Genealogy>  (82) 
CCCn1cc(CN2CCN(Cc3ccnc(C(=O)NC)c3)CC2)c(C)n1 (3D coordinates assigned)
CCCn1cc(CN2CCN(Cc3ccnc(C(=O)NC)c3)CC2)c(C)n1 (nonaromatic ring conformer: 90.87574627935687 kcal/mol)

>  <smiles>  (82) 
CCCn1cc(CN2CCN(Cc3ccnc(C(=O)NC)c3)CC2)c(C)n1

>  <score_type>  (82) 
oracle

>  <origin>  (82) 
adg

>  <m_score__min__energy>  (82) 
-7.75

>  <m_primary>  (82) 
energy

$$$$
82:0
     RDKit          3D

 70 74  0  0  0  0  0  0  0  0999 V2000
   56.3710   22.9420   48.3840 C   0  0  0  0  0  0  0  0  0  0  0  0
   57.3930   22.7680   47.4060 O   0  0  0  0  0  0  0  0  0  0  0  0
   57.1920   22.2420   46.1180 C   0  0  0  0  0  0  0  0  0  0  0  0
   56.1920   21.2850   45.8620 C   0  0  0  0  0  0  0  0  0  0  0  0
   55.9900   20.8020   44.5660 C   0  0  0  0  0  0  0  0  0  0  0  0
   56.7800   21.2660   43.5110 C   0  0  0  0  0  0  0  0  0  0  0  0
   57.7820   22.2060   43.7520 C   0  0  0  0  0  0  0  0  0  0  0  0
   58.0010   22.7010   45.0520 C   0  0  0  0  0  0  0  0  0  0  0  0
   59.1460   23.6720   45.3040 C   0  0  0  0  0  0  0  0  0  0  0  0
   58.7600   24.9430   45.9970 N   0  0  0  0  0  0  0  0  0  0  0  0
   59.8600   25.5820   46.7670 C   0  0  0  0  0  0  0  0  0  0  0  0
   59.3820   26.8400   47.4950 C   0  0  0  0  0  0  0  0  0  0  0  0
   58.7570   27.7370   46.5220 N   0  0  0  0  0  0  0  0  0  0  0  0
   59.4340   28.9290   46.0700 C   0  0  0  0  0  0  0  0  0  0  0  0
   60.6640   29.0830   46.3100 O   0  0  0  0  0  0  0  0  0  0  0  0
   58.7010   29.9930   45.3560 C   0  0  0  0  0  0  0  0  0  0  0  0
   58.4890   31.2300   45.9850 C   0  0  0  0  0  0  0  0  0  0  0  0
   57.7080   32.2150   45.3710 C   0  0  0  0  0  0  0  0  0  0  0  0
   57.3760   33.7210   46.2200 S   0  0  0  0  0  0  0  0  0  0  0  0
   56.3710   33.4710   47.3080 O   0  0  0  0  0  0  0  0  0  0  0  0
   56.7910   34.7110   45.2510 O   0  0  0  0  0  0  0  0  0  0  0  0
   58.8400   34.3620   46.9320 N   0  0  0  0  0  0  0  0  0  0  0  0
   59.9220   34.4770   45.9150 C   0  0  0  0  0  0  0  0  0  0  0  0
   60.9900   33.3730   46.0350 C   0  0  0  0  0  0  0  0  0  0  0  0
   61.6370   33.3390   47.4430 C   0  0  0  0  0  0  0  0  0  0  0  0
   60.6580   33.8470   48.5320 C   0  0  0  0  0  0  0  0  0  0  0  0
   59.2060   33.5780   48.1280 C   0  0  0  0  0  0  0  0  0  0  0  0
   62.7710   34.1810   47.4380 O   0  0  0  0  0  0  0  0  0  0  0  0
   63.8420   33.4070   47.8740 C   0  0  0  0  0  0  0  0  0  0  0  0
   63.3870   31.9790   47.8110 C   0  0  0  0  0  0  0  0  0  0  0  0
   61.9940   32.0010   47.7430 O   0  0  0  0  0  0  0  0  0  0  0  0
   57.1640   31.9700   44.1050 C   0  0  0  0  0  0  0  0  0  0  0  0
   57.4020   30.7520   43.4570 C   0  0  0  0  0  0  0  0  0  0  0  0
   58.1710   29.7620   44.0770 C   0  0  0  0  0  0  0  0  0  0  0  0
   58.3510   28.5640   43.4580 F   0  0  0  0  0  0  0  0  0  0  0  0
   57.6470   27.1610   45.7630 C   0  0  0  0  0  0  0  0  0  0  0  0
   58.1360   25.8950   45.0490 C   0  0  0  0  0  0  0  0  0  0  0  0
   56.8096   22.8673   49.3900 H   0  0  0  0  0  0  0  0  0  0  0  0
   55.9080   23.9319   48.2584 H   0  0  0  0  0  0  0  0  0  0  0  0
   55.6065   22.1611   48.2584 H   0  0  0  0  0  0  0  0  0  0  0  0
   55.5656   20.9149   46.6870 H   0  0  0  0  0  0  0  0  0  0  0  0
   55.2063   20.0539   44.3759 H   0  0  0  0  0  0  0  0  0  0  0  0
   56.6118   20.8902   42.4910 H   0  0  0  0  0  0  0  0  0  0  0  0
   58.4062   22.5635   42.9198 H   0  0  0  0  0  0  0  0  0  0  0  0
   59.8968   23.1602   45.9240 H   0  0  0  0  0  0  0  0  0  0  0  0
   59.5228   23.9654   44.3131 H   0  0  0  0  0  0  0  0  0  0  0  0
   58.0110   24.6890   46.6840 H   0  0  0  0  0  0  0  0  0  0  0  0
   60.2408   24.8638   47.5081 H   0  0  0  0  0  0  0  0  0  0  0  0
   60.6504   25.8736   46.0597 H   0  0  0  0  0  0  0  0  0  0  0  0
   58.6495   26.5644   48.2680 H   0  0  0  0  0  0  0  0  0  0  0  0
   60.2353   27.3427   47.9737 H   0  0  0  0  0  0  0  0  0  0  0  0
   58.9406   31.4264   46.9686 H   0  0  0  0  0  0  0  0  0  0  0  0
   59.4687   34.4172   44.9145 H   0  0  0  0  0  0  0  0  0  0  0  0
   60.4273   35.4393   46.0839 H   0  0  0  0  0  0  0  0  0  0  0  0
   60.5175   32.3994   45.8381 H   0  0  0  0  0  0  0  0  0  0  0  0
   61.7826   33.5871   45.3029 H   0  0  0  0  0  0  0  0  0  0  0  0
   60.8708   33.3281   49.4783 H   0  0  0  0  0  0  0  0  0  0  0  0
   60.7952   34.9320   48.6502 H   0  0  0  0  0  0  0  0  0  0  0  0
   59.0856   32.5070   47.9077 H   0  0  0  0  0  0  0  0  0  0  0  0
   58.5486   33.8748   48.9585 H   0  0  0  0  0  0  0  0  0  0  0  0
   64.7122   33.5581   47.2183 H   0  0  0  0  0  0  0  0  0  0  0  0
   64.1444   33.6841   48.8947 H   0  0  0  0  0  0  0  0  0  0  0  0
   63.8018   31.4887   46.9179 H   0  0  0  0  0  0  0  0  0  0  0  0
   63.7297   31.4170   48.6923 H   0  0  0  0  0  0  0  0  0  0  0  0
   56.5464   32.7382   43.6167 H   0  0  0  0  0  0  0  0  0  0  0  0
   56.9824   30.5730   42.4561 H   0  0  0  0  0  0  0  0  0  0  0  0
   56.8254   26.9044   46.4480 H   0  0  0  0  0  0  0  0  0  0  0  0
   57.2847   27.8894   45.0227 H   0  0  0  0  0  0  0  0  0  0  0  0
   57.2793   25.4054   44.5629 H   0  0  0  0  0  0  0  0  0  0  0  0
   58.8928   26.1883   44.3066 H   0  0  0  0  0  0  0  0  0  0  0  0
  1  2  1  0
  2  3  1  0
  3  4  2  0
  4  5  1  0
  5  6  2  0
  6  7  1  0
  7  8  2  0
  8  9  1  0
  9 10  1  0
 10 11  1  0
 11 12  1  0
 12 13  1  0
 13 14  1  0
 14 15  2  0
 14 16  1  0
 16 17  2  0
 17 18  1  0
 18 19  1  0
 19 20  2  0
 19 21  2  0
 19 22  1  0
 22 23  1  0
 23 24  1  0
 24 25  1  0
 25 26  1  0
 26 27  1  0
 25 28  1  0
 28 29  1  0
 29 30  1  0
 30 31  1  0
 18 32  2  0
 32 33  1  0
 33 34  2  0
 34 35  1  0
 13 36  1  0
 36 37  1  0
  8  3  1  0
 37 10  1  0
 34 16  1  0
 27 22  1  0
 31 25  1  0
  1 38  1  0
  1 39  1  0
  1 40  1  0
  4 41  1  0
  5 42  1  0
  6 43  1  0
  7 44  1  0
  9 45  1  0
  9 46  1  0
 10 47  1  0
 11 48  1  0
 11 49  1  0
 12 50  1  0
 12 51  1  0
 17 52  1  0
 23 53  1  0
 23 54  1  0
 24 55  1  0
 24 56  1  0
 26 57  1  0
 26 58  1  0
 27 59  1  0
 27 60  1  0
 29 61  1  0
 29 62  1  0
 30 63  1  0
 30 64  1  0
 32 65  1  0
 33 66  1  0
 36 67  1  0
 36 68  1  0
 37 69  1  0
 37 70  1  0
M  CHG  1  10   1
M  END
>  <UniqueID>  (83) 
81

>  <SMILES>  (83) 
COc1ccccc1C[NH+]1CCN(C(=O)c2cc(S(=O)(=O)N3CCC4(CC3)OCCO4)ccc2F)CC1

>  <Energy>  (83) 
91.34322919163283

>  <Genealogy>  (83) 
COc1ccccc1C[NH+]1CCN(C(=O)c2cc(S(=O)(=O)N3CCC4(CC3)OCCO4)ccc2F)CC1 (protonated)
COc1ccccc1C[NH+]1CCN(C(=O)c2cc(S(=O)(=O)N3CCC4(CC3)OCCO4)ccc2F)CC1 (3D coordinates assigned)
COc1ccccc1C[NH+]1CCN(C(=O)c2cc(S(=O)(=O)N3CCC4(CC3)OCCO4)ccc2F)CC1 (nonaromatic ring conformer: 91.34322919163283 kcal/mol)

>  <smiles>  (83) 
COc1ccccc1CN1CCN(C(=O)c2cc(S(=O)(=O)N3CCC4(CC3)OCCO4)ccc2F)CC1

>  <score_type>  (83) 
oracle

>  <origin>  (83) 
adg

>  <m_score__min__energy>  (83) 
-8.6899999999999995

>  <m_primary>  (83) 
energy

$$$$
83:0
     RDKit          3D

 28 30  0  0  0  0  0  0  0  0999 V2000
   54.3220   28.9770   44.4700 H   0  0  0  0  0  0  0  0  0  0  0  0
   55.0580   29.6980   44.3000 N   0  0  0  0  0  0  0  0  0  0  0  0
   56.2090   29.6630   44.8930 C   0  0  0  0  0  0  0  0  0  0  0  0
   57.0110   30.7630   44.9000 N   0  0  0  0  0  0  0  0  0  0  0  0
   58.2310   30.7330   45.5280 C   0  0  0  0  0  0  0  0  0  0  0  0
   59.0000   31.7820   45.5380 N   0  0  0  0  0  0  0  0  0  0  0  0
   58.5980   33.1070   46.0070 C   0  0  0  0  0  0  0  0  0  0  0  0
   57.8204   33.5076   45.3400 H   0  0  0  0  0  0  0  0  0  0  0  0
   58.2075   33.0206   47.0317 H   0  0  0  0  0  0  0  0  0  0  0  0
   59.7770   34.0390   46.0100 C   0  0  0  0  0  0  0  0  0  0  0  0
   60.7267   33.6994   45.5711 H   0  0  0  0  0  0  0  0  0  0  0  0
   59.7060   35.2680   46.5300 C   0  0  0  0  0  0  0  0  0  0  0  0
   60.5893   35.9235   46.5149 H   0  0  0  0  0  0  0  0  0  0  0  0
   58.7643   35.6242   46.9731 H   0  0  0  0  0  0  0  0  0  0  0  0
   58.6520   29.5940   46.1520 N   0  0  0  0  0  0  0  0  0  0  0  0
   57.8360   28.5140   46.1310 C   0  0  0  0  0  0  0  0  0  0  0  0
   58.0930   27.3210   46.6920 N   0  0  0  0  0  0  0  0  0  0  0  0
   56.9600   26.6390   46.3670 C   0  0  0  0  0  0  0  0  0  0  0  0
   56.7190   25.2440   46.7500 C   0  0  0  0  0  0  0  0  0  0  0  0
   55.5250   24.7030   46.8300 O   0  0  0  0  0  0  0  0  0  0  0  0
   55.6590   23.4490   47.1960 C   0  0  0  0  0  0  0  0  0  0  0  0
   54.8309   22.7406   47.3459 H   0  0  0  0  0  0  0  0  0  0  0  0
   56.9980   23.1550   47.3640 C   0  0  0  0  0  0  0  0  0  0  0  0
   57.4293   22.1893   47.6663 H   0  0  0  0  0  0  0  0  0  0  0  0
   57.6850   24.3140   47.0770 C   0  0  0  0  0  0  0  0  0  0  0  0
   58.7741   24.4662   47.1030 H   0  0  0  0  0  0  0  0  0  0  0  0
   56.0710   27.3730   45.6530 N   0  0  0  0  0  0  0  0  0  0  0  0
   56.6550   28.5480   45.5220 N   0  0  0  0  0  0  0  0  0  0  0  0
  1  2  1  0
  2  3  2  0
  3  4  1  0
  4  5  1  0
  5  6  2  3
  6  7  1  0
  7  8  1  0
  7  9  1  0
  7 10  1  0
 10 11  1  0
 10 12  2  0
 12 13  1  0
 12 14  1  0
  5 15  1  0
 15 16  2  0
 16 17  1  0
 17 18  1  0
 18 19  1  0
 19 20  1  0
 20 21  1  0
 21 22  1  0
 21 23  2  0
 23 24  1  0
 23 25  1  0
 25 26  1  0
 18 27  2  0
 27 28  1  0
 28  3  1  0
 28 16  1  0
 25 19  2  0
M  CHG  2   4  -1  17  -1
M  END
>  <UniqueID>  (84) 
82

>  <SMILES>  (84) 
[H]/N=c1/[n-]c(=NCC=C)nc2[n-]c(-c3ccco3)nn12

>  <Energy>  (84) 
93.72319406346001

>  <Genealogy>  (84) 
C=CCN=c1nc2[n-]c(-c3ccco3)nn2c(=N)[n-]1 (protonated)
[H]/N=c1/[n-]c(=NCC=C)nc2[n-]c(-c3ccco3)nn12 (cis-trans isomerization)
[H]/N=c1/[n-]c(=NCC=C)nc2[n-]c(-c3ccco3)nn12 (3D coordinates assigned)
[H]/N=c1/[n-]c(=NCC=C)nc2[n-]c(-c3ccco3)nn12 (optimized conformer: 93.72319406346001 kcal/mol)

>  <smiles>  (84) 
C=CCN=c1nc2[nH]c(-c3ccco3)nn2c(=N)[nH]1

>  <score_type>  (84) 
oracle

>  <origin>  (84) 
adg

>  <m_score__min__energy>  (84) 
-8.5500000000000007

>  <m_primary>  (84) 
energy

$$$$
84:0
     RDKit          3D

 38 39  0  0  1  0  0  0  0  0999 V2000
   58.6420   27.5700   46.5780 C   0  0  0  0  0  0  0  0  0  0  0  0
   57.2910   27.8020   46.1650 O   0  0  0  0  0  0  0  0  0  0  0  0
   57.0250   28.9220   45.4030 C   0  0  0  0  0  0  0  0  0  0  0  0
   57.9020   29.9770   45.2570 C   0  0  0  0  0  0  0  0  0  0  0  0
   57.5170   31.0410   44.4650 C   0  0  0  0  0  0  0  0  0  0  0  0
   58.2930   32.0550   44.2920 N   0  0  0  0  0  0  0  0  0  0  0  0
   57.6980   33.3910   44.1180 C   0  0  0  0  0  0  0  0  0  0  0  0
   56.8930   33.7380   45.3390 C   0  0  0  0  0  0  0  0  0  0  0  0
   57.3970   33.3990   46.5540 O   0  0  0  0  0  0  0  0  0  0  0  0
   58.6880   33.2480   46.9170 C   0  0  0  0  0  0  0  0  0  0  0  0
   59.2670   32.2160   47.5950 C   0  0  0  0  0  0  0  0  0  0  0  0
   60.6310   32.1770   47.9090 C   0  0  0  0  0  0  0  0  0  0  0  0
   61.4610   33.1990   47.5410 C   0  0  0  0  0  0  0  0  0  0  0  0
   63.1480   33.1060   47.9540 S   0  0  0  0  0  0  0  0  0  0  0  0
   63.8730   31.7800   47.1310 N   0  0  0  0  0  0  0  0  0  0  0  0
   63.8150   34.3760   47.5200 O   0  0  0  0  0  0  0  0  0  0  0  0
   63.3070   32.9820   49.4510 O   0  0  0  0  0  0  0  0  0  0  0  0
   60.9020   34.2560   46.8550 C   0  0  0  0  0  0  0  0  0  0  0  0
   59.5630   34.2900   46.5480 C   0  0  0  0  0  0  0  0  0  0  0  0
   56.3060   31.0620   43.8380 N   0  0  0  0  0  0  0  0  0  0  0  0
   55.4790   30.0070   44.0090 C   0  0  0  0  0  0  0  0  0  0  0  0
   55.8240   28.9550   44.7740 N   0  0  0  0  0  0  0  0  0  0  0  0
   58.6931   27.5612   47.6768 H   0  0  0  0  0  0  0  0  0  0  0  0
   58.9834   26.6001   46.1873 H   0  0  0  0  0  0  0  0  0  0  0  0
   59.2875   28.3705   46.1873 H   0  0  0  0  0  0  0  0  0  0  0  0
   58.8814   29.9709   45.7578 H   0  0  0  0  0  0  0  0  0  0  0  0
   58.4972   34.1344   43.9811 H   0  0  0  0  0  0  0  0  0  0  0  0
   57.0447   33.3915   43.2330 H   0  0  0  0  0  0  0  0  0  0  0  0
   56.7501   34.8287   45.3372 H   0  0  0  0  0  0  0  0  0  0  0  0
   55.9775   33.1356   45.2441 H   0  0  0  0  0  0  0  0  0  0  0  0
   58.6325   31.3745   47.9101 H   0  0  0  0  0  0  0  0  0  0  0  0
   61.0389   31.3151   48.4574 H   0  0  0  0  0  0  0  0  0  0  0  0
   64.5150   32.1710   46.4060 H   0  0  0  0  0  0  0  0  0  0  0  0
   64.4610   31.2540   47.8040 H   0  0  0  0  0  0  0  0  0  0  0  0
   61.5442   35.0937   46.5454 H   0  0  0  0  0  0  0  0  0  0  0  0
   59.1625   35.1548   45.9987 H   0  0  0  0  0  0  0  0  0  0  0  0
   54.4987   30.0082   43.5101 H   0  0  0  0  0  0  0  0  0  0  0  0
   55.1490   28.1540   44.8790 H   0  0  0  0  0  0  0  0  0  0  0  0
  1  2  1  0
  2  3  1  0
  3  4  2  0
  4  5  1  0
  5  6  2  0
  6  7  1  0
  7  8  1  0
  8  9  1  0
  9 10  1  0
 10 11  2  0
 11 12  1  0
 12 13  2  0
 13 14  1  0
 14 15  1  0
 14 16  2  0
 14 17  2  0
 13 18  1  0
 18 19  2  0
  5 20  1  0
 20 21  2  0
 21 22  1  0
 22  3  1  0
 19 10  1  0
  1 23  1  0
  1 24  1  0
  1 25  1  0
  4 26  1  0
  7 27  1  0
  7 28  1  0
  8 29  1  0
  8 30  1  0
 11 31  1  0
 12 32  1  0
 15 33  1  0
 15 34  1  0
 18 35  1  0
 19 36  1  0
 21 37  1  0
 22 38  1  0
M  END
>  <smiles>  (85) 
COc1cc(=NCCOc2ccc(S(N)(=O)=O)cc2)nc[nH]1

>  <score_type>  (85) 
oracle

>  <origin>  (85) 
adg

>  <m_score__min__energy>  (85) 
-7.5099999999999998

>  <m_primary>  (85) 
energy

$$$$
85:0
     RDKit          3D

 25 27  0  0  0  0  0  0  0  0999 V2000
   55.1470   28.0720   44.9060 H   0  0  0  0  0  0  0  0  0  0  0  0
   55.1640   29.0810   44.8350 O   0  0  0  0  0  0  0  0  0  0  0  0
   56.3500   29.8180   44.8460 C   0  0  0  0  0  0  0  0  0  0  0  0
   56.2730   31.1750   44.8350 N   0  0  0  0  0  0  0  0  0  0  0  0
   57.3900   31.9460   44.8430 C   0  0  0  0  0  0  0  0  0  0  0  0
   57.2880   33.2000   44.8370 O   0  0  0  0  0  0  0  0  0  0  0  0
   58.6160   31.3660   44.8550 N   0  0  0  0  0  0  0  0  0  0  0  0
   58.7530   30.0150   44.8650 C   0  0  0  0  0  0  0  0  0  0  0  0
   59.9080   29.5120   44.8550 O   0  0  0  0  0  0  0  0  0  0  0  0
   57.6100   29.1940   44.8800 C   0  0  0  0  0  0  0  0  0  0  0  0
   57.7330   27.7240   44.8450 C   0  0  0  0  0  0  0  0  0  0  0  0
   57.5290   27.2218   43.8878 H   0  0  0  0  0  0  0  0  0  0  0  0
   58.0750   26.9480   45.8910 C   0  0  0  0  0  0  0  0  0  0  0  0
   59.3390   26.5370   46.3650 C   0  0  0  0  0  0  0  0  0  0  0  0
   60.5460   26.9750   46.0000 C   0  0  0  0  0  0  0  0  0  0  0  0
   60.6387   27.7486   45.2235 H   0  0  0  0  0  0  0  0  0  0  0  0
   61.4479   26.5623   46.4757 H   0  0  0  0  0  0  0  0  0  0  0  0
   59.1860   25.5830   47.3200 N   0  0  0  0  0  0  0  0  0  0  0  0
   57.8500   25.5230   47.4750 C   0  0  0  0  0  0  0  0  0  0  0  0
   57.1750   26.3230   46.6690 N   0  0  0  0  0  0  0  0  0  0  0  0
   55.9120   25.7060   46.4370 C   0  0  0  0  0  0  0  0  0  0  0  0
   55.0440   26.1520   45.6410 O   0  0  0  0  0  0  0  0  0  0  0  0
   55.7520   24.4890   47.1790 N   0  0  0  0  0  0  0  0  0  0  0  0
   57.0250   24.3820   47.8290 C   0  0  0  0  0  0  0  0  0  0  0  0
   57.3800   23.4010   48.5330 O   0  0  0  0  0  0  0  0  0  0  0  0
  1  2  1  0
  2  3  1  0
  3  4  1  0
  4  5  1  0
  5  6  2  0
  5  7  1  0
  7  8  1  0
  8  9  2  0
  8 10  1  0
 10 11  1  0
 11 12  1  0
 11 13  2  0
 13 14  1  0
 14 15  2  0
 15 16  1  0
 15 17  1  0
 14 18  1  0
 18 19  2  0
 19 20  1  0
 20 21  1  0
 21 22  2  0
 21 23  1  0
 23 24  1  0
 24 25  2  0
 10  3  2  0
 20 13  1  0
 24 19  1  0
M  CHG  3   4  -1   7  -1  23  -1
M  END
>  <UniqueID>  (86) 
83

>  <SMILES>  (86) 
C=c1nc2n(/c1=C/c1c(O)[n-]c(=O)[n-]c1=O)C(=O)[N-]C2=O

>  <Energy>  (86) 
125.05220688030059

>  <Genealogy>  (86) 
C=c1nc2n(c1=Cc1c(O)[n-]c(=O)[n-]c1=O)C(=O)[N-]C2=O (protonated)
C=c1nc2n(/c1=C/c1c(O)[n-]c(=O)[n-]c1=O)C(=O)[N-]C2=O (cis-trans isomerization)
C=c1nc2n(/c1=C/c1c(O)[n-]c(=O)[n-]c1=O)C(=O)[N-]C2=O (3D coordinates assigned)
C=c1nc2n(/c1=C/c1c(O)[n-]c(=O)[n-]c1=O)C(=O)[N-]C2=O (nonaromatic ring conformer: 125.05220688030059 kcal/mol)

>  <smiles>  (86) 
C=c1nc2n(c1=Cc1c(O)[nH]c(=O)[nH]c1=O)C(=O)NC2=O

>  <score_type>  (86) 
oracle

>  <origin>  (86) 
adg

>  <m_score__min__energy>  (86) 
-13.02

>  <m_primary>  (86) 
energy

$$$$
86:0
     RDKit          3D

 53 56  0  0  0  0  0  0  0  0999 V2000
   56.9320   20.0420   45.3190 C   0  0  0  0  0  0  0  0  0  0  0  0
   56.1590   20.9520   44.4130 C   0  0  0  0  0  0  0  0  0  0  0  0
   56.2470   20.7930   43.1670 O   0  0  0  0  0  0  0  0  0  0  0  0
   55.2800   21.9650   44.9220 N   0  0  0  0  0  0  0  0  0  0  0  0
   55.6560   23.2970   45.2910 C   0  0  0  0  0  0  0  0  0  0  0  0
   54.7760   24.3480   45.4550 C   0  0  0  0  0  0  0  0  0  0  0  0
   55.5640   25.4520   45.7180 C   0  0  0  0  0  0  0  0  0  0  0  0
   55.0590   26.7200   46.0050 O   0  0  0  0  0  0  0  0  0  0  0  0
   56.8800   25.1310   45.6900 N   0  0  0  0  0  0  0  0  0  0  0  0
   58.0060   26.0080   45.8550 C   0  0  0  0  0  0  0  0  0  0  0  0
   59.3130   25.4950   45.8540 C   0  0  0  0  0  0  0  0  0  0  0  0
   60.4030   26.3490   46.0330 C   0  0  0  0  0  0  0  0  0  0  0  0
   60.2000   27.7170   46.2280 C   0  0  0  0  0  0  0  0  0  0  0  0
   58.8990   28.2430   46.2610 C   0  0  0  0  0  0  0  0  0  0  0  0
   58.6740   29.6900   46.4610 C   0  0  0  0  0  0  0  0  0  0  0  0
   57.6800   30.2370   45.9080 O   0  0  0  0  0  0  0  0  0  0  0  0
   59.5530   30.4800   47.2870 N   0  0  0  0  0  0  0  0  0  0  0  0
   59.7730   31.9020   46.9830 C   0  0  0  0  0  0  0  0  0  0  0  0
   59.3020   32.7650   48.1590 C   0  0  0  0  0  0  0  0  0  0  0  0
   59.7270   32.1930   49.4480 N   0  0  0  0  0  0  0  0  0  0  0  0
   59.1890   32.7230   50.6750 C   0  0  0  0  0  0  0  0  0  0  0  0
   57.9550   32.2630   51.1700 C   0  0  0  0  0  0  0  0  0  0  0  0
   57.4400   32.7700   52.3680 C   0  0  0  0  0  0  0  0  0  0  0  0
   58.1530   33.7350   53.0850 C   0  0  0  0  0  0  0  0  0  0  0  0
   59.3850   34.1900   52.6070 C   0  0  0  0  0  0  0  0  0  0  0  0
   59.9030   33.6850   51.4110 C   0  0  0  0  0  0  0  0  0  0  0  0
   60.6220   31.0260   49.4620 C   0  0  0  0  0  0  0  0  0  0  0  0
   60.0470   29.9280   48.5610 C   0  0  0  0  0  0  0  0  0  0  0  0
   57.8060   27.3820   46.0600 C   0  0  0  0  0  0  0  0  0  0  0  0
   56.9340   23.8110   45.4140 C   0  0  0  0  0  0  0  0  0  0  0  0
   58.1160   23.1090   45.2060 O   0  0  0  0  0  0  0  0  0  0  0  0
   56.7152   20.2972   46.3668 H   0  0  0  0  0  0  0  0  0  0  0  0
   56.6395   18.9990   45.1276 H   0  0  0  0  0  0  0  0  0  0  0  0
   58.0086   20.1619   45.1276 H   0  0  0  0  0  0  0  0  0  0  0  0
   53.6785   24.3137   45.3900 H   0  0  0  0  0  0  0  0  0  0  0  0
   55.1450   27.4900   45.3550 H   0  0  0  0  0  0  0  0  0  0  0  0
   59.4787   24.4169   45.7117 H   0  0  0  0  0  0  0  0  0  0  0  0
   61.4252   25.9429   46.0204 H   0  0  0  0  0  0  0  0  0  0  0  0
   61.0640   28.3856   46.3564 H   0  0  0  0  0  0  0  0  0  0  0  0
   60.8451   32.0763   46.8089 H   0  0  0  0  0  0  0  0  0  0  0  0
   59.2016   32.1729   46.0829 H   0  0  0  0  0  0  0  0  0  0  0  0
   59.7289   33.7736   48.0566 H   0  0  0  0  0  0  0  0  0  0  0  0
   58.2028   32.8035   48.1424 H   0  0  0  0  0  0  0  0  0  0  0  0
   57.3919   31.5004   50.6120 H   0  0  0  0  0  0  0  0  0  0  0  0
   56.4724   32.4086   52.7463 H   0  0  0  0  0  0  0  0  0  0  0  0
   57.7449   34.1359   54.0245 H   0  0  0  0  0  0  0  0  0  0  0  0
   59.9480   34.9468   53.1730 H   0  0  0  0  0  0  0  0  0  0  0  0
   60.8760   34.0427   51.0430 H   0  0  0  0  0  0  0  0  0  0  0  0
   61.6148   31.3213   49.0916 H   0  0  0  0  0  0  0  0  0  0  0  0
   60.7114   30.6459   50.4904 H   0  0  0  0  0  0  0  0  0  0  0  0
   60.8347   29.1899   48.3495 H   0  0  0  0  0  0  0  0  0  0  0  0
   59.2016   29.4583   49.0851 H   0  0  0  0  0  0  0  0  0  0  0  0
   56.7841   27.7891   46.0634 H   0  0  0  0  0  0  0  0  0  0  0  0
  1  2  1  0
  2  3  2  0
  2  4  1  0
  4  5  1  0
  5  6  1  0
  6  7  2  0
  7  8  1  0
  7  9  1  0
  9 10  1  0
 10 11  2  0
 11 12  1  0
 12 13  2  0
 13 14  1  0
 14 15  1  0
 15 16  2  0
 15 17  1  0
 17 18  1  0
 18 19  1  0
 19 20  1  0
 20 21  1  0
 21 22  2  0
 22 23  1  0
 23 24  2  0
 24 25  1  0
 25 26  2  0
 20 27  1  0
 27 28  1  0
 14 29  2  0
  9 30  1  0
 30 31  1  0
 30  5  2  0
 29 10  1  0
 28 17  1  0
 26 21  1  0
  1 32  1  0
  1 33  1  0
  1 34  1  0
  6 35  1  0
  8 36  1  0
 11 37  1  0
 12 38  1  0
 13 39  1  0
 18 40  1  0
 18 41  1  0
 19 42  1  0
 19 43  1  0
 22 44  1  0
 23 45  1  0
 24 46  1  0
 25 47  1  0
 26 48  1  0
 27 49  1  0
 27 50  1  0
 28 51  1  0
 28 52  1  0
 29 53  1  0
M  CHG  2   4  -1  31  -1
M  END
>  <UniqueID>  (87) 
84

>  <SMILES>  (87) 
CC(=O)[N-]c1cc(O)n(-c2cccc(C(=O)N3CCN(c4ccccc4)CC3)c2)c1[O-]

>  <Energy>  (87) 
105.13202097329825

>  <Genealogy>  (87) 
CC(=O)[N-]c1cc(O)n(-c2cccc(C(=O)N3CCN(c4ccccc4)CC3)c2)c1[O-] (protonated)
CC(=O)[N-]c1cc(O)n(-c2cccc(C(=O)N3CCN(c4ccccc4)CC3)c2)c1[O-] (3D coordinates assigned)
CC(=O)[N-]c1cc(O)n(-c2cccc(C(=O)N3CCN(c4ccccc4)CC3)c2)c1[O-] (nonaromatic ring conformer: 105.13202097329825 kcal/mol)

>  <smiles>  (87) 
CC(=O)Nc1cc(O)n(-c2cccc(C(=O)N3CCN(c4ccccc4)CC3)c2)c1O

>  <score_type>  (87) 
oracle

>  <origin>  (87) 
adg

>  <m_score__min__energy>  (87) 
-14.19

>  <m_primary>  (87) 
energy

$$$$
87:0
     RDKit          3D

 79 84  0  0  0  0  0  0  0  0999 V2000
   59.1860   36.7330   55.0780 C   0  0  0  0  0  0  0  0  0  0  0  0
   58.7120   36.1120   53.8870 O   0  0  0  0  0  0  0  0  0  0  0  0
   58.9660   34.7780   53.5340 C   0  0  0  0  0  0  0  0  0  0  0  0
   59.6970   33.9830   54.4240 C   0  0  0  0  0  0  0  0  0  0  0  0
   59.9690   32.6450   54.1250 C   0  0  0  0  0  0  0  0  0  0  0  0
   59.5130   32.0770   52.9220 C   0  0  0  0  0  0  0  0  0  0  0  0
   59.7830   30.6600   52.5900 C   0  0  0  0  0  0  0  0  0  0  0  0
   60.6550   30.2390   51.6480 N   0  0  0  0  0  0  0  0  0  0  0  0
   60.5880   28.8970   51.6950 C   0  0  0  0  0  0  0  0  0  0  0  0
   61.4690   27.9810   50.9020 C   0  0  0  0  0  0  0  0  0  0  0  0
   60.8670   27.7210   49.6000 N   0  0  0  0  0  0  0  0  0  0  0  0
   60.0010   28.5050   48.9400 C   0  0  0  0  0  0  0  0  0  0  0  0
   59.6830   27.8370   47.7700 C   0  0  0  0  0  0  0  0  0  0  0  0
   58.7270   28.2750   46.7120 C   0  0  0  0  0  0  0  0  0  0  0  0
   58.9200   29.5290   46.1020 C   0  0  0  0  0  0  0  0  0  0  0  0
   58.0380   30.0110   45.1270 C   0  0  0  0  0  0  0  0  0  0  0  0
   58.3190   31.3230   44.5120 C   0  0  0  0  0  0  0  0  0  0  0  0
   58.7110   31.3560   43.3140 O   0  0  0  0  0  0  0  0  0  0  0  0
   58.1460   32.5480   45.2580 N   0  0  0  0  0  0  0  0  0  0  0  0
   57.9290   32.4930   46.7140 C   0  0  0  0  0  0  0  0  0  0  0  0
   58.0040   33.8840   47.3580 C   0  0  0  0  0  0  0  0  0  0  0  0
   59.1710   34.7210   46.7920 C   0  0  0  0  0  0  0  0  0  0  0  0
   60.5070   34.2320   47.3380 C   0  0  0  0  0  0  0  0  0  0  0  0
   61.5400   33.7920   46.4880 C   0  0  0  0  0  0  0  0  0  0  0  0
   62.7440   33.3160   47.0140 C   0  0  0  0  0  0  0  0  0  0  0  0
   62.9290   33.2610   48.3990 C   0  0  0  0  0  0  0  0  0  0  0  0
   64.1730   32.7780   48.9390 C   0  0  0  0  0  0  0  0  0  0  0  0
   65.1760   32.3930   49.3720 N   0  0  0  0  0  0  0  0  0  0  0  0
   61.9040   33.6780   49.2550 C   0  0  0  0  0  0  0  0  0  0  0  0
   60.6990   34.1530   48.7310 C   0  0  0  0  0  0  0  0  0  0  0  0
   59.1430   34.8130   45.2370 C   0  0  0  0  0  0  0  0  0  0  0  0
   58.1420   33.8520   44.5790 C   0  0  0  0  0  0  0  0  0  0  0  0
   56.9180   29.2420   44.7550 C   0  0  0  0  0  0  0  0  0  0  0  0
   55.9680   29.6880   43.6740 C   0  0  0  0  0  0  0  0  0  0  0  0
   56.7340   27.9800   45.3340 C   0  0  0  0  0  0  0  0  0  0  0  0
   57.6250   27.4800   46.2990 C   0  0  0  0  0  0  0  0  0  0  0  0
   57.3750   26.0990   46.8500 C   0  0  0  0  0  0  0  0  0  0  0  0
   60.3590   26.6670   47.7710 N   0  0  0  0  0  0  0  0  0  0  0  0
   61.0680   26.6230   48.8880 N   0  0  0  0  0  0  0  0  0  0  0  0
   59.6880   28.5450   52.6790 C   0  0  0  0  0  0  0  0  0  0  0  0
   59.3280   27.1670   53.1240 C   0  0  0  0  0  0  0  0  0  0  0  0
   59.2080   29.6470   53.2070 O   0  0  0  0  0  0  0  0  0  0  0  0
   58.7910   32.8790   52.0230 C   0  0  0  0  0  0  0  0  0  0  0  0
   58.5140   34.2160   52.3250 C   0  0  0  0  0  0  0  0  0  0  0  0
   58.7819   36.2035   55.9534 H   0  0  0  0  0  0  0  0  0  0  0  0
   60.2850   36.6926   55.1002 H   0  0  0  0  0  0  0  0  0  0  0  0
   58.8572   37.7825   55.1002 H   0  0  0  0  0  0  0  0  0  0  0  0
   60.0610   34.4152   55.3678 H   0  0  0  0  0  0  0  0  0  0  0  0
   60.5435   32.0323   54.8353 H   0  0  0  0  0  0  0  0  0  0  0  0
   61.2840   30.8090   51.0450 H   0  0  0  0  0  0  0  0  0  0  0  0
   62.4532   28.4519   50.7617 H   0  0  0  0  0  0  0  0  0  0  0  0
   61.5863   27.0310   51.4439 H   0  0  0  0  0  0  0  0  0  0  0  0
   59.6194   29.4844   49.2643 H   0  0  0  0  0  0  0  0  0  0  0  0
   59.7828   30.1439   46.3978 H   0  0  0  0  0  0  0  0  0  0  0  0
   56.9350   32.0641   46.9092 H   0  0  0  0  0  0  0  0  0  0  0  0
   58.7231   31.8713   47.1532 H   0  0  0  0  0  0  0  0  0  0  0  0
   57.0601   34.4154   47.1664 H   0  0  0  0  0  0  0  0  0  0  0  0
   58.1735   33.7504   48.4366 H   0  0  0  0  0  0  0  0  0  0  0  0
   59.0389   35.7550   47.1432 H   0  0  0  0  0  0  0  0  0  0  0  0
   61.3976   33.8233   45.3977 H   0  0  0  0  0  0  0  0  0  0  0  0
   63.5463   32.9845   46.3384 H   0  0  0  0  0  0  0  0  0  0  0  0
   62.0473   33.6317   50.3446 H   0  0  0  0  0  0  0  0  0  0  0  0
   59.8942   34.4676   49.4116 H   0  0  0  0  0  0  0  0  0  0  0  0
   58.8736   35.8415   44.9549 H   0  0  0  0  0  0  0  0  0  0  0  0
   60.1438   34.5280   44.8803 H   0  0  0  0  0  0  0  0  0  0  0  0
   57.1331   34.2862   44.6382 H   0  0  0  0  0  0  0  0  0  0  0  0
   58.4342   33.7035   43.5290 H   0  0  0  0  0  0  0  0  0  0  0  0
   55.0632   30.1128   44.1333 H   0  0  0  0  0  0  0  0  0  0  0  0
   56.4553   30.4514   43.0497 H   0  0  0  0  0  0  0  0  0  0  0  0
   55.6919   28.8254   43.0497 H   0  0  0  0  0  0  0  0  0  0  0  0
   55.8737   27.3671   45.0269 H   0  0  0  0  0  0  0  0  0  0  0  0
   57.3817   26.1361   47.9494 H   0  0  0  0  0  0  0  0  0  0  0  0
   56.3967   25.7367   46.5013 H   0  0  0  0  0  0  0  0  0  0  0  0
   58.1642   25.4167   46.5013 H   0  0  0  0  0  0  0  0  0  0  0  0
   59.3177   27.1276   54.2232 H   0  0  0  0  0  0  0  0  0  0  0  0
   58.3315   26.9058   52.7384 H   0  0  0  0  0  0  0  0  0  0  0  0
   60.0694   26.4517   52.7384 H   0  0  0  0  0  0  0  0  0  0  0  0
   58.4401   32.4513   51.0722 H   0  0  0  0  0  0  0  0  0  0  0  0
   57.9409   34.8308   51.6154 H   0  0  0  0  0  0  0  0  0  0  0  0
  1  2  1  0
  2  3  1  0
  3  4  2  0
  4  5  1  0
  5  6  2  0
  6  7  1  0
  7  8  2  0
  8  9  1  0
  9 10  1  0
 10 11  1  0
 11 12  1  0
 12 13  2  0
 13 14  1  0
 14 15  2  0
 15 16  1  0
 16 17  1  0
 17 18  2  0
 17 19  1  0
 19 20  1  0
 20 21  1  0
 21 22  1  0
 22 23  1  0
 23 24  2  0
 24 25  1  0
 25 26  2  0
 26 27  1  0
 27 28  3  0
 26 29  1  0
 29 30  2  0
 22 31  1  0
 31 32  1  0
 16 33  2  0
 33 34  1  0
 33 35  1  0
 35 36  2  0
 36 37  1  0
 13 38  1  0
 38 39  2  0
  9 40  2  0
 40 41  1  0
 40 42  1  0
  6 43  1  0
 43 44  2  0
 44  3  1  0
 42  7  1  0
 39 11  1  0
 36 14  1  0
 32 19  1  0
 30 23  1  0
  1 45  1  0
  1 46  1  0
  1 47  1  0
  4 48  1  0
  5 49  1  0
  8 50  1  0
 10 51  1  0
 10 52  1  0
 12 53  1  0
 15 54  1  0
 20 55  1  0
 20 56  1  0
 21 57  1  0
 21 58  1  0
 22 59  1  0
 24 60  1  0
 25 61  1  0
 29 62  1  0
 30 63  1  0
 31 64  1  0
 31 65  1  0
 32 66  1  0
 32 67  1  0
 34 68  1  0
 34 69  1  0
 34 70  1  0
 35 71  1  0
 37 72  1  0
 37 73  1  0
 37 74  1  0
 41 75  1  0
 41 76  1  0
 41 77  1  0
 43 78  1  0
 44 79  1  0
M  CHG  1   8   1
M  END
>  <UniqueID>  (88) 
85

>  <SMILES>  (88) 
COc1ccc(-c2[nH+]c(Cn3cc(-c4cc(C(=O)N5CCC(c6ccc(C#N)cc6)CC5)c(C)cc4C)nn3)c(C)o2)cc1

>  <Energy>  (88) 
163.93518991196976

>  <Genealogy>  (88) 
COc1ccc(-c2[nH+]c(Cn3cc(-c4cc(C(=O)N5CCC(c6ccc(C#N)cc6)CC5)c(C)cc4C)nn3)c(C)o2)cc1 (protonated)
COc1ccc(-c2[nH+]c(Cn3cc(-c4cc(C(=O)N5CCC(c6ccc(C#N)cc6)CC5)c(C)cc4C)nn3)c(C)o2)cc1 (3D coordinates assigned)
COc1ccc(-c2[nH+]c(Cn3cc(-c4cc(C(=O)N5CCC(c6ccc(C#N)cc6)CC5)c(C)cc4C)nn3)c(C)o2)cc1 (nonaromatic ring conformer: 163.93518991196976 kcal/mol)

>  <smiles>  (88) 
COc1ccc(-c2nc(Cn3cc(-c4cc(C(=O)N5CCC(c6ccc(C#N)cc6)CC5)c(C)cc4C)nn3)c(C)o2)cc1

>  <score_type>  (88) 
oracle

>  <origin>  (88) 
adg

>  <m_score__min__energy>  (88) 
-9.5500000000000007

>  <m_primary>  (88) 
energy

$$$$
