0:0
     RDKit          3D

 56 59  0  0  0  0  0  0  0  0999 V2000
   58.5370   34.3480   52.5640 C   0  0  0  0  0  0  0  0  0  0  0  0
   58.4200   32.9340   52.0790 C   0  0  0  0  0  0  0  0  0  0  0  0
   57.1800   32.2800   52.1180 C   0  0  0  0  0  0  0  0  0  0  0  0
   57.0580   30.9780   51.6240 C   0  0  0  0  0  0  0  0  0  0  0  0
   58.1650   30.3230   51.0820 C   0  0  0  0  0  0  0  0  0  0  0  0
   59.4140   30.9660   51.0400 C   0  0  0  0  0  0  0  0  0  0  0  0
   60.5630   30.3380   50.4540 N   0  0  0  0  0  0  0  0  0  0  0  0
   60.9100   30.3380   49.0620 C   0  0  0  0  0  0  0  0  0  0  0  0
   61.9570   30.9390   48.7000 O   0  0  0  0  0  0  0  0  0  0  0  0
   60.1120   29.6040   48.0520 C   0  0  0  0  0  0  0  0  0  0  0  0
   59.2280   28.5960   48.4500 C   0  0  0  0  0  0  0  0  0  0  0  0
   58.4660   27.9220   47.4940 C   0  0  0  0  0  0  0  0  0  0  0  0
   58.5540   28.2520   46.1700 N   0  0  0  0  0  0  0  0  0  0  0  0
   57.7250   27.5250   45.1930 C   0  0  0  0  0  0  0  0  0  0  0  0
   56.2740   27.7080   45.5050 C   0  0  0  0  0  0  0  0  0  0  0  0
   55.6170   26.7540   46.0050 O   0  0  0  0  0  0  0  0  0  0  0  0
   55.6420   28.9630   45.2350 N   0  0  0  0  0  0  0  0  0  0  0  0
   55.7350   29.6550   43.9560 C   0  0  0  0  0  0  0  0  0  0  0  0
   56.6160   30.8580   44.0780 C   0  0  0  0  0  0  0  0  0  0  0  0
   57.4060   31.3400   43.0320 C   0  0  0  0  0  0  0  0  0  0  0  0
   58.1990   32.7200   43.5720 S   0  0  0  0  0  0  0  0  0  0  0  0
   57.5100   32.6370   45.1130 C   0  0  0  0  0  0  0  0  0  0  0  0
   57.6960   33.4790   46.0870 N   0  0  0  0  0  0  0  0  0  0  0  0
   58.3330   33.1920   47.3420 C   0  0  0  0  0  0  0  0  0  0  0  0
   57.6450   32.6830   48.2610 O   0  0  0  0  0  0  0  0  0  0  0  0
   59.7790   33.4150   47.5640 C   0  0  0  0  0  0  0  0  0  0  0  0
   60.6930   33.2270   46.5110 C   0  0  0  0  0  0  0  0  0  0  0  0
   62.0600   33.4420   46.7140 C   0  0  0  0  0  0  0  0  0  0  0  0
   62.5240   33.8540   47.9660 C   0  0  0  0  0  0  0  0  0  0  0  0
   61.6230   34.0620   49.0130 C   0  0  0  0  0  0  0  0  0  0  0  0
   60.2550   33.8490   48.8130 C   0  0  0  0  0  0  0  0  0  0  0  0
   56.6660   31.5890   45.2270 N   0  0  0  0  0  0  0  0  0  0  0  0
   59.4170   29.2380   45.7590 C   0  0  0  0  0  0  0  0  0  0  0  0
   59.5150   29.5390   44.5390 O   0  0  0  0  0  0  0  0  0  0  0  0
   60.2010   29.9260   46.6900 C   0  0  0  0  0  0  0  0  0  0  0  0
   59.5280   32.2790   51.5170 C   0  0  0  0  0  0  0  0  0  0  0  0
   58.5379   34.3595   53.6639 H   0  0  0  0  0  0  0  0  0  0  0  0
   59.4745   34.7869   52.1919 H   0  0  0  0  0  0  0  0  0  0  0  0
   57.6844   34.9350   52.1919 H   0  0  0  0  0  0  0  0  0  0  0  0
   56.3019   32.7924   52.5380 H   0  0  0  0  0  0  0  0  0  0  0  0
   56.0846   30.4671   51.6626 H   0  0  0  0  0  0  0  0  0  0  0  0
   58.0597   29.3018   50.6870 H   0  0  0  0  0  0  0  0  0  0  0  0
   59.1333   28.3348   49.5143 H   0  0  0  0  0  0  0  0  0  0  0  0
   57.7870   27.1162   47.8095 H   0  0  0  0  0  0  0  0  0  0  0  0
   57.9307   27.9114   44.1839 H   0  0  0  0  0  0  0  0  0  0  0  0
   57.9694   26.4537   45.2435 H   0  0  0  0  0  0  0  0  0  0  0  0
   56.1562   28.9718   43.2038 H   0  0  0  0  0  0  0  0  0  0  0  0
   54.7289   29.9784   43.6508 H   0  0  0  0  0  0  0  0  0  0  0  0
   57.4938   30.8944   42.0301 H   0  0  0  0  0  0  0  0  0  0  0  0
   60.3304   32.9091   45.5224 H   0  0  0  0  0  0  0  0  0  0  0  0
   62.7698   33.2868   45.8881 H   0  0  0  0  0  0  0  0  0  0  0  0
   63.6002   34.0147   48.1273 H   0  0  0  0  0  0  0  0  0  0  0  0
   61.9896   34.3936   49.9957 H   0  0  0  0  0  0  0  0  0  0  0  0
   59.5481   34.0221   49.6378 H   0  0  0  0  0  0  0  0  0  0  0  0
   60.8864   30.7184   46.3548 H   0  0  0  0  0  0  0  0  0  0  0  0
   60.4939   32.8011   51.4506 H   0  0  0  0  0  0  0  0  0  0  0  0
  1  2  1  0
  2  3  2  0
  3  4  1  0
  4  5  2  0
  5  6  1  0
  6  7  1  0
  7  8  1  0
  8  9  2  0
  8 10  1  0
 10 11  1  0
 11 12  2  0
 12 13  1  0
 13 14  1  0
 14 15  1  0
 15 16  2  0
 15 17  1  0
 17 18  1  0
 18 19  1  0
 19 20  2  0
 20 21  1  0
 21 22  1  0
 22 23  2  3
 23 24  1  0
 24 25  2  0
 24 26  1  0
 26 27  2  0
 27 28  1  0
 28 29  2  0
 29 30  1  0
 30 31  2  0
 22 32  1  0
 13 33  1  0
 33 34  2  0
 33 35  1  0
  6 36  2  0
 36  2  1  0
 35 10  2  0
 32 19  1  0
 31 26  1  0
  1 37  1  0
  1 38  1  0
  1 39  1  0
  3 40  1  0
  4 41  1  0
  5 42  1  0
 11 43  1  0
 12 44  1  0
 14 45  1  0
 14 46  1  0
 18 47  1  0
 18 48  1  0
 20 49  1  0
 27 50  1  0
 28 51  1  0
 29 52  1  0
 30 53  1  0
 31 54  1  0
 35 55  1  0
 36 56  1  0
M  CHG  3   7  -1  17  -1  32  -1
M  END
>  <UniqueID>  (1) 
1

>  <SMILES>  (1) 
Cc1cccc([N-]C(=O)c2ccn(CC(=O)[N-]Cc3csc(=NC(=O)c4ccccc4)[n-]3)c(=O)c2)c1

>  <Energy>  (1) 
100.04183704999436

>  <Genealogy>  (1) 
Cc1cccc([N-]C(=O)c2ccn(CC(=O)[N-]Cc3csc(=NC(=O)c4ccccc4)[n-]3)c(=O)c2)c1 (protonated)
Cc1cccc([N-]C(=O)c2ccn(CC(=O)[N-]Cc3csc(=NC(=O)c4ccccc4)[n-]3)c(=O)c2)c1 (3D coordinates assigned)
Cc1cccc([N-]C(=O)c2ccn(CC(=O)[N-]Cc3csc(=NC(=O)c4ccccc4)[n-]3)c(=O)c2)c1 (optimized conformer: 100.04183704999436 kcal/mol)

>  <smiles>  (1) 
Cc1cccc(NC(=O)c2ccn(CC(=O)NCc3csc(=NC(=O)c4ccccc4)[nH]3)c(=O)c2)c1

>  <score_type>  (1) 
oracle

>  <origin>  (1) 
adg

>  <m_score__min__energy>  (1) 
-14.050000000000001

>  <m_primary>  (1) 
energy

$$$$
1:0
     RDKit          3D

 63 68  0  0  0  0  0  0  0  0999 V2000
   60.7001   27.8199   46.2661 H   0  0  0  0  0  0  0  0  0  0  0  0
   60.2020   28.5190   46.9540 C   0  0  0  0  0  0  0  0  0  0  0  0
   60.3920   28.3420   48.2710 C   0  0  0  0  0  0  0  0  0  0  0  0
   60.5750   27.3150   48.6199 H   0  0  0  0  0  0  0  0  0  0  0  0
   60.3760   29.4100   49.2910 C   0  0  0  0  0  0  0  0  0  0  0  0
   59.2020   30.0540   49.5350 N   0  0  0  0  0  0  0  0  0  0  0  0
   59.0930   31.0270   50.4800 C   0  0  0  0  0  0  0  0  0  0  0  0
   57.8730   31.6820   50.6750 C   0  0  0  0  0  0  0  0  0  0  0  0
   56.9927   31.3942   50.0815 H   0  0  0  0  0  0  0  0  0  0  0  0
   57.7730   32.7030   51.6250 C   0  0  0  0  0  0  0  0  0  0  0  0
   56.8136   33.2196   51.7754 H   0  0  0  0  0  0  0  0  0  0  0  0
   58.8890   33.0700   52.3850 C   0  0  0  0  0  0  0  0  0  0  0  0
   58.8049   33.8762   53.1287 H   0  0  0  0  0  0  0  0  0  0  0  0
   60.1110   32.4150   52.2020 C   0  0  0  0  0  0  0  0  0  0  0  0
   60.9857   32.7030   52.8037 H   0  0  0  0  0  0  0  0  0  0  0  0
   60.2200   31.3900   51.2500 C   0  0  0  0  0  0  0  0  0  0  0  0
   61.4260   30.7100   51.0460 C   0  0  0  0  0  0  0  0  0  0  0  0
   62.3104   30.9628   51.6493 H   0  0  0  0  0  0  0  0  0  0  0  0
   61.5040   29.7100   50.0750 C   0  0  0  0  0  0  0  0  0  0  0  0
   62.4440   29.1590   49.9239 H   0  0  0  0  0  0  0  0  0  0  0  0
   59.3700   29.5880   46.3650 C   0  0  0  0  0  0  0  0  0  0  0  0
   59.6880   30.8900   46.6140 N   0  0  0  0  0  0  0  0  0  0  0  0
   58.9210   31.9130   46.1550 C   0  0  0  0  0  0  0  0  0  0  0  0
   59.2260   33.2570   46.4260 C   0  0  0  0  0  0  0  0  0  0  0  0
   60.3650   33.6230   47.2260 N   0  0  0  0  0  0  0  0  0  0  0  0
   60.2030   34.5360   48.3580 C   0  0  0  0  0  0  0  0  0  0  0  0
   59.1460   34.5562   48.6618 H   0  0  0  0  0  0  0  0  0  0  0  0
   60.5233   35.5447   48.0582 H   0  0  0  0  0  0  0  0  0  0  0  0
   61.0610   34.0640   49.5360 C   0  0  0  0  0  0  0  0  0  0  0  0
   60.5918   33.1778   49.9882 H   0  0  0  0  0  0  0  0  0  0  0  0
   61.1291   34.8844   50.2656 H   0  0  0  0  0  0  0  0  0  0  0  0
   62.4260   33.7150   49.1010 N   0  0  0  0  0  0  0  0  0  0  0  0
   63.5430   33.8460   50.0110 C   0  0  0  0  0  0  0  0  0  0  0  0
   64.7230   33.6960   49.5880 O   0  0  0  0  0  0  0  0  0  0  0  0
   63.3500   34.1860   51.4610 C   0  0  0  0  0  0  0  0  0  0  0  0
   63.7972   33.3982   52.0850 H   0  0  0  0  0  0  0  0  0  0  0  0
   63.8368   35.1478   51.6800 H   0  0  0  0  0  0  0  0  0  0  0  0
   62.2746   34.2610   51.6800 H   0  0  0  0  0  0  0  0  0  0  0  0
   62.5750   32.8570   47.9140 C   0  0  0  0  0  0  0  0  0  0  0  0
   62.2488   31.8363   48.1626 H   0  0  0  0  0  0  0  0  0  0  0  0
   63.6317   32.8552   47.6083 H   0  0  0  0  0  0  0  0  0  0  0  0
   61.7300   33.3860   46.7590 C   0  0  0  0  0  0  0  0  0  0  0  0
   61.7164   32.6462   45.9451 H   0  0  0  0  0  0  0  0  0  0  0  0
   62.1610   34.3280   46.3892 H   0  0  0  0  0  0  0  0  0  0  0  0
   58.3840   34.2270   45.9760 N   0  0  0  0  0  0  0  0  0  0  0  0
   57.2700   33.9270   45.2580 C   0  0  0  0  0  0  0  0  0  0  0  0
   56.6186   34.7349   44.8933 H   0  0  0  0  0  0  0  0  0  0  0  0
   56.9580   32.6310   44.9890 N   0  0  0  0  0  0  0  0  0  0  0  0
   56.0890   32.4150   44.4480 H   0  0  0  0  0  0  0  0  0  0  0  0
   57.7560   31.6230   45.4270 C   0  0  0  0  0  0  0  0  0  0  0  0
   57.4250   30.3290   45.1880 N   0  0  0  0  0  0  0  0  0  0  0  0
   58.1970   29.2970   45.6270 C   0  0  0  0  0  0  0  0  0  0  0  0
   57.7780   27.9150   45.3080 C   0  0  0  0  0  0  0  0  0  0  0  0
   58.1620   27.3310   44.0880 C   0  0  0  0  0  0  0  0  0  0  0  0
   58.7747   27.9036   43.3761 H   0  0  0  0  0  0  0  0  0  0  0  0
   57.7690   26.0260   43.7750 C   0  0  0  0  0  0  0  0  0  0  0  0
   58.0605   25.5804   42.8125 H   0  0  0  0  0  0  0  0  0  0  0  0
   57.0060   25.2870   44.6840 C   0  0  0  0  0  0  0  0  0  0  0  0
   56.6932   24.2624   44.4345 H   0  0  0  0  0  0  0  0  0  0  0  0
   56.6410   25.8500   45.9090 C   0  0  0  0  0  0  0  0  0  0  0  0
   56.0477   25.2646   46.6269 H   0  0  0  0  0  0  0  0  0  0  0  0
   57.0280   27.1560   46.2250 C   0  0  0  0  0  0  0  0  0  0  0  0
   56.7449   27.5918   47.1945 H   0  0  0  0  0  0  0  0  0  0  0  0
  1  2  1  0
  2  3  2  0
  3  4  1  0
  3  5  1  0
  5  6  2  0
  6  7  1  0
  7  8  2  0
  8  9  1  0
  8 10  1  0
 10 11  1  0
 10 12  2  0
 12 13  1  0
 12 14  1  0
 14 15  1  0
 14 16  2  0
 16 17  1  0
 17 18  1  0
 17 19  2  0
 19 20  1  0
  2 21  1  0
 21 22  2  0
 22 23  1  0
 23 24  2  0
 24 25  1  0
 25 26  1  0
 26 27  1  0
 26 28  1  0
 26 29  1  0
 29 30  1  0
 29 31  1  0
 29 32  1  0
 32 33  1  0
 33 34  2  0
 33 35  1  0
 35 36  1  0
 35 37  1  0
 35 38  1  0
 32 39  1  0
 39 40  1  0
 39 41  1  0
 39 42  1  0
 42 43  1  0
 42 44  1  0
 24 45  1  0
 45 46  2  0
 46 47  1  0
 46 48  1  0
 48 49  1  0
 48 50  2  0
 50 51  1  0
 51 52  2  0
 52 53  1  0
 53 54  2  0
 54 55  1  0
 54 56  1  0
 56 57  1  0
 56 58  2  0
 58 59  1  0
 58 60  1  0
 60 61  1  0
 60 62  2  0
 62 63  1  0
 19  5  1  0
 52 21  1  0
 62 53  1  0
 16  7  1  0
 50 23  1  0
 42 25  1  0
M  CHG  1  48   1
M  END
>  <UniqueID>  (2) 
2

>  <SMILES>  (2) 
CC(=O)N1CCN(c2nc[nH+]c3nc(-c4ccccc4)c(/C=C\c4ccc5ccccc5n4)nc23)CC1

>  <Energy>  (2) 
92.09291151468057

>  <Genealogy>  (2) 
CC(=O)N1CCN(c2nc[nH+]c3nc(-c4ccccc4)c(C=Cc4ccc5ccccc5n4)nc23)CC1 (protonated)
CC(=O)N1CCN(c2nc[nH+]c3nc(-c4ccccc4)c(/C=C\c4ccc5ccccc5n4)nc23)CC1 (cis-trans isomerization)
CC(=O)N1CCN(c2nc[nH+]c3nc(-c4ccccc4)c(/C=C\c4ccc5ccccc5n4)nc23)CC1 (3D coordinates assigned)
CC(=O)N1CCN(c2nc[nH+]c3nc(-c4ccccc4)c(/C=C\c4ccc5ccccc5n4)nc23)CC1 (nonaromatic ring conformer: 92.09291151468057 kcal/mol)

>  <smiles>  (2) 
CC(=O)N1CCN(c2ncnc3nc(-c4ccccc4)c(C=Cc4ccc5ccccc5n4)nc23)CC1

>  <score_type>  (2) 
oracle

>  <origin>  (2) 
adg

>  <m_score__min__energy>  (2) 
-8.6400000000000006

>  <m_primary>  (2) 
energy

$$$$
2:0
     RDKit          3D

 54 57  0  0  0  0  0  0  0  0999 V2000
   55.5010   29.7610   44.9950 N   0  0  0  0  0  0  0  0  0  0  0  0
   56.6750   28.4950   45.0820 S   0  0  0  0  0  0  0  0  0  0  0  0
   56.0320   27.2500   45.6260 O   0  0  0  0  0  0  0  0  0  0  0  0
   57.1980   28.2260   43.6990 O   0  0  0  0  0  0  0  0  0  0  0  0
   58.0000   28.9780   46.1360 C   0  0  0  0  0  0  0  0  0  0  0  0
   58.2920   28.2340   47.2860 C   0  0  0  0  0  0  0  0  0  0  0  0
   59.3370   28.6200   48.1280 C   0  0  0  0  0  0  0  0  0  0  0  0
   60.1050   29.7630   47.8360 C   0  0  0  0  0  0  0  0  0  0  0  0
   61.2270   30.1640   48.7170 C   0  0  0  0  0  0  0  0  0  0  0  0
   61.6250   29.3880   49.6280 O   0  0  0  0  0  0  0  0  0  0  0  0
   61.8620   31.4420   48.5620 N   0  0  0  0  0  0  0  0  0  0  0  0
   62.4860   31.6900   47.2530 C   0  0  0  0  0  0  0  0  0  0  0  0
   63.0000   33.1230   47.1310 C   0  0  0  0  0  0  0  0  0  0  0  0
   63.9240   33.4450   48.3010 C   0  0  0  0  0  0  0  0  0  0  0  0
   63.2100   33.2370   49.6090 C   0  0  0  0  0  0  0  0  0  0  0  0
   63.5880   33.9930   50.7260 C   0  0  0  0  0  0  0  0  0  0  0  0
   62.9270   33.8310   51.9400 C   0  0  0  0  0  0  0  0  0  0  0  0
   61.8750   32.9270   52.0500 C   0  0  0  0  0  0  0  0  0  0  0  0
   61.4780   32.1480   50.9440 C   0  0  0  0  0  0  0  0  0  0  0  0
   60.3730   31.2800   51.0250 O   0  0  0  0  0  0  0  0  0  0  0  0
   59.0070   31.6420   50.8150 C   0  0  0  0  0  0  0  0  0  0  0  0
   58.8820   32.7790   49.8340 C   0  0  0  0  0  0  0  0  0  0  0  0
   59.3230   33.9190   50.1390 O   0  0  0  0  0  0  0  0  0  0  0  0
   58.1570   32.6270   48.6070 N   0  0  0  0  0  0  0  0  0  0  0  0
   58.4220   33.3280   47.3860 C   0  0  0  0  0  0  0  0  0  0  0  0
   57.5300   33.2650   46.3010 C   0  0  0  0  0  0  0  0  0  0  0  0
   57.8290   33.9290   45.1070 C   0  0  0  0  0  0  0  0  0  0  0  0
   59.0260   34.6400   44.9820 C   0  0  0  0  0  0  0  0  0  0  0  0
   59.9310   34.6770   46.0460 C   0  0  0  0  0  0  0  0  0  0  0  0
   59.6350   34.0130   47.2410 C   0  0  0  0  0  0  0  0  0  0  0  0
   62.1900   32.2600   49.7200 C   0  0  0  0  0  0  0  0  0  0  0  0
   59.8050   30.5060   46.6800 C   0  0  0  0  0  0  0  0  0  0  0  0
   58.7580   30.1170   45.8390 C   0  0  0  0  0  0  0  0  0  0  0  0
   54.5780   29.3400   45.2440 H   0  0  0  0  0  0  0  0  0  0  0  0
   57.6956   27.3417   47.5270 H   0  0  0  0  0  0  0  0  0  0  0  0
   59.5618   28.0263   49.0263 H   0  0  0  0  0  0  0  0  0  0  0  0
   63.3304   30.9969   47.1242 H   0  0  0  0  0  0  0  0  0  0  0  0
   61.7233   31.5334   46.4760 H   0  0  0  0  0  0  0  0  0  0  0  0
   63.5548   33.2323   46.1874 H   0  0  0  0  0  0  0  0  0  0  0  0
   62.1459   33.8161   47.1429 H   0  0  0  0  0  0  0  0  0  0  0  0
   64.8035   32.7856   48.2598 H   0  0  0  0  0  0  0  0  0  0  0  0
   64.2355   34.4975   48.2291 H   0  0  0  0  0  0  0  0  0  0  0  0
   64.4111   34.7181   50.6433 H   0  0  0  0  0  0  0  0  0  0  0  0
   63.2374   34.4198   52.8158 H   0  0  0  0  0  0  0  0  0  0  0  0
   61.3478   32.8190   53.0094 H   0  0  0  0  0  0  0  0  0  0  0  0
   58.4623   30.7703   50.4233 H   0  0  0  0  0  0  0  0  0  0  0  0
   58.5843   31.9678   51.7769 H   0  0  0  0  0  0  0  0  0  0  0  0
   56.5952   32.6924   46.3914 H   0  0  0  0  0  0  0  0  0  0  0  0
   57.1216   33.8917   44.2655 H   0  0  0  0  0  0  0  0  0  0  0  0
   59.2555   35.1704   44.0460 H   0  0  0  0  0  0  0  0  0  0  0  0
   60.8771   35.2288   45.9438 H   0  0  0  0  0  0  0  0  0  0  0  0
   60.3577   34.0289   48.0701 H   0  0  0  0  0  0  0  0  0  0  0  0
   60.3984   31.3995   46.4359 H   0  0  0  0  0  0  0  0  0  0  0  0
   58.5289   30.7083   44.9402 H   0  0  0  0  0  0  0  0  0  0  0  0
  1  2  1  0
  2  3  2  0
  2  4  2  0
  2  5  1  0
  5  6  2  0
  6  7  1  0
  7  8  2  0
  8  9  1  0
  9 10  2  0
  9 11  1  0
 11 12  1  0
 12 13  1  0
 13 14  1  0
 14 15  1  0
 15 16  2  0
 16 17  1  0
 17 18  2  0
 18 19  1  0
 19 20  1  0
 20 21  1  0
 21 22  1  0
 22 23  2  0
 22 24  1  0
 24 25  1  0
 25 26  2  0
 26 27  1  0
 27 28  2  0
 28 29  1  0
 29 30  2  0
 19 31  2  0
  8 32  1  0
 32 33  2  0
 33  5  1  0
 31 11  1  0
 31 15  1  0
 30 25  1  0
  1 34  1  0
  6 35  1  0
  7 36  1  0
 12 37  1  0
 12 38  1  0
 13 39  1  0
 13 40  1  0
 14 41  1  0
 14 42  1  0
 16 43  1  0
 17 44  1  0
 18 45  1  0
 21 46  1  0
 21 47  1  0
 26 48  1  0
 27 49  1  0
 28 50  1  0
 29 51  1  0
 30 52  1  0
 32 53  1  0
 33 54  1  0
M  CHG  2   1  -1  24  -1
M  END
>  <UniqueID>  (3) 
3

>  <SMILES>  (3) 
[NH-]S(=O)(=O)c1ccc(C(=O)N2CCCc3cccc(OCC(=O)[N-]c4ccccc4)c32)cc1

>  <Energy>  (3) 
73.72557099425319

>  <Genealogy>  (3) 
[NH-]S(=O)(=O)c1ccc(C(=O)N2CCCc3cccc(OCC(=O)[N-]c4ccccc4)c32)cc1 (protonated)
[NH-]S(=O)(=O)c1ccc(C(=O)N2CCCc3cccc(OCC(=O)[N-]c4ccccc4)c32)cc1 (3D coordinates assigned)
[NH-]S(=O)(=O)c1ccc(C(=O)N2CCCc3cccc(OCC(=O)[N-]c4ccccc4)c32)cc1 (nonaromatic ring conformer: 73.72557099425319 kcal/mol)

>  <smiles>  (3) 
NS(=O)(=O)c1ccc(C(=O)N2CCCc3cccc(OCC(=O)Nc4ccccc4)c32)cc1

>  <score_type>  (3) 
oracle

>  <origin>  (3) 
adg

>  <m_score__min__energy>  (3) 
-12.699999999999999

>  <m_primary>  (3) 
energy

$$$$
3:0
     RDKit          3D

 57 60  0  0  0  0  0  0  0  0999 V2000
   57.8300   33.2620   47.0600 N   0  0  0  0  0  0  0  0  0  0  0  0
   58.5900   33.5930   45.5440 S   0  0  0  0  0  0  0  0  0  0  0  0
   58.3370   35.0270   45.1710 O   0  0  0  0  0  0  0  0  0  0  0  0
   60.0720   33.3810   45.6650 O   0  0  0  0  0  0  0  0  0  0  0  0
   57.9430   32.5170   44.3080 C   0  0  0  0  0  0  0  0  0  0  0  0
   58.2310   32.7310   42.9530 C   0  0  0  0  0  0  0  0  0  0  0  0
   57.7020   31.8760   41.9830 C   0  0  0  0  0  0  0  0  0  0  0  0
   56.8770   30.8110   42.3560 C   0  0  0  0  0  0  0  0  0  0  0  0
   56.5630   30.5980   43.7090 C   0  0  0  0  0  0  0  0  0  0  0  0
   55.6070   29.5410   44.0980 C   0  0  0  0  0  0  0  0  0  0  0  0
   54.5650   29.3500   43.4110 O   0  0  0  0  0  0  0  0  0  0  0  0
   55.8580   28.7140   45.2410 N   0  0  0  0  0  0  0  0  0  0  0  0
   57.0440   27.9310   45.4120 C   0  0  0  0  0  0  0  0  0  0  0  0
   56.9890   26.5440   45.2290 C   0  0  0  0  0  0  0  0  0  0  0  0
   58.1270   25.7620   45.4470 C   0  0  0  0  0  0  0  0  0  0  0  0
   59.3210   26.3560   45.8700 C   0  0  0  0  0  0  0  0  0  0  0  0
   59.3850   27.7380   46.0820 C   0  0  0  0  0  0  0  0  0  0  0  0
   60.5760   28.2940   46.5750 O   0  0  0  0  0  0  0  0  0  0  0  0
   60.6440   29.5420   47.2030 C   0  0  0  0  0  0  0  0  0  0  0  0
   61.5480   30.5200   46.7600 C   0  0  0  0  0  0  0  0  0  0  0  0
   61.5360   31.7940   47.3300 C   0  0  0  0  0  0  0  0  0  0  0  0
   60.6160   32.1040   48.3420 C   0  0  0  0  0  0  0  0  0  0  0  0
   60.5050   33.7510   48.9600 S   0  0  0  0  0  0  0  0  0  0  0  0
   60.3500   34.6950   47.7990 O   0  0  0  0  0  0  0  0  0  0  0  0
   59.2760   33.8740   49.8180 O   0  0  0  0  0  0  0  0  0  0  0  0
   61.9190   34.2090   49.8870 N   0  0  0  0  0  0  0  0  0  0  0  0
   63.1640   34.1520   49.0930 C   0  0  0  0  0  0  0  0  0  0  0  0
   64.0010   32.8930   49.3730 C   0  0  0  0  0  0  0  0  0  0  0  0
   63.1710   31.8320   49.7850 O   0  0  0  0  0  0  0  0  0  0  0  0
   62.6670   32.1100   51.0750 C   0  0  0  0  0  0  0  0  0  0  0  0
   62.0030   33.5040   51.1790 C   0  0  0  0  0  0  0  0  0  0  0  0
   59.7570   31.1070   48.8270 C   0  0  0  0  0  0  0  0  0  0  0  0
   59.7820   29.8250   48.2680 C   0  0  0  0  0  0  0  0  0  0  0  0
   58.2380   28.5250   45.8510 C   0  0  0  0  0  0  0  0  0  0  0  0
   57.1130   31.4520   44.6830 C   0  0  0  0  0  0  0  0  0  0  0  0
   58.4770   33.6020   47.8080 H   0  0  0  0  0  0  0  0  0  0  0  0
   56.9700   33.8540   47.1100 H   0  0  0  0  0  0  0  0  0  0  0  0
   58.8735   33.5721   42.6534 H   0  0  0  0  0  0  0  0  0  0  0  0
   57.9357   32.0416   40.9210 H   0  0  0  0  0  0  0  0  0  0  0  0
   56.4718   30.1368   41.5871 H   0  0  0  0  0  0  0  0  0  0  0  0
   56.0486   26.0688   44.9131 H   0  0  0  0  0  0  0  0  0  0  0  0
   58.0835   24.6748   45.2853 H   0  0  0  0  0  0  0  0  0  0  0  0
   60.2131   25.7344   46.0366 H   0  0  0  0  0  0  0  0  0  0  0  0
   62.2671   30.2821   45.9623 H   0  0  0  0  0  0  0  0  0  0  0  0
   62.2497   32.5565   46.9847 H   0  0  0  0  0  0  0  0  0  0  0  0
   62.8993   34.1661   48.0254 H   0  0  0  0  0  0  0  0  0  0  0  0
   63.7745   35.0217   49.3775 H   0  0  0  0  0  0  0  0  0  0  0  0
   64.5340   32.6010   48.4561 H   0  0  0  0  0  0  0  0  0  0  0  0
   64.7207   33.1146   50.1749 H   0  0  0  0  0  0  0  0  0  0  0  0
   61.9185   31.3456   51.3308 H   0  0  0  0  0  0  0  0  0  0  0  0
   63.5196   32.0998   51.7699 H   0  0  0  0  0  0  0  0  0  0  0  0
   60.9842   33.3766   51.5739 H   0  0  0  0  0  0  0  0  0  0  0  0
   62.6321   34.1152   51.8428 H   0  0  0  0  0  0  0  0  0  0  0  0
   59.0620   31.3338   49.6489 H   0  0  0  0  0  0  0  0  0  0  0  0
   59.1235   29.0389   48.6660 H   0  0  0  0  0  0  0  0  0  0  0  0
   58.2790   29.6118   46.0159 H   0  0  0  0  0  0  0  0  0  0  0  0
   56.8897   31.2823   45.7466 H   0  0  0  0  0  0  0  0  0  0  0  0
  1  2  1  0
  2  3  2  0
  2  4  2  0
  2  5  1  0
  5  6  2  0
  6  7  1  0
  7  8  2  0
  8  9  1  0
  9 10  1  0
 10 11  2  0
 10 12  1  0
 12 13  1  0
 13 14  2  0
 14 15  1  0
 15 16  2  0
 16 17  1  0
 17 18  1  0
 18 19  1  0
 19 20  2  0
 20 21  1  0
 21 22  2  0
 22 23  1  0
 23 24  2  0
 23 25  2  0
 23 26  1  0
 26 27  1  0
 27 28  1  0
 28 29  1  0
 29 30  1  0
 30 31  1  0
 22 32  1  0
 32 33  2  0
 17 34  2  0
  9 35  2  0
 35  5  1  0
 34 13  1  0
 33 19  1  0
 31 26  1  0
  1 36  1  0
  1 37  1  0
  6 38  1  0
  7 39  1  0
  8 40  1  0
 14 41  1  0
 15 42  1  0
 16 43  1  0
 20 44  1  0
 21 45  1  0
 27 46  1  0
 27 47  1  0
 28 48  1  0
 28 49  1  0
 30 50  1  0
 30 51  1  0
 31 52  1  0
 31 53  1  0
 32 54  1  0
 33 55  1  0
 34 56  1  0
 35 57  1  0
M  CHG  1  12  -1
M  END
>  <UniqueID>  (4) 
4

>  <SMILES>  (4) 
NS(=O)(=O)c1cccc(C(=O)[N-]c2cccc(Oc3ccc(S(=O)(=O)N4CCOCC4)cc3)c2)c1

>  <Energy>  (4) 
79.55308343565746

>  <Genealogy>  (4) 
NS(=O)(=O)c1cccc(C(=O)[N-]c2cccc(Oc3ccc(S(=O)(=O)N4CCOCC4)cc3)c2)c1 (protonated)
NS(=O)(=O)c1cccc(C(=O)[N-]c2cccc(Oc3ccc(S(=O)(=O)N4CCOCC4)cc3)c2)c1 (3D coordinates assigned)
NS(=O)(=O)c1cccc(C(=O)[N-]c2cccc(Oc3ccc(S(=O)(=O)N4CCOCC4)cc3)c2)c1 (nonaromatic ring conformer: 79.55308343565746 kcal/mol)

>  <smiles>  (4) 
NS(=O)(=O)c1cccc(C(=O)Nc2cccc(Oc3ccc(S(=O)(=O)N4CCOCC4)cc3)c2)c1

>  <score_type>  (4) 
oracle

>  <origin>  (4) 
adg

>  <m_score__min__energy>  (4) 
-12.050000000000001

>  <m_primary>  (4) 
energy

$$$$
4:0
     RDKit          3D

 60 63  0  0  0  0  0  0  0  0999 V2000
   56.0010   25.6510   47.0520 O   0  0  0  0  0  0  0  0  0  0  0  0
   56.6440   26.6060   46.5450 C   0  0  0  0  0  0  0  0  0  0  0  0
   55.9780   27.4680   45.6120 N   0  0  0  0  0  0  0  0  0  0  0  0
   56.5260   28.6650   45.0410 C   0  0  0  0  0  0  0  0  0  0  0  0
   55.6610   29.7060   44.6860 C   0  0  0  0  0  0  0  0  0  0  0  0
   56.1630   30.8780   44.1130 C   0  0  0  0  0  0  0  0  0  0  0  0
   57.5370   31.0120   43.8630 C   0  0  0  0  0  0  0  0  0  0  0  0
   58.0860   32.2830   43.2710 C   0  0  0  0  0  0  0  0  0  0  0  0
   58.2800   33.3460   44.3600 C   0  0  0  0  0  0  0  0  0  0  0  0
   58.3270   32.7100   45.6950 N   0  0  0  0  0  0  0  0  0  0  0  0
   57.6440   33.5150   46.7460 C   0  0  0  0  0  0  0  0  0  0  0  0
   58.5870   34.0800   47.8280 C   0  0  0  0  0  0  0  0  0  0  0  0
   59.8970   34.5970   47.2210 C   0  0  0  0  0  0  0  0  0  0  0  0
   59.6270   35.7330   46.4400 O   0  0  0  0  0  0  0  0  0  0  0  0
   60.6010   33.5100   46.3730 C   0  0  0  0  0  0  0  0  0  0  0  0
   59.6980   32.3010   46.0690 C   0  0  0  0  0  0  0  0  0  0  0  0
   58.4050   29.9630   44.2060 C   0  0  0  0  0  0  0  0  0  0  0  0
   57.9030   28.7940   44.7820 C   0  0  0  0  0  0  0  0  0  0  0  0
   58.0410   26.8560   46.9740 C   0  0  0  0  0  0  0  0  0  0  0  0
   58.3320   27.9160   47.8470 C   0  0  0  0  0  0  0  0  0  0  0  0
   59.6440   28.1480   48.2560 C   0  0  0  0  0  0  0  0  0  0  0  0
   60.6620   27.3150   47.7900 C   0  0  0  0  0  0  0  0  0  0  0  0
   60.3720   26.2940   46.9440 N   0  0  0  0  0  0  0  0  0  0  0  0
   59.0990   26.0430   46.5230 C   0  0  0  0  0  0  0  0  0  0  0  0
   58.8480   24.9990   45.6250 O   0  0  0  0  0  0  0  0  0  0  0  0
   58.3030   23.7450   46.0220 C   0  0  0  0  0  0  0  0  0  0  0  0
   57.7240   23.0550   44.8190 C   0  0  0  0  0  0  0  0  0  0  0  0
   58.2640   21.8400   44.3640 C   0  0  0  0  0  0  0  0  0  0  0  0
   57.7090   21.1920   43.2550 C   0  0  0  0  0  0  0  0  0  0  0  0
   56.6060   21.7480   42.5990 C   0  0  0  0  0  0  0  0  0  0  0  0
   56.0550   22.9490   43.0530 C   0  0  0  0  0  0  0  0  0  0  0  0
   56.6060   23.6020   44.1610 C   0  0  0  0  0  0  0  0  0  0  0  0
   56.0530   24.7640   44.5930 F   0  0  0  0  0  0  0  0  0  0  0  0
   54.5797   29.6015   44.8588 H   0  0  0  0  0  0  0  0  0  0  0  0
   55.4774   31.6992   43.8569 H   0  0  0  0  0  0  0  0  0  0  0  0
   59.0552   32.0713   42.7957 H   0  0  0  0  0  0  0  0  0  0  0  0
   57.3722   32.6645   42.5261 H   0  0  0  0  0  0  0  0  0  0  0  0
   59.2235   33.8821   44.1799 H   0  0  0  0  0  0  0  0  0  0  0  0
   57.4351   34.0496   44.3281 H   0  0  0  0  0  0  0  0  0  0  0  0
   57.1361   34.3594   46.2571 H   0  0  0  0  0  0  0  0  0  0  0  0
   56.9478   32.8355   47.2595 H   0  0  0  0  0  0  0  0  0  0  0  0
   58.0813   34.9090   48.3447 H   0  0  0  0  0  0  0  0  0  0  0  0
   58.8297   33.2690   48.5304 H   0  0  0  0  0  0  0  0  0  0  0  0
   60.5813   34.8638   48.0399 H   0  0  0  0  0  0  0  0  0  0  0  0
   59.3740   36.4600   47.0710 H   0  0  0  0  0  0  0  0  0  0  0  0
   60.9164   33.9595   45.4199 H   0  0  0  0  0  0  0  0  0  0  0  0
   61.4564   33.1411   46.9580 H   0  0  0  0  0  0  0  0  0  0  0  0
   60.1372   31.7307   45.2372 H   0  0  0  0  0  0  0  0  0  0  0  0
   59.6319   31.6900   46.9813 H   0  0  0  0  0  0  0  0  0  0  0  0
   59.4846   30.0623   44.0203 H   0  0  0  0  0  0  0  0  0  0  0  0
   58.5871   27.9704   45.0343 H   0  0  0  0  0  0  0  0  0  0  0  0
   57.5218   28.5657   48.2095 H   0  0  0  0  0  0  0  0  0  0  0  0
   59.8746   28.9789   48.9389 H   0  0  0  0  0  0  0  0  0  0  0  0
   61.7008   27.4861   48.1087 H   0  0  0  0  0  0  0  0  0  0  0  0
   59.0966   23.1204   46.4580 H   0  0  0  0  0  0  0  0  0  0  0  0
   57.5140   23.9055   46.7715 H   0  0  0  0  0  0  0  0  0  0  0  0
   59.1270   21.3963   44.8821 H   0  0  0  0  0  0  0  0  0  0  0  0
   58.1404   20.2448   42.8989 H   0  0  0  0  0  0  0  0  0  0  0  0
   56.1721   21.2396   41.7253 H   0  0  0  0  0  0  0  0  0  0  0  0
   55.1852   23.3826   42.5377 H   0  0  0  0  0  0  0  0  0  0  0  0
  1  2  2  0
  2  3  1  0
  3  4  1  0
  4  5  2  0
  5  6  1  0
  6  7  2  0
  7  8  1  0
  8  9  1  0
  9 10  1  0
 10 11  1  0
 11 12  1  0
 12 13  1  0
 13 14  1  0
 13 15  1  0
 15 16  1  0
  7 17  1  0
 17 18  2  0
  2 19  1  0
 19 20  2  0
 20 21  1  0
 21 22  2  0
 22 23  1  0
 23 24  2  0
 24 25  1  0
 25 26  1  0
 26 27  1  0
 27 28  2  0
 28 29  1  0
 29 30  2  0
 30 31  1  0
 31 32  2  0
 32 33  1  0
 18  4  1  0
 24 19  1  0
 32 27  1  0
 16 10  1  0
  5 34  1  0
  6 35  1  0
  8 36  1  0
  8 37  1  0
  9 38  1  0
  9 39  1  0
 11 40  1  0
 11 41  1  0
 12 42  1  0
 12 43  1  0
 13 44  1  0
 14 45  1  0
 15 46  1  0
 15 47  1  0
 16 48  1  0
 16 49  1  0
 17 50  1  0
 18 51  1  0
 20 52  1  0
 21 53  1  0
 22 54  1  0
 26 55  1  0
 26 56  1  0
 28 57  1  0
 29 58  1  0
 30 59  1  0
 31 60  1  0
M  CHG  1   3  -1
M  END
>  <UniqueID>  (5) 
5

>  <SMILES>  (5) 
O=C([N-]c1ccc(CCN2CCC(O)CC2)cc1)c1cccnc1OCc1ccccc1F

>  <Energy>  (5) 
76.90272554122856

>  <Genealogy>  (5) 
O=C([N-]c1ccc(CCN2CCC(O)CC2)cc1)c1cccnc1OCc1ccccc1F (protonated)
O=C([N-]c1ccc(CCN2CCC(O)CC2)cc1)c1cccnc1OCc1ccccc1F (3D coordinates assigned)
O=C([N-]c1ccc(CCN2CCC(O)CC2)cc1)c1cccnc1OCc1ccccc1F (nonaromatic ring conformer: 76.90272554122856 kcal/mol)

>  <smiles>  (5) 
O=C(Nc1ccc(CCN2CCC(O)CC2)cc1)c1cccnc1OCc1ccccc1F

>  <score_type>  (5) 
oracle

>  <origin>  (5) 
adg

>  <m_score__min__energy>  (5) 
-11.44

>  <m_primary>  (5) 
energy

$$$$
5:0
     RDKit          3D

 42 44  0  0  0  0  0  0  0  0999 V2000
   60.8520   34.7640   48.1880 O   0  0  0  0  0  0  0  0  0  0  0  0
   60.6870   34.3980   46.9940 C   0  0  0  0  0  0  0  0  0  0  0  0
   59.3800   34.3970   46.4060 N   0  0  0  0  0  0  0  0  0  0  0  0
   58.6900   33.2630   45.8610 C   0  0  0  0  0  0  0  0  0  0  0  0
   58.5410   32.0620   46.5790 C   0  0  0  0  0  0  0  0  0  0  0  0
   57.8410   30.9890   46.0200 C   0  0  0  0  0  0  0  0  0  0  0  0
   57.2770   31.1020   44.7430 C   0  0  0  0  0  0  0  0  0  0  0  0
   56.3880   29.7530   44.0450 S   0  0  0  0  0  0  0  0  0  0  0  0
   56.0050   30.0890   42.6290 O   0  0  0  0  0  0  0  0  0  0  0  0
   55.1550   29.5040   44.8670 O   0  0  0  0  0  0  0  0  0  0  0  0
   57.4000   28.3400   44.0420 N   0  0  0  0  0  0  0  0  0  0  0  0
   58.1960   27.9550   44.9980 C   0  0  0  0  0  0  0  0  0  0  0  0
   59.5880   28.1860   44.9670 C   0  0  0  0  0  0  0  0  0  0  0  0
   60.3800   27.7450   46.0280 C   0  0  0  0  0  0  0  0  0  0  0  0
   59.7940   27.0810   47.1070 C   0  0  0  0  0  0  0  0  0  0  0  0
   58.4160   26.8680   47.1090 C   0  0  0  0  0  0  0  0  0  0  0  0
   57.6590   27.3050   46.0660 N   0  0  0  0  0  0  0  0  0  0  0  0
   57.3980   32.3070   44.0380 C   0  0  0  0  0  0  0  0  0  0  0  0
   58.0950   33.3820   44.5980 C   0  0  0  0  0  0  0  0  0  0  0  0
   61.8000   33.9300   46.2240 N   0  0  0  0  0  0  0  0  0  0  0  0
   63.1520   33.8350   46.7690 C   0  0  0  0  0  0  0  0  0  0  0  0
   63.1700   32.9140   47.9580 C   0  0  0  0  0  0  0  0  0  0  0  0
   62.2330   31.8790   48.0830 C   0  0  0  0  0  0  0  0  0  0  0  0
   62.2830   31.0210   49.1850 C   0  0  0  0  0  0  0  0  0  0  0  0
   63.2750   31.2040   50.1490 C   0  0  0  0  0  0  0  0  0  0  0  0
   64.1810   32.2080   50.0120 N   0  0  0  0  0  0  0  0  0  0  0  0
   64.1520   33.0580   48.9500 C   0  0  0  0  0  0  0  0  0  0  0  0
   58.9772   31.9672   47.5843 H   0  0  0  0  0  0  0  0  0  0  0  0
   57.7326   30.0517   46.5855 H   0  0  0  0  0  0  0  0  0  0  0  0
   60.0447   28.7091   44.1139 H   0  0  0  0  0  0  0  0  0  0  0  0
   61.4658   27.9206   46.0140 H   0  0  0  0  0  0  0  0  0  0  0  0
   60.4123   26.7297   47.9462 H   0  0  0  0  0  0  0  0  0  0  0  0
   57.9410   26.3469   47.9533 H   0  0  0  0  0  0  0  0  0  0  0  0
   56.9434   32.4074   43.0414 H   0  0  0  0  0  0  0  0  0  0  0  0
   58.1768   34.3282   44.0429 H   0  0  0  0  0  0  0  0  0  0  0  0
   61.6400   33.6510   45.2300 H   0  0  0  0  0  0  0  0  0  0  0  0
   63.8287   33.4428   45.9955 H   0  0  0  0  0  0  0  0  0  0  0  0
   63.4823   34.8354   47.0853 H   0  0  0  0  0  0  0  0  0  0  0  0
   61.4585   31.7422   47.3139 H   0  0  0  0  0  0  0  0  0  0  0  0
   61.5478   30.2097   49.2913 H   0  0  0  0  0  0  0  0  0  0  0  0
   63.3239   30.5350   51.0208 H   0  0  0  0  0  0  0  0  0  0  0  0
   64.9003   33.8602   48.8688 H   0  0  0  0  0  0  0  0  0  0  0  0
  1  2  2  0
  2  3  1  0
  3  4  1  0
  4  5  2  0
  5  6  1  0
  6  7  2  0
  7  8  1  0
  8  9  2  0
  8 10  2  0
  8 11  1  0
 11 12  2  3
 12 13  1  0
 13 14  2  0
 14 15  1  0
 15 16  2  0
 16 17  1  0
  7 18  1  0
 18 19  2  0
  2 20  1  0
 20 21  1  0
 21 22  1  0
 22 23  2  0
 23 24  1  0
 24 25  2  0
 25 26  1  0
 26 27  2  0
 19  4  1  0
 27 22  1  0
 17 12  1  0
  5 28  1  0
  6 29  1  0
 13 30  1  0
 14 31  1  0
 15 32  1  0
 16 33  1  0
 18 34  1  0
 19 35  1  0
 20 36  1  0
 21 37  1  0
 21 38  1  0
 23 39  1  0
 24 40  1  0
 25 41  1  0
 27 42  1  0
M  CHG  2   3  -1  17  -1
M  END
>  <UniqueID>  (6) 
6

>  <SMILES>  (6) 
O=C([N-]c1ccc(S(=O)(=O)N=c2cccc[n-]2)cc1)NCc1cccnc1

>  <Energy>  (6) 
53.17560996910634

>  <Genealogy>  (6) 
O=C([N-]c1ccc(S(=O)(=O)N=c2cccc[n-]2)cc1)NCc1cccnc1 (protonated)
O=C([N-]c1ccc(S(=O)(=O)N=c2cccc[n-]2)cc1)NCc1cccnc1 (3D coordinates assigned)
O=C([N-]c1ccc(S(=O)(=O)N=c2cccc[n-]2)cc1)NCc1cccnc1 (optimized conformer: 53.17560996910634 kcal/mol)

>  <smiles>  (6) 
O=C(NCc1cccnc1)Nc1ccc(S(=O)(=O)N=c2cccc[nH]2)cc1

>  <score_type>  (6) 
oracle

>  <origin>  (6) 
adg

>  <m_score__min__energy>  (6) 
-11.02

>  <m_primary>  (6) 
energy

$$$$
6:0
     RDKit          3D

 55 58  0  0  0  0  0  0  0  0999 V2000
   55.1440   29.3350   44.3630 N   0  0  0  0  0  0  0  0  0  0  0  0
   56.2600   29.7550   44.8650 C   0  0  0  0  0  0  0  0  0  0  0  0
   56.5680   31.0790   44.8130 N   0  0  0  0  0  0  0  0  0  0  0  0
   57.7260   31.5720   45.3250 C   0  0  0  0  0  0  0  0  0  0  0  0
   58.6540   30.7130   45.9380 C   0  0  0  0  0  0  0  0  0  0  0  0
   59.9190   31.2420   46.5100 C   0  0  0  0  0  0  0  0  0  0  0  0
   61.0060   30.3850   46.7590 C   0  0  0  0  0  0  0  0  0  0  0  0
   62.1930   30.8830   47.3040 C   0  0  0  0  0  0  0  0  0  0  0  0
   62.3130   32.2440   47.6220 C   0  0  0  0  0  0  0  0  0  0  0  0
   63.5700   32.7630   48.2000 C   0  0  0  0  0  0  0  0  0  0  0  0
   64.3280   33.4710   47.4800 O   0  0  0  0  0  0  0  0  0  0  0  0
   63.9600   32.4520   49.5520 N   0  0  0  0  0  0  0  0  0  0  0  0
   63.7500   31.0910   50.0740 C   0  0  0  0  0  0  0  0  0  0  0  0
   64.6260   30.8060   51.3030 C   0  0  0  0  0  0  0  0  0  0  0  0
   65.9730   31.3800   51.1350 N   0  0  0  0  0  0  0  0  0  0  0  0
   67.1330   30.6880   51.6380 C   0  0  0  0  0  0  0  0  0  0  0  0
   68.1150   31.3430   52.0830 O   0  0  0  0  0  0  0  0  0  0  0  0
   67.2090   29.2170   51.6330 C   0  0  0  0  0  0  0  0  0  0  0  0
   67.7220   28.5730   50.4960 C   0  0  0  0  0  0  0  0  0  0  0  0
   67.8420   27.1830   50.4650 C   0  0  0  0  0  0  0  0  0  0  0  0
   67.4480   26.4220   51.5670 C   0  0  0  0  0  0  0  0  0  0  0  0
   66.9190   27.0490   52.6980 C   0  0  0  0  0  0  0  0  0  0  0  0
   66.7750   28.4470   52.7380 C   0  0  0  0  0  0  0  0  0  0  0  0
   66.1710   29.0840   53.9680 C   0  0  0  0  0  0  0  0  0  0  0  0
   67.1270   29.8610   54.6330 O   0  0  0  0  0  0  0  0  0  0  0  0
   66.1280   32.7610   50.6480 C   0  0  0  0  0  0  0  0  0  0  0  0
   64.7760   33.3980   50.3210 C   0  0  0  0  0  0  0  0  0  0  0  0
   61.2390   33.1070   47.3550 C   0  0  0  0  0  0  0  0  0  0  0  0
   60.0520   32.6100   46.8080 C   0  0  0  0  0  0  0  0  0  0  0  0
   58.3510   29.3420   46.0010 C   0  0  0  0  0  0  0  0  0  0  0  0
   57.1570   28.8540   45.4650 C   0  0  0  0  0  0  0  0  0  0  0  0
   56.8880   27.4870   45.5390 O   0  0  0  0  0  0  0  0  0  0  0  0
   54.8270   28.3460   44.4850 H   0  0  0  0  0  0  0  0  0  0  0  0
   57.9382   32.6493   45.2593 H   0  0  0  0  0  0  0  0  0  0  0  0
   60.9214   29.3140   46.5229 H   0  0  0  0  0  0  0  0  0  0  0  0
   63.0386   30.2031   47.4847 H   0  0  0  0  0  0  0  0  0  0  0  0
   62.6931   30.9781   50.3571 H   0  0  0  0  0  0  0  0  0  0  0  0
   64.0283   30.3771   49.2848 H   0  0  0  0  0  0  0  0  0  0  0  0
   64.1540   31.2497   52.1920 H   0  0  0  0  0  0  0  0  0  0  0  0
   64.7211   29.7165   51.4210 H   0  0  0  0  0  0  0  0  0  0  0  0
   68.0314   29.1678   49.6239 H   0  0  0  0  0  0  0  0  0  0  0  0
   68.2475   26.6864   49.5712 H   0  0  0  0  0  0  0  0  0  0  0  0
   67.5541   25.3274   51.5449 H   0  0  0  0  0  0  0  0  0  0  0  0
   66.6127   26.4440   53.5641 H   0  0  0  0  0  0  0  0  0  0  0  0
   65.3281   29.7241   53.6682 H   0  0  0  0  0  0  0  0  0  0  0  0
   65.8205   28.2914   54.6455 H   0  0  0  0  0  0  0  0  0  0  0  0
   67.4570   30.5290   53.9770 H   0  0  0  0  0  0  0  0  0  0  0  0
   66.6261   33.3597   51.4248 H   0  0  0  0  0  0  0  0  0  0  0  0
   66.7282   32.7355   49.7265 H   0  0  0  0  0  0  0  0  0  0  0  0
   64.2562   33.6542   51.2560 H   0  0  0  0  0  0  0  0  0  0  0  0
   64.9357   34.3100   49.7270 H   0  0  0  0  0  0  0  0  0  0  0  0
   61.3315   34.1803   47.5773 H   0  0  0  0  0  0  0  0  0  0  0  0
   59.2147   33.2951   46.6090 H   0  0  0  0  0  0  0  0  0  0  0  0
   59.0598   28.6478   46.4762 H   0  0  0  0  0  0  0  0  0  0  0  0
   56.4300   26.9840   44.7890 H   0  0  0  0  0  0  0  0  0  0  0  0
  1  2  2  3
  2  3  1  0
  3  4  1  0
  4  5  2  0
  5  6  1  0
  6  7  2  0
  7  8  1  0
  8  9  2  0
  9 10  1  0
 10 11  2  0
 10 12  1  0
 12 13  1  0
 13 14  1  0
 14 15  1  0
 15 16  1  0
 16 17  2  0
 16 18  1  0
 18 19  2  0
 19 20  1  0
 20 21  2  0
 21 22  1  0
 22 23  2  0
 23 24  1  0
 24 25  1  0
 15 26  1  0
 26 27  1  0
  9 28  1  0
 28 29  2  0
  5 30  1  0
 30 31  2  0
 31 32  1  0
 31  2  1  0
 29  6  1  0
 27 12  1  0
 23 18  1  0
  1 33  1  0
  4 34  1  0
  7 35  1  0
  8 36  1  0
 13 37  1  0
 13 38  1  0
 14 39  1  0
 14 40  1  0
 19 41  1  0
 20 42  1  0
 21 43  1  0
 22 44  1  0
 24 45  1  0
 24 46  1  0
 25 47  1  0
 26 48  1  0
 26 49  1  0
 27 50  1  0
 27 51  1  0
 28 52  1  0
 29 53  1  0
 30 54  1  0
 32 55  1  0
M  CHG  1   3  -1
M  END
>  <UniqueID>  (7) 
7

>  <SMILES>  (7) 
N=c1[n-]cc(-c2ccc(C(=O)N3CCN(C(=O)c4ccccc4CO)CC3)cc2)cc1O

>  <Energy>  (7) 
79.08619344509977

>  <Genealogy>  (7) 
N=c1[n-]cc(-c2ccc(C(=O)N3CCN(C(=O)c4ccccc4CO)CC3)cc2)cc1O (protonated)
N=c1[n-]cc(-c2ccc(C(=O)N3CCN(C(=O)c4ccccc4CO)CC3)cc2)cc1O (3D coordinates assigned)
N=c1[n-]cc(-c2ccc(C(=O)N3CCN(C(=O)c4ccccc4CO)CC3)cc2)cc1O (nonaromatic ring conformer: 79.08619344509977 kcal/mol)

>  <smiles>  (7) 
N=c1[nH]cc(-c2ccc(C(=O)N3CCN(C(=O)c4ccccc4CO)CC3)cc2)cc1O

>  <score_type>  (7) 
oracle

>  <origin>  (7) 
adg

>  <m_score__min__energy>  (7) 
-10.949999999999999

>  <m_primary>  (7) 
energy

$$$$
7:0
     RDKit          3D

 42 44  0  0  0  0  0  0  0  0999 V2000
   58.2859   34.1659   44.3722 H   0  0  0  0  0  0  0  0  0  0  0  0
   58.1550   33.0750   44.4260 C   0  0  0  0  0  0  0  0  0  0  0  0
   57.8920   32.5073   43.5212 H   0  0  0  0  0  0  0  0  0  0  0  0
   58.3160   32.4370   45.5950 C   0  0  0  0  0  0  0  0  0  0  0  0
   58.1810   31.0600   45.8080 C   0  0  0  0  0  0  0  0  0  0  0  0
   57.8130   30.1250   44.9110 C   0  0  0  0  0  0  0  0  0  0  0  0
   57.7202   30.4218   43.8559 H   0  0  0  0  0  0  0  0  0  0  0  0
   57.5270   28.7180   45.2730 C   0  0  0  0  0  0  0  0  0  0  0  0
   56.2190   28.2030   45.2560 C   0  0  0  0  0  0  0  0  0  0  0  0
   55.1450   29.0120   44.8960 O   0  0  0  0  0  0  0  0  0  0  0  0
   55.9900   26.9100   45.6110 N   0  0  0  0  0  0  0  0  0  0  0  0
   55.0130   26.5420   45.5860 H   0  0  0  0  0  0  0  0  0  0  0  0
   57.0130   26.1060   46.0110 C   0  0  0  0  0  0  0  0  0  0  0  0
   56.7270   24.5540   46.4420 S   0  0  0  0  0  0  0  0  0  0  0  0
   58.2790   26.5920   46.0640 N   0  0  0  0  0  0  0  0  0  0  0  0
   58.5570   27.8730   45.7130 C   0  0  0  0  0  0  0  0  0  0  0  0
   59.7450   28.2880   45.7770 O   0  0  0  0  0  0  0  0  0  0  0  0
   58.4670   30.8420   47.1480 C   0  0  0  0  0  0  0  0  0  0  0  0
   58.4532   29.8761   47.6741 H   0  0  0  0  0  0  0  0  0  0  0  0
   58.7720   32.0720   47.6920 C   0  0  0  0  0  0  0  0  0  0  0  0
   59.1370   32.2960   49.1290 C   0  0  0  0  0  0  0  0  0  0  0  0
   58.3792   31.8309   49.7766 H   0  0  0  0  0  0  0  0  0  0  0  0
   60.1196   31.8452   49.3323 H   0  0  0  0  0  0  0  0  0  0  0  0
   59.1800   33.3762   49.3323 H   0  0  0  0  0  0  0  0  0  0  0  0
   58.6640   33.0460   46.7590 N   0  0  0  0  0  0  0  0  0  0  0  0
   58.9460   34.4730   46.9710 C   0  0  0  0  0  0  0  0  0  0  0  0
   58.1453   35.0731   46.5142 H   0  0  0  0  0  0  0  0  0  0  0  0
   58.9953   34.6718   48.0518 H   0  0  0  0  0  0  0  0  0  0  0  0
   60.2860   34.8490   46.3330 C   0  0  0  0  0  0  0  0  0  0  0  0
   60.2970   34.5073   45.2875 H   0  0  0  0  0  0  0  0  0  0  0  0
   60.4057   35.9416   46.3778 H   0  0  0  0  0  0  0  0  0  0  0  0
   61.4250   34.2060   47.0750 C   0  0  0  0  0  0  0  0  0  0  0  0
   62.5060   33.6500   46.3700 C   0  0  0  0  0  0  0  0  0  0  0  0
   62.5067   33.6608   45.2701 H   0  0  0  0  0  0  0  0  0  0  0  0
   63.5810   33.0830   47.0620 C   0  0  0  0  0  0  0  0  0  0  0  0
   64.4207   32.6411   46.5055 H   0  0  0  0  0  0  0  0  0  0  0  0
   63.5900   33.0770   48.4600 C   0  0  0  0  0  0  0  0  0  0  0  0
   64.4351   32.6285   49.0027 H   0  0  0  0  0  0  0  0  0  0  0  0
   62.5250   33.6410   49.1680 C   0  0  0  0  0  0  0  0  0  0  0  0
   62.5340   33.6381   50.2680 H   0  0  0  0  0  0  0  0  0  0  0  0
   61.4480   34.2090   48.4800 C   0  0  0  0  0  0  0  0  0  0  0  0
   60.6159   34.6597   49.0407 H   0  0  0  0  0  0  0  0  0  0  0  0
  1  2  1  0
  2  3  1  0
  2  4  2  0
  4  5  1  0
  5  6  2  0
  6  7  1  0
  6  8  1  0
  8  9  2  0
  9 10  1  0
  9 11  1  0
 11 12  1  0
 11 13  1  0
 13 14  2  0
 13 15  1  0
 15 16  1  0
 16 17  2  0
  5 18  1  0
 18 19  1  0
 18 20  2  0
 20 21  1  0
 21 22  1  0
 21 23  1  0
 21 24  1  0
 20 25  1  0
 25 26  1  0
 26 27  1  0
 26 28  1  0
 26 29  1  0
 29 30  1  0
 29 31  1  0
 29 32  1  0
 32 33  2  0
 33 34  1  0
 33 35  1  0
 35 36  1  0
 35 37  2  0
 37 38  1  0
 37 39  1  0
 39 40  1  0
 39 41  2  0
 41 42  1  0
 25  4  1  0
 41 32  1  0
 16  8  1  0
M  CHG  2  10  -1  15  -1
M  END
>  <UniqueID>  (8) 
8

>  <SMILES>  (8) 
C=c1/c(=C/c2c([O-])[nH]c(=S)[n-]c2=O)cc(C)n1CCc1ccccc1

>  <Energy>  (8) 
79.06867813843297

>  <Genealogy>  (8) 
C=c1c(=Cc2c([O-])[nH]c(=S)[n-]c2=O)cc(C)n1CCc1ccccc1 (protonated)
C=c1/c(=C/c2c([O-])[nH]c(=S)[n-]c2=O)cc(C)n1CCc1ccccc1 (cis-trans isomerization)
C=c1/c(=C/c2c([O-])[nH]c(=S)[n-]c2=O)cc(C)n1CCc1ccccc1 (3D coordinates assigned)
C=c1/c(=C/c2c([O-])[nH]c(=S)[n-]c2=O)cc(C)n1CCc1ccccc1 (optimized conformer: 79.06867813843297 kcal/mol)

>  <smiles>  (8) 
C=c1c(=Cc2c(O)[nH]c(=S)[nH]c2=O)cc(C)n1CCc1ccccc1

>  <score_type>  (8) 
oracle

>  <origin>  (8) 
adg

>  <m_score__min__energy>  (8) 
-14.300000000000001

>  <m_primary>  (8) 
energy

$$$$
8:0
     RDKit          3D

 49 52  0  0  0  0  0  0  0  0999 V2000
   54.7540   28.9670   45.5590 H   0  0  0  0  0  0  0  0  0  0  0  0
   55.5500   28.4770   45.1680 O   0  0  0  0  0  0  0  0  0  0  0  0
   55.9510   27.2340   45.6510 C   0  0  0  0  0  0  0  0  0  0  0  0
   55.0880   26.2620   45.9850 N   0  0  0  0  0  0  0  0  0  0  0  0
   55.8970   25.2910   46.4590 C   0  0  0  0  0  0  0  0  0  0  0  0
   55.4590   24.1930   46.8880 O   0  0  0  0  0  0  0  0  0  0  0  0
   57.2130   25.5930   46.4430 N   0  0  0  0  0  0  0  0  0  0  0  0
   57.2450   26.8240   45.9060 C   0  0  0  0  0  0  0  0  0  0  0  0
   58.4890   27.5920   45.7240 C   0  0  0  0  0  0  0  0  0  0  0  0
   58.8188   27.8130   44.6981 H   0  0  0  0  0  0  0  0  0  0  0  0
   59.2440   28.0380   46.7460 C   0  0  0  0  0  0  0  0  0  0  0  0
   59.5820   27.3260   47.8890 C   0  0  0  0  0  0  0  0  0  0  0  0
   59.3104   26.2851   48.1188 H   0  0  0  0  0  0  0  0  0  0  0  0
   60.3250   28.1780   48.6810 C   0  0  0  0  0  0  0  0  0  0  0  0
   60.8990   27.8150   50.0180 C   0  0  0  0  0  0  0  0  0  0  0  0
   60.2579   28.2205   50.8146 H   0  0  0  0  0  0  0  0  0  0  0  0
   60.9500   26.7200   50.1101 H   0  0  0  0  0  0  0  0  0  0  0  0
   61.9101   28.2382   50.1101 H   0  0  0  0  0  0  0  0  0  0  0  0
   60.4690   29.3790   48.0780 N   0  0  0  0  0  0  0  0  0  0  0  0
   61.1740   30.5120   48.6170 C   0  0  0  0  0  0  0  0  0  0  0  0
   62.1470   31.1680   47.8510 C   0  0  0  0  0  0  0  0  0  0  0  0
   62.3788   30.8097   46.8372 H   0  0  0  0  0  0  0  0  0  0  0  0
   62.8240   32.2750   48.3690 C   0  0  0  0  0  0  0  0  0  0  0  0
   63.5826   32.7866   47.7584 H   0  0  0  0  0  0  0  0  0  0  0  0
   62.5420   32.7390   49.6650 C   0  0  0  0  0  0  0  0  0  0  0  0
   63.2480   33.9110   50.2260 C   0  0  0  0  0  0  0  0  0  0  0  0
   62.7410   35.0580   50.1020 O   0  0  0  0  0  0  0  0  0  0  0  0
   64.4730   33.7710   50.9500 N   0  0  0  0  0  0  0  0  0  0  0  0
   65.3920   34.6810   51.6580 C   0  0  0  0  0  0  0  0  0  0  0  0
   65.9527   35.3345   50.9735 H   0  0  0  0  0  0  0  0  0  0  0  0
   64.9411   35.4099   52.3475 H   0  0  0  0  0  0  0  0  0  0  0  0
   66.2460   33.6100   52.2630 C   0  0  0  0  0  0  0  0  0  0  0  0
   66.4767   33.5432   53.3365 H   0  0  0  0  0  0  0  0  0  0  0  0
   67.5460   33.5700   51.7100 O   0  0  0  0  0  0  0  0  0  0  0  0
   67.4820   33.0020   50.4230 C   0  0  0  0  0  0  0  0  0  0  0  0
   67.3592   31.9122   50.5089 H   0  0  0  0  0  0  0  0  0  0  0  0
   66.6259   33.4256   49.8774 H   0  0  0  0  0  0  0  0  0  0  0  0
   68.4109   33.2245   49.8774 H   0  0  0  0  0  0  0  0  0  0  0  0
   65.3100   32.7020   51.5300 C   0  0  0  0  0  0  0  0  0  0  0  0
   65.8180   32.0981   50.7637 H   0  0  0  0  0  0  0  0  0  0  0  0
   64.7962   31.9301   52.1217 H   0  0  0  0  0  0  0  0  0  0  0  0
   61.5490   32.0920   50.4200 C   0  0  0  0  0  0  0  0  0  0  0  0
   61.3013   32.4603   51.4265 H   0  0  0  0  0  0  0  0  0  0  0  0
   60.8740   30.9840   49.9010 C   0  0  0  0  0  0  0  0  0  0  0  0
   60.1037   30.4804   50.5035 H   0  0  0  0  0  0  0  0  0  0  0  0
   59.8070   29.3100   46.8940 C   0  0  0  0  0  0  0  0  0  0  0  0
   59.7550   30.3120   46.0020 C   0  0  0  0  0  0  0  0  0  0  0  0
   60.2369   31.2747   46.2276 H   0  0  0  0  0  0  0  0  0  0  0  0
   59.2305   30.1702   45.0456 H   0  0  0  0  0  0  0  0  0  0  0  0
  1  2  1  0
  2  3  1  0
  3  4  1  0
  4  5  1  0
  5  6  2  0
  5  7  1  0
  7  8  1  0
  8  9  1  0
  9 10  1  0
  9 11  2  0
 11 12  1  0
 12 13  1  0
 12 14  2  0
 14 15  1  0
 15 16  1  0
 15 17  1  0
 15 18  1  0
 14 19  1  0
 19 20  1  0
 20 21  2  0
 21 22  1  0
 21 23  1  0
 23 24  1  0
 23 25  2  0
 25 26  1  0
 26 27  2  0
 26 28  1  0
 28 29  1  0
 29 30  1  0
 29 31  1  0
 29 32  1  0
 32 33  1  0
 32 34  1  0
 34 35  1  0
 35 36  1  0
 35 37  1  0
 35 38  1  0
 32 39  1  0
 39 40  1  0
 39 41  1  0
 25 42  1  0
 42 43  1  0
 42 44  2  0
 44 45  1  0
 19 46  1  0
 46 47  2  0
 47 48  1  0
 47 49  1  0
  8  3  2  0
 46 11  1  0
 44 20  1  0
 39 28  1  0
M  CHG  2   4  -1   7  -1
M  END
>  <UniqueID>  (9) 
9

>  <SMILES>  (9) 
C=c1/c(=C/c2[n-]c(=O)[n-]c2O)cc(C)n1-c1ccc(C(=O)N2CC(OC)C2)cc1

>  <Energy>  (9) 
170.95906165201015

>  <Genealogy>  (9) 
C=c1c(=Cc2[n-]c(=O)[n-]c2O)cc(C)n1-c1ccc(C(=O)N2CC(OC)C2)cc1 (protonated)
C=c1/c(=C/c2[n-]c(=O)[n-]c2O)cc(C)n1-c1ccc(C(=O)N2CC(OC)C2)cc1 (cis-trans isomerization)
C=c1/c(=C/c2[n-]c(=O)[n-]c2O)cc(C)n1-c1ccc(C(=O)N2CC(OC)C2)cc1 (3D coordinates assigned)
C=c1/c(=C/c2[n-]c(=O)[n-]c2O)cc(C)n1-c1ccc(C(=O)N2CC(OC)C2)cc1 (nonaromatic ring conformer: 170.95906165201015 kcal/mol)

>  <smiles>  (9) 
C=c1c(=Cc2[nH]c(=O)[nH]c2O)cc(C)n1-c1ccc(C(=O)N2CC(OC)C2)cc1

>  <score_type>  (9) 
oracle

>  <origin>  (9) 
adg

>  <m_score__min__energy>  (9) 
-12.960000000000001

>  <m_primary>  (9) 
energy

$$$$
9:0
     RDKit          3D

 59 62  0  0  0  0  0  0  0  0999 V2000
   55.1010   30.8710   52.6410 C   0  0  0  0  0  0  0  0  0  0  0  0
   56.8690   30.9730   52.5720 S   0  0  0  0  0  0  0  0  0  0  0  0
   57.4320   30.1260   51.4570 O   0  0  0  0  0  0  0  0  0  0  0  0
   57.4130   30.3950   53.8630 O   0  0  0  0  0  0  0  0  0  0  0  0
   57.4110   32.5760   52.4770 O   0  0  0  0  0  0  0  0  0  0  0  0
   58.7390   32.8860   52.1480 C   0  0  0  0  0  0  0  0  0  0  0  0
   59.3940   33.4320   53.0620 O   0  0  0  0  0  0  0  0  0  0  0  0
   59.2200   32.5670   50.8580 N   0  0  0  0  0  0  0  0  0  0  0  0
   58.8770   33.2700   49.7920 N   0  0  0  0  0  0  0  0  0  0  0  0
   59.4340   32.8090   48.6630 C   0  0  0  0  0  0  0  0  0  0  0  0
   59.1680   33.4510   47.3820 C   0  0  0  0  0  0  0  0  0  0  0  0
   59.9630   34.4440   46.8460 C   0  0  0  0  0  0  0  0  0  0  0  0
   59.6590   35.0410   45.6200 C   0  0  0  0  0  0  0  0  0  0  0  0
   58.5560   34.6490   44.9130 C   0  0  0  0  0  0  0  0  0  0  0  0
   57.7350   33.6500   45.4270 C   0  0  0  0  0  0  0  0  0  0  0  0
   58.0670   33.0820   46.6460 C   0  0  0  0  0  0  0  0  0  0  0  0
   60.1990   31.7280   49.0140 C   0  0  0  0  0  0  0  0  0  0  0  0
   61.0230   30.9440   48.0970 C   0  0  0  0  0  0  0  0  0  0  0  0
   60.2960   29.8760   47.3800 C   0  0  0  0  0  0  0  0  0  0  0  0
   59.6430   30.0790   46.1620 C   0  0  0  0  0  0  0  0  0  0  0  0
   59.5310   27.5710   47.2520 C   0  0  0  0  0  0  0  0  0  0  0  0
   56.0940   23.9620   45.1590 C   0  0  0  0  0  0  0  0  0  0  0  0
   58.1970   26.6970   45.3590 C   0  0  0  0  0  0  0  0  0  0  0  0
   57.7590   26.9120   44.2030 O   0  0  0  0  0  0  0  0  0  0  0  0
   58.0250   25.4300   45.9890 N   0  0  0  0  0  0  0  0  0  0  0  0
   57.3770   24.3220   45.3820 C   0  0  0  0  0  0  0  0  0  0  0  0
   58.4190   23.0650   44.7460 S   0  0  0  0  0  0  0  0  0  0  0  0
   56.9760   22.0460   44.1730 C   0  0  0  0  0  0  0  0  0  0  0  0
   58.9730   29.0640   45.5340 C   0  0  0  0  0  0  0  0  0  0  0  0
   58.8820   27.7800   46.0330 C   0  0  0  0  0  0  0  0  0  0  0  0
   54.9550   24.8260   45.5910 C   0  0  0  0  0  0  0  0  0  0  0  0
   53.8220   24.3910   45.9330 N   0  0  0  0  0  0  0  0  0  0  0  0
   55.1090   26.2310   45.6320 O   0  0  0  0  0  0  0  0  0  0  0  0
   55.8630   22.7830   44.5310 C   0  0  0  0  0  0  0  0  0  0  0  0
   60.2060   28.5850   47.8900 C   0  0  0  0  0  0  0  0  0  0  0  0
   60.0370   31.6030   50.4120 C   0  0  0  0  0  0  0  0  0  0  0  0
   60.6610   30.5760   51.2370 C   0  0  0  0  0  0  0  0  0  0  0  0
   61.7840   30.0760   50.8760 O   0  0  0  0  0  0  0  0  0  0  0  0
   60.1540   30.0690   52.4010 O   0  0  0  0  0  0  0  0  0  0  0  0
   54.7755   30.8522   53.6916 H   0  0  0  0  0  0  0  0  0  0  0  0
   54.6633   31.7454   52.1371 H   0  0  0  0  0  0  0  0  0  0  0  0
   54.7668   29.9521   52.1371 H   0  0  0  0  0  0  0  0  0  0  0  0
   60.8565   34.7729   47.3969 H   0  0  0  0  0  0  0  0  0  0  0  0
   60.3112   35.8317   45.2207 H   0  0  0  0  0  0  0  0  0  0  0  0
   58.3200   35.1191   43.9469 H   0  0  0  0  0  0  0  0  0  0  0  0
   56.8417   33.3185   44.8773 H   0  0  0  0  0  0  0  0  0  0  0  0
   57.4141   32.2927   47.0470 H   0  0  0  0  0  0  0  0  0  0  0  0
   61.4522   31.6283   47.3503 H   0  0  0  0  0  0  0  0  0  0  0  0
   61.7862   30.4444   48.7118 H   0  0  0  0  0  0  0  0  0  0  0  0
   59.6677   31.0759   45.6976 H   0  0  0  0  0  0  0  0  0  0  0  0
   59.5015   26.5723   47.7122 H   0  0  0  0  0  0  0  0  0  0  0  0
   58.3770   25.2420   46.9750 H   0  0  0  0  0  0  0  0  0  0  0  0
   57.0015   21.0722   43.6621 H   0  0  0  0  0  0  0  0  0  0  0  0
   58.4785   29.2841   44.5764 H   0  0  0  0  0  0  0  0  0  0  0  0
   53.6080   23.5420   46.4440 H   0  0  0  0  0  0  0  0  0  0  0  0
   55.7930   26.6460   45.0420 H   0  0  0  0  0  0  0  0  0  0  0  0
   54.8429   22.4313   44.3175 H   0  0  0  0  0  0  0  0  0  0  0  0
   60.6980   28.3648   48.8489 H   0  0  0  0  0  0  0  0  0  0  0  0
   59.2140   30.2640   52.7070 H   0  0  0  0  0  0  0  0  0  0  0  0
  1  2  1  0
  2  3  2  0
  2  4  2  0
  2  5  1  0
  5  6  1  0
  6  7  2  0
  6  8  1  0
  8  9  1  0
  9 10  2  0
 10 11  1  0
 11 12  2  0
 12 13  1  0
 13 14  2  0
 14 15  1  0
 15 16  2  0
 10 17  1  0
 17 18  1  0
 18 19  1  0
 19 20  2  0
 20 21  1  0
 21 22  2  0
 22 23  1  0
 23 24  2  0
 23 25  1  0
 25 26  1  0
 26 27  1  0
 27 28  1  0
 28 29  2  0
 29 30  1  0
 30 31  1  0
 31 32  2  3
 31 33  1  0
 22 34  1  0
 34 35  2  0
 17 36  2  0
 36 37  1  0
 37 38  2  0
 37 39  1  0
 36  8  1  0
 16 11  1  0
 35 19  1  0
 30 26  2  0
  1 40  1  0
  1 41  1  0
  1 42  1  0
 12 43  1  0
 13 44  1  0
 14 45  1  0
 15 46  1  0
 16 47  1  0
 18 48  1  0
 18 49  1  0
 20 50  1  0
 21 51  1  0
 25 52  1  0
 28 53  1  0
 29 54  1  0
 32 55  1  0
 33 56  1  0
 34 57  1  0
 35 58  1  0
 39 59  1  0
M  END
>  <smiles>  (10) 
CS(=O)(=O)OC(=O)n1nc(-c2ccccc2)c(Cc2ccc(C(=O)Nc3sccc3C(=N)O)cc2)c1C(=O)O

>  <score_type>  (10) 
oracle

>  <origin>  (10) 
adg

>  <m_score__min__energy>  (10) 
-9.8100000000000005

>  <m_primary>  (10) 
energy

$$$$
10:0
     RDKit          3D

 32 35  0  0  0  0  0  0  0  0999 V2000
   55.6480   27.9350   44.8360 H   0  0  0  0  0  0  0  0  0  0  0  0
   55.4790   28.9660   44.8790 N   0  0  0  0  0  0  0  0  0  0  0  0
   56.4340   29.8090   44.6620 C   0  0  0  0  0  0  0  0  0  0  0  0
   56.2820   31.1400   44.8140 N   0  0  0  0  0  0  0  0  0  0  0  0
   57.4300   31.8110   44.5200 C   0  0  0  0  0  0  0  0  0  0  0  0
   57.5030   33.3150   44.6740 C   0  0  1  0  0  0  0  0  0  0  0  0
   56.9963   33.7442   43.7971 H   0  0  0  0  0  0  0  0  0  0  0  0
   56.7750   33.7550   45.8880 N   0  0  0  0  0  0  0  0  0  0  0  0
   56.7100   34.8000   45.8710 H   0  0  0  0  0  0  0  0  0  0  0  0
   57.4250   33.3520   47.1520 C   0  0  0  0  0  0  0  0  0  0  0  0
   57.2903   32.2701   47.2979 H   0  0  0  0  0  0  0  0  0  0  0  0
   56.9632   33.9102   47.9797 H   0  0  0  0  0  0  0  0  0  0  0  0
   58.8860   33.6640   47.1200 C   0  0  0  0  0  0  0  0  0  0  0  0
   59.5980   33.8490   45.9550 C   0  0  0  0  0  0  0  0  0  0  0  0
   60.9160   34.0190   46.2060 N   0  0  0  0  0  0  0  0  0  0  0  0
   61.6770   34.1840   45.5090 H   0  0  0  0  0  0  0  0  0  0  0  0
   61.0360   33.9080   47.5430 C   0  0  0  0  0  0  0  0  0  0  0  0
   62.2080   33.9780   48.2950 C   0  0  0  0  0  0  0  0  0  0  0  0
   63.1803   34.1611   47.8143 H   0  0  0  0  0  0  0  0  0  0  0  0
   62.1080   33.8070   49.6890 C   0  0  0  0  0  0  0  0  0  0  0  0
   63.5520   33.8850   50.6810 Cl  0  0  0  0  0  0  0  0  0  0  0  0
   60.8510   33.5680   50.2930 C   0  0  0  0  0  0  0  0  0  0  0  0
   60.7860   33.4351   51.3830 H   0  0  0  0  0  0  0  0  0  0  0  0
   59.6840   33.4990   49.5110 C   0  0  0  0  0  0  0  0  0  0  0  0
   58.7021   33.3082   49.9687 H   0  0  0  0  0  0  0  0  0  0  0  0
   59.8160   33.6810   48.1360 C   0  0  0  0  0  0  0  0  0  0  0  0
   58.9500   33.8850   44.6090 C   0  0  0  0  0  0  0  0  0  0  0  0
   59.5438   33.2811   43.9071 H   0  0  0  0  0  0  0  0  0  0  0  0
   58.9012   34.9304   44.2702 H   0  0  0  0  0  0  0  0  0  0  0  0
   58.5040   30.9940   44.1500 C   0  0  0  0  0  0  0  0  0  0  0  0
   59.5148   31.3394   43.8875 H   0  0  0  0  0  0  0  0  0  0  0  0
   57.9860   29.3930   44.1750 S   0  0  0  0  0  0  0  0  0  0  0  0
  1  2  1  0
  2  3  2  0
  3  4  1  0
  4  5  1  0
  5  6  1  0
  6  7  1  6
  6  8  1  0
  8  9  1  0
  8 10  1  0
 10 11  1  0
 10 12  1  0
 10 13  1  0
 13 14  2  0
 14 15  1  0
 15 16  1  0
 15 17  1  0
 17 18  2  0
 18 19  1  0
 18 20  1  0
 20 21  1  0
 20 22  2  0
 22 23  1  0
 22 24  1  0
 24 25  1  0
 24 26  2  0
 14 27  1  0
 27 28  1  0
 27 29  1  0
  5 30  2  0
 30 31  1  0
 30 32  1  0
 32  3  1  0
 27  6  1  0
 26 13  1  0
 26 17  1  0
M  CHG  1   4  -1
M  END
>  <UniqueID>  (11) 
10

>  <SMILES>  (11) 
[H]/N=c1/[n-]c([C@@H]2Cc3[nH]c4cc(Cl)ccc4c3CN2)cs1

>  <Energy>  (11) 
104.50703299558934

>  <Genealogy>  (11) 
N=c1[n-]c(C2Cc3[nH]c4cc(Cl)ccc4c3CN2)cs1 (protonated)
N=c1[n-]c([C@@H]2Cc3[nH]c4cc(Cl)ccc4c3CN2)cs1 (chirality)
[H]/N=c1/[n-]c([C@@H]2Cc3[nH]c4cc(Cl)ccc4c3CN2)cs1 (cis-trans isomerization)
[H]/N=c1/[n-]c([C@@H]2Cc3[nH]c4cc(Cl)ccc4c3CN2)cs1 (3D coordinates assigned)
[H]/N=c1/[n-]c([C@@H]2Cc3[nH]c4cc(Cl)ccc4c3CN2)cs1 (nonaromatic ring conformer: 104.50703299558934 kcal/mol)

>  <smiles>  (11) 
N=c1[nH]c(C2Cc3[nH]c4cc(Cl)ccc4c3CN2)cs1

>  <score_type>  (11) 
oracle

>  <origin>  (11) 
adg

>  <m_score__min__energy>  (11) 
-10.49

>  <m_primary>  (11) 
energy

$$$$
11:0
     RDKit          3D

 39 40  0  0  0  0  0  0  0  0999 V2000
   59.5650   33.0580   46.1800 C   0  0  0  0  0  0  0  0  0  0  0  0
   58.2880   32.7410   45.4430 C   0  0  0  0  0  0  0  0  0  0  0  0
   57.6870   33.7790   44.5280 C   0  0  0  0  0  0  0  0  0  0  0  0
   57.7200   31.5290   45.6350 C   0  0  0  0  0  0  0  0  0  0  0  0
   57.6980   30.4050   44.6260 C   0  0  0  0  0  0  0  0  0  0  0  0
   57.8980   29.0870   45.3380 C   0  0  0  0  0  0  0  0  0  0  0  0
   59.1900   28.6850   45.7280 C   0  0  0  0  0  0  0  0  0  0  0  0
   60.2770   29.5390   45.5410 O   0  0  0  0  0  0  0  0  0  0  0  0
   59.3890   27.4230   46.2990 C   0  0  0  0  0  0  0  0  0  0  0  0
   58.3230   26.5340   46.4420 C   0  0  0  0  0  0  0  0  0  0  0  0
   58.5650   25.2670   46.9640 O   0  0  0  0  0  0  0  0  0  0  0  0
   57.0290   26.9080   46.0360 C   0  0  0  0  0  0  0  0  0  0  0  0
   55.9160   25.9290   46.0980 C   0  0  0  0  0  0  0  0  0  0  0  0
   54.7290   26.3350   45.9950 O   0  0  0  0  0  0  0  0  0  0  0  0
   56.1540   24.5200   46.2380 N   0  0  0  0  0  0  0  0  0  0  0  0
   56.4330   23.5990   45.1730 C   0  0  0  0  0  0  0  0  0  0  0  0
   55.6940   23.6960   43.9860 C   0  0  0  0  0  0  0  0  0  0  0  0
   55.9690   22.8470   42.9100 C   0  0  0  0  0  0  0  0  0  0  0  0
   56.9740   21.8830   43.0180 C   0  0  0  0  0  0  0  0  0  0  0  0
   57.6910   21.7520   44.2100 C   0  0  0  0  0  0  0  0  0  0  0  0
   57.4170   22.5970   45.2920 C   0  0  0  0  0  0  0  0  0  0  0  0
   58.0810   22.4040   46.4590 F   0  0  0  0  0  0  0  0  0  0  0  0
   56.8140   28.2070   45.5330 C   0  0  0  0  0  0  0  0  0  0  0  0
   55.5200   28.6290   45.2430 O   0  0  0  0  0  0  0  0  0  0  0  0
   59.3836   33.0130   47.2640 H   0  0  0  0  0  0  0  0  0  0  0  0
   60.3378   32.3244   45.9068 H   0  0  0  0  0  0  0  0  0  0  0  0
   59.9050   34.0678   45.9068 H   0  0  0  0  0  0  0  0  0  0  0  0
   57.2257   34.5756   45.1302 H   0  0  0  0  0  0  0  0  0  0  0  0
   58.4758   34.2091   43.8933 H   0  0  0  0  0  0  0  0  0  0  0  0
   56.9213   33.3091   43.8933 H   0  0  0  0  0  0  0  0  0  0  0  0
   57.2344   31.3467   46.6050 H   0  0  0  0  0  0  0  0  0  0  0  0
   56.7288   30.3977   44.1059 H   0  0  0  0  0  0  0  0  0  0  0  0
   58.5052   30.5530   43.8936 H   0  0  0  0  0  0  0  0  0  0  0  0
   61.1330   29.4350   46.0750 H   0  0  0  0  0  0  0  0  0  0  0  0
   60.3936   27.1295   46.6377 H   0  0  0  0  0  0  0  0  0  0  0  0
   54.8927   24.4448   43.9006 H   0  0  0  0  0  0  0  0  0  0  0  0
   55.3933   22.9382   41.9772 H   0  0  0  0  0  0  0  0  0  0  0  0
   57.2009   21.2270   42.1647 H   0  0  0  0  0  0  0  0  0  0  0  0
   58.4726   20.9831   44.2985 H   0  0  0  0  0  0  0  0  0  0  0  0
  1  2  1  0
  2  3  1  0
  2  4  2  3
  4  5  1  0
  5  6  1  0
  6  7  2  0
  7  8  1  0
  7  9  1  0
  9 10  2  0
 10 11  1  0
 10 12  1  0
 12 13  1  0
 13 14  2  0
 13 15  1  0
 15 16  1  0
 16 17  2  0
 17 18  1  0
 18 19  2  0
 19 20  1  0
 20 21  2  0
 21 22  1  0
 12 23  2  0
 23 24  1  0
 23  6  1  0
 21 16  1  0
  1 25  1  0
  1 26  1  0
  1 27  1  0
  3 28  1  0
  3 29  1  0
  3 30  1  0
  4 31  1  0
  5 32  1  0
  5 33  1  0
  8 34  1  0
  9 35  1  0
 17 36  1  0
 18 37  1  0
 19 38  1  0
 20 39  1  0
M  CHG  3  11  -1  15  -1  24  -1
M  END
>  <UniqueID>  (12) 
11

>  <SMILES>  (12) 
CC(C)=CCc1c(O)cc([O-])c(C(=O)[N-]c2ccccc2F)c1[O-]

>  <Energy>  (12) 
45.11657584586173

>  <Genealogy>  (12) 
CC(C)=CCc1c(O)cc([O-])c(C(=O)[N-]c2ccccc2F)c1[O-] (protonated)
CC(C)=CCc1c(O)cc([O-])c(C(=O)[N-]c2ccccc2F)c1[O-] (3D coordinates assigned)
CC(C)=CCc1c(O)cc([O-])c(C(=O)[N-]c2ccccc2F)c1[O-] (optimized conformer: 45.11657584586173 kcal/mol)

>  <smiles>  (12) 
CC(C)=CCc1c(O)cc(O)c(C(=O)Nc2ccccc2F)c1O

>  <score_type>  (12) 
oracle

>  <origin>  (12) 
adg

>  <m_score__min__energy>  (12) 
-13.789999999999999

>  <m_primary>  (12) 
energy

$$$$
12:0
     RDKit          3D

 48 51  0  0  0  0  0  0  0  0999 V2000
   55.1730   29.3320   44.8740 N   0  0  0  0  0  0  0  0  0  0  0  0
   56.4120   29.6660   44.2530 C   0  0  0  0  0  0  0  0  0  0  0  0
   56.4110   30.1940   43.1110 O   0  0  0  0  0  0  0  0  0  0  0  0
   57.6770   29.3400   44.9340 C   0  0  0  0  0  0  0  0  0  0  0  0
   58.6010   30.2750   45.2230 N   0  0  0  0  0  0  0  0  0  0  0  0
   59.5360   29.6020   45.9270 C   0  0  0  0  0  0  0  0  0  0  0  0
   60.6000   30.1540   46.4340 N   0  0  0  0  0  0  0  0  0  0  0  0
   61.0100   30.1240   47.8110 C   0  0  0  0  0  0  0  0  0  0  0  0
   60.5320   29.1580   48.7110 C   0  0  0  0  0  0  0  0  0  0  0  0
   60.9500   29.2200   50.0390 C   0  0  0  0  0  0  0  0  0  0  0  0
   61.7840   30.2120   50.4420 N   0  0  0  0  0  0  0  0  0  0  0  0
   62.2220   31.1590   49.5680 C   0  0  0  0  0  0  0  0  0  0  0  0
   63.0090   32.1150   49.9580 N   0  0  0  0  0  0  0  0  0  0  0  0
   63.0420   33.6910   49.2340 S   0  0  0  0  0  0  0  0  0  0  0  0
   63.1030   34.7360   50.3130 O   0  0  0  0  0  0  0  0  0  0  0  0
   64.2700   33.8160   48.3760 O   0  0  0  0  0  0  0  0  0  0  0  0
   61.6140   33.9130   48.2270 C   0  0  0  0  0  0  0  0  0  0  0  0
   60.3830   34.2130   48.8250 C   0  0  0  0  0  0  0  0  0  0  0  0
   59.2470   34.4100   48.0330 C   0  0  0  0  0  0  0  0  0  0  0  0
   59.3370   34.3120   46.6420 C   0  0  0  0  0  0  0  0  0  0  0  0
   60.5650   34.0160   46.0410 C   0  0  0  0  0  0  0  0  0  0  0  0
   61.7020   33.8180   46.8300 C   0  0  0  0  0  0  0  0  0  0  0  0
   61.8250   31.1100   48.2690 N   0  0  0  0  0  0  0  0  0  0  0  0
   59.2520   28.2980   46.1150 N   0  0  0  0  0  0  0  0  0  0  0  0
   58.0810   28.1270   45.4740 C   0  0  0  0  0  0  0  0  0  0  0  0
   57.4240   26.8130   45.3680 C   0  0  0  0  0  0  0  0  0  0  0  0
   56.1930   26.7250   45.6250 O   0  0  0  0  0  0  0  0  0  0  0  0
   58.1880   25.6300   45.0890 N   0  0  0  0  0  0  0  0  0  0  0  0
   57.6150   24.3900   44.6400 C   0  0  0  0  0  0  0  0  0  0  0  0
   57.8320   23.1860   45.3340 C   0  0  0  0  0  0  0  0  0  0  0  0
   57.2420   21.9980   44.8910 C   0  0  0  0  0  0  0  0  0  0  0  0
   56.4210   22.0040   43.7600 C   0  0  0  0  0  0  0  0  0  0  0  0
   56.1840   23.1990   43.0760 C   0  0  0  0  0  0  0  0  0  0  0  0
   56.7720   24.3880   43.5170 C   0  0  0  0  0  0  0  0  0  0  0  0
   55.1340   28.6340   45.6510 H   0  0  0  0  0  0  0  0  0  0  0  0
   59.8426   28.3694   48.3751 H   0  0  0  0  0  0  0  0  0  0  0  0
   60.6041   28.4651   50.7604 H   0  0  0  0  0  0  0  0  0  0  0  0
   60.3097   34.2938   49.9196 H   0  0  0  0  0  0  0  0  0  0  0  0
   58.2814   34.6424   48.5059 H   0  0  0  0  0  0  0  0  0  0  0  0
   58.4430   34.4675   46.0202 H   0  0  0  0  0  0  0  0  0  0  0  0
   60.6361   33.9389   44.9460 H   0  0  0  0  0  0  0  0  0  0  0  0
   62.6669   33.5874   46.3549 H   0  0  0  0  0  0  0  0  0  0  0  0
   59.2090   25.6500   45.3120 H   0  0  0  0  0  0  0  0  0  0  0  0
   58.4695   23.1788   46.2304 H   0  0  0  0  0  0  0  0  0  0  0  0
   57.4242   21.0583   45.4330 H   0  0  0  0  0  0  0  0  0  0  0  0
   55.9616   21.0683   43.4085 H   0  0  0  0  0  0  0  0  0  0  0  0
   55.5336   23.2042   42.1889 H   0  0  0  0  0  0  0  0  0  0  0  0
   56.5731   25.3278   42.9811 H   0  0  0  0  0  0  0  0  0  0  0  0
  1  2  1  0
  2  3  2  0
  2  4  1  0
  4  5  1  0
  5  6  1  0
  6  7  2  3
  7  8  1  0
  8  9  1  0
  9 10  2  0
 10 11  1  0
 11 12  1  0
 12 13  2  3
 13 14  1  0
 14 15  2  0
 14 16  2  0
 14 17  1  0
 17 18  2  0
 18 19  1  0
 19 20  2  0
 20 21  1  0
 21 22  2  0
 12 23  1  0
  6 24  1  0
 24 25  1  0
 25 26  1  0
 26 27  2  0
 26 28  1  0
 28 29  1  0
 29 30  2  0
 30 31  1  0
 31 32  2  0
 32 33  1  0
 33 34  2  0
 25  4  2  0
 34 29  1  0
 23  8  2  0
 22 17  1  0
  1 35  1  0
  9 36  1  0
 10 37  1  0
 18 38  1  0
 19 39  1  0
 20 40  1  0
 21 41  1  0
 22 42  1  0
 28 43  1  0
 30 44  1  0
 31 45  1  0
 32 46  1  0
 33 47  1  0
 34 48  1  0
M  CHG  4   1  -1   5  -1  11  -1  24  -1
M  END
>  <UniqueID>  (13) 
12

>  <SMILES>  (13) 
[NH-]C(=O)c1[n-]c(=Nc2cc[n-]c(=NS(=O)(=O)c3ccccc3)n2)[n-]c1C(=O)Nc1ccccc1

>  <Energy>  (13) 
97.05706411617619

>  <Genealogy>  (13) 
[NH-]C(=O)c1[n-]c(=Nc2cc[n-]c(=NS(=O)(=O)c3ccccc3)n2)[n-]c1C(=O)Nc1ccccc1 (protonated)
[NH-]C(=O)c1[n-]c(=Nc2cc[n-]c(=NS(=O)(=O)c3ccccc3)n2)[n-]c1C(=O)Nc1ccccc1 (3D coordinates assigned)
[NH-]C(=O)c1[n-]c(=Nc2cc[n-]c(=NS(=O)(=O)c3ccccc3)n2)[n-]c1C(=O)Nc1ccccc1 (optimized conformer: 97.05706411617619 kcal/mol)

>  <smiles>  (13) 
NC(=O)c1[nH]c(=Nc2cc[nH]c(=NS(=O)(=O)c3ccccc3)n2)[nH]c1C(=O)Nc1ccccc1

>  <score_type>  (13) 
oracle

>  <origin>  (13) 
adg

>  <m_score__min__energy>  (13) 
-15.27

>  <m_primary>  (13) 
energy

$$$$
13:0
     RDKit          3D

 66 69  0  0  0  0  0  0  0  0999 V2000
   61.2980   29.2580   50.5530 C   0  0  0  0  0  0  0  0  0  0  0  0
   59.9920   28.9510   50.0760 O   0  0  0  0  0  0  0  0  0  0  0  0
   59.4280   29.4780   48.9040 C   0  0  0  0  0  0  0  0  0  0  0  0
   59.0610   28.6540   47.8170 C   0  0  0  0  0  0  0  0  0  0  0  0
   58.5330   29.2560   46.6670 C   0  0  0  0  0  0  0  0  0  0  0  0
   58.3460   30.6110   46.5890 C   0  0  0  0  0  0  0  0  0  0  0  0
   58.6760   31.4500   47.6590 C   0  0  0  0  0  0  0  0  0  0  0  0
   59.2200   30.8760   48.8200 C   0  0  0  0  0  0  0  0  0  0  0  0
   59.5330   31.7150   49.9310 N   0  0  0  0  0  0  0  0  0  0  0  0
   60.2190   33.2840   49.6860 S   0  0  0  0  0  0  0  0  0  0  0  0
   59.7370   33.8340   48.3730 O   0  0  0  0  0  0  0  0  0  0  0  0
   59.7720   34.2090   50.7830 O   0  0  0  0  0  0  0  0  0  0  0  0
   61.9750   33.1710   49.6680 C   0  0  0  0  0  0  0  0  0  0  0  0
   62.6830   33.4180   48.4840 C   0  0  0  0  0  0  0  0  0  0  0  0
   64.0810   33.3880   48.4810 C   0  0  0  0  0  0  0  0  0  0  0  0
   64.7880   33.0940   49.6560 C   0  0  0  0  0  0  0  0  0  0  0  0
   66.2260   33.0980   49.6350 N   0  0  0  0  0  0  0  0  0  0  0  0
   67.0450   33.6420   50.6820 C   0  0  0  0  0  0  0  0  0  0  0  0
   68.5200   33.7680   50.4830 C   0  0  0  0  0  0  0  0  0  0  0  0
   66.5330   34.0200   51.7690 O   0  0  0  0  0  0  0  0  0  0  0  0
   64.0740   32.8700   50.8470 C   0  0  0  0  0  0  0  0  0  0  0  0
   62.6770   32.9050   50.8500 C   0  0  0  0  0  0  0  0  0  0  0  0
   57.7720   30.8900   45.3520 C   0  0  0  0  0  0  0  0  0  0  0  0
   57.6300   29.6350   44.7210 C   0  0  0  0  0  0  0  0  0  0  0  0
   58.0980   28.6510   45.5410 N   0  0  0  0  0  0  0  0  0  0  0  0
   58.1500   27.2400   45.2610 C   0  0  0  0  0  0  0  0  0  0  0  0
   58.4290   26.8400   44.0990 O   0  0  0  0  0  0  0  0  0  0  0  0
   57.9010   26.3240   46.2950 O   0  0  0  0  0  0  0  0  0  0  0  0
   57.1420   25.1110   46.1950 C   0  0  0  0  0  0  0  0  0  0  0  0
   57.9110   24.1760   45.2500 C   0  0  0  0  0  0  0  0  0  0  0  0
   55.7490   25.3890   45.5970 C   0  0  0  0  0  0  0  0  0  0  0  0
   57.0180   24.4350   47.5740 C   0  0  0  0  0  0  0  0  0  0  0  0
   57.0610   29.3220   43.3520 C   0  0  0  0  0  0  0  0  0  0  0  0
   56.4450   30.4920   42.5910 C   0  0  0  0  0  0  0  0  0  0  0  0
   57.4580   31.6090   42.3630 C   0  0  0  0  0  0  0  0  0  0  0  0
   57.3850   32.5700   43.4480 N   0  0  0  0  0  0  0  0  0  0  0  0
   57.4760   32.2570   44.8390 C   0  0  0  0  0  0  0  0  0  0  0  0
   57.3100   33.1970   45.6590 O   0  0  0  0  0  0  0  0  0  0  0  0
   61.2961   29.2576   51.6530 H   0  0  0  0  0  0  0  0  0  0  0  0
   62.0089   28.5025   50.1873 H   0  0  0  0  0  0  0  0  0  0  0  0
   61.5979   30.2511   50.1873 H   0  0  0  0  0  0  0  0  0  0  0  0
   59.1870   27.5626   47.8721 H   0  0  0  0  0  0  0  0  0  0  0  0
   58.5129   32.5358   47.5925 H   0  0  0  0  0  0  0  0  0  0  0  0
   62.1373   33.6361   47.5542 H   0  0  0  0  0  0  0  0  0  0  0  0
   64.6299   33.5964   47.5508 H   0  0  0  0  0  0  0  0  0  0  0  0
   66.7060   32.6050   48.8460 H   0  0  0  0  0  0  0  0  0  0  0  0
   69.0197   33.8107   51.4620 H   0  0  0  0  0  0  0  0  0  0  0  0
   68.8897   32.8982   49.9202 H   0  0  0  0  0  0  0  0  0  0  0  0
   68.7368   34.6879   49.9202 H   0  0  0  0  0  0  0  0  0  0  0  0
   64.6182   32.6662   51.7810 H   0  0  0  0  0  0  0  0  0  0  0  0
   62.1265   32.7228   51.7848 H   0  0  0  0  0  0  0  0  0  0  0  0
   58.5000   23.4599   45.8419 H   0  0  0  0  0  0  0  0  0  0  0  0
   57.1983   23.6287   44.6156 H   0  0  0  0  0  0  0  0  0  0  0  0
   58.5856   24.7697   44.6156 H   0  0  0  0  0  0  0  0  0  0  0  0
   55.0230   25.5339   46.4106 H   0  0  0  0  0  0  0  0  0  0  0  0
   55.7907   26.2965   44.9768 H   0  0  0  0  0  0  0  0  0  0  0  0
   55.4391   24.5350   44.9768 H   0  0  0  0  0  0  0  0  0  0  0  0
   57.1560   25.1871   48.3648 H   0  0  0  0  0  0  0  0  0  0  0  0
   56.0214   23.9797   47.6709 H   0  0  0  0  0  0  0  0  0  0  0  0
   57.7882   23.6556   47.6709 H   0  0  0  0  0  0  0  0  0  0  0  0
   57.8758   28.9137   42.7361 H   0  0  0  0  0  0  0  0  0  0  0  0
   56.2323   28.6215   43.5326 H   0  0  0  0  0  0  0  0  0  0  0  0
   56.0838   30.1331   41.6159 H   0  0  0  0  0  0  0  0  0  0  0  0
   55.6171   30.8958   43.1922 H   0  0  0  0  0  0  0  0  0  0  0  0
   58.4704   31.1807   42.3224 H   0  0  0  0  0  0  0  0  0  0  0  0
   57.2309   32.1161   41.4137 H   0  0  0  0  0  0  0  0  0  0  0  0
  1  2  1  0
  2  3  1  0
  3  4  2  0
  4  5  1  0
  5  6  2  0
  6  7  1  0
  7  8  2  0
  8  9  1  0
  9 10  1  0
 10 11  2  0
 10 12  2  0
 10 13  1  0
 13 14  2  0
 14 15  1  0
 15 16  2  0
 16 17  1  0
 17 18  1  0
 18 19  1  0
 18 20  2  0
 16 21  1  0
 21 22  2  0
  6 23  1  0
 23 24  2  0
 24 25  1  0
 25 26  1  0
 26 27  2  0
 26 28  1  0
 28 29  1  0
 29 30  1  0
 29 31  1  0
 29 32  1  0
 24 33  1  0
 33 34  1  0
 34 35  1  0
 35 36  1  0
 36 37  1  0
 37 38  2  0
  8  3  1  0
 22 13  1  0
 37 23  1  0
 25  5  1  0
  1 39  1  0
  1 40  1  0
  1 41  1  0
  4 42  1  0
  7 43  1  0
 14 44  1  0
 15 45  1  0
 17 46  1  0
 19 47  1  0
 19 48  1  0
 19 49  1  0
 21 50  1  0
 22 51  1  0
 30 52  1  0
 30 53  1  0
 30 54  1  0
 31 55  1  0
 31 56  1  0
 31 57  1  0
 32 58  1  0
 32 59  1  0
 32 60  1  0
 33 61  1  0
 33 62  1  0
 34 63  1  0
 34 64  1  0
 35 65  1  0
 35 66  1  0
M  CHG  2   9  -1  36  -1
M  END
>  <UniqueID>  (14) 
13

>  <SMILES>  (14) 
COc1cc2c(cc1[N-]S(=O)(=O)c1ccc(NC(C)=O)cc1)c1c(n2C(=O)OC(C)(C)C)CCC[N-]C1=O

>  <Energy>  (14) 
116.39569794355272

>  <Genealogy>  (14) 
COc1cc2c(cc1[N-]S(=O)(=O)c1ccc(NC(C)=O)cc1)c1c(n2C(=O)OC(C)(C)C)CCC[N-]C1=O (protonated)
COc1cc2c(cc1[N-]S(=O)(=O)c1ccc(NC(C)=O)cc1)c1c(n2C(=O)OC(C)(C)C)CCC[N-]C1=O (3D coordinates assigned)
COc1cc2c(cc1[N-]S(=O)(=O)c1ccc(NC(C)=O)cc1)c1c(n2C(=O)OC(C)(C)C)CCC[N-]C1=O (nonaromatic ring conformer: 116.39569794355272 kcal/mol)

>  <smiles>  (14) 
COc1cc2c(cc1NS(=O)(=O)c1ccc(NC(C)=O)cc1)c1c(n2C(=O)OC(C)(C)C)CCCNC1=O

>  <score_type>  (14) 
oracle

>  <origin>  (14) 
adg

>  <m_score__min__energy>  (14) 
-8.5999999999999996

>  <m_primary>  (14) 
energy

$$$$
14:0
     RDKit          3D

 39 41  0  0  0  0  0  0  0  0999 V2000
   58.9670   28.8630   45.0050 O   0  0  0  0  0  0  0  0  0  0  0  0
   57.7920   28.8570   45.4680 C   0  0  0  0  0  0  0  0  0  0  0  0
   57.0420   30.0810   45.5380 N   0  0  0  0  0  0  0  0  0  0  0  0
   57.6260   31.3890   45.4100 C   0  0  0  0  0  0  0  0  0  0  0  0
   57.5220   32.1260   44.2170 C   0  0  0  0  0  0  0  0  0  0  0  0
   58.1180   33.3840   44.1120 C   0  0  0  0  0  0  0  0  0  0  0  0
   58.8350   33.9130   45.1870 C   0  0  0  0  0  0  0  0  0  0  0  0
   58.9750   33.1780   46.3720 C   0  0  0  0  0  0  0  0  0  0  0  0
   59.8880   33.8430   47.7310 S   0  0  0  0  0  0  0  0  0  0  0  0
   59.1320   33.5820   49.0040 O   0  0  0  0  0  0  0  0  0  0  0  0
   60.0070   35.3320   47.5580 O   0  0  0  0  0  0  0  0  0  0  0  0
   61.4910   33.1600   47.8720 N   0  0  0  0  0  0  0  0  0  0  0  0
   62.2010   33.6600   49.0480 C   0  0  0  0  0  0  0  0  0  0  0  0
   63.6840   33.5330   48.7400 C   0  0  0  0  0  0  0  0  0  0  0  0
   63.7730   33.4250   47.2240 C   0  0  0  0  0  0  0  0  0  0  0  0
   62.3360   33.5000   46.7310 C   0  0  0  0  0  0  0  0  0  0  0  0
   58.3670   31.9180   46.4780 C   0  0  0  0  0  0  0  0  0  0  0  0
   57.1810   27.5800   45.8990 C   0  0  0  0  0  0  0  0  0  0  0  0
   57.9280   26.6170   46.5950 C   0  0  0  0  0  0  0  0  0  0  0  0
   57.2970   25.4320   46.9810 C   0  0  0  0  0  0  0  0  0  0  0  0
   57.9390   24.5480   47.6050 O   0  0  0  0  0  0  0  0  0  0  0  0
   55.9870   25.2340   46.6840 N   0  0  0  0  0  0  0  0  0  0  0  0
   55.2750   26.1750   46.0120 C   0  0  0  0  0  0  0  0  0  0  0  0
   54.0620   25.9730   45.7460 O   0  0  0  0  0  0  0  0  0  0  0  0
   55.8700   27.3330   45.6280 N   0  0  0  0  0  0  0  0  0  0  0  0
   55.9990   30.0190   45.5950 H   0  0  0  0  0  0  0  0  0  0  0  0
   56.9685   31.7094   43.3626 H   0  0  0  0  0  0  0  0  0  0  0  0
   58.0225   33.9601   43.1798 H   0  0  0  0  0  0  0  0  0  0  0  0
   59.2916   34.9103   45.1035 H   0  0  0  0  0  0  0  0  0  0  0  0
   61.9393   34.7126   49.2314 H   0  0  0  0  0  0  0  0  0  0  0  0
   61.9306   33.0902   49.9492 H   0  0  0  0  0  0  0  0  0  0  0  0
   64.2285   34.4202   49.0955 H   0  0  0  0  0  0  0  0  0  0  0  0
   64.1330   32.6620   49.2397 H   0  0  0  0  0  0  0  0  0  0  0  0
   64.3653   34.2557   46.8127 H   0  0  0  0  0  0  0  0  0  0  0  0
   64.2670   32.4945   46.9075 H   0  0  0  0  0  0  0  0  0  0  0  0
   62.1075   34.5163   46.3777 H   0  0  0  0  0  0  0  0  0  0  0  0
   62.1664   32.8118   45.8898 H   0  0  0  0  0  0  0  0  0  0  0  0
   58.4722   31.3391   47.4074 H   0  0  0  0  0  0  0  0  0  0  0  0
   58.9880   26.7917   46.8316 H   0  0  0  0  0  0  0  0  0  0  0  0
  1  2  2  0
  2  3  1  0
  3  4  1  0
  4  5  2  0
  5  6  1  0
  6  7  2  0
  7  8  1  0
  8  9  1  0
  9 10  2  0
  9 11  2  0
  9 12  1  0
 12 13  1  0
 13 14  1  0
 14 15  1  0
 15 16  1  0
  8 17  2  0
  2 18  1  0
 18 19  2  0
 19 20  1  0
 20 21  2  0
 20 22  1  0
 22 23  1  0
 23 24  2  0
 23 25  1  0
 17  4  1  0
 25 18  1  0
 16 12  1  0
  3 26  1  0
  5 27  1  0
  6 28  1  0
  7 29  1  0
 13 30  1  0
 13 31  1  0
 14 32  1  0
 14 33  1  0
 15 34  1  0
 15 35  1  0
 16 36  1  0
 16 37  1  0
 17 38  1  0
 19 39  1  0
M  CHG  2  22  -1  25  -1
M  END
>  <UniqueID>  (15) 
14

>  <SMILES>  (15) 
O=C(Nc1cccc(S(=O)(=O)N2CCCC2)c1)c1cc(=O)[n-]c(=O)[n-]1

>  <Energy>  (15) 
46.50334858858814

>  <Genealogy>  (15) 
O=C(Nc1cccc(S(=O)(=O)N2CCCC2)c1)c1cc(=O)[n-]c(=O)[n-]1 (protonated)
O=C(Nc1cccc(S(=O)(=O)N2CCCC2)c1)c1cc(=O)[n-]c(=O)[n-]1 (3D coordinates assigned)
O=C(Nc1cccc(S(=O)(=O)N2CCCC2)c1)c1cc(=O)[n-]c(=O)[n-]1 (nonaromatic ring conformer: 46.50334858858814 kcal/mol)

>  <smiles>  (15) 
O=C(Nc1cccc(S(=O)(=O)N2CCCC2)c1)c1cc(=O)[nH]c(=O)[nH]1

>  <score_type>  (15) 
oracle

>  <origin>  (15) 
adg

>  <m_score__min__energy>  (15) 
-13.199999999999999

>  <m_primary>  (15) 
energy

$$$$
15:0
     RDKit          3D

 32 33  0  0  0  0  0  0  0  0999 V2000
   60.4950   30.4250   46.4200 C   0  0  0  0  0  0  0  0  0  0  0  0
   60.5820   29.0210   45.2660 S   0  0  0  0  0  0  0  0  0  0  0  0
   59.2400   27.9060   45.7350 C   0  0  0  0  0  0  0  0  0  0  0  0
   59.4800   26.9680   46.6960 C   0  0  0  0  0  0  0  0  0  0  0  0
   58.5250   26.0650   47.1300 C   0  0  0  0  0  0  0  0  0  0  0  0
   57.2870   26.1470   46.5410 C   0  0  0  0  0  0  0  0  0  0  0  0
   57.0440   27.1080   45.5570 C   0  0  0  0  0  0  0  0  0  0  0  0
   57.9940   27.9980   45.1340 C   0  0  0  0  0  0  0  0  0  0  0  0
   57.8210   28.9880   44.1510 N   0  0  0  0  0  0  0  0  0  0  0  0
   56.7540   29.9110   44.0730 C   0  0  0  0  0  0  0  0  0  0  0  0
   55.8130   29.9560   44.8930 O   0  0  0  0  0  0  0  0  0  0  0  0
   56.6980   30.9230   42.9570 C   0  0  0  0  0  0  0  0  0  0  0  0
   58.1550   32.0090   43.1690 S   0  0  0  0  0  0  0  0  0  0  0  0
   58.0640   32.8460   44.7440 C   0  0  0  0  0  0  0  0  0  0  0  0
   58.9160   33.7640   45.2150 N   0  0  0  0  0  0  0  0  0  0  0  0
   58.4610   34.1270   46.4460 C   0  0  0  0  0  0  0  0  0  0  0  0
   58.9990   34.9930   47.2400 N   0  0  0  0  0  0  0  0  0  0  0  0
   57.3350   33.4060   46.6820 N   0  0  0  0  0  0  0  0  0  0  0  0
   57.0790   32.6210   45.6560 N   0  0  0  0  0  0  0  0  0  0  0  0
   60.5181   30.0514   47.4544 H   0  0  0  0  0  0  0  0  0  0  0  0
   61.3536   31.0917   46.2517 H   0  0  0  0  0  0  0  0  0  0  0  0
   59.5607   30.9806   46.2517 H   0  0  0  0  0  0  0  0  0  0  0  0
   60.4819   26.9273   47.1483 H   0  0  0  0  0  0  0  0  0  0  0  0
   58.7465   25.3191   47.9076 H   0  0  0  0  0  0  0  0  0  0  0  0
   56.4868   25.4558   46.8442 H   0  0  0  0  0  0  0  0  0  0  0  0
   56.0438   27.1516   45.1013 H   0  0  0  0  0  0  0  0  0  0  0  0
   58.5460   29.0760   43.3770 H   0  0  0  0  0  0  0  0  0  0  0  0
   56.7403   30.4162   41.9816 H   0  0  0  0  0  0  0  0  0  0  0  0
   55.7625   31.5007   42.9898 H   0  0  0  0  0  0  0  0  0  0  0  0
   58.6720   35.9610   47.3250 H   0  0  0  0  0  0  0  0  0  0  0  0
   56.7260   33.4410   47.5480 H   0  0  0  0  0  0  0  0  0  0  0  0
   56.2700   31.9640   45.5830 H   0  0  0  0  0  0  0  0  0  0  0  0
  1  2  1  0
  2  3  1  0
  3  4  2  0
  4  5  1  0
  5  6  2  0
  6  7  1  0
  7  8  2  0
  8  9  1  0
  9 10  1  0
 10 11  2  0
 10 12  1  0
 12 13  1  0
 13 14  1  0
 14 15  2  0
 15 16  1  0
 16 17  2  3
 16 18  1  0
 18 19  1  0
  8  3  1  0
 19 14  1  0
  1 20  1  0
  1 21  1  0
  1 22  1  0
  4 23  1  0
  5 24  1  0
  6 25  1  0
  7 26  1  0
  9 27  1  0
 12 28  1  0
 12 29  1  0
 17 30  1  0
 18 31  1  0
 19 32  1  0
M  END
>  <smiles>  (16) 
CSc1ccccc1NC(=O)CSc1nc(=N)[nH][nH]1

>  <score_type>  (16) 
oracle

>  <origin>  (16) 
adg

>  <m_score__min__energy>  (16) 
-7.0300000000000002

>  <m_primary>  (16) 
energy

$$$$
16:0
     RDKit          3D

 77 81  0  0  0  0  0  0  0  0999 V2000
   57.4820   32.2890   41.4000 C   0  0  0  0  0  0  0  0  0  0  0  0
   57.7210   32.5530   42.7680 O   0  0  0  0  0  0  0  0  0  0  0  0
   58.2390   31.3910   43.3800 C   0  0  0  0  0  0  0  0  0  0  0  0
   57.2970   30.9270   44.4910 C   0  0  0  0  0  0  0  0  0  0  0  0
   56.5770   29.3300   44.1300 S   0  0  0  0  0  0  0  0  0  0  0  0
   55.0870   29.3680   44.3120 O   0  0  0  0  0  0  0  0  0  0  0  0
   56.8880   28.9520   42.7100 O   0  0  0  0  0  0  0  0  0  0  0  0
   57.2710   28.1560   45.2420 C   0  0  0  0  0  0  0  0  0  0  0  0
   57.7630   28.5940   46.4750 C   0  0  0  0  0  0  0  0  0  0  0  0
   58.4680   27.7210   47.3060 C   0  0  0  0  0  0  0  0  0  0  0  0
   59.0960   28.2330   48.4840 N   0  0  0  0  0  0  0  0  0  0  0  0
   58.9250   29.5920   48.8960 C   0  0  0  0  0  0  0  0  0  0  0  0
   58.4650   30.4400   48.0850 O   0  0  0  0  0  0  0  0  0  0  0  0
   59.1510   29.9430   50.2630 N   0  0  0  0  0  0  0  0  0  0  0  0
   60.3080   29.5490   51.0130 C   0  0  0  0  0  0  0  0  0  0  0  0
   60.9430   30.4980   51.8240 C   0  0  0  0  0  0  0  0  0  0  0  0
   62.1680   30.2010   52.4300 C   0  0  0  0  0  0  0  0  0  0  0  0
   62.7680   28.9530   52.2230 C   0  0  0  0  0  0  0  0  0  0  0  0
   64.0600   28.7240   52.7120 O   0  0  0  0  0  0  0  0  0  0  0  0
   65.2210   29.3190   52.1860 C   0  0  0  0  0  0  0  0  0  0  0  0
   66.4630   28.8090   52.5690 C   0  0  0  0  0  0  0  0  0  0  0  0
   67.6310   29.4160   52.1050 C   0  0  0  0  0  0  0  0  0  0  0  0
   67.5600   30.5040   51.2910 N   0  0  0  0  0  0  0  0  0  0  0  0
   66.3730   31.0430   50.8980 C   0  0  0  0  0  0  0  0  0  0  0  0
   66.3950   32.0900   50.1130 N   0  0  0  0  0  0  0  0  0  0  0  0
   65.5620   33.2620   50.1670 C   0  0  0  0  0  0  0  0  0  0  0  0
   65.9480   34.2400   50.8610 O   0  0  0  0  0  0  0  0  0  0  0  0
   64.2420   33.3300   49.4940 C   0  0  0  0  0  0  0  0  0  0  0  0
   63.0700   33.4740   50.2500 C   0  0  0  0  0  0  0  0  0  0  0  0
   61.8330   33.5980   49.6160 C   0  0  0  0  0  0  0  0  0  0  0  0
   61.7660   33.5750   48.2100 C   0  0  0  0  0  0  0  0  0  0  0  0
   60.5110   33.7350   47.5030 N   0  0  0  0  0  0  0  0  0  0  0  0
   59.3110   33.1240   48.1010 C   0  0  0  0  0  0  0  0  0  0  0  0
   58.0330   33.4710   47.3320 C   0  0  0  0  0  0  0  0  0  0  0  0
   58.2450   33.3540   45.9410 O   0  0  0  0  0  0  0  0  0  0  0  0
   59.1010   34.3940   45.5300 C   0  0  0  0  0  0  0  0  0  0  0  0
   60.5120   34.2110   46.1040 C   0  0  0  0  0  0  0  0  0  0  0  0
   62.9190   33.3940   47.5010 N   0  0  0  0  0  0  0  0  0  0  0  0
   64.1330   33.2670   48.0980 C   0  0  0  0  0  0  0  0  0  0  0  0
   65.1750   30.4360   51.3260 C   0  0  0  0  0  0  0  0  0  0  0  0
   62.0780   27.9610   51.5110 C   0  0  0  0  0  0  0  0  0  0  0  0
   60.8560   28.2580   50.9000 C   0  0  0  0  0  0  0  0  0  0  0  0
   58.6310   26.3800   46.9340 C   0  0  0  0  0  0  0  0  0  0  0  0
   58.1220   25.9180   45.7080 C   0  0  0  0  0  0  0  0  0  0  0  0
   58.2510   24.4700   45.3100 C   0  0  0  0  0  0  0  0  0  0  0  0
   57.9480   24.2830   43.9730 F   0  0  0  0  0  0  0  0  0  0  0  0
   59.5500   24.0560   45.5340 F   0  0  0  0  0  0  0  0  0  0  0  0
   57.3900   23.6900   46.0640 F   0  0  0  0  0  0  0  0  0  0  0  0
   57.4350   26.8150   44.8670 C   0  0  0  0  0  0  0  0  0  0  0  0
   56.7464   31.4765   41.3064 H   0  0  0  0  0  0  0  0  0  0  0  0
   57.0910   33.1953   40.9145 H   0  0  0  0  0  0  0  0  0  0  0  0
   58.4226   31.9898   40.9145 H   0  0  0  0  0  0  0  0  0  0  0  0
   58.3365   30.5945   42.6276 H   0  0  0  0  0  0  0  0  0  0  0  0
   59.2256   31.6166   43.8110 H   0  0  0  0  0  0  0  0  0  0  0  0
   57.8631   30.8576   45.4316 H   0  0  0  0  0  0  0  0  0  0  0  0
   56.4800   31.6589   44.5735 H   0  0  0  0  0  0  0  0  0  0  0  0
   57.5936   29.6334   46.7927 H   0  0  0  0  0  0  0  0  0  0  0  0
   60.4763   31.4810   51.9850 H   0  0  0  0  0  0  0  0  0  0  0  0
   62.6604   30.9483   53.0696 H   0  0  0  0  0  0  0  0  0  0  0  0
   66.5206   27.9337   53.2327 H   0  0  0  0  0  0  0  0  0  0  0  0
   68.6119   29.0136   52.3982 H   0  0  0  0  0  0  0  0  0  0  0  0
   63.1258   33.4893   51.3485 H   0  0  0  0  0  0  0  0  0  0  0  0
   60.9154   33.7131   50.2116 H   0  0  0  0  0  0  0  0  0  0  0  0
   59.4355   32.0311   48.1040 H   0  0  0  0  0  0  0  0  0  0  0  0
   59.2061   33.5211   49.1214 H   0  0  0  0  0  0  0  0  0  0  0  0
   57.2302   32.7826   47.6349 H   0  0  0  0  0  0  0  0  0  0  0  0
   57.7501   34.5087   47.5624 H   0  0  0  0  0  0  0  0  0  0  0  0
   59.1584   34.3985   44.4315 H   0  0  0  0  0  0  0  0  0  0  0  0
   58.6949   35.3465   45.9012 H   0  0  0  0  0  0  0  0  0  0  0  0
   61.0495   33.4776   45.4850 H   0  0  0  0  0  0  0  0  0  0  0  0
   61.0012   35.1962   46.0929 H   0  0  0  0  0  0  0  0  0  0  0  0
   65.0328   33.1143   47.4840 H   0  0  0  0  0  0  0  0  0  0  0  0
   64.2057   30.8328   50.9898 H   0  0  0  0  0  0  0  0  0  0  0  0
   62.4989   26.9477   51.4332 H   0  0  0  0  0  0  0  0  0  0  0  0
   60.3229   27.4822   50.3308 H   0  0  0  0  0  0  0  0  0  0  0  0
   59.1594   25.6860   47.6041 H   0  0  0  0  0  0  0  0  0  0  0  0
   57.0245   26.4612   43.9098 H   0  0  0  0  0  0  0  0  0  0  0  0
  1  2  1  0
  2  3  1  0
  3  4  1  0
  4  5  1  0
  5  6  2  0
  5  7  2  0
  5  8  1  0
  8  9  2  0
  9 10  1  0
 10 11  1  0
 11 12  1  0
 12 13  2  0
 12 14  1  0
 14 15  1  0
 15 16  2  0
 16 17  1  0
 17 18  2  0
 18 19  1  0
 19 20  1  0
 20 21  1  0
 21 22  2  0
 22 23  1  0
 23 24  1  0
 24 25  2  3
 25 26  1  0
 26 27  2  0
 26 28  1  0
 28 29  2  0
 29 30  1  0
 30 31  2  0
 31 32  1  0
 32 33  1  0
 33 34  1  0
 34 35  1  0
 35 36  1  0
 36 37  1  0
 31 38  1  0
 38 39  2  0
 24 40  1  0
 18 41  1  0
 41 42  2  0
 10 43  2  0
 43 44  1  0
 44 45  1  0
 45 46  1  0
 45 47  1  0
 45 48  1  0
 44 49  2  0
 49  8  1  0
 42 15  1  0
 40 20  2  0
 39 28  1  0
 37 32  1  0
  1 50  1  0
  1 51  1  0
  1 52  1  0
  3 53  1  0
  3 54  1  0
  4 55  1  0
  4 56  1  0
  9 57  1  0
 16 58  1  0
 17 59  1  0
 21 60  1  0
 22 61  1  0
 29 62  1  0
 30 63  1  0
 33 64  1  0
 33 65  1  0
 34 66  1  0
 34 67  1  0
 36 68  1  0
 36 69  1  0
 37 70  1  0
 37 71  1  0
 39 72  1  0
 40 73  1  0
 41 74  1  0
 42 75  1  0
 43 76  1  0
 49 77  1  0
M  CHG  3  11  -1  14  -1  23  -1
M  END
>  <UniqueID>  (17) 
15

>  <SMILES>  (17) 
COCCS(=O)(=O)c1cc([N-]C(=O)[N-]c2ccc(Oc3cc[n-]c(=NC(=O)c4ccc(N5CCOCC5)nc4)c3)cc2)cc(C(F)(F)F)c1

>  <Energy>  (17) 
110.41794034091944

>  <Genealogy>  (17) 
COCCS(=O)(=O)c1cc([N-]C(=O)[N-]c2ccc(Oc3cc[n-]c(=NC(=O)c4ccc(N5CCOCC5)nc4)c3)cc2)cc(C(F)(F)F)c1 (protonated)
COCCS(=O)(=O)c1cc([N-]C(=O)[N-]c2ccc(Oc3cc[n-]c(=NC(=O)c4ccc(N5CCOCC5)nc4)c3)cc2)cc(C(F)(F)F)c1 (3D coordinates assigned)
COCCS(=O)(=O)c1cc([N-]C(=O)[N-]c2ccc(Oc3cc[n-]c(=NC(=O)c4ccc(N5CCOCC5)nc4)c3)cc2)cc(C(F)(F)F)c1 (nonaromatic ring conformer: 110.41794034091944 kcal/mol)

>  <smiles>  (17) 
COCCS(=O)(=O)c1cc(NC(=O)Nc2ccc(Oc3cc[nH]c(=NC(=O)c4ccc(N5CCOCC5)nc4)c3)cc2)cc(C(F)(F)F)c1

>  <score_type>  (17) 
oracle

>  <origin>  (17) 
adg

>  <m_score__min__energy>  (17) 
-15.529999999999999

>  <m_primary>  (17) 
energy

$$$$
17:0
     RDKit          3D

 67 70  0  0  0  0  0  0  0  0999 V2000
   65.3590   32.2540   50.1210 C   0  0  0  0  0  0  0  0  0  0  0  0
   64.5150   32.9970   49.0900 C   0  0  0  0  0  0  0  0  0  0  0  0
   63.6840   32.0590   48.1990 C   0  0  0  0  0  0  0  0  0  0  0  0
   63.4830   32.5810   46.7610 C   0  0  0  0  0  0  0  0  0  0  0  0
   62.6170   33.8470   46.7030 C   0  0  0  0  0  0  0  0  0  0  0  0
   61.2230   33.5220   47.0430 N   0  0  0  0  0  0  0  0  0  0  0  0
   60.3410   33.1970   46.0440 C   0  0  0  0  0  0  0  0  0  0  0  0
   58.9890   32.9100   46.3300 C   0  0  0  0  0  0  0  0  0  0  0  0
   58.0530   32.5700   45.2420 C   0  0  0  0  0  0  0  0  0  0  0  0
   57.9880   33.3190   44.2320 O   0  0  0  0  0  0  0  0  0  0  0  0
   57.1980   31.4200   45.3060 N   0  0  0  0  0  0  0  0  0  0  0  0
   56.4320   30.8620   44.1940 C   0  0  0  0  0  0  0  0  0  0  0  0
   57.2550   29.8600   43.3690 C   0  0  0  0  0  0  0  0  0  0  0  0
   57.6190   28.5390   44.0900 C   0  0  0  0  0  0  0  0  0  0  0  0
   58.5410   28.6490   45.2440 N   0  0  0  0  0  0  0  0  0  0  0  0
   59.6530   29.6040   45.0810 C   0  0  0  0  0  0  0  0  0  0  0  0
   60.5430   29.6610   46.3410 C   0  0  0  0  0  0  0  0  0  0  0  0
   59.9240   28.9560   47.4740 N   0  0  0  0  0  0  0  0  0  0  0  0
   59.9840   29.5180   48.7970 C   0  0  0  0  0  0  0  0  0  0  0  0
   61.2220   29.7390   49.4260 C   0  0  0  0  0  0  0  0  0  0  0  0
   61.2730   30.2840   50.7110 C   0  0  0  0  0  0  0  0  0  0  0  0
   60.0910   30.6060   51.3830 C   0  0  0  0  0  0  0  0  0  0  0  0
   58.8540   30.3810   50.7720 C   0  0  0  0  0  0  0  0  0  0  0  0
   57.3710   30.7780   51.6220 Cl  0  0  0  0  0  0  0  0  0  0  0  0
   58.8010   29.8420   49.4810 C   0  0  0  0  0  0  0  0  0  0  0  0
   59.3730   27.6050   47.2840 C   0  0  0  0  0  0  0  0  0  0  0  0
   58.9870   27.3710   45.8200 C   0  0  0  0  0  0  0  0  0  0  0  0
   58.5560   32.9980   47.6640 C   0  0  0  0  0  0  0  0  0  0  0  0
   57.3580   32.7610   47.9790 O   0  0  0  0  0  0  0  0  0  0  0  0
   59.4670   33.3300   48.6130 N   0  0  0  0  0  0  0  0  0  0  0  0
   59.3050   33.4810   49.9400 C   0  0  0  0  0  0  0  0  0  0  0  0
   60.5170   33.8440   50.5050 C   0  0  0  0  0  0  0  0  0  0  0  0
   61.4470   33.9160   49.4780 C   0  0  0  0  0  0  0  0  0  0  0  0
   60.7520   33.5860   48.3250 C   0  0  0  0  0  0  0  0  0  0  0  0
   65.0358   32.5385   51.1332 H   0  0  0  0  0  0  0  0  0  0  0  0
   65.2314   31.1697   49.9866 H   0  0  0  0  0  0  0  0  0  0  0  0
   66.4184   32.5180   49.9866 H   0  0  0  0  0  0  0  0  0  0  0  0
   63.8291   33.6732   49.6213 H   0  0  0  0  0  0  0  0  0  0  0  0
   65.2074   33.5438   48.4331 H   0  0  0  0  0  0  0  0  0  0  0  0
   64.1961   31.0869   48.1465 H   0  0  0  0  0  0  0  0  0  0  0  0
   62.6858   31.9854   48.6552 H   0  0  0  0  0  0  0  0  0  0  0  0
   64.4686   32.8093   46.3291 H   0  0  0  0  0  0  0  0  0  0  0  0
   62.9607   31.7964   46.1940 H   0  0  0  0  0  0  0  0  0  0  0  0
   63.0038   34.5856   47.4206 H   0  0  0  0  0  0  0  0  0  0  0  0
   62.6520   34.2608   45.6844 H   0  0  0  0  0  0  0  0  0  0  0  0
   60.6933   33.1594   45.0026 H   0  0  0  0  0  0  0  0  0  0  0  0
   55.5468   30.3476   44.5961 H   0  0  0  0  0  0  0  0  0  0  0  0
   56.1453   31.6914   43.5308 H   0  0  0  0  0  0  0  0  0  0  0  0
   56.6755   29.6059   42.4692 H   0  0  0  0  0  0  0  0  0  0  0  0
   58.2114   30.3598   43.1557 H   0  0  0  0  0  0  0  0  0  0  0  0
   56.6837   28.0866   44.4513 H   0  0  0  0  0  0  0  0  0  0  0  0
   58.1579   27.9381   43.3427 H   0  0  0  0  0  0  0  0  0  0  0  0
   60.2678   29.2929   44.2236 H   0  0  0  0  0  0  0  0  0  0  0  0
   59.2259   30.6042   44.9161 H   0  0  0  0  0  0  0  0  0  0  0  0
   61.5119   29.1918   46.1151 H   0  0  0  0  0  0  0  0  0  0  0  0
   60.6734   30.7164   46.6225 H   0  0  0  0  0  0  0  0  0  0  0  0
   62.1550   29.4814   48.9034 H   0  0  0  0  0  0  0  0  0  0  0  0
   62.2451   30.4600   51.1947 H   0  0  0  0  0  0  0  0  0  0  0  0
   60.1339   31.0371   52.3941 H   0  0  0  0  0  0  0  0  0  0  0  0
   57.8268   29.6712   48.9995 H   0  0  0  0  0  0  0  0  0  0  0  0
   60.1294   26.8631   47.5797 H   0  0  0  0  0  0  0  0  0  0  0  0
   58.4708   27.5037   47.9051 H   0  0  0  0  0  0  0  0  0  0  0  0
   59.8579   26.9966   45.2621 H   0  0  0  0  0  0  0  0  0  0  0  0
   58.1787   26.6275   45.7579 H   0  0  0  0  0  0  0  0  0  0  0  0
   58.3620   33.3391   50.4883 H   0  0  0  0  0  0  0  0  0  0  0  0
   60.7067   34.0390   51.5708 H   0  0  0  0  0  0  0  0  0  0  0  0
   62.5117   34.1795   49.5612 H   0  0  0  0  0  0  0  0  0  0  0  0
  1  2  1  0
  2  3  1  0
  3  4  1  0
  4  5  1  0
  5  6  1  0
  6  7  1  0
  7  8  2  0
  8  9  1  0
  9 10  2  0
  9 11  1  0
 11 12  1  0
 12 13  1  0
 13 14  1  0
 14 15  1  0
 15 16  1  0
 16 17  1  0
 17 18  1  0
 18 19  1  0
 19 20  2  0
 20 21  1  0
 21 22  2  0
 22 23  1  0
 23 24  1  0
 23 25  2  0
 18 26  1  0
 26 27  1  0
  8 28  1  0
 28 29  2  0
 28 30  1  0
 30 31  1  0
 31 32  2  0
 32 33  1  0
 33 34  2  0
 34  6  1  0
 27 15  1  0
 34 30  1  0
 25 19  1  0
  1 35  1  0
  1 36  1  0
  1 37  1  0
  2 38  1  0
  2 39  1  0
  3 40  1  0
  3 41  1  0
  4 42  1  0
  4 43  1  0
  5 44  1  0
  5 45  1  0
  7 46  1  0
 12 47  1  0
 12 48  1  0
 13 49  1  0
 13 50  1  0
 14 51  1  0
 14 52  1  0
 16 53  1  0
 16 54  1  0
 17 55  1  0
 17 56  1  0
 20 57  1  0
 21 58  1  0
 22 59  1  0
 25 60  1  0
 26 61  1  0
 26 62  1  0
 27 63  1  0
 27 64  1  0
 31 65  1  0
 32 66  1  0
 33 67  1  0
M  CHG  1  11  -1
M  END
>  <UniqueID>  (18) 
16

>  <SMILES>  (18) 
CCCCCn1cc(C(=O)[N-]CCCN2CCN(c3cccc(Cl)c3)CC2)c(=O)n2cccc12

>  <Energy>  (18) 
116.15387637785888

>  <Genealogy>  (18) 
CCCCCn1cc(C(=O)[N-]CCCN2CCN(c3cccc(Cl)c3)CC2)c(=O)n2cccc12 (protonated)
CCCCCn1cc(C(=O)[N-]CCCN2CCN(c3cccc(Cl)c3)CC2)c(=O)n2cccc12 (3D coordinates assigned)
CCCCCn1cc(C(=O)[N-]CCCN2CCN(c3cccc(Cl)c3)CC2)c(=O)n2cccc12 (nonaromatic ring conformer: 116.15387637785888 kcal/mol)

>  <smiles>  (18) 
CCCCCn1cc(C(=O)NCCCN2CCN(c3cccc(Cl)c3)CC2)c(=O)n2cccc12

>  <score_type>  (18) 
oracle

>  <origin>  (18) 
adg

>  <m_score__min__energy>  (18) 
-10.75

>  <m_primary>  (18) 
energy

$$$$
18:0
     RDKit          3D

 24 25  0  0  0  0  0  0  0  0999 V2000
   55.1383   29.2846   42.0724 H   0  0  0  0  0  0  0  0  0  0  0  0
   55.8990   29.7680   42.7030 C   0  0  0  0  0  0  0  0  0  0  0  0
   56.8890   30.5300   42.2830 O   0  0  0  0  0  0  0  0  0  0  0  0
   57.6170   30.9500   43.2800 N   0  0  0  0  0  0  0  0  0  0  0  0
   58.4410   31.5760   43.1630 H   0  0  0  0  0  0  0  0  0  0  0  0
   57.0850   30.4410   44.4120 C   0  0  0  0  0  0  0  0  0  0  0  0
   57.5090   30.6320   45.6290 N   0  0  0  0  0  0  0  0  0  0  0  0
   58.5870   29.9740   46.3180 C   0  0  0  0  0  0  0  0  0  0  0  0
   59.5410   30.6360   46.8060 O   0  0  0  0  0  0  0  0  0  0  0  0
   58.5880   28.4950   46.4350 C   0  0  0  0  0  0  0  0  0  0  0  0
   59.7990   27.7860   46.5180 C   0  0  0  0  0  0  0  0  0  0  0  0
   60.7539   28.3315   46.4961 H   0  0  0  0  0  0  0  0  0  0  0  0
   59.7980   26.3940   46.6280 C   0  0  0  0  0  0  0  0  0  0  0  0
   60.7513   25.8491   46.6936 H   0  0  0  0  0  0  0  0  0  0  0  0
   58.5940   25.6920   46.6550 C   0  0  0  0  0  0  0  0  0  0  0  0
   58.6033   24.5954   46.7411 H   0  0  0  0  0  0  0  0  0  0  0  0
   57.3680   26.3750   46.5730 C   0  0  0  0  0  0  0  0  0  0  0  0
   56.1220   25.6530   46.6010 N   0  0  0  0  0  0  0  0  0  0  0  0
   56.0410   24.5450   47.1690 O   0  0  0  0  0  0  0  0  0  0  0  0
   54.9980   26.1740   46.0010 O   0  0  0  0  0  0  0  0  0  0  0  0
   57.3760   27.7780   46.4630 C   0  0  0  0  0  0  0  0  0  0  0  0
   56.4223   28.3223   46.3980 H   0  0  0  0  0  0  0  0  0  0  0  0
   55.9900   29.6870   44.0750 C   0  0  0  0  0  0  0  0  0  0  0  0
   55.1480   28.9910   44.9320 O   0  0  0  0  0  0  0  0  0  0  0  0
  1  2  1  0
  2  3  1  0
  3  4  1  0
  4  5  1  0
  4  6  1  0
  6  7  2  0
  7  8  1  0
  8  9  2  0
  8 10  1  0
 10 11  2  0
 11 12  1  0
 11 13  1  0
 13 14  1  0
 13 15  2  0
 15 16  1  0
 15 17  1  0
 17 18  1  0
 18 19  2  0
 18 20  1  0
 17 21  2  0
 21 22  1  0
  6 23  1  0
 23 24  1  0
 23  2  2  0
 21 10  1  0
M  CHG  3  18   1  20  -1  24  -1
M  END
>  <UniqueID>  (19) 
17

>  <SMILES>  (19) 
O=C(/N=c1\[nH]occ1[O-])c1cccc([N+](=O)[O-])c1

>  <Energy>  (19) 
65.7755350541959

>  <Genealogy>  (19) 
O=C(N=c1[nH]occ1[O-])c1cccc([N+](=O)[O-])c1 (protonated)
O=C(/N=c1\[nH]occ1[O-])c1cccc([N+](=O)[O-])c1 (cis-trans isomerization)
O=C(/N=c1\[nH]occ1[O-])c1cccc([N+](=O)[O-])c1 (3D coordinates assigned)
O=C(/N=c1\[nH]occ1[O-])c1cccc([N+](=O)[O-])c1 (optimized conformer: 65.7755350541959 kcal/mol)

>  <smiles>  (19) 
O=C(N=c1[nH]occ1O)c1cccc([N+](=O)[O-])c1

>  <score_type>  (19) 
oracle

>  <origin>  (19) 
adg

>  <m_score__min__energy>  (19) 
-10.199999999999999

>  <m_primary>  (19) 
energy

$$$$
19:0
     RDKit          3D

 65 67  0  0  0  0  0  0  0  0999 V2000
   57.9633   34.8308   45.1110 H   0  0  0  0  0  0  0  0  0  0  0  0
   58.0970   33.8080   45.4930 C   0  0  0  0  0  0  0  0  0  0  0  0
   58.6710   33.6920   46.7010 C   0  0  0  0  0  0  0  0  0  0  0  0
   58.1750   34.2090   47.5357 H   0  0  0  0  0  0  0  0  0  0  0  0
   59.9020   32.9400   47.0230 C   0  0  0  0  0  0  0  0  0  0  0  0
   60.0150   31.5640   46.7870 C   0  0  0  0  0  0  0  0  0  0  0  0
   59.1743   31.0040   46.3515 H   0  0  0  0  0  0  0  0  0  0  0  0
   61.2050   30.9110   47.1100 C   0  0  0  0  0  0  0  0  0  0  0  0
   61.2957   29.8259   46.9539 H   0  0  0  0  0  0  0  0  0  0  0  0
   62.2520   31.6130   47.6170 N   0  0  0  0  0  0  0  0  0  0  0  0
   62.2000   32.9550   47.8220 C   0  0  0  0  0  0  0  0  0  0  0  0
   63.2600   33.5490   48.2940 N   0  0  0  0  0  0  0  0  0  0  0  0
   63.9100   33.4800   49.9090 S   0  0  0  0  0  0  0  0  0  0  0  0
   65.3800   33.1900   49.8020 O   0  0  0  0  0  0  0  0  0  0  0  0
   63.7500   34.8010   50.6070 O   0  0  0  0  0  0  0  0  0  0  0  0
   63.1630   32.1680   50.8680 C   0  0  0  0  0  0  0  0  0  0  0  0
   63.4636   31.1997   50.4413 H   0  0  0  0  0  0  0  0  0  0  0  0
   63.5076   32.2662   51.9080 H   0  0  0  0  0  0  0  0  0  0  0  0
   61.6620   32.2570   50.8630 C   0  0  0  0  0  0  0  0  0  0  0  0
   61.0270   33.4920   51.0720 C   0  0  0  0  0  0  0  0  0  0  0  0
   61.6298   34.3973   51.2363 H   0  0  0  0  0  0  0  0  0  0  0  0
   59.6320   33.5750   51.0720 C   0  0  0  0  0  0  0  0  0  0  0  0
   59.1399   34.5463   51.2280 H   0  0  0  0  0  0  0  0  0  0  0  0
   58.8600   32.4250   50.8740 C   0  0  0  0  0  0  0  0  0  0  0  0
   57.7622   32.4943   50.8678 H   0  0  0  0  0  0  0  0  0  0  0  0
   59.4830   31.1880   50.6840 C   0  0  0  0  0  0  0  0  0  0  0  0
   58.5100   29.7440   50.4790 Cl  0  0  0  0  0  0  0  0  0  0  0  0
   60.8810   31.1040   50.6700 C   0  0  0  0  0  0  0  0  0  0  0  0
   61.3698   30.1321   50.5074 H   0  0  0  0  0  0  0  0  0  0  0  0
   61.0110   33.6430   47.5120 C   0  0  0  0  0  0  0  0  0  0  0  0
   60.9529   34.7323   47.6538 H   0  0  0  0  0  0  0  0  0  0  0  0
   57.6240   32.7110   44.6180 C   0  0  0  0  0  0  0  0  0  0  0  0
   57.0720   31.6190   45.2090 N   0  0  0  0  0  0  0  0  0  0  0  0
   56.6540   30.5290   44.5080 C   0  0  0  0  0  0  0  0  0  0  0  0
   56.1610   29.4950   45.1290 N   0  0  0  0  0  0  0  0  0  0  0  0
   56.9450   28.3620   45.6210 C   0  0  0  0  0  0  0  0  0  0  0  0
   57.2756   27.7544   44.7657 H   0  0  0  0  0  0  0  0  0  0  0  0
   56.3141   27.7647   46.2957 H   0  0  0  0  0  0  0  0  0  0  0  0
   58.1790   28.8460   46.4020 C   0  0  0  0  0  0  0  0  0  0  0  0
   57.8484   29.3263   47.3348 H   0  0  0  0  0  0  0  0  0  0  0  0
   58.7318   29.5606   45.7745 H   0  0  0  0  0  0  0  0  0  0  0  0
   59.0780   27.7150   46.7320 N   0  0  0  0  0  0  0  0  0  0  0  0
   60.0540   27.4840   45.6410 C   0  0  0  0  0  0  0  0  0  0  0  0
   59.7146   26.6394   45.0234 H   0  0  0  0  0  0  0  0  0  0  0  0
   61.0362   27.2582   46.0818 H   0  0  0  0  0  0  0  0  0  0  0  0
   60.1770   28.7290   44.7670 C   0  0  0  0  0  0  0  0  0  0  0  0
   60.2649   29.6192   45.4072 H   0  0  0  0  0  0  0  0  0  0  0  0
   61.0711   28.6443   44.1319 H   0  0  0  0  0  0  0  0  0  0  0  0
   59.2836   28.8209   44.1319 H   0  0  0  0  0  0  0  0  0  0  0  0
   59.7610   27.9280   48.0280 C   0  0  0  0  0  0  0  0  0  0  0  0
   60.3189   28.8754   47.9937 H   0  0  0  0  0  0  0  0  0  0  0  0
   59.0085   27.9653   48.8295 H   0  0  0  0  0  0  0  0  0  0  0  0
   60.7310   26.7800   48.3060 C   0  0  0  0  0  0  0  0  0  0  0  0
   60.8420   26.6487   49.3925 H   0  0  0  0  0  0  0  0  0  0  0  0
   60.3385   25.8529   47.8628 H   0  0  0  0  0  0  0  0  0  0  0  0
   61.7106   27.0122   47.8628 H   0  0  0  0  0  0  0  0  0  0  0  0
   56.7810   30.5170   43.1050 C   0  0  0  0  0  0  0  0  0  0  0  0
   56.3230   29.3360   42.2900 C   0  0  0  0  0  0  0  0  0  0  0  0
   56.0086   28.5253   42.9638 H   0  0  0  0  0  0  0  0  0  0  0  0
   55.4756   29.6348   41.6555 H   0  0  0  0  0  0  0  0  0  0  0  0
   57.1503   28.9854   41.6555 H   0  0  0  0  0  0  0  0  0  0  0  0
   57.3960   31.6100   42.4770 C   0  0  0  0  0  0  0  0  0  0  0  0
   57.5357   31.6070   41.3859 H   0  0  0  0  0  0  0  0  0  0  0  0
   57.8310   32.7000   43.2290 C   0  0  0  0  0  0  0  0  0  0  0  0
   58.3333   33.5463   42.7376 H   0  0  0  0  0  0  0  0  0  0  0  0
  1  2  1  0
  2  3  2  3
  3  4  1  0
  3  5  1  0
  5  6  1  0
  6  7  1  0
  6  8  2  0
  8  9  1  0
  8 10  1  0
 10 11  1  0
 11 12  2  0
 12 13  1  0
 13 14  2  0
 13 15  2  0
 13 16  1  0
 16 17  1  0
 16 18  1  0
 16 19  1  0
 19 20  2  0
 20 21  1  0
 20 22  1  0
 22 23  1  0
 22 24  2  0
 24 25  1  0
 24 26  1  0
 26 27  1  0
 26 28  2  0
 28 29  1  0
 11 30  1  0
 30 31  1  0
  2 32  1  0
 32 33  1  0
 33 34  1  0
 34 35  2  3
 35 36  1  0
 36 37  1  0
 36 38  1  0
 36 39  1  0
 39 40  1  0
 39 41  1  0
 39 42  1  0
 42 43  1  0
 43 44  1  0
 43 45  1  0
 43 46  1  0
 46 47  1  0
 46 48  1  0
 46 49  1  0
 42 50  1  0
 50 51  1  0
 50 52  1  0
 50 53  1  0
 53 54  1  0
 53 55  1  0
 53 56  1  0
 34 57  1  0
 57 58  1  0
 58 59  1  0
 58 60  1  0
 58 61  1  0
 57 62  2  0
 62 63  1  0
 62 64  1  0
 64 65  1  0
 30  5  2  0
 64 32  2  0
 28 19  1  0
M  CHG  2  10  -1  33  -1
M  END
>  <UniqueID>  (20) 
18

>  <SMILES>  (20) 
CCN(CC)CCN=c1[n-]c(C=Cc2cc[n-]/c(=N/S(=O)(=O)Cc3cccc(Cl)c3)c2)ccc1C

>  <Energy>  (20) 
72.90558508725358

>  <Genealogy>  (20) 
CCN(CC)CCN=c1[n-]c(C=Cc2cc[n-]c(=NS(=O)(=O)Cc3cccc(Cl)c3)c2)ccc1C (protonated)
CCN(CC)CCN=c1[n-]c(C=Cc2cc[n-]/c(=N/S(=O)(=O)Cc3cccc(Cl)c3)c2)ccc1C (cis-trans isomerization)
CCN(CC)CCN=c1[n-]c(C=Cc2cc[n-]/c(=N/S(=O)(=O)Cc3cccc(Cl)c3)c2)ccc1C (3D coordinates assigned)
CCN(CC)CCN=c1[n-]c(C=Cc2cc[n-]/c(=N/S(=O)(=O)Cc3cccc(Cl)c3)c2)ccc1C (optimized conformer: 72.90558508725358 kcal/mol)

>  <smiles>  (20) 
CCN(CC)CCN=c1[nH]c(C=Cc2cc[nH]c(=NS(=O)(=O)Cc3cccc(Cl)c3)c2)ccc1C

>  <score_type>  (20) 
oracle

>  <origin>  (20) 
adg

>  <m_score__min__energy>  (20) 
-12.949999999999999

>  <m_primary>  (20) 
energy

$$$$
20:0
     RDKit          3D

 28 29  0  0  0  0  0  0  0  0999 V2000
   58.2910   27.4480   44.2530 O   0  0  0  0  0  0  0  0  0  0  0  0
   58.2460   28.2080   45.2570 C   0  0  0  0  0  0  0  0  0  0  0  0
   57.4500   27.7940   46.4710 C   0  0  0  0  0  0  0  0  0  0  0  0
   57.1560   26.3090   46.4720 C   0  0  0  0  0  0  0  0  0  0  0  0
   55.8430   25.8340   46.3030 C   0  0  0  0  0  0  0  0  0  0  0  0
   54.7870   26.7160   46.1090 O   0  0  0  0  0  0  0  0  0  0  0  0
   55.5940   24.4990   46.3320 N   0  0  0  0  0  0  0  0  0  0  0  0
   56.5930   23.6030   46.5290 C   0  0  0  0  0  0  0  0  0  0  0  0
   56.2620   22.0060   46.5590 S   0  0  0  0  0  0  0  0  0  0  0  0
   57.8670   24.0340   46.7080 N   0  0  0  0  0  0  0  0  0  0  0  0
   58.1710   25.3580   46.6870 C   0  0  0  0  0  0  0  0  0  0  0  0
   59.3650   25.7180   46.8610 O   0  0  0  0  0  0  0  0  0  0  0  0
   59.1010   29.3590   45.2810 N   0  0  0  0  0  0  0  0  0  0  0  0
   58.6750   30.7270   45.3260 C   0  0  0  0  0  0  0  0  0  0  0  0
   59.4620   31.6810   45.9930 C   0  0  0  0  0  0  0  0  0  0  0  0
   59.0330   33.0030   46.1080 C   0  0  0  0  0  0  0  0  0  0  0  0
   57.8000   33.3840   45.5800 C   0  0  0  0  0  0  0  0  0  0  0  0
   56.9920   32.4410   44.9400 C   0  0  0  0  0  0  0  0  0  0  0  0
   57.4110   31.1050   44.8070 C   0  0  0  0  0  0  0  0  0  0  0  0
   56.5500   30.1590   44.1370 N   0  0  0  0  0  0  0  0  0  0  0  0
   56.7150   29.8750   42.9340 O   0  0  0  0  0  0  0  0  0  0  0  0
   55.4760   29.6100   44.8010 O   0  0  0  0  0  0  0  0  0  0  0  0
   58.0244   28.0437   47.3753 H   0  0  0  0  0  0  0  0  0  0  0  0
   56.4908   28.3320   46.4502 H   0  0  0  0  0  0  0  0  0  0  0  0
   60.4266   31.3820   46.4290 H   0  0  0  0  0  0  0  0  0  0  0  0
   59.6672   33.7450   46.6151 H   0  0  0  0  0  0  0  0  0  0  0  0
   57.4633   34.4276   45.6674 H   0  0  0  0  0  0  0  0  0  0  0  0
   56.0161   32.7472   44.5351 H   0  0  0  0  0  0  0  0  0  0  0  0
  1  2  2  0
  2  3  1  0
  3  4  1  0
  4  5  2  0
  5  6  1  0
  5  7  1  0
  7  8  1  0
  8  9  2  0
  8 10  1  0
 10 11  1  0
 11 12  2  0
  2 13  1  0
 13 14  1  0
 14 15  2  0
 15 16  1  0
 16 17  2  0
 17 18  1  0
 18 19  2  0
 19 20  1  0
 20 21  2  0
 20 22  1  0
 11  4  1  0
 19 14  1  0
  3 23  1  0
  3 24  1  0
 15 25  1  0
 16 26  1  0
 17 27  1  0
 18 28  1  0
M  CHG  6   6  -1   7  -1  10  -1  13  -1  20   1  22  -1
M  END
>  <UniqueID>  (21) 
19

>  <SMILES>  (21) 
O=C(Cc1c([O-])[n-]c(=S)[n-]c1=O)[N-]c1ccccc1[N+](=O)[O-]

>  <Energy>  (21) 
40.57571170847445

>  <Genealogy>  (21) 
O=C(Cc1c([O-])[n-]c(=S)[n-]c1=O)[N-]c1ccccc1[N+](=O)[O-] (protonated)
O=C(Cc1c([O-])[n-]c(=S)[n-]c1=O)[N-]c1ccccc1[N+](=O)[O-] (3D coordinates assigned)
O=C(Cc1c([O-])[n-]c(=S)[n-]c1=O)[N-]c1ccccc1[N+](=O)[O-] (optimized conformer: 40.57571170847445 kcal/mol)

>  <smiles>  (21) 
O=C(Cc1c(O)[nH]c(=S)[nH]c1=O)Nc1ccccc1[N+](=O)[O-]

>  <score_type>  (21) 
oracle

>  <origin>  (21) 
adg

>  <m_score__min__energy>  (21) 
-15.65

>  <m_primary>  (21) 
energy

$$$$
21:0
     RDKit          3D

 49 51  0  0  0  0  0  0  0  0999 V2000
   57.6270   21.5160   43.6570 C   0  0  0  0  0  0  0  0  0  0  0  0
   58.7290   22.1820   44.4750 C   0  0  0  0  0  0  0  0  0  0  0  0
   58.1410   23.0860   45.5230 C   0  0  0  0  0  0  0  0  0  0  0  0
   56.9810   22.7070   46.2160 C   0  0  0  0  0  0  0  0  0  0  0  0
   56.4220   23.5580   47.1730 C   0  0  0  0  0  0  0  0  0  0  0  0
   57.0090   24.7980   47.4380 C   0  0  0  0  0  0  0  0  0  0  0  0
   58.1570   25.2020   46.7380 C   0  0  0  0  0  0  0  0  0  0  0  0
   58.8100   26.5230   47.0380 C   0  0  0  0  0  0  0  0  0  0  0  0
   58.4650   27.5080   46.0050 N   0  0  0  0  0  0  0  0  0  0  0  0
   57.1450   27.4520   45.3640 C   0  0  0  0  0  0  0  0  0  0  0  0
   56.7260   28.8150   44.8990 C   0  0  0  0  0  0  0  0  0  0  0  0
   55.5020   29.1130   44.8760 O   0  0  0  0  0  0  0  0  0  0  0  0
   57.7220   29.7570   44.4500 N   0  0  0  0  0  0  0  0  0  0  0  0
   57.3250   31.0600   43.9000 C   0  0  0  0  0  0  0  0  0  0  0  0
   57.9010   32.1740   44.7320 C   0  0  0  0  0  0  0  0  0  0  0  0
   58.1250   31.9850   46.1040 C   0  0  0  0  0  0  0  0  0  0  0  0
   58.6920   33.0050   46.8750 C   0  0  0  0  0  0  0  0  0  0  0  0
   59.0580   34.2200   46.2780 C   0  0  0  0  0  0  0  0  0  0  0  0
   59.6310   35.3290   47.1120 C   0  0  0  0  0  0  0  0  0  0  0  0
   58.8240   34.4150   44.9090 C   0  0  0  0  0  0  0  0  0  0  0  0
   58.2590   33.3950   44.1380 C   0  0  0  0  0  0  0  0  0  0  0  0
   59.1210   29.3240   44.3460 C   0  0  0  0  0  0  0  0  0  0  0  0
   59.4690   28.3920   45.4690 C   0  0  0  0  0  0  0  0  0  0  0  0
   60.6490   28.3700   45.9120 O   0  0  0  0  0  0  0  0  0  0  0  0
   58.7200   24.3400   45.7820 C   0  0  0  0  0  0  0  0  0  0  0  0
   56.8862   21.0683   44.3358 H   0  0  0  0  0  0  0  0  0  0  0  0
   57.1355   22.2684   43.0227 H   0  0  0  0  0  0  0  0  0  0  0  0
   58.0646   20.7311   43.0227 H   0  0  0  0  0  0  0  0  0  0  0  0
   59.3336   21.4053   44.9662 H   0  0  0  0  0  0  0  0  0  0  0  0
   59.3555   22.7838   43.8002 H   0  0  0  0  0  0  0  0  0  0  0  0
   56.5097   21.7357   46.0049 H   0  0  0  0  0  0  0  0  0  0  0  0
   55.5178   23.2510   47.7190 H   0  0  0  0  0  0  0  0  0  0  0  0
   56.5698   25.4605   48.1984 H   0  0  0  0  0  0  0  0  0  0  0  0
   58.4620   26.8860   48.0163 H   0  0  0  0  0  0  0  0  0  0  0  0
   59.9015   26.3875   47.0530 H   0  0  0  0  0  0  0  0  0  0  0  0
   57.1914   26.7735   44.4995 H   0  0  0  0  0  0  0  0  0  0  0  0
   56.4104   27.0856   46.0962 H   0  0  0  0  0  0  0  0  0  0  0  0
   57.6971   31.1474   42.8685 H   0  0  0  0  0  0  0  0  0  0  0  0
   56.2276   31.1346   43.9116 H   0  0  0  0  0  0  0  0  0  0  0  0
   57.8532   31.0293   46.5760 H   0  0  0  0  0  0  0  0  0  0  0  0
   58.8513   32.8537   47.9528 H   0  0  0  0  0  0  0  0  0  0  0  0
   59.5065   35.0880   48.1780 H   0  0  0  0  0  0  0  0  0  0  0  0
   60.7011   35.4435   46.8845 H   0  0  0  0  0  0  0  0  0  0  0  0
   59.1053   36.2681   46.8845 H   0  0  0  0  0  0  0  0  0  0  0  0
   59.0862   35.3748   44.4399 H   0  0  0  0  0  0  0  0  0  0  0  0
   58.0941   33.5495   43.0615 H   0  0  0  0  0  0  0  0  0  0  0  0
   59.2690   28.8060   43.3870 H   0  0  0  0  0  0  0  0  0  0  0  0
   59.7719   30.2089   44.4043 H   0  0  0  0  0  0  0  0  0  0  0  0
   59.6211   24.6491   45.2320 H   0  0  0  0  0  0  0  0  0  0  0  0
  1  2  1  0
  2  3  1  0
  3  4  2  0
  4  5  1  0
  5  6  2  0
  6  7  1  0
  7  8  1  0
  8  9  1  0
  9 10  1  0
 10 11  1  0
 11 12  2  0
 11 13  1  0
 13 14  1  0
 14 15  1  0
 15 16  2  0
 16 17  1  0
 17 18  2  0
 18 19  1  0
 18 20  1  0
 20 21  2  0
 13 22  1  0
 22 23  1  0
 23 24  2  0
  7 25  2  0
 25  3  1  0
 23  9  1  0
 21 15  1  0
  1 26  1  0
  1 27  1  0
  1 28  1  0
  2 29  1  0
  2 30  1  0
  4 31  1  0
  5 32  1  0
  6 33  1  0
  8 34  1  0
  8 35  1  0
 10 36  1  0
 10 37  1  0
 14 38  1  0
 14 39  1  0
 16 40  1  0
 17 41  1  0
 19 42  1  0
 19 43  1  0
 19 44  1  0
 20 45  1  0
 21 46  1  0
 22 47  1  0
 22 48  1  0
 25 49  1  0
M  END
>  <UniqueID>  (22) 
20

>  <SMILES>  (22) 
CCc1cccc(CN2CC(=O)N(Cc3ccc(C)cc3)CC2=O)c1

>  <Energy>  (22) 
43.15497502995895

>  <Genealogy>  (22) 
CCc1cccc(CN2CC(=O)N(Cc3ccc(C)cc3)CC2=O)c1 (3D coordinates assigned)
CCc1cccc(CN2CC(=O)N(Cc3ccc(C)cc3)CC2=O)c1 (nonaromatic ring conformer: 43.15497502995895 kcal/mol)

>  <smiles>  (22) 
CCc1cccc(CN2CC(=O)N(Cc3ccc(C)cc3)CC2=O)c1

>  <score_type>  (22) 
oracle

>  <origin>  (22) 
adg

>  <m_score__min__energy>  (22) 
-8.2599999999999998

>  <m_primary>  (22) 
energy

$$$$
22:0
     RDKit          3D

 39 41  0  0  0  0  0  0  0  0999 V2000
   56.3540   21.9913   41.6403 H   0  0  0  0  0  0  0  0  0  0  0  0
   56.5200   22.3580   42.6640 C   0  0  0  0  0  0  0  0  0  0  0  0
   55.6140   23.2540   43.2410 C   0  0  0  0  0  0  0  0  0  0  0  0
   54.7415   23.5969   42.6655 H   0  0  0  0  0  0  0  0  0  0  0  0
   55.8130   23.7180   44.5520 C   0  0  0  0  0  0  0  0  0  0  0  0
   54.8500   24.6990   45.1660 C   0  0  0  0  0  0  0  0  0  0  0  0
   53.9301   24.1673   45.4509 H   0  0  0  0  0  0  0  0  0  0  0  0
   54.6335   25.4826   44.4249 H   0  0  0  0  0  0  0  0  0  0  0  0
   55.4210   25.3330   46.3540 N   0  0  0  0  0  0  0  0  0  0  0  0
   56.3390   26.2570   46.3420 C   0  0  0  0  0  0  0  0  0  0  0  0
   57.5480   26.0380   46.9200 N   0  0  0  0  0  0  0  0  0  0  0  0
   57.0500   28.4210   45.6930 C   0  0  0  0  0  0  0  0  0  0  0  0
   56.8890   29.5910   45.1240 N   0  0  0  0  0  0  0  0  0  0  0  0
   60.3710   27.7820   48.2720 C   0  0  0  0  0  0  0  0  0  0  0  0
   59.7271   28.6616   48.4193 H   0  0  0  0  0  0  0  0  0  0  0  0
   61.3016   28.0754   47.7642 H   0  0  0  0  0  0  0  0  0  0  0  0
   60.7170   27.1800   49.6290 C   0  0  0  0  0  0  0  0  0  0  0  0
   60.3402   27.8357   50.4278 H   0  0  0  0  0  0  0  0  0  0  0  0
   60.2516   26.1874   49.7192 H   0  0  0  0  0  0  0  0  0  0  0  0
   61.8090   27.0825   49.7192 H   0  0  0  0  0  0  0  0  0  0  0  0
   58.2520   28.1760   46.2740 N   0  0  0  0  0  0  0  0  0  0  0  0
   58.5070   26.9980   46.8920 C   0  0  0  0  0  0  0  0  0  0  0  0
   59.6680   26.8040   47.4450 N   0  0  0  0  0  0  0  0  0  0  0  0
   56.1460   30.1680   43.9870 C   0  0  0  0  0  0  0  0  0  0  0  0
   55.2835   30.4342   44.6157 H   0  0  0  0  0  0  0  0  0  0  0  0
   56.3140   29.5120   42.6300 C   0  0  0  0  0  0  0  0  0  0  0  0
   56.9527   28.6229   42.5230 H   0  0  0  0  0  0  0  0  0  0  0  0
   55.6303   29.1107   41.8674 H   0  0  0  0  0  0  0  0  0  0  0  0
   56.9450   30.8830   42.9140 C   0  0  0  0  0  0  0  0  0  0  0  0
   58.0366   30.9779   43.0109 H   0  0  0  0  0  0  0  0  0  0  0  0
   56.9025   31.8748   42.4401 H   0  0  0  0  0  0  0  0  0  0  0  0
   56.0860   27.4500   45.7340 N   0  0  0  0  0  0  0  0  0  0  0  0
   55.1460   27.5620   45.3130 H   0  0  0  0  0  0  0  0  0  0  0  0
   56.9450   23.2900   45.2680 C   0  0  0  0  0  0  0  0  0  0  0  0
   57.1184   23.6587   46.2898 H   0  0  0  0  0  0  0  0  0  0  0  0
   57.8510   22.3980   44.6870 C   0  0  0  0  0  0  0  0  0  0  0  0
   58.7337   22.0654   45.2529 H   0  0  0  0  0  0  0  0  0  0  0  0
   57.6370   21.9280   43.3880 C   0  0  0  0  0  0  0  0  0  0  0  0
   58.5140   21.0600   42.8270 F   0  0  0  0  0  0  0  0  0  0  0  0
  1  2  1  0
  2  3  2  0
  3  4  1  0
  3  5  1  0
  5  6  1  0
  6  7  1  0
  6  8  1  0
  6  9  1  0
  9 10  2  3
 10 11  1  0
 11 12  1  0
 12 13  2  0
 13 14  1  0
 14 15  1  0
 14 16  1  0
 14 17  1  0
 17 18  1  0
 17 19  1  0
 17 20  1  0
 12 21  1  0
 21 22  1  0
 22 23  2  0
 23 24  1  0
 24 25  1  0
 24 26  1  0
 26 27  1  0
 26 28  1  0
 26 29  1  0
 29 30  1  0
 29 31  1  0
 22 32  1  0
 32 33  1  0
  5 34  2  0
 34 35  1  0
 34 36  1  0
 36 37  1  0
 36 38  2  0
 38 39  1  0
 38  2  1  0
 32 10  1  0
 29 24  1  0
M  CHG  2  11  -1  21  -1
M  END
>  <UniqueID>  (23) 
21

>  <SMILES>  (23) 
CC/N=c1\[n-]c(=NCc2ccc(F)cc2)[nH]/c(=N\C2CC2)[n-]1

>  <Energy>  (23) 
318.2913759989192

>  <Genealogy>  (23) 
CCN=c1[n-]c(=NCc2ccc(F)cc2)[nH]c(=NC2CC2)[n-]1 (protonated)
CC/N=c1\[n-]c(=NCc2ccc(F)cc2)[nH]/c(=N\C2CC2)[n-]1 (cis-trans isomerization)
CC/N=c1\[n-]c(=NCc2ccc(F)cc2)[nH]/c(=N\C2CC2)[n-]1 (3D coordinates assigned)
CC/N=c1\[n-]c(=NCc2ccc(F)cc2)[nH]/c(=N\C2CC2)[n-]1 (nonaromatic ring conformer: 318.2913759989192 kcal/mol)

>  <smiles>  (23) 
CCN=c1[nH]c(=NCc2ccc(F)cc2)[nH]c(=NC2CC2)[nH]1

>  <score_type>  (23) 
oracle

>  <origin>  (23) 
adg

>  <m_score__min__energy>  (23) 
-10.15

>  <m_primary>  (23) 
energy

$$$$
23:0
     RDKit          3D

 35 37  0  0  0  0  0  0  0  0999 V2000
   60.9069   30.3472   46.8737 H   0  0  0  0  0  0  0  0  0  0  0  0
   60.1580   29.9850   46.1540 C   0  0  0  0  0  0  0  0  0  0  0  0
   60.2191   28.9571   45.7671 H   0  0  0  0  0  0  0  0  0  0  0  0
   59.1700   30.7970   45.7480 C   0  0  0  0  0  0  0  0  0  0  0  0
   58.1530   30.4770   44.8430 C   0  0  0  0  0  0  0  0  0  0  0  0
   57.9240   29.2870   44.2540 C   0  0  0  0  0  0  0  0  0  0  0  0
   58.1513   29.1837   43.1827 H   0  0  0  0  0  0  0  0  0  0  0  0
   57.3830   28.1120   44.9720 C   0  0  0  0  0  0  0  0  0  0  0  0
   56.0150   28.0430   45.2760 C   0  0  0  0  0  0  0  0  0  0  0  0
   55.1490   29.0560   44.8790 O   0  0  0  0  0  0  0  0  0  0  0  0
   55.5240   26.9750   45.9570 N   0  0  0  0  0  0  0  0  0  0  0  0
   56.3380   25.9680   46.3640 C   0  0  0  0  0  0  0  0  0  0  0  0
   55.8590   24.9860   46.9870 O   0  0  0  0  0  0  0  0  0  0  0  0
   57.6690   26.0230   46.1050 N   0  0  0  0  0  0  0  0  0  0  0  0
   58.2110   27.0700   45.4300 C   0  0  0  0  0  0  0  0  0  0  0  0
   59.4570   27.1030   45.2410 O   0  0  0  0  0  0  0  0  0  0  0  0
   57.3880   31.6270   44.6910 C   0  0  0  0  0  0  0  0  0  0  0  0
   56.5011   31.7470   44.0515 H   0  0  0  0  0  0  0  0  0  0  0  0
   57.9590   32.5900   45.5000 C   0  0  0  0  0  0  0  0  0  0  0  0
   57.4500   33.9930   45.6420 C   0  0  0  0  0  0  0  0  0  0  0  0
   57.3590   34.2438   46.7092 H   0  0  0  0  0  0  0  0  0  0  0  0
   58.1531   34.6886   45.1605 H   0  0  0  0  0  0  0  0  0  0  0  0
   56.4645   34.0760   45.1605 H   0  0  0  0  0  0  0  0  0  0  0  0
   59.0420   32.0910   46.1370 N   0  0  0  0  0  0  0  0  0  0  0  0
   59.8740   32.8080   47.0660 C   0  0  0  0  0  0  0  0  0  0  0  0
   61.2140   33.0840   46.7500 C   0  0  0  0  0  0  0  0  0  0  0  0
   61.6274   32.7587   45.7839 H   0  0  0  0  0  0  0  0  0  0  0  0
   62.0250   33.7710   47.6590 C   0  0  0  0  0  0  0  0  0  0  0  0
   63.0736   33.9866   47.4061 H   0  0  0  0  0  0  0  0  0  0  0  0
   61.5040   34.1840   48.8890 C   0  0  0  0  0  0  0  0  0  0  0  0
   62.3100   34.8670   49.7910 O   0  0  0  0  0  0  0  0  0  0  0  0
   60.1710   33.9090   49.2110 C   0  0  0  0  0  0  0  0  0  0  0  0
   59.7617   34.2326   50.1794 H   0  0  0  0  0  0  0  0  0  0  0  0
   59.3580   33.2230   48.3030 C   0  0  0  0  0  0  0  0  0  0  0  0
   58.3102   33.0080   48.5596 H   0  0  0  0  0  0  0  0  0  0  0  0
  1  2  1  0
  2  3  1  0
  2  4  2  0
  4  5  1  0
  5  6  2  0
  6  7  1  0
  6  8  1  0
  8  9  2  0
  9 10  1  0
  9 11  1  0
 11 12  1  0
 12 13  2  0
 12 14  1  0
 14 15  1  0
 15 16  2  0
  5 17  1  0
 17 18  1  0
 17 19  2  0
 19 20  1  0
 20 21  1  0
 20 22  1  0
 20 23  1  0
 19 24  1  0
 24 25  1  0
 25 26  2  0
 26 27  1  0
 26 28  1  0
 28 29  1  0
 28 30  2  0
 30 31  1  0
 30 32  1  0
 32 33  1  0
 32 34  2  0
 34 35  1  0
 24  4  1  0
 34 25  1  0
 15  8  1  0
M  CHG  4  10  -1  11  -1  14  -1  31  -1
M  END
>  <UniqueID>  (24) 
22

>  <SMILES>  (24) 
C=c1/c(=C/c2c([O-])[n-]c(=O)[n-]c2=O)cc(C)n1-c1ccc([O-])cc1

>  <Energy>  (24) 
82.91769044607716

>  <Genealogy>  (24) 
C=c1c(=Cc2c([O-])[n-]c(=O)[n-]c2=O)cc(C)n1-c1ccc([O-])cc1 (protonated)
C=c1/c(=C/c2c([O-])[n-]c(=O)[n-]c2=O)cc(C)n1-c1ccc([O-])cc1 (cis-trans isomerization)
C=c1/c(=C/c2c([O-])[n-]c(=O)[n-]c2=O)cc(C)n1-c1ccc([O-])cc1 (3D coordinates assigned)
C=c1/c(=C/c2c([O-])[n-]c(=O)[n-]c2=O)cc(C)n1-c1ccc([O-])cc1 (optimized conformer: 82.91769044607716 kcal/mol)

>  <smiles>  (24) 
C=c1c(=Cc2c(O)[nH]c(=O)[nH]c2=O)cc(C)n1-c1ccc(O)cc1

>  <score_type>  (24) 
oracle

>  <origin>  (24) 
adg

>  <m_score__min__energy>  (24) 
-15.9

>  <m_primary>  (24) 
energy

$$$$
24:0
     RDKit          3D

 38 39  0  0  0  0  0  0  0  0999 V2000
   59.2580   32.9920   45.6990 C   0  0  0  0  0  0  0  0  0  0  0  0
   57.7230   32.4510   44.9680 S   0  0  0  0  0  0  0  0  0  0  0  0
   57.7730   32.7080   43.4880 O   0  0  0  0  0  0  0  0  0  0  0  0
   56.6000   33.2570   45.5580 O   0  0  0  0  0  0  0  0  0  0  0  0
   57.4210   30.7540   45.2570 N   0  0  0  0  0  0  0  0  0  0  0  0
   58.4720   30.1820   46.1110 C   0  0  0  0  0  0  0  0  0  0  0  0
   58.0650   28.7760   46.5870 C   0  0  0  0  0  0  0  0  0  0  0  0
   57.0810   28.0840   45.6150 C   0  0  0  0  0  0  0  0  0  0  0  0
   57.1520   26.6280   45.7680 N   0  0  0  0  0  0  0  0  0  0  0  0
   55.9860   25.8200   45.9690 C   0  0  0  0  0  0  0  0  0  0  0  0
   54.8460   26.3530   46.0380 O   0  0  0  0  0  0  0  0  0  0  0  0
   56.1350   24.4060   46.1400 N   0  0  0  0  0  0  0  0  0  0  0  0
   56.4750   23.4700   45.1080 C   0  0  0  0  0  0  0  0  0  0  0  0
   55.9250   23.6500   43.8310 C   0  0  0  0  0  0  0  0  0  0  0  0
   56.2210   22.7530   42.8000 C   0  0  0  0  0  0  0  0  0  0  0  0
   57.0520   21.6580   43.0420 C   0  0  0  0  0  0  0  0  0  0  0  0
   57.5810   21.4510   44.3200 C   0  0  0  0  0  0  0  0  0  0  0  0
   57.2890   22.3460   45.3560 C   0  0  0  0  0  0  0  0  0  0  0  0
   57.7530   22.0790   46.6020 F   0  0  0  0  0  0  0  0  0  0  0  0
   57.3850   28.4910   44.1640 C   0  0  0  0  0  0  0  0  0  0  0  0
   57.3120   30.0240   43.9770 C   0  0  0  0  0  0  0  0  0  0  0  0
   59.1727   32.9619   46.7953 H   0  0  0  0  0  0  0  0  0  0  0  0
   60.0724   32.3267   45.3762 H   0  0  0  0  0  0  0  0  0  0  0  0
   59.4753   34.0209   45.3762 H   0  0  0  0  0  0  0  0  0  0  0  0
   59.4087   30.1145   45.5382 H   0  0  0  0  0  0  0  0  0  0  0  0
   58.6135   30.8304   46.9882 H   0  0  0  0  0  0  0  0  0  0  0  0
   58.9701   28.1568   46.6730 H   0  0  0  0  0  0  0  0  0  0  0  0
   57.5564   28.8852   47.5563 H   0  0  0  0  0  0  0  0  0  0  0  0
   56.0591   28.4096   45.8593 H   0  0  0  0  0  0  0  0  0  0  0  0
   58.0750   26.1430   45.6910 H   0  0  0  0  0  0  0  0  0  0  0  0
   55.2565   24.5022   43.6390 H   0  0  0  0  0  0  0  0  0  0  0  0
   55.7983   22.9105   41.7967 H   0  0  0  0  0  0  0  0  0  0  0  0
   57.2908   20.9580   42.2277 H   0  0  0  0  0  0  0  0  0  0  0  0
   58.2283   20.5825   44.5116 H   0  0  0  0  0  0  0  0  0  0  0  0
   58.3961   28.1468   43.9008 H   0  0  0  0  0  0  0  0  0  0  0  0
   56.6306   28.0279   43.5110 H   0  0  0  0  0  0  0  0  0  0  0  0
   58.1356   30.3392   43.3195 H   0  0  0  0  0  0  0  0  0  0  0  0
   56.3318   30.2618   43.5380 H   0  0  0  0  0  0  0  0  0  0  0  0
  1  2  1  0
  2  3  2  0
  2  4  2  0
  2  5  1  0
  5  6  1  0
  6  7  1  0
  7  8  1  0
  8  9  1  0
  9 10  1  0
 10 11  2  0
 10 12  1  0
 12 13  1  0
 13 14  2  0
 14 15  1  0
 15 16  2  0
 16 17  1  0
 17 18  2  0
 18 19  1  0
  8 20  1  0
 20 21  1  0
 21  5  1  0
 18 13  1  0
  1 22  1  0
  1 23  1  0
  1 24  1  0
  6 25  1  0
  6 26  1  0
  7 27  1  0
  7 28  1  0
  8 29  1  0
  9 30  1  0
 14 31  1  0
 15 32  1  0
 16 33  1  0
 17 34  1  0
 20 35  1  0
 20 36  1  0
 21 37  1  0
 21 38  1  0
M  CHG  1  12  -1
M  END
>  <UniqueID>  (25) 
23

>  <SMILES>  (25) 
CS(=O)(=O)N1CCC(NC(=O)[N-]c2ccccc2F)CC1

>  <Energy>  (25) 
39.41444747913264

>  <Genealogy>  (25) 
CS(=O)(=O)N1CCC(NC(=O)[N-]c2ccccc2F)CC1 (protonated)
CS(=O)(=O)N1CCC(NC(=O)[N-]c2ccccc2F)CC1 (3D coordinates assigned)
CS(=O)(=O)N1CCC(NC(=O)[N-]c2ccccc2F)CC1 (nonaromatic ring conformer: 39.41444747913264 kcal/mol)

>  <smiles>  (25) 
CS(=O)(=O)N1CCC(NC(=O)Nc2ccccc2F)CC1

>  <score_type>  (25) 
oracle

>  <origin>  (25) 
adg

>  <m_score__min__energy>  (25) 
-9.3599999999999994

>  <m_primary>  (25) 
energy

$$$$
25:0
     RDKit          3D

 49 52  0  0  1  0  0  0  0  0999 V2000
   63.3670   33.7150   46.3970 C   0  0  0  0  0  0  0  0  0  0  0  0
   62.6150   33.8470   47.4750 C   0  0  0  0  0  0  0  0  0  0  0  0
   57.2070   27.5070   45.5770 C   0  0  0  0  0  0  0  0  0  0  0  0
   64.3330   33.4490   49.1740 C   0  0  0  0  0  0  0  0  0  0  0  0
   64.6280   32.3100   50.0460 C   0  0  0  0  0  0  0  0  0  0  0  0
   63.7670   31.4860   50.6800 N   0  0  0  0  0  0  0  0  0  0  0  0
   64.5040   30.5930   51.3630 C   0  0  0  0  0  0  0  0  0  0  0  0
   64.0030   29.6760   52.0670 O   0  0  0  0  0  0  0  0  0  0  0  0
   65.8170   30.8200   51.1870 N   0  0  0  0  0  0  0  0  0  0  0  0
   65.9250   31.8940   50.3630 C   0  0  0  0  0  0  0  0  0  0  0  0
   67.1250   32.4700   49.9200 O   0  0  0  0  0  0  0  0  0  0  0  0
   57.7480   26.4150   46.2390 C   0  0  0  0  0  0  0  0  0  0  0  0
   60.9540   34.1540   48.8180 C   0  0  0  0  0  0  0  0  0  0  0  0
   59.6010   34.4170   49.3730 C   0  0  0  0  0  0  0  0  0  0  0  0
   61.2780   34.1200   47.5160 N   0  0  0  0  0  0  0  0  0  0  0  0
   60.3950   34.3250   46.3640 C   0  0  0  0  0  0  0  0  0  0  0  0
   59.5990   33.1140   46.0450 C   0  0  0  0  0  0  0  0  0  0  0  0
   59.8210   31.8770   46.6060 C   0  0  0  0  0  0  0  0  0  0  0  0
   59.0010   30.8110   46.2290 C   0  0  0  0  0  0  0  0  0  0  0  0
   57.9800   30.9480   45.3210 C   0  0  0  0  0  0  0  0  0  0  0  0
   57.1680   29.7870   44.9810 C   0  0  0  0  0  0  0  0  0  0  0  0
   55.9630   29.9710   44.6700 O   0  0  0  0  0  0  0  0  0  0  0  0
   57.7870   28.5080   45.0220 N   0  0  0  0  0  0  0  0  0  0  0  0
   63.1000   33.7150   48.7540 C   0  0  0  0  0  0  0  0  0  0  0  0
   62.0510   33.9080   49.6140 C   0  0  0  0  0  0  0  0  0  0  0  0
   56.7220   25.6530   46.6340 N   0  0  0  0  0  0  0  0  0  0  0  0
   55.5670   26.2150   46.2520 N   0  0  0  0  0  0  0  0  0  0  0  0
   55.8800   27.3490   45.6070 N   0  0  0  0  0  0  0  0  0  0  0  0
   57.7600   32.1800   44.7650 C   0  0  0  0  0  0  0  0  0  0  0  0
   58.5550   33.2430   45.1200 C   0  0  0  0  0  0  0  0  0  0  0  0
   62.9216   33.8320   45.3980 H   0  0  0  0  0  0  0  0  0  0  0  0
   64.4386   33.4880   46.4983 H   0  0  0  0  0  0  0  0  0  0  0  0
   65.1572   34.1048   48.8567 H   0  0  0  0  0  0  0  0  0  0  0  0
   62.7220   31.5380   50.6410 H   0  0  0  0  0  0  0  0  0  0  0  0
   66.6400   30.2890   51.5910 H   0  0  0  0  0  0  0  0  0  0  0  0
   67.2100   32.7210   48.9300 H   0  0  0  0  0  0  0  0  0  0  0  0
   58.8163   26.2140   46.4071 H   0  0  0  0  0  0  0  0  0  0  0  0
   59.6474   34.4080   50.4720 H   0  0  0  0  0  0  0  0  0  0  0  0
   59.2484   35.4005   49.0289 H   0  0  0  0  0  0  0  0  0  0  0  0
   58.9056   33.6372   49.0289 H   0  0  0  0  0  0  0  0  0  0  0  0
   59.7061   35.1526   46.5886 H   0  0  0  0  0  0  0  0  0  0  0  0
   61.0253   34.5540   45.4921 H   0  0  0  0  0  0  0  0  0  0  0  0
   60.6292   31.7306   47.3377 H   0  0  0  0  0  0  0  0  0  0  0  0
   59.1802   29.8226   46.6772 H   0  0  0  0  0  0  0  0  0  0  0  0
   62.0790   33.8736   50.7131 H   0  0  0  0  0  0  0  0  0  0  0  0
   54.5960   25.8560   46.4150 H   0  0  0  0  0  0  0  0  0  0  0  0
   55.1510   27.9790   45.2030 H   0  0  0  0  0  0  0  0  0  0  0  0
   56.9484   32.3184   44.0356 H   0  0  0  0  0  0  0  0  0  0  0  0
   58.3657   34.2258   44.6636 H   0  0  0  0  0  0  0  0  0  0  0  0
  1  2  2  0
  2  3  1  0
  3  4  2  0
  4  5  1  0
  5  6  1  0
  6  7  1  0
  7  8  2  0
  7  9  1  0
  9 10  1  0
 10 11  1  0
  3 12  1  0
 12 13  2  0
 13 14  1  0
 13 15  1  0
 15 16  1  0
 16 17  1  0
 17 18  2  0
 18 19  1  0
 19 20  2  0
 20 21  1  0
 21 22  2  0
 21 23  1  0
 23 24  2  0
 24 25  1  0
 25 26  2  0
 26 27  1  0
 27 28  1  0
 20 29  1  0
 29 30  2  0
 15  2  1  0
 30 17  1  0
 10  5  2  0
 28 24  1  0
  1 31  1  0
  1 32  1  0
  4 33  1  0
  6 34  1  0
  9 35  1  0
 11 36  1  0
 12 37  1  0
 14 38  1  0
 14 39  1  0
 14 40  1  0
 16 41  1  0
 16 42  1  0
 18 43  1  0
 19 44  1  0
 25 45  1  0
 27 46  1  0
 28 47  1  0
 29 48  1  0
 30 49  1  0
M  END
>  <smiles>  (26) 
C=c1c(=Cc2[nH]c(=O)[nH]c2O)cc(C)n1Cc1ccc(C(=O)N=c2cn[nH][nH]2)cc1

>  <score_type>  (26) 
oracle

>  <origin>  (26) 
adg

>  <m_score__min__energy>  (26) 
-9.5899999999999999

>  <m_primary>  (26) 
energy

$$$$
26:0
     RDKit          3D

 42 44  0  0  0  0  0  0  0  0999 V2000
   59.5010   23.3620   45.6280 O   0  0  0  0  0  0  0  0  0  0  0  0
   58.2480   23.2380   45.5800 C   0  0  0  0  0  0  0  0  0  0  0  0
   57.6770   21.8720   45.3350 C   0  0  0  0  0  0  0  0  0  0  0  0
   57.2900   21.6120   43.4520 Br  0  0  0  0  0  0  0  0  0  0  0  0
   57.3880   24.4300   45.7730 C   0  0  0  0  0  0  0  0  0  0  0  0
   57.8000   25.7310   46.0590 C   0  0  0  0  0  0  0  0  0  0  0  0
   59.1570   26.1760   46.2220 N   0  0  0  0  0  0  0  0  0  0  0  0
   59.5170   27.3510   46.9670 C   0  0  0  0  0  0  0  0  0  0  0  0
   59.7670   27.2450   48.3390 C   0  0  0  0  0  0  0  0  0  0  0  0
   60.1090   28.3730   49.0840 C   0  0  0  0  0  0  0  0  0  0  0  0
   60.2350   29.6230   48.4690 C   0  0  0  0  0  0  0  0  0  0  0  0
   60.5020   30.7220   49.2890 O   0  0  0  0  0  0  0  0  0  0  0  0
   60.0770   29.7360   47.0650 C   0  0  0  0  0  0  0  0  0  0  0  0
   60.2530   31.0650   46.3510 C   0  0  0  0  0  0  0  0  0  0  0  0
   59.5400   32.1620   47.0410 N   0  0  0  0  0  0  0  0  0  0  0  0
   60.2500   33.4370   46.9050 C   0  0  0  0  0  0  0  0  0  0  0  0
   59.2080   34.5330   47.0550 C   0  0  0  0  0  0  0  0  0  0  0  0
   57.8740   33.8650   46.7600 C   0  0  0  0  0  0  0  0  0  0  0  0
   58.2030   32.4050   46.4860 C   0  0  0  0  0  0  0  0  0  0  0  0
   59.6790   28.5960   46.3360 C   0  0  0  0  0  0  0  0  0  0  0  0
   56.7610   26.5290   46.1630 O   0  0  0  0  0  0  0  0  0  0  0  0
   55.6810   25.8190   45.9500 C   0  0  0  0  0  0  0  0  0  0  0  0
   54.3940   26.3390   45.9880 O   0  0  0  0  0  0  0  0  0  0  0  0
   56.0020   24.5040   45.6950 C   0  0  0  0  0  0  0  0  0  0  0  0
   54.8420   23.2140   45.4290 Cl  0  0  0  0  0  0  0  0  0  0  0  0
   58.4040   21.1138   45.6614 H   0  0  0  0  0  0  0  0  0  0  0  0
   56.7401   21.7753   45.9033 H   0  0  0  0  0  0  0  0  0  0  0  0
   59.9330   25.5780   45.8630 H   0  0  0  0  0  0  0  0  0  0  0  0
   59.6933   26.2653   48.8337 H   0  0  0  0  0  0  0  0  0  0  0  0
   60.2815   28.2789   50.1663 H   0  0  0  0  0  0  0  0  0  0  0  0
   60.3560   31.6820   49.0080 H   0  0  0  0  0  0  0  0  0  0  0  0
   61.3251   31.3077   46.3111 H   0  0  0  0  0  0  0  0  0  0  0  0
   59.8300   30.9670   45.3403 H   0  0  0  0  0  0  0  0  0  0  0  0
   61.0151   33.5309   47.6898 H   0  0  0  0  0  0  0  0  0  0  0  0
   60.7599   33.5051   45.9327 H   0  0  0  0  0  0  0  0  0  0  0  0
   59.2184   34.9365   48.0783 H   0  0  0  0  0  0  0  0  0  0  0  0
   59.4016   35.3772   46.3768 H   0  0  0  0  0  0  0  0  0  0  0  0
   57.2008   33.9516   47.6256 H   0  0  0  0  0  0  0  0  0  0  0  0
   57.3616   34.3350   45.9076 H   0  0  0  0  0  0  0  0  0  0  0  0
   57.4652   31.7520   46.9751 H   0  0  0  0  0  0  0  0  0  0  0  0
   58.1773   32.1895   45.4076 H   0  0  0  0  0  0  0  0  0  0  0  0
   59.4923   28.6830   45.2555 H   0  0  0  0  0  0  0  0  0  0  0  0
  1  2  2  0
  2  3  1  0
  3  4  1  0
  2  5  1  0
  5  6  2  0
  6  7  1  0
  7  8  1  0
  8  9  2  0
  9 10  1  0
 10 11  2  0
 11 12  1  0
 11 13  1  0
 13 14  1  0
 14 15  1  0
 15 16  1  0
 16 17  1  0
 17 18  1  0
 18 19  1  0
 13 20  2  0
  6 21  1  0
 21 22  1  0
 22 23  1  0
 22 24  2  0
 24 25  1  0
 24  5  1  0
 20  8  1  0
 19 15  1  0
  3 26  1  0
  3 27  1  0
  7 28  1  0
  9 29  1  0
 10 30  1  0
 12 31  1  0
 14 32  1  0
 14 33  1  0
 16 34  1  0
 16 35  1  0
 17 36  1  0
 17 37  1  0
 18 38  1  0
 18 39  1  0
 19 40  1  0
 19 41  1  0
 20 42  1  0
M  CHG  1  23  -1
M  END
>  <UniqueID>  (27) 
24

>  <SMILES>  (27) 
O=C(CBr)c1c(Nc2ccc(O)c(CN3CCCC3)c2)oc([O-])c1Cl

>  <Energy>  (27) 
83.48512863556346

>  <Genealogy>  (27) 
O=C(CBr)c1c(Nc2ccc(O)c(CN3CCCC3)c2)oc([O-])c1Cl (protonated)
O=C(CBr)c1c(Nc2ccc(O)c(CN3CCCC3)c2)oc([O-])c1Cl (3D coordinates assigned)
O=C(CBr)c1c(Nc2ccc(O)c(CN3CCCC3)c2)oc([O-])c1Cl (nonaromatic ring conformer: 83.48512863556346 kcal/mol)

>  <smiles>  (27) 
O=C(CBr)c1c(Nc2ccc(O)c(CN3CCCC3)c2)oc(O)c1Cl

>  <score_type>  (27) 
oracle

>  <origin>  (27) 
adg

>  <m_score__min__energy>  (27) 
-10.609999999999999

>  <m_primary>  (27) 
energy

$$$$
27:0
     RDKit          3D

 31 32  0  0  0  0  0  0  0  0999 V2000
   61.5110   31.2200   47.4920 C   0  0  0  0  0  0  0  0  0  0  0  0
   60.2750   31.9250   47.5460 O   0  0  0  0  0  0  0  0  0  0  0  0
   59.3430   31.9730   46.4980 C   0  0  0  0  0  0  0  0  0  0  0  0
   58.6950   33.1860   46.2450 C   0  0  0  0  0  0  0  0  0  0  0  0
   57.7590   33.2940   45.2060 C   0  0  0  0  0  0  0  0  0  0  0  0
   57.0370   34.5870   44.9700 C   0  0  0  0  0  0  0  0  0  0  0  0
   57.4490   32.1640   44.4340 C   0  0  0  0  0  0  0  0  0  0  0  0
   58.0960   30.9410   44.6720 C   0  0  0  0  0  0  0  0  0  0  0  0
   57.7400   29.7230   43.8580 C   0  0  0  0  0  0  0  0  0  0  0  0
   57.5360   28.5250   44.7580 C   0  0  0  0  0  0  0  0  0  0  0  0
   56.2590   28.1880   45.2420 C   0  0  0  0  0  0  0  0  0  0  0  0
   55.1550   28.9780   44.9330 O   0  0  0  0  0  0  0  0  0  0  0  0
   56.0920   27.0870   46.0210 N   0  0  0  0  0  0  0  0  0  0  0  0
   57.1480   26.2910   46.3410 C   0  0  0  0  0  0  0  0  0  0  0  0
   56.9340   24.9680   47.2790 S   0  0  0  0  0  0  0  0  0  0  0  0
   58.3890   26.5920   45.8830 N   0  0  0  0  0  0  0  0  0  0  0  0
   58.6070   27.6800   45.1020 C   0  0  0  0  0  0  0  0  0  0  0  0
   59.7760   27.9210   44.6960 O   0  0  0  0  0  0  0  0  0  0  0  0
   59.0420   30.8500   45.7050 C   0  0  0  0  0  0  0  0  0  0  0  0
   61.8634   31.0190   48.5144 H   0  0  0  0  0  0  0  0  0  0  0  0
   61.3672   30.2680   46.9599 H   0  0  0  0  0  0  0  0  0  0  0  0
   62.2572   31.8284   46.9599 H   0  0  0  0  0  0  0  0  0  0  0  0
   58.9216   34.0644   46.8671 H   0  0  0  0  0  0  0  0  0  0  0  0
   56.7809   35.0456   45.9365 H   0  0  0  0  0  0  0  0  0  0  0  0
   57.6844   35.2698   44.4002 H   0  0  0  0  0  0  0  0  0  0  0  0
   56.1161   34.3940   44.4002 H   0  0  0  0  0  0  0  0  0  0  0  0
   56.6942   32.2369   43.6372 H   0  0  0  0  0  0  0  0  0  0  0  0
   56.8123   29.9189   43.3004 H   0  0  0  0  0  0  0  0  0  0  0  0
   58.5634   29.5080   43.1611 H   0  0  0  0  0  0  0  0  0  0  0  0
   55.1360   26.8540   46.3730 H   0  0  0  0  0  0  0  0  0  0  0  0
   59.5517   29.8941   45.8961 H   0  0  0  0  0  0  0  0  0  0  0  0
  1  2  1  0
  2  3  1  0
  3  4  2  0
  4  5  1  0
  5  6  1  0
  5  7  2  0
  7  8  1  0
  8  9  1  0
  9 10  1  0
 10 11  2  0
 11 12  1  0
 11 13  1  0
 13 14  1  0
 14 15  2  0
 14 16  1  0
 16 17  1  0
 17 18  2  0
  8 19  2  0
 19  3  1  0
 17 10  1  0
  1 20  1  0
  1 21  1  0
  1 22  1  0
  4 23  1  0
  6 24  1  0
  6 25  1  0
  6 26  1  0
  7 27  1  0
  9 28  1  0
  9 29  1  0
 13 30  1  0
 19 31  1  0
M  CHG  2  12  -1  16  -1
M  END
>  <UniqueID>  (28) 
25

>  <SMILES>  (28) 
COc1cc(C)cc(Cc2c([O-])[nH]c(=S)[n-]c2=O)c1

>  <Energy>  (28) 
30.98839525803767

>  <Genealogy>  (28) 
COc1cc(C)cc(Cc2c([O-])[nH]c(=S)[n-]c2=O)c1 (protonated)
COc1cc(C)cc(Cc2c([O-])[nH]c(=S)[n-]c2=O)c1 (3D coordinates assigned)
COc1cc(C)cc(Cc2c([O-])[nH]c(=S)[n-]c2=O)c1 (optimized conformer: 30.98839525803767 kcal/mol)

>  <smiles>  (28) 
COc1cc(C)cc(Cc2c(O)[nH]c(=S)[nH]c2=O)c1

>  <score_type>  (28) 
oracle

>  <origin>  (28) 
adg

>  <m_score__min__energy>  (28) 
-12.58

>  <m_primary>  (28) 
energy

$$$$
28:0
     RDKit          3D

 37 38  0  0  0  0  0  0  0  0999 V2000
   57.3799   21.6884   42.9002 H   0  0  0  0  0  0  0  0  0  0  0  0
   57.3860   22.4800   43.6640 C   0  0  0  0  0  0  0  0  0  0  0  0
   56.3450   23.4130   43.7120 C   0  0  0  0  0  0  0  0  0  0  0  0
   55.5183   23.3514   42.9890 H   0  0  0  0  0  0  0  0  0  0  0  0
   56.3540   24.4240   44.6780 C   0  0  0  0  0  0  0  0  0  0  0  0
   55.5309   25.1527   44.7167 H   0  0  0  0  0  0  0  0  0  0  0  0
   57.4120   24.5120   45.6000 C   0  0  0  0  0  0  0  0  0  0  0  0
   57.4060   25.5760   46.6630 C   0  0  0  0  0  0  0  0  0  0  0  0
   58.4414   25.8707   46.8889 H   0  0  0  0  0  0  0  0  0  0  0  0
   56.9246   25.1781   47.5685 H   0  0  0  0  0  0  0  0  0  0  0  0
   56.6440   26.7710   46.1880 C   0  0  0  0  0  0  0  0  0  0  0  0
   55.3990   26.6890   45.9990 O   0  0  0  0  0  0  0  0  0  0  0  0
   57.3400   27.9890   45.9120 N   0  0  0  0  0  0  0  0  0  0  0  0
   57.3780   28.5950   44.5890 C   0  0  0  0  0  0  0  0  0  0  0  0
   57.1845   27.8255   43.8272 H   0  0  0  0  0  0  0  0  0  0  0  0
   58.3695   29.0392   44.4167 H   0  0  0  0  0  0  0  0  0  0  0  0
   56.3330   29.6580   44.5000 C   0  0  0  0  0  0  0  0  0  0  0  0
   55.1170   29.3410   44.6100 O   0  0  0  0  0  0  0  0  0  0  0  0
   56.7370   31.0320   44.4000 N   0  0  0  0  0  0  0  0  0  0  0  0
   57.4360   31.7450   45.2430 C   0  0  0  0  0  0  0  0  0  0  0  0
   57.5640   33.1460   45.1340 C   0  0  0  0  0  0  0  0  0  0  0  0
   57.0615   33.6856   44.3178 H   0  0  0  0  0  0  0  0  0  0  0  0
   58.3320   33.8430   46.0680 C   0  0  0  0  0  0  0  0  0  0  0  0
   58.4388   34.9346   45.9849 H   0  0  0  0  0  0  0  0  0  0  0  0
   58.9660   33.1580   47.1090 C   0  0  0  0  0  0  0  0  0  0  0  0
   59.8220   33.8910   48.0970 C   0  0  0  0  0  0  0  0  0  0  0  0
   59.5121   33.6256   49.1185 H   0  0  0  0  0  0  0  0  0  0  0  0
   60.8753   33.6105   47.9488 H   0  0  0  0  0  0  0  0  0  0  0  0
   59.7069   34.9749   47.9488 H   0  0  0  0  0  0  0  0  0  0  0  0
   58.8500   31.7650   47.1650 C   0  0  0  0  0  0  0  0  0  0  0  0
   59.3686   31.2048   47.9570 H   0  0  0  0  0  0  0  0  0  0  0  0
   58.0990   31.0980   46.2450 N   0  0  0  0  0  0  0  0  0  0  0  0
   58.0280   30.0580   46.3240 H   0  0  0  0  0  0  0  0  0  0  0  0
   58.4460   23.5610   45.5550 C   0  0  0  0  0  0  0  0  0  0  0  0
   59.2676   23.6099   46.2847 H   0  0  0  0  0  0  0  0  0  0  0  0
   58.4340   22.5530   44.5860 C   0  0  0  0  0  0  0  0  0  0  0  0
   59.2503   21.8166   44.5492 H   0  0  0  0  0  0  0  0  0  0  0  0
  1  2  1  0
  2  3  2  0
  3  4  1  0
  3  5  1  0
  5  6  1  0
  5  7  2  0
  7  8  1  0
  8  9  1  0
  8 10  1  0
  8 11  1  0
 11 12  2  0
 11 13  1  0
 13 14  1  0
 14 15  1  0
 14 16  1  0
 14 17  1  0
 17 18  2  0
 17 19  1  0
 19 20  2  0
 20 21  1  0
 21 22  1  0
 21 23  2  0
 23 24  1  0
 23 25  1  0
 25 26  1  0
 26 27  1  0
 26 28  1  0
 26 29  1  0
 25 30  2  0
 30 31  1  0
 30 32  1  0
 32 33  1  0
  7 34  1  0
 34 35  1  0
 34 36  2  0
 36 37  1  0
 36  2  1  0
 32 20  1  0
M  CHG  1  13  -1
M  END
>  <UniqueID>  (29) 
26

>  <SMILES>  (29) 
Cc1cc/c(=N\C(=O)C[N-]C(=O)Cc2ccccc2)[nH]c1

>  <Energy>  (29) 
38.61675978479347

>  <Genealogy>  (29) 
Cc1ccc(=NC(=O)C[N-]C(=O)Cc2ccccc2)[nH]c1 (protonated)
Cc1cc/c(=N\C(=O)C[N-]C(=O)Cc2ccccc2)[nH]c1 (cis-trans isomerization)
Cc1cc/c(=N\C(=O)C[N-]C(=O)Cc2ccccc2)[nH]c1 (3D coordinates assigned)
Cc1cc/c(=N\C(=O)C[N-]C(=O)Cc2ccccc2)[nH]c1 (optimized conformer: 38.61675978479347 kcal/mol)

>  <smiles>  (29) 
Cc1ccc(=NC(=O)CNC(=O)Cc2ccccc2)[nH]c1

>  <score_type>  (29) 
oracle

>  <origin>  (29) 
adg

>  <m_score__min__energy>  (29) 
-9.2799999999999994

>  <m_primary>  (29) 
energy

$$$$
29:0
     RDKit          3D

 45 46  0  0  0  0  0  0  0  0999 V2000
   58.4427   27.5796   47.1206 H   0  0  0  0  0  0  0  0  0  0  0  0
   59.0010   27.7540   46.1890 C   0  0  0  0  0  0  0  0  0  0  0  0
   58.7631   27.1699   45.2877 H   0  0  0  0  0  0  0  0  0  0  0  0
   59.9720   28.6790   46.1520 C   0  0  0  0  0  0  0  0  0  0  0  0
   60.7250   28.9030   44.8670 C   0  0  0  0  0  0  0  0  0  0  0  0
   61.7564   29.2098   45.0951 H   0  0  0  0  0  0  0  0  0  0  0  0
   60.7404   27.9705   44.2837 H   0  0  0  0  0  0  0  0  0  0  0  0
   60.2282   29.6923   44.2837 H   0  0  0  0  0  0  0  0  0  0  0  0
   60.3400   29.4440   47.4020 C   0  0  0  0  0  0  0  0  0  0  0  0
   59.7035   29.1051   48.2326 H   0  0  0  0  0  0  0  0  0  0  0  0
   61.3997   29.2570   47.6304 H   0  0  0  0  0  0  0  0  0  0  0  0
   60.1490   30.8820   47.2070 N   0  0  0  0  0  0  0  0  0  0  0  0
   59.2130   31.1810   46.8510 H   0  0  0  0  0  0  0  0  0  0  0  0
   61.1700   31.8760   47.4410 C   0  0  0  0  0  0  0  0  0  0  0  0
   62.5280   31.5670   47.2340 C   0  0  0  0  0  0  0  0  0  0  0  0
   62.8127   30.5482   46.9325 H   0  0  0  0  0  0  0  0  0  0  0  0
   63.5170   32.5350   47.4060 C   0  0  0  0  0  0  0  0  0  0  0  0
   64.5728   32.2771   47.2363 H   0  0  0  0  0  0  0  0  0  0  0  0
   63.1710   33.8270   47.7920 C   0  0  0  0  0  0  0  0  0  0  0  0
   63.9531   34.5889   47.9252 H   0  0  0  0  0  0  0  0  0  0  0  0
   61.8330   34.1560   48.0100 C   0  0  0  0  0  0  0  0  0  0  0  0
   61.5677   35.1772   48.3212 H   0  0  0  0  0  0  0  0  0  0  0  0
   60.8180   33.1950   47.8360 C   0  0  0  0  0  0  0  0  0  0  0  0
   59.4090   33.5440   48.1440 C   0  0  0  0  0  0  0  0  0  0  0  0
   58.9135   33.0391   48.9863 H   0  0  0  0  0  0  0  0  0  0  0  0
   58.7170   34.4450   47.4420 C   0  0  0  0  0  0  0  0  0  0  0  0
   58.2637   35.3057   47.9556 H   0  0  0  0  0  0  0  0  0  0  0  0
   58.5250   34.2670   45.7070 S   0  0  0  0  0  0  0  0  0  0  0  0
   59.4360   35.2470   45.0250 O   0  0  0  0  0  0  0  0  0  0  0  0
   57.0910   34.5530   45.3620 O   0  0  0  0  0  0  0  0  0  0  0  0
   58.9280   32.6340   45.2770 N   0  0  0  0  0  0  0  0  0  0  0  0
   58.1560   31.6820   44.8360 C   0  0  0  0  0  0  0  0  0  0  0  0
   57.6120   30.8090   45.6520 O   0  0  0  0  0  0  0  0  0  0  0  0
   56.8930   29.9510   44.9950 N   0  0  0  0  0  0  0  0  0  0  0  0
   56.3680   29.1590   45.4280 H   0  0  0  0  0  0  0  0  0  0  0  0
   56.9590   30.2590   43.6880 C   0  0  0  0  0  0  0  0  0  0  0  0
   56.2690   29.4830   42.6100 C   0  0  0  0  0  0  0  0  0  0  0  0
   55.6037   28.7347   43.0654 H   0  0  0  0  0  0  0  0  0  0  0  0
   55.6769   30.1688   41.9862 H   0  0  0  0  0  0  0  0  0  0  0  0
   57.0193   28.9752   41.9862 H   0  0  0  0  0  0  0  0  0  0  0  0
   57.7590   31.3820   43.5260 C   0  0  0  0  0  0  0  0  0  0  0  0
   58.1280   32.0130   42.2170 C   0  0  0  0  0  0  0  0  0  0  0  0
   58.6753   32.9490   42.4025 H   0  0  0  0  0  0  0  0  0  0  0  0
   58.7650   31.3231   41.6440 H   0  0  0  0  0  0  0  0  0  0  0  0
   57.2144   32.2299   41.6440 H   0  0  0  0  0  0  0  0  0  0  0  0
  1  2  1  0
  2  3  1  0
  2  4  2  0
  4  5  1  0
  5  6  1  0
  5  7  1  0
  5  8  1  0
  4  9  1  0
  9 10  1  0
  9 11  1  0
  9 12  1  0
 12 13  1  0
 12 14  1  0
 14 15  2  0
 15 16  1  0
 15 17  1  0
 17 18  1  0
 17 19  2  0
 19 20  1  0
 19 21  1  0
 21 22  1  0
 21 23  2  0
 23 24  1  0
 24 25  1  0
 24 26  2  0
 26 27  1  0
 26 28  1  0
 28 29  2  0
 28 30  2  0
 28 31  1  0
 31 32  2  3
 32 33  1  0
 33 34  1  0
 34 35  1  0
 34 36  1  0
 36 37  1  0
 37 38  1  0
 37 39  1  0
 37 40  1  0
 36 41  2  0
 41 42  1  0
 42 43  1  0
 42 44  1  0
 42 45  1  0
 23 14  1  0
 41 32  1  0
M  END
>  <UniqueID>  (30) 
27

>  <SMILES>  (30) 
C=C(C)CNc1ccccc1/C=C/S(=O)(=O)N=c1o[nH]c(C)c1C

>  <Energy>  (30) 
85.28271641994989

>  <Genealogy>  (30) 
C=C(C)CNc1ccccc1/C=C/S(=O)(=O)N=c1o[nH]c(C)c1C (cis-trans isomerization)
C=C(C)CNc1ccccc1/C=C/S(=O)(=O)N=c1o[nH]c(C)c1C (3D coordinates assigned)
C=C(C)CNc1ccccc1/C=C/S(=O)(=O)N=c1o[nH]c(C)c1C (optimized conformer: 85.28271641994989 kcal/mol)

>  <smiles>  (30) 
C=C(C)CNc1ccccc1C=CS(=O)(=O)N=c1o[nH]c(C)c1C

>  <score_type>  (30) 
oracle

>  <origin>  (30) 
adg

>  <m_score__min__energy>  (30) 
-8.6799999999999997

>  <m_primary>  (30) 
energy

$$$$
30:0
     RDKit          3D

 40 42  0  0  0  0  0  0  0  0999 V2000
   59.3170   33.3220   51.4440 C   0  0  0  0  0  0  0  0  0  0  0  0
   59.3250   32.8250   49.7330 S   0  0  0  0  0  0  0  0  0  0  0  0
   58.1590   31.9220   49.4430 O   0  0  0  0  0  0  0  0  0  0  0  0
   60.5960   32.0730   49.4620 O   0  0  0  0  0  0  0  0  0  0  0  0
   59.2680   34.2200   48.7010 N   0  0  0  0  0  0  0  0  0  0  0  0
   59.0460   34.1710   47.2800 C   0  0  0  0  0  0  0  0  0  0  0  0
   59.4760   35.2460   46.4870 C   0  0  0  0  0  0  0  0  0  0  0  0
   59.2840   35.2310   45.1060 C   0  0  0  0  0  0  0  0  0  0  0  0
   58.6590   34.1420   44.4960 C   0  0  0  0  0  0  0  0  0  0  0  0
   58.2190   33.0500   45.2650 C   0  0  0  0  0  0  0  0  0  0  0  0
   57.5560   31.9010   44.5970 C   0  0  0  0  0  0  0  0  0  0  0  0
   57.4040   31.7710   43.2120 C   0  0  0  0  0  0  0  0  0  0  0  0
   56.6430   30.3020   42.8970 S   0  0  0  0  0  0  0  0  0  0  0  0
   56.5410   29.8980   44.5200 C   0  0  0  0  0  0  0  0  0  0  0  0
   56.0340   28.7900   44.9610 N   0  0  0  0  0  0  0  0  0  0  0  0
   56.9930   27.5090   45.6310 S   0  0  0  0  0  0  0  0  0  0  0  0
   57.4730   26.6160   44.5220 O   0  0  0  0  0  0  0  0  0  0  0  0
   56.1410   26.7050   46.5740 O   0  0  0  0  0  0  0  0  0  0  0  0
   58.3910   28.1740   46.4720 C   0  0  0  0  0  0  0  0  0  0  0  0
   59.3810   28.8510   45.7470 C   0  0  0  0  0  0  0  0  0  0  0  0
   60.4750   29.4180   46.4110 C   0  0  0  0  0  0  0  0  0  0  0  0
   60.5850   29.3070   47.8000 C   0  0  0  0  0  0  0  0  0  0  0  0
   59.6020   28.6280   48.5270 C   0  0  0  0  0  0  0  0  0  0  0  0
   58.5070   28.0620   47.8660 C   0  0  0  0  0  0  0  0  0  0  0  0
   57.0710   30.8510   45.3150 N   0  0  0  0  0  0  0  0  0  0  0  0
   58.4280   33.0690   46.6580 C   0  0  0  0  0  0  0  0  0  0  0  0
   59.3314   32.4285   52.0854 H   0  0  0  0  0  0  0  0  0  0  0  0
   60.2054   33.9366   51.6514 H   0  0  0  0  0  0  0  0  0  0  0  0
   58.4093   33.9077   51.6514 H   0  0  0  0  0  0  0  0  0  0  0  0
   59.3100   35.1510   49.1720 H   0  0  0  0  0  0  0  0  0  0  0  0
   59.9691   36.1085   46.9592 H   0  0  0  0  0  0  0  0  0  0  0  0
   59.6260   36.0797   44.4955 H   0  0  0  0  0  0  0  0  0  0  0  0
   58.5096   34.1380   43.4062 H   0  0  0  0  0  0  0  0  0  0  0  0
   57.7266   32.5036   42.4575 H   0  0  0  0  0  0  0  0  0  0  0  0
   59.2981   28.9370   44.6535 H   0  0  0  0  0  0  0  0  0  0  0  0
   61.2488   29.9513   45.8393 H   0  0  0  0  0  0  0  0  0  0  0  0
   61.4446   29.7536   48.3212 H   0  0  0  0  0  0  0  0  0  0  0  0
   59.6901   28.5390   49.6198 H   0  0  0  0  0  0  0  0  0  0  0  0
   57.7353   27.5281   48.4399 H   0  0  0  0  0  0  0  0  0  0  0  0
   58.1044   32.2124   47.2675 H   0  0  0  0  0  0  0  0  0  0  0  0
  1  2  1  0
  2  3  2  0
  2  4  2  0
  2  5  1  0
  5  6  1  0
  6  7  2  0
  7  8  1  0
  8  9  2  0
  9 10  1  0
 10 11  1  0
 11 12  2  0
 12 13  1  0
 13 14  1  0
 14 15  2  3
 15 16  1  0
 16 17  2  0
 16 18  2  0
 16 19  1  0
 19 20  2  0
 20 21  1  0
 21 22  2  0
 22 23  1  0
 23 24  2  0
 14 25  1  0
 10 26  2  0
 26  6  1  0
 25 11  1  0
 24 19  1  0
  1 27  1  0
  1 28  1  0
  1 29  1  0
  5 30  1  0
  7 31  1  0
  8 32  1  0
  9 33  1  0
 12 34  1  0
 20 35  1  0
 21 36  1  0
 22 37  1  0
 23 38  1  0
 24 39  1  0
 26 40  1  0
M  CHG  1  25  -1
M  END
>  <UniqueID>  (31) 
28

>  <SMILES>  (31) 
CS(=O)(=O)Nc1cccc(-c2csc(=NS(=O)(=O)c3ccccc3)[n-]2)c1

>  <Energy>  (31) 
74.74053646510032

>  <Genealogy>  (31) 
CS(=O)(=O)Nc1cccc(-c2csc(=NS(=O)(=O)c3ccccc3)[n-]2)c1 (protonated)
CS(=O)(=O)Nc1cccc(-c2csc(=NS(=O)(=O)c3ccccc3)[n-]2)c1 (3D coordinates assigned)
CS(=O)(=O)Nc1cccc(-c2csc(=NS(=O)(=O)c3ccccc3)[n-]2)c1 (optimized conformer: 74.74053646510032 kcal/mol)

>  <smiles>  (31) 
CS(=O)(=O)Nc1cccc(-c2csc(=NS(=O)(=O)c3ccccc3)[nH]2)c1

>  <score_type>  (31) 
oracle

>  <origin>  (31) 
adg

>  <m_score__min__energy>  (31) 
-11.09

>  <m_primary>  (31) 
energy

$$$$
31:0
     RDKit          3D

 76 80  0  0  0  0  0  0  0  0999 V2000
   60.3250   26.5570   46.5800 C   0  0  0  0  0  0  0  0  0  0  0  0
   60.2620   27.9580   47.1300 C   0  0  0  0  0  0  0  0  0  0  0  0
   59.8730   28.1540   48.4660 C   0  0  0  0  0  0  0  0  0  0  0  0
   59.7980   29.4390   49.0040 C   0  0  0  0  0  0  0  0  0  0  0  0
   60.1030   30.5550   48.2160 C   0  0  0  0  0  0  0  0  0  0  0  0
   60.0020   31.9420   48.7930 C   0  0  0  0  0  0  0  0  0  0  0  0
   59.7650   32.9290   47.7270 N   0  0  0  0  0  0  0  0  0  0  0  0
   58.6530   32.7920   46.9390 C   0  0  0  0  0  0  0  0  0  0  0  0
   58.3880   33.6970   45.9010 C   0  0  0  0  0  0  0  0  0  0  0  0
   57.1650   33.5340   45.0400 C   0  0  0  0  0  0  0  0  0  0  0  0
   57.3860   32.4930   44.0370 N   0  0  0  0  0  0  0  0  0  0  0  0
   57.3510   31.2130   44.2650 C   0  0  0  0  0  0  0  0  0  0  0  0
   57.3170   30.3180   43.2410 N   0  0  0  0  0  0  0  0  0  0  0  0
   57.3080   28.9810   43.4720 C   0  0  0  0  0  0  0  0  0  0  0  0
   57.3460   28.4920   44.7880 C   0  0  0  0  0  0  0  0  0  0  0  0
   57.3950   27.0320   45.0640 C   0  0  0  0  0  0  0  0  0  0  0  0
   57.0040   26.5250   46.3170 C   0  0  0  0  0  0  0  0  0  0  0  0
   56.9920   25.1470   46.5530 C   0  0  0  0  0  0  0  0  0  0  0  0
   57.3860   24.2510   45.5480 C   0  0  0  0  0  0  0  0  0  0  0  0
   57.2880   22.7640   45.7720 C   0  0  0  0  0  0  0  0  0  0  0  0
   56.3030   22.1440   44.7620 C   0  0  0  0  0  0  0  0  0  0  0  0
   54.8790   22.4460   45.0200 N   0  0  0  0  0  0  0  0  0  0  0  0
   54.4240   23.7150   44.4250 C   0  0  0  0  0  0  0  0  0  0  0  0
   52.8890   23.8450   44.5480 C   0  0  0  0  0  0  0  0  0  0  0  0
   52.3100   22.7030   45.2860 N   0  0  0  0  0  0  0  0  0  0  0  0
   50.8620   22.8920   45.4610 C   0  0  0  0  0  0  0  0  0  0  0  0
   52.9680   22.5430   46.5990 C   0  0  0  0  0  0  0  0  0  0  0  0
   54.4910   22.3580   46.4400 C   0  0  0  0  0  0  0  0  0  0  0  0
   57.7870   24.7520   44.3000 C   0  0  0  0  0  0  0  0  0  0  0  0
   57.7950   26.1290   44.0600 C   0  0  0  0  0  0  0  0  0  0  0  0
   57.3720   29.4350   45.8270 C   0  0  0  0  0  0  0  0  0  0  0  0
   57.3750   30.7630   45.5460 N   0  0  0  0  0  0  0  0  0  0  0  0
   59.2620   34.7700   45.7030 C   0  0  0  0  0  0  0  0  0  0  0  0
   60.3760   34.9180   46.5220 C   0  0  0  0  0  0  0  0  0  0  0  0
   60.6190   33.9880   47.5360 C   0  0  0  0  0  0  0  0  0  0  0  0
   61.6360   34.1360   48.2670 O   0  0  0  0  0  0  0  0  0  0  0  0
   60.4650   30.3710   46.8720 C   0  0  0  0  0  0  0  0  0  0  0  0
   60.5470   29.0820   46.3190 C   0  0  0  0  0  0  0  0  0  0  0  0
   60.9570   28.9220   44.8770 C   0  0  0  0  0  0  0  0  0  0  0  0
   60.3573   25.8377   47.4116 H   0  0  0  0  0  0  0  0  0  0  0  0
   59.4346   26.3648   45.9634 H   0  0  0  0  0  0  0  0  0  0  0  0
   61.2291   26.4455   45.9634 H   0  0  0  0  0  0  0  0  0  0  0  0
   59.6251   27.2855   49.0939 H   0  0  0  0  0  0  0  0  0  0  0  0
   59.4975   29.5760   50.0533 H   0  0  0  0  0  0  0  0  0  0  0  0
   59.1680   31.9760   49.5094 H   0  0  0  0  0  0  0  0  0  0  0  0
   60.9477   32.1859   49.2992 H   0  0  0  0  0  0  0  0  0  0  0  0
   57.9576   31.9598   47.1231 H   0  0  0  0  0  0  0  0  0  0  0  0
   56.3104   33.2526   45.6729 H   0  0  0  0  0  0  0  0  0  0  0  0
   56.9578   34.4856   44.5286 H   0  0  0  0  0  0  0  0  0  0  0  0
   57.2708   28.2784   42.6265 H   0  0  0  0  0  0  0  0  0  0  0  0
   56.7054   27.2183   47.1171 H   0  0  0  0  0  0  0  0  0  0  0  0
   56.6716   24.7630   47.5328 H   0  0  0  0  0  0  0  0  0  0  0  0
   58.2807   22.3092   45.6392 H   0  0  0  0  0  0  0  0  0  0  0  0
   56.9254   22.5752   46.7932 H   0  0  0  0  0  0  0  0  0  0  0  0
   56.5569   22.5214   43.7605 H   0  0  0  0  0  0  0  0  0  0  0  0
   56.4101   21.0531   44.8545 H   0  0  0  0  0  0  0  0  0  0  0  0
   54.9026   24.5544   44.9507 H   0  0  0  0  0  0  0  0  0  0  0  0
   54.7003   23.7304   43.3604 H   0  0  0  0  0  0  0  0  0  0  0  0
   52.6501   24.7757   45.0835 H   0  0  0  0  0  0  0  0  0  0  0  0
   52.4597   23.8571   43.5353 H   0  0  0  0  0  0  0  0  0  0  0  0
   50.6234   22.9231   46.5344 H   0  0  0  0  0  0  0  0  0  0  0  0
   50.5561   23.8377   44.9898 H   0  0  0  0  0  0  0  0  0  0  0  0
   50.3236   22.0565   44.9898 H   0  0  0  0  0  0  0  0  0  0  0  0
   52.7769   23.4390   47.2078 H   0  0  0  0  0  0  0  0  0  0  0  0
   52.5572   21.6474   47.0880 H   0  0  0  0  0  0  0  0  0  0  0  0
   55.0118   23.1441   47.0065 H   0  0  0  0  0  0  0  0  0  0  0  0
   54.7696   21.3651   46.8229 H   0  0  0  0  0  0  0  0  0  0  0  0
   58.0969   24.0569   43.5058 H   0  0  0  0  0  0  0  0  0  0  0  0
   58.1162   26.5103   43.0794 H   0  0  0  0  0  0  0  0  0  0  0  0
   57.3900   29.0966   46.8735 H   0  0  0  0  0  0  0  0  0  0  0  0
   59.0686   35.4966   44.9000 H   0  0  0  0  0  0  0  0  0  0  0  0
   61.0631   35.7638   46.3722 H   0  0  0  0  0  0  0  0  0  0  0  0
   60.6871   31.2466   46.2444 H   0  0  0  0  0  0  0  0  0  0  0  0
   61.9808   28.5225   44.8291 H   0  0  0  0  0  0  0  0  0  0  0  0
   60.2682   28.2267   44.3749 H   0  0  0  0  0  0  0  0  0  0  0  0
   60.9212   29.9001   44.3749 H   0  0  0  0  0  0  0  0  0  0  0  0
  1  2  1  0
  2  3  2  0
  3  4  1  0
  4  5  2  0
  5  6  1  0
  6  7  1  0
  7  8  1  0
  8  9  2  0
  9 10  1  0
 10 11  1  0
 11 12  2  3
 12 13  1  0
 13 14  2  0
 14 15  1  0
 15 16  1  0
 16 17  2  0
 17 18  1  0
 18 19  2  0
 19 20  1  0
 20 21  1  0
 21 22  1  0
 22 23  1  0
 23 24  1  0
 24 25  1  0
 25 26  1  0
 25 27  1  0
 27 28  1  0
 19 29  1  0
 29 30  2  0
 15 31  2  0
 31 32  1  0
  9 33  1  0
 33 34  2  0
 34 35  1  0
 35 36  2  0
  5 37  1  0
 37 38  2  0
 38 39  1  0
 38  2  1  0
 35  7  1  0
 32 12  1  0
 30 16  1  0
 28 22  1  0
  1 40  1  0
  1 41  1  0
  1 42  1  0
  3 43  1  0
  4 44  1  0
  6 45  1  0
  6 46  1  0
  8 47  1  0
 10 48  1  0
 10 49  1  0
 14 50  1  0
 17 51  1  0
 18 52  1  0
 20 53  1  0
 20 54  1  0
 21 55  1  0
 21 56  1  0
 23 57  1  0
 23 58  1  0
 24 59  1  0
 24 60  1  0
 26 61  1  0
 26 62  1  0
 26 63  1  0
 27 64  1  0
 27 65  1  0
 28 66  1  0
 28 67  1  0
 29 68  1  0
 30 69  1  0
 31 70  1  0
 33 71  1  0
 34 72  1  0
 37 73  1  0
 39 74  1  0
 39 75  1  0
 39 76  1  0
M  CHG  1  32  -1
M  END
>  <UniqueID>  (32) 
29

>  <SMILES>  (32) 
Cc1ccc(Cn2cc(CN=c3ncc(-c4ccc(CCN5CCN(C)CC5)cc4)c[n-]3)ccc2=O)cc1C

>  <Energy>  (32) 
98.2128311863213

>  <Genealogy>  (32) 
Cc1ccc(Cn2cc(CN=c3ncc(-c4ccc(CCN5CCN(C)CC5)cc4)c[n-]3)ccc2=O)cc1C (protonated)
Cc1ccc(Cn2cc(CN=c3ncc(-c4ccc(CCN5CCN(C)CC5)cc4)c[n-]3)ccc2=O)cc1C (3D coordinates assigned)
Cc1ccc(Cn2cc(CN=c3ncc(-c4ccc(CCN5CCN(C)CC5)cc4)c[n-]3)ccc2=O)cc1C (nonaromatic ring conformer: 98.2128311863213 kcal/mol)

>  <smiles>  (32) 
Cc1ccc(Cn2cc(CN=c3ncc(-c4ccc(CCN5CCN(C)CC5)cc4)c[nH]3)ccc2=O)cc1C

>  <score_type>  (32) 
oracle

>  <origin>  (32) 
adg

>  <m_score__min__energy>  (32) 
-11.119999999999999

>  <m_primary>  (32) 
energy

$$$$
32:0
     RDKit          3D

 44 46  0  0  0  0  0  0  0  0999 V2000
   57.6080   30.2830   46.3620 N   0  0  0  0  0  0  0  0  0  0  0  0
   58.6050   29.4040   46.9050 C   0  0  0  0  0  0  0  0  0  0  0  0
   58.8180   28.1250   46.3220 C   0  0  0  0  0  0  0  0  0  0  0  0
   58.1450   27.6860   45.0350 C   0  0  0  0  0  0  0  0  0  0  0  0
   58.3490   28.7090   43.9040 C   0  0  0  0  0  0  0  0  0  0  0  0
   57.0370   29.1800   43.2550 C   0  0  0  0  0  0  0  0  0  0  0  0
   56.1070   29.8000   44.2550 C   0  0  0  0  0  0  0  0  0  0  0  0
   56.1710   31.0320   44.5000 O   0  0  0  0  0  0  0  0  0  0  0  0
   55.1510   29.0210   44.8950 O   0  0  0  0  0  0  0  0  0  0  0  0
   59.7560   27.2530   46.8950 C   0  0  0  0  0  0  0  0  0  0  0  0
   60.4810   27.6260   48.0200 C   0  0  0  0  0  0  0  0  0  0  0  0
   60.2940   28.8810   48.5880 C   0  0  0  0  0  0  0  0  0  0  0  0
   59.3700   29.7930   48.0440 C   0  0  0  0  0  0  0  0  0  0  0  0
   59.2050   31.0820   48.6860 N   0  0  0  0  0  0  0  0  0  0  0  0
   59.6460   32.1470   47.8040 C   0  0  0  0  0  0  0  0  0  0  0  0
   58.6610   32.9130   47.1510 C   0  0  0  0  0  0  0  0  0  0  0  0
   59.0040   33.9500   46.2870 C   0  0  0  0  0  0  0  0  0  0  0  0
   60.3400   34.2510   46.0490 C   0  0  0  0  0  0  0  0  0  0  0  0
   61.3530   33.5110   46.6710 C   0  0  0  0  0  0  0  0  0  0  0  0
   62.6950   33.8290   46.4110 C   0  0  0  0  0  0  0  0  0  0  0  0
   63.7210   33.1040   47.0110 C   0  0  0  0  0  0  0  0  0  0  0  0
   63.4190   32.0530   47.8730 C   0  0  0  0  0  0  0  0  0  0  0  0
   62.0900   31.7210   48.1460 C   0  0  0  0  0  0  0  0  0  0  0  0
   61.0250   32.4420   47.5560 C   0  0  0  0  0  0  0  0  0  0  0  0
   57.8500   31.2090   45.9530 H   0  0  0  0  0  0  0  0  0  0  0  0
   56.5960   30.0320   46.3870 H   0  0  0  0  0  0  0  0  0  0  0  0
   58.5700   26.7207   44.7226 H   0  0  0  0  0  0  0  0  0  0  0  0
   57.0653   27.5999   45.2267 H   0  0  0  0  0  0  0  0  0  0  0  0
   58.8665   29.5867   44.3184 H   0  0  0  0  0  0  0  0  0  0  0  0
   58.9355   28.2090   43.1191 H   0  0  0  0  0  0  0  0  0  0  0  0
   57.2714   29.9237   42.4792 H   0  0  0  0  0  0  0  0  0  0  0  0
   56.5359   28.3006   42.8243 H   0  0  0  0  0  0  0  0  0  0  0  0
   59.9195   26.2614   46.4478 H   0  0  0  0  0  0  0  0  0  0  0  0
   61.2051   26.9262   48.4626 H   0  0  0  0  0  0  0  0  0  0  0  0
   60.8771   29.1657   49.4762 H   0  0  0  0  0  0  0  0  0  0  0  0
   59.7050   31.0730   49.5990 H   0  0  0  0  0  0  0  0  0  0  0  0
   58.2150   31.2620   48.9560 H   0  0  0  0  0  0  0  0  0  0  0  0
   57.5988   32.6876   47.3270 H   0  0  0  0  0  0  0  0  0  0  0  0
   58.2144   34.5333   45.7908 H   0  0  0  0  0  0  0  0  0  0  0  0
   60.6027   35.0745   45.3687 H   0  0  0  0  0  0  0  0  0  0  0  0
   62.9379   34.6567   45.7285 H   0  0  0  0  0  0  0  0  0  0  0  0
   64.7702   33.3615   46.8041 H   0  0  0  0  0  0  0  0  0  0  0  0
   64.2326   31.4803   48.3422 H   0  0  0  0  0  0  0  0  0  0  0  0
   61.8683   30.8877   48.8290 H   0  0  0  0  0  0  0  0  0  0  0  0
  1  2  1  0
  2  3  2  0
  3  4  1  0
  4  5  1  0
  5  6  1  0
  6  7  1  0
  7  8  2  0
  7  9  1  0
  3 10  1  0
 10 11  2  0
 11 12  1  0
 12 13  2  0
 13 14  1  0
 14 15  1  0
 15 16  2  0
 16 17  1  0
 17 18  2  0
 18 19  1  0
 19 20  2  0
 20 21  1  0
 21 22  2  0
 22 23  1  0
 23 24  2  0
 13  2  1  0
 24 15  1  0
 24 19  1  0
  1 25  1  0
  1 26  1  0
  4 27  1  0
  4 28  1  0
  5 29  1  0
  5 30  1  0
  6 31  1  0
  6 32  1  0
 10 33  1  0
 11 34  1  0
 12 35  1  0
 14 36  1  0
 14 37  1  0
 16 38  1  0
 17 39  1  0
 18 40  1  0
 20 41  1  0
 21 42  1  0
 22 43  1  0
 23 44  1  0
M  CHG  2   9  -1  14   1
M  END
>  <UniqueID>  (33) 
30

>  <SMILES>  (33) 
Nc1c(CCCC(=O)[O-])cccc1[NH2+]c1cccc2ccccc12

>  <Energy>  (33) 
59.71509836852445

>  <Genealogy>  (33) 
Nc1c(CCCC(=O)[O-])cccc1[NH2+]c1cccc2ccccc12 (protonated)
Nc1c(CCCC(=O)[O-])cccc1[NH2+]c1cccc2ccccc12 (3D coordinates assigned)
Nc1c(CCCC(=O)[O-])cccc1[NH2+]c1cccc2ccccc12 (optimized conformer: 59.71509836852445 kcal/mol)

>  <smiles>  (33) 
Nc1c(CCCC(=O)O)cccc1Nc1cccc2ccccc12

>  <score_type>  (33) 
oracle

>  <origin>  (33) 
adg

>  <m_score__min__energy>  (33) 
-9.3599999999999994

>  <m_primary>  (33) 
energy

$$$$
33:0
     RDKit          3D

 47 50  0  0  0  0  0  0  0  0999 V2000
   54.6670   26.2790   45.9400 N   0  0  0  0  0  0  0  0  0  0  0  0
   56.1350   25.3720   46.0390 S   0  0  0  0  0  0  0  0  0  0  0  0
   56.3590   24.6310   44.7500 O   0  0  0  0  0  0  0  0  0  0  0  0
   56.0270   24.3730   47.1580 O   0  0  0  0  0  0  0  0  0  0  0  0
   57.4840   26.4630   46.3370 C   0  0  0  0  0  0  0  0  0  0  0  0
   58.5860   26.0410   47.1120 C   0  0  0  0  0  0  0  0  0  0  0  0
   59.6640   26.9090   47.3600 C   0  0  0  0  0  0  0  0  0  0  0  0
   59.6210   28.2000   46.8320 C   0  0  0  0  0  0  0  0  0  0  0  0
   60.5920   29.1330   47.0040 N   0  0  0  0  0  0  0  0  0  0  0  0
   60.2660   30.2880   46.3790 C   0  0  0  0  0  0  0  0  0  0  0  0
   61.0450   31.3270   46.4040 N   0  0  0  0  0  0  0  0  0  0  0  0
   60.9700   32.5830   47.5980 S   0  0  0  0  0  0  0  0  0  0  0  0
   60.3550   33.8160   46.9950 O   0  0  0  0  0  0  0  0  0  0  0  0
   62.3640   32.9200   48.0470 O   0  0  0  0  0  0  0  0  0  0  0  0
   60.0410   32.0350   48.9900 C   0  0  0  0  0  0  0  0  0  0  0  0
   60.4670   30.9130   49.7100 C   0  0  0  0  0  0  0  0  0  0  0  0
   59.7340   30.4620   50.8110 C   0  0  0  0  0  0  0  0  0  0  0  0
   58.5530   31.1110   51.1890 C   0  0  0  0  0  0  0  0  0  0  0  0
   57.8370   30.6270   52.3360 N   0  0  0  0  0  0  0  0  0  0  0  0
   56.4680   30.2080   52.3560 C   0  0  0  0  0  0  0  0  0  0  0  0
   56.1760   28.9810   52.3490 O   0  0  0  0  0  0  0  0  0  0  0  0
   55.4370   31.1980   52.4770 N   0  0  0  0  0  0  0  0  0  0  0  0
   54.0320   30.9090   52.3710 C   0  0  0  0  0  0  0  0  0  0  0  0
   53.1920   31.6600   51.5270 C   0  0  0  0  0  0  0  0  0  0  0  0
   51.8260   31.3710   51.4480 C   0  0  0  0  0  0  0  0  0  0  0  0
   51.0250   32.0960   50.6290 F   0  0  0  0  0  0  0  0  0  0  0  0
   51.2840   30.3380   52.2180 C   0  0  0  0  0  0  0  0  0  0  0  0
   52.1060   29.6020   53.0780 C   0  0  0  0  0  0  0  0  0  0  0  0
   53.4720   29.8890   53.1620 C   0  0  0  0  0  0  0  0  0  0  0  0
   54.2540   29.1620   54.0000 F   0  0  0  0  0  0  0  0  0  0  0  0
   58.1330   32.2480   50.4760 C   0  0  0  0  0  0  0  0  0  0  0  0
   58.8730   32.7050   49.3800 C   0  0  0  0  0  0  0  0  0  0  0  0
   58.7630   30.2000   45.5910 S   0  0  0  0  0  0  0  0  0  0  0  0
   58.5320   28.6110   46.0790 C   0  0  0  0  0  0  0  0  0  0  0  0
   57.4540   27.7710   45.8160 C   0  0  0  0  0  0  0  0  0  0  0  0
   54.7720   27.0960   46.5820 H   0  0  0  0  0  0  0  0  0  0  0  0
   58.6015   25.0221   47.5263 H   0  0  0  0  0  0  0  0  0  0  0  0
   60.5248   26.5767   47.9588 H   0  0  0  0  0  0  0  0  0  0  0  0
   61.3828   30.3838   49.4079 H   0  0  0  0  0  0  0  0  0  0  0  0
   60.0873   29.5919   51.3839 H   0  0  0  0  0  0  0  0  0  0  0  0
   55.7280   32.1660   52.7370 H   0  0  0  0  0  0  0  0  0  0  0  0
   53.6128   32.4794   50.9258 H   0  0  0  0  0  0  0  0  0  0  0  0
   50.2115   30.1039   52.1478 H   0  0  0  0  0  0  0  0  0  0  0  0
   51.6765   28.7951   53.6900 H   0  0  0  0  0  0  0  0  0  0  0  0
   57.2197   32.7799   50.7809 H   0  0  0  0  0  0  0  0  0  0  0  0
   58.5375   33.5922   48.8230 H   0  0  0  0  0  0  0  0  0  0  0  0
   56.6003   28.1199   45.2165 H   0  0  0  0  0  0  0  0  0  0  0  0
  1  2  1  0
  2  3  2  0
  2  4  2  0
  2  5  1  0
  5  6  2  0
  6  7  1  0
  7  8  2  0
  8  9  1  0
  9 10  1  0
 10 11  2  3
 11 12  1  0
 12 13  2  0
 12 14  2  0
 12 15  1  0
 15 16  2  0
 16 17  1  0
 17 18  2  0
 18 19  1  0
 19 20  1  0
 20 21  2  0
 20 22  1  0
 22 23  1  0
 23 24  2  0
 24 25  1  0
 25 26  1  0
 25 27  2  0
 27 28  1  0
 28 29  2  0
 29 30  1  0
 18 31  1  0
 31 32  2  0
 10 33  1  0
 33 34  1  0
 34 35  2  0
 35  5  1  0
 34  8  1  0
 32 15  1  0
 29 23  1  0
  1 36  1  0
  6 37  1  0
  7 38  1  0
 16 39  1  0
 17 40  1  0
 22 41  1  0
 24 42  1  0
 27 43  1  0
 28 44  1  0
 31 45  1  0
 32 46  1  0
 35 47  1  0
M  CHG  3   1  -1   9  -1  19  -1
M  END
>  <UniqueID>  (34) 
31

>  <SMILES>  (34) 
[NH-]S(=O)(=O)c1ccc2[n-]c(=NS(=O)(=O)c3ccc([N-]C(=O)Nc4cc(F)ccc4F)cc3)sc2c1

>  <Energy>  (34) 
96.72591114007689

>  <Genealogy>  (34) 
[NH-]S(=O)(=O)c1ccc2[n-]c(=NS(=O)(=O)c3ccc([N-]C(=O)Nc4cc(F)ccc4F)cc3)sc2c1 (protonated)
[NH-]S(=O)(=O)c1ccc2[n-]c(=NS(=O)(=O)c3ccc([N-]C(=O)Nc4cc(F)ccc4F)cc3)sc2c1 (3D coordinates assigned)
[NH-]S(=O)(=O)c1ccc2[n-]c(=NS(=O)(=O)c3ccc([N-]C(=O)Nc4cc(F)ccc4F)cc3)sc2c1 (optimized conformer: 96.72591114007689 kcal/mol)

>  <smiles>  (34) 
NS(=O)(=O)c1ccc2[nH]c(=NS(=O)(=O)c3ccc(NC(=O)Nc4cc(F)ccc4F)cc3)sc2c1

>  <score_type>  (34) 
oracle

>  <origin>  (34) 
adg

>  <m_score__min__energy>  (34) 
-14.73

>  <m_primary>  (34) 
energy

$$$$
34:0
     RDKit          3D

 45 47  0  0  0  0  0  0  0  0999 V2000
   60.5430   31.4760   47.5930 C   0  0  0  0  0  0  0  0  0  0  0  0
   59.3820   31.0760   46.7920 N   0  0  0  0  0  0  0  0  0  0  0  0
   58.5560   32.1010   46.1360 C   0  0  0  0  0  0  0  0  0  0  0  0
   57.8040   31.4960   44.9870 C   0  0  0  0  0  0  0  0  0  0  0  0
   58.0960   31.8740   43.6680 C   0  0  0  0  0  0  0  0  0  0  0  0
   57.3560   31.3270   42.6190 C   0  0  0  0  0  0  0  0  0  0  0  0
   56.3290   30.4200   42.8890 C   0  0  0  0  0  0  0  0  0  0  0  0
   56.0520   30.0780   44.2170 C   0  0  0  0  0  0  0  0  0  0  0  0
   55.1170   29.2750   44.4840 O   0  0  0  0  0  0  0  0  0  0  0  0
   56.7870   30.6190   45.2260 N   0  0  0  0  0  0  0  0  0  0  0  0
   59.0550   29.6780   46.6330 C   0  0  0  0  0  0  0  0  0  0  0  0
   58.4900   29.0590   47.5770 O   0  0  0  0  0  0  0  0  0  0  0  0
   59.4030   28.9710   45.4300 N   0  0  0  0  0  0  0  0  0  0  0  0
   58.8480   27.6920   45.0760 C   0  0  0  0  0  0  0  0  0  0  0  0
   58.3010   27.4530   43.8060 C   0  0  0  0  0  0  0  0  0  0  0  0
   57.7820   26.1960   43.4910 C   0  0  0  0  0  0  0  0  0  0  0  0
   57.8230   25.1670   44.4480 C   0  0  0  0  0  0  0  0  0  0  0  0
   57.2850   23.8580   44.1680 N   0  0  0  0  0  0  0  0  0  0  0  0
   57.5060   22.7740   45.1320 C   0  0  0  0  0  0  0  0  0  0  0  0
   57.4280   21.4130   44.4330 C   0  0  0  0  0  0  0  0  0  0  0  0
   56.2380   21.3060   43.6780 O   0  0  0  0  0  0  0  0  0  0  0  0
   56.2690   22.2380   42.6140 C   0  0  0  0  0  0  0  0  0  0  0  0
   56.2450   23.6750   43.1460 C   0  0  0  0  0  0  0  0  0  0  0  0
   58.3740   25.4220   45.6690 N   0  0  0  0  0  0  0  0  0  0  0  0
   58.8890   26.6370   45.9950 C   0  0  0  0  0  0  0  0  0  0  0  0
   60.2977   31.3915   48.6620 H   0  0  0  0  0  0  0  0  0  0  0  0
   61.3938   30.8192   47.3590 H   0  0  0  0  0  0  0  0  0  0  0  0
   60.8086   32.5175   47.3590 H   0  0  0  0  0  0  0  0  0  0  0  0
   57.8406   32.5126   46.8632 H   0  0  0  0  0  0  0  0  0  0  0  0
   59.2077   32.9029   45.7588 H   0  0  0  0  0  0  0  0  0  0  0  0
   58.9009   32.5950   43.4625 H   0  0  0  0  0  0  0  0  0  0  0  0
   57.5814   31.6100   41.5802 H   0  0  0  0  0  0  0  0  0  0  0  0
   55.7449   29.9798   42.0674 H   0  0  0  0  0  0  0  0  0  0  0  0
   60.1860   29.3350   44.8440 H   0  0  0  0  0  0  0  0  0  0  0  0
   58.2811   28.2582   43.0568 H   0  0  0  0  0  0  0  0  0  0  0  0
   57.3433   26.0116   42.4993 H   0  0  0  0  0  0  0  0  0  0  0  0
   58.5005   22.8911   45.5873 H   0  0  0  0  0  0  0  0  0  0  0  0
   56.7271   22.8219   45.9073 H   0  0  0  0  0  0  0  0  0  0  0  0
   58.2925   21.3018   43.7620 H   0  0  0  0  0  0  0  0  0  0  0  0
   57.4337   20.6222   45.1976 H   0  0  0  0  0  0  0  0  0  0  0  0
   57.1877   22.0859   42.0284 H   0  0  0  0  0  0  0  0  0  0  0  0
   55.3815   22.0815   41.9832 H   0  0  0  0  0  0  0  0  0  0  0  0
   56.4261   24.3726   42.3150 H   0  0  0  0  0  0  0  0  0  0  0  0
   55.2614   23.8732   43.5969 H   0  0  0  0  0  0  0  0  0  0  0  0
   59.3403   26.7919   46.9861 H   0  0  0  0  0  0  0  0  0  0  0  0
  1  2  1  0
  2  3  1  0
  3  4  1  0
  4  5  2  0
  5  6  1  0
  6  7  2  0
  7  8  1  0
  8  9  2  0
  8 10  1  0
  2 11  1  0
 11 12  2  0
 11 13  1  0
 13 14  1  0
 14 15  2  0
 15 16  1  0
 16 17  2  0
 17 18  1  0
 18 19  1  0
 19 20  1  0
 20 21  1  0
 21 22  1  0
 22 23  1  0
 17 24  1  0
 24 25  2  0
 10  4  1  0
 25 14  1  0
 23 18  1  0
  1 26  1  0
  1 27  1  0
  1 28  1  0
  3 29  1  0
  3 30  1  0
  5 31  1  0
  6 32  1  0
  7 33  1  0
 13 34  1  0
 15 35  1  0
 16 36  1  0
 19 37  1  0
 19 38  1  0
 20 39  1  0
 20 40  1  0
 22 41  1  0
 22 42  1  0
 23 43  1  0
 23 44  1  0
 25 45  1  0
M  CHG  1  10  -1
M  END
>  <UniqueID>  (35) 
32

>  <SMILES>  (35) 
CN(Cc1cccc(=O)[n-]1)C(=O)Nc1ccc(N2CCOCC2)nc1

>  <Energy>  (35) 
52.93040128479175

>  <Genealogy>  (35) 
CN(Cc1cccc(=O)[n-]1)C(=O)Nc1ccc(N2CCOCC2)nc1 (protonated)
CN(Cc1cccc(=O)[n-]1)C(=O)Nc1ccc(N2CCOCC2)nc1 (3D coordinates assigned)
CN(Cc1cccc(=O)[n-]1)C(=O)Nc1ccc(N2CCOCC2)nc1 (nonaromatic ring conformer: 52.93040128479175 kcal/mol)

>  <smiles>  (35) 
CN(Cc1cccc(=O)[nH]1)C(=O)Nc1ccc(N2CCOCC2)nc1

>  <score_type>  (35) 
oracle

>  <origin>  (35) 
adg

>  <m_score__min__energy>  (35) 
-9.3100000000000005

>  <m_primary>  (35) 
energy

$$$$
35:0
     RDKit          3D

 49 51  0  0  0  0  0  0  0  0999 V2000
   57.8830   24.2120   44.4730 C   0  0  0  0  0  0  0  0  0  0  0  0
   58.9050   24.3290   45.6010 C   0  0  0  0  0  0  0  0  0  0  0  0
   58.7290   25.6150   46.3570 C   0  0  0  0  0  0  0  0  0  0  0  0
   59.7700   26.3720   46.7450 N   0  0  0  0  0  0  0  0  0  0  0  0
   59.2010   27.4400   47.3460 C   0  0  0  0  0  0  0  0  0  0  0  0
   59.9820   28.5460   47.9430 C   0  0  0  0  0  0  0  0  0  0  0  0
   60.3630   28.5030   49.2940 C   0  0  0  0  0  0  0  0  0  0  0  0
   61.0980   29.5520   49.8530 C   0  0  0  0  0  0  0  0  0  0  0  0
   61.4700   30.6470   49.0700 C   0  0  0  0  0  0  0  0  0  0  0  0
   61.1160   30.6950   47.7120 C   0  0  0  0  0  0  0  0  0  0  0  0
   61.4610   31.8090   46.8770 N   0  0  0  0  0  0  0  0  0  0  0  0
   61.2120   33.1900   47.1600 C   0  0  0  0  0  0  0  0  0  0  0  0
   62.0620   33.8830   47.7840 O   0  0  0  0  0  0  0  0  0  0  0  0
   59.9630   33.8330   46.6440 C   0  0  0  0  0  0  0  0  0  0  0  0
   59.0910   32.8160   45.9580 C   0  0  0  0  0  0  0  0  0  0  0  0
   58.5260   31.7560   46.6860 C   0  0  0  0  0  0  0  0  0  0  0  0
   57.7300   30.8040   46.0410 C   0  0  0  0  0  0  0  0  0  0  0  0
   57.4990   30.8940   44.6590 C   0  0  0  0  0  0  0  0  0  0  0  0
   56.4970   29.7030   43.8350 S   0  0  0  0  0  0  0  0  0  0  0  0
   57.4660   28.2580   43.4670 C   0  0  0  0  0  0  0  0  0  0  0  0
   55.3420   29.3270   44.7190 O   0  0  0  0  0  0  0  0  0  0  0  0
   55.9630   30.2710   42.5490 O   0  0  0  0  0  0  0  0  0  0  0  0
   58.0760   31.9420   43.9300 C   0  0  0  0  0  0  0  0  0  0  0  0
   58.8710   32.8950   44.5730 C   0  0  0  0  0  0  0  0  0  0  0  0
   60.3550   29.6550   47.1620 C   0  0  0  0  0  0  0  0  0  0  0  0
   57.8500   27.4020   47.3430 N   0  0  0  0  0  0  0  0  0  0  0  0
   57.5460   26.2520   46.7140 C   0  0  0  0  0  0  0  0  0  0  0  0
   56.1550   25.8150   46.4840 C   0  0  0  0  0  0  0  0  0  0  0  0
   55.1640   26.7190   46.0000 N   0  0  0  0  0  0  0  0  0  0  0  0
   55.8370   24.6200   46.7120 O   0  0  0  0  0  0  0  0  0  0  0  0
   56.8762   24.0967   44.9009 H   0  0  0  0  0  0  0  0  0  0  0  0
   57.9160   25.1198   43.8527 H   0  0  0  0  0  0  0  0  0  0  0  0
   58.1203   23.3352   43.8527 H   0  0  0  0  0  0  0  0  0  0  0  0
   58.7746   23.4842   46.2933 H   0  0  0  0  0  0  0  0  0  0  0  0
   59.9136   24.3162   45.1622 H   0  0  0  0  0  0  0  0  0  0  0  0
   60.0816   27.6398   49.9150 H   0  0  0  0  0  0  0  0  0  0  0  0
   61.3848   29.5151   50.9143 H   0  0  0  0  0  0  0  0  0  0  0  0
   62.0414   31.4734   49.5179 H   0  0  0  0  0  0  0  0  0  0  0  0
   59.4096   34.2757   47.4853 H   0  0  0  0  0  0  0  0  0  0  0  0
   60.2380   34.6129   45.9186 H   0  0  0  0  0  0  0  0  0  0  0  0
   58.7103   31.6743   47.7674 H   0  0  0  0  0  0  0  0  0  0  0  0
   57.2831   29.9815   46.6187 H   0  0  0  0  0  0  0  0  0  0  0  0
   57.7853   27.7818   44.4058 H   0  0  0  0  0  0  0  0  0  0  0  0
   56.8601   27.5490   42.8838 H   0  0  0  0  0  0  0  0  0  0  0  0
   58.3520   28.5494   42.8838 H   0  0  0  0  0  0  0  0  0  0  0  0
   57.9025   32.0152   42.8462 H   0  0  0  0  0  0  0  0  0  0  0  0
   59.3263   33.7104   43.9918 H   0  0  0  0  0  0  0  0  0  0  0  0
   60.0457   29.7063   46.1076 H   0  0  0  0  0  0  0  0  0  0  0  0
   55.2570   27.1660   45.0620 H   0  0  0  0  0  0  0  0  0  0  0  0
  1  2  1  0
  2  3  1  0
  3  4  1  0
  4  5  1  0
  5  6  1  0
  6  7  2  0
  7  8  1  0
  8  9  2  0
  9 10  1  0
 10 11  1  0
 11 12  1  0
 12 13  2  0
 12 14  1  0
 14 15  1  0
 15 16  2  0
 16 17  1  0
 17 18  2  0
 18 19  1  0
 19 20  1  0
 19 21  2  0
 19 22  2  0
 18 23  1  0
 23 24  2  0
 10 25  2  0
  5 26  2  0
 26 27  1  0
 27 28  1  0
 28 29  1  0
 28 30  2  0
 27  3  2  0
 25  6  1  0
 24 15  1  0
  1 31  1  0
  1 32  1  0
  1 33  1  0
  2 34  1  0
  2 35  1  0
  7 36  1  0
  8 37  1  0
  9 38  1  0
 14 39  1  0
 14 40  1  0
 16 41  1  0
 17 42  1  0
 20 43  1  0
 20 44  1  0
 20 45  1  0
 23 46  1  0
 24 47  1  0
 25 48  1  0
 29 49  1  0
M  CHG  3   4  -1  11  -1  29  -1
M  END
>  <UniqueID>  (36) 
33

>  <SMILES>  (36) 
CCc1[n-]c(-c2cccc([N-]C(=O)Cc3ccc(S(C)(=O)=O)cc3)c2)nc1C([NH-])=O

>  <Energy>  (36) 
75.13875363135766

>  <Genealogy>  (36) 
CCc1[n-]c(-c2cccc([N-]C(=O)Cc3ccc(S(C)(=O)=O)cc3)c2)nc1C([NH-])=O (protonated)
CCc1[n-]c(-c2cccc([N-]C(=O)Cc3ccc(S(C)(=O)=O)cc3)c2)nc1C([NH-])=O (3D coordinates assigned)
CCc1[n-]c(-c2cccc([N-]C(=O)Cc3ccc(S(C)(=O)=O)cc3)c2)nc1C([NH-])=O (optimized conformer: 75.13875363135766 kcal/mol)

>  <smiles>  (36) 
CCc1[nH]c(-c2cccc(NC(=O)Cc3ccc(S(C)(=O)=O)cc3)c2)nc1C(N)=O

>  <score_type>  (36) 
oracle

>  <origin>  (36) 
adg

>  <m_score__min__energy>  (36) 
-14.73

>  <m_primary>  (36) 
energy

$$$$
36:0
     RDKit          3D

 36 38  0  0  0  0  0  0  0  0999 V2000
   62.8400   29.9310   50.7920 H   0  0  0  0  0  0  0  0  0  0  0  0
   61.8440   30.0700   50.5070 N   0  0  0  0  0  0  0  0  0  0  0  0
   61.5090   30.2090   49.2660 C   0  0  0  0  0  0  0  0  0  0  0  0
   60.4310   29.5410   48.7790 N   0  0  0  0  0  0  0  0  0  0  0  0
   60.0440   29.6680   47.4800 C   0  0  0  0  0  0  0  0  0  0  0  0
   58.8740   28.9020   46.9920 C   0  0  0  0  0  0  0  0  0  0  0  0
   58.1250   29.4100   45.9180 C   0  0  0  0  0  0  0  0  0  0  0  0
   58.4121   30.3697   45.4636 H   0  0  0  0  0  0  0  0  0  0  0  0
   57.0190   28.7140   45.4170 C   0  0  0  0  0  0  0  0  0  0  0  0
   56.2800   29.2930   44.3310 N   0  0  0  0  0  0  0  0  0  0  0  0
   56.3450   30.6620   43.9150 C   0  0  0  0  0  0  0  0  0  0  0  0
   56.4730   30.9520   42.6960 O   0  0  0  0  0  0  0  0  0  0  0  0
   56.2570   31.7210   44.8740 N   0  0  0  0  0  0  0  0  0  0  0  0
   57.3120   32.6210   45.2410 C   0  0  0  0  0  0  0  0  0  0  0  0
   57.6480   32.8660   46.5860 C   0  0  0  0  0  0  0  0  0  0  0  0
   57.0817   32.3743   47.3907 H   0  0  0  0  0  0  0  0  0  0  0  0
   58.7000   33.7330   46.9030 C   0  0  0  0  0  0  0  0  0  0  0  0
   58.9499   33.9319   47.9556 H   0  0  0  0  0  0  0  0  0  0  0  0
   59.4330   34.3460   45.8840 C   0  0  0  0  0  0  0  0  0  0  0  0
   60.2547   35.0331   46.1343 H   0  0  0  0  0  0  0  0  0  0  0  0
   59.1220   34.0860   44.5460 C   0  0  0  0  0  0  0  0  0  0  0  0
   59.7042   34.5628   43.7437 H   0  0  0  0  0  0  0  0  0  0  0  0
   58.0710   33.2200   44.2270 C   0  0  0  0  0  0  0  0  0  0  0  0
   57.8388   33.0078   43.1729 H   0  0  0  0  0  0  0  0  0  0  0  0
   56.6220   27.5120   46.0310 C   0  0  0  0  0  0  0  0  0  0  0  0
   55.4690   26.8480   45.6280 O   0  0  0  0  0  0  0  0  0  0  0  0
   57.3740   26.9870   47.0840 C   0  0  0  0  0  0  0  0  0  0  0  0
   57.0756   26.0332   47.5437 H   0  0  0  0  0  0  0  0  0  0  0  0
   58.5050   27.6630   47.5610 C   0  0  0  0  0  0  0  0  0  0  0  0
   59.2690   27.0970   48.5810 O   0  0  0  0  0  0  0  0  0  0  0  0
   59.9770   27.6290   49.0750 H   0  0  0  0  0  0  0  0  0  0  0  0
   60.7920   30.4890   46.6230 C   0  0  0  0  0  0  0  0  0  0  0  0
   60.5149   30.5943   45.5637 H   0  0  0  0  0  0  0  0  0  0  0  0
   61.8940   31.1690   47.1410 C   0  0  0  0  0  0  0  0  0  0  0  0
   62.4895   31.8266   46.4907 H   0  0  0  0  0  0  0  0  0  0  0  0
   62.2320   31.0200   48.4460 N   0  0  0  0  0  0  0  0  0  0  0  0
  1  2  1  0
  2  3  2  0
  3  4  1  0
  4  5  2  0
  5  6  1  0
  6  7  2  0
  7  8  1  0
  7  9  1  0
  9 10  1  0
 10 11  1  0
 11 12  2  0
 11 13  1  0
 13 14  1  0
 14 15  2  0
 15 16  1  0
 15 17  1  0
 17 18  1  0
 17 19  2  0
 19 20  1  0
 19 21  1  0
 21 22  1  0
 21 23  2  0
 23 24  1  0
  9 25  2  0
 25 26  1  0
 25 27  1  0
 27 28  1  0
 27 29  2  0
 29 30  1  0
 30 31  1  0
  5 32  1  0
 32 33  1  0
 32 34  2  0
 34 35  1  0
 34 36  1  0
 36  3  1  0
 29  6  1  0
 23 14  1  0
M  CHG  4  10  -1  13  -1  26  -1  36  -1
M  END
>  <UniqueID>  (37) 
34

>  <SMILES>  (37) 
[H]/N=c1/nc(-c2cc([N-]C(=O)[N-]c3ccccc3)c([O-])cc2O)cc[n-]1

>  <Energy>  (37) 
54.28252217537658

>  <Genealogy>  (37) 
N=c1nc(-c2cc([N-]C(=O)[N-]c3ccccc3)c([O-])cc2O)cc[n-]1 (protonated)
[H]/N=c1/nc(-c2cc([N-]C(=O)[N-]c3ccccc3)c([O-])cc2O)cc[n-]1 (cis-trans isomerization)
[H]/N=c1/nc(-c2cc([N-]C(=O)[N-]c3ccccc3)c([O-])cc2O)cc[n-]1 (3D coordinates assigned)
[H]/N=c1/nc(-c2cc([N-]C(=O)[N-]c3ccccc3)c([O-])cc2O)cc[n-]1 (optimized conformer: 54.28252217537658 kcal/mol)

>  <smiles>  (37) 
N=c1nc(-c2cc(NC(=O)Nc3ccccc3)c(O)cc2O)cc[nH]1

>  <score_type>  (37) 
oracle

>  <origin>  (37) 
adg

>  <m_score__min__energy>  (37) 
-12.99

>  <m_primary>  (37) 
energy

$$$$
37:0
     RDKit          3D

 42 44  0  0  0  0  0  0  0  0999 V2000
   58.4319   23.0409   45.1233 H   0  0  0  0  0  0  0  0  0  0  0  0
   57.5860   23.7220   45.2980 C   0  0  0  0  0  0  0  0  0  0  0  0
   57.8100   24.9780   45.7720 N   0  0  0  0  0  0  0  0  0  0  0  0
   56.7920   25.8550   46.0080 C   0  0  0  0  0  0  0  0  0  0  0  0
   57.0240   27.0480   46.4760 N   0  0  0  0  0  0  0  0  0  0  0  0
   57.3590   28.2260   45.7260 C   0  0  0  0  0  0  0  0  0  0  0  0
   58.5600   28.5620   45.5350 O   0  0  0  0  0  0  0  0  0  0  0  0
   56.2620   29.0910   45.1880 C   0  0  0  0  0  0  0  0  0  0  0  0
   55.6167   29.4171   46.0170 H   0  0  0  0  0  0  0  0  0  0  0  0
   55.6741   28.5135   44.4594 H   0  0  0  0  0  0  0  0  0  0  0  0
   56.8430   30.3030   44.5020 C   0  0  0  0  0  0  0  0  0  0  0  0
   57.3510   31.2840   45.2970 N   0  0  0  0  0  0  0  0  0  0  0  0
   57.8490   32.4390   44.7940 C   0  0  0  0  0  0  0  0  0  0  0  0
   58.3650   33.4410   45.6900 N   0  0  0  0  0  0  0  0  0  0  0  0
   58.9040   34.6920   45.1480 C   0  0  0  0  0  0  0  0  0  0  0  0
   59.3240   34.5059   44.1485 H   0  0  0  0  0  0  0  0  0  0  0  0
   58.0961   35.4353   45.0782 H   0  0  0  0  0  0  0  0  0  0  0  0
   60.0060   35.2270   46.0720 C   0  0  0  0  0  0  0  0  0  0  0  0
   60.8763   34.5563   46.0193 H   0  0  0  0  0  0  0  0  0  0  0  0
   60.2786   36.2401   45.7412 H   0  0  0  0  0  0  0  0  0  0  0  0
   59.5560   35.2970   47.4140 O   0  0  0  0  0  0  0  0  0  0  0  0
   59.2770   33.9960   47.8950 C   0  0  0  0  0  0  0  0  0  0  0  0
   60.1681   33.3644   47.7644 H   0  0  0  0  0  0  0  0  0  0  0  0
   59.0085   34.0635   48.9596 H   0  0  0  0  0  0  0  0  0  0  0  0
   58.1040   33.3740   47.1310 C   0  0  0  0  0  0  0  0  0  0  0  0
   57.9864   32.3229   47.4333 H   0  0  0  0  0  0  0  0  0  0  0  0
   57.1825   33.9287   47.3616 H   0  0  0  0  0  0  0  0  0  0  0  0
   57.8430   32.6310   43.4130 C   0  0  0  0  0  0  0  0  0  0  0  0
   58.2404   33.5597   42.9777 H   0  0  0  0  0  0  0  0  0  0  0  0
   57.3270   31.6310   42.5920 C   0  0  0  0  0  0  0  0  0  0  0  0
   57.3400   31.8130   41.3420 O   0  0  0  0  0  0  0  0  0  0  0  0
   56.8160   30.4740   43.1340 N   0  0  0  0  0  0  0  0  0  0  0  0
   56.2940   29.4110   42.2550 C   0  0  0  0  0  0  0  0  0  0  0  0
   55.8918   28.5919   42.8692 H   0  0  0  0  0  0  0  0  0  0  0  0
   55.4943   29.8200   41.6201 H   0  0  0  0  0  0  0  0  0  0  0  0
   57.1066   29.0282   41.6201 H   0  0  0  0  0  0  0  0  0  0  0  0
   55.4720   25.4600   45.7490 C   0  0  0  0  0  0  0  0  0  0  0  0
   54.4110   26.3310   45.9780 O   0  0  0  0  0  0  0  0  0  0  0  0
   55.2220   24.1750   45.2590 C   0  0  0  0  0  0  0  0  0  0  0  0
   54.1902   23.8553   45.0513 H   0  0  0  0  0  0  0  0  0  0  0  0
   56.2840   23.2990   45.0340 C   0  0  0  0  0  0  0  0  0  0  0  0
   56.0961   22.2847   44.6521 H   0  0  0  0  0  0  0  0  0  0  0  0
  1  2  1  0
  2  3  1  0
  3  4  1  0
  4  5  2  0
  5  6  1  0
  6  7  2  0
  6  8  1  0
  8  9  1  0
  8 10  1  0
  8 11  1  0
 11 12  2  0
 12 13  1  0
 13 14  1  0
 14 15  1  0
 15 16  1  0
 15 17  1  0
 15 18  1  0
 18 19  1  0
 18 20  1  0
 18 21  1  0
 21 22  1  0
 22 23  1  0
 22 24  1  0
 22 25  1  0
 25 26  1  0
 25 27  1  0
 13 28  2  0
 28 29  1  0
 28 30  1  0
 30 31  2  0
 30 32  1  0
 32 33  1  0
 33 34  1  0
 33 35  1  0
 33 36  1  0
  4 37  1  0
 37 38  1  0
 37 39  2  0
 39 40  1  0
 39 41  1  0
 41 42  1  0
 41  2  2  0
 32 11  1  0
 25 14  1  0
M  CHG  2   3  -1  38  -1
M  END
>  <UniqueID>  (38) 
35

>  <SMILES>  (38) 
Cn1c(CC(=O)/N=c2\[n-]cccc2[O-])nc(N2CCOCC2)cc1=O

>  <Energy>  (38) 
54.72292271738291

>  <Genealogy>  (38) 
Cn1c(CC(=O)N=c2[n-]cccc2[O-])nc(N2CCOCC2)cc1=O (protonated)
Cn1c(CC(=O)/N=c2\[n-]cccc2[O-])nc(N2CCOCC2)cc1=O (cis-trans isomerization)
Cn1c(CC(=O)/N=c2\[n-]cccc2[O-])nc(N2CCOCC2)cc1=O (3D coordinates assigned)
Cn1c(CC(=O)/N=c2\[n-]cccc2[O-])nc(N2CCOCC2)cc1=O (nonaromatic ring conformer: 54.72292271738291 kcal/mol)

>  <smiles>  (38) 
Cn1c(CC(=O)N=c2[nH]cccc2O)nc(N2CCOCC2)cc1=O

>  <score_type>  (38) 
oracle

>  <origin>  (38) 
adg

>  <m_score__min__energy>  (38) 
-13.029999999999999

>  <m_primary>  (38) 
energy

$$$$
38:0
     RDKit          3D

 45 47  0  0  0  0  0  0  0  0999 V2000
   55.9380   27.4680   45.6450 O   0  0  0  0  0  0  0  0  0  0  0  0
   56.5760   28.4390   45.1570 C   0  0  0  0  0  0  0  0  0  0  0  0
   55.9310   29.3600   44.2710 N   0  0  0  0  0  0  0  0  0  0  0  0
   56.0120   30.8120   44.4070 C   0  0  0  0  0  0  0  0  0  0  0  0
   57.3720   31.3320   43.9270 C   0  0  0  0  0  0  0  0  0  0  0  0
   57.8810   32.4630   44.7830 C   0  0  0  0  0  0  0  0  0  0  0  0
   58.5930   33.5250   44.1980 C   0  0  0  0  0  0  0  0  0  0  0  0
   59.0900   34.5610   44.9930 C   0  0  0  0  0  0  0  0  0  0  0  0
   58.8830   34.5470   46.3750 C   0  0  0  0  0  0  0  0  0  0  0  0
   58.1790   33.4930   46.9640 C   0  0  0  0  0  0  0  0  0  0  0  0
   57.6820   32.4520   46.1740 C   0  0  0  0  0  0  0  0  0  0  0  0
   57.9930   28.6120   45.4890 C   0  0  0  0  0  0  0  0  0  0  0  0
   59.0630   28.3230   44.6630 C   0  0  0  0  0  0  0  0  0  0  0  0
   60.1920   28.6070   45.4010 C   0  0  0  0  0  0  0  0  0  0  0  0
   59.7360   29.0500   46.6260 C   0  0  0  0  0  0  0  0  0  0  0  0
   60.5900   29.4090   47.7980 C   0  0  0  0  0  0  0  0  0  0  0  0
   61.1150   31.1080   47.6620 S   0  0  0  0  0  0  0  0  0  0  0  0
   62.6160   31.1760   47.7320 O   0  0  0  0  0  0  0  0  0  0  0  0
   60.6730   31.6670   46.3390 O   0  0  0  0  0  0  0  0  0  0  0  0
   60.4150   32.0600   48.9700 C   0  0  0  0  0  0  0  0  0  0  0  0
   60.8840   33.3580   49.2230 C   0  0  0  0  0  0  0  0  0  0  0  0
   60.2990   34.1340   50.2280 C   0  0  0  0  0  0  0  0  0  0  0  0
   59.2400   33.6180   50.9870 C   0  0  0  0  0  0  0  0  0  0  0  0
   58.6480   34.3810   51.9910 O   0  0  0  0  0  0  0  0  0  0  0  0
   58.7670   32.3260   50.7310 C   0  0  0  0  0  0  0  0  0  0  0  0
   59.3490   31.5500   49.7240 C   0  0  0  0  0  0  0  0  0  0  0  0
   58.4240   29.0470   46.6510 O   0  0  0  0  0  0  0  0  0  0  0  0
   55.2165   31.2750   43.8046 H   0  0  0  0  0  0  0  0  0  0  0  0
   55.8913   31.0726   45.4689 H   0  0  0  0  0  0  0  0  0  0  0  0
   58.0989   30.5071   43.9603 H   0  0  0  0  0  0  0  0  0  0  0  0
   57.2466   31.7126   42.9026 H   0  0  0  0  0  0  0  0  0  0  0  0
   58.7593   33.5403   43.1108 H   0  0  0  0  0  0  0  0  0  0  0  0
   59.6456   35.3897   44.5299 H   0  0  0  0  0  0  0  0  0  0  0  0
   59.2737   35.3646   46.9986 H   0  0  0  0  0  0  0  0  0  0  0  0
   58.0156   33.4825   48.0517 H   0  0  0  0  0  0  0  0  0  0  0  0
   57.1335   31.6217   46.6428 H   0  0  0  0  0  0  0  0  0  0  0  0
   59.0220   27.9448   43.6309 H   0  0  0  0  0  0  0  0  0  0  0  0
   61.2390   28.5023   45.0802 H   0  0  0  0  0  0  0  0  0  0  0  0
   60.0124   29.2779   48.7250 H   0  0  0  0  0  0  0  0  0  0  0  0
   61.4744   28.7552   47.8179 H   0  0  0  0  0  0  0  0  0  0  0  0
   61.7147   33.7663   48.6286 H   0  0  0  0  0  0  0  0  0  0  0  0
   60.6704   35.1508   50.4232 H   0  0  0  0  0  0  0  0  0  0  0  0
   58.3660   35.3410   51.8300 H   0  0  0  0  0  0  0  0  0  0  0  0
   57.9345   31.9196   51.3241 H   0  0  0  0  0  0  0  0  0  0  0  0
   58.9696   30.5372   49.5230 H   0  0  0  0  0  0  0  0  0  0  0  0
  1  2  2  0
  2  3  1  0
  3  4  1  0
  4  5  1  0
  5  6  1  0
  6  7  2  0
  7  8  1  0
  8  9  2  0
  9 10  1  0
 10 11  2  0
  2 12  1  0
 12 13  2  0
 13 14  1  0
 14 15  2  0
 15 16  1  0
 16 17  1  0
 17 18  2  0
 17 19  2  0
 17 20  1  0
 20 21  2  0
 21 22  1  0
 22 23  2  0
 23 24  1  0
 23 25  1  0
 25 26  2  0
 15 27  1  0
 11  6  1  0
 27 12  1  0
 26 20  1  0
  4 28  1  0
  4 29  1  0
  5 30  1  0
  5 31  1  0
  7 32  1  0
  8 33  1  0
  9 34  1  0
 10 35  1  0
 11 36  1  0
 13 37  1  0
 14 38  1  0
 16 39  1  0
 16 40  1  0
 21 41  1  0
 22 42  1  0
 24 43  1  0
 25 44  1  0
 26 45  1  0
M  CHG  1   3  -1
M  END
>  <UniqueID>  (39) 
36

>  <SMILES>  (39) 
O=C([N-]CCc1ccccc1)c1ccc(CS(=O)(=O)c2ccc(O)cc2)o1

>  <Energy>  (39) 
60.75643100538638

>  <Genealogy>  (39) 
O=C([N-]CCc1ccccc1)c1ccc(CS(=O)(=O)c2ccc(O)cc2)o1 (protonated)
O=C([N-]CCc1ccccc1)c1ccc(CS(=O)(=O)c2ccc(O)cc2)o1 (3D coordinates assigned)
O=C([N-]CCc1ccccc1)c1ccc(CS(=O)(=O)c2ccc(O)cc2)o1 (optimized conformer: 60.75643100538638 kcal/mol)

>  <smiles>  (39) 
O=C(NCCc1ccccc1)c1ccc(CS(=O)(=O)c2ccc(O)cc2)o1

>  <score_type>  (39) 
oracle

>  <origin>  (39) 
adg

>  <m_score__min__energy>  (39) 
-11.609999999999999

>  <m_primary>  (39) 
energy

$$$$
39:0
     RDKit          3D

 71 74  0  0  1  0  0  0  0  0999 V2000
   57.1990   31.0770   52.2390 C   0  0  0  0  0  0  0  0  0  0  0  0
   57.9510   29.9590   52.2220 C   0  0  0  0  0  0  0  0  0  0  0  0
   58.6390   29.4650   53.4490 C   0  0  0  0  0  0  0  0  0  0  0  0
   60.3500   27.6490   48.6210 N   0  0  0  0  0  0  0  0  0  0  0  0
   60.5230   28.5180   49.5580 C   0  0  0  0  0  0  0  0  0  0  0  0
   60.9190   30.4030   51.4960 N   0  0  0  0  0  0  0  0  0  0  0  0
   61.3160   30.6340   50.2340 C   0  0  0  0  0  0  0  0  0  0  0  0
   61.9220   31.8280   49.9320 O   0  0  0  0  0  0  0  0  0  0  0  0
   61.4350   32.7050   48.9610 C   0  0  0  0  0  0  0  0  0  0  0  0
   61.9270   32.6510   47.6710 C   0  0  0  0  0  0  0  0  0  0  0  0
   62.9840   31.6600   47.2950 C   0  0  0  0  0  0  0  0  0  0  0  0
   61.4580   33.5100   46.6950 C   0  0  0  0  0  0  0  0  0  0  0  0
   60.4990   34.4160   47.0170 C   0  0  0  0  0  0  0  0  0  0  0  0
   60.0240   35.3010   45.9870 C   0  0  0  0  0  0  0  0  0  0  0  0
   59.6360   36.0330   45.1660 N   0  0  0  0  0  0  0  0  0  0  0  0
   59.9700   34.5120   48.2990 C   0  0  0  0  0  0  0  0  0  0  0  0
   60.4580   33.6360   49.2660 C   0  0  0  0  0  0  0  0  0  0  0  0
   59.9160   33.7100   50.6440 C   0  0  0  0  0  0  0  0  0  0  0  0
   61.1440   29.7230   49.2130 C   0  0  0  0  0  0  0  0  0  0  0  0
   60.3290   29.2460   51.8030 C   0  0  0  0  0  0  0  0  0  0  0  0
   59.9610   29.0580   53.0280 N   0  0  0  0  0  0  0  0  0  0  0  0
   59.5340   28.0090   47.4780 C   0  0  0  0  0  0  0  0  0  0  0  0
   60.4000   27.6760   46.2710 C   0  0  0  0  0  0  0  0  0  0  0  0
   59.6660   27.7720   44.9710 C   0  0  0  0  0  0  0  0  0  0  0  0
   58.2770   27.7820   45.0260 N   0  0  0  0  0  0  0  0  0  0  0  0
   57.5730   28.4030   43.9700 C   0  0  0  0  0  0  0  0  0  0  0  0
   57.5820   29.8770   44.1620 C   0  0  0  0  0  0  0  0  0  0  0  0
   57.4420   30.6400   42.9970 C   0  0  0  0  0  0  0  0  0  0  0  0
   57.4350   32.0140   43.0370 C   0  0  0  0  0  0  0  0  0  0  0  0
   57.5710   32.6190   44.2700 C   0  0  0  0  0  0  0  0  0  0  0  0
   57.7100   31.8610   45.4120 C   0  0  0  0  0  0  0  0  0  0  0  0
   57.8480   32.5720   46.6720 C   0  0  0  0  0  0  0  0  0  0  0  0
   57.2310   33.8110   46.9590 N   0  0  0  0  0  0  0  0  0  0  0  0
   58.5660   32.0620   47.5850 O   0  0  0  0  0  0  0  0  0  0  0  0
   57.7190   30.4790   45.3950 C   0  0  0  0  0  0  0  0  0  0  0  0
   57.5730   27.3080   46.1350 C   0  0  0  0  0  0  0  0  0  0  0  0
   58.3430   27.0850   47.3810 C   0  0  0  0  0  0  0  0  0  0  0  0
   60.1410   28.3280   50.8330 N   0  0  0  0  0  0  0  0  0  0  0  0
   56.7021   31.4196   51.3194 H   0  0  0  0  0  0  0  0  0  0  0  0
   57.0821   31.6470   53.1725 H   0  0  0  0  0  0  0  0  0  0  0  0
   58.0597   29.3983   51.2819 H   0  0  0  0  0  0  0  0  0  0  0  0
   58.7066   30.2673   54.1985 H   0  0  0  0  0  0  0  0  0  0  0  0
   58.0892   28.6321   53.9116 H   0  0  0  0  0  0  0  0  0  0  0  0
   61.0670   31.1190   52.2490 H   0  0  0  0  0  0  0  0  0  0  0  0
   63.4330   31.2391   48.2067 H   0  0  0  0  0  0  0  0  0  0  0  0
   62.5336   30.8511   46.7010 H   0  0  0  0  0  0  0  0  0  0  0  0
   63.7622   32.1616   46.7010 H   0  0  0  0  0  0  0  0  0  0  0  0
   61.8563   33.4604   45.6709 H   0  0  0  0  0  0  0  0  0  0  0  0
   59.1940   35.2530   48.5411 H   0  0  0  0  0  0  0  0  0  0  0  0
   60.7370   33.5979   51.3674 H   0  0  0  0  0  0  0  0  0  0  0  0
   59.4259   34.6834   50.7935 H   0  0  0  0  0  0  0  0  0  0  0  0
   59.1829   32.9036   50.7935 H   0  0  0  0  0  0  0  0  0  0  0  0
   61.4763   29.9321   48.1855 H   0  0  0  0  0  0  0  0  0  0  0  0
   59.2011   29.0553   47.5446 H   0  0  0  0  0  0  0  0  0  0  0  0
   61.2478   28.3765   46.2457 H   0  0  0  0  0  0  0  0  0  0  0  0
   60.7278   26.6320   46.3835 H   0  0  0  0  0  0  0  0  0  0  0  0
   59.9846   28.7027   44.4788 H   0  0  0  0  0  0  0  0  0  0  0  0
   59.9222   26.8484   44.4313 H   0  0  0  0  0  0  0  0  0  0  0  0
   58.0559   28.1557   43.0131 H   0  0  0  0  0  0  0  0  0  0  0  0
   56.5338   28.0424   43.9627 H   0  0  0  0  0  0  0  0  0  0  0  0
   57.3353   30.1292   42.0287 H   0  0  0  0  0  0  0  0  0  0  0  0
   57.3249   32.6100   42.1191 H   0  0  0  0  0  0  0  0  0  0  0  0
   57.5684   33.7167   44.3416 H   0  0  0  0  0  0  0  0  0  0  0  0
   56.2280   33.9190   46.6920 H   0  0  0  0  0  0  0  0  0  0  0  0
   57.7690   34.5910   47.4260 H   0  0  0  0  0  0  0  0  0  0  0  0
   57.8297   29.8898   46.3173 H   0  0  0  0  0  0  0  0  0  0  0  0
   56.7816   28.0377   46.3612 H   0  0  0  0  0  0  0  0  0  0  0  0
   57.2167   26.3102   45.8394 H   0  0  0  0  0  0  0  0  0  0  0  0
   57.6837   27.2624   48.2435 H   0  0  0  0  0  0  0  0  0  0  0  0
   58.7138   26.0494   47.3728 H   0  0  0  0  0  0  0  0  0  0  0  0
   59.6770   27.4360   51.1060 H   0  0  0  0  0  0  0  0  0  0  0  0
  1  2  2  0
  2  3  1  0
  3  4  1  0
  4  5  2  0
  5  6  1  0
  6  7  1  0
  7  8  1  0
  8  9  1  0
  9 10  2  0
 10 11  1  0
 10 12  1  0
 12 13  2  0
 13 14  1  0
 14 15  3  0
 13 16  1  0
 16 17  2  0
 17 18  1  0
  7 19  2  0
 19 20  1  0
 20 21  2  0
 21 22  1  0
 22 23  1  0
 23 24  1  0
 24 25  1  0
 25 26  1  0
 26 27  1  0
 27 28  2  0
 28 29  1  0
 29 30  2  0
 30 31  1  0
 31 32  1  0
 32 33  1  0
 32 34  2  0
 31 35  2  0
 25 36  1  0
 36 37  1  0
 20 38  1  0
 38  5  1  0
 17  9  1  0
 37 22  1  0
 35 27  1  0
  1 39  1  0
  1 40  1  0
  2 41  1  0
  3 42  1  0
  3 43  1  0
  6 44  1  0
 11 45  1  0
 11 46  1  0
 11 47  1  0
 12 48  1  0
 16 49  1  0
 18 50  1  0
 18 51  1  0
 18 52  1  0
 19 53  1  0
 22 54  1  0
 23 55  1  0
 23 56  1  0
 24 57  1  0
 24 58  1  0
 26 59  1  0
 26 60  1  0
 28 61  1  0
 29 62  1  0
 30 63  1  0
 33 64  1  0
 33 65  1  0
 35 66  1  0
 36 67  1  0
 36 68  1  0
 37 69  1  0
 37 70  1  0
 38 71  1  0
M  END
>  <smiles>  (40) 
C=CCN=c1[nH]c(Oc2c(C)cc(C#N)cc2C)cc(=NC2CCN(Cc3cccc(C(N)=O)c3)CC2)[nH]1

>  <score_type>  (40) 
oracle

>  <origin>  (40) 
adg

>  <m_score__min__energy>  (40) 
-9.8000000000000007

>  <m_primary>  (40) 
energy

$$$$
40:0
     RDKit          3D

 67 71  0  0  1  0  0  0  0  0999 V2000
   57.0930   33.8250   44.8610 C   0  0  0  0  0  0  0  0  0  0  0  0
   57.8460   32.7330   45.5730 C   0  0  0  0  0  0  0  0  0  0  0  0
   58.3230   32.9860   46.8410 C   0  0  0  0  0  0  0  0  0  0  0  0
   59.0030   31.9710   47.4650 C   0  0  0  0  0  0  0  0  0  0  0  0
   60.3160   30.0930   48.8310 C   0  0  0  0  0  0  0  0  0  0  0  0
   60.9410   29.1660   49.4670 N   0  0  0  0  0  0  0  0  0  0  0  0
   60.3820   28.4990   50.6260 C   0  0  0  0  0  0  0  0  0  0  0  0
   59.8200   29.5210   51.5650 C   0  0  0  0  0  0  0  0  0  0  0  0
   60.6880   30.1570   52.4460 C   0  0  0  0  0  0  0  0  0  0  0  0
   60.1580   31.0980   53.3120 C   0  0  0  0  0  0  0  0  0  0  0  0
   63.8630   33.0560   47.7460 C   0  0  0  0  0  0  0  0  0  0  0  0
   63.6020   33.1930   49.0990 C   0  0  0  0  0  0  0  0  0  0  0  0
   58.4570   29.8170   51.5500 C   0  0  0  0  0  0  0  0  0  0  0  0
   60.1230   31.2920   49.4340 N   0  0  0  0  0  0  0  0  0  0  0  0
   59.4690   32.2180   48.7460 C   0  0  0  0  0  0  0  0  0  0  0  0
   59.2680   33.3660   49.2880 N   0  0  0  0  0  0  0  0  0  0  0  0
   60.0630   34.5170   48.9900 C   0  0  0  0  0  0  0  0  0  0  0  0
   61.4120   33.9990   48.5530 C   0  0  0  0  0  0  0  0  0  0  0  0
   62.3670   33.6680   49.4890 C   0  0  0  0  0  0  0  0  0  0  0  0
   62.9350   33.3750   46.7710 C   0  0  0  0  0  0  0  0  0  0  0  0
   58.8060   31.4120   53.3200 C   0  0  0  0  0  0  0  0  0  0  0  0
   57.9510   30.7710   52.4360 C   0  0  0  0  0  0  0  0  0  0  0  0
   56.5000   31.1030   52.4420 C   0  0  0  0  0  0  0  0  0  0  0  0
   56.3950   32.5000   52.3710 F   0  0  0  0  0  0  0  0  0  0  0  0
   55.9480   30.7420   53.6490 F   0  0  0  0  0  0  0  0  0  0  0  0
   55.8650   30.5470   51.3650 F   0  0  0  0  0  0  0  0  0  0  0  0
   61.7160   33.8440   47.2150 C   0  0  0  0  0  0  0  0  0  0  0  0
   59.8720   29.8350   47.5880 N   0  0  0  0  0  0  0  0  0  0  0  0
   59.2030   30.7350   46.8390 C   0  0  0  0  0  0  0  0  0  0  0  0
   58.7340   30.4660   45.5690 C   0  0  0  0  0  0  0  0  0  0  0  0
   58.9800   29.1760   44.9290 C   0  0  0  0  0  0  0  0  0  0  0  0
   58.1400   28.1240   45.5710 C   0  0  0  0  0  0  0  0  0  0  0  0
   56.8870   27.7240   45.2420 N   0  0  0  0  0  0  0  0  0  0  0  0
   56.4690   26.7290   46.0390 C   0  0  0  0  0  0  0  0  0  0  0  0
   55.3660   26.1300   46.0100 O   0  0  0  0  0  0  0  0  0  0  0  0
   57.4430   26.4580   46.9070 N   0  0  0  0  0  0  0  0  0  0  0  0
   58.4770   27.3000   46.6390 C   0  0  0  0  0  0  0  0  0  0  0  0
   59.6430   27.2580   47.3800 O   0  0  0  0  0  0  0  0  0  0  0  0
   58.0440   31.4950   44.9420 C   0  0  0  0  0  0  0  0  0  0  0  0
   57.4430   31.3810   43.5930 C   0  0  0  0  0  0  0  0  0  0  0  0
   56.6312   34.4948   45.6014 H   0  0  0  0  0  0  0  0  0  0  0  0
   57.7882   34.3989   44.2307 H   0  0  0  0  0  0  0  0  0  0  0  0
   56.3094   33.3792   44.2307 H   0  0  0  0  0  0  0  0  0  0  0  0
   58.1655   33.9583   47.3308 H   0  0  0  0  0  0  0  0  0  0  0  0
   59.5818   27.8156   50.3057 H   0  0  0  0  0  0  0  0  0  0  0  0
   61.1703   27.9258   51.1358 H   0  0  0  0  0  0  0  0  0  0  0  0
   61.7621   29.9197   52.4544 H   0  0  0  0  0  0  0  0  0  0  0  0
   60.8290   31.6127   54.0155 H   0  0  0  0  0  0  0  0  0  0  0  0
   64.8479   32.6783   47.4340 H   0  0  0  0  0  0  0  0  0  0  0  0
   64.3637   32.9285   49.8473 H   0  0  0  0  0  0  0  0  0  0  0  0
   57.7859   29.3032   50.8460 H   0  0  0  0  0  0  0  0  0  0  0  0
   60.4830   31.4410   50.3870 H   0  0  0  0  0  0  0  0  0  0  0  0
   59.5993   35.1012   48.1815 H   0  0  0  0  0  0  0  0  0  0  0  0
   60.1529   35.1780   49.8646 H   0  0  0  0  0  0  0  0  0  0  0  0
   62.1422   33.7838   50.5595 H   0  0  0  0  0  0  0  0  0  0  0  0
   63.1570   33.2609   45.6997 H   0  0  0  0  0  0  0  0  0  0  0  0
   58.4157   32.1635   54.0221 H   0  0  0  0  0  0  0  0  0  0  0  0
   60.9513   34.1065   46.4691 H   0  0  0  0  0  0  0  0  0  0  0  0
   60.0490   28.8880   47.2140 H   0  0  0  0  0  0  0  0  0  0  0  0
   58.7263   29.2442   43.8608 H   0  0  0  0  0  0  0  0  0  0  0  0
   60.0417   28.9115   45.0421 H   0  0  0  0  0  0  0  0  0  0  0  0
   56.2660   28.0920   44.4710 H   0  0  0  0  0  0  0  0  0  0  0  0
   57.3880   25.7180   47.6530 H   0  0  0  0  0  0  0  0  0  0  0  0
   59.7090   27.8060   48.2480 H   0  0  0  0  0  0  0  0  0  0  0  0
   56.3663   31.1768   43.6874 H   0  0  0  0  0  0  0  0  0  0  0  0
   57.5908   32.3232   43.0449 H   0  0  0  0  0  0  0  0  0  0  0  0
   57.9256   30.5584   43.0449 H   0  0  0  0  0  0  0  0  0  0  0  0
  1  2  1  0
  2  3  2  0
  3  4  1  0
  4  5  1  0
  5  6  2  0
  6  7  1  0
  7  8  1  0
  8  9  2  0
  9 10  1  0
 10 11  2  0
 11 12  1  0
 12 13  2  0
  5 14  1  0
 14 15  1  0
 15 16  2  0
 16 17  1  0
 17 18  1  0
 18 19  2  0
 19 20  1  0
 20 21  2  0
 21 22  1  0
 22 23  1  0
 23 24  1  0
 23 25  1  0
 23 26  1  0
 22 27  2  0
 15 28  1  0
 28 29  1  0
 29 30  1  0
 30 31  1  0
 31 32  1  0
 32 33  1  0
 33 34  1  0
 34 35  2  0
 34 36  1  0
 36 37  1  0
 37 38  1  0
 30 39  2  0
 39 40  1  0
 39  2  1  0
 29  4  2  0
 37 32  2  0
 13  8  1  0
 27 18  1  0
  1 41  1  0
  1 42  1  0
  1 43  1  0
  3 44  1  0
  7 45  1  0
  7 46  1  0
  9 47  1  0
 10 48  1  0
 11 49  1  0
 12 50  1  0
 13 51  1  0
 14 52  1  0
 17 53  1  0
 17 54  1  0
 19 55  1  0
 20 56  1  0
 21 57  1  0
 27 58  1  0
 28 59  1  0
 31 60  1  0
 31 61  1  0
 33 62  1  0
 36 63  1  0
 38 64  1  0
 40 65  1  0
 40 66  1  0
 40 67  1  0
M  END
>  <smiles>  (41) 
Cc1cc2c(=NCc3ccccc3)[nH]c(=NCc3cccc(C(F)(F)F)c3)[nH]c2c(Cc2[nH]c(=O)[nH]c2O)c1C

>  <score_type>  (41) 
oracle

>  <origin>  (41) 
adg

>  <m_score__min__energy>  (41) 
-9.9600000000000009

>  <m_primary>  (41) 
energy

$$$$
41:0
     RDKit          3D

 46 48  0  0  0  0  0  0  0  0999 V2000
   55.9060   29.2640   45.0860 N   0  0  0  0  0  0  0  0  0  0  0  0
   57.2240   29.4750   45.5870 C   0  0  0  0  0  0  0  0  0  0  0  0
   57.9150   28.4810   45.9370 O   0  0  0  0  0  0  0  0  0  0  0  0
   57.7550   30.8510   45.7350 C   0  0  0  0  0  0  0  0  0  0  0  0
   57.3420   31.8400   44.8230 C   0  0  0  0  0  0  0  0  0  0  0  0
   57.7450   33.1680   44.9790 C   0  0  0  0  0  0  0  0  0  0  0  0
   58.5630   33.5290   46.0490 C   0  0  0  0  0  0  0  0  0  0  0  0
   58.9990   32.5600   46.9530 C   0  0  0  0  0  0  0  0  0  0  0  0
   58.6280   31.2170   46.7940 C   0  0  0  0  0  0  0  0  0  0  0  0
   59.1670   30.2500   47.7070 N   0  0  0  0  0  0  0  0  0  0  0  0
   59.3610   30.4800   49.1170 C   0  0  0  0  0  0  0  0  0  0  0  0
   58.3720   30.0400   50.0130 C   0  0  0  0  0  0  0  0  0  0  0  0
   58.5210   30.2270   51.3960 C   0  0  0  0  0  0  0  0  0  0  0  0
   57.4420   29.7660   52.3410 C   0  0  0  0  0  0  0  0  0  0  0  0
   56.2720   30.7180   52.3630 C   0  0  0  0  0  0  0  0  0  0  0  0
   56.3330   31.8000   51.7200 O   0  0  0  0  0  0  0  0  0  0  0  0
   55.1070   30.4620   53.1590 N   0  0  0  0  0  0  0  0  0  0  0  0
   53.9940   29.5920   52.7880 C   0  0  0  0  0  0  0  0  0  0  0  0
   53.0250   30.3150   51.8920 C   0  0  0  0  0  0  0  0  0  0  0  0
   52.7910   29.8670   50.5810 C   0  0  0  0  0  0  0  0  0  0  0  0
   51.8840   30.5410   49.7580 C   0  0  0  0  0  0  0  0  0  0  0  0
   51.2090   31.6690   50.2330 C   0  0  0  0  0  0  0  0  0  0  0  0
   50.3080   32.3340   49.4090 O   0  0  0  0  0  0  0  0  0  0  0  0
   51.4430   32.1270   51.5350 C   0  0  0  0  0  0  0  0  0  0  0  0
   50.7750   33.2490   52.0120 O   0  0  0  0  0  0  0  0  0  0  0  0
   52.3500   31.4530   52.3610 C   0  0  0  0  0  0  0  0  0  0  0  0
   59.6560   30.8880   51.8830 C   0  0  0  0  0  0  0  0  0  0  0  0
   60.6350   31.3490   51.0010 C   0  0  0  0  0  0  0  0  0  0  0  0
   60.4920   31.1590   49.6230 C   0  0  0  0  0  0  0  0  0  0  0  0
   61.4660   31.6720   48.7730 O   0  0  0  0  0  0  0  0  0  0  0  0
   55.1820   28.7810   45.6630 H   0  0  0  0  0  0  0  0  0  0  0  0
   56.6945   31.5639   43.9777 H   0  0  0  0  0  0  0  0  0  0  0  0
   57.4167   33.9301   44.2569 H   0  0  0  0  0  0  0  0  0  0  0  0
   58.8647   34.5786   46.1804 H   0  0  0  0  0  0  0  0  0  0  0  0
   59.6396   32.8521   47.7982 H   0  0  0  0  0  0  0  0  0  0  0  0
   59.3790   29.2980   47.3300 H   0  0  0  0  0  0  0  0  0  0  0  0
   57.4702   29.5431   49.6259 H   0  0  0  0  0  0  0  0  0  0  0  0
   57.0884   28.7747   52.0212 H   0  0  0  0  0  0  0  0  0  0  0  0
   57.8690   29.7258   53.3539 H   0  0  0  0  0  0  0  0  0  0  0  0
   54.3860   28.7111   52.2586 H   0  0  0  0  0  0  0  0  0  0  0  0
   53.4662   29.2858   53.7032 H   0  0  0  0  0  0  0  0  0  0  0  0
   53.3234   28.9827   50.2008 H   0  0  0  0  0  0  0  0  0  0  0  0
   51.7011   30.1828   48.7342 H   0  0  0  0  0  0  0  0  0  0  0  0
   52.5347   31.8168   53.3825 H   0  0  0  0  0  0  0  0  0  0  0  0
   59.7764   31.0445   52.9651 H   0  0  0  0  0  0  0  0  0  0  0  0
   61.5242   31.8648   51.3924 H   0  0  0  0  0  0  0  0  0  0  0  0
  1  2  1  0
  2  3  2  0
  2  4  1  0
  4  5  2  0
  5  6  1  0
  6  7  2  0
  7  8  1  0
  8  9  2  0
  9 10  1  0
 10 11  1  0
 11 12  2  0
 12 13  1  0
 13 14  1  0
 14 15  1  0
 15 16  2  0
 15 17  1  0
 17 18  1  0
 18 19  1  0
 19 20  2  0
 20 21  1  0
 21 22  2  0
 22 23  1  0
 22 24  1  0
 24 25  1  0
 24 26  2  0
 13 27  2  0
 27 28  1  0
 28 29  2  0
 29 30  1  0
  9  4  1  0
 29 11  1  0
 26 19  1  0
  1 31  1  0
  5 32  1  0
  6 33  1  0
  7 34  1  0
  8 35  1  0
 10 36  1  0
 12 37  1  0
 14 38  1  0
 14 39  1  0
 18 40  1  0
 18 41  1  0
 20 42  1  0
 21 43  1  0
 26 44  1  0
 27 45  1  0
 28 46  1  0
M  CHG  5   1  -1  17  -1  23  -1  25  -1  30  -1
M  END
>  <UniqueID>  (42) 
37

>  <SMILES>  (42) 
[NH-]C(=O)c1ccccc1Nc1cc(CC(=O)[N-]Cc2ccc([O-])c([O-])c2)ccc1[O-]

>  <Energy>  (42) 
58.515381391581954

>  <Genealogy>  (42) 
[NH-]C(=O)c1ccccc1Nc1cc(CC(=O)[N-]Cc2ccc([O-])c([O-])c2)ccc1[O-] (protonated)
[NH-]C(=O)c1ccccc1Nc1cc(CC(=O)[N-]Cc2ccc([O-])c([O-])c2)ccc1[O-] (3D coordinates assigned)
[NH-]C(=O)c1ccccc1Nc1cc(CC(=O)[N-]Cc2ccc([O-])c([O-])c2)ccc1[O-] (optimized conformer: 58.515381391581954 kcal/mol)

>  <smiles>  (42) 
NC(=O)c1ccccc1Nc1cc(CC(=O)NCc2ccc(O)c(O)c2)ccc1O

>  <score_type>  (42) 
oracle

>  <origin>  (42) 
adg

>  <m_score__min__energy>  (42) 
-21.879999999999999

>  <m_primary>  (42) 
energy

$$$$
42:0
     RDKit          3D

 44 46  0  0  0  0  0  0  0  0999 V2000
   55.1460   29.3410   44.8240 N   0  0  0  0  0  0  0  0  0  0  0  0
   56.5400   29.6060   44.9640 C   0  0  0  0  0  0  0  0  0  0  0  0
   57.2460   28.8270   45.6600 O   0  0  0  0  0  0  0  0  0  0  0  0
   57.1530   30.7800   44.2990 C   0  0  0  0  0  0  0  0  0  0  0  0
   57.3880   30.7760   42.9130 C   0  0  0  0  0  0  0  0  0  0  0  0
   57.9520   31.8900   42.2890 C   0  0  0  0  0  0  0  0  0  0  0  0
   58.3030   33.0140   43.0370 C   0  0  0  0  0  0  0  0  0  0  0  0
   58.1100   33.0300   44.4290 C   0  0  0  0  0  0  0  0  0  0  0  0
   58.4920   34.2490   45.2500 C   0  0  0  0  0  0  0  0  0  0  0  0
   59.4190   33.9690   46.3800 N   0  0  0  0  0  0  0  0  0  0  0  0
   59.3940   32.5420   46.8170 C   0  0  0  0  0  0  0  0  0  0  0  0
   58.7050   32.3420   48.1740 C   0  0  0  0  0  0  0  0  0  0  0  0
   59.3610   33.1830   49.1860 N   0  0  0  0  0  0  0  0  0  0  0  0
   59.5750   32.7020   50.5260 C   0  0  0  0  0  0  0  0  0  0  0  0
   60.6250   33.0350   51.1430 O   0  0  0  0  0  0  0  0  0  0  0  0
   58.5920   31.8250   51.2030 C   0  0  0  0  0  0  0  0  0  0  0  0
   57.6670   32.3650   52.1080 C   0  0  0  0  0  0  0  0  0  0  0  0
   56.7340   31.5360   52.7360 C   0  0  0  0  0  0  0  0  0  0  0  0
   56.7270   30.1700   52.4410 C   0  0  0  0  0  0  0  0  0  0  0  0
   55.8950   29.4070   52.9990 O   0  0  0  0  0  0  0  0  0  0  0  0
   57.6160   29.6630   51.5470 N   0  0  0  0  0  0  0  0  0  0  0  0
   58.5350   30.4490   50.9250 C   0  0  0  0  0  0  0  0  0  0  0  0
   59.9390   34.4690   48.7790 C   0  0  0  0  0  0  0  0  0  0  0  0
   59.2740   34.9550   47.4850 C   0  0  0  0  0  0  0  0  0  0  0  0
   57.5070   31.9190   45.0470 C   0  0  0  0  0  0  0  0  0  0  0  0
   54.5090   29.3630   45.6520 H   0  0  0  0  0  0  0  0  0  0  0  0
   57.1259   29.8897   42.3166 H   0  0  0  0  0  0  0  0  0  0  0  0
   58.1205   31.8815   41.2020 H   0  0  0  0  0  0  0  0  0  0  0  0
   58.7333   33.8928   42.5344 H   0  0  0  0  0  0  0  0  0  0  0  0
   58.9763   34.9754   44.5808 H   0  0  0  0  0  0  0  0  0  0  0  0
   57.5611   34.6281   45.6969 H   0  0  0  0  0  0  0  0  0  0  0  0
   60.3770   34.1290   45.9870 H   0  0  0  0  0  0  0  0  0  0  0  0
   58.8551   31.9531   46.0602 H   0  0  0  0  0  0  0  0  0  0  0  0
   60.4380   32.2132   46.9266 H   0  0  0  0  0  0  0  0  0  0  0  0
   57.6454   32.6258   48.0925 H   0  0  0  0  0  0  0  0  0  0  0  0
   58.7801   31.2855   48.4709 H   0  0  0  0  0  0  0  0  0  0  0  0
   57.6759   33.4436   52.3240 H   0  0  0  0  0  0  0  0  0  0  0  0
   56.0133   31.9537   53.4544 H   0  0  0  0  0  0  0  0  0  0  0  0
   59.2359   30.0061   50.2020 H   0  0  0  0  0  0  0  0  0  0  0  0
   59.7743   35.2108   49.5744 H   0  0  0  0  0  0  0  0  0  0  0  0
   61.0179   34.3422   48.6058 H   0  0  0  0  0  0  0  0  0  0  0  0
   58.2033   35.1196   47.6760 H   0  0  0  0  0  0  0  0  0  0  0  0
   59.7707   35.8868   47.1766 H   0  0  0  0  0  0  0  0  0  0  0  0
   57.3096   31.9407   46.1289 H   0  0  0  0  0  0  0  0  0  0  0  0
  1  2  1  0
  2  3  2  0
  2  4  1  0
  4  5  2  0
  5  6  1  0
  6  7  2  0
  7  8  1  0
  8  9  1  0
  9 10  1  0
 10 11  1  0
 11 12  1  0
 12 13  1  0
 13 14  1  0
 14 15  2  0
 14 16  1  0
 16 17  1  0
 17 18  2  0
 18 19  1  0
 19 20  2  0
 19 21  1  0
 21 22  1  0
 13 23  1  0
 23 24  1  0
  8 25  2  0
 25  4  1  0
 24 10  1  0
 22 16  2  0
  1 26  1  0
  5 27  1  0
  6 28  1  0
  7 29  1  0
  9 30  1  0
  9 31  1  0
 10 32  1  0
 11 33  1  0
 11 34  1  0
 12 35  1  0
 12 36  1  0
 17 37  1  0
 18 38  1  0
 22 39  1  0
 23 40  1  0
 23 41  1  0
 24 42  1  0
 24 43  1  0
 25 44  1  0
M  CHG  3   1  -1  10   1  21  -1
M  END
>  <UniqueID>  (43) 
38

>  <SMILES>  (43) 
[NH-]C(=O)c1cccc(C[NH+]2CCN(C(=O)c3ccc(=O)[n-]c3)CC2)c1

>  <Energy>  (43) 
61.730365099260304

>  <Genealogy>  (43) 
[NH-]C(=O)c1cccc(C[NH+]2CCN(C(=O)c3ccc(=O)[n-]c3)CC2)c1 (protonated)
[NH-]C(=O)c1cccc(C[NH+]2CCN(C(=O)c3ccc(=O)[n-]c3)CC2)c1 (3D coordinates assigned)
[NH-]C(=O)c1cccc(C[NH+]2CCN(C(=O)c3ccc(=O)[n-]c3)CC2)c1 (nonaromatic ring conformer: 61.730365099260304 kcal/mol)

>  <smiles>  (43) 
NC(=O)c1cccc(CN2CCN(C(=O)c3ccc(=O)[nH]c3)CC2)c1

>  <score_type>  (43) 
oracle

>  <origin>  (43) 
adg

>  <m_score__min__energy>  (43) 
-10.869999999999999

>  <m_primary>  (43) 
energy

$$$$
43:0
     RDKit          3D

 40 42  0  0  0  0  0  0  0  0999 V2000
   64.7493   32.8402   46.9449 H   0  0  0  0  0  0  0  0  0  0  0  0
   64.0350   33.1000   47.7400 C   0  0  0  0  0  0  0  0  0  0  0  0
   64.4550   33.1440   49.0680 C   0  0  0  0  0  0  0  0  0  0  0  0
   65.5013   32.9261   49.3284 H   0  0  0  0  0  0  0  0  0  0  0  0
   63.5320   33.4680   50.0640 C   0  0  0  0  0  0  0  0  0  0  0  0
   63.8509   33.5005   51.1163 H   0  0  0  0  0  0  0  0  0  0  0  0
   62.2390   33.7440   49.7390 N   0  0  0  0  0  0  0  0  0  0  0  0
   61.5720   33.9460   50.5160 H   0  0  0  0  0  0  0  0  0  0  0  0
   61.8070   33.7280   48.4420 C   0  0  0  0  0  0  0  0  0  0  0  0
   60.3990   34.0500   48.1080 C   0  0  0  0  0  0  0  0  0  0  0  0
   59.6760   34.6200   48.9680 O   0  0  0  0  0  0  0  0  0  0  0  0
   59.8350   33.7560   46.8230 N   0  0  0  0  0  0  0  0  0  0  0  0
   59.4060   32.4630   46.3740 C   0  0  0  0  0  0  0  0  0  0  0  0
   60.2770   31.3850   46.5210 C   0  0  0  0  0  0  0  0  0  0  0  0
   61.2798   31.5412   46.9452 H   0  0  0  0  0  0  0  0  0  0  0  0
   59.8760   30.1090   46.1300 C   0  0  0  0  0  0  0  0  0  0  0  0
   60.5596   29.2585   46.2690 H   0  0  0  0  0  0  0  0  0  0  0  0
   58.6440   29.9010   45.5760 N   0  0  0  0  0  0  0  0  0  0  0  0
   58.2480   28.5280   45.2150 C   0  0  0  0  0  0  0  0  0  0  0  0
   59.0199   28.0909   44.5645 H   0  0  0  0  0  0  0  0  0  0  0  0
   57.2804   28.5696   44.6934 H   0  0  0  0  0  0  0  0  0  0  0  0
   58.0930   27.6660   46.4430 C   0  0  0  0  0  0  0  0  0  0  0  0
   58.1550   28.1910   47.5860 O   0  0  0  0  0  0  0  0  0  0  0  0
   57.6750   26.2990   46.3350 N   0  0  0  0  0  0  0  0  0  0  0  0
   56.4770   25.8890   46.0380 C   0  0  0  0  0  0  0  0  0  0  0  0
   55.4160   26.7170   45.9980 N   0  0  0  0  0  0  0  0  0  0  0  0
   54.3820   25.9770   45.7160 O   0  0  0  0  0  0  0  0  0  0  0  0
   54.7230   24.7170   45.5780 C   0  0  0  0  0  0  0  0  0  0  0  0
   53.7690   23.6080   45.2900 C   0  0  0  0  0  0  0  0  0  0  0  0
   53.4037   23.1834   46.2367 H   0  0  0  0  0  0  0  0  0  0  0  0
   52.9188   23.9969   44.7104 H   0  0  0  0  0  0  0  0  0  0  0  0
   54.2806   22.8255   44.7104 H   0  0  0  0  0  0  0  0  0  0  0  0
   56.0800   24.5880   45.7860 C   0  0  0  0  0  0  0  0  0  0  0  0
   56.6947   23.6762   45.7584 H   0  0  0  0  0  0  0  0  0  0  0  0
   57.7830   30.9550   45.3860 C   0  0  0  0  0  0  0  0  0  0  0  0
   56.6500   30.7650   44.8630 O   0  0  0  0  0  0  0  0  0  0  0  0
   58.1520   32.2550   45.7690 C   0  0  0  0  0  0  0  0  0  0  0  0
   57.0720   33.6010   45.4010 Cl  0  0  0  0  0  0  0  0  0  0  0  0
   62.7070   33.3860   47.4200 C   0  0  0  0  0  0  0  0  0  0  0  0
   62.3678   33.3438   46.3745 H   0  0  0  0  0  0  0  0  0  0  0  0
  1  2  1  0
  2  3  2  0
  3  4  1  0
  3  5  1  0
  5  6  1  0
  5  7  2  0
  7  8  1  0
  7  9  1  0
  9 10  1  0
 10 11  2  0
 10 12  1  0
 12 13  1  0
 13 14  1  0
 14 15  1  0
 14 16  2  0
 16 17  1  0
 16 18  1  0
 18 19  1  0
 19 20  1  0
 19 21  1  0
 19 22  1  0
 22 23  2  0
 22 24  1  0
 24 25  2  0
 25 26  1  0
 26 27  1  0
 27 28  1  0
 28 29  1  0
 29 30  1  0
 29 31  1  0
 29 32  1  0
 28 33  2  0
 33 34  1  0
 18 35  1  0
 35 36  2  0
 35 37  1  0
 37 38  1  0
  9 39  2  0
 39 40  1  0
 39  2  1  0
 37 13  2  0
 33 25  1  0
M  CHG  3   7   1  12  -1  26  -1
M  END
>  <UniqueID>  (44) 
39

>  <SMILES>  (44) 
Cc1c/c(=N\C(=O)Cn2ccc([N-]C(=O)c3cccc[nH+]3)c(Cl)c2=O)[n-]o1

>  <Energy>  (44) 
92.65091131088926

>  <Genealogy>  (44) 
Cc1cc(=NC(=O)Cn2ccc([N-]C(=O)c3cccc[nH+]3)c(Cl)c2=O)[n-]o1 (protonated)
Cc1c/c(=N\C(=O)Cn2ccc([N-]C(=O)c3cccc[nH+]3)c(Cl)c2=O)[n-]o1 (cis-trans isomerization)
Cc1c/c(=N\C(=O)Cn2ccc([N-]C(=O)c3cccc[nH+]3)c(Cl)c2=O)[n-]o1 (3D coordinates assigned)
Cc1c/c(=N\C(=O)Cn2ccc([N-]C(=O)c3cccc[nH+]3)c(Cl)c2=O)[n-]o1 (optimized conformer: 92.65091131088926 kcal/mol)

>  <smiles>  (44) 
Cc1cc(=NC(=O)Cn2ccc(NC(=O)c3ccccn3)c(Cl)c2=O)[nH]o1

>  <score_type>  (44) 
oracle

>  <origin>  (44) 
adg

>  <m_score__min__energy>  (44) 
-10.779999999999999

>  <m_primary>  (44) 
energy

$$$$
44:0
     RDKit          3D

 47 49  0  0  0  0  0  0  0  0999 V2000
   52.3094   30.4041   50.3097 H   0  0  0  0  0  0  0  0  0  0  0  0
   52.1090   31.0570   51.1720 C   0  0  0  0  0  0  0  0  0  0  0  0
   51.3990   32.3280   50.9570 C   0  0  0  0  0  0  0  0  0  0  0  0
   51.3930   32.8520   49.8130 O   0  0  0  0  0  0  0  0  0  0  0  0
   50.7270   32.9590   51.9980 O   0  0  0  0  0  0  0  0  0  0  0  0
   52.5180   30.6730   52.3880 C   0  0  0  0  0  0  0  0  0  0  0  0
   51.8281   30.8038   53.2347 H   0  0  0  0  0  0  0  0  0  0  0  0
   53.8510   30.0810   52.6540 C   0  0  0  0  0  0  0  0  0  0  0  0
   53.9470   29.0190   53.5690 C   0  0  0  0  0  0  0  0  0  0  0  0
   53.0437   28.6575   54.0821 H   0  0  0  0  0  0  0  0  0  0  0  0
   55.1800   28.4190   53.8320 C   0  0  0  0  0  0  0  0  0  0  0  0
   55.2425   27.5851   54.5466 H   0  0  0  0  0  0  0  0  0  0  0  0
   56.3340   28.8740   53.1910 C   0  0  0  0  0  0  0  0  0  0  0  0
   57.3026   28.3985   53.4047 H   0  0  0  0  0  0  0  0  0  0  0  0
   56.2640   29.9310   52.2790 C   0  0  0  0  0  0  0  0  0  0  0  0
   57.4420   30.3480   51.6400 O   0  0  0  0  0  0  0  0  0  0  0  0
   58.0600   31.5960   51.8050 C   0  0  0  0  0  0  0  0  0  0  0  0
   58.1250   32.1490   53.0890 C   0  0  0  0  0  0  0  0  0  0  0  0
   57.6901   31.6063   53.9412 H   0  0  0  0  0  0  0  0  0  0  0  0
   58.7400   33.3880   53.2940 C   0  0  0  0  0  0  0  0  0  0  0  0
   58.8027   33.8090   54.3083 H   0  0  0  0  0  0  0  0  0  0  0  0
   59.2750   34.0920   52.2120 C   0  0  0  0  0  0  0  0  0  0  0  0
   59.7799   35.0545   52.3815 H   0  0  0  0  0  0  0  0  0  0  0  0
   59.1720   33.5790   50.9130 C   0  0  0  0  0  0  0  0  0  0  0  0
   59.7690   34.2940   49.8190 N   0  0  0  0  0  0  0  0  0  0  0  0
   59.3250   35.2040   49.5630 H   0  0  0  0  0  0  0  0  0  0  0  0
   60.7970   33.8750   49.1240 C   0  0  0  0  0  0  0  0  0  0  0  0
   62.1270   33.9150   49.6620 N   0  0  0  0  0  0  0  0  0  0  0  0
   62.3170   34.1280   50.6650 H   0  0  0  0  0  0  0  0  0  0  0  0
   62.9330   33.6240   49.0660 H   0  0  0  0  0  0  0  0  0  0  0  0
   60.5970   33.2410   47.8500 N   0  0  0  0  0  0  0  0  0  0  0  0
   61.2580   32.4780   47.5800 H   0  0  0  0  0  0  0  0  0  0  0  0
   59.5730   33.6150   46.9100 C   0  0  0  0  0  0  0  0  0  0  0  0
   58.2710   33.1150   47.0740 C   0  0  0  0  0  0  0  0  0  0  0  0
   58.0409   32.4574   47.9253 H   0  0  0  0  0  0  0  0  0  0  0  0
   57.2660   33.4480   46.1620 C   0  0  0  0  0  0  0  0  0  0  0  0
   56.2465   33.0596   46.3028 H   0  0  0  0  0  0  0  0  0  0  0  0
   57.5530   34.2730   45.0720 C   0  0  0  0  0  0  0  0  0  0  0  0
   56.7587   34.5396   44.3592 H   0  0  0  0  0  0  0  0  0  0  0  0
   58.8490   34.7590   44.8880 C   0  0  0  0  0  0  0  0  0  0  0  0
   59.0758   35.4040   44.0263 H   0  0  0  0  0  0  0  0  0  0  0  0
   59.8590   34.4280   45.7960 C   0  0  0  0  0  0  0  0  0  0  0  0
   60.8809   34.8039   45.6399 H   0  0  0  0  0  0  0  0  0  0  0  0
   58.5760   32.3210   50.7160 C   0  0  0  0  0  0  0  0  0  0  0  0
   58.5128   31.9003   49.7016 H   0  0  0  0  0  0  0  0  0  0  0  0
   55.0160   30.5160   51.9900 C   0  0  0  0  0  0  0  0  0  0  0  0
   54.9497   31.3184   51.2405 H   0  0  0  0  0  0  0  0  0  0  0  0
  1  2  1  0
  2  3  1  0
  3  4  2  0
  3  5  1  0
  2  6  2  0
  6  7  1  0
  6  8  1  0
  8  9  2  0
  9 10  1  0
  9 11  1  0
 11 12  1  0
 11 13  2  0
 13 14  1  0
 13 15  1  0
 15 16  1  0
 16 17  1  0
 17 18  2  0
 18 19  1  0
 18 20  1  0
 20 21  1  0
 20 22  2  0
 22 23  1  0
 22 24  1  0
 24 25  1  0
 25 26  1  0
 25 27  2  3
 27 28  1  0
 28 29  1  0
 28 30  1  0
 27 31  1  0
 31 32  1  0
 31 33  1  0
 33 34  2  0
 34 35  1  0
 34 36  1  0
 36 37  1  0
 36 38  2  0
 38 39  1  0
 38 40  1  0
 40 41  1  0
 40 42  2  0
 42 43  1  0
 24 44  2  0
 44 45  1  0
 15 46  2  0
 46 47  1  0
 46  8  1  0
 44 17  1  0
 42 33  1  0
M  CHG  2   5  -1  25   1
M  END
>  <UniqueID>  (45) 
40

>  <SMILES>  (45) 
NC(Nc1ccccc1)=[NH+]c1cccc(Oc2cccc(/C=C/C(=O)[O-])c2)c1

>  <Energy>  (45) 
66.42672631587395

>  <Genealogy>  (45) 
NC(Nc1ccccc1)=[NH+]c1cccc(Oc2cccc(C=CC(=O)[O-])c2)c1 (protonated)
NC(Nc1ccccc1)=[NH+]c1cccc(Oc2cccc(/C=C/C(=O)[O-])c2)c1 (cis-trans isomerization)
NC(Nc1ccccc1)=[NH+]c1cccc(Oc2cccc(/C=C/C(=O)[O-])c2)c1 (3D coordinates assigned)
NC(Nc1ccccc1)=[NH+]c1cccc(Oc2cccc(/C=C/C(=O)[O-])c2)c1 (optimized conformer: 66.42672631587395 kcal/mol)

>  <smiles>  (45) 
NC(=Nc1cccc(Oc2cccc(C=CC(=O)O)c2)c1)Nc1ccccc1

>  <score_type>  (45) 
oracle

>  <origin>  (45) 
adg

>  <m_score__min__energy>  (45) 
-11.19

>  <m_primary>  (45) 
energy

$$$$
45:0
     RDKit          3D

 71 75  0  0  0  0  0  0  0  0999 V2000
   62.3090   29.1470   52.4180 O   0  0  0  0  0  0  0  0  0  0  0  0
   61.1670   29.1520   51.8910 C   0  0  0  0  0  0  0  0  0  0  0  0
   60.0620   29.6630   52.6540 N   0  0  0  0  0  0  0  0  0  0  0  0
   59.4230   30.9820   52.6080 C   0  0  0  0  0  0  0  0  0  0  0  0
   58.0950   30.9590   51.8340 C   0  0  0  0  0  0  0  0  0  0  0  0
   57.3590   32.3040   51.9700 C   0  0  0  0  0  0  0  0  0  0  0  0
   58.3060   33.5250   52.0130 C   0  0  0  0  0  0  0  0  0  0  0  0
   59.6670   33.2260   51.3680 C   0  0  0  0  0  0  0  0  0  0  0  0
   60.3900   32.0760   52.0960 C   0  0  0  0  0  0  0  0  0  0  0  0
   61.0260   28.6150   50.5290 C   0  0  0  0  0  0  0  0  0  0  0  0
   61.0110   27.2320   50.3150 C   0  0  0  0  0  0  0  0  0  0  0  0
   60.7600   26.7150   49.0420 C   0  0  0  0  0  0  0  0  0  0  0  0
   60.4900   27.5770   47.9640 C   0  0  0  0  0  0  0  0  0  0  0  0
   60.0950   27.0030   46.6250 C   0  0  0  0  0  0  0  0  0  0  0  0
   58.7900   27.5280   46.1680 N   0  0  0  0  0  0  0  0  0  0  0  0
   57.6320   26.8500   46.4480 C   0  0  0  0  0  0  0  0  0  0  0  0
   57.6500   25.7850   47.1240 O   0  0  0  0  0  0  0  0  0  0  0  0
   56.4120   27.3300   45.9900 C   0  0  0  0  0  0  0  0  0  0  0  0
   56.3820   28.5020   45.2460 C   0  0  0  0  0  0  0  0  0  0  0  0
   55.1530   28.9720   44.7930 O   0  0  0  0  0  0  0  0  0  0  0  0
   57.5420   29.1770   44.9730 N   0  0  0  0  0  0  0  0  0  0  0  0
   57.5060   30.4370   44.2050 C   0  0  0  0  0  0  0  0  0  0  0  0
   57.8390   31.6140   45.0870 C   0  0  0  0  0  0  0  0  0  0  0  0
   56.8340   32.4980   45.5020 C   0  0  0  0  0  0  0  0  0  0  0  0
   57.1480   33.5880   46.3140 C   0  0  0  0  0  0  0  0  0  0  0  0
   58.4670   33.8090   46.7170 C   0  0  0  0  0  0  0  0  0  0  0  0
   59.4920   32.9330   46.3120 C   0  0  0  0  0  0  0  0  0  0  0  0
   60.8760   33.1730   46.6320 N   0  0  0  0  0  0  0  0  0  0  0  0
   61.7130   32.2410   47.3310 C   0  0  0  0  0  0  0  0  0  0  0  0
   61.8340   31.0660   46.8910 O   0  0  0  0  0  0  0  0  0  0  0  0
   62.4460   32.6550   48.5520 C   0  0  0  0  0  0  0  0  0  0  0  0
   62.0860   33.8330   49.2340 C   0  0  0  0  0  0  0  0  0  0  0  0
   62.8030   34.2470   50.3620 C   0  0  0  0  0  0  0  0  0  0  0  0
   63.8850   33.4930   50.8200 C   0  0  0  0  0  0  0  0  0  0  0  0
   64.5850   33.9030   51.9060 F   0  0  0  0  0  0  0  0  0  0  0  0
   64.2530   32.3250   50.1520 C   0  0  0  0  0  0  0  0  0  0  0  0
   63.5410   31.9060   49.0240 C   0  0  0  0  0  0  0  0  0  0  0  0
   59.1620   31.8290   45.5110 C   0  0  0  0  0  0  0  0  0  0  0  0
   58.7390   28.6970   45.4460 C   0  0  0  0  0  0  0  0  0  0  0  0
   59.8060   29.3340   45.2110 O   0  0  0  0  0  0  0  0  0  0  0  0
   60.4750   28.9650   48.1880 C   0  0  0  0  0  0  0  0  0  0  0  0
   60.7350   29.4790   49.4620 C   0  0  0  0  0  0  0  0  0  0  0  0
   59.1690   31.2497   53.6443 H   0  0  0  0  0  0  0  0  0  0  0  0
   58.3007   30.7665   50.7707 H   0  0  0  0  0  0  0  0  0  0  0  0
   57.4579   30.1650   52.2509 H   0  0  0  0  0  0  0  0  0  0  0  0
   56.6822   32.4187   51.1105 H   0  0  0  0  0  0  0  0  0  0  0  0
   56.8182   32.2808   52.9276 H   0  0  0  0  0  0  0  0  0  0  0  0
   57.8336   34.3589   51.4732 H   0  0  0  0  0  0  0  0  0  0  0  0
   58.4811   33.7797   53.0687 H   0  0  0  0  0  0  0  0  0  0  0  0
   59.5110   32.9428   50.3166 H   0  0  0  0  0  0  0  0  0  0  0  0
   60.2911   34.1290   51.4388 H   0  0  0  0  0  0  0  0  0  0  0  0
   61.1044   31.6140   51.3987 H   0  0  0  0  0  0  0  0  0  0  0  0
   60.8934   32.5072   52.9738 H   0  0  0  0  0  0  0  0  0  0  0  0
   61.1982   26.5473   51.1553 H   0  0  0  0  0  0  0  0  0  0  0  0
   60.7736   25.6268   48.8816 H   0  0  0  0  0  0  0  0  0  0  0  0
   60.8642   27.2655   45.8837 H   0  0  0  0  0  0  0  0  0  0  0  0
   60.0069   25.9118   46.7323 H   0  0  0  0  0  0  0  0  0  0  0  0
   55.4810   26.7885   46.2138 H   0  0  0  0  0  0  0  0  0  0  0  0
   58.2391   30.3812   43.3868 H   0  0  0  0  0  0  0  0  0  0  0  0
   56.4915   30.5748   43.8029 H   0  0  0  0  0  0  0  0  0  0  0  0
   55.7935   32.3318   45.1863 H   0  0  0  0  0  0  0  0  0  0  0  0
   56.3536   34.2763   46.6383 H   0  0  0  0  0  0  0  0  0  0  0  0
   58.7063   34.6727   47.3547 H   0  0  0  0  0  0  0  0  0  0  0  0
   61.2680   34.1260   46.4570 H   0  0  0  0  0  0  0  0  0  0  0  0
   61.2351   34.4321   48.8775 H   0  0  0  0  0  0  0  0  0  0  0  0
   62.5136   35.1682   50.8889 H   0  0  0  0  0  0  0  0  0  0  0  0
   65.1058   31.7319   50.5137 H   0  0  0  0  0  0  0  0  0  0  0  0
   63.8383   30.9848   48.5016 H   0  0  0  0  0  0  0  0  0  0  0  0
   59.9494   31.1221   45.2107 H   0  0  0  0  0  0  0  0  0  0  0  0
   60.2574   29.6507   47.3559 H   0  0  0  0  0  0  0  0  0  0  0  0
   60.7114   30.5660   49.6289 H   0  0  0  0  0  0  0  0  0  0  0  0
  1  2  2  0
  2  3  1  0
  3  4  1  0
  4  5  1  0
  5  6  1  0
  6  7  1  0
  7  8  1  0
  8  9  1  0
  2 10  1  0
 10 11  2  0
 11 12  1  0
 12 13  2  0
 13 14  1  0
 14 15  1  0
 15 16  1  0
 16 17  2  0
 16 18  1  0
 18 19  2  0
 19 20  1  0
 19 21  1  0
 21 22  1  0
 22 23  1  0
 23 24  2  0
 24 25  1  0
 25 26  2  0
 26 27  1  0
 27 28  1  0
 28 29  1  0
 29 30  2  0
 29 31  1  0
 31 32  2  0
 32 33  1  0
 33 34  2  0
 34 35  1  0
 34 36  1  0
 36 37  2  0
 27 38  2  0
 21 39  1  0
 39 40  2  0
 13 41  1  0
 41 42  2  0
  9  4  1  0
 42 10  1  0
 39 15  1  0
 38 23  1  0
 37 31  1  0
  4 43  1  0
  5 44  1  0
  5 45  1  0
  6 46  1  0
  6 47  1  0
  7 48  1  0
  7 49  1  0
  8 50  1  0
  8 51  1  0
  9 52  1  0
  9 53  1  0
 11 54  1  0
 12 55  1  0
 14 56  1  0
 14 57  1  0
 18 58  1  0
 22 59  1  0
 22 60  1  0
 24 61  1  0
 25 62  1  0
 26 63  1  0
 28 64  1  0
 32 65  1  0
 33 66  1  0
 36 67  1  0
 37 68  1  0
 38 69  1  0
 41 70  1  0
 42 71  1  0
M  CHG  2   3  -1  20  -1
M  END
>  <UniqueID>  (46) 
41

>  <SMILES>  (46) 
O=C([N-]C1CCCCC1)c1ccc(Cn2c(=O)cc([O-])n(Cc3cccc(NC(=O)c4ccc(F)cc4)c3)c2=O)cc1

>  <Energy>  (46) 
95.03769298495902

>  <Genealogy>  (46) 
O=C([N-]C1CCCCC1)c1ccc(Cn2c(=O)cc([O-])n(Cc3cccc(NC(=O)c4ccc(F)cc4)c3)c2=O)cc1 (protonated)
O=C([N-]C1CCCCC1)c1ccc(Cn2c(=O)cc([O-])n(Cc3cccc(NC(=O)c4ccc(F)cc4)c3)c2=O)cc1 (3D coordinates assigned)
O=C([N-]C1CCCCC1)c1ccc(Cn2c(=O)cc([O-])n(Cc3cccc(NC(=O)c4ccc(F)cc4)c3)c2=O)cc1 (nonaromatic ring conformer: 95.03769298495902 kcal/mol)

>  <smiles>  (46) 
O=C(Nc1cccc(Cn2c(O)cc(=O)n(Cc3ccc(C(=O)NC4CCCCC4)cc3)c2=O)c1)c1ccc(F)cc1

>  <score_type>  (46) 
oracle

>  <origin>  (46) 
adg

>  <m_score__min__energy>  (46) 
-13.4

>  <m_primary>  (46) 
energy

$$$$
46:0
     RDKit          3D

 46 49  0  0  0  0  0  0  0  0999 V2000
   57.6340   26.2800   47.3390 C   0  0  0  0  0  0  0  0  0  0  0  0
   57.9510   26.8140   46.1490 C   0  0  0  0  0  0  0  0  0  0  0  0
   57.5860   26.3420   44.8780 C   0  0  0  0  0  0  0  0  0  0  0  0
   57.0210   25.1810   44.4930 C   0  0  0  0  0  0  0  0  0  0  0  0
   55.7770   24.6110   45.0370 C   0  0  0  0  0  0  0  0  0  0  0  0
   55.3600   23.3480   44.8330 N   0  0  0  0  0  0  0  0  0  0  0  0
   54.1290   23.3330   45.3890 C   0  0  0  0  0  0  0  0  0  0  0  0
   53.4090   22.3010   45.4140 O   0  0  0  0  0  0  0  0  0  0  0  0
   53.7270   24.5140   45.9070 N   0  0  0  0  0  0  0  0  0  0  0  0
   54.7760   25.3140   45.6610 C   0  0  0  0  0  0  0  0  0  0  0  0
   54.8160   26.6620   45.9950 O   0  0  0  0  0  0  0  0  0  0  0  0
   57.9410   27.3370   43.9790 C   0  0  0  0  0  0  0  0  0  0  0  0
   58.5610   28.3300   44.7070 C   0  0  0  0  0  0  0  0  0  0  0  0
   59.0890   29.6120   44.1380 C   0  0  0  0  0  0  0  0  0  0  0  0
   58.5730   28.0120   46.0180 N   0  0  0  0  0  0  0  0  0  0  0  0
   59.0600   28.8580   47.0740 C   0  0  0  0  0  0  0  0  0  0  0  0
   58.5330   30.1420   47.2570 C   0  0  0  0  0  0  0  0  0  0  0  0
   57.5360   30.5690   46.3730 O   0  0  0  0  0  0  0  0  0  0  0  0
   58.9960   30.9420   48.2810 N   0  0  0  0  0  0  0  0  0  0  0  0
   58.4240   32.2870   48.5080 C   0  0  0  0  0  0  0  0  0  0  0  0
   58.6960   33.1980   47.3350 C   0  0  0  0  0  0  0  0  0  0  0  0
   59.9470   33.8260   47.1950 C   0  0  0  0  0  0  0  0  0  0  0  0
   60.2010   34.6540   46.0980 C   0  0  0  0  0  0  0  0  0  0  0  0
   59.2160   34.8530   45.1260 C   0  0  0  0  0  0  0  0  0  0  0  0
   57.9780   34.2180   45.2470 C   0  0  0  0  0  0  0  0  0  0  0  0
   57.7190   33.3880   46.3430 C   0  0  0  0  0  0  0  0  0  0  0  0
   59.9820   30.4630   49.1140 C   0  0  0  0  0  0  0  0  0  0  0  0
   60.4230   31.1620   50.0670 O   0  0  0  0  0  0  0  0  0  0  0  0
   60.4960   29.2210   48.9290 N   0  0  0  0  0  0  0  0  0  0  0  0
   60.0610   28.4140   47.9360 C   0  0  0  0  0  0  0  0  0  0  0  0
   60.5590   27.2650   47.8020 O   0  0  0  0  0  0  0  0  0  0  0  0
   57.9879   26.7541   48.2664 H   0  0  0  0  0  0  0  0  0  0  0  0
   57.0204   25.3683   47.3868 H   0  0  0  0  0  0  0  0  0  0  0  0
   57.5330   24.6099   43.7046 H   0  0  0  0  0  0  0  0  0  0  0  0
   57.7621   27.3342   42.8936 H   0  0  0  0  0  0  0  0  0  0  0  0
   59.3681   30.2897   44.9582 H   0  0  0  0  0  0  0  0  0  0  0  0
   59.9737   29.4016   43.5191 H   0  0  0  0  0  0  0  0  0  0  0  0
   58.3127   30.0856   43.5191 H   0  0  0  0  0  0  0  0  0  0  0  0
   56.6590   30.0890   46.2270 H   0  0  0  0  0  0  0  0  0  0  0  0
   57.3367   32.1962   48.6479 H   0  0  0  0  0  0  0  0  0  0  0  0
   58.8939   32.7201   49.4033 H   0  0  0  0  0  0  0  0  0  0  0  0
   60.7286   33.6647   47.9521 H   0  0  0  0  0  0  0  0  0  0  0  0
   61.1778   35.1501   45.9992 H   0  0  0  0  0  0  0  0  0  0  0  0
   59.4160   35.5094   44.2663 H   0  0  0  0  0  0  0  0  0  0  0  0
   57.2052   34.3707   44.4792 H   0  0  0  0  0  0  0  0  0  0  0  0
   56.7461   32.8818   46.4286 H   0  0  0  0  0  0  0  0  0  0  0  0
  1  2  2  0
  2  3  1  0
  3  4  2  3
  4  5  1  0
  5  6  1  0
  6  7  1  0
  7  8  2  0
  7  9  1  0
  9 10  1  0
 10 11  1  0
  3 12  1  0
 12 13  2  0
 13 14  1  0
 13 15  1  0
 15 16  1  0
 16 17  2  0
 17 18  1  0
 17 19  1  0
 19 20  1  0
 20 21  1  0
 21 22  2  0
 22 23  1  0
 23 24  2  0
 24 25  1  0
 25 26  2  0
 19 27  1  0
 27 28  2  0
 27 29  1  0
 29 30  1  0
 30 31  2  0
 15  2  1  0
 30 16  1  0
 10  5  2  0
 26 21  1  0
  1 32  1  0
  1 33  1  0
  4 34  1  0
 12 35  1  0
 14 36  1  0
 14 37  1  0
 14 38  1  0
 18 39  1  0
 20 40  1  0
 20 41  1  0
 22 42  1  0
 23 43  1  0
 24 44  1  0
 25 45  1  0
 26 46  1  0
M  CHG  4   6  -1   9  -1  11  -1  29  -1
M  END
>  <UniqueID>  (47) 
42

>  <SMILES>  (47) 
C=c1c(=Cc2[n-]c(=O)[n-]c2[O-])cc(C)n1-c1c(O)n(Cc2ccccc2)c(=O)[n-]c1=O

>  <Energy>  (47) 
131.46312849000603

>  <Genealogy>  (47) 
C=c1c(=Cc2[n-]c(=O)[n-]c2[O-])cc(C)n1-c1c(O)n(Cc2ccccc2)c(=O)[n-]c1=O (protonated)
C=c1c(=Cc2[n-]c(=O)[n-]c2[O-])cc(C)n1-c1c(O)n(Cc2ccccc2)c(=O)[n-]c1=O (3D coordinates assigned)
C=c1c(=Cc2[n-]c(=O)[n-]c2[O-])cc(C)n1-c1c(O)n(Cc2ccccc2)c(=O)[n-]c1=O (optimized conformer: 131.46312849000603 kcal/mol)

>  <smiles>  (47) 
C=c1c(=Cc2[nH]c(=O)[nH]c2O)cc(C)n1-c1c(O)n(Cc2ccccc2)c(=O)[nH]c1=O

>  <score_type>  (47) 
oracle

>  <origin>  (47) 
adg

>  <m_score__min__energy>  (47) 
-16.960000000000001

>  <m_primary>  (47) 
energy

$$$$
47:0
     RDKit          3D

 54 57  0  0  0  0  0  0  0  0999 V2000
   54.8980   25.9330   45.6560 O   0  0  0  0  0  0  0  0  0  0  0  0
   56.1170   25.6100   45.7010 C   0  0  0  0  0  0  0  0  0  0  0  0
   57.0450   26.4160   46.3760 O   0  0  0  0  0  0  0  0  0  0  0  0
   57.7700   27.4740   45.8060 C   0  0  0  0  0  0  0  0  0  0  0  0
   59.1760   27.4910   45.7990 C   0  0  0  0  0  0  0  0  0  0  0  0
   59.8630   28.5610   45.2250 C   0  0  0  0  0  0  0  0  0  0  0  0
   59.1600   29.6090   44.6330 C   0  0  0  0  0  0  0  0  0  0  0  0
   57.7570   29.5980   44.6000 C   0  0  0  0  0  0  0  0  0  0  0  0
   57.0520   30.7040   43.9120 C   0  0  0  0  0  0  0  0  0  0  0  0
   56.7780   30.5950   42.6880 O   0  0  0  0  0  0  0  0  0  0  0  0
   56.7650   31.9420   44.5760 N   0  0  0  0  0  0  0  0  0  0  0  0
   57.7280   32.8630   45.1090 C   0  0  0  0  0  0  0  0  0  0  0  0
   58.2380   33.9260   44.3420 C   0  0  0  0  0  0  0  0  0  0  0  0
   59.1920   34.7900   44.8870 C   0  0  0  0  0  0  0  0  0  0  0  0
   59.6560   34.5910   46.1890 C   0  0  0  0  0  0  0  0  0  0  0  0
   59.1700   33.5240   46.9550 C   0  0  0  0  0  0  0  0  0  0  0  0
   59.7900   33.2640   48.5830 S   0  0  0  0  0  0  0  0  0  0  0  0
   60.2100   34.5910   49.1520 O   0  0  0  0  0  0  0  0  0  0  0  0
   58.7070   32.6910   49.4530 O   0  0  0  0  0  0  0  0  0  0  0  0
   61.1610   32.1760   48.5040 N   0  0  0  0  0  0  0  0  0  0  0  0
   62.1340   32.4360   49.5880 C   0  0  0  0  0  0  0  0  0  0  0  0
   63.3320   33.2850   49.1250 C   0  0  0  0  0  0  0  0  0  0  0  0
   62.9330   34.1860   48.1170 O   0  0  0  0  0  0  0  0  0  0  0  0
   62.6110   33.4840   46.9290 C   0  0  0  0  0  0  0  0  0  0  0  0
   61.7930   32.1940   47.1720 C   0  0  0  0  0  0  0  0  0  0  0  0
   58.2140   32.6570   46.4060 C   0  0  0  0  0  0  0  0  0  0  0  0
   57.0580   28.5230   45.2010 C   0  0  0  0  0  0  0  0  0  0  0  0
   55.6610   28.4840   45.2480 O   0  0  0  0  0  0  0  0  0  0  0  0
   56.5930   24.4120   44.9900 C   0  0  0  0  0  0  0  0  0  0  0  0
   55.9360   23.9310   43.8450 C   0  0  0  0  0  0  0  0  0  0  0  0
   56.4250   22.7930   43.2010 C   0  0  0  0  0  0  0  0  0  0  0  0
   57.5560   22.1450   43.6990 C   0  0  0  0  0  0  0  0  0  0  0  0
   58.1840   22.6470   44.8390 C   0  0  0  0  0  0  0  0  0  0  0  0
   57.6940   23.7570   45.4530 N   0  0  0  0  0  0  0  0  0  0  0  0
   59.7363   26.6575   46.2478 H   0  0  0  0  0  0  0  0  0  0  0  0
   60.9628   28.5777   45.2396 H   0  0  0  0  0  0  0  0  0  0  0  0
   59.7095   30.4517   44.1880 H   0  0  0  0  0  0  0  0  0  0  0  0
   57.8853   34.0777   43.3112 H   0  0  0  0  0  0  0  0  0  0  0  0
   59.5782   35.6286   44.2890 H   0  0  0  0  0  0  0  0  0  0  0  0
   60.4056   35.2745   46.6143 H   0  0  0  0  0  0  0  0  0  0  0  0
   61.6196   32.9686   50.4015 H   0  0  0  0  0  0  0  0  0  0  0  0
   62.5265   31.4636   49.9203 H   0  0  0  0  0  0  0  0  0  0  0  0
   63.7283   33.8507   49.9811 H   0  0  0  0  0  0  0  0  0  0  0  0
   64.1084   32.6182   48.7218 H   0  0  0  0  0  0  0  0  0  0  0  0
   62.0240   34.1505   46.2800 H   0  0  0  0  0  0  0  0  0  0  0  0
   63.5620   33.1797   46.4674 H   0  0  0  0  0  0  0  0  0  0  0  0
   61.0065   32.1241   46.4061 H   0  0  0  0  0  0  0  0  0  0  0  0
   62.4848   31.3407   47.1157 H   0  0  0  0  0  0  0  0  0  0  0  0
   57.8429   31.8082   46.9991 H   0  0  0  0  0  0  0  0  0  0  0  0
   55.1440   27.9340   45.9200 H   0  0  0  0  0  0  0  0  0  0  0  0
   55.0441   24.4466   43.4594 H   0  0  0  0  0  0  0  0  0  0  0  0
   55.9198   22.4080   42.3029 H   0  0  0  0  0  0  0  0  0  0  0  0
   57.9483   21.2478   43.1979 H   0  0  0  0  0  0  0  0  0  0  0  0
   59.0760   22.1447   45.2415 H   0  0  0  0  0  0  0  0  0  0  0  0
  1  2  2  0
  2  3  1  0
  3  4  1  0
  4  5  2  0
  5  6  1  0
  6  7  2  0
  7  8  1  0
  8  9  1  0
  9 10  2  0
  9 11  1  0
 11 12  1  0
 12 13  2  0
 13 14  1  0
 14 15  2  0
 15 16  1  0
 16 17  1  0
 17 18  2  0
 17 19  2  0
 17 20  1  0
 20 21  1  0
 21 22  1  0
 22 23  1  0
 23 24  1  0
 24 25  1  0
 16 26  2  0
  8 27  2  0
 27 28  1  0
  2 29  1  0
 29 30  2  0
 30 31  1  0
 31 32  2  0
 32 33  1  0
 33 34  2  0
 27  4  1  0
 34 29  1  0
 26 12  1  0
 25 20  1  0
  5 35  1  0
  6 36  1  0
  7 37  1  0
 13 38  1  0
 14 39  1  0
 15 40  1  0
 21 41  1  0
 21 42  1  0
 22 43  1  0
 22 44  1  0
 24 45  1  0
 24 46  1  0
 25 47  1  0
 25 48  1  0
 26 49  1  0
 28 50  1  0
 30 51  1  0
 31 52  1  0
 32 53  1  0
 33 54  1  0
M  CHG  1  11  -1
M  END
>  <UniqueID>  (48) 
43

>  <SMILES>  (48) 
O=C(Oc1cccc(C(=O)[N-]c2cccc(S(=O)(=O)N3CCOCC3)c2)c1O)c1ccccn1

>  <Energy>  (48) 
83.47466238653092

>  <Genealogy>  (48) 
O=C(Oc1cccc(C(=O)[N-]c2cccc(S(=O)(=O)N3CCOCC3)c2)c1O)c1ccccn1 (protonated)
O=C(Oc1cccc(C(=O)[N-]c2cccc(S(=O)(=O)N3CCOCC3)c2)c1O)c1ccccn1 (3D coordinates assigned)
O=C(Oc1cccc(C(=O)[N-]c2cccc(S(=O)(=O)N3CCOCC3)c2)c1O)c1ccccn1 (nonaromatic ring conformer: 83.47466238653092 kcal/mol)

>  <smiles>  (48) 
O=C(Oc1cccc(C(=O)Nc2cccc(S(=O)(=O)N3CCOCC3)c2)c1O)c1ccccn1

>  <score_type>  (48) 
oracle

>  <origin>  (48) 
adg

>  <m_score__min__energy>  (48) 
-13.01

>  <m_primary>  (48) 
energy

$$$$
48:0
     RDKit          3D

 42 45  0  0  0  0  0  0  0  0999 V2000
   58.7210   35.7040   46.3950 H   0  0  0  0  0  0  0  0  0  0  0  0
   59.6500   35.5550   46.8480 N   0  0  0  0  0  0  0  0  0  0  0  0
   59.7420   33.8820   47.2740 S   0  0  0  0  0  0  0  0  0  0  0  0
   59.0760   33.6620   48.6020 O   0  0  0  0  0  0  0  0  0  0  0  0
   61.1880   33.4850   47.3810 O   0  0  0  0  0  0  0  0  0  0  0  0
   58.9260   32.9160   46.0420 C   0  0  0  0  0  0  0  0  0  0  0  0
   58.5510   31.5920   46.3190 C   0  0  0  0  0  0  0  0  0  0  0  0
   58.7748   31.1555   47.3036 H   0  0  0  0  0  0  0  0  0  0  0  0
   57.8930   30.8220   45.3490 C   0  0  0  0  0  0  0  0  0  0  0  0
   57.5360   29.4170   45.6460 C   0  0  0  0  0  0  0  0  0  0  0  0
   56.3140   28.9840   45.2550 N   0  0  0  0  0  0  0  0  0  0  0  0
   55.8980   27.7410   45.4800 N   0  0  0  0  0  0  0  0  0  0  0  0
   56.6570   26.8160   46.1190 C   0  0  0  0  0  0  0  0  0  0  0  0
   56.1940   25.5930   46.1340 N   0  0  0  0  0  0  0  0  0  0  0  0
   56.6520   24.4190   45.4490 C   0  0  0  0  0  0  0  0  0  0  0  0
   57.9240   23.8810   45.7110 C   0  0  0  0  0  0  0  0  0  0  0  0
   58.5635   24.3350   46.4823 H   0  0  0  0  0  0  0  0  0  0  0  0
   58.3780   22.7710   44.9940 C   0  0  0  0  0  0  0  0  0  0  0  0
   59.3642   22.3380   45.2175 H   0  0  0  0  0  0  0  0  0  0  0  0
   57.5790   22.2100   43.9920 C   0  0  0  0  0  0  0  0  0  0  0  0
   57.9336   21.3311   43.4337 H   0  0  0  0  0  0  0  0  0  0  0  0
   56.3300   22.7660   43.7000 C   0  0  0  0  0  0  0  0  0  0  0  0
   55.5440   22.2190   42.6950 O   0  0  0  0  0  0  0  0  0  0  0  0
   55.8720   23.8770   44.4180 C   0  0  0  0  0  0  0  0  0  0  0  0
   54.8981   24.3256   44.1727 H   0  0  0  0  0  0  0  0  0  0  0  0
   57.9070   27.2310   46.6710 C   0  0  0  0  0  0  0  0  0  0  0  0
   58.6510   26.4590   47.5950 C   0  0  0  0  0  0  0  0  0  0  0  0
   58.2355   25.5116   47.9689 H   0  0  0  0  0  0  0  0  0  0  0  0
   59.9040   26.8830   48.0380 C   0  0  0  0  0  0  0  0  0  0  0  0
   60.4822   26.2537   48.7306 H   0  0  0  0  0  0  0  0  0  0  0  0
   60.4250   28.0990   47.6070 C   0  0  0  0  0  0  0  0  0  0  0  0
   61.4359   28.4045   47.9146 H   0  0  0  0  0  0  0  0  0  0  0  0
   59.6660   28.9290   46.7860 C   0  0  0  0  0  0  0  0  0  0  0  0
   60.0740   29.8990   46.4657 H   0  0  0  0  0  0  0  0  0  0  0  0
   58.3790   28.5380   46.3610 C   0  0  0  0  0  0  0  0  0  0  0  0
   57.6450   31.3700   44.0820 C   0  0  0  0  0  0  0  0  0  0  0  0
   57.1555   30.7614   43.3074 H   0  0  0  0  0  0  0  0  0  0  0  0
   58.0180   32.6870   43.8010 C   0  0  0  0  0  0  0  0  0  0  0  0
   57.8100   33.1152   42.8093 H   0  0  0  0  0  0  0  0  0  0  0  0
   58.6560   33.4650   44.7770 C   0  0  0  0  0  0  0  0  0  0  0  0
   59.0240   34.7790   44.4900 O   0  0  0  0  0  0  0  0  0  0  0  0
   59.3180   35.4190   45.2180 H   0  0  0  0  0  0  0  0  0  0  0  0
  1  2  1  0
  2  3  1  0
  3  4  2  0
  3  5  2  0
  3  6  1  0
  6  7  2  0
  7  8  1  0
  7  9  1  0
  9 10  1  0
 10 11  2  0
 11 12  1  0
 12 13  1  0
 13 14  2  0
 14 15  1  0
 15 16  2  0
 16 17  1  0
 16 18  1  0
 18 19  1  0
 18 20  2  0
 20 21  1  0
 20 22  1  0
 22 23  1  0
 22 24  2  0
 24 25  1  0
 13 26  1  0
 26 27  2  0
 27 28  1  0
 27 29  1  0
 29 30  1  0
 29 31  2  0
 31 32  1  0
 31 33  1  0
 33 34  1  0
 33 35  2  0
  9 36  2  0
 36 37  1  0
 36 38  1  0
 38 39  1  0
 38 40  2  0
 40 41  1  0
 41 42  1  0
 40  6  1  0
 35 10  1  0
 24 15  1  0
 35 26  1  0
M  CHG  3   2  -1  12  -1  23  -1
M  END
>  <UniqueID>  (49) 
44

>  <SMILES>  (49) 
[NH-]S(=O)(=O)c1cc(-c2n[n-]/c(=N/c3cccc([O-])c3)c3ccccc23)ccc1O

>  <Energy>  (49) 
80.64570305741806

>  <Genealogy>  (49) 
[NH-]S(=O)(=O)c1cc(-c2n[n-]c(=Nc3cccc([O-])c3)c3ccccc23)ccc1O (protonated)
[NH-]S(=O)(=O)c1cc(-c2n[n-]/c(=N/c3cccc([O-])c3)c3ccccc23)ccc1O (cis-trans isomerization)
[NH-]S(=O)(=O)c1cc(-c2n[n-]/c(=N/c3cccc([O-])c3)c3ccccc23)ccc1O (3D coordinates assigned)
[NH-]S(=O)(=O)c1cc(-c2n[n-]/c(=N/c3cccc([O-])c3)c3ccccc23)ccc1O (optimized conformer: 80.64570305741806 kcal/mol)

>  <smiles>  (49) 
NS(=O)(=O)c1cc(-c2n[nH]c(=Nc3cccc(O)c3)c3ccccc23)ccc1O

>  <score_type>  (49) 
oracle

>  <origin>  (49) 
adg

>  <m_score__min__energy>  (49) 
-12.76

>  <m_primary>  (49) 
energy

$$$$
49:0
     RDKit          3D

 43 45  0  0  0  0  0  0  0  0999 V2000
   59.2970   29.9460   48.6100 C   0  0  0  0  0  0  0  0  0  0  0  0
   58.6730   30.5260   49.8460 C   0  0  0  0  0  0  0  0  0  0  0  0
   57.9060   29.7090   50.6170 N   0  0  0  0  0  0  0  0  0  0  0  0
   57.3150   30.1520   51.7530 C   0  0  0  0  0  0  0  0  0  0  0  0
   56.6090   29.3710   52.4410 O   0  0  0  0  0  0  0  0  0  0  0  0
   57.4840   31.4380   52.1460 N   0  0  0  0  0  0  0  0  0  0  0  0
   58.2420   32.3010   51.4250 C   0  0  0  0  0  0  0  0  0  0  0  0
   58.3600   33.4880   51.8280 O   0  0  0  0  0  0  0  0  0  0  0  0
   58.8810   31.8660   50.2460 C   0  0  0  0  0  0  0  0  0  0  0  0
   59.8900   32.9720   49.2840 S   0  0  0  0  0  0  0  0  0  0  0  0
   60.6620   33.8600   50.2180 O   0  0  0  0  0  0  0  0  0  0  0  0
   60.8520   32.2060   48.4180 O   0  0  0  0  0  0  0  0  0  0  0  0
   58.8690   33.9290   48.2600 N   0  0  0  0  0  0  0  0  0  0  0  0
   58.6950   33.7380   46.8510 C   0  0  0  0  0  0  0  0  0  0  0  0
   59.0970   34.7600   45.9830 C   0  0  0  0  0  0  0  0  0  0  0  0
   58.9450   34.6160   44.6030 C   0  0  0  0  0  0  0  0  0  0  0  0
   58.3890   33.4500   44.0750 C   0  0  0  0  0  0  0  0  0  0  0  0
   57.9750   32.4090   44.9270 C   0  0  0  0  0  0  0  0  0  0  0  0
   57.3820   31.1720   44.3660 C   0  0  0  0  0  0  0  0  0  0  0  0
   57.4590   30.9390   43.1290 O   0  0  0  0  0  0  0  0  0  0  0  0
   56.7190   30.2370   45.2260 N   0  0  0  0  0  0  0  0  0  0  0  0
   56.2440   28.9290   44.7880 C   0  0  0  0  0  0  0  0  0  0  0  0
   56.9740   27.8360   45.5240 C   0  0  0  0  0  0  0  0  0  0  0  0
   58.3750   27.8660   45.6250 C   0  0  0  0  0  0  0  0  0  0  0  0
   59.0580   26.8440   46.2900 C   0  0  0  0  0  0  0  0  0  0  0  0
   58.3500   25.7810   46.8560 C   0  0  0  0  0  0  0  0  0  0  0  0
   56.9570   25.7370   46.7560 C   0  0  0  0  0  0  0  0  0  0  0  0
   56.2660   26.7570   46.0920 C   0  0  0  0  0  0  0  0  0  0  0  0
   54.8800   26.6920   45.9970 O   0  0  0  0  0  0  0  0  0  0  0  0
   58.1310   32.5630   46.3180 C   0  0  0  0  0  0  0  0  0  0  0  0
   60.0749   29.2230   48.8967 H   0  0  0  0  0  0  0  0  0  0  0  0
   58.5252   29.4371   48.0138 H   0  0  0  0  0  0  0  0  0  0  0  0
   59.7482   30.7529   48.0138 H   0  0  0  0  0  0  0  0  0  0  0  0
   59.5355   35.6826   46.3911 H   0  0  0  0  0  0  0  0  0  0  0  0
   59.2646   35.4246   43.9292 H   0  0  0  0  0  0  0  0  0  0  0  0
   58.2736   33.3438   42.9862 H   0  0  0  0  0  0  0  0  0  0  0  0
   55.1662   28.8470   44.9920 H   0  0  0  0  0  0  0  0  0  0  0  0
   56.4318   28.8222   43.7094 H   0  0  0  0  0  0  0  0  0  0  0  0
   58.9377   28.6988   45.1780 H   0  0  0  0  0  0  0  0  0  0  0  0
   60.1548   26.8767   46.3679 H   0  0  0  0  0  0  0  0  0  0  0  0
   58.8893   24.9785   47.3805 H   0  0  0  0  0  0  0  0  0  0  0  0
   56.4017   24.8980   47.2006 H   0  0  0  0  0  0  0  0  0  0  0  0
   57.8092   31.7577   46.9947 H   0  0  0  0  0  0  0  0  0  0  0  0
  1  2  1  0
  2  3  1  0
  3  4  1  0
  4  5  2  0
  4  6  1  0
  6  7  1  0
  7  8  2  0
  7  9  1  0
  9 10  1  0
 10 11  2  0
 10 12  2  0
 10 13  1  0
 13 14  1  0
 14 15  2  0
 15 16  1  0
 16 17  2  0
 17 18  1  0
 18 19  1  0
 19 20  2  0
 19 21  1  0
 21 22  1  0
 22 23  1  0
 23 24  2  0
 24 25  1  0
 25 26  2  0
 26 27  1  0
 27 28  2  0
 28 29  1  0
 18 30  2  0
  9  2  2  0
 30 14  1  0
 28 23  1  0
  1 31  1  0
  1 32  1  0
  1 33  1  0
 15 34  1  0
 16 35  1  0
 17 36  1  0
 22 37  1  0
 22 38  1  0
 24 39  1  0
 25 40  1  0
 26 41  1  0
 27 42  1  0
 30 43  1  0
M  CHG  5   3  -1   6  -1  13  -1  21  -1  29  -1
M  END
>  <UniqueID>  (50) 
45

>  <SMILES>  (50) 
Cc1[n-]c(=O)[n-]c(=O)c1S(=O)(=O)[N-]c1cccc(C(=O)[N-]Cc2ccccc2[O-])c1

>  <Energy>  (50) 
52.53249208331343

>  <Genealogy>  (50) 
Cc1[n-]c(=O)[n-]c(=O)c1S(=O)(=O)[N-]c1cccc(C(=O)[N-]Cc2ccccc2[O-])c1 (protonated)
Cc1[n-]c(=O)[n-]c(=O)c1S(=O)(=O)[N-]c1cccc(C(=O)[N-]Cc2ccccc2[O-])c1 (3D coordinates assigned)
Cc1[n-]c(=O)[n-]c(=O)c1S(=O)(=O)[N-]c1cccc(C(=O)[N-]Cc2ccccc2[O-])c1 (optimized conformer: 52.53249208331343 kcal/mol)

>  <smiles>  (50) 
Cc1[nH]c(=O)[nH]c(=O)c1S(=O)(=O)Nc1cccc(C(=O)NCc2ccccc2O)c1

>  <score_type>  (50) 
oracle

>  <origin>  (50) 
adg

>  <m_score__min__energy>  (50) 
-17.420000000000002

>  <m_primary>  (50) 
energy

$$$$
50:0
     RDKit          3D

 44 47  0  0  0  0  0  0  0  0999 V2000
   59.7768   35.5172   46.0119 H   0  0  0  0  0  0  0  0  0  0  0  0
   59.1390   34.6210   46.0070 C   0  0  0  0  0  0  0  0  0  0  0  0
   58.0540   34.1890   44.7950 S   0  0  0  0  0  0  0  0  0  0  0  0
   57.5650   32.7850   45.5860 C   0  0  0  0  0  0  0  0  0  0  0  0
   56.6840   31.9230   45.1680 N   0  0  0  0  0  0  0  0  0  0  0  0
   56.8990   30.7980   44.3020 C   0  0  0  0  0  0  0  0  0  0  0  0
   57.1650   30.9530   43.0800 O   0  0  0  0  0  0  0  0  0  0  0  0
   56.8050   29.4400   44.8560 C   0  0  0  0  0  0  0  0  0  0  0  0
   55.6330   28.8370   45.1410 N   0  0  0  0  0  0  0  0  0  0  0  0
   55.9770   27.6260   45.6190 C   0  0  0  0  0  0  0  0  0  0  0  0
   55.0510   26.6800   46.0350 O   0  0  0  0  0  0  0  0  0  0  0  0
   57.3430   27.4490   45.6450 C   0  0  0  0  0  0  0  0  0  0  0  0
   57.8916   26.5595   45.9883 H   0  0  0  0  0  0  0  0  0  0  0  0
   57.8780   28.6170   45.1520 C   0  0  0  0  0  0  0  0  0  0  0  0
   58.9448   28.8501   45.0196 H   0  0  0  0  0  0  0  0  0  0  0  0
   58.2100   32.6320   46.7610 N   0  0  0  0  0  0  0  0  0  0  0  0
   59.0900   33.6440   47.0070 C   0  0  0  0  0  0  0  0  0  0  0  0
   59.9020   33.6780   48.2520 C   0  0  0  0  0  0  0  0  0  0  0  0
   61.3010   33.8080   48.2120 C   0  0  0  0  0  0  0  0  0  0  0  0
   61.8138   33.8922   47.2425 H   0  0  0  0  0  0  0  0  0  0  0  0
   62.0440   33.8310   49.3920 C   0  0  0  0  0  0  0  0  0  0  0  0
   63.1383   33.9333   49.3472 H   0  0  0  0  0  0  0  0  0  0  0  0
   61.4070   33.7250   50.6300 C   0  0  0  0  0  0  0  0  0  0  0  0
   62.0022   33.7410   51.5549 H   0  0  0  0  0  0  0  0  0  0  0  0
   60.0090   33.5980   50.7000 C   0  0  0  0  0  0  0  0  0  0  0  0
   59.3050   33.4720   52.0060 C   0  0  0  0  0  0  0  0  0  0  0  0
   59.0120   34.5250   52.6410 O   0  0  0  0  0  0  0  0  0  0  0  0
   58.9270   32.1810   52.5530 N   0  0  0  0  0  0  0  0  0  0  0  0
   59.4480   32.0260   53.4470 H   0  0  0  0  0  0  0  0  0  0  0  0
   59.3080   31.1070   51.6050 C   0  0  0  0  0  0  0  0  0  0  0  0
   59.1698   31.4693   50.5756 H   0  0  0  0  0  0  0  0  0  0  0  0
   60.3608   30.8405   51.7799 H   0  0  0  0  0  0  0  0  0  0  0  0
   58.4410   29.8540   51.8190 C   0  0  0  0  0  0  0  0  0  0  0  0
   58.7730   29.0784   51.1132 H   0  0  0  0  0  0  0  0  0  0  0  0
   58.5695   29.5522   52.8690 H   0  0  0  0  0  0  0  0  0  0  0  0
   57.0500   30.0750   51.6200 O   0  0  0  0  0  0  0  0  0  0  0  0
   56.6480   31.4210   51.8330 C   0  0  0  0  0  0  0  0  0  0  0  0
   56.7472   31.9687   50.8842 H   0  0  0  0  0  0  0  0  0  0  0  0
   55.6087   31.3961   52.1925 H   0  0  0  0  0  0  0  0  0  0  0  0
   57.4820   32.1470   52.9050 C   0  0  0  0  0  0  0  0  0  0  0  0
   57.1151   33.1794   53.0025 H   0  0  0  0  0  0  0  0  0  0  0  0
   57.3740   31.5974   53.8517 H   0  0  0  0  0  0  0  0  0  0  0  0
   59.2690   33.5640   49.5040 C   0  0  0  0  0  0  0  0  0  0  0  0
   58.1762   33.4462   49.5481 H   0  0  0  0  0  0  0  0  0  0  0  0
  1  2  1  0
  2  3  1  0
  3  4  1  0
  4  5  2  0
  5  6  1  0
  6  7  2  0
  6  8  1  0
  8  9  1  0
  9 10  1  0
 10 11  1  0
 10 12  2  0
 12 13  1  0
 12 14  1  0
 14 15  1  0
  4 16  1  0
 16 17  1  0
 17 18  1  0
 18 19  2  0
 19 20  1  0
 19 21  1  0
 21 22  1  0
 21 23  2  0
 23 24  1  0
 23 25  1  0
 25 26  1  0
 26 27  2  0
 26 28  1  0
 28 29  1  0
 28 30  1  0
 30 31  1  0
 30 32  1  0
 30 33  1  0
 33 34  1  0
 33 35  1  0
 33 36  1  0
 36 37  1  0
 37 38  1  0
 37 39  1  0
 37 40  1  0
 40 41  1  0
 40 42  1  0
 25 43  2  0
 43 44  1  0
 17  2  2  0
 43 18  1  0
 14  8  2  0
 40 28  1  0
M  CHG  4   9  -1  11  -1  16  -1  28   1
M  END
>  <UniqueID>  (51) 
46

>  <SMILES>  (51) 
O=C(/N=c1/[n-]c(-c2cccc(C(=O)[NH+]3CCOCC3)c2)cs1)c1ccc([O-])[n-]1

>  <Energy>  (51) 
126.43848516889962

>  <Genealogy>  (51) 
O=C(N=c1[n-]c(-c2cccc(C(=O)[NH+]3CCOCC3)c2)cs1)c1ccc([O-])[n-]1 (protonated)
O=C(/N=c1/[n-]c(-c2cccc(C(=O)[NH+]3CCOCC3)c2)cs1)c1ccc([O-])[n-]1 (cis-trans isomerization)
O=C(/N=c1/[n-]c(-c2cccc(C(=O)[NH+]3CCOCC3)c2)cs1)c1ccc([O-])[n-]1 (3D coordinates assigned)
O=C(/N=c1/[n-]c(-c2cccc(C(=O)[NH+]3CCOCC3)c2)cs1)c1ccc([O-])[n-]1 (nonaromatic ring conformer: 126.43848516889962 kcal/mol)

>  <smiles>  (51) 
O=C(N=c1[nH]c(-c2cccc(C(=O)N3CCOCC3)c2)cs1)c1ccc(O)[nH]1

>  <score_type>  (51) 
oracle

>  <origin>  (51) 
adg

>  <m_score__min__energy>  (51) 
-15.06

>  <m_primary>  (51) 
energy

$$$$
51:0
     RDKit          3D

 67 70  0  0  0  0  0  0  0  0999 V2000
   60.1610   25.8210   46.4050 O   0  0  0  0  0  0  0  0  0  0  0  0
   59.1270   26.1650   47.0410 C   0  0  0  0  0  0  0  0  0  0  0  0
   59.2270   26.9470   48.2380 N   0  0  0  0  0  0  0  0  0  0  0  0
   60.0870   28.1110   48.4590 C   0  0  2  0  0  0  0  0  0  0  0  0
   60.7800   28.0640   49.8400 C   0  0  0  0  0  0  0  0  0  0  0  0
   60.6220   29.3620   50.6480 C   0  0  0  0  0  0  0  0  0  0  0  0
   59.6040   29.2270   51.7500 C   0  0  0  0  0  0  0  0  0  0  0  0
   59.5580   28.1430   52.3970 O   0  0  0  0  0  0  0  0  0  0  0  0
   58.6020   30.2370   51.9780 N   0  0  0  0  0  0  0  0  0  0  0  0
   57.2660   29.8260   52.4230 C   0  0  0  0  0  0  0  0  0  0  0  0
   56.2340   30.8710   51.9880 C   0  0  0  0  0  0  0  0  0  0  0  0
   56.6180   32.1670   52.4130 O   0  0  0  0  0  0  0  0  0  0  0  0
   57.8120   32.5510   51.7580 C   0  0  0  0  0  0  0  0  0  0  0  0
   58.9750   31.6440   52.1750 C   0  0  0  0  0  0  0  0  0  0  0  0
   59.3570   29.4080   48.1720 C   0  0  0  0  0  0  0  0  0  0  0  0
   58.1060   29.3600   47.9910 O   0  0  0  0  0  0  0  0  0  0  0  0
   60.0030   30.6970   48.1840 N   0  0  0  0  0  0  0  0  0  0  0  0
   59.3870   31.7740   48.9640 C   0  0  0  0  0  0  0  0  0  0  0  0
   58.7520   32.7870   48.0070 C   0  0  0  0  0  0  0  0  0  0  0  0
   59.7010   33.1850   46.9590 N   0  0  0  0  0  0  0  0  0  0  0  0
   59.4020   34.3030   46.1020 C   0  0  0  0  0  0  0  0  0  0  0  0
   60.3090   35.1340   45.8240 O   0  0  0  0  0  0  0  0  0  0  0  0
   58.0690   34.4420   45.4330 C   0  0  0  0  0  0  0  0  0  0  0  0
   57.7630   33.1880   44.6630 C   0  0  0  0  0  0  0  0  0  0  0  0
   58.1410   33.0740   43.3120 C   0  0  0  0  0  0  0  0  0  0  0  0
   57.7820   31.9420   42.5720 C   0  0  0  0  0  0  0  0  0  0  0  0
   57.0330   30.9250   43.1690 C   0  0  0  0  0  0  0  0  0  0  0  0
   56.6410   31.0380   44.5070 C   0  0  0  0  0  0  0  0  0  0  0  0
   57.0010   32.1640   45.2530 C   0  0  0  0  0  0  0  0  0  0  0  0
   61.0320   32.5720   46.8880 C   0  0  0  0  0  0  0  0  0  0  0  0
   60.9500   31.0530   47.1130 C   0  0  0  0  0  0  0  0  0  0  0  0
   57.8000   25.7820   46.5420 C   0  0  0  0  0  0  0  0  0  0  0  0
   57.5220   24.6500   45.7960 C   0  0  0  0  0  0  0  0  0  0  0  0
   56.1790   24.7080   45.4960 C   0  0  0  0  0  0  0  0  0  0  0  0
   55.7190   25.8720   46.0700 C   0  0  0  0  0  0  0  0  0  0  0  0
   54.4120   26.3350   45.9740 O   0  0  0  0  0  0  0  0  0  0  0  0
   56.6950   26.5390   46.7140 N   0  0  0  0  0  0  0  0  0  0  0  0
   60.9078   28.0711   47.7277 H   0  0  0  0  0  0  0  0  0  0  0  0
   60.3447   27.2371   50.4203 H   0  0  0  0  0  0  0  0  0  0  0  0
   61.8558   27.9241   49.6583 H   0  0  0  0  0  0  0  0  0  0  0  0
   61.5935   29.6223   51.0934 H   0  0  0  0  0  0  0  0  0  0  0  0
   60.2730   30.1468   49.9607 H   0  0  0  0  0  0  0  0  0  0  0  0
   57.0139   28.8539   51.9742 H   0  0  0  0  0  0  0  0  0  0  0  0
   57.2574   29.7393   53.5195 H   0  0  0  0  0  0  0  0  0  0  0  0
   56.1516   30.8612   50.8911 H   0  0  0  0  0  0  0  0  0  0  0  0
   55.2661   30.6223   52.4478 H   0  0  0  0  0  0  0  0  0  0  0  0
   57.6674   32.4754   50.6702 H   0  0  0  0  0  0  0  0  0  0  0  0
   58.0526   33.5866   52.0402 H   0  0  0  0  0  0  0  0  0  0  0  0
   59.8582   31.8772   51.5622 H   0  0  0  0  0  0  0  0  0  0  0  0
   59.2063   31.8139   53.2369 H   0  0  0  0  0  0  0  0  0  0  0  0
   58.6126   31.3547   49.6232 H   0  0  0  0  0  0  0  0  0  0  0  0
   60.1530   32.2727   49.5760 H   0  0  0  0  0  0  0  0  0  0  0  0
   57.8668   32.3330   47.5376 H   0  0  0  0  0  0  0  0  0  0  0  0
   58.4669   33.6812   48.5807 H   0  0  0  0  0  0  0  0  0  0  0  0
   57.2916   34.6040   46.1942 H   0  0  0  0  0  0  0  0  0  0  0  0
   58.0914   35.2995   44.7443 H   0  0  0  0  0  0  0  0  0  0  0  0
   58.7211   33.8782   42.8359 H   0  0  0  0  0  0  0  0  0  0  0  0
   58.0897   31.8528   41.5197 H   0  0  0  0  0  0  0  0  0  0  0  0
   56.7515   30.0352   42.5868 H   0  0  0  0  0  0  0  0  0  0  0  0
   56.0474   30.2381   44.9737 H   0  0  0  0  0  0  0  0  0  0  0  0
   56.6875   32.2492   46.3039 H   0  0  0  0  0  0  0  0  0  0  0  0
   61.4653   32.7661   45.8957 H   0  0  0  0  0  0  0  0  0  0  0  0
   61.6628   33.0101   47.6755 H   0  0  0  0  0  0  0  0  0  0  0  0
   60.6233   30.5740   46.1782 H   0  0  0  0  0  0  0  0  0  0  0  0
   61.9479   30.7032   47.4160 H   0  0  0  0  0  0  0  0  0  0  0  0
   58.2311   23.8622   45.5018 H   0  0  0  0  0  0  0  0  0  0  0  0
   55.5952   23.9765   44.9180 H   0  0  0  0  0  0  0  0  0  0  0  0
  1  2  2  0
  2  3  1  0
  3  4  1  0
  4  5  1  0
  5  6  1  0
  6  7  1  0
  7  8  2  0
  7  9  1  0
  9 10  1  0
 10 11  1  0
 11 12  1  0
 12 13  1  0
 13 14  1  0
  4 15  1  0
 15 16  2  0
 15 17  1  0
 17 18  1  0
 18 19  1  0
 19 20  1  0
 20 21  1  0
 21 22  2  0
 21 23  1  0
 23 24  1  0
 24 25  2  0
 25 26  1  0
 26 27  2  0
 27 28  1  0
 28 29  2  0
 20 30  1  0
 30 31  1  0
  2 32  1  0
 32 33  2  0
 33 34  1  0
 34 35  2  0
 35 36  1  0
 35 37  1  0
 14  9  1  0
 31 17  1  0
 37 32  1  0
 29 24  1  0
  4 38  1  6
  5 39  1  0
  5 40  1  0
  6 41  1  0
  6 42  1  0
 10 43  1  0
 10 44  1  0
 11 45  1  0
 11 46  1  0
 13 47  1  0
 13 48  1  0
 14 49  1  0
 14 50  1  0
 18 51  1  0
 18 52  1  0
 19 53  1  0
 19 54  1  0
 23 55  1  0
 23 56  1  0
 25 57  1  0
 26 58  1  0
 27 59  1  0
 28 60  1  0
 29 61  1  0
 30 62  1  0
 30 63  1  0
 31 64  1  0
 31 65  1  0
 33 66  1  0
 34 67  1  0
M  CHG  3   3  -1  36  -1  37  -1
M  END
>  <UniqueID>  (52) 
47

>  <SMILES>  (52) 
O=C([N-][C@H](CCC(=O)N1CCOCC1)C(=O)N1CCN(C(=O)Cc2ccccc2)CC1)c1ccc([O-])[n-]1

>  <Energy>  (52) 
100.11796628976994

>  <Genealogy>  (52) 
O=C([N-]C(CCC(=O)N1CCOCC1)C(=O)N1CCN(C(=O)Cc2ccccc2)CC1)c1ccc([O-])[n-]1 (protonated)
O=C([N-][C@H](CCC(=O)N1CCOCC1)C(=O)N1CCN(C(=O)Cc2ccccc2)CC1)c1ccc([O-])[n-]1 (chirality)
O=C([N-][C@H](CCC(=O)N1CCOCC1)C(=O)N1CCN(C(=O)Cc2ccccc2)CC1)c1ccc([O-])[n-]1 (3D coordinates assigned)
O=C([N-][C@H](CCC(=O)N1CCOCC1)C(=O)N1CCN(C(=O)Cc2ccccc2)CC1)c1ccc([O-])[n-]1 (nonaromatic ring conformer: 100.11796628976994 kcal/mol)

>  <smiles>  (52) 
O=C(NC(CCC(=O)N1CCOCC1)C(=O)N1CCN(C(=O)Cc2ccccc2)CC1)c1ccc(O)[nH]1

>  <score_type>  (52) 
oracle

>  <origin>  (52) 
adg

>  <m_score__min__energy>  (52) 
-15.83

>  <m_primary>  (52) 
energy

$$$$
52:0
     RDKit          3D

 61 64  0  0  0  0  0  0  0  0999 V2000
   62.4520   30.9150   52.5400 C   0  0  0  0  0  0  0  0  0  0  0  0
   61.6310   31.0370   51.3820 O   0  0  0  0  0  0  0  0  0  0  0  0
   61.2940   29.9710   50.5300 C   0  0  0  0  0  0  0  0  0  0  0  0
   60.6980   28.7890   51.0030 C   0  0  0  0  0  0  0  0  0  0  0  0
   60.3190   27.8210   50.1300 N   0  0  0  0  0  0  0  0  0  0  0  0
   60.5100   27.9700   48.7960 C   0  0  0  0  0  0  0  0  0  0  0  0
   59.9590   26.7030   47.6600 S   0  0  0  0  0  0  0  0  0  0  0  0
   59.3390   27.8940   46.4720 C   0  0  0  0  0  0  0  0  0  0  0  0
   58.0150   28.3410   46.5520 C   0  0  0  0  0  0  0  0  0  0  0  0
   57.5440   29.3090   45.6580 C   0  0  0  0  0  0  0  0  0  0  0  0
   58.3920   29.8210   44.6580 C   0  0  0  0  0  0  0  0  0  0  0  0
   57.9730   30.8500   43.7490 N   0  0  0  0  0  0  0  0  0  0  0  0
   57.8360   32.2510   44.0210 C   0  0  0  0  0  0  0  0  0  0  0  0
   57.8040   33.0880   43.0810 O   0  0  0  0  0  0  0  0  0  0  0  0
   57.7760   32.7120   45.4160 C   0  0  0  0  0  0  0  0  0  0  0  0
   57.0270   33.6840   45.7080 O   0  0  0  0  0  0  0  0  0  0  0  0
   58.5400   32.0550   46.4410 N   0  0  0  0  0  0  0  0  0  0  0  0
   58.7990   32.6260   47.7370 C   0  0  0  0  0  0  0  0  0  0  0  0
   59.4800   33.8510   47.8740 C   0  0  0  0  0  0  0  0  0  0  0  0
   59.7420   34.3730   49.1440 C   0  0  0  0  0  0  0  0  0  0  0  0
   59.3390   33.6800   50.2880 C   0  0  0  0  0  0  0  0  0  0  0  0
   58.6700   32.4540   50.1660 C   0  0  0  0  0  0  0  0  0  0  0  0
   58.1860   31.5560   51.6030 S   0  0  0  0  0  0  0  0  0  0  0  0
   56.8170   32.3830   52.3810 C   0  0  0  0  0  0  0  0  0  0  0  0
   59.3410   31.4740   52.5630 O   0  0  0  0  0  0  0  0  0  0  0  0
   57.7730   30.1590   51.2220 O   0  0  0  0  0  0  0  0  0  0  0  0
   58.4150   31.9260   48.8910 C   0  0  0  0  0  0  0  0  0  0  0  0
   59.7180   29.3700   44.5880 C   0  0  0  0  0  0  0  0  0  0  0  0
   60.1900   28.4140   45.4910 C   0  0  0  0  0  0  0  0  0  0  0  0
   61.1010   29.0950   48.3160 N   0  0  0  0  0  0  0  0  0  0  0  0
   61.5200   30.0860   49.1480 C   0  0  0  0  0  0  0  0  0  0  0  0
   62.1400   31.2560   48.5900 N   0  0  0  0  0  0  0  0  0  0  0  0
   63.2960   31.8720   49.2610 C   0  0  0  0  0  0  0  0  0  0  0  0
   63.3880   33.3860   48.9510 C   0  0  0  0  0  0  0  0  0  0  0  0
   62.5030   33.8210   47.9290 O   0  0  0  0  0  0  0  0  0  0  0  0
   62.5430   32.9300   46.8350 C   0  0  0  0  0  0  0  0  0  0  0  0
   61.8150   31.6400   47.2120 C   0  0  0  0  0  0  0  0  0  0  0  0
   61.8295   31.0075   53.4422 H   0  0  0  0  0  0  0  0  0  0  0  0
   62.9482   29.9333   52.5359 H   0  0  0  0  0  0  0  0  0  0  0  0
   63.2122   31.7100   52.5359 H   0  0  0  0  0  0  0  0  0  0  0  0
   60.5385   28.6482   52.0822 H   0  0  0  0  0  0  0  0  0  0  0  0
   57.3429   27.9302   47.3198 H   0  0  0  0  0  0  0  0  0  0  0  0
   56.5082   29.6708   45.7369 H   0  0  0  0  0  0  0  0  0  0  0  0
   58.8600   31.0750   46.2650 H   0  0  0  0  0  0  0  0  0  0  0  0
   59.8070   34.3992   46.9782 H   0  0  0  0  0  0  0  0  0  0  0  0
   60.2680   35.3340   49.2430 H   0  0  0  0  0  0  0  0  0  0  0  0
   59.5466   34.0963   51.2848 H   0  0  0  0  0  0  0  0  0  0  0  0
   56.9231   32.3189   53.4740 H   0  0  0  0  0  0  0  0  0  0  0  0
   56.8050   33.4395   52.0751 H   0  0  0  0  0  0  0  0  0  0  0  0
   55.8762   31.9020   52.0751 H   0  0  0  0  0  0  0  0  0  0  0  0
   57.9092   30.9539   48.7953 H   0  0  0  0  0  0  0  0  0  0  0  0
   60.3914   29.7718   43.8166 H   0  0  0  0  0  0  0  0  0  0  0  0
   61.2329   28.0695   45.4304 H   0  0  0  0  0  0  0  0  0  0  0  0
   63.1941   31.7347   50.3476 H   0  0  0  0  0  0  0  0  0  0  0  0
   64.2108   31.3864   48.8904 H   0  0  0  0  0  0  0  0  0  0  0  0
   63.1544   33.9423   49.8708 H   0  0  0  0  0  0  0  0  0  0  0  0
   64.4095   33.5754   48.5894 H   0  0  0  0  0  0  0  0  0  0  0  0
   62.0495   33.3909   45.9667 H   0  0  0  0  0  0  0  0  0  0  0  0
   63.5889   32.7037   46.5801 H   0  0  0  0  0  0  0  0  0  0  0  0
   60.7297   31.7972   47.1255 H   0  0  0  0  0  0  0  0  0  0  0  0
   62.1348   30.8368   46.5319 H   0  0  0  0  0  0  0  0  0  0  0  0
  1  2  1  0
  2  3  1  0
  3  4  2  0
  4  5  1  0
  5  6  2  0
  6  7  1  0
  7  8  1  0
  8  9  2  0
  9 10  1  0
 10 11  2  0
 11 12  1  0
 12 13  1  0
 13 14  2  0
 13 15  1  0
 15 16  2  0
 15 17  1  0
 17 18  1  0
 18 19  2  0
 19 20  1  0
 20 21  2  0
 21 22  1  0
 22 23  1  0
 23 24  1  0
 23 25  2  0
 23 26  2  0
 22 27  2  0
 11 28  1  0
 28 29  2  0
  6 30  1  0
 30 31  2  0
 31 32  1  0
 32 33  1  0
 33 34  1  0
 34 35  1  0
 35 36  1  0
 36 37  1  0
 31  3  1  0
 37 32  1  0
 29  8  1  0
 27 18  1  0
  1 38  1  0
  1 39  1  0
  1 40  1  0
  4 41  1  0
  9 42  1  0
 10 43  1  0
 17 44  1  0
 19 45  1  0
 20 46  1  0
 21 47  1  0
 24 48  1  0
 24 49  1  0
 24 50  1  0
 27 51  1  0
 28 52  1  0
 29 53  1  0
 33 54  1  0
 33 55  1  0
 34 56  1  0
 34 57  1  0
 36 58  1  0
 36 59  1  0
 37 60  1  0
 37 61  1  0
M  CHG  1  12  -1
M  END
>  <UniqueID>  (53) 
48

>  <SMILES>  (53) 
COc1cnc(Sc2ccc([N-]C(=O)C(=O)Nc3cccc(S(C)(=O)=O)c3)cc2)nc1N1CCOCC1

>  <Energy>  (53) 
74.32636161624285

>  <Genealogy>  (53) 
COc1cnc(Sc2ccc([N-]C(=O)C(=O)Nc3cccc(S(C)(=O)=O)c3)cc2)nc1N1CCOCC1 (protonated)
COc1cnc(Sc2ccc([N-]C(=O)C(=O)Nc3cccc(S(C)(=O)=O)c3)cc2)nc1N1CCOCC1 (3D coordinates assigned)
COc1cnc(Sc2ccc([N-]C(=O)C(=O)Nc3cccc(S(C)(=O)=O)c3)cc2)nc1N1CCOCC1 (nonaromatic ring conformer: 74.32636161624285 kcal/mol)

>  <smiles>  (53) 
COc1cnc(Sc2ccc(NC(=O)C(=O)Nc3cccc(S(C)(=O)=O)c3)cc2)nc1N1CCOCC1

>  <score_type>  (53) 
oracle

>  <origin>  (53) 
adg

>  <m_score__min__energy>  (53) 
-11.68

>  <m_primary>  (53) 
energy

$$$$
53:0
     RDKit          3D

 66 70  0  0  0  0  0  0  0  0999 V2000
   59.5680   28.6980   50.2680 O   0  0  0  0  0  0  0  0  0  0  0  0
   60.1090   29.4920   49.4540 C   0  0  0  0  0  0  0  0  0  0  0  0
   60.7580   28.9610   48.2930 N   0  0  0  0  0  0  0  0  0  0  0  0
   60.1460   28.7180   47.0190 C   0  0  0  0  0  0  0  0  0  0  0  0
   60.6800   29.2410   45.8280 C   0  0  0  0  0  0  0  0  0  0  0  0
   60.0380   29.0100   44.6090 C   0  0  0  0  0  0  0  0  0  0  0  0
   58.8460   28.2840   44.5700 C   0  0  0  0  0  0  0  0  0  0  0  0
   58.2750   27.7970   45.7560 C   0  0  0  0  0  0  0  0  0  0  0  0
   57.0090   27.0390   45.7230 C   0  0  0  0  0  0  0  0  0  0  0  0
   55.9220   27.6710   45.6190 O   0  0  0  0  0  0  0  0  0  0  0  0
   56.9890   25.6040   45.8000 N   0  0  0  0  0  0  0  0  0  0  0  0
   58.0870   24.7540   45.3630 C   0  0  0  0  0  0  0  0  0  0  0  0
   57.4960   23.3560   45.2310 C   0  0  0  0  0  0  0  0  0  0  0  0
   56.1840   23.3840   46.0090 C   0  0  0  0  0  0  0  0  0  0  0  0
   55.7800   24.8500   46.0820 C   0  0  0  0  0  0  0  0  0  0  0  0
   58.9400   28.0070   46.9760 C   0  0  0  0  0  0  0  0  0  0  0  0
   60.1360   30.9000   49.7340 N   0  0  0  0  0  0  0  0  0  0  0  0
   59.1990   31.5250   50.6270 C   0  0  0  0  0  0  0  0  0  0  0  0
   57.9670   30.9000   50.8880 C   0  0  0  0  0  0  0  0  0  0  0  0
   57.0520   31.4720   51.7740 C   0  0  0  0  0  0  0  0  0  0  0  0
   57.3580   32.6740   52.4120 C   0  0  0  0  0  0  0  0  0  0  0  0
   58.5730   33.3110   52.1590 C   0  0  0  0  0  0  0  0  0  0  0  0
   59.5010   32.7520   51.2650 C   0  0  0  0  0  0  0  0  0  0  0  0
   60.7990   33.4350   51.0700 C   0  0  0  0  0  0  0  0  0  0  0  0
   61.4150   33.8920   52.0660 O   0  0  0  0  0  0  0  0  0  0  0  0
   61.4270   33.4990   49.7810 N   0  0  0  0  0  0  0  0  0  0  0  0
   60.7630   33.6820   48.5220 C   0  0  0  0  0  0  0  0  0  0  0  0
   61.4510   33.3730   47.3440 C   0  0  0  0  0  0  0  0  0  0  0  0
   60.8380   33.5440   46.0990 C   0  0  0  0  0  0  0  0  0  0  0  0
   59.5240   34.0350   46.0180 C   0  0  0  0  0  0  0  0  0  0  0  0
   58.8770   34.2570   44.6790 C   0  0  0  0  0  0  0  0  0  0  0  0
   58.1570   33.0130   44.2370 C   0  0  0  0  0  0  0  0  0  0  0  0
   58.0480   32.7020   42.8730 C   0  0  0  0  0  0  0  0  0  0  0  0
   57.4110   31.5210   42.4850 C   0  0  0  0  0  0  0  0  0  0  0  0
   56.9080   30.6760   43.4250 N   0  0  0  0  0  0  0  0  0  0  0  0
   57.0090   30.9480   44.7540 C   0  0  0  0  0  0  0  0  0  0  0  0
   57.6380   32.1170   45.1840 C   0  0  0  0  0  0  0  0  0  0  0  0
   58.8490   34.3840   47.1970 C   0  0  0  0  0  0  0  0  0  0  0  0
   59.4660   34.2160   48.4400 C   0  0  0  0  0  0  0  0  0  0  0  0
   61.6061   29.8339   45.8562 H   0  0  0  0  0  0  0  0  0  0  0  0
   60.4727   29.4011   43.6773 H   0  0  0  0  0  0  0  0  0  0  0  0
   58.3524   28.0929   43.6057 H   0  0  0  0  0  0  0  0  0  0  0  0
   58.4773   25.0988   44.3941 H   0  0  0  0  0  0  0  0  0  0  0  0
   58.9260   24.7755   46.0740 H   0  0  0  0  0  0  0  0  0  0  0  0
   57.3092   23.1174   44.1736 H   0  0  0  0  0  0  0  0  0  0  0  0
   58.1811   22.5885   45.6203 H   0  0  0  0  0  0  0  0  0  0  0  0
   55.4141   22.7996   45.4839 H   0  0  0  0  0  0  0  0  0  0  0  0
   56.2963   22.9433   47.0106 H   0  0  0  0  0  0  0  0  0  0  0  0
   55.0056   25.0724   45.3331 H   0  0  0  0  0  0  0  0  0  0  0  0
   55.3604   25.1076   47.0657 H   0  0  0  0  0  0  0  0  0  0  0  0
   58.5091   27.6090   47.9066 H   0  0  0  0  0  0  0  0  0  0  0  0
   60.8750   31.4790   49.2790 H   0  0  0  0  0  0  0  0  0  0  0  0
   57.7215   29.9508   50.3892 H   0  0  0  0  0  0  0  0  0  0  0  0
   56.0902   30.9749   51.9688 H   0  0  0  0  0  0  0  0  0  0  0  0
   56.6401   33.1204   53.1158 H   0  0  0  0  0  0  0  0  0  0  0  0
   58.8065   34.2598   52.6643 H   0  0  0  0  0  0  0  0  0  0  0  0
   62.4818   32.9927   47.3974 H   0  0  0  0  0  0  0  0  0  0  0  0
   61.3867   33.2931   45.1792 H   0  0  0  0  0  0  0  0  0  0  0  0
   58.1573   35.0853   44.7562 H   0  0  0  0  0  0  0  0  0  0  0  0
   59.6549   34.5026   43.9410 H   0  0  0  0  0  0  0  0  0  0  0  0
   58.4612   33.3834   42.1147 H   0  0  0  0  0  0  0  0  0  0  0  0
   57.3159   31.2738   41.4174 H   0  0  0  0  0  0  0  0  0  0  0  0
   56.5940   30.2450   45.4912 H   0  0  0  0  0  0  0  0  0  0  0  0
   57.7264   32.3348   46.2586 H   0  0  0  0  0  0  0  0  0  0  0  0
   57.8289   34.7920   47.1432 H   0  0  0  0  0  0  0  0  0  0  0  0
   58.9334   34.5033   49.3586 H   0  0  0  0  0  0  0  0  0  0  0  0
  1  2  2  0
  2  3  1  0
  3  4  1  0
  4  5  2  0
  5  6  1  0
  6  7  2  0
  7  8  1  0
  8  9  1  0
  9 10  2  0
  9 11  1  0
 11 12  1  0
 12 13  1  0
 13 14  1  0
 14 15  1  0
  8 16  2  0
  2 17  1  0
 17 18  1  0
 18 19  2  0
 19 20  1  0
 20 21  2  0
 21 22  1  0
 22 23  2  0
 23 24  1  0
 24 25  2  0
 24 26  1  0
 26 27  1  0
 27 28  2  0
 28 29  1  0
 29 30  2  0
 30 31  1  0
 31 32  1  0
 32 33  2  0
 33 34  1  0
 34 35  2  0
 35 36  1  0
 36 37  2  0
 30 38  1  0
 38 39  2  0
 16  4  1  0
 23 18  1  0
 39 27  1  0
 15 11  1  0
 37 32  1  0
  5 40  1  0
  6 41  1  0
  7 42  1  0
 12 43  1  0
 12 44  1  0
 13 45  1  0
 13 46  1  0
 14 47  1  0
 14 48  1  0
 15 49  1  0
 15 50  1  0
 16 51  1  0
 17 52  1  0
 19 53  1  0
 20 54  1  0
 21 55  1  0
 22 56  1  0
 28 57  1  0
 29 58  1  0
 31 59  1  0
 31 60  1  0
 33 61  1  0
 34 62  1  0
 36 63  1  0
 37 64  1  0
 38 65  1  0
 39 66  1  0
M  CHG  2   3  -1  26  -1
M  END
>  <UniqueID>  (54) 
49

>  <SMILES>  (54) 
O=C([N-]c1cccc(C(=O)N2CCCC2)c1)Nc1ccccc1C(=O)[N-]c1ccc(Cc2ccncc2)cc1

>  <Energy>  (54) 
92.23535851551007

>  <Genealogy>  (54) 
O=C([N-]c1cccc(C(=O)N2CCCC2)c1)Nc1ccccc1C(=O)[N-]c1ccc(Cc2ccncc2)cc1 (protonated)
O=C([N-]c1cccc(C(=O)N2CCCC2)c1)Nc1ccccc1C(=O)[N-]c1ccc(Cc2ccncc2)cc1 (3D coordinates assigned)
O=C([N-]c1cccc(C(=O)N2CCCC2)c1)Nc1ccccc1C(=O)[N-]c1ccc(Cc2ccncc2)cc1 (nonaromatic ring conformer: 92.23535851551007 kcal/mol)

>  <smiles>  (54) 
O=C(Nc1cccc(C(=O)N2CCCC2)c1)Nc1ccccc1C(=O)Nc1ccc(Cc2ccncc2)cc1

>  <score_type>  (54) 
oracle

>  <origin>  (54) 
adg

>  <m_score__min__energy>  (54) 
-13.74

>  <m_primary>  (54) 
energy

$$$$
54:0
     RDKit          3D

 30 32  0  0  0  0  0  0  0  0999 V2000
   56.0140   27.4360   45.6190 O   0  0  0  0  0  0  0  0  0  0  0  0
   56.2140   28.5310   45.0300 C   0  0  0  0  0  0  0  0  0  0  0  0
   55.1620   29.4220   44.8570 O   0  0  0  0  0  0  0  0  0  0  0  0
   57.5870   28.8970   44.5670 C   0  0  0  0  0  0  0  0  0  0  0  0
   57.8080   30.3770   44.7230 C   0  0  0  0  0  0  0  0  0  0  0  0
   58.0080   31.1860   43.5920 C   0  0  0  0  0  0  0  0  0  0  0  0
   58.1930   32.5650   43.7360 C   0  0  0  0  0  0  0  0  0  0  0  0
   58.1660   33.1450   45.0080 C   0  0  0  0  0  0  0  0  0  0  0  0
   57.9580   32.3460   46.1360 C   0  0  0  0  0  0  0  0  0  0  0  0
   57.7810   30.9660   45.9990 C   0  0  0  0  0  0  0  0  0  0  0  0
   58.1520   33.0830   47.7570 S   0  0  0  0  0  0  0  0  0  0  0  0
   59.9300   32.9980   47.5340 C   0  0  0  0  0  0  0  0  0  0  0  0
   60.6090   31.9700   48.2020 C   0  0  0  0  0  0  0  0  0  0  0  0
   61.9740   31.7700   48.0000 C   0  0  0  0  0  0  0  0  0  0  0  0
   62.6730   32.5920   47.1200 C   0  0  0  0  0  0  0  0  0  0  0  0
   62.0100   33.6150   46.4380 C   0  0  0  0  0  0  0  0  0  0  0  0
   60.6280   33.8290   46.6130 C   0  0  0  0  0  0  0  0  0  0  0  0
   60.0180   35.0330   45.9000 C   0  0  0  0  0  0  0  0  0  0  0  0
   58.3150   34.9250   45.1990 S   0  0  0  0  0  0  0  0  0  0  0  0
   58.3306   28.3528   45.1677 H   0  0  0  0  0  0  0  0  0  0  0  0
   57.6929   28.6271   43.5059 H   0  0  0  0  0  0  0  0  0  0  0  0
   58.0192   30.7333   42.5895 H   0  0  0  0  0  0  0  0  0  0  0  0
   58.3597   33.1932   42.8485 H   0  0  0  0  0  0  0  0  0  0  0  0
   57.6206   30.3410   46.8899 H   0  0  0  0  0  0  0  0  0  0  0  0
   60.0593   31.3140   48.8930 H   0  0  0  0  0  0  0  0  0  0  0  0
   62.4978   30.9641   48.5350 H   0  0  0  0  0  0  0  0  0  0  0  0
   63.7502   32.4354   46.9614 H   0  0  0  0  0  0  0  0  0  0  0  0
   62.5757   34.2640   45.7533 H   0  0  0  0  0  0  0  0  0  0  0  0
   60.0113   35.8610   46.6242 H   0  0  0  0  0  0  0  0  0  0  0  0
   60.6517   35.1462   45.0080 H   0  0  0  0  0  0  0  0  0  0  0  0
  1  2  2  0
  2  3  1  0
  2  4  1  0
  4  5  1  0
  5  6  2  0
  6  7  1  0
  7  8  2  0
  8  9  1  0
  9 10  2  0
  9 11  1  0
 11 12  1  0
 12 13  2  0
 13 14  1  0
 14 15  2  0
 15 16  1  0
 16 17  2  0
 17 18  1  0
 18 19  1  0
 10  5  1  0
 17 12  1  0
 19  8  1  0
  4 20  1  0
  4 21  1  0
  6 22  1  0
  7 23  1  0
 10 24  1  0
 13 25  1  0
 14 26  1  0
 15 27  1  0
 16 28  1  0
 18 29  1  0
 18 30  1  0
M  CHG  1   3  -1
M  END
>  <UniqueID>  (55) 
50

>  <SMILES>  (55) 
O=C([O-])Cc1ccc2c(c1)Sc1ccccc1CS2

>  <Energy>  (55) 
41.48612648495393

>  <Genealogy>  (55) 
O=C([O-])Cc1ccc2c(c1)Sc1ccccc1CS2 (protonated)
O=C([O-])Cc1ccc2c(c1)Sc1ccccc1CS2 (3D coordinates assigned)
O=C([O-])Cc1ccc2c(c1)Sc1ccccc1CS2 (nonaromatic ring conformer: 41.48612648495393 kcal/mol)

>  <smiles>  (55) 
O=C(O)Cc1ccc2c(c1)Sc1ccccc1CS2

>  <score_type>  (55) 
oracle

>  <origin>  (55) 
adg

>  <m_score__min__energy>  (55) 
-10.52

>  <m_primary>  (55) 
energy

$$$$
55:0
     RDKit          3D

 55 57  0  0  0  0  0  0  0  0999 V2000
   60.4342   33.9153   45.7998 H   0  0  0  0  0  0  0  0  0  0  0  0
   59.9720   33.9170   46.7980 C   0  0  0  0  0  0  0  0  0  0  0  0
   59.7590   35.0110   47.3850 O   0  0  0  0  0  0  0  0  0  0  0  0
   59.6100   32.6470   47.4320 C   0  0  0  0  0  0  0  0  0  0  0  0
   59.6430   31.4170   46.8110 C   0  0  0  0  0  0  0  0  0  0  0  0
   59.9222   31.2089   45.7675 H   0  0  0  0  0  0  0  0  0  0  0  0
   59.2530   30.4970   47.7690 C   0  0  0  0  0  0  0  0  0  0  0  0
   59.0800   29.0480   47.5350 C   0  0  0  0  0  0  0  0  0  0  0  0
   59.8420   28.1480   48.2900 C   0  0  0  0  0  0  0  0  0  0  0  0
   60.5636   28.5279   49.0283 H   0  0  0  0  0  0  0  0  0  0  0  0
   59.6920   26.7750   48.1120 C   0  0  0  0  0  0  0  0  0  0  0  0
   60.2978   26.0754   48.7067 H   0  0  0  0  0  0  0  0  0  0  0  0
   58.7770   26.2850   47.1830 C   0  0  0  0  0  0  0  0  0  0  0  0
   58.6672   25.1986   47.0502 H   0  0  0  0  0  0  0  0  0  0  0  0
   57.9910   27.1620   46.4120 C   0  0  0  0  0  0  0  0  0  0  0  0
   57.0700   26.6520   45.4280 N   0  0  0  0  0  0  0  0  0  0  0  0
   57.0440   27.0700   44.4720 H   0  0  0  0  0  0  0  0  0  0  0  0
   55.9180   25.3890   45.7290 S   0  0  0  0  0  0  0  0  0  0  0  0
   54.5360   25.9670   45.6380 O   0  0  0  0  0  0  0  0  0  0  0  0
   56.1130   24.8260   47.1080 O   0  0  0  0  0  0  0  0  0  0  0  0
   56.0900   24.1060   44.5110 C   0  0  0  0  0  0  0  0  0  0  0  0
   56.2199   23.1369   45.0150 H   0  0  0  0  0  0  0  0  0  0  0  0
   55.1881   24.0742   43.8821 H   0  0  0  0  0  0  0  0  0  0  0  0
   56.9684   24.3129   43.8821 H   0  0  0  0  0  0  0  0  0  0  0  0
   58.1500   28.5570   46.5900 C   0  0  0  0  0  0  0  0  0  0  0  0
   57.2230   29.6910   45.6010 Cl  0  0  0  0  0  0  0  0  0  0  0  0
   58.9800   31.2130   48.9310 C   0  0  0  0  0  0  0  0  0  0  0  0
   58.6040   30.6450   50.2500 C   0  0  0  0  0  0  0  0  0  0  0  0
   57.3640   30.8800   50.7560 N   0  0  0  0  0  0  0  0  0  0  0  0
   56.9520   30.3250   51.9270 C   0  0  0  0  0  0  0  0  0  0  0  0
   55.7530   30.5310   52.3850 N   0  0  0  0  0  0  0  0  0  0  0  0
   54.5560   30.7940   51.5800 C   0  0  0  0  0  0  0  0  0  0  0  0
   54.3710   29.9271   50.9287 H   0  0  0  0  0  0  0  0  0  0  0  0
   54.7399   31.7067   50.9942 H   0  0  0  0  0  0  0  0  0  0  0  0
   53.3050   31.0370   52.4480 C   0  0  1  0  0  0  0  0  0  0  0  0
   53.3971   32.0345   52.9024 H   0  0  0  0  0  0  0  0  0  0  0  0
   52.0980   30.9930   51.6260 N   0  0  0  0  0  0  0  0  0  0  0  0
   51.3950   32.1690   51.2230 C   0  0  0  0  0  0  0  0  0  0  0  0
   51.6760   32.7090   50.1200 O   0  0  0  0  0  0  0  0  0  0  0  0
   50.4200   32.7240   52.0600 O   0  0  0  0  0  0  0  0  0  0  0  0
   50.3870   32.4930   53.4610 C   0  0  0  0  0  0  0  0  0  0  0  0
   50.5231   33.4461   53.9931 H   0  0  0  0  0  0  0  0  0  0  0  0
   49.4170   32.0540   53.7375 H   0  0  0  0  0  0  0  0  0  0  0  0
   51.1953   31.8000   53.7375 H   0  0  0  0  0  0  0  0  0  0  0  0
   53.2050   29.9960   53.5660 C   0  0  0  0  0  0  0  0  0  0  0  0
   53.2535   30.5006   54.5422 H   0  0  0  0  0  0  0  0  0  0  0  0
   52.2508   29.4556   53.4795 H   0  0  0  0  0  0  0  0  0  0  0  0
   54.0389   29.2838   53.4795 H   0  0  0  0  0  0  0  0  0  0  0  0
   57.7990   29.5230   52.6220 N   0  0  0  0  0  0  0  0  0  0  0  0
   59.0530   29.2690   52.1680 C   0  0  0  0  0  0  0  0  0  0  0  0
   59.7274   28.6234   52.7497 H   0  0  0  0  0  0  0  0  0  0  0  0
   59.4870   29.8250   50.9660 C   0  0  0  0  0  0  0  0  0  0  0  0
   60.5002   29.6247   50.5875 H   0  0  0  0  0  0  0  0  0  0  0  0
   59.2080   32.5250   48.7140 N   0  0  0  0  0  0  0  0  0  0  0  0
   59.1300   33.3000   49.4080 H   0  0  0  0  0  0  0  0  0  0  0  0
  1  2  1  0
  2  3  2  0
  2  4  1  0
  4  5  2  0
  5  6  1  0
  5  7  1  0
  7  8  1  0
  8  9  2  0
  9 10  1  0
  9 11  1  0
 11 12  1  0
 11 13  2  0
 13 14  1  0
 13 15  1  0
 15 16  1  0
 16 17  1  0
 16 18  1  0
 18 19  2  0
 18 20  2  0
 18 21  1  0
 21 22  1  0
 21 23  1  0
 21 24  1  0
 15 25  2  0
 25 26  1  0
  7 27  2  0
 27 28  1  0
 28 29  2  0
 29 30  1  0
 30 31  2  0
 31 32  1  0
 32 33  1  0
 32 34  1  0
 32 35  1  0
 35 36  1  1
 35 37  1  0
 37 38  1  0
 38 39  2  0
 38 40  1  0
 40 41  1  0
 41 42  1  0
 41 43  1  0
 41 44  1  0
 35 45  1  0
 45 46  1  0
 45 47  1  0
 45 48  1  0
 30 49  1  0
 49 50  1  0
 50 51  1  0
 50 52  2  0
 52 53  1  0
 27 54  1  0
 54 55  1  0
 54  4  1  0
 25  8  1  0
 52 28  1  0
M  CHG  2  37  -1  49  -1
M  END
>  <UniqueID>  (56) 
51

>  <SMILES>  (56) 
COC(=O)[N-][C@@H](C)C/N=c1\nc(-c2[nH]c(C=O)cc2-c2cccc(NS(C)(=O)=O)c2Cl)cc[n-]1

>  <Energy>  (56) 
78.99453326486518

>  <Genealogy>  (56) 
COC(=O)[N-]C(C)CN=c1nc(-c2[nH]c(C=O)cc2-c2cccc(NS(C)(=O)=O)c2Cl)cc[n-]1 (protonated)
COC(=O)[N-][C@@H](C)CN=c1nc(-c2[nH]c(C=O)cc2-c2cccc(NS(C)(=O)=O)c2Cl)cc[n-]1 (chirality)
COC(=O)[N-][C@@H](C)C/N=c1\nc(-c2[nH]c(C=O)cc2-c2cccc(NS(C)(=O)=O)c2Cl)cc[n-]1 (cis-trans isomerization)
COC(=O)[N-][C@@H](C)C/N=c1\nc(-c2[nH]c(C=O)cc2-c2cccc(NS(C)(=O)=O)c2Cl)cc[n-]1 (3D coordinates assigned)
COC(=O)[N-][C@@H](C)C/N=c1\nc(-c2[nH]c(C=O)cc2-c2cccc(NS(C)(=O)=O)c2Cl)cc[n-]1 (optimized conformer: 78.99453326486518 kcal/mol)

>  <smiles>  (56) 
COC(=O)NC(C)CN=c1nc(-c2[nH]c(C=O)cc2-c2cccc(NS(C)(=O)=O)c2Cl)cc[nH]1

>  <score_type>  (56) 
oracle

>  <origin>  (56) 
adg

>  <m_score__min__energy>  (56) 
-12.81

>  <m_primary>  (56) 
energy

$$$$
56:0
     RDKit          3D

 56 59  0  0  0  0  0  0  0  0999 V2000
   51.6050   24.2140   44.5150 C   0  0  0  0  0  0  0  0  0  0  0  0
   52.7250   24.2750   45.2320 C   0  0  0  0  0  0  0  0  0  0  0  0
   53.4930   23.0690   45.6070 C   0  0  0  0  0  0  0  0  0  0  0  0
   52.9180   21.9500   45.6720 O   0  0  0  0  0  0  0  0  0  0  0  0
   54.8750   23.1530   45.9760 N   0  0  0  0  0  0  0  0  0  0  0  0
   55.8290   24.1120   45.4920 C   0  0  0  0  0  0  0  0  0  0  0  0
   55.9490   25.3750   46.0990 C   0  0  0  0  0  0  0  0  0  0  0  0
   56.8470   26.3270   45.6060 C   0  0  0  0  0  0  0  0  0  0  0  0
   56.9620   27.5850   46.2910 N   0  0  0  0  0  0  0  0  0  0  0  0
   57.0900   28.7630   45.7520 C   0  0  0  0  0  0  0  0  0  0  0  0
   58.0080   29.6680   46.2980 C   0  0  0  0  0  0  0  0  0  0  0  0
   58.1500   30.9660   45.7490 C   0  0  0  0  0  0  0  0  0  0  0  0
   57.3450   31.2980   44.6310 C   0  0  0  0  0  0  0  0  0  0  0  0
   57.4780   32.5490   44.0310 C   0  0  0  0  0  0  0  0  0  0  0  0
   58.4060   33.4530   44.5220 C   0  0  0  0  0  0  0  0  0  0  0  0
   59.1880   33.1180   45.6280 C   0  0  0  0  0  0  0  0  0  0  0  0
   60.0350   33.9600   46.0380 O   0  0  0  0  0  0  0  0  0  0  0  0
   59.0420   31.8990   46.2550 N   0  0  0  0  0  0  0  0  0  0  0  0
   59.8760   31.6110   47.4450 C   0  0  0  0  0  0  0  0  0  0  0  0
   61.2500   31.0800   47.0220 C   0  0  0  0  0  0  0  0  0  0  0  0
   62.3460   31.8020   47.7580 C   0  0  0  0  0  0  0  0  0  0  0  0
   63.1120   32.7820   47.1070 C   0  0  0  0  0  0  0  0  0  0  0  0
   64.1080   33.4750   47.8040 C   0  0  0  0  0  0  0  0  0  0  0  0
   64.3370   33.2000   49.1550 C   0  0  0  0  0  0  0  0  0  0  0  0
   63.5690   32.2360   49.8130 C   0  0  0  0  0  0  0  0  0  0  0  0
   62.5730   31.5410   49.1210 C   0  0  0  0  0  0  0  0  0  0  0  0
   56.4290   30.3670   44.1270 C   0  0  0  0  0  0  0  0  0  0  0  0
   56.3210   29.1410   44.6960 N   0  0  0  0  0  0  0  0  0  0  0  0
   57.6620   25.9960   44.5120 C   0  0  0  0  0  0  0  0  0  0  0  0
   57.5310   24.7560   43.8840 C   0  0  0  0  0  0  0  0  0  0  0  0
   56.6050   23.8120   44.3540 C   0  0  0  0  0  0  0  0  0  0  0  0
   56.4430   22.2420   43.5540 S   0  0  0  0  0  0  0  0  0  0  0  0
   55.7810   21.0410   44.6100 N   0  0  0  0  0  0  0  0  0  0  0  0
   55.5380   22.3890   42.3630 O   0  0  0  0  0  0  0  0  0  0  0  0
   57.7970   21.7800   43.0960 O   0  0  0  0  0  0  0  0  0  0  0  0
   51.0652   25.1375   44.2585 H   0  0  0  0  0  0  0  0  0  0  0  0
   51.2194   23.2401   44.1790 H   0  0  0  0  0  0  0  0  0  0  0  0
   53.0925   25.2594   45.5574 H   0  0  0  0  0  0  0  0  0  0  0  0
   55.3278   25.6174   46.9738 H   0  0  0  0  0  0  0  0  0  0  0  0
   58.6233   29.3690   47.1594 H   0  0  0  0  0  0  0  0  0  0  0  0
   56.8481   32.8177   43.1702 H   0  0  0  0  0  0  0  0  0  0  0  0
   58.5263   34.4345   44.0401 H   0  0  0  0  0  0  0  0  0  0  0  0
   60.0085   32.5353   48.0264 H   0  0  0  0  0  0  0  0  0  0  0  0
   59.3723   30.8475   48.0560 H   0  0  0  0  0  0  0  0  0  0  0  0
   61.3083   30.0055   47.2501 H   0  0  0  0  0  0  0  0  0  0  0  0
   61.3779   31.2471   45.9423 H   0  0  0  0  0  0  0  0  0  0  0  0
   62.9287   33.0058   46.0457 H   0  0  0  0  0  0  0  0  0  0  0  0
   64.7111   34.2367   47.2882 H   0  0  0  0  0  0  0  0  0  0  0  0
   65.1226   33.7430   49.7008 H   0  0  0  0  0  0  0  0  0  0  0  0
   63.7484   32.0236   50.8773 H   0  0  0  0  0  0  0  0  0  0  0  0
   61.9652   30.7880   49.6440 H   0  0  0  0  0  0  0  0  0  0  0  0
   55.7954   30.6307   43.2674 H   0  0  0  0  0  0  0  0  0  0  0  0
   58.4080   26.7176   44.1475 H   0  0  0  0  0  0  0  0  0  0  0  0
   58.1591   24.5168   43.0132 H   0  0  0  0  0  0  0  0  0  0  0  0
   56.3200   21.0770   45.5050 H   0  0  0  0  0  0  0  0  0  0  0  0
   54.7960   21.3150   44.8210 H   0  0  0  0  0  0  0  0  0  0  0  0
  1  2  2  0
  2  3  1  0
  3  4  2  0
  3  5  1  0
  5  6  1  0
  6  7  2  0
  7  8  1  0
  8  9  1  0
  9 10  2  3
 10 11  1  0
 11 12  2  0
 12 13  1  0
 13 14  1  0
 14 15  2  0
 15 16  1  0
 16 17  2  0
 16 18  1  0
 18 19  1  0
 19 20  1  0
 20 21  1  0
 21 22  2  0
 22 23  1  0
 23 24  2  0
 24 25  1  0
 25 26  2  0
 13 27  2  0
 27 28  1  0
  8 29  2  0
 29 30  1  0
 30 31  2  0
 31 32  1  0
 32 33  1  0
 32 34  2  0
 32 35  2  0
 31  6  1  0
 28 10  1  0
 18 12  1  0
 26 21  1  0
  1 36  1  0
  1 37  1  0
  2 38  1  0
  7 39  1  0
 11 40  1  0
 14 41  1  0
 15 42  1  0
 19 43  1  0
 19 44  1  0
 20 45  1  0
 20 46  1  0
 22 47  1  0
 23 48  1  0
 24 49  1  0
 25 50  1  0
 26 51  1  0
 27 52  1  0
 29 53  1  0
 30 54  1  0
 33 55  1  0
 33 56  1  0
M  CHG  2   5  -1  28  -1
M  END
>  <UniqueID>  (57) 
52

>  <SMILES>  (57) 
C=CC(=O)[N-]c1cc(N=c2cc3c(ccc(=O)n3CCc3ccccc3)c[n-]2)ccc1S(N)(=O)=O

>  <Energy>  (57) 
78.31456393611293

>  <Genealogy>  (57) 
C=CC(=O)[N-]c1cc(N=c2cc3c(ccc(=O)n3CCc3ccccc3)c[n-]2)ccc1S(N)(=O)=O (protonated)
C=CC(=O)[N-]c1cc(N=c2cc3c(ccc(=O)n3CCc3ccccc3)c[n-]2)ccc1S(N)(=O)=O (3D coordinates assigned)
C=CC(=O)[N-]c1cc(N=c2cc3c(ccc(=O)n3CCc3ccccc3)c[n-]2)ccc1S(N)(=O)=O (optimized conformer: 78.31456393611293 kcal/mol)

>  <smiles>  (57) 
C=CC(=O)Nc1cc(N=c2cc3c(ccc(=O)n3CCc3ccccc3)c[nH]2)ccc1S(N)(=O)=O

>  <score_type>  (57) 
oracle

>  <origin>  (57) 
adg

>  <m_score__min__energy>  (57) 
-13.619999999999999

>  <m_primary>  (57) 
energy

$$$$
57:0
     RDKit          3D

 59 62  0  0  0  0  0  0  0  0999 V2000
   55.2100   28.6620   45.6160 H   0  0  0  0  0  0  0  0  0  0  0  0
   55.1370   29.2920   44.7850 N   0  0  0  0  0  0  0  0  0  0  0  0
   56.2820   29.9750   44.2810 C   0  0  0  0  0  0  0  0  0  0  0  0
   56.3040   30.3460   43.0770 O   0  0  0  0  0  0  0  0  0  0  0  0
   57.4010   30.3280   45.1720 C   0  0  0  0  0  0  0  0  0  0  0  0
   57.9030   31.6070   45.3100 C   0  0  0  0  0  0  0  0  0  0  0  0
   57.6672   32.4577   44.6538 H   0  0  0  0  0  0  0  0  0  0  0  0
   58.7310   31.6490   46.3800 N   0  0  0  0  0  0  0  0  0  0  0  0
   59.3670   32.8480   46.9820 C   0  0  0  0  0  0  0  0  0  0  0  0
   58.4390   34.0740   46.7520 C   0  0  0  0  0  0  0  0  0  0  0  0
   57.4318   33.7092   46.5020 H   0  0  0  0  0  0  0  0  0  0  0  0
   58.4426   34.6677   47.6780 H   0  0  0  0  0  0  0  0  0  0  0  0
   58.9030   34.9500   45.6660 C   0  0  0  0  0  0  0  0  0  0  0  0
   59.2690   35.6390   44.8120 N   0  0  0  0  0  0  0  0  0  0  0  0
   59.5190   32.6240   48.5260 C   0  0  0  0  0  0  0  0  0  0  0  0
   59.6381   31.5474   48.7176 H   0  0  0  0  0  0  0  0  0  0  0  0
   58.6170   33.0207   49.0149 H   0  0  0  0  0  0  0  0  0  0  0  0
   60.7310   33.3650   49.1030 C   0  0  0  0  0  0  0  0  0  0  0  0
   60.7446   33.2309   50.1947 H   0  0  0  0  0  0  0  0  0  0  0  0
   60.6411   34.4289   48.8383 H   0  0  0  0  0  0  0  0  0  0  0  0
   62.0080   32.8520   48.5380 N   0  0  0  0  0  0  0  0  0  0  0  0
   63.0960   33.8410   48.6830 C   0  0  0  0  0  0  0  0  0  0  0  0
   62.6592   34.8286   48.8922 H   0  0  0  0  0  0  0  0  0  0  0  0
   63.6743   33.8665   47.7476 H   0  0  0  0  0  0  0  0  0  0  0  0
   64.0170   33.4640   49.8050 C   0  0  0  0  0  0  0  0  0  0  0  0
   63.8820   33.8380   51.1320 C   0  0  0  0  0  0  0  0  0  0  0  0
   63.0662   34.4182   51.5878 H   0  0  0  0  0  0  0  0  0  0  0  0
   65.0020   33.3190   51.7560 C   0  0  0  0  0  0  0  0  0  0  0  0
   65.2411   33.4076   52.8260 H   0  0  0  0  0  0  0  0  0  0  0  0
   65.7500   32.6870   50.8320 N   0  0  0  0  0  0  0  0  0  0  0  0
   67.2580   31.8870   51.1090 S   0  0  0  0  0  0  0  0  0  0  0  0
   67.2460   30.5480   50.4280 O   0  0  0  0  0  0  0  0  0  0  0  0
   68.3830   32.7120   50.5500 O   0  0  0  0  0  0  0  0  0  0  0  0
   67.5020   31.6730   52.8580 C   0  0  0  0  0  0  0  0  0  0  0  0
   66.7857   32.3013   53.4077 H   0  0  0  0  0  0  0  0  0  0  0  0
   67.3434   30.6175   53.1239 H   0  0  0  0  0  0  0  0  0  0  0  0
   68.5278   31.9679   53.1239 H   0  0  0  0  0  0  0  0  0  0  0  0
   65.1620   32.7750   49.6520 N   0  0  0  0  0  0  0  0  0  0  0  0
   65.5440   32.3820   48.7620 H   0  0  0  0  0  0  0  0  0  0  0  0
   61.8880   32.3820   47.1320 C   0  0  0  0  0  0  0  0  0  0  0  0
   61.6585   31.3062   47.1371 H   0  0  0  0  0  0  0  0  0  0  0  0
   62.8431   32.5870   46.6262 H   0  0  0  0  0  0  0  0  0  0  0  0
   60.7820   33.1190   46.3630 C   0  0  0  0  0  0  0  0  0  0  0  0
   60.7855   32.7766   45.3177 H   0  0  0  0  0  0  0  0  0  0  0  0
   60.9824   34.1989   46.4243 H   0  0  0  0  0  0  0  0  0  0  0  0
   58.7530   30.4520   46.9510 N   0  0  0  0  0  0  0  0  0  0  0  0
   57.9840   29.6220   46.2240 C   0  0  0  0  0  0  0  0  0  0  0  0
   57.8810   28.3560   46.5140 N   0  0  0  0  0  0  0  0  0  0  0  0
   57.6210   27.2690   45.6170 C   0  0  0  0  0  0  0  0  0  0  0  0
   58.0650   27.3070   44.2830 C   0  0  0  0  0  0  0  0  0  0  0  0
   58.5835   28.1995   43.9026 H   0  0  0  0  0  0  0  0  0  0  0  0
   57.8490   26.2130   43.4390 C   0  0  0  0  0  0  0  0  0  0  0  0
   58.1778   26.2545   42.3901 H   0  0  0  0  0  0  0  0  0  0  0  0
   57.2150   25.0660   43.9280 C   0  0  0  0  0  0  0  0  0  0  0  0
   57.0080   24.0060   43.1090 F   0  0  0  0  0  0  0  0  0  0  0  0
   56.8060   25.0090   45.2640 C   0  0  0  0  0  0  0  0  0  0  0  0
   56.3148   24.1037   45.6504 H   0  0  0  0  0  0  0  0  0  0  0  0
   57.0210   26.1020   46.1090 C   0  0  0  0  0  0  0  0  0  0  0  0
   56.7178   26.0456   47.1649 H   0  0  0  0  0  0  0  0  0  0  0  0
  1  2  1  0
  2  3  1  0
  3  4  2  0
  3  5  1  0
  5  6  2  0
  6  7  1  0
  6  8  1  0
  8  9  1  0
  9 10  1  0
 10 11  1  0
 10 12  1  0
 10 13  1  0
 13 14  3  0
  9 15  1  0
 15 16  1  0
 15 17  1  0
 15 18  1  0
 18 19  1  0
 18 20  1  0
 18 21  1  0
 21 22  1  0
 22 23  1  0
 22 24  1  0
 22 25  1  0
 25 26  1  0
 26 27  1  0
 26 28  2  0
 28 29  1  0
 28 30  1  0
 30 31  1  0
 31 32  2  0
 31 33  2  0
 31 34  1  0
 34 35  1  0
 34 36  1  0
 34 37  1  0
 30 38  1  0
 38 39  1  0
 21 40  1  0
 40 41  1  0
 40 42  1  0
 40 43  1  0
 43 44  1  0
 43 45  1  0
  8 46  1  0
 46 47  1  0
 47 48  2  0
 48 49  1  0
 49 50  2  0
 50 51  1  0
 50 52  1  0
 52 53  1  0
 52 54  2  0
 54 55  1  0
 54 56  1  0
 56 57  1  0
 56 58  2  0
 58 59  1  0
 47  5  1  0
 58 49  1  0
 43  9  1  0
 38 25  2  0
M  CHG  3   2  -1  38   1  46  -1
M  END
>  <UniqueID>  (58) 
53

>  <SMILES>  (58) 
CS(=O)(=O)n1ccc(CN2CCC(CC#N)(n3cc(C([NH-])=O)/c(=N\c4ccc(F)cc4)[n-]3)CC2)[nH+]1

>  <Energy>  (58) 
145.96689610610673

>  <Genealogy>  (58) 
CS(=O)(=O)n1ccc(CN2CCC(CC#N)(n3cc(C([NH-])=O)c(=Nc4ccc(F)cc4)[n-]3)CC2)[nH+]1 (protonated)
CS(=O)(=O)n1ccc(CN2CCC(CC#N)(n3cc(C([NH-])=O)/c(=N\c4ccc(F)cc4)[n-]3)CC2)[nH+]1 (cis-trans isomerization)
CS(=O)(=O)n1ccc(CN2CCC(CC#N)(n3cc(C([NH-])=O)/c(=N\c4ccc(F)cc4)[n-]3)CC2)[nH+]1 (3D coordinates assigned)
CS(=O)(=O)n1ccc(CN2CCC(CC#N)(n3cc(C([NH-])=O)/c(=N\c4ccc(F)cc4)[n-]3)CC2)[nH+]1 (nonaromatic ring conformer: 145.96689610610673 kcal/mol)

>  <smiles>  (58) 
CS(=O)(=O)n1ccc(CN2CCC(CC#N)(n3cc(C(N)=O)c(=Nc4ccc(F)cc4)[nH]3)CC2)n1

>  <score_type>  (58) 
oracle

>  <origin>  (58) 
adg

>  <m_score__min__energy>  (58) 
-11.960000000000001

>  <m_primary>  (58) 
energy

$$$$
58:0
     RDKit          3D

 66 69  0  0  0  0  0  0  0  0999 V2000
   56.6830   33.4160   45.4740 O   0  0  0  0  0  0  0  0  0  0  0  0
   57.9050   33.7110   45.5380 C   0  0  0  0  0  0  0  0  0  0  0  0
   58.8510   33.2840   44.4540 C   0  0  0  0  0  0  0  0  0  0  0  0
   58.1410   32.5380   43.3150 C   0  0  0  0  0  0  0  0  0  0  0  0
   57.4670   31.2960   43.8370 C   0  0  0  0  0  0  0  0  0  0  0  0
   58.0080   30.6000   44.9310 C   0  0  0  0  0  0  0  0  0  0  0  0
   57.3600   29.4680   45.4350 C   0  0  0  0  0  0  0  0  0  0  0  0
   56.1640   29.0290   44.8590 C   0  0  0  0  0  0  0  0  0  0  0  0
   55.5200   27.9060   45.3610 O   0  0  0  0  0  0  0  0  0  0  0  0
   55.6130   29.7250   43.7770 C   0  0  0  0  0  0  0  0  0  0  0  0
   56.2570   30.8580   43.2700 C   0  0  0  0  0  0  0  0  0  0  0  0
   58.4300   34.4070   46.6770 N   0  0  0  0  0  0  0  0  0  0  0  0
   58.8340   33.8070   47.9510 C   0  0  2  0  0  0  0  0  0  0  0  0
   59.9780   34.5910   48.6260 C   0  0  0  0  0  0  0  0  0  0  0  0
   61.3290   34.0910   48.1810 C   0  0  0  0  0  0  0  0  0  0  0  0
   62.2140   33.5110   49.1060 C   0  0  0  0  0  0  0  0  0  0  0  0
   63.4570   33.0280   48.6860 C   0  0  0  0  0  0  0  0  0  0  0  0
   63.8240   33.1160   47.3410 C   0  0  0  0  0  0  0  0  0  0  0  0
   62.9480   33.6870   46.4140 C   0  0  0  0  0  0  0  0  0  0  0  0
   61.7030   34.1700   46.8290 C   0  0  0  0  0  0  0  0  0  0  0  0
   59.1810   32.3540   47.7630 C   0  0  0  0  0  0  0  0  0  0  0  0
   59.7690   31.9700   46.7150 O   0  0  0  0  0  0  0  0  0  0  0  0
   58.8560   31.4150   48.7950 N   0  0  0  0  0  0  0  0  0  0  0  0
   59.3510   30.0720   48.8890 C   0  0  0  0  0  0  0  0  0  0  0  0
   60.0490   29.6200   50.0230 C   0  0  0  0  0  0  0  0  0  0  0  0
   60.5510   28.3160   50.0660 C   0  0  0  0  0  0  0  0  0  0  0  0
   60.3670   27.4570   48.9800 C   0  0  0  0  0  0  0  0  0  0  0  0
   59.6840   27.9010   47.8380 C   0  0  0  0  0  0  0  0  0  0  0  0
   59.4560   26.8150   46.4640 S   0  0  0  0  0  0  0  0  0  0  0  0
   60.4460   25.6880   46.5590 O   0  0  0  0  0  0  0  0  0  0  0  0
   59.7290   27.5650   45.1880 O   0  0  0  0  0  0  0  0  0  0  0  0
   57.8380   26.1600   46.4140 N   0  0  0  0  0  0  0  0  0  0  0  0
   57.5940   25.4830   45.1340 C   0  0  0  0  0  0  0  0  0  0  0  0
   56.1460   24.9400   45.0980 C   0  0  0  0  0  0  0  0  0  0  0  0
   55.4960   25.0520   46.3520 O   0  0  0  0  0  0  0  0  0  0  0  0
   56.2930   24.4660   47.3620 C   0  0  0  0  0  0  0  0  0  0  0  0
   57.6250   25.2250   47.5320 C   0  0  0  0  0  0  0  0  0  0  0  0
   59.1880   29.2130   47.7950 C   0  0  0  0  0  0  0  0  0  0  0  0
   59.3395   34.1782   44.0396 H   0  0  0  0  0  0  0  0  0  0  0  0
   59.5823   32.5944   44.9008 H   0  0  0  0  0  0  0  0  0  0  0  0
   57.3848   33.1986   42.8658 H   0  0  0  0  0  0  0  0  0  0  0  0
   58.8871   32.2475   42.5607 H   0  0  0  0  0  0  0  0  0  0  0  0
   58.9444   30.9467   45.3926 H   0  0  0  0  0  0  0  0  0  0  0  0
   57.7921   28.9217   46.2864 H   0  0  0  0  0  0  0  0  0  0  0  0
   54.6715   29.3801   43.3245 H   0  0  0  0  0  0  0  0  0  0  0  0
   55.8160   31.4080   42.4256 H   0  0  0  0  0  0  0  0  0  0  0  0
   57.9761   33.8651   48.6370 H   0  0  0  0  0  0  0  0  0  0  0  0
   59.8862   35.6550   48.3624 H   0  0  0  0  0  0  0  0  0  0  0  0
   59.8987   34.4486   49.7139 H   0  0  0  0  0  0  0  0  0  0  0  0
   61.9274   33.4367   50.1654 H   0  0  0  0  0  0  0  0  0  0  0  0
   64.1467   32.5782   49.4154 H   0  0  0  0  0  0  0  0  0  0  0  0
   64.8023   32.7359   47.0117 H   0  0  0  0  0  0  0  0  0  0  0  0
   63.2385   33.7567   45.3553 H   0  0  0  0  0  0  0  0  0  0  0  0
   61.0143   34.6132   46.0946 H   0  0  0  0  0  0  0  0  0  0  0  0
   60.2004   30.2944   50.8787 H   0  0  0  0  0  0  0  0  0  0  0  0
   61.0922   27.9655   50.9572 H   0  0  0  0  0  0  0  0  0  0  0  0
   60.7586   26.4299   49.0204 H   0  0  0  0  0  0  0  0  0  0  0  0
   57.7371   26.1972   44.3097 H   0  0  0  0  0  0  0  0  0  0  0  0
   58.2993   24.6460   45.0248 H   0  0  0  0  0  0  0  0  0  0  0  0
   55.5735   25.5097   44.3512 H   0  0  0  0  0  0  0  0  0  0  0  0
   56.1946   23.8719   44.8395 H   0  0  0  0  0  0  0  0  0  0  0  0
   55.7418   24.4909   48.3136 H   0  0  0  0  0  0  0  0  0  0  0  0
   56.5175   23.4293   47.0709 H   0  0  0  0  0  0  0  0  0  0  0  0
   57.6008   25.7899   48.4755 H   0  0  0  0  0  0  0  0  0  0  0  0
   58.4484   24.4957   47.5448 H   0  0  0  0  0  0  0  0  0  0  0  0
   58.6668   29.5697   46.8944 H   0  0  0  0  0  0  0  0  0  0  0  0
  1  2  2  0
  2  3  1  0
  3  4  1  0
  4  5  1  0
  5  6  2  0
  6  7  1  0
  7  8  2  0
  8  9  1  0
  8 10  1  0
 10 11  2  0
  2 12  1  0
 12 13  1  0
 13 14  1  0
 14 15  1  0
 15 16  2  0
 16 17  1  0
 17 18  2  0
 18 19  1  0
 19 20  2  0
 13 21  1  0
 21 22  2  0
 21 23  1  0
 23 24  1  0
 24 25  2  0
 25 26  1  0
 26 27  2  0
 27 28  1  0
 28 29  1  0
 29 30  2  0
 29 31  2  0
 29 32  1  0
 32 33  1  0
 33 34  1  0
 34 35  1  0
 35 36  1  0
 36 37  1  0
 28 38  2  0
 11  5  1  0
 20 15  1  0
 38 24  1  0
 37 32  1  0
  3 39  1  0
  3 40  1  0
  4 41  1  0
  4 42  1  0
  6 43  1  0
  7 44  1  0
 10 45  1  0
 11 46  1  0
 13 47  1  1
 14 48  1  0
 14 49  1  0
 16 50  1  0
 17 51  1  0
 18 52  1  0
 19 53  1  0
 20 54  1  0
 25 55  1  0
 26 56  1  0
 27 57  1  0
 33 58  1  0
 33 59  1  0
 34 60  1  0
 34 61  1  0
 36 62  1  0
 36 63  1  0
 37 64  1  0
 37 65  1  0
 38 66  1  0
M  CHG  3   9  -1  12  -1  23  -1
M  END
>  <UniqueID>  (59) 
54

>  <SMILES>  (59) 
O=C(CCc1ccc([O-])cc1)[N-][C@H](Cc1ccccc1)C(=O)[N-]c1cccc(S(=O)(=O)N2CCOCC2)c1

>  <Energy>  (59) 
74.26501944373024

>  <Genealogy>  (59) 
O=C(CCc1ccc([O-])cc1)[N-]C(Cc1ccccc1)C(=O)[N-]c1cccc(S(=O)(=O)N2CCOCC2)c1 (protonated)
O=C(CCc1ccc([O-])cc1)[N-][C@H](Cc1ccccc1)C(=O)[N-]c1cccc(S(=O)(=O)N2CCOCC2)c1 (chirality)
O=C(CCc1ccc([O-])cc1)[N-][C@H](Cc1ccccc1)C(=O)[N-]c1cccc(S(=O)(=O)N2CCOCC2)c1 (3D coordinates assigned)
O=C(CCc1ccc([O-])cc1)[N-][C@H](Cc1ccccc1)C(=O)[N-]c1cccc(S(=O)(=O)N2CCOCC2)c1 (nonaromatic ring conformer: 74.26501944373024 kcal/mol)

>  <smiles>  (59) 
O=C(CCc1ccc(O)cc1)NC(Cc1ccccc1)C(=O)Nc1cccc(S(=O)(=O)N2CCOCC2)c1

>  <score_type>  (59) 
oracle

>  <origin>  (59) 
adg

>  <m_score__min__energy>  (59) 
-17.199999999999999

>  <m_primary>  (59) 
energy

$$$$
59:0
     RDKit          3D

 40 42  0  0  0  0  0  0  0  0999 V2000
   55.1470   27.4810   45.4230 H   0  0  0  0  0  0  0  0  0  0  0  0
   55.0100   26.6860   46.0340 O   0  0  0  0  0  0  0  0  0  0  0  0
   56.0520   25.8200   46.3600 C   0  0  0  0  0  0  0  0  0  0  0  0
   55.8720   24.6890   47.0630 N   0  0  0  0  0  0  0  0  0  0  0  0
   57.1190   24.1820   47.1400 C   0  0  0  0  0  0  0  0  0  0  0  0
   57.3780   23.1030   47.7310 O   0  0  0  0  0  0  0  0  0  0  0  0
   58.0670   24.9210   46.5260 N   0  0  0  0  0  0  0  0  0  0  0  0
   57.3850   25.9740   46.0390 C   0  0  0  0  0  0  0  0  0  0  0  0
   57.9660   27.0540   45.2110 C   0  0  0  0  0  0  0  0  0  0  0  0
   58.0128   26.8921   44.1240 H   0  0  0  0  0  0  0  0  0  0  0  0
   58.4430   28.2230   45.6890 C   0  0  0  0  0  0  0  0  0  0  0  0
   58.0140   29.5030   45.3530 C   0  0  0  0  0  0  0  0  0  0  0  0
   57.2007   29.7612   44.6588 H   0  0  0  0  0  0  0  0  0  0  0  0
   58.8060   30.3870   46.0590 C   0  0  0  0  0  0  0  0  0  0  0  0
   58.6820   31.8790   45.9950 C   0  0  0  0  0  0  0  0  0  0  0  0
   58.6480   32.2882   47.0155 H   0  0  0  0  0  0  0  0  0  0  0  0
   59.5486   32.2964   45.4613 H   0  0  0  0  0  0  0  0  0  0  0  0
   57.7584   32.1476   45.4613 H   0  0  0  0  0  0  0  0  0  0  0  0
   59.6930   29.7160   46.8250 N   0  0  0  0  0  0  0  0  0  0  0  0
   60.6780   30.3120   47.6870 C   0  0  0  0  0  0  0  0  0  0  0  0
   61.7470   31.0340   47.1500 C   0  0  0  0  0  0  0  0  0  0  0  0
   61.8470   31.1396   46.0597 H   0  0  0  0  0  0  0  0  0  0  0  0
   62.6620   31.6050   47.9740 N   0  0  0  0  0  0  0  0  0  0  0  0
   62.5580   31.4880   49.3270 C   0  0  0  0  0  0  0  0  0  0  0  0
   63.5010   32.0790   50.1720 O   0  0  0  0  0  0  0  0  0  0  0  0
   64.8400   32.3370   49.7690 C   0  0  0  0  0  0  0  0  0  0  0  0
   65.4739   32.4591   50.6596 H   0  0  0  0  0  0  0  0  0  0  0  0
   65.2109   31.4938   49.1678 H   0  0  0  0  0  0  0  0  0  0  0  0
   64.8710   33.2576   49.1678 H   0  0  0  0  0  0  0  0  0  0  0  0
   61.5260   30.7880   49.8660 N   0  0  0  0  0  0  0  0  0  0  0  0
   60.5850   30.1970   49.0790 C   0  0  0  0  0  0  0  0  0  0  0  0
   59.5360   29.4680   49.6480 O   0  0  0  0  0  0  0  0  0  0  0  0
   58.5100   30.0730   50.4270 C   0  0  0  0  0  0  0  0  0  0  0  0
   58.7346   29.9405   51.4956 H   0  0  0  0  0  0  0  0  0  0  0  0
   58.4574   31.1467   50.1937 H   0  0  0  0  0  0  0  0  0  0  0  0
   57.5450   29.5994   50.1937 H   0  0  0  0  0  0  0  0  0  0  0  0
   59.4910   28.3930   46.6040 C   0  0  0  0  0  0  0  0  0  0  0  0
   60.1890   27.4210   47.2120 C   0  0  0  0  0  0  0  0  0  0  0  0
   60.9943   27.6797   47.9153 H   0  0  0  0  0  0  0  0  0  0  0  0
   59.9557   26.3657   47.0070 H   0  0  0  0  0  0  0  0  0  0  0  0
  1  2  1  0
  2  3  1  0
  3  4  1  0
  4  5  1  0
  5  6  2  0
  5  7  1  0
  7  8  1  0
  8  9  1  0
  9 10  1  0
  9 11  2  0
 11 12  1  0
 12 13  1  0
 12 14  2  0
 14 15  1  0
 15 16  1  0
 15 17  1  0
 15 18  1  0
 14 19  1  0
 19 20  1  0
 20 21  2  0
 21 22  1  0
 21 23  1  0
 23 24  2  0
 24 25  1  0
 25 26  1  0
 26 27  1  0
 26 28  1  0
 26 29  1  0
 24 30  1  0
 30 31  2  0
 31 32  1  0
 32 33  1  0
 33 34  1  0
 33 35  1  0
 33 36  1  0
 19 37  1  0
 37 38  2  0
 38 39  1  0
 38 40  1  0
  8  3  2  0
 37 11  1  0
 31 20  1  0
M  CHG  2   4  -1   7  -1
M  END
>  <UniqueID>  (60) 
55

>  <SMILES>  (60) 
C=c1/c(=C/c2[n-]c(=O)[n-]c2O)cc(C)n1-c1cnc(OC)nc1OC

>  <Energy>  (60) 
107.09398697458667

>  <Genealogy>  (60) 
C=c1c(=Cc2[n-]c(=O)[n-]c2O)cc(C)n1-c1cnc(OC)nc1OC (protonated)
C=c1/c(=C/c2[n-]c(=O)[n-]c2O)cc(C)n1-c1cnc(OC)nc1OC (cis-trans isomerization)
C=c1/c(=C/c2[n-]c(=O)[n-]c2O)cc(C)n1-c1cnc(OC)nc1OC (3D coordinates assigned)
C=c1/c(=C/c2[n-]c(=O)[n-]c2O)cc(C)n1-c1cnc(OC)nc1OC (optimized conformer: 107.09398697458667 kcal/mol)

>  <smiles>  (60) 
C=c1c(=Cc2[nH]c(=O)[nH]c2O)cc(C)n1-c1cnc(OC)nc1OC

>  <score_type>  (60) 
oracle

>  <origin>  (60) 
adg

>  <m_score__min__energy>  (60) 
-11.289999999999999

>  <m_primary>  (60) 
energy

$$$$
60:0
     RDKit          3D

 63 66  0  0  0  0  0  0  0  0999 V2000
   55.8940   28.9680   44.6430 C   0  0  0  0  0  0  0  0  0  0  0  0
   57.2900   28.4210   44.8360 C   0  0  0  0  0  0  0  0  0  0  0  0
   58.4220   29.1940   44.4660 C   0  0  0  0  0  0  0  0  0  0  0  0
   58.2880   30.4640   43.8090 N   0  0  0  0  0  0  0  0  0  0  0  0
   57.6400   31.5850   44.4320 C   0  0  0  0  0  0  0  0  0  0  0  0
   57.0370   31.4370   45.5290 O   0  0  0  0  0  0  0  0  0  0  0  0
   57.6520   32.8790   43.8210 N   0  0  0  0  0  0  0  0  0  0  0  0
   57.6980   34.1300   44.5650 C   0  0  0  0  0  0  0  0  0  0  0  0
   58.6780   34.0020   45.6830 C   0  0  0  0  0  0  0  0  0  0  0  0
   60.0110   34.3940   45.6430 C   0  0  0  0  0  0  0  0  0  0  0  0
   60.6680   34.2400   46.8680 C   0  0  0  0  0  0  0  0  0  0  0  0
   59.8450   33.7330   47.8650 C   0  0  0  0  0  0  0  0  0  0  0  0
   60.3180   33.4300   49.5300 S   0  0  0  0  0  0  0  0  0  0  0  0
   59.2670   33.9920   50.4440 O   0  0  0  0  0  0  0  0  0  0  0  0
   61.6110   34.1430   49.8070 O   0  0  0  0  0  0  0  0  0  0  0  0
   60.5090   31.7200   49.8540 N   0  0  0  0  0  0  0  0  0  0  0  0
   61.4700   31.1090   48.9260 C   0  0  0  0  0  0  0  0  0  0  0  0
   60.6980   30.3360   47.8630 C   0  0  0  0  0  0  0  0  0  0  0  0
   59.2430   30.3900   48.2800 C   0  0  0  0  0  0  0  0  0  0  0  0
   59.2430   31.0050   49.6690 C   0  0  0  0  0  0  0  0  0  0  0  0
   58.3030   33.4930   47.2420 S   0  0  0  0  0  0  0  0  0  0  0  0
   59.7090   28.7340   44.7690 C   0  0  0  0  0  0  0  0  0  0  0  0
   59.8930   27.4930   45.3750 C   0  0  0  0  0  0  0  0  0  0  0  0
   58.7940   26.6960   45.6840 C   0  0  0  0  0  0  0  0  0  0  0  0
   57.4890   27.1420   45.4190 C   0  0  0  0  0  0  0  0  0  0  0  0
   56.3590   26.2380   45.7380 C   0  0  0  0  0  0  0  0  0  0  0  0
   55.3640   26.6990   46.3600 O   0  0  0  0  0  0  0  0  0  0  0  0
   56.3580   24.8590   45.3160 N   0  0  0  0  0  0  0  0  0  0  0  0
   55.0760   24.2120   45.0000 C   0  0  0  0  0  0  0  0  0  0  0  0
   55.2420   22.7060   44.7410 C   0  0  0  0  0  0  0  0  0  0  0  0
   56.3990   22.3990   43.7640 C   0  0  0  0  0  0  0  0  0  0  0  0
   55.9660   22.5100   42.4300 O   0  0  0  0  0  0  0  0  0  0  0  0
   57.6700   23.2580   44.0020 C   0  0  0  0  0  0  0  0  0  0  0  0
   57.5980   24.0700   45.2970 C   0  0  0  0  0  0  0  0  0  0  0  0
   55.4321   29.1490   45.6248 H   0  0  0  0  0  0  0  0  0  0  0  0
   55.9447   29.9128   44.0819 H   0  0  0  0  0  0  0  0  0  0  0  0
   55.2894   28.2403   44.0819 H   0  0  0  0  0  0  0  0  0  0  0  0
   58.4950   30.5050   42.7880 H   0  0  0  0  0  0  0  0  0  0  0  0
   58.0091   34.9450   43.8949 H   0  0  0  0  0  0  0  0  0  0  0  0
   56.7010   34.3539   44.9722 H   0  0  0  0  0  0  0  0  0  0  0  0
   60.4999   34.7859   44.7389 H   0  0  0  0  0  0  0  0  0  0  0  0
   61.7266   34.4941   47.0254 H   0  0  0  0  0  0  0  0  0  0  0  0
   62.0734   31.8945   48.4475 H   0  0  0  0  0  0  0  0  0  0  0  0
   62.1389   30.4283   49.4731 H   0  0  0  0  0  0  0  0  0  0  0  0
   60.8306   30.8059   46.8773 H   0  0  0  0  0  0  0  0  0  0  0  0
   61.0549   29.2987   47.7811 H   0  0  0  0  0  0  0  0  0  0  0  0
   58.6659   31.0149   47.5826 H   0  0  0  0  0  0  0  0  0  0  0  0
   58.7790   29.3926   48.2746 H   0  0  0  0  0  0  0  0  0  0  0  0
   58.4016   31.7069   49.7653 H   0  0  0  0  0  0  0  0  0  0  0  0
   59.1354   30.2198   50.4319 H   0  0  0  0  0  0  0  0  0  0  0  0
   60.5822   29.3575   44.5266 H   0  0  0  0  0  0  0  0  0  0  0  0
   60.9088   27.1421   45.6098 H   0  0  0  0  0  0  0  0  0  0  0  0
   58.9494   25.7072   46.1402 H   0  0  0  0  0  0  0  0  0  0  0  0
   54.3881   24.3535   45.8467 H   0  0  0  0  0  0  0  0  0  0  0  0
   54.6781   24.6734   44.0841 H   0  0  0  0  0  0  0  0  0  0  0  0
   55.4455   22.2035   45.6981 H   0  0  0  0  0  0  0  0  0  0  0  0
   54.3111   22.3404   44.2830 H   0  0  0  0  0  0  0  0  0  0  0  0
   56.6965   21.3597   43.9673 H   0  0  0  0  0  0  0  0  0  0  0  0
   56.6550   23.0260   41.9340 H   0  0  0  0  0  0  0  0  0  0  0  0
   58.5422   22.5897   44.0533 H   0  0  0  0  0  0  0  0  0  0  0  0
   57.7522   23.9694   43.1671 H   0  0  0  0  0  0  0  0  0  0  0  0
   57.6103   23.3865   46.1588 H   0  0  0  0  0  0  0  0  0  0  0  0
   58.4629   24.7474   45.3519 H   0  0  0  0  0  0  0  0  0  0  0  0
  1  2  1  0
  2  3  2  0
  3  4  1  0
  4  5  1  0
  5  6  2  0
  5  7  1  0
  7  8  1  0
  8  9  1  0
  9 10  2  0
 10 11  1  0
 11 12  2  0
 12 13  1  0
 13 14  2  0
 13 15  2  0
 13 16  1  0
 16 17  1  0
 17 18  1  0
 18 19  1  0
 19 20  1  0
 12 21  1  0
  3 22  1  0
 22 23  2  0
 23 24  1  0
 24 25  2  0
 25 26  1  0
 26 27  2  0
 26 28  1  0
 28 29  1  0
 29 30  1  0
 30 31  1  0
 31 32  1  0
 31 33  1  0
 33 34  1  0
 25  2  1  0
 34 28  1  0
 21  9  1  0
 20 16  1  0
  1 35  1  0
  1 36  1  0
  1 37  1  0
  4 38  1  0
  8 39  1  0
  8 40  1  0
 10 41  1  0
 11 42  1  0
 17 43  1  0
 17 44  1  0
 18 45  1  0
 18 46  1  0
 19 47  1  0
 19 48  1  0
 20 49  1  0
 20 50  1  0
 22 51  1  0
 23 52  1  0
 24 53  1  0
 29 54  1  0
 29 55  1  0
 30 56  1  0
 30 57  1  0
 31 58  1  0
 32 59  1  0
 33 60  1  0
 33 61  1  0
 34 62  1  0
 34 63  1  0
M  CHG  1   7  -1
M  END
>  <UniqueID>  (61) 
56

>  <SMILES>  (61) 
Cc1c(NC(=O)[N-]Cc2ccc(S(=O)(=O)N3CCCC3)s2)cccc1C(=O)N1CCC(O)CC1

>  <Energy>  (61) 
103.90205431438555

>  <Genealogy>  (61) 
Cc1c(NC(=O)[N-]Cc2ccc(S(=O)(=O)N3CCCC3)s2)cccc1C(=O)N1CCC(O)CC1 (protonated)
Cc1c(NC(=O)[N-]Cc2ccc(S(=O)(=O)N3CCCC3)s2)cccc1C(=O)N1CCC(O)CC1 (3D coordinates assigned)
Cc1c(NC(=O)[N-]Cc2ccc(S(=O)(=O)N3CCCC3)s2)cccc1C(=O)N1CCC(O)CC1 (nonaromatic ring conformer: 103.90205431438555 kcal/mol)

>  <smiles>  (61) 
Cc1c(NC(=O)NCc2ccc(S(=O)(=O)N3CCCC3)s2)cccc1C(=O)N1CCC(O)CC1

>  <score_type>  (61) 
oracle

>  <origin>  (61) 
adg

>  <m_score__min__energy>  (61) 
-12.02

>  <m_primary>  (61) 
energy

$$$$
61:0
     RDKit          3D

 51 54  0  0  0  0  0  0  0  0999 V2000
   57.6600   34.5160   44.5330 O   0  0  0  0  0  0  0  0  0  0  0  0
   57.7260   33.4890   45.2640 C   0  0  0  0  0  0  0  0  0  0  0  0
   56.7470   32.4490   45.1300 N   0  0  0  0  0  0  0  0  0  0  0  0
   56.9990   31.0850   44.7600 C   0  0  0  0  0  0  0  0  0  0  0  0
   56.7620   30.6960   43.4370 C   0  0  0  0  0  0  0  0  0  0  0  0
   56.9640   29.3720   43.0440 C   0  0  0  0  0  0  0  0  0  0  0  0
   57.3900   28.4200   43.9720 C   0  0  0  0  0  0  0  0  0  0  0  0
   57.6120   28.7830   45.3140 C   0  0  0  0  0  0  0  0  0  0  0  0
   58.0370   27.7680   46.3050 C   0  0  0  0  0  0  0  0  0  0  0  0
   59.2370   27.7290   46.6930 O   0  0  0  0  0  0  0  0  0  0  0  0
   57.0780   26.8590   46.8640 N   0  0  0  0  0  0  0  0  0  0  0  0
   56.6970   25.6010   46.2910 C   0  0  0  0  0  0  0  0  0  0  0  0
   57.6510   24.5780   46.2320 C   0  0  0  0  0  0  0  0  0  0  0  0
   57.3200   23.3340   45.6940 C   0  0  0  0  0  0  0  0  0  0  0  0
   56.0290   23.0940   45.2230 C   0  0  0  0  0  0  0  0  0  0  0  0
   55.0520   24.0990   45.2920 C   0  0  0  0  0  0  0  0  0  0  0  0
   53.6750   23.8140   44.8400 C   0  0  0  0  0  0  0  0  0  0  0  0
   53.3830   23.9920   43.6260 O   0  0  0  0  0  0  0  0  0  0  0  0
   52.6670   23.3350   45.7500 N   0  0  0  0  0  0  0  0  0  0  0  0
   52.9610   22.6890   47.0200 C   0  0  0  0  0  0  0  0  0  0  0  0
   51.6100   22.2980   47.6050 C   0  0  0  0  0  0  0  0  0  0  0  0
   50.6140   22.3720   46.4520 C   0  0  0  0  0  0  0  0  0  0  0  0
   51.2620   23.2500   45.3900 C   0  0  0  0  0  0  0  0  0  0  0  0
   55.3800   25.3490   45.8510 C   0  0  0  0  0  0  0  0  0  0  0  0
   54.3970   26.3250   45.9900 O   0  0  0  0  0  0  0  0  0  0  0  0
   57.4060   30.1220   45.7010 C   0  0  0  0  0  0  0  0  0  0  0  0
   58.7830   33.3840   46.2960 C   0  0  0  0  0  0  0  0  0  0  0  0
   59.6490   32.2770   46.3260 C   0  0  0  0  0  0  0  0  0  0  0  0
   60.6440   32.2020   47.3040 C   0  0  0  0  0  0  0  0  0  0  0  0
   60.7740   33.1930   48.2250 N   0  0  0  0  0  0  0  0  0  0  0  0
   59.9520   34.2760   48.2230 C   0  0  0  0  0  0  0  0  0  0  0  0
   58.9440   34.3930   47.2620 C   0  0  0  0  0  0  0  0  0  0  0  0
   56.4146   31.4376   42.7026 H   0  0  0  0  0  0  0  0  0  0  0  0
   56.7869   29.0776   41.9990 H   0  0  0  0  0  0  0  0  0  0  0  0
   57.5532   27.3801   43.6528 H   0  0  0  0  0  0  0  0  0  0  0  0
   58.6677   24.7561   46.6121 H   0  0  0  0  0  0  0  0  0  0  0  0
   58.0794   22.5399   45.6411 H   0  0  0  0  0  0  0  0  0  0  0  0
   55.7757   22.1126   44.7956 H   0  0  0  0  0  0  0  0  0  0  0  0
   53.5833   21.7960   46.8612 H   0  0  0  0  0  0  0  0  0  0  0  0
   53.5188   23.3547   47.6950 H   0  0  0  0  0  0  0  0  0  0  0  0
   51.6504   21.2760   48.0099 H   0  0  0  0  0  0  0  0  0  0  0  0
   51.3205   22.9651   48.4303 H   0  0  0  0  0  0  0  0  0  0  0  0
   50.4201   21.3667   46.0499 H   0  0  0  0  0  0  0  0  0  0  0  0
   49.6488   22.7848   46.7806 H   0  0  0  0  0  0  0  0  0  0  0  0
   51.1484   22.7948   44.3951 H   0  0  0  0  0  0  0  0  0  0  0  0
   50.7943   24.2447   45.3465 H   0  0  0  0  0  0  0  0  0  0  0  0
   57.5649   30.4170   46.7487 H   0  0  0  0  0  0  0  0  0  0  0  0
   59.5437   31.4731   45.5825 H   0  0  0  0  0  0  0  0  0  0  0  0
   61.3244   31.3380   47.3287 H   0  0  0  0  0  0  0  0  0  0  0  0
   60.0808   35.0631   48.9806 H   0  0  0  0  0  0  0  0  0  0  0  0
   58.2800   35.2700   47.2613 H   0  0  0  0  0  0  0  0  0  0  0  0
  1  2  2  0
  2  3  1  0
  3  4  1  0
  4  5  2  0
  5  6  1  0
  6  7  2  0
  7  8  1  0
  8  9  1  0
  9 10  2  0
  9 11  1  0
 11 12  1  0
 12 13  2  0
 13 14  1  0
 14 15  2  0
 15 16  1  0
 16 17  1  0
 17 18  2  0
 17 19  1  0
 19 20  1  0
 20 21  1  0
 21 22  1  0
 22 23  1  0
 16 24  2  0
 24 25  1  0
  8 26  2  0
  2 27  1  0
 27 28  2  0
 28 29  1  0
 29 30  2  0
 30 31  1  0
 31 32  2  0
 26  4  1  0
 32 27  1  0
 24 12  1  0
 23 19  1  0
  5 33  1  0
  6 34  1  0
  7 35  1  0
 13 36  1  0
 14 37  1  0
 15 38  1  0
 20 39  1  0
 20 40  1  0
 21 41  1  0
 21 42  1  0
 22 43  1  0
 22 44  1  0
 23 45  1  0
 23 46  1  0
 26 47  1  0
 28 48  1  0
 29 49  1  0
 31 50  1  0
 32 51  1  0
M  CHG  3   3  -1  11  -1  25  -1
M  END
>  <UniqueID>  (62) 
57

>  <SMILES>  (62) 
O=C([N-]c1cccc(C(=O)[N-]c2cccc(C(=O)N3CCCC3)c2[O-])c1)c1ccncc1

>  <Energy>  (62) 
71.91666484953265

>  <Genealogy>  (62) 
O=C([N-]c1cccc(C(=O)[N-]c2cccc(C(=O)N3CCCC3)c2[O-])c1)c1ccncc1 (protonated)
O=C([N-]c1cccc(C(=O)[N-]c2cccc(C(=O)N3CCCC3)c2[O-])c1)c1ccncc1 (3D coordinates assigned)
O=C([N-]c1cccc(C(=O)[N-]c2cccc(C(=O)N3CCCC3)c2[O-])c1)c1ccncc1 (nonaromatic ring conformer: 71.91666484953265 kcal/mol)

>  <smiles>  (62) 
O=C(Nc1cccc(C(=O)Nc2cccc(C(=O)N3CCCC3)c2O)c1)c1ccncc1

>  <score_type>  (62) 
oracle

>  <origin>  (62) 
adg

>  <m_score__min__energy>  (62) 
-17.07

>  <m_primary>  (62) 
energy

$$$$
62:0
     RDKit          3D

 52 55  0  0  0  0  0  0  0  0999 V2000
   58.1710   29.1690   43.7710 O   0  0  0  0  0  0  0  0  0  0  0  0
   58.5090   29.1720   44.9860 C   0  0  0  0  0  0  0  0  0  0  0  0
   58.4590   27.9560   45.7500 N   0  0  0  0  0  0  0  0  0  0  0  0
   57.7700   26.7670   45.3260 C   0  0  0  0  0  0  0  0  0  0  0  0
   56.7330   26.2530   46.1170 C   0  0  0  0  0  0  0  0  0  0  0  0
   56.0370   25.1080   45.7180 C   0  0  0  0  0  0  0  0  0  0  0  0
   56.3640   24.4660   44.5160 C   0  0  0  0  0  0  0  0  0  0  0  0
   55.5030   23.0080   44.0210 S   0  0  0  0  0  0  0  0  0  0  0  0
   55.0390   23.1800   42.6010 O   0  0  0  0  0  0  0  0  0  0  0  0
   54.2830   22.8390   44.8830 O   0  0  0  0  0  0  0  0  0  0  0  0
   56.4960   21.5690   44.1300 N   0  0  0  0  0  0  0  0  0  0  0  0
   57.9390   21.8560   43.9810 C   0  0  0  0  0  0  0  0  0  0  0  0
   58.6910   21.8560   45.3220 C   0  0  0  0  0  0  0  0  0  0  0  0
   57.8360   22.2600   46.3660 O   0  0  0  0  0  0  0  0  0  0  0  0
   56.8680   21.2570   46.6050 C   0  0  0  0  0  0  0  0  0  0  0  0
   56.1780   20.7510   45.3160 C   0  0  0  0  0  0  0  0  0  0  0  0
   57.3770   24.9960   43.7050 C   0  0  0  0  0  0  0  0  0  0  0  0
   58.0740   26.1400   44.1040 C   0  0  0  0  0  0  0  0  0  0  0  0
   58.9940   30.4150   45.6110 C   0  0  0  0  0  0  0  0  0  0  0  0
   60.1130   30.4970   46.3540 N   0  0  0  0  0  0  0  0  0  0  0  0
   60.2200   31.7640   46.7330 N   0  0  0  0  0  0  0  0  0  0  0  0
   61.2770   32.2510   47.5820 C   0  0  0  0  0  0  0  0  0  0  0  0
   62.6110   32.1520   47.1410 C   0  0  0  0  0  0  0  0  0  0  0  0
   63.6630   32.5960   47.9430 C   0  0  0  0  0  0  0  0  0  0  0  0
   63.4020   33.1540   49.1940 C   0  0  0  0  0  0  0  0  0  0  0  0
   62.0860   33.2730   49.6440 C   0  0  0  0  0  0  0  0  0  0  0  0
   61.0200   32.8320   48.8490 C   0  0  0  0  0  0  0  0  0  0  0  0
   59.3900   33.0950   49.4630 Cl  0  0  0  0  0  0  0  0  0  0  0  0
   59.2170   32.5040   46.2820 N   0  0  0  0  0  0  0  0  0  0  0  0
   58.4280   31.6790   45.5720 C   0  0  0  0  0  0  0  0  0  0  0  0
   57.1890   32.1210   44.8540 C   0  0  0  0  0  0  0  0  0  0  0  0
   56.2650   31.0700   44.7900 O   0  0  0  0  0  0  0  0  0  0  0  0
   59.0260   27.9020   46.6270 H   0  0  0  0  0  0  0  0  0  0  0  0
   56.4649   26.7543   47.0587 H   0  0  0  0  0  0  0  0  0  0  0  0
   55.2296   24.7095   46.3500 H   0  0  0  0  0  0  0  0  0  0  0  0
   58.3838   21.0896   43.3293 H   0  0  0  0  0  0  0  0  0  0  0  0
   58.0322   22.8640   43.5505 H   0  0  0  0  0  0  0  0  0  0  0  0
   59.0615   20.8413   45.5295 H   0  0  0  0  0  0  0  0  0  0  0  0
   59.5330   22.5610   45.2582 H   0  0  0  0  0  0  0  0  0  0  0  0
   57.3623   20.4045   47.0938 H   0  0  0  0  0  0  0  0  0  0  0  0
   56.0870   21.7031   47.2383 H   0  0  0  0  0  0  0  0  0  0  0  0
   56.5046   19.7178   45.1265 H   0  0  0  0  0  0  0  0  0  0  0  0
   55.0920   20.8164   45.4780 H   0  0  0  0  0  0  0  0  0  0  0  0
   57.6246   24.5093   42.7501 H   0  0  0  0  0  0  0  0  0  0  0  0
   58.8642   26.5521   43.4592 H   0  0  0  0  0  0  0  0  0  0  0  0
   62.8260   31.7196   46.1527 H   0  0  0  0  0  0  0  0  0  0  0  0
   64.7001   32.5057   47.5877 H   0  0  0  0  0  0  0  0  0  0  0  0
   64.2330   33.5003   49.8261 H   0  0  0  0  0  0  0  0  0  0  0  0
   61.8844   33.7164   50.6303 H   0  0  0  0  0  0  0  0  0  0  0  0
   56.7392   32.9677   45.3933 H   0  0  0  0  0  0  0  0  0  0  0  0
   57.4566   32.4259   43.8315 H   0  0  0  0  0  0  0  0  0  0  0  0
   56.5510   30.4870   44.0380 H   0  0  0  0  0  0  0  0  0  0  0  0
  1  2  2  0
  2  3  1  0
  3  4  1  0
  4  5  2  0
  5  6  1  0
  6  7  2  0
  7  8  1  0
  8  9  2  0
  8 10  2  0
  8 11  1  0
 11 12  1  0
 12 13  1  0
 13 14  1  0
 14 15  1  0
 15 16  1  0
  7 17  1  0
 17 18  2  0
  2 19  1  0
 19 20  2  0
 20 21  1  0
 21 22  1  0
 22 23  2  0
 23 24  1  0
 24 25  2  0
 25 26  1  0
 26 27  2  0
 27 28  1  0
 21 29  1  0
 29 30  2  0
 30 31  1  0
 31 32  1  0
 18  4  1  0
 30 19  1  0
 16 11  1  0
 27 22  1  0
  3 33  1  0
  5 34  1  0
  6 35  1  0
 12 36  1  0
 12 37  1  0
 13 38  1  0
 13 39  1  0
 15 40  1  0
 15 41  1  0
 16 42  1  0
 16 43  1  0
 17 44  1  0
 18 45  1  0
 23 46  1  0
 24 47  1  0
 25 48  1  0
 26 49  1  0
 31 50  1  0
 31 51  1  0
 32 52  1  0
M  END
>  <UniqueID>  (63) 
58

>  <SMILES>  (63) 
O=C(Nc1ccc(S(=O)(=O)N2CCOCC2)cc1)c1nn(-c2ccccc2Cl)nc1CO

>  <Energy>  (63) 
107.24127788761052

>  <Genealogy>  (63) 
O=C(Nc1ccc(S(=O)(=O)N2CCOCC2)cc1)c1nn(-c2ccccc2Cl)nc1CO (3D coordinates assigned)
O=C(Nc1ccc(S(=O)(=O)N2CCOCC2)cc1)c1nn(-c2ccccc2Cl)nc1CO (nonaromatic ring conformer: 107.24127788761052 kcal/mol)

>  <smiles>  (63) 
O=C(Nc1ccc(S(=O)(=O)N2CCOCC2)cc1)c1nn(-c2ccccc2Cl)nc1CO

>  <score_type>  (63) 
oracle

>  <origin>  (63) 
adg

>  <m_score__min__energy>  (63) 
-9.1400000000000006

>  <m_primary>  (63) 
energy

$$$$
63:0
     RDKit          3D

 49 52  0  0  0  0  0  0  0  0999 V2000
   56.9200   23.0750   45.7020 H   0  0  0  0  0  0  0  0  0  0  0  0
   57.8990   23.4220   45.6060 N   0  0  0  0  0  0  0  0  0  0  0  0
   58.3170   24.5890   45.9880 C   0  0  0  0  0  0  0  0  0  0  0  0
   59.6590   24.7890   46.0790 N   0  0  0  0  0  0  0  0  0  0  0  0
   60.2010   25.9890   46.4060 C   0  0  0  0  0  0  0  0  0  0  0  0
   61.2935   26.0943   46.4792 H   0  0  0  0  0  0  0  0  0  0  0  0
   59.3760   27.0950   46.6510 C   0  0  0  0  0  0  0  0  0  0  0  0
   59.9580   28.4170   46.9960 C   0  0  0  0  0  0  0  0  0  0  0  0
   59.8780   28.9140   48.3090 C   0  0  0  0  0  0  0  0  0  0  0  0
   59.3854   28.3155   49.0895 H   0  0  0  0  0  0  0  0  0  0  0  0
   60.4190   30.1620   48.6310 C   0  0  0  0  0  0  0  0  0  0  0  0
   60.3545   30.5365   49.6633 H   0  0  0  0  0  0  0  0  0  0  0  0
   61.0460   30.9420   47.6410 C   0  0  0  0  0  0  0  0  0  0  0  0
   61.5960   32.2080   47.9020 O   0  0  0  0  0  0  0  0  0  0  0  0
   60.8650   33.4230   48.0860 C   0  0  0  0  0  0  0  0  0  0  0  0
   60.4368   33.4316   49.0992 H   0  0  0  0  0  0  0  0  0  0  0  0
   61.5580   34.2654   47.9441 H   0  0  0  0  0  0  0  0  0  0  0  0
   59.7190   33.5620   47.0560 C   0  0  2  0  0  0  0  0  0  0  0  0
   58.7980   34.7160   47.4940 C   0  0  0  0  0  0  0  0  0  0  0  0
   58.7627   34.7602   48.5925 H   0  0  0  0  0  0  0  0  0  0  0  0
   59.1887   35.6663   47.1011 H   0  0  0  0  0  0  0  0  0  0  0  0
   57.7847   34.5458   47.1011 H   0  0  0  0  0  0  0  0  0  0  0  0
   58.9510   32.3500   47.0480 O   0  0  0  0  0  0  0  0  0  0  0  0
   58.2680   31.9420   45.9040 C   0  0  0  0  0  0  0  0  0  0  0  0
   57.4200   30.8950   45.8540 N   0  0  0  0  0  0  0  0  0  0  0  0
   57.0200   30.9010   44.5630 C   0  0  0  0  0  0  0  0  0  0  0  0
   56.0920   29.9610   44.0160 N   0  0  0  0  0  0  0  0  0  0  0  0
   55.3160   29.3370   44.7660 O   0  0  0  0  0  0  0  0  0  0  0  0
   56.0510   29.7340   42.6590 O   0  0  0  0  0  0  0  0  0  0  0  0
   57.6210   31.9320   43.8640 C   0  0  0  0  0  0  0  0  0  0  0  0
   57.4724   32.1798   42.8026 H   0  0  0  0  0  0  0  0  0  0  0  0
   58.4200   32.5710   44.7310 N   0  0  0  0  0  0  0  0  0  0  0  0
   59.2480   33.7540   44.5230 C   0  0  0  0  0  0  0  0  0  0  0  0
   58.6136   34.6523   44.5452 H   0  0  0  0  0  0  0  0  0  0  0  0
   59.7501   33.6790   43.5472 H   0  0  0  0  0  0  0  0  0  0  0  0
   60.3110   33.8500   45.6370 C   0  0  0  0  0  0  0  0  0  0  0  0
   60.7371   34.8641   45.6317 H   0  0  0  0  0  0  0  0  0  0  0  0
   61.0780   33.0881   45.4338 H   0  0  0  0  0  0  0  0  0  0  0  0
   61.1390   30.4410   46.3390 C   0  0  0  0  0  0  0  0  0  0  0  0
   61.6422   31.0349   45.5618 H   0  0  0  0  0  0  0  0  0  0  0  0
   60.5990   29.1930   46.0150 C   0  0  0  0  0  0  0  0  0  0  0  0
   60.6763   28.8155   44.9847 H   0  0  0  0  0  0  0  0  0  0  0  0
   57.9870   26.9190   46.5720 C   0  0  0  0  0  0  0  0  0  0  0  0
   57.3212   27.7750   46.7563 H   0  0  0  0  0  0  0  0  0  0  0  0
   57.4330   25.6660   46.2610 C   0  0  0  0  0  0  0  0  0  0  0  0
   55.9570   25.5290   46.2700 C   0  0  0  0  0  0  0  0  0  0  0  0
   55.4160   24.4300   46.5630 O   0  0  0  0  0  0  0  0  0  0  0  0
   55.1350   26.6630   46.0030 N   0  0  0  0  0  0  0  0  0  0  0  0
   55.1510   27.1310   45.0710 H   0  0  0  0  0  0  0  0  0  0  0  0
  1  2  1  0
  2  3  2  0
  3  4  1  0
  4  5  1  0
  5  6  1  0
  5  7  2  0
  7  8  1  0
  8  9  2  0
  9 10  1  0
  9 11  1  0
 11 12  1  0
 11 13  2  0
 13 14  1  0
 14 15  1  0
 15 16  1  0
 15 17  1  0
 18 15  1  1
 18 19  1  0
 19 20  1  0
 19 21  1  0
 19 22  1  0
 18 23  1  0
 23 24  1  0
 24 25  2  0
 25 26  1  0
 26 27  1  0
 27 28  2  0
 27 29  1  0
 26 30  2  0
 30 31  1  0
 30 32  1  0
 32 33  1  0
 33 34  1  0
 33 35  1  0
 33 36  1  0
 36 37  1  0
 36 38  1  0
 13 39  1  0
 39 40  1  0
 39 41  2  0
 41 42  1  0
  7 43  1  0
 43 44  1  0
 43 45  2  0
 45 46  1  0
 46 47  2  0
 46 48  1  0
 48 49  1  0
 45  3  1  0
 41  8  1  0
 36 18  1  0
 32 24  1  0
M  CHG  4   4  -1  27   1  29  -1  48  -1
M  END
>  <UniqueID>  (64) 
59

>  <SMILES>  (64) 
[H]/N=c1/[n-]cc(-c2ccc(OC[C@@]3(C)CCn4cc([N+](=O)[O-])nc4O3)cc2)cc1C([NH-])=O

>  <Energy>  (64) 
94.87609996876145

>  <Genealogy>  (64) 
CC1(COc2ccc(-c3c[n-]c(=N)c(C([NH-])=O)c3)cc2)CCn2cc([N+](=O)[O-])nc2O1 (protonated)
C[C@]1(COc2ccc(-c3c[n-]c(=N)c(C([NH-])=O)c3)cc2)CCn2cc([N+](=O)[O-])nc2O1 (chirality)
[H]/N=c1/[n-]cc(-c2ccc(OC[C@@]3(C)CCn4cc([N+](=O)[O-])nc4O3)cc2)cc1C([NH-])=O (cis-trans isomerization)
[H]/N=c1/[n-]cc(-c2ccc(OC[C@@]3(C)CCn4cc([N+](=O)[O-])nc4O3)cc2)cc1C([NH-])=O (3D coordinates assigned)
[H]/N=c1/[n-]cc(-c2ccc(OC[C@@]3(C)CCn4cc([N+](=O)[O-])nc4O3)cc2)cc1C([NH-])=O (nonaromatic ring conformer: 94.87609996876145 kcal/mol)

>  <smiles>  (64) 
CC1(COc2ccc(-c3c[nH]c(=N)c(C(N)=O)c3)cc2)CCn2cc([N+](=O)[O-])nc2O1

>  <score_type>  (64) 
oracle

>  <origin>  (64) 
adg

>  <m_score__min__energy>  (64) 
-13.74

>  <m_primary>  (64) 
energy

$$$$
64:0
     RDKit          3D

 56 58  0  0  0  0  0  0  0  0999 V2000
   60.9100   26.8370   50.7130 C   0  0  0  0  0  0  0  0  0  0  0  0
   60.4290   26.7340   49.3760 O   0  0  0  0  0  0  0  0  0  0  0  0
   60.1160   27.8310   48.5610 C   0  0  0  0  0  0  0  0  0  0  0  0
   60.3740   27.7360   47.1920 C   0  0  0  0  0  0  0  0  0  0  0  0
   60.1030   28.8080   46.3390 C   0  0  0  0  0  0  0  0  0  0  0  0
   59.5890   30.0210   46.8460 C   0  0  0  0  0  0  0  0  0  0  0  0
   59.2720   31.2200   45.9530 C   0  0  1  0  0  0  0  0  0  0  0  0
   58.3140   30.8740   44.7710 C   0  0  0  0  0  0  0  0  0  0  0  0
   56.9580   30.5680   45.2170 N   0  0  0  0  0  0  0  0  0  0  0  0
   56.2590   29.3500   44.9410 C   0  0  0  0  0  0  0  0  0  0  0  0
   55.0270   29.3640   44.6790 O   0  0  0  0  0  0  0  0  0  0  0  0
   56.9860   28.0790   44.9660 C   0  0  0  0  0  0  0  0  0  0  0  0
   58.0810   27.9730   44.3520 O   0  0  0  0  0  0  0  0  0  0  0  0
   56.4410   26.9620   45.6770 N   0  0  0  0  0  0  0  0  0  0  0  0
   57.1540   26.2390   46.7280 C   0  0  0  0  0  0  0  0  0  0  0  0
   58.3220   25.4330   46.1480 C   0  0  0  0  0  0  0  0  0  0  0  0
   57.8540   24.3200   45.2470 C   0  0  0  0  0  0  0  0  0  0  0  0
   56.9960   24.5980   44.1700 C   0  0  0  0  0  0  0  0  0  0  0  0
   56.5230   23.5620   43.3600 C   0  0  0  0  0  0  0  0  0  0  0  0
   56.9010   22.2420   43.6180 C   0  0  0  0  0  0  0  0  0  0  0  0
   57.7550   21.9560   44.6860 C   0  0  0  0  0  0  0  0  0  0  0  0
   58.2300   22.9890   45.5010 C   0  0  0  0  0  0  0  0  0  0  0  0
   58.8680   32.4320   46.7300 N   0  0  0  0  0  0  0  0  0  0  0  0
   57.8290   33.2760   46.1190 C   0  0  0  0  0  0  0  0  0  0  0  0
   58.5010   34.5230   45.5830 C   0  0  0  0  0  0  0  0  0  0  0  0
   59.7310   34.6910   46.4470 C   0  0  0  0  0  0  0  0  0  0  0  0
   60.0000   33.3190   47.0580 C   0  0  0  0  0  0  0  0  0  0  0  0
   59.2740   30.0840   48.2160 C   0  0  0  0  0  0  0  0  0  0  0  0
   59.5510   29.0130   49.0690 C   0  0  0  0  0  0  0  0  0  0  0  0
   60.0821   26.6597   51.4152 H   0  0  0  0  0  0  0  0  0  0  0  0
   61.6977   26.0872   50.8781 H   0  0  0  0  0  0  0  0  0  0  0  0
   61.3216   27.8436   50.8781 H   0  0  0  0  0  0  0  0  0  0  0  0
   60.7953   26.8067   46.7810 H   0  0  0  0  0  0  0  0  0  0  0  0
   60.2922   28.7060   45.2602 H   0  0  0  0  0  0  0  0  0  0  0  0
   60.2202   31.4943   45.4676 H   0  0  0  0  0  0  0  0  0  0  0  0
   58.2739   31.7345   44.0869 H   0  0  0  0  0  0  0  0  0  0  0  0
   58.7107   29.9770   44.2729 H   0  0  0  0  0  0  0  0  0  0  0  0
   57.5444   26.9615   47.4599 H   0  0  0  0  0  0  0  0  0  0  0  0
   56.4530   25.5414   47.2097 H   0  0  0  0  0  0  0  0  0  0  0  0
   58.9666   26.1104   45.5686 H   0  0  0  0  0  0  0  0  0  0  0  0
   58.8693   24.9799   46.9877 H   0  0  0  0  0  0  0  0  0  0  0  0
   56.6951   25.6357   43.9633 H   0  0  0  0  0  0  0  0  0  0  0  0
   55.8519   23.7863   42.5178 H   0  0  0  0  0  0  0  0  0  0  0  0
   56.5262   21.4279   42.9802 H   0  0  0  0  0  0  0  0  0  0  0  0
   58.0544   20.9167   44.8864 H   0  0  0  0  0  0  0  0  0  0  0  0
   58.8996   22.7594   46.3430 H   0  0  0  0  0  0  0  0  0  0  0  0
   57.3403   32.7318   45.2974 H   0  0  0  0  0  0  0  0  0  0  0  0
   57.0635   33.5418   46.8629 H   0  0  0  0  0  0  0  0  0  0  0  0
   58.7821   34.3903   44.5278 H   0  0  0  0  0  0  0  0  0  0  0  0
   57.8411   35.4023   45.6190 H   0  0  0  0  0  0  0  0  0  0  0  0
   60.5873   35.0129   45.8361 H   0  0  0  0  0  0  0  0  0  0  0  0
   59.5800   35.4569   47.2220 H   0  0  0  0  0  0  0  0  0  0  0  0
   60.9299   32.9034   46.6425 H   0  0  0  0  0  0  0  0  0  0  0  0
   60.1073   33.4062   48.1493 H   0  0  0  0  0  0  0  0  0  0  0  0
   58.8021   30.9910   48.6217 H   0  0  0  0  0  0  0  0  0  0  0  0
   59.3259   29.0953   50.1426 H   0  0  0  0  0  0  0  0  0  0  0  0
  1  2  1  0
  2  3  1  0
  3  4  2  0
  4  5  1  0
  5  6  2  0
  6  7  1  0
  7  8  1  0
  8  9  1  0
  9 10  1  0
 10 11  2  0
 10 12  1  0
 12 13  2  0
 12 14  1  0
 14 15  1  0
 15 16  1  0
 16 17  1  0
 17 18  2  0
 18 19  1  0
 19 20  2  0
 20 21  1  0
 21 22  2  0
  7 23  1  0
 23 24  1  0
 24 25  1  0
 25 26  1  0
 26 27  1  0
  6 28  1  0
 28 29  2  0
 29  3  1  0
 22 17  1  0
 27 23  1  0
  1 30  1  0
  1 31  1  0
  1 32  1  0
  4 33  1  0
  5 34  1  0
  7 35  1  6
  8 36  1  0
  8 37  1  0
 15 38  1  0
 15 39  1  0
 16 40  1  0
 16 41  1  0
 18 42  1  0
 19 43  1  0
 20 44  1  0
 21 45  1  0
 22 46  1  0
 24 47  1  0
 24 48  1  0
 25 49  1  0
 25 50  1  0
 26 51  1  0
 26 52  1  0
 27 53  1  0
 27 54  1  0
 28 55  1  0
 29 56  1  0
M  CHG  2   9  -1  14  -1
M  END
>  <UniqueID>  (65) 
60

>  <SMILES>  (65) 
COc1ccc([C@@H](C[N-]C(=O)C(=O)[N-]CCc2ccccc2)N2CCCC2)cc1

>  <Energy>  (65) 
58.807973729850445

>  <Genealogy>  (65) 
COc1ccc(C(C[N-]C(=O)C(=O)[N-]CCc2ccccc2)N2CCCC2)cc1 (protonated)
COc1ccc([C@@H](C[N-]C(=O)C(=O)[N-]CCc2ccccc2)N2CCCC2)cc1 (chirality)
COc1ccc([C@@H](C[N-]C(=O)C(=O)[N-]CCc2ccccc2)N2CCCC2)cc1 (3D coordinates assigned)
COc1ccc([C@@H](C[N-]C(=O)C(=O)[N-]CCc2ccccc2)N2CCCC2)cc1 (nonaromatic ring conformer: 58.807973729850445 kcal/mol)

>  <smiles>  (65) 
COc1ccc(C(CNC(=O)C(=O)NCCc2ccccc2)N2CCCC2)cc1

>  <score_type>  (65) 
oracle

>  <origin>  (65) 
adg

>  <m_score__min__energy>  (65) 
-11.57

>  <m_primary>  (65) 
energy

$$$$
65:0
     RDKit          3D

 50 53  0  0  0  0  0  0  0  0999 V2000
   56.6270   27.2390   44.4920 H   0  0  0  0  0  0  0  0  0  0  0  0
   56.2930   27.8630   45.2610 N   0  0  0  0  0  0  0  0  0  0  0  0
   56.9040   28.9670   45.5500 C   0  0  0  0  0  0  0  0  0  0  0  0
   56.6070   30.1060   44.8680 N   0  0  0  0  0  0  0  0  0  0  0  0
   57.2180   31.2880   45.1350 C   0  0  0  0  0  0  0  0  0  0  0  0
   56.9483   32.1854   44.5588 H   0  0  0  0  0  0  0  0  0  0  0  0
   58.1910   31.3720   46.1410 C   0  0  0  0  0  0  0  0  0  0  0  0
   58.8740   32.6940   46.4420 C   0  0  1  0  0  0  0  0  0  0  0  0
   58.7289   32.9082   47.5111 H   0  0  0  0  0  0  0  0  0  0  0  0
   60.3930   32.6080   46.2050 C   0  0  0  0  0  0  0  0  0  0  0  0
   60.5847   32.3965   45.1427 H   0  0  0  0  0  0  0  0  0  0  0  0
   60.8108   31.8024   46.8267 H   0  0  0  0  0  0  0  0  0  0  0  0
   61.0310   33.8810   46.5710 N   0  0  0  0  0  0  0  0  0  0  0  0
   62.3880   33.8760   47.0640 C   0  0  0  0  0  0  0  0  0  0  0  0
   63.3380   34.1200   46.2710 O   0  0  0  0  0  0  0  0  0  0  0  0
   62.7050   33.6120   48.5130 C   0  0  0  0  0  0  0  0  0  0  0  0
   63.5865   32.9571   48.5766 H   0  0  0  0  0  0  0  0  0  0  0  0
   62.9066   34.5712   49.0123 H   0  0  0  0  0  0  0  0  0  0  0  0
   61.5420   32.9440   49.1970 C   0  0  0  0  0  0  0  0  0  0  0  0
   61.4100   31.5490   49.1890 C   0  0  0  0  0  0  0  0  0  0  0  0
   62.1761   30.9278   48.7019 H   0  0  0  0  0  0  0  0  0  0  0  0
   60.3370   30.9620   49.7820 N   0  0  0  0  0  0  0  0  0  0  0  0
   59.3570   31.6840   50.3930 C   0  0  0  0  0  0  0  0  0  0  0  0
   58.2530   30.9930   51.0000 N   0  0  0  0  0  0  0  0  0  0  0  0
   58.1600   29.6790   51.1000 N   0  0  0  0  0  0  0  0  0  0  0  0
   57.0230   29.3790   51.7080 N   0  0  0  0  0  0  0  0  0  0  0  0
   56.3640   30.4900   52.0100 N   0  0  0  0  0  0  0  0  0  0  0  0
   57.1380   31.4960   51.5630 C   0  0  0  0  0  0  0  0  0  0  0  0
   56.8966   32.5661   51.6450 H   0  0  0  0  0  0  0  0  0  0  0  0
   59.4500   33.0860   50.4130 C   0  0  0  0  0  0  0  0  0  0  0  0
   58.6679   33.6860   50.9011 H   0  0  0  0  0  0  0  0  0  0  0  0
   60.5420   33.7120   49.8090 C   0  0  0  0  0  0  0  0  0  0  0  0
   60.6176   34.8094   49.8134 H   0  0  0  0  0  0  0  0  0  0  0  0
   60.3210   35.1490   46.3380 C   0  0  0  0  0  0  0  0  0  0  0  0
   61.0395   35.9023   45.9826 H   0  0  0  0  0  0  0  0  0  0  0  0
   59.8596   35.4685   47.2841 H   0  0  0  0  0  0  0  0  0  0  0  0
   59.2140   34.9810   45.2910 C   0  0  0  0  0  0  0  0  0  0  0  0
   59.6765   34.7351   44.3237 H   0  0  0  0  0  0  0  0  0  0  0  0
   58.6533   35.9260   45.2399 H   0  0  0  0  0  0  0  0  0  0  0  0
   58.2220   33.8650   45.6630 C   0  0  0  0  0  0  0  0  0  0  0  0
   57.7834   33.4657   44.7366 H   0  0  0  0  0  0  0  0  0  0  0  0
   57.4645   34.3118   46.3238 H   0  0  0  0  0  0  0  0  0  0  0  0
   58.5160   30.2060   46.8550 C   0  0  0  0  0  0  0  0  0  0  0  0
   59.2800   30.2448   47.6454 H   0  0  0  0  0  0  0  0  0  0  0  0
   57.8710   28.9890   46.5660 C   0  0  0  0  0  0  0  0  0  0  0  0
   58.1640   27.8020   47.2580 O   0  0  0  0  0  0  0  0  0  0  0  0
   59.4130   27.5210   47.8810 C   0  0  0  0  0  0  0  0  0  0  0  0
   59.2919   27.5482   48.9740 H   0  0  0  0  0  0  0  0  0  0  0  0
   59.7589   26.5226   47.5752 H   0  0  0  0  0  0  0  0  0  0  0  0
   60.1532   28.2751   47.5752 H   0  0  0  0  0  0  0  0  0  0  0  0
  1  2  1  0
  2  3  2  0
  3  4  1  0
  4  5  1  0
  5  6  1  0
  5  7  2  0
  7  8  1  0
  8  9  1  1
  8 10  1  0
 10 11  1  0
 10 12  1  0
 10 13  1  0
 13 14  1  0
 14 15  2  0
 14 16  1  0
 16 17  1  0
 16 18  1  0
 16 19  1  0
 19 20  2  0
 20 21  1  0
 20 22  1  0
 22 23  2  0
 23 24  1  0
 24 25  1  0
 25 26  2  0
 26 27  1  0
 27 28  2  0
 28 29  1  0
 23 30  1  0
 30 31  1  0
 30 32  2  0
 32 33  1  0
 13 34  1  0
 34 35  1  0
 34 36  1  0
 34 37  1  0
 37 38  1  0
 37 39  1  0
 37 40  1  0
 40 41  1  0
 40 42  1  0
  7 43  1  0
 43 44  1  0
 43 45  2  0
 45 46  1  0
 46 47  1  0
 47 48  1  0
 47 49  1  0
 47 50  1  0
 45  3  1  0
 40  8  1  0
 32 19  1  0
 28 24  1  0
M  CHG  1   4  -1
M  END
>  <UniqueID>  (66) 
61

>  <SMILES>  (66) 
[H]/N=c1\[n-]cc([C@@H]2CCCN(C(=O)Cc3ccc(-n4cnnn4)nc3)C2)cc1OC

>  <Energy>  (66) 
98.13753574820853

>  <Genealogy>  (66) 
COc1cc(C2CCCN(C(=O)Cc3ccc(-n4cnnn4)nc3)C2)c[n-]c1=N (protonated)
COc1cc([C@@H]2CCCN(C(=O)Cc3ccc(-n4cnnn4)nc3)C2)c[n-]c1=N (chirality)
[H]/N=c1\[n-]cc([C@@H]2CCCN(C(=O)Cc3ccc(-n4cnnn4)nc3)C2)cc1OC (cis-trans isomerization)
[H]/N=c1\[n-]cc([C@@H]2CCCN(C(=O)Cc3ccc(-n4cnnn4)nc3)C2)cc1OC (3D coordinates assigned)
[H]/N=c1\[n-]cc([C@@H]2CCCN(C(=O)Cc3ccc(-n4cnnn4)nc3)C2)cc1OC (nonaromatic ring conformer: 98.13753574820853 kcal/mol)

>  <smiles>  (66) 
COc1cc(C2CCCN(C(=O)Cc3ccc(-n4cnnn4)nc3)C2)c[nH]c1=N

>  <score_type>  (66) 
oracle

>  <origin>  (66) 
adg

>  <m_score__min__energy>  (66) 
-10.109999999999999

>  <m_primary>  (66) 
energy

$$$$
66:0
     RDKit          3D

 42 44  0  0  0  0  0  0  0  0999 V2000
   57.3280   21.7720   44.6360 C   0  0  0  0  0  0  0  0  0  0  0  0
   56.6760   22.7300   45.4640 O   0  0  0  0  0  0  0  0  0  0  0  0
   56.9190   24.1100   45.4180 C   0  0  0  0  0  0  0  0  0  0  0  0
   56.5810   24.9730   46.4760 C   0  0  0  0  0  0  0  0  0  0  0  0
   56.8470   26.3430   46.3820 C   0  0  0  0  0  0  0  0  0  0  0  0
   57.4650   26.8720   45.2350 C   0  0  0  0  0  0  0  0  0  0  0  0
   57.7260   28.2790   45.1030 N   0  0  0  0  0  0  0  0  0  0  0  0
   56.7220   29.2550   44.7710 C   0  0  0  0  0  0  0  0  0  0  0  0
   55.5000   28.9570   44.8600 O   0  0  0  0  0  0  0  0  0  0  0  0
   57.1150   30.6200   44.3620 C   0  0  0  0  0  0  0  0  0  0  0  0
   57.3850   30.9250   43.0200 C   0  0  0  0  0  0  0  0  0  0  0  0
   57.7540   32.2290   42.6930 C   0  0  0  0  0  0  0  0  0  0  0  0
   57.8470   33.1720   43.6640 N   0  0  0  0  0  0  0  0  0  0  0  0
   57.5860   32.8680   44.9650 C   0  0  0  0  0  0  0  0  0  0  0  0
   57.6830   33.7680   45.8940 N   0  0  0  0  0  0  0  0  0  0  0  0
   59.1790   34.5170   46.3570 S   0  0  0  0  0  0  0  0  0  0  0  0
   59.6520   35.4010   45.2360 O   0  0  0  0  0  0  0  0  0  0  0  0
   58.9540   35.3580   47.5810 O   0  0  0  0  0  0  0  0  0  0  0  0
   60.3770   33.2810   46.7230 C   0  0  0  0  0  0  0  0  0  0  0  0
   61.7270   33.6230   46.8960 C   0  0  0  0  0  0  0  0  0  0  0  0
   62.6720   32.6290   47.1700 C   0  0  0  0  0  0  0  0  0  0  0  0
   62.2750   31.2920   47.2760 C   0  0  0  0  0  0  0  0  0  0  0  0
   60.9300   30.9480   47.1090 C   0  0  0  0  0  0  0  0  0  0  0  0
   60.4310   29.2690   47.2400 Cl  0  0  0  0  0  0  0  0  0  0  0  0
   59.9820   31.9400   46.8340 C   0  0  0  0  0  0  0  0  0  0  0  0
   57.2250   31.6010   45.3000 N   0  0  0  0  0  0  0  0  0  0  0  0
   57.7790   26.0110   44.1730 C   0  0  0  0  0  0  0  0  0  0  0  0
   57.5160   24.6420   44.2690 C   0  0  0  0  0  0  0  0  0  0  0  0
   57.8351   21.0269   45.2667 H   0  0  0  0  0  0  0  0  0  0  0  0
   56.5837   21.2693   44.0009 H   0  0  0  0  0  0  0  0  0  0  0  0
   58.0687   22.2799   44.0009 H   0  0  0  0  0  0  0  0  0  0  0  0
   56.1052   24.5686   47.3816 H   0  0  0  0  0  0  0  0  0  0  0  0
   56.5709   27.0112   47.2110 H   0  0  0  0  0  0  0  0  0  0  0  0
   58.6820   28.6200   45.3500 H   0  0  0  0  0  0  0  0  0  0  0  0
   57.3072   30.1515   42.2417 H   0  0  0  0  0  0  0  0  0  0  0  0
   57.9698   32.4935   41.6473 H   0  0  0  0  0  0  0  0  0  0  0  0
   62.0422   34.6738   46.8160 H   0  0  0  0  0  0  0  0  0  0  0  0
   63.7300   32.8993   47.3025 H   0  0  0  0  0  0  0  0  0  0  0  0
   63.0202   30.5118   47.4905 H   0  0  0  0  0  0  0  0  0  0  0  0
   58.9243   31.6672   46.7046 H   0  0  0  0  0  0  0  0  0  0  0  0
   58.2356   26.4165   43.2580 H   0  0  0  0  0  0  0  0  0  0  0  0
   57.7805   23.9763   43.4342 H   0  0  0  0  0  0  0  0  0  0  0  0
  1  2  1  0
  2  3  1  0
  3  4  2  0
  4  5  1  0
  5  6  2  0
  6  7  1  0
  7  8  1  0
  8  9  2  0
  8 10  1  0
 10 11  1  0
 11 12  2  0
 12 13  1  0
 13 14  1  0
 14 15  2  3
 15 16  1  0
 16 17  2  0
 16 18  2  0
 16 19  1  0
 19 20  2  0
 20 21  1  0
 21 22  2  0
 22 23  1  0
 23 24  1  0
 23 25  2  0
 14 26  1  0
  6 27  1  0
 27 28  2  0
 28  3  1  0
 26 10  2  0
 25 19  1  0
  1 29  1  0
  1 30  1  0
  1 31  1  0
  4 32  1  0
  5 33  1  0
  7 34  1  0
 11 35  1  0
 12 36  1  0
 20 37  1  0
 21 38  1  0
 22 39  1  0
 25 40  1  0
 27 41  1  0
 28 42  1  0
M  CHG  1  13  -1
M  END
>  <UniqueID>  (67) 
62

>  <SMILES>  (67) 
COc1ccc(NC(=O)c2cc[n-]c(=NS(=O)(=O)c3cccc(Cl)c3)n2)cc1

>  <Energy>  (67) 
51.556009275547424

>  <Genealogy>  (67) 
COc1ccc(NC(=O)c2cc[n-]c(=NS(=O)(=O)c3cccc(Cl)c3)n2)cc1 (protonated)
COc1ccc(NC(=O)c2cc[n-]c(=NS(=O)(=O)c3cccc(Cl)c3)n2)cc1 (3D coordinates assigned)
COc1ccc(NC(=O)c2cc[n-]c(=NS(=O)(=O)c3cccc(Cl)c3)n2)cc1 (optimized conformer: 51.556009275547424 kcal/mol)

>  <smiles>  (67) 
COc1ccc(NC(=O)c2cc[nH]c(=NS(=O)(=O)c3cccc(Cl)c3)n2)cc1

>  <score_type>  (67) 
oracle

>  <origin>  (67) 
adg

>  <m_score__min__energy>  (67) 
-10.09

>  <m_primary>  (67) 
energy

$$$$
67:0
     RDKit          3D

 31 32  0  0  1  0  0  0  0  0999 V2000
   59.7000   35.4710   46.2780 C   0  0  0  0  0  0  0  0  0  0  0  0
   58.8880   34.3140   45.8250 C   0  0  0  0  0  0  0  0  0  0  0  0
   58.1500   33.5270   46.6970 C   0  0  0  0  0  0  0  0  0  0  0  0
   57.4210   32.4680   46.1820 C   0  0  0  0  0  0  0  0  0  0  0  0
   57.3970   32.1600   44.8370 C   0  0  0  0  0  0  0  0  0  0  0  0
   56.6510   31.0740   44.2990 N   0  0  0  0  0  0  0  0  0  0  0  0
   56.8950   29.8410   44.4870 C   0  0  0  0  0  0  0  0  0  0  0  0
   56.2210   29.1950   45.4460 N   0  0  0  0  0  0  0  0  0  0  0  0
   56.4980   27.9110   45.6160 N   0  0  0  0  0  0  0  0  0  0  0  0
   57.4080   27.2340   44.8880 C   0  0  0  0  0  0  0  0  0  0  0  0
   57.7250   25.8130   45.0660 C   0  0  0  0  0  0  0  0  0  0  0  0
   58.0820   27.9350   43.9100 C   0  0  0  0  0  0  0  0  0  0  0  0
   58.9500   27.4250   43.1650 O   0  0  0  0  0  0  0  0  0  0  0  0
   57.8260   29.2560   43.7030 N   0  0  0  0  0  0  0  0  0  0  0  0
   58.1420   32.9580   43.9750 C   0  0  0  0  0  0  0  0  0  0  0  0
   58.1310   32.6410   42.5070 C   0  0  0  0  0  0  0  0  0  0  0  0
   58.8750   34.0220   44.4820 C   0  0  0  0  0  0  0  0  0  0  0  0
   59.7188   35.4977   47.3775 H   0  0  0  0  0  0  0  0  0  0  0  0
   60.7267   35.3704   45.8961 H   0  0  0  0  0  0  0  0  0  0  0  0
   59.2563   36.4023   45.8961 H   0  0  0  0  0  0  0  0  0  0  0  0
   58.1439   33.7399   47.7762 H   0  0  0  0  0  0  0  0  0  0  0  0
   56.8359   31.8455   46.8750 H   0  0  0  0  0  0  0  0  0  0  0  0
   55.5130   29.7040   46.0200 H   0  0  0  0  0  0  0  0  0  0  0  0
   57.7768   25.5806   46.1399 H   0  0  0  0  0  0  0  0  0  0  0  0
   56.9413   25.2008   44.5958 H   0  0  0  0  0  0  0  0  0  0  0  0
   58.6945   25.5919   44.5958 H   0  0  0  0  0  0  0  0  0  0  0  0
   58.3290   29.8080   42.9620 H   0  0  0  0  0  0  0  0  0  0  0  0
   58.0932   31.5505   42.3676 H   0  0  0  0  0  0  0  0  0  0  0  0
   57.2483   33.1013   42.0391 H   0  0  0  0  0  0  0  0  0  0  0  0
   59.0435   33.0390   42.0391 H   0  0  0  0  0  0  0  0  0  0  0  0
   59.4602   34.6473   43.7916 H   0  0  0  0  0  0  0  0  0  0  0  0
  1  2  1  0
  2  3  2  0
  3  4  1  0
  4  5  2  0
  5  6  1  0
  6  7  2  0
  7  8  1  0
  8  9  1  0
  9 10  2  0
 10 11  1  0
 10 12  1  0
 12 13  2  0
 12 14  1  0
  5 15  1  0
 15 16  1  0
 15 17  2  0
 17  2  1  0
 14  7  1  0
  1 18  1  0
  1 19  1  0
  1 20  1  0
  3 21  1  0
  4 22  1  0
  8 23  1  0
 11 24  1  0
 11 25  1  0
 11 26  1  0
 14 27  1  0
 16 28  1  0
 16 29  1  0
 16 30  1  0
 17 31  1  0
M  END
>  <smiles>  (68) 
Cc1ccc(N=c2[nH]nc(C)c(=O)[nH]2)c(C)c1

>  <score_type>  (68) 
oracle

>  <origin>  (68) 
adg

>  <m_score__min__energy>  (68) 
-7.3600000000000003

>  <m_primary>  (68) 
energy

$$$$
68:0
     RDKit          3D

 37 39  0  0  0  0  0  0  0  0999 V2000
   61.0000   29.6490   45.1250 O   0  0  0  0  0  0  0  0  0  0  0  0
   60.0770   28.9070   45.5600 C   0  0  0  0  0  0  0  0  0  0  0  0
   60.3880   27.9380   46.4560 N   0  0  0  0  0  0  0  0  0  0  0  0
   59.4440   27.1130   46.9670 C   0  0  0  0  0  0  0  0  0  0  0  0
   59.8210   26.1430   47.8870 O   0  0  0  0  0  0  0  0  0  0  0  0
   58.1090   27.2430   46.5660 C   0  0  0  0  0  0  0  0  0  0  0  0
   57.0320   26.3670   47.1710 C   0  0  0  0  0  0  0  0  0  0  0  0
   56.6060   25.2940   46.1970 C   0  0  0  0  0  0  0  0  0  0  0  0
   57.5110   24.2750   45.8480 C   0  0  0  0  0  0  0  0  0  0  0  0
   57.1490   23.2870   44.9280 C   0  0  0  0  0  0  0  0  0  0  0  0
   55.8790   23.3040   44.3470 C   0  0  0  0  0  0  0  0  0  0  0  0
   55.5210   22.3210   43.4330 O   0  0  0  0  0  0  0  0  0  0  0  0
   54.9690   24.3070   44.6870 C   0  0  0  0  0  0  0  0  0  0  0  0
   55.3240   25.3000   45.6070 C   0  0  0  0  0  0  0  0  0  0  0  0
   54.3940   26.2830   45.9320 O   0  0  0  0  0  0  0  0  0  0  0  0
   57.7980   28.2480   45.6280 C   0  0  0  0  0  0  0  0  0  0  0  0
   56.6050   28.3860   45.2390 O   0  0  0  0  0  0  0  0  0  0  0  0
   58.7820   29.0720   45.1360 N   0  0  0  0  0  0  0  0  0  0  0  0
   58.4350   30.1630   44.2020 C   0  0  0  0  0  0  0  0  0  0  0  0
   58.2190   31.4490   44.9570 C   0  0  0  0  0  0  0  0  0  0  0  0
   57.7930   32.6080   44.2840 C   0  0  0  0  0  0  0  0  0  0  0  0
   57.5550   33.7880   44.9950 C   0  0  0  0  0  0  0  0  0  0  0  0
   57.7350   33.8210   46.3800 C   0  0  0  0  0  0  0  0  0  0  0  0
   58.1550   32.6740   47.0570 C   0  0  0  0  0  0  0  0  0  0  0  0
   58.3940   31.4900   46.3500 C   0  0  0  0  0  0  0  0  0  0  0  0
   57.4230   25.8921   48.0829 H   0  0  0  0  0  0  0  0  0  0  0  0
   56.1600   26.9934   47.4103 H   0  0  0  0  0  0  0  0  0  0  0  0
   58.5122   24.2556   46.3031 H   0  0  0  0  0  0  0  0  0  0  0  0
   57.8648   22.4955   44.6614 H   0  0  0  0  0  0  0  0  0  0  0  0
   53.9686   24.3167   44.2297 H   0  0  0  0  0  0  0  0  0  0  0  0
   59.2552   30.2985   43.4816 H   0  0  0  0  0  0  0  0  0  0  0  0
   57.5078   29.8991   43.6722 H   0  0  0  0  0  0  0  0  0  0  0  0
   57.6465   32.5860   43.1940 H   0  0  0  0  0  0  0  0  0  0  0  0
   57.2253   34.6924   44.4627 H   0  0  0  0  0  0  0  0  0  0  0  0
   57.5459   34.7504   46.9372 H   0  0  0  0  0  0  0  0  0  0  0  0
   58.2982   32.7012   48.1473 H   0  0  0  0  0  0  0  0  0  0  0  0
   58.7203   30.5876   46.8877 H   0  0  0  0  0  0  0  0  0  0  0  0
  1  2  2  0
  2  3  1  0
  3  4  1  0
  4  5  1  0
  4  6  2  0
  6  7  1  0
  7  8  1  0
  8  9  2  0
  9 10  1  0
 10 11  2  0
 11 12  1  0
 11 13  1  0
 13 14  2  0
 14 15  1  0
  6 16  1  0
 16 17  2  0
 16 18  1  0
 18 19  1  0
 19 20  1  0
 20 21  2  0
 21 22  1  0
 22 23  2  0
 23 24  1  0
 24 25  2  0
 18  2  1  0
 25 20  1  0
 14  8  1  0
  7 26  1  0
  7 27  1  0
  9 28  1  0
 10 29  1  0
 13 30  1  0
 19 31  1  0
 19 32  1  0
 21 33  1  0
 22 34  1  0
 23 35  1  0
 24 36  1  0
 25 37  1  0
M  CHG  4   3  -1   5  -1  12  -1  15  -1
M  END
>  <UniqueID>  (69) 
63

>  <SMILES>  (69) 
O=c1[n-]c([O-])c(Cc2ccc([O-])cc2[O-])c(=O)n1Cc1ccccc1

>  <Energy>  (69) 
45.48157485267933

>  <Genealogy>  (69) 
O=c1[n-]c([O-])c(Cc2ccc([O-])cc2[O-])c(=O)n1Cc1ccccc1 (protonated)
O=c1[n-]c([O-])c(Cc2ccc([O-])cc2[O-])c(=O)n1Cc1ccccc1 (3D coordinates assigned)
O=c1[n-]c([O-])c(Cc2ccc([O-])cc2[O-])c(=O)n1Cc1ccccc1 (optimized conformer: 45.48157485267933 kcal/mol)

>  <smiles>  (69) 
O=c1[nH]c(O)c(Cc2ccc(O)cc2O)c(=O)n1Cc1ccccc1

>  <score_type>  (69) 
oracle

>  <origin>  (69) 
adg

>  <m_score__min__energy>  (69) 
-16.98

>  <m_primary>  (69) 
energy

$$$$
69:0
     RDKit          3D

 42 44  0  0  0  0  0  0  0  0999 V2000
   61.3860   31.0900   46.7820 N   0  0  0  0  0  0  0  0  0  0  0  0
   60.0220   31.3050   46.3700 C   0  0  0  0  0  0  0  0  0  0  0  0
   59.1780   30.1890   46.1630 C   0  0  0  0  0  0  0  0  0  0  0  0
   59.6910   28.8050   46.2490 C   0  0  0  0  0  0  0  0  0  0  0  0
   60.7560   28.5080   45.6480 O   0  0  0  0  0  0  0  0  0  0  0  0
   59.0170   27.7950   47.0120 N   0  0  0  0  0  0  0  0  0  0  0  0
   59.2220   26.3560   46.8700 C   0  0  0  0  0  0  0  0  0  0  0  0
   57.9870   25.6820   46.3310 C   0  0  0  0  0  0  0  0  0  0  0  0
   58.0690   24.3980   45.7680 C   0  0  0  0  0  0  0  0  0  0  0  0
   56.9190   23.7680   45.2830 C   0  0  0  0  0  0  0  0  0  0  0  0
   55.6850   24.4180   45.3440 C   0  0  0  0  0  0  0  0  0  0  0  0
   55.5930   25.6950   45.9050 C   0  0  0  0  0  0  0  0  0  0  0  0
   54.3650   26.3400   45.9640 O   0  0  0  0  0  0  0  0  0  0  0  0
   56.7380   26.3220   46.4090 C   0  0  0  0  0  0  0  0  0  0  0  0
   57.8410   30.4160   45.8260 C   0  0  0  0  0  0  0  0  0  0  0  0
   57.0530   29.4520   45.6260 O   0  0  0  0  0  0  0  0  0  0  0  0
   57.3850   31.6800   45.6990 N   0  0  0  0  0  0  0  0  0  0  0  0
   58.1960   32.7510   45.8700 C   0  0  0  0  0  0  0  0  0  0  0  0
   57.7090   33.9030   45.7160 O   0  0  0  0  0  0  0  0  0  0  0  0
   59.5230   32.5830   46.1930 N   0  0  0  0  0  0  0  0  0  0  0  0
   60.4000   33.7700   46.3040 C   0  0  0  0  0  0  0  0  0  0  0  0
   61.0610   33.8570   47.6610 C   0  0  0  0  0  0  0  0  0  0  0  0
   62.4630   33.8790   47.7730 C   0  0  0  0  0  0  0  0  0  0  0  0
   63.0710   33.8880   49.0320 C   0  0  0  0  0  0  0  0  0  0  0  0
   62.2890   33.8750   50.1890 C   0  0  0  0  0  0  0  0  0  0  0  0
   60.8960   33.8420   50.0890 C   0  0  0  0  0  0  0  0  0  0  0  0
   60.2830   33.8220   48.8320 C   0  0  0  0  0  0  0  0  0  0  0  0
   61.8690   31.6960   47.4750 H   0  0  0  0  0  0  0  0  0  0  0  0
   61.9270   30.2510   46.4780 H   0  0  0  0  0  0  0  0  0  0  0  0
   60.0587   26.1790   46.1781 H   0  0  0  0  0  0  0  0  0  0  0  0
   59.4444   25.9356   47.8618 H   0  0  0  0  0  0  0  0  0  0  0  0
   59.0410   23.8864   45.7084 H   0  0  0  0  0  0  0  0  0  0  0  0
   56.9866   22.7580   44.8524 H   0  0  0  0  0  0  0  0  0  0  0  0
   54.7841   23.9247   44.9502 H   0  0  0  0  0  0  0  0  0  0  0  0
   56.6604   27.3188   46.8676 H   0  0  0  0  0  0  0  0  0  0  0  0
   61.1806   33.7091   45.5313 H   0  0  0  0  0  0  0  0  0  0  0  0
   59.7782   34.6673   46.1692 H   0  0  0  0  0  0  0  0  0  0  0  0
   63.0843   33.8892   46.8653 H   0  0  0  0  0  0  0  0  0  0  0  0
   64.1680   33.9054   49.1114 H   0  0  0  0  0  0  0  0  0  0  0  0
   62.7696   33.8907   51.1783 H   0  0  0  0  0  0  0  0  0  0  0  0
   60.2802   33.8317   51.0004 H   0  0  0  0  0  0  0  0  0  0  0  0
   59.1863   33.7787   48.7589 H   0  0  0  0  0  0  0  0  0  0  0  0
  1  2  1  0
  2  3  2  0
  3  4  1  0
  4  5  2  0
  4  6  1  0
  6  7  1  0
  7  8  1  0
  8  9  2  0
  9 10  1  0
 10 11  2  0
 11 12  1  0
 12 13  1  0
 12 14  2  0
  3 15  1  0
 15 16  2  0
 15 17  1  0
 17 18  1  0
 18 19  2  0
 18 20  1  0
 20 21  1  0
 21 22  1  0
 22 23  2  0
 23 24  1  0
 24 25  2  0
 25 26  1  0
 26 27  2  0
 20  2  1  0
 27 22  1  0
 14  8  1  0
  1 28  1  0
  1 29  1  0
  7 30  1  0
  7 31  1  0
  9 32  1  0
 10 33  1  0
 11 34  1  0
 14 35  1  0
 21 36  1  0
 21 37  1  0
 23 38  1  0
 24 39  1  0
 25 40  1  0
 26 41  1  0
 27 42  1  0
M  CHG  3   6  -1  13  -1  17  -1
M  END
>  <UniqueID>  (70) 
64

>  <SMILES>  (70) 
Nc1c(C(=O)[N-]Cc2cccc([O-])c2)c(=O)[n-]c(=O)n1Cc1ccccc1

>  <Energy>  (70) 
52.967887481441664

>  <Genealogy>  (70) 
Nc1c(C(=O)[N-]Cc2cccc([O-])c2)c(=O)[n-]c(=O)n1Cc1ccccc1 (protonated)
Nc1c(C(=O)[N-]Cc2cccc([O-])c2)c(=O)[n-]c(=O)n1Cc1ccccc1 (3D coordinates assigned)
Nc1c(C(=O)[N-]Cc2cccc([O-])c2)c(=O)[n-]c(=O)n1Cc1ccccc1 (optimized conformer: 52.967887481441664 kcal/mol)

>  <smiles>  (70) 
Nc1c(C(=O)NCc2cccc(O)c2)c(=O)[nH]c(=O)n1Cc1ccccc1

>  <score_type>  (70) 
oracle

>  <origin>  (70) 
adg

>  <m_score__min__energy>  (70) 
-14.42

>  <m_primary>  (70) 
energy

$$$$
70:0
     RDKit          3D

 56 59  0  0  0  0  0  0  0  0999 V2000
   56.1760   24.5270   46.9500 H   0  0  0  0  0  0  0  0  0  0  0  0
   57.0840   24.9230   46.7400 O   0  0  0  0  0  0  0  0  0  0  0  0
   57.2250   26.1790   46.1480 C   0  0  0  0  0  0  0  0  0  0  0  0
   58.5100   26.6620   45.8770 C   0  0  0  0  0  0  0  0  0  0  0  0
   59.3895   26.0523   46.1313 H   0  0  0  0  0  0  0  0  0  0  0  0
   58.6800   27.9150   45.2850 C   0  0  0  0  0  0  0  0  0  0  0  0
   59.6935   28.2870   45.0740 H   0  0  0  0  0  0  0  0  0  0  0  0
   57.5640   28.7040   44.9570 C   0  0  0  0  0  0  0  0  0  0  0  0
   57.7560   30.0540   44.3140 C   0  0  0  0  0  0  0  0  0  0  0  0
   57.1231   30.1207   43.4168 H   0  0  0  0  0  0  0  0  0  0  0  0
   58.8153   30.1700   44.0411 H   0  0  0  0  0  0  0  0  0  0  0  0
   57.3890   31.1190   45.2400 N   0  0  0  0  0  0  0  0  0  0  0  0
   58.2750   31.6520   46.2310 C   0  0  0  0  0  0  0  0  0  0  0  0
   59.2090   30.9470   46.7000 O   0  0  0  0  0  0  0  0  0  0  0  0
   58.0500   33.0320   46.7480 C   0  0  0  0  0  0  0  0  0  0  0  0
   56.9753   33.2645   46.7190 H   0  0  0  0  0  0  0  0  0  0  0  0
   58.5963   33.7533   46.1225 H   0  0  0  0  0  0  0  0  0  0  0  0
   58.5290   33.1160   48.1210 N   0  0  0  0  0  0  0  0  0  0  0  0
   59.5800   34.0010   48.5260 C   0  0  0  0  0  0  0  0  0  0  0  0
   59.6140   35.1800   48.0770 O   0  0  0  0  0  0  0  0  0  0  0  0
   60.6110   33.5420   49.4830 C   0  0  0  0  0  0  0  0  0  0  0  0
   61.8330   34.2300   49.5980 C   0  0  0  0  0  0  0  0  0  0  0  0
   62.0298   35.1038   48.9595 H   0  0  0  0  0  0  0  0  0  0  0  0
   62.7990   33.8110   50.5180 C   0  0  0  0  0  0  0  0  0  0  0  0
   63.7484   34.3598   50.6048 H   0  0  0  0  0  0  0  0  0  0  0  0
   62.5620   32.6990   51.3260 C   0  0  0  0  0  0  0  0  0  0  0  0
   63.3226   32.3733   52.0508 H   0  0  0  0  0  0  0  0  0  0  0  0
   61.3560   31.9980   51.2140 C   0  0  0  0  0  0  0  0  0  0  0  0
   61.0680   30.5560   52.2410 S   0  0  0  0  0  0  0  0  0  0  0  0
   59.2960   30.6510   52.0310 C   0  0  0  0  0  0  0  0  0  0  0  0
   58.5800   29.7830   51.2830 N   0  0  0  0  0  0  0  0  0  0  0  0
   57.2750   30.0480   51.2790 N   0  0  0  0  0  0  0  0  0  0  0  0
   56.9480   31.1210   52.0290 C   0  0  0  0  0  0  0  0  0  0  0  0
   55.7280   31.5680   52.1040 N   0  0  0  0  0  0  0  0  0  0  0  0
   54.5300   30.7780   52.1290 C   0  0  0  0  0  0  0  0  0  0  0  0
   54.4630   29.6800   52.9940 C   0  0  0  0  0  0  0  0  0  0  0  0
   55.3324   29.4215   53.6164 H   0  0  0  0  0  0  0  0  0  0  0  0
   53.2990   28.9090   53.0730 C   0  0  0  0  0  0  0  0  0  0  0  0
   53.2638   28.0368   53.7424 H   0  0  0  0  0  0  0  0  0  0  0  0
   52.1720   29.2450   52.2990 C   0  0  0  0  0  0  0  0  0  0  0  0
   50.9780   28.5090   52.3450 O   0  0  0  0  0  0  0  0  0  0  0  0
   50.9140   27.0930   52.4850 C   0  0  0  0  0  0  0  0  0  0  0  0
   50.9021   26.8303   53.5531 H   0  0  0  0  0  0  0  0  0  0  0  0
   49.9980   26.7181   52.0050 H   0  0  0  0  0  0  0  0  0  0  0  0
   51.7925   26.6370   52.0050 H   0  0  0  0  0  0  0  0  0  0  0  0
   52.2340   30.3590   51.4570 C   0  0  0  0  0  0  0  0  0  0  0  0
   51.3585   30.6304   50.8489 H   0  0  0  0  0  0  0  0  0  0  0  0
   53.3960   31.1320   51.3790 C   0  0  0  0  0  0  0  0  0  0  0  0
   53.4226   32.0191   50.7292 H   0  0  0  0  0  0  0  0  0  0  0  0
   58.3140   31.8210   52.7380 S   0  0  0  0  0  0  0  0  0  0  0  0
   60.3840   32.4170   50.2970 C   0  0  0  0  0  0  0  0  0  0  0  0
   59.4373   31.8632   50.2126 H   0  0  0  0  0  0  0  0  0  0  0  0
   56.2700   28.2150   45.2260 C   0  0  0  0  0  0  0  0  0  0  0  0
   55.1490   28.9760   44.8990 O   0  0  0  0  0  0  0  0  0  0  0  0
   56.1020   26.9590   45.8220 C   0  0  0  0  0  0  0  0  0  0  0  0
   54.8190   26.4890   46.0870 O   0  0  0  0  0  0  0  0  0  0  0  0
  1  2  1  0
  2  3  1  0
  3  4  2  0
  4  5  1  0
  4  6  1  0
  6  7  1  0
  6  8  2  0
  8  9  1  0
  9 10  1  0
  9 11  1  0
  9 12  1  0
 12 13  1  0
 13 14  2  0
 13 15  1  0
 15 16  1  0
 15 17  1  0
 15 18  1  0
 18 19  1  0
 19 20  2  0
 19 21  1  0
 21 22  2  0
 22 23  1  0
 22 24  1  0
 24 25  1  0
 24 26  2  0
 26 27  1  0
 26 28  1  0
 28 29  1  0
 29 30  1  0
 30 31  2  0
 31 32  1  0
 32 33  1  0
 33 34  2  0
 34 35  1  0
 35 36  2  0
 36 37  1  0
 36 38  1  0
 38 39  1  0
 38 40  2  0
 40 41  1  0
 41 42  1  0
 42 43  1  0
 42 44  1  0
 42 45  1  0
 40 46  1  0
 46 47  1  0
 46 48  2  0
 48 49  1  0
 33 50  1  0
 28 51  2  0
 51 52  1  0
  8 53  1  0
 53 54  1  0
 53 55  2  0
 55 56  1  0
 55  3  1  0
 51 21  1  0
 50 30  1  0
 48 35  1  0
M  CHG  5  12  -1  18  -1  32  -1  54  -1  56  -1
M  END
>  <UniqueID>  (71) 
65

>  <SMILES>  (71) 
COc1ccc(/N=c2/[n-]nc(Sc3cccc(C(=O)[N-]CC(=O)[N-]Cc4ccc(O)c([O-])c4[O-])c3)s2)cc1

>  <Energy>  (71) 
92.41137477753153

>  <Genealogy>  (71) 
COc1ccc(N=c2[n-]nc(Sc3cccc(C(=O)[N-]CC(=O)[N-]Cc4ccc(O)c([O-])c4[O-])c3)s2)cc1 (protonated)
COc1ccc(/N=c2/[n-]nc(Sc3cccc(C(=O)[N-]CC(=O)[N-]Cc4ccc(O)c([O-])c4[O-])c3)s2)cc1 (cis-trans isomerization)
COc1ccc(/N=c2/[n-]nc(Sc3cccc(C(=O)[N-]CC(=O)[N-]Cc4ccc(O)c([O-])c4[O-])c3)s2)cc1 (3D coordinates assigned)
COc1ccc(/N=c2/[n-]nc(Sc3cccc(C(=O)[N-]CC(=O)[N-]Cc4ccc(O)c([O-])c4[O-])c3)s2)cc1 (optimized conformer: 92.41137477753153 kcal/mol)

>  <smiles>  (71) 
COc1ccc(N=c2[nH]nc(Sc3cccc(C(=O)NCC(=O)NCc4ccc(O)c(O)c4O)c3)s2)cc1

>  <score_type>  (71) 
oracle

>  <origin>  (71) 
adg

>  <m_score__min__energy>  (71) 
-18.989999999999998

>  <m_primary>  (71) 
energy

$$$$
71:0
     RDKit          3D

 44 47  0  0  0  0  0  0  0  0999 V2000
   64.8690   33.0720   49.6080 C   0  0  0  0  0  0  0  0  0  0  0  0
   63.6100   33.3440   48.8390 C   0  0  0  0  0  0  0  0  0  0  0  0
   63.6050   33.2490   47.4390 C   0  0  0  0  0  0  0  0  0  0  0  0
   62.4250   33.4660   46.7220 C   0  0  0  0  0  0  0  0  0  0  0  0
   61.2270   33.7590   47.3970 C   0  0  0  0  0  0  0  0  0  0  0  0
   60.0250   34.0070   46.7170 O   0  0  0  0  0  0  0  0  0  0  0  0
   59.1790   33.0430   46.1440 C   0  0  0  0  0  0  0  0  0  0  0  0
   59.3950   31.6630   46.3030 C   0  0  0  0  0  0  0  0  0  0  0  0
   58.5100   30.7420   45.7350 C   0  0  0  0  0  0  0  0  0  0  0  0
   57.3900   31.1820   45.0120 C   0  0  0  0  0  0  0  0  0  0  0  0
   56.4420   30.1890   44.4610 C   0  0  0  0  0  0  0  0  0  0  0  0
   55.8820   30.4350   43.3600 O   0  0  0  0  0  0  0  0  0  0  0  0
   56.0970   28.9750   45.1460 N   0  0  0  0  0  0  0  0  0  0  0  0
   57.0190   27.9740   45.6800 C   0  0  0  0  0  0  0  0  0  0  0  0
   56.4010   26.6120   45.6730 C   0  0  0  0  0  0  0  0  0  0  0  0
   55.1760   26.3430   46.1600 N   0  0  0  0  0  0  0  0  0  0  0  0
   54.9710   25.0520   45.9660 N   0  0  0  0  0  0  0  0  0  0  0  0
   56.0790   24.5740   45.3700 C   0  0  0  0  0  0  0  0  0  0  0  0
   56.2360   23.1510   44.9350 C   0  0  0  0  0  0  0  0  0  0  0  0
   57.5330   22.8620   44.1960 C   0  0  0  0  0  0  0  0  0  0  0  0
   56.2250   22.9450   43.4290 C   0  0  0  0  0  0  0  0  0  0  0  0
   57.0030   25.5270   45.1510 N   0  0  0  0  0  0  0  0  0  0  0  0
   57.1520   32.5600   44.8960 C   0  0  0  0  0  0  0  0  0  0  0  0
   58.0470   33.4810   45.4480 C   0  0  0  0  0  0  0  0  0  0  0  0
   61.2370   33.8570   48.7940 C   0  0  0  0  0  0  0  0  0  0  0  0
   62.4160   33.6390   49.5120 C   0  0  0  0  0  0  0  0  0  0  0  0
   64.6571   33.1178   50.6864 H   0  0  0  0  0  0  0  0  0  0  0  0
   65.2469   32.0715   49.3507 H   0  0  0  0  0  0  0  0  0  0  0  0
   65.6262   33.8273   49.3507 H   0  0  0  0  0  0  0  0  0  0  0  0
   64.5337   33.0027   46.9035 H   0  0  0  0  0  0  0  0  0  0  0  0
   62.4337   33.4072   45.6236 H   0  0  0  0  0  0  0  0  0  0  0  0
   60.2635   31.3067   46.8764 H   0  0  0  0  0  0  0  0  0  0  0  0
   58.6926   29.6640   45.8555 H   0  0  0  0  0  0  0  0  0  0  0  0
   57.9290   27.9584   45.0622 H   0  0  0  0  0  0  0  0  0  0  0  0
   57.2606   28.2418   46.7192 H   0  0  0  0  0  0  0  0  0  0  0  0
   55.7040   22.7019   45.7867 H   0  0  0  0  0  0  0  0  0  0  0  0
   58.2888   23.6530   44.0816 H   0  0  0  0  0  0  0  0  0  0  0  0
   58.3322   22.1122   44.2917 H   0  0  0  0  0  0  0  0  0  0  0  0
   56.0335   23.7961   42.7590 H   0  0  0  0  0  0  0  0  0  0  0  0
   55.6847   22.2801   42.7391 H   0  0  0  0  0  0  0  0  0  0  0  0
   56.2559   32.9176   44.3676 H   0  0  0  0  0  0  0  0  0  0  0  0
   57.8598   34.5590   45.3343 H   0  0  0  0  0  0  0  0  0  0  0  0
   60.3098   34.1075   49.3302 H   0  0  0  0  0  0  0  0  0  0  0  0
   62.4071   33.6991   50.6103 H   0  0  0  0  0  0  0  0  0  0  0  0
  1  2  1  0
  2  3  2  0
  3  4  1  0
  4  5  2  0
  5  6  1  0
  6  7  1  0
  7  8  2  0
  8  9  1  0
  9 10  2  0
 10 11  1  0
 11 12  2  0
 11 13  1  0
 13 14  1  0
 14 15  1  0
 15 16  2  0
 16 17  1  0
 17 18  1  0
 18 19  1  0
 19 20  1  0
 20 21  1  0
 18 22  2  0
 10 23  1  0
 23 24  2  0
  5 25  1  0
 25 26  2  0
 26  2  1  0
 24  7  1  0
 22 15  1  0
 21 19  1  0
  1 27  1  0
  1 28  1  0
  1 29  1  0
  3 30  1  0
  4 31  1  0
  8 32  1  0
  9 33  1  0
 14 34  1  0
 14 35  1  0
 19 36  1  0
 20 37  1  0
 20 38  1  0
 21 39  1  0
 21 40  1  0
 23 41  1  0
 24 42  1  0
 25 43  1  0
 26 44  1  0
M  CHG  2  13  -1  17  -1
M  END
>  <UniqueID>  (72) 
66

>  <SMILES>  (72) 
Cc1ccc(Oc2ccc(C(=O)[N-]Cc3n[n-]c(C4CC4)n3)cc2)cc1

>  <Energy>  (72) 
347.60503422526847

>  <Genealogy>  (72) 
Cc1ccc(Oc2ccc(C(=O)[N-]Cc3n[n-]c(C4CC4)n3)cc2)cc1 (protonated)
Cc1ccc(Oc2ccc(C(=O)[N-]Cc3n[n-]c(C4CC4)n3)cc2)cc1 (3D coordinates assigned)
Cc1ccc(Oc2ccc(C(=O)[N-]Cc3n[n-]c(C4CC4)n3)cc2)cc1 (nonaromatic ring conformer: 347.60503422526847 kcal/mol)

>  <smiles>  (72) 
Cc1ccc(Oc2ccc(C(=O)NCc3n[nH]c(C4CC4)n3)cc2)cc1

>  <score_type>  (72) 
oracle

>  <origin>  (72) 
adg

>  <m_score__min__energy>  (72) 
-12.550000000000001

>  <m_primary>  (72) 
energy

$$$$
72:0
     RDKit          3D

 40 42  0  0  0  0  0  0  0  0999 V2000
   57.2330   33.3880   44.0540 O   0  0  0  0  0  0  0  0  0  0  0  0
   57.2370   32.8070   45.1740 C   0  0  0  0  0  0  0  0  0  0  0  0
   57.5310   33.5800   46.4270 C   0  0  0  0  0  0  0  0  0  0  0  0
   58.8880   33.3260   46.9040 N   0  0  0  0  0  0  0  0  0  0  0  0
   60.0660   34.0200   46.4830 C   0  0  0  0  0  0  0  0  0  0  0  0
   60.0320   35.0500   45.7610 O   0  0  0  0  0  0  0  0  0  0  0  0
   61.3070   33.4010   46.9650 C   0  0  0  0  0  0  0  0  0  0  0  0
   62.6160   33.8340   46.7380 C   0  0  0  0  0  0  0  0  0  0  0  0
   63.6770   33.0930   47.2870 C   0  0  0  0  0  0  0  0  0  0  0  0
   63.4180   31.9380   48.0490 C   0  0  0  0  0  0  0  0  0  0  0  0
   62.0980   31.5130   48.2680 C   0  0  0  0  0  0  0  0  0  0  0  0
   61.0600   32.2610   47.7160 C   0  0  0  0  0  0  0  0  0  0  0  0
   59.3530   31.9470   47.8350 S   0  0  0  0  0  0  0  0  0  0  0  0
   58.9590   30.6630   47.1620 O   0  0  0  0  0  0  0  0  0  0  0  0
   58.8450   32.0350   49.2460 O   0  0  0  0  0  0  0  0  0  0  0  0
   57.0170   31.3920   45.2540 N   0  0  0  0  0  0  0  0  0  0  0  0
   56.9870   30.5300   44.0730 C   0  0  0  0  0  0  0  0  0  0  0  0
   56.2520   29.2180   44.3720 C   0  0  0  0  0  0  0  0  0  0  0  0
   57.1110   28.2670   45.1710 C   0  0  0  0  0  0  0  0  0  0  0  0
   58.5060   28.4390   45.1840 C   0  0  0  0  0  0  0  0  0  0  0  0
   59.3140   27.5990   45.9560 C   0  0  0  0  0  0  0  0  0  0  0  0
   58.7390   26.5850   46.7240 C   0  0  0  0  0  0  0  0  0  0  0  0
   57.3530   26.4100   46.7240 C   0  0  0  0  0  0  0  0  0  0  0  0
   56.5360   27.2460   45.9550 C   0  0  0  0  0  0  0  0  0  0  0  0
   55.1580   27.0600   45.9830 O   0  0  0  0  0  0  0  0  0  0  0  0
   57.4200   34.6544   46.2190 H   0  0  0  0  0  0  0  0  0  0  0  0
   56.8243   33.2582   47.2061 H   0  0  0  0  0  0  0  0  0  0  0  0
   62.8124   34.7370   46.1414 H   0  0  0  0  0  0  0  0  0  0  0  0
   64.7148   33.4173   47.1203 H   0  0  0  0  0  0  0  0  0  0  0  0
   64.2547   31.3652   48.4753 H   0  0  0  0  0  0  0  0  0  0  0  0
   61.8881   30.6108   48.8613 H   0  0  0  0  0  0  0  0  0  0  0  0
   57.0370   30.9340   46.1930 H   0  0  0  0  0  0  0  0  0  0  0  0
   56.4691   31.0551   43.2569 H   0  0  0  0  0  0  0  0  0  0  0  0
   58.0217   30.2950   43.7829 H   0  0  0  0  0  0  0  0  0  0  0  0
   55.3404   29.4425   44.9452 H   0  0  0  0  0  0  0  0  0  0  0  0
   56.0062   28.7363   43.4141 H   0  0  0  0  0  0  0  0  0  0  0  0
   58.9643   29.2387   44.5836 H   0  0  0  0  0  0  0  0  0  0  0  0
   60.4053   27.7374   45.9583 H   0  0  0  0  0  0  0  0  0  0  0  0
   59.3770   25.9240   47.3290 H   0  0  0  0  0  0  0  0  0  0  0  0
   56.9019   25.6114   47.3313 H   0  0  0  0  0  0  0  0  0  0  0  0
  1  2  2  0
  2  3  1  0
  3  4  1  0
  4  5  1  0
  5  6  2  0
  5  7  1  0
  7  8  2  0
  8  9  1  0
  9 10  2  0
 10 11  1  0
 11 12  2  0
 12 13  1  0
 13 14  2  0
 13 15  2  0
  2 16  1  0
 16 17  1  0
 17 18  1  0
 18 19  1  0
 19 20  2  0
 20 21  1  0
 21 22  2  0
 22 23  1  0
 23 24  2  0
 24 25  1  0
 13  4  1  0
 24 19  1  0
 12  7  1  0
  3 26  1  0
  3 27  1  0
  8 28  1  0
  9 29  1  0
 10 30  1  0
 11 31  1  0
 16 32  1  0
 17 33  1  0
 17 34  1  0
 18 35  1  0
 18 36  1  0
 20 37  1  0
 21 38  1  0
 22 39  1  0
 23 40  1  0
M  CHG  1  25  -1
M  END
>  <UniqueID>  (73) 
67

>  <SMILES>  (73) 
O=C(CN1C(=O)c2ccccc2S1(=O)=O)NCCc1ccccc1[O-]

>  <Energy>  (73) 
58.01229315041689

>  <Genealogy>  (73) 
O=C(CN1C(=O)c2ccccc2S1(=O)=O)NCCc1ccccc1[O-] (protonated)
O=C(CN1C(=O)c2ccccc2S1(=O)=O)NCCc1ccccc1[O-] (3D coordinates assigned)
O=C(CN1C(=O)c2ccccc2S1(=O)=O)NCCc1ccccc1[O-] (nonaromatic ring conformer: 58.01229315041689 kcal/mol)

>  <smiles>  (73) 
O=C(CN1C(=O)c2ccccc2S1(=O)=O)NCCc1ccccc1O

>  <score_type>  (73) 
oracle

>  <origin>  (73) 
adg

>  <m_score__min__energy>  (73) 
-12.220000000000001

>  <m_primary>  (73) 
energy

$$$$
73:0
     RDKit          3D

 35 37  0  0  0  0  0  0  0  0999 V2000
   55.9190   24.3170   44.4740 C   0  0  0  0  0  0  0  0  0  0  0  0
   55.1280   24.8500   45.9750 S   0  0  0  0  0  0  0  0  0  0  0  0
   54.0500   25.8430   45.6390 O   0  0  0  0  0  0  0  0  0  0  0  0
   54.5270   23.6590   46.6670 O   0  0  0  0  0  0  0  0  0  0  0  0
   56.3100   25.5920   47.0030 N   0  0  0  0  0  0  0  0  0  0  0  0
   56.8970   26.7120   46.7150 C   0  0  0  0  0  0  0  0  0  0  0  0
   56.5850   27.4230   45.6130 N   0  0  0  0  0  0  0  0  0  0  0  0
   57.3950   28.4960   45.6820 C   0  0  0  0  0  0  0  0  0  0  0  0
   57.3330   29.6060   44.7090 C   0  0  0  0  0  0  0  0  0  0  0  0
   57.8190   30.8850   45.0360 C   0  0  0  0  0  0  0  0  0  0  0  0
   57.7360   31.9290   44.1090 C   0  0  0  0  0  0  0  0  0  0  0  0
   57.1540   31.7100   42.8570 C   0  0  0  0  0  0  0  0  0  0  0  0
   56.6480   30.4490   42.5340 C   0  0  0  0  0  0  0  0  0  0  0  0
   56.7300   29.4030   43.4570 C   0  0  0  0  0  0  0  0  0  0  0  0
   58.1840   28.3940   46.8220 C   0  0  0  0  0  0  0  0  0  0  0  0
   59.2780   29.2870   47.2620 C   0  0  0  0  0  0  0  0  0  0  0  0
   60.3220   29.6410   46.3880 C   0  0  0  0  0  0  0  0  0  0  0  0
   61.3570   30.4720   46.8260 C   0  0  0  0  0  0  0  0  0  0  0  0
   61.3700   30.9420   48.1420 C   0  0  0  0  0  0  0  0  0  0  0  0
   60.3490   30.5770   49.0240 C   0  0  0  0  0  0  0  0  0  0  0  0
   59.3110   29.7470   48.5890 C   0  0  0  0  0  0  0  0  0  0  0  0
   57.8610   27.2650   47.4800 N   0  0  0  0  0  0  0  0  0  0  0  0
   56.8080   23.7180   44.7208 H   0  0  0  0  0  0  0  0  0  0  0  0
   55.2172   23.7068   43.8864 H   0  0  0  0  0  0  0  0  0  0  0  0
   56.2210   25.1965   43.8864 H   0  0  0  0  0  0  0  0  0  0  0  0
   58.2661   31.0647   46.0248 H   0  0  0  0  0  0  0  0  0  0  0  0
   58.1292   32.9238   44.3655 H   0  0  0  0  0  0  0  0  0  0  0  0
   57.0946   32.5304   42.1266 H   0  0  0  0  0  0  0  0  0  0  0  0
   56.1841   30.2789   41.5512 H   0  0  0  0  0  0  0  0  0  0  0  0
   56.3198   28.4148   43.2014 H   0  0  0  0  0  0  0  0  0  0  0  0
   60.3238   29.2621   45.3553 H   0  0  0  0  0  0  0  0  0  0  0  0
   62.1629   30.7566   46.1335 H   0  0  0  0  0  0  0  0  0  0  0  0
   62.1835   31.5990   48.4836 H   0  0  0  0  0  0  0  0  0  0  0  0
   60.3620   30.9430   50.0613 H   0  0  0  0  0  0  0  0  0  0  0  0
   58.5159   29.4526   49.2898 H   0  0  0  0  0  0  0  0  0  0  0  0
  1  2  1  0
  2  3  2  0
  2  4  2  0
  2  5  1  0
  5  6  2  3
  6  7  1  0
  7  8  1  0
  8  9  1  0
  9 10  2  0
 10 11  1  0
 11 12  2  0
 12 13  1  0
 13 14  2  0
  8 15  2  0
 15 16  1  0
 16 17  2  0
 17 18  1  0
 18 19  2  0
 19 20  1  0
 20 21  2  0
 15 22  1  0
 22  6  1  0
 14  9  1  0
 21 16  1  0
  1 23  1  0
  1 24  1  0
  1 25  1  0
 10 26  1  0
 11 27  1  0
 12 28  1  0
 13 29  1  0
 14 30  1  0
 17 31  1  0
 18 32  1  0
 19 33  1  0
 20 34  1  0
 21 35  1  0
M  CHG  2   7  -1  22  -1
M  END
>  <UniqueID>  (74) 
68

>  <SMILES>  (74) 
CS(=O)(=O)N=c1[n-]c(-c2ccccc2)c(-c2ccccc2)[n-]1

>  <Energy>  (74) 
71.65367729048913

>  <Genealogy>  (74) 
CS(=O)(=O)N=c1[n-]c(-c2ccccc2)c(-c2ccccc2)[n-]1 (protonated)
CS(=O)(=O)N=c1[n-]c(-c2ccccc2)c(-c2ccccc2)[n-]1 (3D coordinates assigned)
CS(=O)(=O)N=c1[n-]c(-c2ccccc2)c(-c2ccccc2)[n-]1 (optimized conformer: 71.65367729048913 kcal/mol)

>  <smiles>  (74) 
CS(=O)(=O)N=c1[nH]c(-c2ccccc2)c(-c2ccccc2)[nH]1

>  <score_type>  (74) 
oracle

>  <origin>  (74) 
adg

>  <m_score__min__energy>  (74) 
-10.73

>  <m_primary>  (74) 
energy

$$$$
74:0
     RDKit          3D

 52 55  0  0  0  0  0  0  0  0999 V2000
   59.9540   23.6570   45.6100 N   0  0  0  0  0  0  0  0  0  0  0  0
   59.3260   24.5530   45.9850 C   0  0  0  0  0  0  0  0  0  0  0  0
   58.5430   25.6690   46.4540 C   0  0  0  0  0  0  0  0  0  0  0  0
   57.4310   25.4270   47.1740 C   0  0  0  0  0  0  0  0  0  0  0  0
   56.1810   24.8800   46.5950 C   0  0  0  0  0  0  0  0  0  0  0  0
   55.2650   25.7300   45.9740 C   0  0  0  0  0  0  0  0  0  0  0  0
   55.5260   27.0910   45.8580 O   0  0  0  0  0  0  0  0  0  0  0  0
   54.0980   25.2340   45.4980 N   0  0  0  0  0  0  0  0  0  0  0  0
   53.7910   23.9160   45.5990 C   0  0  0  0  0  0  0  0  0  0  0  0
   52.6730   23.5160   45.1750 O   0  0  0  0  0  0  0  0  0  0  0  0
   54.6810   23.0410   46.1690 N   0  0  0  0  0  0  0  0  0  0  0  0
   54.3540   21.6360   46.2800 C   0  0  0  0  0  0  0  0  0  0  0  0
   53.2530   21.2220   47.0530 C   0  0  0  0  0  0  0  0  0  0  0  0
   52.9500   19.8650   47.1800 C   0  0  0  0  0  0  0  0  0  0  0  0
   53.7300   18.9090   46.5250 C   0  0  0  0  0  0  0  0  0  0  0  0
   54.8240   19.3090   45.7520 C   0  0  0  0  0  0  0  0  0  0  0  0
   55.1390   20.6660   45.6340 C   0  0  0  0  0  0  0  0  0  0  0  0
   55.8810   23.5060   46.6460 C   0  0  0  0  0  0  0  0  0  0  0  0
   56.7330   22.7000   47.1150 O   0  0  0  0  0  0  0  0  0  0  0  0
   58.9920   27.0360   46.1040 C   0  0  0  0  0  0  0  0  0  0  0  0
   60.1480   27.4050   46.4410 O   0  0  0  0  0  0  0  0  0  0  0  0
   58.1230   27.9160   45.3700 N   0  0  0  0  0  0  0  0  0  0  0  0
   58.1600   29.3510   45.4580 C   0  0  0  0  0  0  0  0  0  0  0  0
   58.8450   30.0170   46.4900 C   0  0  0  0  0  0  0  0  0  0  0  0
   58.8760   31.4150   46.5290 C   0  0  0  0  0  0  0  0  0  0  0  0
   58.2370   32.1650   45.5320 C   0  0  0  0  0  0  0  0  0  0  0  0
   58.2970   33.9250   45.5530 S   0  0  0  0  0  0  0  0  0  0  0  0
   56.8980   34.4660   45.4750 O   0  0  0  0  0  0  0  0  0  0  0  0
   59.0700   34.4420   44.3720 O   0  0  0  0  0  0  0  0  0  0  0  0
   59.0360   34.4770   47.0230 N   0  0  0  0  0  0  0  0  0  0  0  0
   60.2630   34.2220   47.3590 C   0  0  0  0  0  0  0  0  0  0  0  0
   60.6080   34.2220   48.6740 N   0  0  0  0  0  0  0  0  0  0  0  0
   61.8840   33.9630   49.0640 C   0  0  0  0  0  0  0  0  0  0  0  0
   62.8620   33.6930   48.1090 C   0  0  0  0  0  0  0  0  0  0  0  0
   62.4940   33.6930   46.7640 C   0  0  0  0  0  0  0  0  0  0  0  0
   61.2080   33.9560   46.4140 N   0  0  0  0  0  0  0  0  0  0  0  0
   57.5600   31.5050   44.4990 C   0  0  0  0  0  0  0  0  0  0  0  0
   57.5340   30.1090   44.4560 C   0  0  0  0  0  0  0  0  0  0  0  0
   57.4515   25.6475   48.2515 H   0  0  0  0  0  0  0  0  0  0  0  0
   52.6278   21.9718   47.5599 H   0  0  0  0  0  0  0  0  0  0  0  0
   52.0959   19.5483   47.7967 H   0  0  0  0  0  0  0  0  0  0  0  0
   53.4833   17.8410   46.6175 H   0  0  0  0  0  0  0  0  0  0  0  0
   55.4374   18.5555   45.2362 H   0  0  0  0  0  0  0  0  0  0  0  0
   56.0060   20.9760   45.0322 H   0  0  0  0  0  0  0  0  0  0  0  0
   57.2790   27.4920   44.9230 H   0  0  0  0  0  0  0  0  0  0  0  0
   59.3587   29.4360   47.2701 H   0  0  0  0  0  0  0  0  0  0  0  0
   59.4044   31.9282   47.3460 H   0  0  0  0  0  0  0  0  0  0  0  0
   62.1444   33.9665   50.1327 H   0  0  0  0  0  0  0  0  0  0  0  0
   63.8996   33.4848   48.4089 H   0  0  0  0  0  0  0  0  0  0  0  0
   63.2438   33.4804   45.9877 H   0  0  0  0  0  0  0  0  0  0  0  0
   57.0473   32.0874   43.7193 H   0  0  0  0  0  0  0  0  0  0  0  0
   57.0181   29.5989   43.6292 H   0  0  0  0  0  0  0  0  0  0  0  0
  1  2  3  0
  2  3  1  0
  3  4  2  3
  4  5  1  0
  5  6  2  0
  6  7  1  0
  6  8  1  0
  8  9  1  0
  9 10  2  0
  9 11  1  0
 11 12  1  0
 12 13  2  0
 13 14  1  0
 14 15  2  0
 15 16  1  0
 16 17  2  0
 11 18  1  0
 18 19  2  0
  3 20  1  0
 20 21  2  0
 20 22  1  0
 22 23  1  0
 23 24  2  0
 24 25  1  0
 25 26  2  0
 26 27  1  0
 27 28  2  0
 27 29  2  0
 27 30  1  0
 30 31  2  3
 31 32  1  0
 32 33  2  0
 33 34  1  0
 34 35  2  0
 35 36  1  0
 26 37  1  0
 37 38  2  0
 18  5  1  0
 38 23  1  0
 17 12  1  0
 36 31  1  0
  4 39  1  0
 13 40  1  0
 14 41  1  0
 15 42  1  0
 16 43  1  0
 17 44  1  0
 22 45  1  0
 24 46  1  0
 25 47  1  0
 33 48  1  0
 34 49  1  0
 35 50  1  0
 37 51  1  0
 38 52  1  0
M  CHG  3   7  -1   8  -1  36  -1
M  END
>  <UniqueID>  (75) 
69

>  <SMILES>  (75) 
N#CC(=Cc1c([O-])[n-]c(=O)n(-c2ccccc2)c1=O)C(=O)Nc1ccc(S(=O)(=O)N=c2nccc[n-]2)cc1

>  <Energy>  (75) 
81.64282128711258

>  <Genealogy>  (75) 
N#CC(=Cc1c([O-])[n-]c(=O)n(-c2ccccc2)c1=O)C(=O)Nc1ccc(S(=O)(=O)N=c2nccc[n-]2)cc1 (protonated)
N#CC(=Cc1c([O-])[n-]c(=O)n(-c2ccccc2)c1=O)C(=O)Nc1ccc(S(=O)(=O)N=c2nccc[n-]2)cc1 (3D coordinates assigned)
N#CC(=Cc1c([O-])[n-]c(=O)n(-c2ccccc2)c1=O)C(=O)Nc1ccc(S(=O)(=O)N=c2nccc[n-]2)cc1 (optimized conformer: 81.64282128711258 kcal/mol)

>  <smiles>  (75) 
N#CC(=Cc1c(O)[nH]c(=O)n(-c2ccccc2)c1=O)C(=O)Nc1ccc(S(=O)(=O)N=c2nccc[nH]2)cc1

>  <score_type>  (75) 
oracle

>  <origin>  (75) 
adg

>  <m_score__min__energy>  (75) 
-14.56

>  <m_primary>  (75) 
energy

$$$$
75:0
     RDKit          3D

 41 43  0  0  0  0  0  0  0  0999 V2000
   59.4470   34.9000   47.2600 O   0  0  0  0  0  0  0  0  0  0  0  0
   59.3550   33.7970   46.6560 C   0  0  0  0  0  0  0  0  0  0  0  0
   59.1650   33.7860   45.1710 C   0  0  0  0  0  0  0  0  0  0  0  0
   57.4060   33.5460   44.7510 S   0  0  0  0  0  0  0  0  0  0  0  0
   57.4650   31.7600   44.8670 C   0  0  0  0  0  0  0  0  0  0  0  0
   58.6570   31.1260   45.0190 N   0  0  0  0  0  0  0  0  0  0  0  0
   58.7190   29.7730   45.1220 C   0  0  0  0  0  0  0  0  0  0  0  0
   59.8330   29.2050   45.2650 O   0  0  0  0  0  0  0  0  0  0  0  0
   57.5470   29.0160   45.0690 C   0  0  0  0  0  0  0  0  0  0  0  0
   56.3320   29.6850   44.9160 C   0  0  0  0  0  0  0  0  0  0  0  0
   55.1430   28.9690   44.8620 O   0  0  0  0  0  0  0  0  0  0  0  0
   56.3130   31.0390   44.8210 N   0  0  0  0  0  0  0  0  0  0  0  0
   59.4190   32.5610   47.3820 N   0  0  0  0  0  0  0  0  0  0  0  0
   59.4380   32.5150   48.8150 C   0  0  0  0  0  0  0  0  0  0  0  0
   58.2320   32.2990   49.4980 C   0  0  0  0  0  0  0  0  0  0  0  0
   58.2010   32.2900   50.8950 C   0  0  0  0  0  0  0  0  0  0  0  0
   59.3770   32.4820   51.6210 C   0  0  0  0  0  0  0  0  0  0  0  0
   60.5890   32.6710   50.9520 C   0  0  0  0  0  0  0  0  0  0  0  0
   60.6360   32.6810   49.5490 C   0  0  0  0  0  0  0  0  0  0  0  0
   61.9110   32.7800   48.8910 N   0  0  0  0  0  0  0  0  0  0  0  0
   62.4460   34.0800   48.4780 C   0  0  0  0  0  0  0  0  0  0  0  0
   63.0890   33.9490   47.0940 C   0  0  0  0  0  0  0  0  0  0  0  0
   64.0210   32.8850   47.0680 O   0  0  0  0  0  0  0  0  0  0  0  0
   63.3510   31.6530   47.2660 C   0  0  0  0  0  0  0  0  0  0  0  0
   62.7350   31.5890   48.6660 C   0  0  0  0  0  0  0  0  0  0  0  0
   59.5084   34.7448   44.7554 H   0  0  0  0  0  0  0  0  0  0  0  0
   59.7479   32.9562   44.7449 H   0  0  0  0  0  0  0  0  0  0  0  0
   57.5806   27.9192   45.1460 H   0  0  0  0  0  0  0  0  0  0  0  0
   59.2040   31.6770   46.8680 H   0  0  0  0  0  0  0  0  0  0  0  0
   57.3043   32.1356   48.9300 H   0  0  0  0  0  0  0  0  0  0  0  0
   57.2489   32.1315   51.4227 H   0  0  0  0  0  0  0  0  0  0  0  0
   59.3499   32.4846   52.7207 H   0  0  0  0  0  0  0  0  0  0  0  0
   61.5143   32.8132   51.5296 H   0  0  0  0  0  0  0  0  0  0  0  0
   61.6296   34.8160   48.4352 H   0  0  0  0  0  0  0  0  0  0  0  0
   63.2018   34.4138   49.2042 H   0  0  0  0  0  0  0  0  0  0  0  0
   62.3031   33.7574   46.3486 H   0  0  0  0  0  0  0  0  0  0  0  0
   63.6184   34.8851   46.8629 H   0  0  0  0  0  0  0  0  0  0  0  0
   62.5530   31.5517   46.5157 H   0  0  0  0  0  0  0  0  0  0  0  0
   64.0790   30.8348   47.1630 H   0  0  0  0  0  0  0  0  0  0  0  0
   62.1090   30.6885   48.7505 H   0  0  0  0  0  0  0  0  0  0  0  0
   63.5366   31.5497   49.4183 H   0  0  0  0  0  0  0  0  0  0  0  0
  1  2  2  0
  2  3  1  0
  3  4  1  0
  4  5  1  0
  5  6  2  0
  6  7  1  0
  7  8  2  0
  7  9  1  0
  9 10  2  0
 10 11  1  0
 10 12  1  0
  2 13  1  0
 13 14  1  0
 14 15  2  0
 15 16  1  0
 16 17  2  0
 17 18  1  0
 18 19  2  0
 19 20  1  0
 20 21  1  0
 21 22  1  0
 22 23  1  0
 23 24  1  0
 24 25  1  0
 12  5  1  0
 19 14  1  0
 25 20  1  0
  3 26  1  0
  3 27  1  0
  9 28  1  0
 13 29  1  0
 15 30  1  0
 16 31  1  0
 17 32  1  0
 18 33  1  0
 21 34  1  0
 21 35  1  0
 22 36  1  0
 22 37  1  0
 24 38  1  0
 24 39  1  0
 25 40  1  0
 25 41  1  0
M  CHG  2  11  -1  12  -1
M  END
>  <UniqueID>  (76) 
70

>  <SMILES>  (76) 
O=C(CSc1nc(=O)cc([O-])[n-]1)Nc1ccccc1N1CCOCC1

>  <Energy>  (76) 
47.77174549061273

>  <Genealogy>  (76) 
O=C(CSc1nc(=O)cc([O-])[n-]1)Nc1ccccc1N1CCOCC1 (protonated)
O=C(CSc1nc(=O)cc([O-])[n-]1)Nc1ccccc1N1CCOCC1 (3D coordinates assigned)
O=C(CSc1nc(=O)cc([O-])[n-]1)Nc1ccccc1N1CCOCC1 (nonaromatic ring conformer: 47.77174549061273 kcal/mol)

>  <smiles>  (76) 
O=C(CSc1nc(=O)cc(O)[nH]1)Nc1ccccc1N1CCOCC1

>  <score_type>  (76) 
oracle

>  <origin>  (76) 
adg

>  <m_score__min__energy>  (76) 
-13.470000000000001

>  <m_primary>  (76) 
energy

$$$$
76:0
     RDKit          3D

 34 36  0  0  0  0  0  0  0  0999 V2000
   55.1460   26.2790   45.9340 N   0  0  0  0  0  0  0  0  0  0  0  0
   56.8640   26.4500   45.8620 S   0  0  0  0  0  0  0  0  0  0  0  0
   57.3880   25.7530   44.6370 O   0  0  0  0  0  0  0  0  0  0  0  0
   57.4830   25.8190   47.0780 O   0  0  0  0  0  0  0  0  0  0  0  0
   57.2780   28.1590   45.8010 C   0  0  0  0  0  0  0  0  0  0  0  0
   56.7240   28.9840   44.8130 C   0  0  0  0  0  0  0  0  0  0  0  0
   57.0630   30.3380   44.7560 C   0  0  0  0  0  0  0  0  0  0  0  0
   57.9720   30.8830   45.6780 C   0  0  0  0  0  0  0  0  0  0  0  0
   58.3360   32.3170   45.6270 C   0  0  0  0  0  0  0  0  0  0  0  0
   59.0150   33.0170   46.5510 C   0  0  0  0  0  0  0  0  0  0  0  0
   59.4450   32.5560   47.8910 C   0  0  0  0  0  0  0  0  0  0  0  0
   60.7870   32.2090   48.1180 C   0  0  0  0  0  0  0  0  0  0  0  0
   61.2010   31.7770   49.3810 C   0  0  0  0  0  0  0  0  0  0  0  0
   60.2810   31.6970   50.4300 C   0  0  0  0  0  0  0  0  0  0  0  0
   58.9470   32.0510   50.2170 C   0  0  0  0  0  0  0  0  0  0  0  0
   58.5290   32.4840   48.9560 C   0  0  0  0  0  0  0  0  0  0  0  0
   59.2000   34.3750   46.0250 C   0  0  0  0  0  0  0  0  0  0  0  0
   59.7720   35.3210   46.6260 O   0  0  0  0  0  0  0  0  0  0  0  0
   58.6100   34.5060   44.7420 N   0  0  0  0  0  0  0  0  0  0  0  0
   58.0700   33.2170   44.5010 C   0  0  0  0  0  0  0  0  0  0  0  0
   57.4750   32.9020   43.4370 O   0  0  0  0  0  0  0  0  0  0  0  0
   58.5200   30.0550   46.6710 C   0  0  0  0  0  0  0  0  0  0  0  0
   58.1790   28.6990   46.7270 C   0  0  0  0  0  0  0  0  0  0  0  0
   54.7820   27.0810   46.4950 H   0  0  0  0  0  0  0  0  0  0  0  0
   56.0197   28.5640   44.0798 H   0  0  0  0  0  0  0  0  0  0  0  0
   56.6153   30.9815   43.9843 H   0  0  0  0  0  0  0  0  0  0  0  0
   61.5161   32.2776   47.2972 H   0  0  0  0  0  0  0  0  0  0  0  0
   62.2520   31.4997   49.5496 H   0  0  0  0  0  0  0  0  0  0  0  0
   60.6076   31.3553   51.4233 H   0  0  0  0  0  0  0  0  0  0  0  0
   58.2239   31.9888   51.0436 H   0  0  0  0  0  0  0  0  0  0  0  0
   57.4790   32.7698   48.7954 H   0  0  0  0  0  0  0  0  0  0  0  0
   58.5800   35.3490   44.1260 H   0  0  0  0  0  0  0  0  0  0  0  0
   59.2205   30.4743   47.4082 H   0  0  0  0  0  0  0  0  0  0  0  0
   58.6205   28.0547   47.5015 H   0  0  0  0  0  0  0  0  0  0  0  0
  1  2  1  0
  2  3  2  0
  2  4  2  0
  2  5  1  0
  5  6  2  0
  6  7  1  0
  7  8  2  0
  8  9  1  0
  9 10  2  0
 10 11  1  0
 11 12  2  0
 12 13  1  0
 13 14  2  0
 14 15  1  0
 15 16  2  0
 10 17  1  0
 17 18  2  0
 17 19  1  0
 19 20  1  0
 20 21  2  0
  8 22  1  0
 22 23  2  0
 23  5  1  0
 20  9  1  0
 16 11  1  0
  1 24  1  0
  6 25  1  0
  7 26  1  0
 12 27  1  0
 13 28  1  0
 14 29  1  0
 15 30  1  0
 16 31  1  0
 19 32  1  0
 22 33  1  0
 23 34  1  0
M  CHG  1   1  -1
M  END
>  <UniqueID>  (77) 
71

>  <SMILES>  (77) 
[NH-]S(=O)(=O)c1ccc(C2=C(c3ccccc3)C(=O)NC2=O)cc1

>  <Energy>  (77) 
71.83611689073892

>  <Genealogy>  (77) 
[NH-]S(=O)(=O)c1ccc(C2=C(c3ccccc3)C(=O)NC2=O)cc1 (protonated)
[NH-]S(=O)(=O)c1ccc(C2=C(c3ccccc3)C(=O)NC2=O)cc1 (3D coordinates assigned)
[NH-]S(=O)(=O)c1ccc(C2=C(c3ccccc3)C(=O)NC2=O)cc1 (nonaromatic ring conformer: 71.83611689073892 kcal/mol)

>  <smiles>  (77) 
NS(=O)(=O)c1ccc(C2=C(c3ccccc3)C(=O)NC2=O)cc1

>  <score_type>  (77) 
oracle

>  <origin>  (77) 
adg

>  <m_score__min__energy>  (77) 
-10.619999999999999

>  <m_primary>  (77) 
energy

$$$$
77:0
     RDKit          3D

 46 48  0  0  0  0  0  0  0  0999 V2000
   58.5191   34.3432   43.6578 H   0  0  0  0  0  0  0  0  0  0  0  0
   58.4730   33.4920   44.3530 C   0  0  0  0  0  0  0  0  0  0  0  0
   57.9510   32.2720   43.9200 C   0  0  0  0  0  0  0  0  0  0  0  0
   57.5989   32.1631   42.8836 H   0  0  0  0  0  0  0  0  0  0  0  0
   57.8740   31.1840   44.8030 C   0  0  0  0  0  0  0  0  0  0  0  0
   57.3690   29.9060   44.3880 N   0  0  0  0  0  0  0  0  0  0  0  0
   56.3980   29.1150   45.0800 C   0  0  0  0  0  0  0  0  0  0  0  0
   55.1760   29.3800   44.9230 O   0  0  0  0  0  0  0  0  0  0  0  0
   56.8110   28.0000   45.8880 N   0  0  0  0  0  0  0  0  0  0  0  0
   56.4010   26.7720   45.7650 C   0  0  0  0  0  0  0  0  0  0  0  0
   55.1420   26.3530   46.0010 N   0  0  0  0  0  0  0  0  0  0  0  0
   55.1300   25.0490   45.7730 N   0  0  0  0  0  0  0  0  0  0  0  0
   53.9310   24.2210   45.8600 C   0  0  0  0  0  0  0  0  0  0  0  0
   53.3000   24.4018   44.9773 H   0  0  0  0  0  0  0  0  0  0  0  0
   53.3805   24.4824   46.7758 H   0  0  0  0  0  0  0  0  0  0  0  0
   54.3110   22.7470   45.9130 C   0  0  0  0  0  0  0  0  0  0  0  0
   54.3935   22.4271   46.9622 H   0  0  0  0  0  0  0  0  0  0  0  0
   53.5373   22.1505   45.4075 H   0  0  0  0  0  0  0  0  0  0  0  0
   55.2767   22.5989   45.4075 H   0  0  0  0  0  0  0  0  0  0  0  0
   56.3520   24.6340   45.3810 C   0  0  0  0  0  0  0  0  0  0  0  0
   56.6249   23.6024   45.1141 H   0  0  0  0  0  0  0  0  0  0  0  0
   57.2020   25.7200   45.3710 C   0  0  0  0  0  0  0  0  0  0  0  0
   58.2703   25.7423   45.1096 H   0  0  0  0  0  0  0  0  0  0  0  0
   58.3630   31.3230   46.1060 C   0  0  0  0  0  0  0  0  0  0  0  0
   58.3385   30.4614   46.7894 H   0  0  0  0  0  0  0  0  0  0  0  0
   58.8850   32.5480   46.5540 C   0  0  0  0  0  0  0  0  0  0  0  0
   59.4890   32.6760   48.2140 S   0  0  0  0  0  0  0  0  0  0  0  0
   59.2500   34.0720   48.7180 O   0  0  0  0  0  0  0  0  0  0  0  0
   58.7430   31.7200   49.1040 O   0  0  0  0  0  0  0  0  0  0  0  0
   61.1980   32.3060   48.2590 N   0  0  0  0  0  0  0  0  0  0  0  0
   61.2820   31.2680   48.3700 H   0  0  0  0  0  0  0  0  0  0  0  0
   61.8250   32.6800   46.9730 C   0  0  0  0  0  0  0  0  0  0  0  0
   61.6501   31.8789   46.2397 H   0  0  0  0  0  0  0  0  0  0  0  0
   61.3784   33.6224   46.6231 H   0  0  0  0  0  0  0  0  0  0  0  0
   63.3400   32.8850   47.1450 C   0  0  0  0  0  0  0  0  0  0  0  0
   63.7796   31.9382   47.4919 H   0  0  0  0  0  0  0  0  0  0  0  0
   63.7307   33.2012   46.1665 H   0  0  0  0  0  0  0  0  0  0  0  0
   63.6860   33.9060   48.0750 O   0  0  0  0  0  0  0  0  0  0  0  0
   62.6660   34.1890   49.0210 C   0  0  0  0  0  0  0  0  0  0  0  0
   63.1331   34.6114   49.9229 H   0  0  0  0  0  0  0  0  0  0  0  0
   61.9681   34.8952   48.5476 H   0  0  0  0  0  0  0  0  0  0  0  0
   61.8540   32.9470   49.4270 C   0  0  0  0  0  0  0  0  0  0  0  0
   62.5304   32.2188   49.8985 H   0  0  0  0  0  0  0  0  0  0  0  0
   61.0670   33.2684   50.1251 H   0  0  0  0  0  0  0  0  0  0  0  0
   58.9380   33.6410   45.6640 C   0  0  0  0  0  0  0  0  0  0  0  0
   59.5910   35.2050   46.1370 Cl  0  0  0  0  0  0  0  0  0  0  0  0
  1  2  1  0
  2  3  2  0
  3  4  1  0
  3  5  1  0
  5  6  1  0
  6  7  1  0
  7  8  2  0
  7  9  1  0
  9 10  2  0
 10 11  1  0
 11 12  1  0
 12 13  1  0
 13 14  1  0
 13 15  1  0
 13 16  1  0
 16 17  1  0
 16 18  1  0
 16 19  1  0
 12 20  1  0
 20 21  1  0
 20 22  2  0
 22 23  1  0
  5 24  2  0
 24 25  1  0
 24 26  1  0
 26 27  1  0
 27 28  2  0
 27 29  2  0
 27 30  1  0
 30 31  1  0
 30 32  1  0
 32 33  1  0
 32 34  1  0
 32 35  1  0
 35 36  1  0
 35 37  1  0
 35 38  1  0
 38 39  1  0
 39 40  1  0
 39 41  1  0
 39 42  1  0
 42 43  1  0
 42 44  1  0
 26 45  2  0
 45 46  1  0
 45  2  1  0
 22 10  1  0
 42 30  1  0
M  CHG  3   6  -1  11  -1  30   1
M  END
>  <UniqueID>  (78) 
72

>  <SMILES>  (78) 
CCn1cc/c(=N/C(=O)[N-]c2ccc(Cl)c(S(=O)(=O)[NH+]3CCOCC3)c2)[n-]1

>  <Energy>  (78) 
92.40492653541992

>  <Genealogy>  (78) 
CCn1ccc(=NC(=O)[N-]c2ccc(Cl)c(S(=O)(=O)[NH+]3CCOCC3)c2)[n-]1 (protonated)
CCn1cc/c(=N/C(=O)[N-]c2ccc(Cl)c(S(=O)(=O)[NH+]3CCOCC3)c2)[n-]1 (cis-trans isomerization)
CCn1cc/c(=N/C(=O)[N-]c2ccc(Cl)c(S(=O)(=O)[NH+]3CCOCC3)c2)[n-]1 (3D coordinates assigned)
CCn1cc/c(=N/C(=O)[N-]c2ccc(Cl)c(S(=O)(=O)[NH+]3CCOCC3)c2)[n-]1 (nonaromatic ring conformer: 92.40492653541992 kcal/mol)

>  <smiles>  (78) 
CCn1ccc(=NC(=O)Nc2ccc(Cl)c(S(=O)(=O)N3CCOCC3)c2)[nH]1

>  <score_type>  (78) 
oracle

>  <origin>  (78) 
adg

>  <m_score__min__energy>  (78) 
-10.109999999999999

>  <m_primary>  (78) 
energy

$$$$
78:0
     RDKit          3D

 55 57  0  0  0  0  0  0  0  0999 V2000
   58.7800   30.4020   49.3110 N   0  0  0  0  0  0  0  0  0  0  0  0
   59.9090   29.2850   48.6270 S   0  0  0  0  0  0  0  0  0  0  0  0
   60.0870   28.1160   49.5530 O   0  0  0  0  0  0  0  0  0  0  0  0
   61.2380   29.9630   48.4430 O   0  0  0  0  0  0  0  0  0  0  0  0
   59.3080   28.7300   47.0680 C   0  0  0  0  0  0  0  0  0  0  0  0
   59.8290   27.5680   46.4820 C   0  0  0  0  0  0  0  0  0  0  0  0
   59.3350   27.1200   45.2540 C   0  0  0  0  0  0  0  0  0  0  0  0
   58.3150   27.8250   44.6080 C   0  0  0  0  0  0  0  0  0  0  0  0
   57.7860   28.9850   45.1890 C   0  0  0  0  0  0  0  0  0  0  0  0
   56.4690   29.8610   44.4060 S   0  0  0  0  0  0  0  0  0  0  0  0
   56.6400   29.7480   42.9190 O   0  0  0  0  0  0  0  0  0  0  0  0
   55.1500   29.2400   44.7730 O   0  0  0  0  0  0  0  0  0  0  0  0
   56.4570   31.5480   44.8420 N   0  0  0  0  0  0  0  0  0  0  0  0
   57.4900   32.3170   44.1390 C   0  0  0  0  0  0  0  0  0  0  0  0
   58.4850   32.9880   45.1090 C   0  0  0  0  0  0  0  0  0  0  0  0
   59.4870   31.9570   45.6780 C   0  0  0  0  0  0  0  0  0  0  0  0
   60.1010   32.4610   46.9910 C   0  0  0  0  0  0  0  0  0  0  0  0
   59.0870   32.6660   48.0600 N   0  0  0  0  0  0  0  0  0  0  0  0
   59.5080   33.7120   49.0240 C   0  0  0  0  0  0  0  0  0  0  0  0
   60.6940   34.5460   48.4990 C   0  0  0  0  0  0  0  0  0  0  0  0
   62.0380   33.9910   48.9060 C   0  0  0  0  0  0  0  0  0  0  0  0
   62.9430   33.5280   47.9350 C   0  0  0  0  0  0  0  0  0  0  0  0
   64.1850   33.0120   48.3150 C   0  0  0  0  0  0  0  0  0  0  0  0
   64.5300   32.9380   49.6680 C   0  0  0  0  0  0  0  0  0  0  0  0
   66.0880   32.2900   50.1440 Cl  0  0  0  0  0  0  0  0  0  0  0  0
   63.6270   33.3750   50.6430 C   0  0  0  0  0  0  0  0  0  0  0  0
   62.3840   33.8940   50.2650 C   0  0  0  0  0  0  0  0  0  0  0  0
   57.7180   32.9290   47.5410 C   0  0  0  0  0  0  0  0  0  0  0  0
   57.7360   33.7400   46.2380 C   0  0  0  0  0  0  0  0  0  0  0  0
   58.2810   29.4320   46.4220 C   0  0  0  0  0  0  0  0  0  0  0  0
   59.3310   31.2170   49.6600 H   0  0  0  0  0  0  0  0  0  0  0  0
   58.1840   30.7520   48.5280 H   0  0  0  0  0  0  0  0  0  0  0  0
   60.6281   27.0079   46.9897 H   0  0  0  0  0  0  0  0  0  0  0  0
   59.7496   26.2106   44.7946 H   0  0  0  0  0  0  0  0  0  0  0  0
   57.9273   27.4685   43.6423 H   0  0  0  0  0  0  0  0  0  0  0  0
   58.0462   31.6380   43.4760 H   0  0  0  0  0  0  0  0  0  0  0  0
   56.9872   33.1129   43.5701 H   0  0  0  0  0  0  0  0  0  0  0  0
   59.0649   33.7324   44.5437 H   0  0  0  0  0  0  0  0  0  0  0  0
   58.9614   31.0092   45.8661 H   0  0  0  0  0  0  0  0  0  0  0  0
   60.2941   31.8085   44.9455 H   0  0  0  0  0  0  0  0  0  0  0  0
   60.8367   31.7221   47.3414 H   0  0  0  0  0  0  0  0  0  0  0  0
   60.5677   33.4357   46.7858 H   0  0  0  0  0  0  0  0  0  0  0  0
   58.6576   34.3843   49.2108 H   0  0  0  0  0  0  0  0  0  0  0  0
   59.8318   33.2092   49.9472 H   0  0  0  0  0  0  0  0  0  0  0  0
   60.6444   34.5713   47.4004 H   0  0  0  0  0  0  0  0  0  0  0  0
   60.6080   35.5501   48.9398 H   0  0  0  0  0  0  0  0  0  0  0  0
   62.6720   33.5721   46.8698 H   0  0  0  0  0  0  0  0  0  0  0  0
   64.8925   32.6634   47.5482 H   0  0  0  0  0  0  0  0  0  0  0  0
   63.8946   33.3105   51.7080 H   0  0  0  0  0  0  0  0  0  0  0  0
   61.6735   34.2280   51.0355 H   0  0  0  0  0  0  0  0  0  0  0  0
   57.2202   31.9665   47.3520 H   0  0  0  0  0  0  0  0  0  0  0  0
   57.1784   33.5181   48.2971 H   0  0  0  0  0  0  0  0  0  0  0  0
   56.6999   33.9244   45.9179 H   0  0  0  0  0  0  0  0  0  0  0  0
   58.2623   34.6868   46.4290 H   0  0  0  0  0  0  0  0  0  0  0  0
   57.8616   30.3376   46.8846 H   0  0  0  0  0  0  0  0  0  0  0  0
  1  2  1  0
  2  3  2  0
  2  4  2  0
  2  5  1  0
  5  6  2  0
  6  7  1  0
  7  8  2  0
  8  9  1  0
  9 10  1  0
 10 11  2  0
 10 12  2  0
 10 13  1  0
 13 14  1  0
 14 15  1  0
 15 16  1  0
 16 17  1  0
 17 18  1  0
 18 19  1  0
 19 20  1  0
 20 21  1  0
 21 22  2  0
 22 23  1  0
 23 24  2  0
 24 25  1  0
 24 26  1  0
 26 27  2  0
 18 28  1  0
 28 29  1  0
  9 30  2  0
 30  5  1  0
 29 15  1  0
 27 21  1  0
  1 31  1  0
  1 32  1  0
  6 33  1  0
  7 34  1  0
  8 35  1  0
 14 36  1  0
 14 37  1  0
 15 38  1  0
 16 39  1  0
 16 40  1  0
 17 41  1  0
 17 42  1  0
 19 43  1  0
 19 44  1  0
 20 45  1  0
 20 46  1  0
 22 47  1  0
 23 48  1  0
 26 49  1  0
 27 50  1  0
 28 51  1  0
 28 52  1  0
 29 53  1  0
 29 54  1  0
 30 55  1  0
M  CHG  1  13  -1
M  END
>  <UniqueID>  (79) 
73

>  <SMILES>  (79) 
NS(=O)(=O)c1cccc(S(=O)(=O)[N-]CC2CCN(CCc3ccc(Cl)cc3)CC2)c1

>  <Energy>  (79) 
61.996499495353426

>  <Genealogy>  (79) 
NS(=O)(=O)c1cccc(S(=O)(=O)[N-]CC2CCN(CCc3ccc(Cl)cc3)CC2)c1 (protonated)
NS(=O)(=O)c1cccc(S(=O)(=O)[N-]CC2CCN(CCc3ccc(Cl)cc3)CC2)c1 (3D coordinates assigned)
NS(=O)(=O)c1cccc(S(=O)(=O)[N-]CC2CCN(CCc3ccc(Cl)cc3)CC2)c1 (nonaromatic ring conformer: 61.996499495353426 kcal/mol)

>  <smiles>  (79) 
NS(=O)(=O)c1cccc(S(=O)(=O)NCC2CCN(CCc3ccc(Cl)cc3)CC2)c1

>  <score_type>  (79) 
oracle

>  <origin>  (79) 
adg

>  <m_score__min__energy>  (79) 
-12

>  <m_primary>  (79) 
energy

$$$$
79:0
     RDKit          3D

 50 53  0  0  0  0  0  0  0  0999 V2000
   60.6120   29.3380   47.3570 N   0  0  0  0  0  0  0  0  0  0  0  0
   60.1550   28.0450   47.7730 C   0  0  0  0  0  0  0  0  0  0  0  0
   60.8010   27.4280   48.6640 O   0  0  0  0  0  0  0  0  0  0  0  0
   58.9510   27.4130   47.1750 C   0  0  0  0  0  0  0  0  0  0  0  0
   58.8200   26.0100   47.1810 C   0  0  0  0  0  0  0  0  0  0  0  0
   57.7220   25.3960   46.5700 C   0  0  0  0  0  0  0  0  0  0  0  0
   56.7570   26.1700   45.9200 C   0  0  0  0  0  0  0  0  0  0  0  0
   56.8730   27.5710   45.8970 C   0  0  0  0  0  0  0  0  0  0  0  0
   55.9040   28.3920   45.2350 N   0  0  0  0  0  0  0  0  0  0  0  0
   56.2980   29.7080   44.1750 S   0  0  0  0  0  0  0  0  0  0  0  0
   55.8710   29.3320   42.7860 O   0  0  0  0  0  0  0  0  0  0  0  0
   55.5250   30.9310   44.5930 O   0  0  0  0  0  0  0  0  0  0  0  0
   58.0540   30.0640   44.1990 C   0  0  0  0  0  0  0  0  0  0  0  0
   58.3060   31.4410   44.7210 C   0  0  0  0  0  0  0  0  0  0  0  0
   59.1060   31.7070   45.7780 N   0  0  0  0  0  0  0  0  0  0  0  0
   59.1490   33.0370   46.0620 C   0  0  0  0  0  0  0  0  0  0  0  0
   59.9560   33.5580   47.1830 C   0  0  0  0  0  0  0  0  0  0  0  0
   59.4480   34.4210   47.9480 O   0  0  0  0  0  0  0  0  0  0  0  0
   61.2910   33.0820   47.4390 N   0  0  0  0  0  0  0  0  0  0  0  0
   62.4220   33.7840   46.8040 C   0  0  0  0  0  0  0  0  0  0  0  0
   63.7830   33.1610   47.1560 C   0  0  0  0  0  0  0  0  0  0  0  0
   63.8540   32.8390   48.6210 C   0  0  0  0  0  0  0  0  0  0  0  0
   65.0320   33.0450   49.3600 C   0  0  0  0  0  0  0  0  0  0  0  0
   65.0800   32.6940   50.7130 C   0  0  0  0  0  0  0  0  0  0  0  0
   63.9630   32.1220   51.3290 C   0  0  0  0  0  0  0  0  0  0  0  0
   62.7930   31.8960   50.5930 C   0  0  0  0  0  0  0  0  0  0  0  0
   62.7320   32.2650   49.2410 C   0  0  0  0  0  0  0  0  0  0  0  0
   61.5070   31.9960   48.4140 C   0  0  0  0  0  0  0  0  0  0  0  0
   58.3570   33.8380   45.2380 C   0  0  0  0  0  0  0  0  0  0  0  0
   57.6010   32.8410   44.1150 S   0  0  0  0  0  0  0  0  0  0  0  0
   57.9580   28.1870   46.5430 C   0  0  0  0  0  0  0  0  0  0  0  0
   61.5220   29.7050   47.7170 H   0  0  0  0  0  0  0  0  0  0  0  0
   60.0160   29.9720   46.7760 H   0  0  0  0  0  0  0  0  0  0  0  0
   59.5877   25.3926   47.6703 H   0  0  0  0  0  0  0  0  0  0  0  0
   57.6178   24.3014   46.6012 H   0  0  0  0  0  0  0  0  0  0  0  0
   55.9045   25.6819   45.4251 H   0  0  0  0  0  0  0  0  0  0  0  0
   58.5618   29.3338   44.8463 H   0  0  0  0  0  0  0  0  0  0  0  0
   58.4425   29.9982   43.1720 H   0  0  0  0  0  0  0  0  0  0  0  0
   62.2904   33.7473   45.7125 H   0  0  0  0  0  0  0  0  0  0  0  0
   62.4236   34.8177   47.1801 H   0  0  0  0  0  0  0  0  0  0  0  0
   63.9182   32.2364   46.5757 H   0  0  0  0  0  0  0  0  0  0  0  0
   64.5768   33.8826   46.9127 H   0  0  0  0  0  0  0  0  0  0  0  0
   65.9165   33.4825   48.8739 H   0  0  0  0  0  0  0  0  0  0  0  0
   65.9981   32.8683   51.2933 H   0  0  0  0  0  0  0  0  0  0  0  0
   64.0031   31.8489   52.3938 H   0  0  0  0  0  0  0  0  0  0  0  0
   61.9216   31.4290   51.0753 H   0  0  0  0  0  0  0  0  0  0  0  0
   61.6362   31.0461   47.8746 H   0  0  0  0  0  0  0  0  0  0  0  0
   60.6340   31.9387   49.0808 H   0  0  0  0  0  0  0  0  0  0  0  0
   58.2467   34.9301   45.3106 H   0  0  0  0  0  0  0  0  0  0  0  0
   58.0328   29.2844   46.5554 H   0  0  0  0  0  0  0  0  0  0  0  0
  1  2  1  0
  2  3  2  0
  2  4  1  0
  4  5  2  0
  5  6  1  0
  6  7  2  0
  7  8  1  0
  8  9  1  0
  9 10  1  0
 10 11  2  0
 10 12  2  0
 10 13  1  0
 13 14  1  0
 14 15  2  0
 15 16  1  0
 16 17  1  0
 17 18  2  0
 17 19  1  0
 19 20  1  0
 20 21  1  0
 21 22  1  0
 22 23  2  0
 23 24  1  0
 24 25  2  0
 25 26  1  0
 26 27  2  0
 27 28  1  0
 16 29  2  0
 29 30  1  0
  8 31  2  0
 31  4  1  0
 30 14  1  0
 28 19  1  0
 27 22  1  0
  1 32  1  0
  1 33  1  0
  5 34  1  0
  6 35  1  0
  7 36  1  0
 13 37  1  0
 13 38  1  0
 20 39  1  0
 20 40  1  0
 21 41  1  0
 21 42  1  0
 23 43  1  0
 24 44  1  0
 25 45  1  0
 26 46  1  0
 28 47  1  0
 28 48  1  0
 29 49  1  0
 31 50  1  0
M  CHG  1   9  -1
M  END
>  <UniqueID>  (80) 
74

>  <SMILES>  (80) 
NC(=O)c1cccc([N-]S(=O)(=O)Cc2nc(C(=O)N3CCc4ccccc4C3)cs2)c1

>  <Energy>  (80) 
91.40321859179122

>  <Genealogy>  (80) 
NC(=O)c1cccc([N-]S(=O)(=O)Cc2nc(C(=O)N3CCc4ccccc4C3)cs2)c1 (protonated)
NC(=O)c1cccc([N-]S(=O)(=O)Cc2nc(C(=O)N3CCc4ccccc4C3)cs2)c1 (3D coordinates assigned)
NC(=O)c1cccc([N-]S(=O)(=O)Cc2nc(C(=O)N3CCc4ccccc4C3)cs2)c1 (nonaromatic ring conformer: 91.40321859179122 kcal/mol)

>  <smiles>  (80) 
NC(=O)c1cccc(NS(=O)(=O)Cc2nc(C(=O)N3CCc4ccccc4C3)cs2)c1

>  <score_type>  (80) 
oracle

>  <origin>  (80) 
adg

>  <m_score__min__energy>  (80) 
-11.539999999999999

>  <m_primary>  (80) 
energy

$$$$
80:0
     RDKit          3D

 52 55  0  0  0  0  0  0  0  0999 V2000
   60.7050   30.8380   50.4680 C   0  0  0  0  0  0  0  0  0  0  0  0
   61.1320   29.6230   49.6480 C   0  0  0  0  0  0  0  0  0  0  0  0
   60.0610   29.2490   48.6590 C   0  0  0  0  0  0  0  0  0  0  0  0
   59.4110   30.2440   47.9120 C   0  0  0  0  0  0  0  0  0  0  0  0
   58.4580   29.8930   46.9520 C   0  0  0  0  0  0  0  0  0  0  0  0
   58.1500   28.5460   46.7220 C   0  0  0  0  0  0  0  0  0  0  0  0
   57.0040   28.1210   45.4540 S   0  0  0  0  0  0  0  0  0  0  0  0
   56.0200   27.1260   46.0020 O   0  0  0  0  0  0  0  0  0  0  0  0
   57.7130   27.5150   44.2730 O   0  0  0  0  0  0  0  0  0  0  0  0
   56.1570   29.5440   44.9420 N   0  0  0  0  0  0  0  0  0  0  0  0
   56.7240   30.5850   44.1350 C   0  0  0  0  0  0  0  0  0  0  0  0
   56.6390   30.5710   42.7300 C   0  0  0  0  0  0  0  0  0  0  0  0
   57.2250   31.5930   41.9820 C   0  0  0  0  0  0  0  0  0  0  0  0
   57.9050   32.6300   42.6240 C   0  0  0  0  0  0  0  0  0  0  0  0
   57.9960   32.6630   44.0200 C   0  0  0  0  0  0  0  0  0  0  0  0
   58.7050   33.7170   44.6170 O   0  0  0  0  0  0  0  0  0  0  0  0
   58.3450   34.3310   45.8510 C   0  0  0  0  0  0  0  0  0  0  0  0
   59.4680   34.1610   46.8330 C   0  0  0  0  0  0  0  0  0  0  0  0
   59.2320   34.2770   48.2020 C   0  0  0  0  0  0  0  0  0  0  0  0
   60.2890   34.0920   49.0920 C   0  0  0  0  0  0  0  0  0  0  0  0
   60.0650   34.2010   50.3310 O   0  0  0  0  0  0  0  0  0  0  0  0
   61.5430   33.7910   48.6220 N   0  0  0  0  0  0  0  0  0  0  0  0
   62.5890   33.6080   49.4950 C   0  0  0  0  0  0  0  0  0  0  0  0
   63.8650   33.2930   49.0270 C   0  0  0  0  0  0  0  0  0  0  0  0
   64.0810   33.1640   47.6600 C   0  0  0  0  0  0  0  0  0  0  0  0
   63.0260   33.3510   46.7710 C   0  0  0  0  0  0  0  0  0  0  0  0
   61.7500   33.6700   47.2620 C   0  0  0  0  0  0  0  0  0  0  0  0
   60.7170   33.8510   46.3910 N   0  0  0  0  0  0  0  0  0  0  0  0
   57.3860   31.6400   44.7740 C   0  0  0  0  0  0  0  0  0  0  0  0
   58.7940   27.5520   47.4690 C   0  0  0  0  0  0  0  0  0  0  0  0
   59.7480   27.9000   48.4280 C   0  0  0  0  0  0  0  0  0  0  0  0
   60.7871   30.6043   51.5397 H   0  0  0  0  0  0  0  0  0  0  0  0
   61.3575   31.6903   50.2275 H   0  0  0  0  0  0  0  0  0  0  0  0
   59.6628   31.0948   50.2275 H   0  0  0  0  0  0  0  0  0  0  0  0
   62.0586   29.8608   49.1049 H   0  0  0  0  0  0  0  0  0  0  0  0
   61.2974   28.7754   50.3294 H   0  0  0  0  0  0  0  0  0  0  0  0
   59.6526   31.3035   48.0828 H   0  0  0  0  0  0  0  0  0  0  0  0
   57.9476   30.6778   46.3745 H   0  0  0  0  0  0  0  0  0  0  0  0
   56.1094   29.7525   42.2205 H   0  0  0  0  0  0  0  0  0  0  0  0
   57.1511   31.5817   40.8845 H   0  0  0  0  0  0  0  0  0  0  0  0
   58.3728   33.4272   42.0277 H   0  0  0  0  0  0  0  0  0  0  0  0
   58.1579   35.4026   45.6879 H   0  0  0  0  0  0  0  0  0  0  0  0
   57.4335   33.8591   46.2466 H   0  0  0  0  0  0  0  0  0  0  0  0
   58.2243   34.5116   48.5754 H   0  0  0  0  0  0  0  0  0  0  0  0
   62.4177   33.7113   50.5767 H   0  0  0  0  0  0  0  0  0  0  0  0
   64.6943   33.1477   49.7349 H   0  0  0  0  0  0  0  0  0  0  0  0
   65.0833   32.9147   47.2814 H   0  0  0  0  0  0  0  0  0  0  0  0
   63.1915   33.2492   45.6883 H   0  0  0  0  0  0  0  0  0  0  0  0
   60.8800   33.7480   45.3640 H   0  0  0  0  0  0  0  0  0  0  0  0
   57.4305   31.6710   45.8727 H   0  0  0  0  0  0  0  0  0  0  0  0
   58.5477   26.4933   47.3000 H   0  0  0  0  0  0  0  0  0  0  0  0
   60.2564   27.1135   49.0049 H   0  0  0  0  0  0  0  0  0  0  0  0
  1  2  1  0
  2  3  1  0
  3  4  2  0
  4  5  1  0
  5  6  2  0
  6  7  1  0
  7  8  2  0
  7  9  2  0
  7 10  1  0
 10 11  1  0
 11 12  2  0
 12 13  1  0
 13 14  2  0
 14 15  1  0
 15 16  1  0
 16 17  1  0
 17 18  1  0
 18 19  2  0
 19 20  1  0
 20 21  2  0
 20 22  1  0
 22 23  1  0
 23 24  2  0
 24 25  1  0
 25 26  2  0
 26 27  1  0
 27 28  2  0
 15 29  2  0
  6 30  1  0
 30 31  2  0
 31  3  1  0
 29 11  1  0
 28 18  1  0
 27 22  1  0
  1 32  1  0
  1 33  1  0
  1 34  1  0
  2 35  1  0
  2 36  1  0
  4 37  1  0
  5 38  1  0
 12 39  1  0
 13 40  1  0
 14 41  1  0
 17 42  1  0
 17 43  1  0
 19 44  1  0
 23 45  1  0
 24 46  1  0
 25 47  1  0
 26 48  1  0
 28 49  1  0
 29 50  1  0
 30 51  1  0
 31 52  1  0
M  CHG  2  10  -1  28   1
M  END
>  <UniqueID>  (81) 
75

>  <SMILES>  (81) 
CCc1ccc(S(=O)(=O)[N-]c2cccc(OCc3cc(=O)n4ccccc4[nH+]3)c2)cc1

>  <Energy>  (81) 
61.299909478743466

>  <Genealogy>  (81) 
CCc1ccc(S(=O)(=O)[N-]c2cccc(OCc3cc(=O)n4ccccc4[nH+]3)c2)cc1 (protonated)
CCc1ccc(S(=O)(=O)[N-]c2cccc(OCc3cc(=O)n4ccccc4[nH+]3)c2)cc1 (3D coordinates assigned)
CCc1ccc(S(=O)(=O)[N-]c2cccc(OCc3cc(=O)n4ccccc4[nH+]3)c2)cc1 (optimized conformer: 61.299909478743466 kcal/mol)

>  <smiles>  (81) 
CCc1ccc(S(=O)(=O)Nc2cccc(OCc3cc(=O)n4ccccc4n3)c2)cc1

>  <score_type>  (81) 
oracle

>  <origin>  (81) 
adg

>  <m_score__min__energy>  (81) 
-9.5199999999999996

>  <m_primary>  (81) 
energy

$$$$
81:0
     RDKit          3D

 48 51  0  0  0  0  0  0  0  0999 V2000
   60.0033   31.2335   47.2232 H   0  0  0  0  0  0  0  0  0  0  0  0
   59.1690   31.7930   46.7750 C   0  0  0  0  0  0  0  0  0  0  0  0
   57.0320   26.9430   45.5210 N   0  0  0  0  0  0  0  0  0  0  0  0
   57.7070   26.2200   46.4390 C   0  0  0  0  0  0  0  0  0  0  0  0
   57.1740   25.2950   47.1810 N   0  0  0  0  0  0  0  0  0  0  0  0
   56.3130   29.7780   44.4210 C   0  0  0  0  0  0  0  0  0  0  0  0
   55.2120   29.3570   44.8660 O   0  0  0  0  0  0  0  0  0  0  0  0
   57.3170   28.8110   43.8710 C   0  0  0  0  0  0  0  0  0  0  0  0
   56.8435   28.2127   43.0786 H   0  0  0  0  0  0  0  0  0  0  0  0
   58.1676   29.3804   43.4680 H   0  0  0  0  0  0  0  0  0  0  0  0
   57.8230   27.8910   44.9450 C   0  0  0  0  0  0  0  0  0  0  0  0
   58.3790   31.2000   45.8410 N   0  0  0  0  0  0  0  0  0  0  0  0
   57.3380   31.8450   45.2500 C   0  0  0  0  0  0  0  0  0  0  0  0
   56.6040   31.1830   44.4000 N   0  0  0  0  0  0  0  0  0  0  0  0
   56.1190   24.3940   46.8020 C   0  0  0  0  0  0  0  0  0  0  0  0
   55.9710   23.1060   47.3940 C   0  0  0  0  0  0  0  0  0  0  0  0
   56.6997   22.7651   48.1442 H   0  0  0  0  0  0  0  0  0  0  0  0
   54.9020   22.2650   47.0290 C   0  0  0  0  0  0  0  0  0  0  0  0
   54.7909   21.2628   47.4686 H   0  0  0  0  0  0  0  0  0  0  0  0
   53.9920   22.7450   46.0940 C   0  0  0  0  0  0  0  0  0  0  0  0
   52.8970   22.1310   45.6170 N   0  0  0  0  0  0  0  0  0  0  0  0
   52.3180   22.9690   44.7610 N   0  0  0  0  0  0  0  0  0  0  0  0
   53.0420   24.1130   44.6970 C   0  0  0  0  0  0  0  0  0  0  0  0
   52.8103   24.9908   44.0760 H   0  0  0  0  0  0  0  0  0  0  0  0
   54.1150   23.9840   45.5430 C   0  0  0  0  0  0  0  0  0  0  0  0
   55.1580   24.8450   45.8710 C   0  0  0  0  0  0  0  0  0  0  0  0
   55.2314   25.8453   45.4192 H   0  0  0  0  0  0  0  0  0  0  0  0
   59.3040   26.7170   46.5770 S   0  0  0  0  0  0  0  0  0  0  0  0
   59.1410   27.9090   45.3980 C   0  0  0  0  0  0  0  0  0  0  0  0
   59.9358   28.5836   45.0470 H   0  0  0  0  0  0  0  0  0  0  0  0
   57.0560   33.1740   45.6250 C   0  0  0  0  0  0  0  0  0  0  0  0
   56.2123   33.7116   45.1676 H   0  0  0  0  0  0  0  0  0  0  0  0
   57.8550   33.8030   46.5810 C   0  0  0  0  0  0  0  0  0  0  0  0
   57.6447   34.8422   46.8738 H   0  0  0  0  0  0  0  0  0  0  0  0
   58.9230   33.1150   47.1680 C   0  0  0  0  0  0  0  0  0  0  0  0
   59.7610   33.7710   48.2410 C   0  0  0  0  0  0  0  0  0  0  0  0
   59.3278   34.7536   48.4795 H   0  0  0  0  0  0  0  0  0  0  0  0
   60.7871   33.8726   47.8578 H   0  0  0  0  0  0  0  0  0  0  0  0
   59.8110   32.9570   49.4770 N   0  0  0  0  0  0  0  0  0  0  0  0
   60.0240   33.5810   50.2900 H   0  0  0  0  0  0  0  0  0  0  0  0
   58.5260   32.2790   49.7310 C   0  0  0  0  0  0  0  0  0  0  0  0
   58.3645   32.1938   50.8157 H   0  0  0  0  0  0  0  0  0  0  0  0
   57.7084   32.8631   49.2833 H   0  0  0  0  0  0  0  0  0  0  0  0
   58.5467   31.2744   49.2833 H   0  0  0  0  0  0  0  0  0  0  0  0
   60.8910   31.9610   49.3820 C   0  0  0  0  0  0  0  0  0  0  0  0
   61.2092   31.6676   50.3933 H   0  0  0  0  0  0  0  0  0  0  0  0
   60.5265   31.0754   48.8409 H   0  0  0  0  0  0  0  0  0  0  0  0
   61.7443   32.3959   48.8409 H   0  0  0  0  0  0  0  0  0  0  0  0
  1  2  1  0
  2  3  1  0
  3  4  1  0
  4  5  2  0
  5  6  1  0
  6  7  2  0
  6  8  1  0
  8  9  1  0
  8 10  1  0
  8 11  1  0
 11 12  1  0
 12 13  1  0
 13 14  2  0
 14 15  1  0
 15 16  2  0
 16 17  1  0
 16 18  1  0
 18 19  1  0
 18 20  2  0
 20 21  1  0
 21 22  1  0
 22 23  2  0
 23 24  1  0
 23 25  1  0
 25 26  2  0
 26 27  1  0
 13 28  1  0
 28 29  1  0
 29 30  1  0
  4 31  1  0
 31 32  1  0
 31 33  2  0
 33 34  1  0
 33 35  1  0
 35 36  1  0
 36 37  1  0
 36 38  1  0
 36 39  1  0
 39 40  1  0
 39 41  1  0
 41 42  1  0
 41 43  1  0
 41 44  1  0
 39 45  1  0
 45 46  1  0
 45 47  1  0
 45 48  1  0
 35  2  2  0
 29 11  2  0
 26 15  1  0
 25 20  1  0
M  CHG  4   3  -1  12  -1  21  -1  39   1
M  END
>  <UniqueID>  (82) 
76

>  <SMILES>  (82) 
C[NH+](C)Cc1cc/c(=N\C(=O)Cc2cs/c(=N/c3ccc4[n-]ncc4c3)[n-]2)[n-]c1

>  <Energy>  (82) 
126.43425875784136

>  <Genealogy>  (82) 
C[NH+](C)Cc1ccc(=NC(=O)Cc2csc(=Nc3ccc4[n-]ncc4c3)[n-]2)[n-]c1 (protonated)
C[NH+](C)Cc1cc/c(=N\C(=O)Cc2cs/c(=N/c3ccc4[n-]ncc4c3)[n-]2)[n-]c1 (cis-trans isomerization)
C[NH+](C)Cc1cc/c(=N\C(=O)Cc2cs/c(=N/c3ccc4[n-]ncc4c3)[n-]2)[n-]c1 (3D coordinates assigned)
C[NH+](C)Cc1cc/c(=N\C(=O)Cc2cs/c(=N/c3ccc4[n-]ncc4c3)[n-]2)[n-]c1 (optimized conformer: 126.43425875784136 kcal/mol)

>  <smiles>  (82) 
CN(C)Cc1ccc(=NC(=O)Cc2csc(=Nc3ccc4[nH]ncc4c3)[nH]2)[nH]c1

>  <score_type>  (82) 
oracle

>  <origin>  (82) 
adg

>  <m_score__min__energy>  (82) 
-11.550000000000001

>  <m_primary>  (82) 
energy

$$$$
82:0
     RDKit          3D

 43 45  0  0  0  0  0  0  0  0999 V2000
   53.6040   31.0580   50.9430 N   0  0  0  0  0  0  0  0  0  0  0  0
   54.7140   30.5580   51.6930 C   0  0  0  0  0  0  0  0  0  0  0  0
   54.6990   29.1880   52.1240 N   0  0  0  0  0  0  0  0  0  0  0  0
   55.7260   31.3440   51.9450 N   0  0  0  0  0  0  0  0  0  0  0  0
   57.0530   31.1390   51.4400 C   0  0  0  0  0  0  0  0  0  0  0  0
   57.6890   32.1750   50.7460 C   0  0  0  0  0  0  0  0  0  0  0  0
   58.9930   32.0030   50.2460 C   0  0  0  0  0  0  0  0  0  0  0  0
   59.6580   33.0260   49.4910 N   0  0  0  0  0  0  0  0  0  0  0  0
   59.4280   33.3170   47.7980 S   0  0  0  0  0  0  0  0  0  0  0  0
   60.6780   33.9170   47.2230 O   0  0  0  0  0  0  0  0  0  0  0  0
   58.2880   34.2820   47.6210 O   0  0  0  0  0  0  0  0  0  0  0  0
   59.0880   31.7980   46.9750 C   0  0  0  0  0  0  0  0  0  0  0  0
   58.3010   31.7980   45.8150 C   0  0  0  0  0  0  0  0  0  0  0  0
   58.0930   30.6120   45.1050 C   0  0  0  0  0  0  0  0  0  0  0  0
   58.6620   29.4110   45.5540 C   0  0  0  0  0  0  0  0  0  0  0  0
   58.4900   28.1440   44.7630 C   0  0  0  0  0  0  0  0  0  0  0  0
   57.5060   27.2420   45.4390 C   0  0  0  0  0  0  0  0  0  0  0  0
   57.8480   25.7020   46.0340 S   0  0  0  0  0  0  0  0  0  0  0  0
   56.2580   25.4470   46.5170 C   0  0  0  0  0  0  0  0  0  0  0  0
   55.8500   24.4010   47.0850 O   0  0  0  0  0  0  0  0  0  0  0  0
   55.4520   26.4910   46.2320 N   0  0  0  0  0  0  0  0  0  0  0  0
   56.1450   27.4890   45.6230 C   0  0  0  0  0  0  0  0  0  0  0  0
   55.5270   28.6670   45.2180 O   0  0  0  0  0  0  0  0  0  0  0  0
   59.4450   29.4140   46.7180 C   0  0  0  0  0  0  0  0  0  0  0  0
   59.6540   30.6000   47.4270 C   0  0  0  0  0  0  0  0  0  0  0  0
   59.6640   30.8000   50.4860 C   0  0  0  0  0  0  0  0  0  0  0  0
   59.0490   29.7760   51.2060 C   0  0  0  0  0  0  0  0  0  0  0  0
   57.7490   29.9440   51.6920 C   0  0  0  0  0  0  0  0  0  0  0  0
   57.1600   28.9270   52.4370 O   0  0  0  0  0  0  0  0  0  0  0  0
   52.7830   30.4440   50.7420 H   0  0  0  0  0  0  0  0  0  0  0  0
   53.5800   32.0470   50.6100 H   0  0  0  0  0  0  0  0  0  0  0  0
   55.5400   28.7170   52.5210 H   0  0  0  0  0  0  0  0  0  0  0  0
   53.8460   28.6070   51.9660 H   0  0  0  0  0  0  0  0  0  0  0  0
   55.5720   32.1960   52.5280 H   0  0  0  0  0  0  0  0  0  0  0  0
   57.1659   33.1301   50.5904 H   0  0  0  0  0  0  0  0  0  0  0  0
   57.8453   32.7349   45.4621 H   0  0  0  0  0  0  0  0  0  0  0  0
   57.4810   30.6205   44.1910 H   0  0  0  0  0  0  0  0  0  0  0  0
   58.1236   28.3915   43.7558 H   0  0  0  0  0  0  0  0  0  0  0  0
   59.4599   27.6296   44.6941 H   0  0  0  0  0  0  0  0  0  0  0  0
   59.8973   28.4769   47.0749 H   0  0  0  0  0  0  0  0  0  0  0  0
   60.2644   30.5922   48.3420 H   0  0  0  0  0  0  0  0  0  0  0  0
   60.6859   30.6600   50.1036 H   0  0  0  0  0  0  0  0  0  0  0  0
   59.5875   28.8350   51.3917 H   0  0  0  0  0  0  0  0  0  0  0  0
  1  2  1  0
  2  3  1  0
  2  4  2  3
  4  5  1  0
  5  6  2  0
  6  7  1  0
  7  8  1  0
  8  9  1  0
  9 10  2  0
  9 11  2  0
  9 12  1  0
 12 13  2  0
 13 14  1  0
 14 15  2  0
 15 16  1  0
 16 17  1  0
 17 18  1  0
 18 19  1  0
 19 20  2  0
 19 21  1  0
 21 22  1  0
 22 23  1  0
 15 24  1  0
 24 25  2  0
  7 26  2  0
 26 27  1  0
 27 28  2  0
 28 29  1  0
 28  5  1  0
 25 12  1  0
 22 17  2  0
  1 30  1  0
  1 31  1  0
  3 32  1  0
  3 33  1  0
  4 34  1  0
  6 35  1  0
 13 36  1  0
 14 37  1  0
 16 38  1  0
 16 39  1  0
 24 40  1  0
 25 41  1  0
 26 42  1  0
 27 43  1  0
M  CHG  5   4   1   8  -1  21  -1  23  -1  29  -1
M  END
>  <UniqueID>  (83) 
77

>  <SMILES>  (83) 
NC(N)=[NH+]c1cc([N-]S(=O)(=O)c2ccc(Cc3sc(=O)[n-]c3[O-])cc2)ccc1[O-]

>  <Energy>  (83) 
81.02532075705479

>  <Genealogy>  (83) 
NC(N)=[NH+]c1cc([N-]S(=O)(=O)c2ccc(Cc3sc(=O)[n-]c3[O-])cc2)ccc1[O-] (protonated)
NC(N)=[NH+]c1cc([N-]S(=O)(=O)c2ccc(Cc3sc(=O)[n-]c3[O-])cc2)ccc1[O-] (3D coordinates assigned)
NC(N)=[NH+]c1cc([N-]S(=O)(=O)c2ccc(Cc3sc(=O)[n-]c3[O-])cc2)ccc1[O-] (optimized conformer: 81.02532075705479 kcal/mol)

>  <smiles>  (83) 
NC(N)=Nc1cc(NS(=O)(=O)c2ccc(Cc3sc(=O)[nH]c3O)cc2)ccc1O

>  <score_type>  (83) 
oracle

>  <origin>  (83) 
adg

>  <m_score__min__energy>  (83) 
-14.65

>  <m_primary>  (83) 
energy

$$$$
83:0
     RDKit          3D

 56 59  0  0  0  0  0  0  0  0999 V2000
   60.7410   26.8830   49.5230 C   0  0  0  0  0  0  0  0  0  0  0  0
   60.2590   26.3200   48.3080 O   0  0  0  0  0  0  0  0  0  0  0  0
   59.2330   26.8760   47.5300 C   0  0  0  0  0  0  0  0  0  0  0  0
   59.3550   28.1340   46.9130 C   0  0  0  0  0  0  0  0  0  0  0  0
   58.3050   28.6470   46.1500 C   0  0  0  0  0  0  0  0  0  0  0  0
   57.1060   27.9260   46.0090 C   0  0  0  0  0  0  0  0  0  0  0  0
   56.0210   28.4280   45.2130 N   0  0  0  0  0  0  0  0  0  0  0  0
   55.9380   29.7360   44.6380 C   0  0  0  0  0  0  0  0  0  0  0  0
   55.2030   29.9230   43.6340 O   0  0  0  0  0  0  0  0  0  0  0  0
   56.6470   30.8310   45.2270 N   0  0  0  0  0  0  0  0  0  0  0  0
   57.3820   31.8480   44.4790 C   0  0  1  0  0  0  0  0  0  0  0  0
   56.8720   33.2650   44.8760 C   0  0  0  0  0  0  0  0  0  0  0  0
   57.5530   33.8050   46.1720 C   0  0  2  0  0  0  0  0  0  0  0  0
   58.7270   34.7310   45.8320 C   0  0  0  0  0  0  0  0  0  0  0  0
   59.9220   33.7940   45.7280 C   0  0  0  0  0  0  0  0  0  0  0  0
   59.3440   32.4080   46.0670 C   0  0  2  0  0  0  0  0  0  0  0  0
   58.8970   31.6670   44.7730 C   0  0  0  0  0  0  0  0  0  0  0  0
   58.1440   32.6620   46.8800 N   0  0  0  0  0  0  0  0  0  0  0  0
   58.4500   32.9410   48.3000 C   0  0  0  0  0  0  0  0  0  0  0  0
   59.8720   32.5420   48.5800 C   0  0  0  0  0  0  0  0  0  0  0  0
   60.2100   31.1830   48.6820 C   0  0  0  0  0  0  0  0  0  0  0  0
   61.5320   30.8020   48.9270 C   0  0  0  0  0  0  0  0  0  0  0  0
   62.5290   31.7750   49.0520 C   0  0  0  0  0  0  0  0  0  0  0  0
   62.2060   33.1290   48.9230 C   0  0  0  0  0  0  0  0  0  0  0  0
   63.2010   34.0930   49.0310 O   0  0  0  0  0  0  0  0  0  0  0  0
   60.8810   33.5130   48.6870 C   0  0  0  0  0  0  0  0  0  0  0  0
   56.9830   26.6620   46.6070 C   0  0  0  0  0  0  0  0  0  0  0  0
   55.7830   25.9530   46.4340 O   0  0  0  0  0  0  0  0  0  0  0  0
   55.6280   24.8250   45.5790 C   0  0  0  0  0  0  0  0  0  0  0  0
   58.0510   26.1460   47.3660 C   0  0  0  0  0  0  0  0  0  0  0  0
   60.2894   26.3555   50.3761 H   0  0  0  0  0  0  0  0  0  0  0  0
   61.8353   26.7802   49.5660 H   0  0  0  0  0  0  0  0  0  0  0  0
   60.4708   27.9484   49.5660 H   0  0  0  0  0  0  0  0  0  0  0  0
   60.2811   28.7155   47.0322 H   0  0  0  0  0  0  0  0  0  0  0  0
   58.4162   29.6230   45.6550 H   0  0  0  0  0  0  0  0  0  0  0  0
   57.2186   31.7380   43.3968 H   0  0  0  0  0  0  0  0  0  0  0  0
   55.7859   33.2148   45.0431 H   0  0  0  0  0  0  0  0  0  0  0  0
   57.1241   33.9525   44.0552 H   0  0  0  0  0  0  0  0  0  0  0  0
   56.7963   34.3432   46.7617 H   0  0  0  0  0  0  0  0  0  0  0  0
   58.8816   35.4738   46.6284 H   0  0  0  0  0  0  0  0  0  0  0  0
   58.5585   35.3039   44.9082 H   0  0  0  0  0  0  0  0  0  0  0  0
   60.7041   34.0775   46.4477 H   0  0  0  0  0  0  0  0  0  0  0  0
   60.3953   33.8224   44.7354 H   0  0  0  0  0  0  0  0  0  0  0  0
   60.0951   31.7914   46.5824 H   0  0  0  0  0  0  0  0  0  0  0  0
   59.1083   30.5938   44.8898 H   0  0  0  0  0  0  0  0  0  0  0  0
   59.4558   32.0988   43.9297 H   0  0  0  0  0  0  0  0  0  0  0  0
   58.3215   34.0148   48.5012 H   0  0  0  0  0  0  0  0  0  0  0  0
   57.7685   32.3692   48.9471 H   0  0  0  0  0  0  0  0  0  0  0  0
   59.4308   30.4149   48.5686 H   0  0  0  0  0  0  0  0  0  0  0  0
   61.7886   29.7365   49.0216 H   0  0  0  0  0  0  0  0  0  0  0  0
   63.5681   31.4745   49.2520 H   0  0  0  0  0  0  0  0  0  0  0  0
   60.6291   34.5789   48.5850 H   0  0  0  0  0  0  0  0  0  0  0  0
   55.5033   23.9176   46.1881 H   0  0  0  0  0  0  0  0  0  0  0  0
   54.7407   24.9653   44.9442 H   0  0  0  0  0  0  0  0  0  0  0  0
   56.5203   24.7207   44.9442 H   0  0  0  0  0  0  0  0  0  0  0  0
   57.9546   25.1561   47.8360 H   0  0  0  0  0  0  0  0  0  0  0  0
  1  2  1  0
  2  3  1  0
  3  4  2  0
  4  5  1  0
  5  6  2  0
  6  7  1  0
  7  8  1  0
  8  9  2  0
  8 10  1  0
 10 11  1  0
 11 12  1  0
 12 13  1  0
 13 14  1  0
 14 15  1  0
 15 16  1  0
 16 17  1  0
 16 18  1  0
 18 19  1  0
 19 20  1  0
 20 21  2  0
 21 22  1  0
 22 23  2  0
 23 24  1  0
 24 25  1  0
 24 26  2  0
  6 27  1  0
 27 28  1  0
 28 29  1  0
 27 30  2  0
 30  3  1  0
 17 11  1  0
 26 20  1  0
 18 13  1  0
  1 31  1  0
  1 32  1  0
  1 33  1  0
  4 34  1  0
  5 35  1  0
 11 36  1  6
 12 37  1  0
 12 38  1  0
 13 39  1  1
 14 40  1  0
 14 41  1  0
 15 42  1  0
 15 43  1  0
 16 44  1  1
 17 45  1  0
 17 46  1  0
 19 47  1  0
 19 48  1  0
 21 49  1  0
 22 50  1  0
 23 51  1  0
 26 52  1  0
 29 53  1  0
 29 54  1  0
 29 55  1  0
 30 56  1  0
M  CHG  3   7  -1  10  -1  25  -1
M  END
>  <UniqueID>  (84) 
78

>  <SMILES>  (84) 
COc1ccc([N-]C(=O)[N-]C2C[C@H]3CC[C@@H](C2)N3Cc2cccc([O-])c2)c(OC)c1

>  <Energy>  (84) 
72.03389454500453

>  <Genealogy>  (84) 
COc1ccc([N-]C(=O)[N-]C2CC3CCC(C2)N3Cc2cccc([O-])c2)c(OC)c1 (protonated)
COc1ccc([N-]C(=O)[N-]C2C[C@H]3CC[C@@H](C2)N3Cc2cccc([O-])c2)c(OC)c1 (chirality)
COc1ccc([N-]C(=O)[N-]C2C[C@H]3CC[C@@H](C2)N3Cc2cccc([O-])c2)c(OC)c1 (3D coordinates assigned)
COc1ccc([N-]C(=O)[N-]C2C[C@H]3CC[C@@H](C2)N3Cc2cccc([O-])c2)c(OC)c1 (nonaromatic ring conformer: 72.03389454500453 kcal/mol)

>  <smiles>  (84) 
COc1ccc(NC(=O)NC2CC3CCC(C2)N3Cc2cccc(O)c2)c(OC)c1

>  <score_type>  (84) 
oracle

>  <origin>  (84) 
adg

>  <m_score__min__energy>  (84) 
-13.77

>  <m_primary>  (84) 
energy

$$$$
84:0
     RDKit          3D

 49 52  0  0  0  0  0  0  0  0999 V2000
   61.0980   28.9740   44.1330 O   0  0  0  0  0  0  0  0  0  0  0  0
   60.1320   28.8580   44.9320 C   0  0  0  0  0  0  0  0  0  0  0  0
   60.3420   28.1980   46.1860 N   0  0  0  0  0  0  0  0  0  0  0  0
   60.7090   26.7920   46.3580 C   0  0  1  0  0  0  0  0  0  0  0  0
   60.7160   26.4450   47.8530 C   0  0  0  0  0  0  0  0  0  0  0  0
   59.2750   26.4380   48.3820 C   0  0  0  0  0  0  0  0  0  0  0  0
   58.4400   25.6240   47.5530 O   0  0  0  0  0  0  0  0  0  0  0  0
   58.6990   25.4240   46.1890 C   0  0  0  0  0  0  0  0  0  0  0  0
   57.7460   24.6500   45.3710 C   0  0  0  0  0  0  0  0  0  0  0  0
   58.2440   23.5200   44.7010 C   0  0  0  0  0  0  0  0  0  0  0  0
   57.3840   22.6610   44.0160 C   0  0  0  0  0  0  0  0  0  0  0  0
   56.0160   22.9190   43.9890 C   0  0  0  0  0  0  0  0  0  0  0  0
   55.5060   24.0590   44.6160 C   0  0  0  0  0  0  0  0  0  0  0  0
   56.3590   24.9550   45.2970 C   0  0  0  0  0  0  0  0  0  0  0  0
   55.7830   26.2180   45.8360 C   0  0  0  0  0  0  0  0  0  0  0  0
   54.5340   26.3340   45.9880 O   0  0  0  0  0  0  0  0  0  0  0  0
   56.5880   27.3220   46.1010 O   0  0  0  0  0  0  0  0  0  0  0  0
   59.7660   25.9310   45.6420 N   0  0  0  0  0  0  0  0  0  0  0  0
   58.8240   29.4140   44.5510 C   0  0  0  0  0  0  0  0  0  0  0  0
   57.9450   28.6670   43.7530 C   0  0  0  0  0  0  0  0  0  0  0  0
   56.7110   29.2050   43.3780 C   0  0  0  0  0  0  0  0  0  0  0  0
   56.3440   30.4850   43.8060 C   0  0  0  0  0  0  0  0  0  0  0  0
   57.2110   31.2360   44.6210 C   0  0  0  0  0  0  0  0  0  0  0  0
   56.8700   32.5170   45.0870 O   0  0  0  0  0  0  0  0  0  0  0  0
   57.7590   33.4270   45.6840 C   0  0  0  0  0  0  0  0  0  0  0  0
   58.4370   34.3390   44.8660 C   0  0  0  0  0  0  0  0  0  0  0  0
   59.3460   35.2500   45.4190 C   0  0  0  0  0  0  0  0  0  0  0  0
   59.5910   35.2500   46.7940 C   0  0  0  0  0  0  0  0  0  0  0  0
   58.9380   34.3280   47.6170 C   0  0  0  0  0  0  0  0  0  0  0  0
   58.0290   33.4160   47.0670 C   0  0  0  0  0  0  0  0  0  0  0  0
   58.4640   30.7110   44.9530 C   0  0  0  0  0  0  0  0  0  0  0  0
   61.7142   26.6264   45.9431 H   0  0  0  0  0  0  0  0  0  0  0  0
   61.1645   25.4509   47.9968 H   0  0  0  0  0  0  0  0  0  0  0  0
   61.3049   27.1950   48.4013 H   0  0  0  0  0  0  0  0  0  0  0  0
   59.2677   26.0380   49.4067 H   0  0  0  0  0  0  0  0  0  0  0  0
   58.8884   27.4678   48.3737 H   0  0  0  0  0  0  0  0  0  0  0  0
   59.3237   23.3102   44.7166 H   0  0  0  0  0  0  0  0  0  0  0  0
   57.7871   21.7790   43.4967 H   0  0  0  0  0  0  0  0  0  0  0  0
   55.3360   22.2248   43.4736 H   0  0  0  0  0  0  0  0  0  0  0  0
   54.4254   24.2612   44.5786 H   0  0  0  0  0  0  0  0  0  0  0  0
   58.2273   27.6567   43.4220 H   0  0  0  0  0  0  0  0  0  0  0  0
   56.0270   28.6207   42.7450 H   0  0  0  0  0  0  0  0  0  0  0  0
   55.3737   30.9063   43.5043 H   0  0  0  0  0  0  0  0  0  0  0  0
   58.2545   34.3401   43.7813 H   0  0  0  0  0  0  0  0  0  0  0  0
   59.8682   35.9672   44.7687 H   0  0  0  0  0  0  0  0  0  0  0  0
   60.2962   35.9739   47.2283 H   0  0  0  0  0  0  0  0  0  0  0  0
   59.1386   34.3189   48.6985 H   0  0  0  0  0  0  0  0  0  0  0  0
   57.5232   32.6874   47.7176 H   0  0  0  0  0  0  0  0  0  0  0  0
   59.1735   31.3187   45.5337 H   0  0  0  0  0  0  0  0  0  0  0  0
  1  2  2  0
  2  3  1  0
  3  4  1  0
  4  5  1  0
  5  6  1  0
  6  7  1  0
  7  8  1  0
  8  9  1  0
  9 10  2  0
 10 11  1  0
 11 12  2  0
 12 13  1  0
 13 14  2  0
 14 15  1  0
 15 16  2  0
 15 17  1  0
  8 18  2  0
  2 19  1  0
 19 20  2  0
 20 21  1  0
 21 22  2  0
 22 23  1  0
 23 24  1  0
 24 25  1  0
 25 26  2  0
 26 27  1  0
 27 28  2  0
 28 29  1  0
 29 30  2  0
 23 31  2  0
 18  4  1  0
 31 19  1  0
 14  9  1  0
 30 25  1  0
  4 32  1  6
  5 33  1  0
  5 34  1  0
  6 35  1  0
  6 36  1  0
 10 37  1  0
 11 38  1  0
 12 39  1  0
 13 40  1  0
 20 41  1  0
 21 42  1  0
 22 43  1  0
 26 44  1  0
 27 45  1  0
 28 46  1  0
 29 47  1  0
 30 48  1  0
 31 49  1  0
M  CHG  2   3  -1  17  -1
M  END
>  <UniqueID>  (85) 
79

>  <SMILES>  (85) 
O=C([N-][C@H]1CCOC(c2ccccc2C(=O)[O-])=N1)c1cccc(Oc2ccccc2)c1

>  <Energy>  (85) 
69.74241304983413

>  <Genealogy>  (85) 
O=C([N-]C1CCOC(c2ccccc2C(=O)[O-])=N1)c1cccc(Oc2ccccc2)c1 (protonated)
O=C([N-][C@H]1CCOC(c2ccccc2C(=O)[O-])=N1)c1cccc(Oc2ccccc2)c1 (chirality)
O=C([N-][C@H]1CCOC(c2ccccc2C(=O)[O-])=N1)c1cccc(Oc2ccccc2)c1 (3D coordinates assigned)
O=C([N-][C@H]1CCOC(c2ccccc2C(=O)[O-])=N1)c1cccc(Oc2ccccc2)c1 (nonaromatic ring conformer: 69.74241304983413 kcal/mol)

>  <smiles>  (85) 
O=C(NC1CCOC(c2ccccc2C(=O)O)=N1)c1cccc(Oc2ccccc2)c1

>  <score_type>  (85) 
oracle

>  <origin>  (85) 
adg

>  <m_score__min__energy>  (85) 
-13.66

>  <m_primary>  (85) 
energy

$$$$
85:0
     RDKit          3D

 57 62  0  0  0  0  0  0  0  0999 V2000
   55.1550   27.8180   46.1130 H   0  0  0  0  0  0  0  0  0  0  0  0
   55.1300   26.8210   45.9360 O   0  0  0  0  0  0  0  0  0  0  0  0
   56.1300   25.9720   46.4010 C   0  0  0  0  0  0  0  0  0  0  0  0
   55.8810   24.8550   47.1040 N   0  0  0  0  0  0  0  0  0  0  0  0
   57.1130   24.3330   47.2830 C   0  0  0  0  0  0  0  0  0  0  0  0
   57.3090   23.2570   47.9050 O   0  0  0  0  0  0  0  0  0  0  0  0
   58.1180   25.0500   46.7360 N   0  0  0  0  0  0  0  0  0  0  0  0
   57.4880   26.1070   46.1950 C   0  0  0  0  0  0  0  0  0  0  0  0
   58.1800   27.1550   45.4270 C   0  0  0  0  0  0  0  0  0  0  0  0
   59.0552   26.8644   44.8274 H   0  0  0  0  0  0  0  0  0  0  0  0
   57.8070   28.4420   45.4150 C   0  0  0  0  0  0  0  0  0  0  0  0
   56.6840   28.9670   44.7800 C   0  0  0  0  0  0  0  0  0  0  0  0
   55.9460   28.3793   44.2143 H   0  0  0  0  0  0  0  0  0  0  0  0
   56.6350   30.3080   44.9620 N   0  0  0  0  0  0  0  0  0  0  0  0
   57.6940   30.6440   45.6840 N   0  0  0  0  0  0  0  0  0  0  0  0
   58.0880   31.8800   46.1050 C   0  0  0  0  0  0  0  0  0  0  0  0
   57.4130   32.9680   45.8620 N   0  0  0  0  0  0  0  0  0  0  0  0
   57.9240   34.1870   45.2440 C   0  0  0  0  0  0  0  0  0  0  0  0
   57.0221   34.4566   44.6749 H   0  0  0  0  0  0  0  0  0  0  0  0
   58.9080   34.9190   46.1380 C   0  0  0  0  0  0  0  0  0  0  0  0
   58.9387   36.0186   46.1379 H   0  0  0  0  0  0  0  0  0  0  0  0
   59.1347   34.9131   47.2144 H   0  0  0  0  0  0  0  0  0  0  0  0
   59.4080   34.1440   44.9290 C   0  0  0  0  0  0  0  0  0  0  0  0
   59.8005   34.6828   44.0540 H   0  0  0  0  0  0  0  0  0  0  0  0
   60.1465   33.3448   44.7679 H   0  0  0  0  0  0  0  0  0  0  0  0
   59.2500   31.9690   46.8100 N   0  0  0  0  0  0  0  0  0  0  0  0
   60.0020   30.8560   47.0730 C   0  0  0  0  0  0  0  0  0  0  0  0
   61.1870   30.9410   47.8140 O   0  0  0  0  0  0  0  0  0  0  0  0
   61.8700   32.1250   48.1260 C   0  0  0  0  0  0  0  0  0  0  0  0
   62.9470   32.5740   47.3390 C   0  0  0  0  0  0  0  0  0  0  0  0
   63.2312   32.0168   46.4342 H   0  0  0  0  0  0  0  0  0  0  0  0
   63.6580   33.7220   47.6980 C   0  0  0  0  0  0  0  0  0  0  0  0
   64.4905   34.0723   47.0701 H   0  0  0  0  0  0  0  0  0  0  0  0
   63.3120   34.4240   48.8530 C   0  0  0  0  0  0  0  0  0  0  0  0
   63.8729   35.3274   49.1346 H   0  0  0  0  0  0  0  0  0  0  0  0
   62.2560   33.9830   49.6520 C   0  0  0  0  0  0  0  0  0  0  0  0
   61.9994   34.5326   50.5696 H   0  0  0  0  0  0  0  0  0  0  0  0
   61.5180   32.8420   49.2930 C   0  0  0  0  0  0  0  0  0  0  0  0
   60.4030   32.4040   50.1660 C   0  0  0  0  0  0  0  0  0  0  0  0
   60.1930   31.0740   50.3630 N   0  0  0  0  0  0  0  0  0  0  0  0
   59.1850   30.6220   51.1600 C   0  0  0  0  0  0  0  0  0  0  0  0
   58.9900   29.3480   51.3340 N   0  0  0  0  0  0  0  0  0  0  0  0
   60.0460   28.3340   51.3520 C   0  0  0  0  0  0  0  0  0  0  0  0
   60.8829   28.6950   51.9678 H   0  0  0  0  0  0  0  0  0  0  0  0
   59.6363   27.4039   51.7727 H   0  0  0  0  0  0  0  0  0  0  0  0
   60.5500   28.0530   49.9340 C   0  0  0  0  0  0  0  0  0  0  0  0
   61.5228   28.5460   49.7901 H   0  0  0  0  0  0  0  0  0  0  0  0
   60.6553   26.9663   49.8001 H   0  0  0  0  0  0  0  0  0  0  0  0
   59.6390   28.5430   48.9890 O   0  0  0  0  0  0  0  0  0  0  0  0
   59.8580   29.5010   48.8530 H   0  0  0  0  0  0  0  0  0  0  0  0
   58.3720   31.5120   51.7850 N   0  0  0  0  0  0  0  0  0  0  0  0
   58.5490   32.8490   51.6330 C   0  0  0  0  0  0  0  0  0  0  0  0
   57.8816   33.5545   52.1495 H   0  0  0  0  0  0  0  0  0  0  0  0
   59.5770   33.3280   50.8220 C   0  0  0  0  0  0  0  0  0  0  0  0
   59.7369   34.4094   50.6992 H   0  0  0  0  0  0  0  0  0  0  0  0
   59.5810   29.6340   46.6460 N   0  0  0  0  0  0  0  0  0  0  0  0
   58.4160   29.5540   45.9650 C   0  0  0  0  0  0  0  0  0  0  0  0
  1  2  1  0
  2  3  1  0
  3  4  1  0
  4  5  1  0
  5  6  2  0
  5  7  1  0
  7  8  1  0
  8  9  1  0
  9 10  1  0
  9 11  2  3
 11 12  1  0
 12 13  1  0
 12 14  2  0
 14 15  1  0
 15 16  1  0
 16 17  2  0
 17 18  1  0
 18 19  1  0
 18 20  1  0
 20 21  1  0
 20 22  1  0
 20 23  1  0
 23 24  1  0
 23 25  1  0
 16 26  1  0
 26 27  2  0
 27 28  1  0
 28 29  1  0
 29 30  2  0
 30 31  1  0
 30 32  1  0
 32 33  1  0
 32 34  2  0
 34 35  1  0
 34 36  1  0
 36 37  1  0
 36 38  2  0
 38 39  1  0
 39 40  2  0
 40 41  1  0
 41 42  2  0
 42 43  1  0
 43 44  1  0
 43 45  1  0
 43 46  1  0
 46 47  1  0
 46 48  1  0
 46 49  1  0
 49 50  1  0
 41 51  1  0
 51 52  1  0
 52 53  1  0
 52 54  2  0
 54 55  1  0
 27 56  1  0
 56 57  2  0
  8  3  2  0
 57 11  1  0
 57 15  1  0
 23 18  1  0
 38 29  1  0
 54 39  1  0
M  CHG  3   4  -1   7  -1  51  -1
M  END
>  <UniqueID>  (86) 
80

>  <SMILES>  (86) 
O=c1[n-]c(O)c(C=c2cnn3/c(=N\C4CC4)nc(Oc4ccccc4-c4cc[n-]/c(=N/CCO)n4)nc23)[n-]1

>  <Energy>  (86) 
413.76183400720333

>  <Genealogy>  (86) 
O=c1[n-]c(O)c(C=c2cnn3c(=NC4CC4)nc(Oc4ccccc4-c4cc[n-]c(=NCCO)n4)nc23)[n-]1 (protonated)
O=c1[n-]c(O)c(C=c2cnn3/c(=N\C4CC4)nc(Oc4ccccc4-c4cc[n-]/c(=N/CCO)n4)nc23)[n-]1 (cis-trans isomerization)
O=c1[n-]c(O)c(C=c2cnn3/c(=N\C4CC4)nc(Oc4ccccc4-c4cc[n-]/c(=N/CCO)n4)nc23)[n-]1 (3D coordinates assigned)
O=c1[n-]c(O)c(C=c2cnn3/c(=N\C4CC4)nc(Oc4ccccc4-c4cc[n-]/c(=N/CCO)n4)nc23)[n-]1 (nonaromatic ring conformer: 413.76183400720333 kcal/mol)

>  <smiles>  (86) 
O=c1[nH]c(O)c(C=c2cnn3c(=NC4CC4)nc(Oc4ccccc4-c4cc[nH]c(=NCCO)n4)nc23)[nH]1

>  <score_type>  (86) 
oracle

>  <origin>  (86) 
adg

>  <m_score__min__energy>  (86) 
-15.48

>  <m_primary>  (86) 
energy

$$$$
86:0
     RDKit          3D

 29 30  0  0  0  0  0  0  0  0999 V2000
   61.3910   28.4210   52.6780 N   0  0  0  0  0  0  0  0  0  0  0  0
   60.6800   29.8330   51.9800 S   0  0  0  0  0  0  0  0  0  0  0  0
   61.5940   31.0080   52.1910 O   0  0  0  0  0  0  0  0  0  0  0  0
   60.4950   29.6250   50.5030 O   0  0  0  0  0  0  0  0  0  0  0  0
   59.1210   30.1430   52.7390 C   0  0  0  0  0  0  0  0  0  0  0  0
   59.0010   30.1330   54.1340 C   0  0  0  0  0  0  0  0  0  0  0  0
   57.7620   30.3770   54.7310 C   0  0  0  0  0  0  0  0  0  0  0  0
   56.6360   30.6190   53.9410 C   0  0  0  0  0  0  0  0  0  0  0  0
   56.7370   30.6050   52.5380 C   0  0  0  0  0  0  0  0  0  0  0  0
   55.5980   30.8690   51.7020 N   0  0  0  0  0  0  0  0  0  0  0  0
   54.3400   30.1840   51.8250 C   0  0  0  0  0  0  0  0  0  0  0  0
   54.2970   29.0530   52.3830 O   0  0  0  0  0  0  0  0  0  0  0  0
   53.0980   30.7660   51.2610 C   0  0  0  0  0  0  0  0  0  0  0  0
   52.4620   31.8410   51.9070 C   0  0  0  0  0  0  0  0  0  0  0  0
   51.2950   32.3850   51.3630 C   0  0  0  0  0  0  0  0  0  0  0  0
   50.6570   33.4410   52.0000 O   0  0  0  0  0  0  0  0  0  0  0  0
   50.7820   31.8820   50.2100 N   0  0  0  0  0  0  0  0  0  0  0  0
   51.3760   30.8510   49.5560 C   0  0  0  0  0  0  0  0  0  0  0  0
   50.8730   30.4160   48.4860 O   0  0  0  0  0  0  0  0  0  0  0  0
   52.5440   30.2750   50.0660 C   0  0  0  0  0  0  0  0  0  0  0  0
   57.9900   30.3790   51.9460 C   0  0  0  0  0  0  0  0  0  0  0  0
   60.8410   28.1960   53.5380 H   0  0  0  0  0  0  0  0  0  0  0  0
   59.8830   29.9329   54.7602 H   0  0  0  0  0  0  0  0  0  0  0  0
   57.6728   30.3786   55.8274 H   0  0  0  0  0  0  0  0  0  0  0  0
   55.6657   30.8215   54.4181 H   0  0  0  0  0  0  0  0  0  0  0  0
   55.7280   31.5120   50.8880 H   0  0  0  0  0  0  0  0  0  0  0  0
   52.8814   32.2523   52.8370 H   0  0  0  0  0  0  0  0  0  0  0  0
   53.0268   29.4417   49.5345 H   0  0  0  0  0  0  0  0  0  0  0  0
   58.0846   30.3873   50.8501 H   0  0  0  0  0  0  0  0  0  0  0  0
  1  2  1  0
  2  3  2  0
  2  4  2  0
  2  5  1  0
  5  6  2  0
  6  7  1  0
  7  8  2  0
  8  9  1  0
  9 10  1  0
 10 11  1  0
 11 12  2  0
 11 13  1  0
 13 14  1  0
 14 15  2  0
 15 16  1  0
 15 17  1  0
 17 18  1  0
 18 19  2  0
 18 20  1  0
  9 21  2  0
 21  5  1  0
 20 13  2  0
  1 22  1  0
  6 23  1  0
  7 24  1  0
  8 25  1  0
 10 26  1  0
 14 27  1  0
 20 28  1  0
 21 29  1  0
M  CHG  3   1  -1  16  -1  17  -1
M  END
>  <UniqueID>  (87) 
81

>  <SMILES>  (87) 
[NH-]S(=O)(=O)c1cccc(NC(=O)c2cc([O-])[n-]c(=O)c2)c1

>  <Energy>  (87) 
36.07210976969563

>  <Genealogy>  (87) 
[NH-]S(=O)(=O)c1cccc(NC(=O)c2cc([O-])[n-]c(=O)c2)c1 (protonated)
[NH-]S(=O)(=O)c1cccc(NC(=O)c2cc([O-])[n-]c(=O)c2)c1 (3D coordinates assigned)
[NH-]S(=O)(=O)c1cccc(NC(=O)c2cc([O-])[n-]c(=O)c2)c1 (optimized conformer: 36.07210976969563 kcal/mol)

>  <smiles>  (87) 
NS(=O)(=O)c1cccc(NC(=O)c2cc(O)[nH]c(=O)c2)c1

>  <score_type>  (87) 
oracle

>  <origin>  (87) 
adg

>  <m_score__min__energy>  (87) 
-14.15

>  <m_primary>  (87) 
energy

$$$$
87:0
     RDKit          3D

 59 62  0  0  0  0  0  0  0  0999 V2000
   64.6280   31.8600   50.4360 C   0  0  0  0  0  0  0  0  0  0  0  0
   63.3280   31.9000   49.6350 C   0  0  0  0  0  0  0  0  0  0  0  0
   63.0900   33.4970   48.8710 S   0  0  0  0  0  0  0  0  0  0  0  0
   63.1250   34.5710   49.9290 O   0  0  0  0  0  0  0  0  0  0  0  0
   64.1940   33.7540   47.8850 O   0  0  0  0  0  0  0  0  0  0  0  0
   61.5390   33.5370   48.0310 C   0  0  0  0  0  0  0  0  0  0  0  0
   61.4880   33.8250   46.6590 C   0  0  0  0  0  0  0  0  0  0  0  0
   60.2510   33.9730   46.0140 C   0  0  0  0  0  0  0  0  0  0  0  0
   59.0530   33.8230   46.7340 C   0  0  0  0  0  0  0  0  0  0  0  0
   57.7320   34.1420   46.0870 C   0  0  0  0  0  0  0  0  0  0  0  0
   57.5900   33.2940   44.8660 C   0  0  0  0  0  0  0  0  0  0  0  0
   58.3980   33.4300   43.9080 O   0  0  0  0  0  0  0  0  0  0  0  0
   56.6100   32.2520   44.8390 N   0  0  0  0  0  0  0  0  0  0  0  0
   56.9130   30.8830   44.5390 C   0  0  0  0  0  0  0  0  0  0  0  0
   56.5980   30.3770   43.2730 C   0  0  0  0  0  0  0  0  0  0  0  0
   56.8470   29.0370   42.9680 C   0  0  0  0  0  0  0  0  0  0  0  0
   57.4040   28.1890   43.9300 C   0  0  0  0  0  0  0  0  0  0  0  0
   57.7220   28.6780   45.2090 C   0  0  0  0  0  0  0  0  0  0  0  0
   58.2710   27.7630   46.2290 C   0  0  0  0  0  0  0  0  0  0  0  0
   59.4840   27.9390   46.7940 N   0  0  0  0  0  0  0  0  0  0  0  0
   59.6830   26.9330   47.6340 N   0  0  0  0  0  0  0  0  0  0  0  0
   60.8960   26.7670   48.4300 C   0  0  0  0  0  0  0  0  0  0  0  0
   60.7970   27.5790   49.7020 C   0  0  0  0  0  0  0  0  0  0  0  0
   60.7590   26.9140   50.9450 C   0  0  0  0  0  0  0  0  0  0  0  0
   60.7750   25.5570   51.0050 F   0  0  0  0  0  0  0  0  0  0  0  0
   60.7070   27.6440   52.1360 C   0  0  0  0  0  0  0  0  0  0  0  0
   60.6940   29.0390   52.1060 C   0  0  0  0  0  0  0  0  0  0  0  0
   60.7450   29.7120   50.8830 C   0  0  0  0  0  0  0  0  0  0  0  0
   60.8040   28.9940   49.6800 C   0  0  0  0  0  0  0  0  0  0  0  0
   60.9260   29.9050   48.1800 Cl  0  0  0  0  0  0  0  0  0  0  0  0
   58.6280   26.0940   47.6170 C   0  0  0  0  0  0  0  0  0  0  0  0
   57.6930   26.6010   46.7400 C   0  0  0  0  0  0  0  0  0  0  0  0
   56.3370   26.0660   46.5400 C   0  0  0  0  0  0  0  0  0  0  0  0
   56.0500   24.9150   46.9600 O   0  0  0  0  0  0  0  0  0  0  0  0
   55.3490   26.8400   45.9420 O   0  0  0  0  0  0  0  0  0  0  0  0
   57.4480   30.0210   45.5150 C   0  0  0  0  0  0  0  0  0  0  0  0
   59.1080   33.5170   48.1080 C   0  0  0  0  0  0  0  0  0  0  0  0
   60.3450   33.3740   48.7510 C   0  0  0  0  0  0  0  0  0  0  0  0
   64.3965   31.8671   51.5113 H   0  0  0  0  0  0  0  0  0  0  0  0
   65.1842   30.9443   50.1868 H   0  0  0  0  0  0  0  0  0  0  0  0
   65.2395   32.7398   50.1868 H   0  0  0  0  0  0  0  0  0  0  0  0
   63.3655   31.1291   48.8512 H   0  0  0  0  0  0  0  0  0  0  0  0
   62.4893   31.7137   50.3219 H   0  0  0  0  0  0  0  0  0  0  0  0
   62.4211   33.9352   46.0870 H   0  0  0  0  0  0  0  0  0  0  0  0
   60.2184   34.2075   44.9398 H   0  0  0  0  0  0  0  0  0  0  0  0
   56.9126   33.9247   46.7880 H   0  0  0  0  0  0  0  0  0  0  0  0
   57.6910   35.2071   45.8151 H   0  0  0  0  0  0  0  0  0  0  0  0
   56.1523   31.0375   42.5147 H   0  0  0  0  0  0  0  0  0  0  0  0
   56.6042   28.6477   41.9682 H   0  0  0  0  0  0  0  0  0  0  0  0
   57.5944   27.1337   43.6848 H   0  0  0  0  0  0  0  0  0  0  0  0
   61.0212   25.7044   48.6853 H   0  0  0  0  0  0  0  0  0  0  0  0
   61.7607   27.1156   47.8462 H   0  0  0  0  0  0  0  0  0  0  0  0
   60.6762   27.1166   53.1008 H   0  0  0  0  0  0  0  0  0  0  0  0
   60.6436   29.6088   53.0456 H   0  0  0  0  0  0  0  0  0  0  0  0
   60.7388   30.8118   50.8635 H   0  0  0  0  0  0  0  0  0  0  0  0
   58.5303   25.1669   48.2009 H   0  0  0  0  0  0  0  0  0  0  0  0
   57.6532   30.4027   46.5260 H   0  0  0  0  0  0  0  0  0  0  0  0
   58.1762   33.3898   48.6785 H   0  0  0  0  0  0  0  0  0  0  0  0
   60.3804   33.1332   49.8237 H   0  0  0  0  0  0  0  0  0  0  0  0
  1  2  1  0
  2  3  1  0
  3  4  2  0
  3  5  2  0
  3  6  1  0
  6  7  2  0
  7  8  1  0
  8  9  2  0
  9 10  1  0
 10 11  1  0
 11 12  2  0
 11 13  1  0
 13 14  1  0
 14 15  2  0
 15 16  1  0
 16 17  2  0
 17 18  1  0
 18 19  1  0
 19 20  2  0
 20 21  1  0
 21 22  1  0
 22 23  1  0
 23 24  2  0
 24 25  1  0
 24 26  1  0
 26 27  2  0
 27 28  1  0
 28 29  2  0
 29 30  1  0
 21 31  1  0
 31 32  2  0
 32 33  1  0
 33 34  2  0
 33 35  1  0
 18 36  2  0
  9 37  1  0
 37 38  2  0
 38  6  1  0
 36 14  1  0
 32 19  1  0
 29 23  1  0
  1 39  1  0
  1 40  1  0
  1 41  1  0
  2 42  1  0
  2 43  1  0
  7 44  1  0
  8 45  1  0
 10 46  1  0
 10 47  1  0
 15 48  1  0
 16 49  1  0
 17 50  1  0
 22 51  1  0
 22 52  1  0
 26 53  1  0
 27 54  1  0
 28 55  1  0
 31 56  1  0
 36 57  1  0
 37 58  1  0
 38 59  1  0
M  CHG  2  13  -1  35  -1
M  END
>  <UniqueID>  (88) 
82

>  <SMILES>  (88) 
CCS(=O)(=O)c1ccc(CC(=O)[N-]c2cccc(-c3nn(Cc4c(F)cccc4Cl)cc3C(=O)[O-])c2)cc1

>  <Energy>  (88) 
91.11740862954167

>  <Genealogy>  (88) 
CCS(=O)(=O)c1ccc(CC(=O)[N-]c2cccc(-c3nn(Cc4c(F)cccc4Cl)cc3C(=O)[O-])c2)cc1 (protonated)
CCS(=O)(=O)c1ccc(CC(=O)[N-]c2cccc(-c3nn(Cc4c(F)cccc4Cl)cc3C(=O)[O-])c2)cc1 (3D coordinates assigned)
CCS(=O)(=O)c1ccc(CC(=O)[N-]c2cccc(-c3nn(Cc4c(F)cccc4Cl)cc3C(=O)[O-])c2)cc1 (optimized conformer: 91.11740862954167 kcal/mol)

>  <smiles>  (88) 
CCS(=O)(=O)c1ccc(CC(=O)Nc2cccc(-c3nn(Cc4c(F)cccc4Cl)cc3C(=O)O)c2)cc1

>  <score_type>  (88) 
oracle

>  <origin>  (88) 
adg

>  <m_score__min__energy>  (88) 
-13.41

>  <m_primary>  (88) 
energy

$$$$
88:0
     RDKit          3D

 75 80  0  0  1  0  0  0  0  0999 V2000
   58.7590   31.2800   51.8520 C   0  0  0  0  0  0  0  0  0  0  0  0
   59.8030   30.3560   51.4630 N   0  0  0  0  0  0  0  0  0  0  0  0
   59.7800   29.6160   50.2440 C   0  0  0  0  0  0  0  0  0  0  0  0
   59.1480   30.1290   49.1420 C   0  0  0  0  0  0  0  0  0  0  0  0
   59.1320   29.3830   47.9710 C   0  0  0  0  0  0  0  0  0  0  0  0
   58.4940   30.0160   46.8280 C   0  0  0  0  0  0  0  0  0  0  0  0
   57.6870   29.3270   46.1080 O   0  0  0  0  0  0  0  0  0  0  0  0
   58.6850   31.3520   46.4250 N   0  0  0  0  0  0  0  0  0  0  0  0
   57.9410   31.7790   45.1860 C   0  0  0  0  0  0  0  0  0  0  0  0
   58.2840   33.1620   45.2250 C   0  0  1  0  0  0  0  0  0  0  0  0
   58.1660   34.3780   44.5110 C   0  0  0  0  0  0  0  0  0  0  0  0
   58.8990   35.2990   45.3270 O   0  0  0  0  0  0  0  0  0  0  0  0
   59.6390   34.7390   46.3390 C   0  0  0  0  0  0  0  0  0  0  0  0
   58.9390   33.7280   47.2530 C   0  0  2  0  0  0  0  0  0  0  0  0
   59.5320   32.3210   47.1070 C   0  0  0  0  0  0  0  0  0  0  0  0
   57.7200   33.5860   46.5000 N   0  0  0  0  0  0  0  0  0  0  0  0
   59.7410   28.1390   47.9140 C   0  0  0  0  0  0  0  0  0  0  0  0
   60.3940   27.5970   49.0330 C   0  0  0  0  0  0  0  0  0  0  0  0
   60.3960   28.3460   50.1560 C   0  0  0  0  0  0  0  0  0  0  0  0
   61.1060   28.0130   51.3810 N   0  0  0  0  0  0  0  0  0  0  0  0
   62.2790   28.6340   51.4470 C   0  0  0  0  0  0  0  0  0  0  0  0
   62.4550   29.8710   50.9620 N   0  0  0  0  0  0  0  0  0  0  0  0
   63.6580   30.5030   51.0390 C   0  0  0  0  0  0  0  0  0  0  0  0
   64.7010   29.8680   51.6230 C   0  0  0  0  0  0  0  0  0  0  0  0
   64.5560   28.5990   52.1350 C   0  0  0  0  0  0  0  0  0  0  0  0
   63.3380   28.0260   52.0240 N   0  0  0  0  0  0  0  0  0  0  0  0
   65.8070   30.6600   51.5870 C   0  0  0  0  0  0  0  0  0  0  0  0
   65.3780   31.8310   50.9390 C   0  0  0  0  0  0  0  0  0  0  0  0
   66.3570   32.9000   50.7320 C   0  0  0  0  0  0  0  0  0  0  0  0
   67.1460   32.9380   49.7560 O   0  0  0  0  0  0  0  0  0  0  0  0
   66.4730   33.9950   51.6670 N   0  0  0  0  0  0  0  0  0  0  0  0
   67.4930   34.9770   51.3430 C   0  0  0  0  0  0  0  0  0  0  0  0
   65.6260   34.0900   52.8400 C   0  0  0  0  0  0  0  0  0  0  0  0
   64.0970   31.7420   50.6110 N   0  0  0  0  0  0  0  0  0  0  0  0
   63.1940   32.6190   49.9460 C   0  0  0  0  0  0  0  0  0  0  0  0
   63.9570   33.2850   48.7960 C   0  0  0  0  0  0  0  0  0  0  0  0
   63.7580   32.2890   47.6800 C   0  0  0  0  0  0  0  0  0  0  0  0
   62.4290   31.6120   47.9300 C   0  0  0  0  0  0  0  0  0  0  0  0
   62.0030   32.1170   49.2860 C   0  0  0  0  0  0  0  0  0  0  0  0
   58.7032   31.3293   52.9495 H   0  0  0  0  0  0  0  0  0  0  0  0
   58.9854   32.2790   51.4511 H   0  0  0  0  0  0  0  0  0  0  0  0
   57.7949   30.9339   51.4511 H   0  0  0  0  0  0  0  0  0  0  0  0
   60.5990   30.2570   52.1550 H   0  0  0  0  0  0  0  0  0  0  0  0
   58.6617   31.1148   49.1841 H   0  0  0  0  0  0  0  0  0  0  0  0
   58.3167   31.2805   44.2802 H   0  0  0  0  0  0  0  0  0  0  0  0
   56.8664   31.5455   45.1599 H   0  0  0  0  0  0  0  0  0  0  0  0
   59.2499   32.9174   44.7590 H   0  0  0  0  0  0  0  0  0  0  0  0
   58.6128   34.2940   43.5094 H   0  0  0  0  0  0  0  0  0  0  0  0
   57.1229   34.6828   44.3405 H   0  0  0  0  0  0  0  0  0  0  0  0
   60.4952   34.2266   45.8760 H   0  0  0  0  0  0  0  0  0  0  0  0
   59.8943   35.5819   46.9981 H   0  0  0  0  0  0  0  0  0  0  0  0
   58.9417   34.0374   48.3086 H   0  0  0  0  0  0  0  0  0  0  0  0
   60.4722   32.4062   46.5423 H   0  0  0  0  0  0  0  0  0  0  0  0
   59.6630   31.9404   48.1307 H   0  0  0  0  0  0  0  0  0  0  0  0
   56.9930   33.0170   46.9080 H   0  0  0  0  0  0  0  0  0  0  0  0
   59.7123   27.5661   46.9754 H   0  0  0  0  0  0  0  0  0  0  0  0
   60.8799   26.6108   48.9962 H   0  0  0  0  0  0  0  0  0  0  0  0
   65.3957   28.0740   52.6139 H   0  0  0  0  0  0  0  0  0  0  0  0
   63.2820   27.0630   52.4490 H   0  0  0  0  0  0  0  0  0  0  0  0
   66.8105   30.4345   51.9771 H   0  0  0  0  0  0  0  0  0  0  0  0
   67.9171   35.3853   52.2722 H   0  0  0  0  0  0  0  0  0  0  0  0
   68.2901   34.4977   50.7557 H   0  0  0  0  0  0  0  0  0  0  0  0
   67.0442   35.7917   50.7557 H   0  0  0  0  0  0  0  0  0  0  0  0
   66.2456   34.0205   53.7463 H   0  0  0  0  0  0  0  0  0  0  0  0
   65.0950   35.0533   52.8318 H   0  0  0  0  0  0  0  0  0  0  0  0
   64.8948   33.2682   52.8318 H   0  0  0  0  0  0  0  0  0  0  0  0
   62.8367   33.2238   50.7925 H   0  0  0  0  0  0  0  0  0  0  0  0
   63.5246   34.2640   48.5417 H   0  0  0  0  0  0  0  0  0  0  0  0
   65.0123   33.4962   49.0233 H   0  0  0  0  0  0  0  0  0  0  0  0
   63.7428   32.8061   46.7092 H   0  0  0  0  0  0  0  0  0  0  0  0
   64.5766   31.5546   47.6559 H   0  0  0  0  0  0  0  0  0  0  0  0
   61.6961   31.8960   47.1605 H   0  0  0  0  0  0  0  0  0  0  0  0
   62.5027   30.5151   47.8941 H   0  0  0  0  0  0  0  0  0  0  0  0
   61.2648   32.9247   49.1734 H   0  0  0  0  0  0  0  0  0  0  0  0
   61.5372   31.3134   49.8753 H   0  0  0  0  0  0  0  0  0  0  0  0
  1  2  1  0
  2  3  1  0
  3  4  2  0
  4  5  1  0
  5  6  1  0
  6  7  2  0
  6  8  1  0
  8  9  1  0
  9 10  1  0
 10 11  1  0
 11 12  1  0
 12 13  1  0
 13 14  1  0
 14 15  1  0
 14 16  1  0
  5 17  2  0
 17 18  1  0
 18 19  2  0
 19 20  1  0
 20 21  2  0
 21 22  1  0
 22 23  2  0
 23 24  1  0
 24 25  2  0
 25 26  1  0
 24 27  1  0
 27 28  2  0
 28 29  1  0
 29 30  2  0
 29 31  1  0
 31 32  1  0
 31 33  1  0
 28 34  1  0
 34 35  1  0
 35 36  1  0
 36 37  1  0
 37 38  1  0
 38 39  1  0
 19  3  1  0
 26 21  1  0
 39 35  1  0
 15  8  1  0
 34 23  1  0
 16 10  1  0
  1 40  1  0
  1 41  1  0
  1 42  1  0
  2 43  1  0
  4 44  1  0
  9 45  1  0
  9 46  1  0
 10 47  1  1
 11 48  1  0
 11 49  1  0
 13 50  1  0
 13 51  1  0
 14 52  1  1
 15 53  1  0
 15 54  1  0
 16 55  1  0
 17 56  1  0
 18 57  1  0
 25 58  1  0
 26 59  1  0
 27 60  1  0
 32 61  1  0
 32 62  1  0
 32 63  1  0
 33 64  1  0
 33 65  1  0
 33 66  1  0
 35 67  1  0
 36 68  1  0
 36 69  1  0
 37 70  1  0
 37 71  1  0
 38 72  1  0
 38 73  1  0
 39 74  1  0
 39 75  1  0
M  END
>  <smiles>  (89) 
CNc1cc(C(=O)N2CC3COCC(C2)N3)ccc1N=c1nc2c(c[nH]1)cc(C(=O)N(C)C)n2C1CCCC1

>  <score_type>  (89) 
oracle

>  <origin>  (89) 
adg

>  <m_score__min__energy>  (89) 
-10.279999999999999

>  <m_primary>  (89) 
energy

$$$$
89:0
     RDKit          3D

 46 48  0  0  0  0  0  0  0  0999 V2000
   58.7960   29.6330   48.9110 O   0  0  0  0  0  0  0  0  0  0  0  0
   59.9040   29.8710   48.4580 C   0  0  0  0  0  0  0  0  0  0  0  0
   60.2650   29.3820   47.0800 C   0  0  0  0  0  0  0  0  0  0  0  0
   60.1370   27.9750   46.9850 O   0  0  0  0  0  0  0  0  0  0  0  0
   59.8420   27.5690   45.6600 C   0  0  1  0  0  0  0  0  0  0  0  0
   59.5860   26.1870   45.6360 O   0  0  0  0  0  0  0  0  0  0  0  0
   58.6190   28.3120   45.2100 C   0  0  0  0  0  0  0  0  0  0  0  0
   57.3030   27.9310   45.4150 C   0  0  0  0  0  0  0  0  0  0  0  0
   56.5390   28.9520   44.8940 C   0  0  0  0  0  0  0  0  0  0  0  0
   55.1490   28.9730   44.8700 O   0  0  0  0  0  0  0  0  0  0  0  0
   57.3190   29.9380   44.4060 N   0  0  0  0  0  0  0  0  0  0  0  0
   56.8750   31.1570   43.7350 C   0  0  0  0  0  0  0  0  0  0  0  0
   57.4480   32.3630   44.4280 C   0  0  0  0  0  0  0  0  0  0  0  0
   57.0090   32.7130   45.7160 C   0  0  0  0  0  0  0  0  0  0  0  0
   57.5650   33.8150   46.3740 C   0  0  0  0  0  0  0  0  0  0  0  0
   58.5680   34.5670   45.7570 C   0  0  0  0  0  0  0  0  0  0  0  0
   59.0210   34.2150   44.4820 C   0  0  0  0  0  0  0  0  0  0  0  0
   58.4670   33.1160   43.8200 C   0  0  0  0  0  0  0  0  0  0  0  0
   58.5970   29.5520   44.5920 C   0  0  0  0  0  0  0  0  0  0  0  0
   60.8840   30.6730   49.2690 C   0  0  0  0  0  0  0  0  0  0  0  0
   61.5140   31.7420   48.4180 C   0  0  0  0  0  0  0  0  0  0  0  0
   62.8660   31.6480   48.0460 C   0  0  0  0  0  0  0  0  0  0  0  0
   63.4390   32.6250   47.2260 C   0  0  0  0  0  0  0  0  0  0  0  0
   62.6670   33.6960   46.7670 C   0  0  0  0  0  0  0  0  0  0  0  0
   61.3180   33.7890   47.1230 C   0  0  0  0  0  0  0  0  0  0  0  0
   60.7400   32.8140   47.9420 C   0  0  0  0  0  0  0  0  0  0  0  0
   59.5956   29.8534   46.3454 H   0  0  0  0  0  0  0  0  0  0  0  0
   61.3127   29.6503   46.8791 H   0  0  0  0  0  0  0  0  0  0  0  0
   60.6910   27.7855   44.9950 H   0  0  0  0  0  0  0  0  0  0  0  0
   58.9120   26.0330   44.9230 H   0  0  0  0  0  0  0  0  0  0  0  0
   56.9438   27.0077   45.8931 H   0  0  0  0  0  0  0  0  0  0  0  0
   57.2153   31.1418   42.6891 H   0  0  0  0  0  0  0  0  0  0  0  0
   55.7767   31.2086   43.7690 H   0  0  0  0  0  0  0  0  0  0  0  0
   56.2255   32.1184   46.2085 H   0  0  0  0  0  0  0  0  0  0  0  0
   57.2120   34.0900   47.3789 H   0  0  0  0  0  0  0  0  0  0  0  0
   59.0011   35.4358   46.2743 H   0  0  0  0  0  0  0  0  0  0  0  0
   59.8147   34.8040   43.9992 H   0  0  0  0  0  0  0  0  0  0  0  0
   58.8299   32.8393   42.8191 H   0  0  0  0  0  0  0  0  0  0  0  0
   59.4848   30.1315   44.2987 H   0  0  0  0  0  0  0  0  0  0  0  0
   60.3577   31.1438   50.1124 H   0  0  0  0  0  0  0  0  0  0  0  0
   61.6719   30.0029   49.6435 H   0  0  0  0  0  0  0  0  0  0  0  0
   63.4751   30.8036   48.4009 H   0  0  0  0  0  0  0  0  0  0  0  0
   64.4990   32.5506   46.9417 H   0  0  0  0  0  0  0  0  0  0  0  0
   63.1208   34.4658   46.1256 H   0  0  0  0  0  0  0  0  0  0  0  0
   60.7105   34.6304   46.7583 H   0  0  0  0  0  0  0  0  0  0  0  0
   59.6767   32.8863   48.2144 H   0  0  0  0  0  0  0  0  0  0  0  0
  1  2  2  0
  2  3  1  0
  3  4  1  0
  4  5  1  0
  5  6  1  0
  5  7  1  0
  7  8  1  0
  8  9  2  0
  9 10  1  0
  9 11  1  0
 11 12  1  0
 12 13  1  0
 13 14  2  0
 14 15  1  0
 15 16  2  0
 16 17  1  0
 17 18  2  0
 11 19  1  0
  2 20  1  0
 20 21  1  0
 21 22  2  0
 22 23  1  0
 23 24  2  0
 24 25  1  0
 25 26  2  0
 19  7  2  0
 26 21  1  0
 18 13  1  0
  3 27  1  0
  3 28  1  0
  5 29  1  6
  6 30  1  0
  8 31  1  0
 12 32  1  0
 12 33  1  0
 14 34  1  0
 15 35  1  0
 16 36  1  0
 17 37  1  0
 18 38  1  0
 19 39  1  0
 20 40  1  0
 20 41  1  0
 22 42  1  0
 23 43  1  0
 24 44  1  0
 25 45  1  0
 26 46  1  0
M  CHG  1  10  -1
M  END
>  <UniqueID>  (90) 
83

>  <SMILES>  (90) 
O=C(CO[C@@H](O)c1cc([O-])n(Cc2ccccc2)c1)Cc1ccccc1

>  <Energy>  (90) 
73.71964990492523

>  <Genealogy>  (90) 
O=C(COC(O)c1cc([O-])n(Cc2ccccc2)c1)Cc1ccccc1 (protonated)
O=C(CO[C@@H](O)c1cc([O-])n(Cc2ccccc2)c1)Cc1ccccc1 (chirality)
O=C(CO[C@@H](O)c1cc([O-])n(Cc2ccccc2)c1)Cc1ccccc1 (3D coordinates assigned)
O=C(CO[C@@H](O)c1cc([O-])n(Cc2ccccc2)c1)Cc1ccccc1 (optimized conformer: 73.71964990492523 kcal/mol)

>  <smiles>  (90) 
O=C(COC(O)c1cc(O)n(Cc2ccccc2)c1)Cc1ccccc1

>  <score_type>  (90) 
oracle

>  <origin>  (90) 
adg

>  <m_score__min__energy>  (90) 
-12.06

>  <m_primary>  (90) 
energy

$$$$
90:0
     RDKit          3D

 53 55  0  0  0  0  0  0  0  0999 V2000
   60.3930   29.6300   45.9690 C   0  0  0  0  0  0  0  0  0  0  0  0
   59.6080   29.0260   47.1470 C   0  0  2  0  0  0  0  0  0  0  0  0
   58.3290   28.6640   46.6860 O   0  0  0  0  0  0  0  0  0  0  0  0
   59.5090   30.0790   48.2590 C   0  0  0  0  0  0  0  0  0  0  0  0
   58.3980   30.2480   48.8350 O   0  0  0  0  0  0  0  0  0  0  0  0
   60.6590   30.8260   48.7370 N   0  0  0  0  0  0  0  0  0  0  0  0
   60.5970   31.2820   50.1400 C   0  0  0  0  0  0  0  0  0  0  0  0
   61.8510   32.0060   50.6250 C   0  0  0  0  0  0  0  0  0  0  0  0
   62.4260   32.9600   49.5790 C   0  0  0  0  0  0  0  0  0  0  0  0
   61.5800   34.2350   49.3380 C   0  0  0  0  0  0  0  0  0  0  0  0
   60.2110   33.9600   49.0370 O   0  0  0  0  0  0  0  0  0  0  0  0
   59.6810   33.5730   47.7950 C   0  0  0  0  0  0  0  0  0  0  0  0
   60.1830   34.0370   46.5680 C   0  0  0  0  0  0  0  0  0  0  0  0
   59.6410   33.5510   45.3810 C   0  0  0  0  0  0  0  0  0  0  0  0
   58.6080   32.6080   45.4310 C   0  0  0  0  0  0  0  0  0  0  0  0
   58.0230   32.0610   44.2360 N   0  0  0  0  0  0  0  0  0  0  0  0
   58.0920   32.7150   42.9390 C   0  0  0  0  0  0  0  0  0  0  0  0
   57.3790   31.7770   41.9490 C   0  0  0  0  0  0  0  0  0  0  0  0
   56.6300   30.7270   42.7830 C   0  0  0  0  0  0  0  0  0  0  0  0
   57.1350   30.9590   44.1500 C   0  0  0  0  0  0  0  0  0  0  0  0
   56.7510   30.2940   45.1490 O   0  0  0  0  0  0  0  0  0  0  0  0
   58.1280   32.2300   46.6450 N   0  0  0  0  0  0  0  0  0  0  0  0
   58.6390   32.6980   47.7850 N   0  0  0  0  0  0  0  0  0  0  0  0
   62.8010   32.1760   48.3190 C   0  0  0  0  0  0  0  0  0  0  0  0
   61.7220   31.2150   47.7850 C   0  0  0  0  0  0  0  0  0  0  0  0
   60.3360   27.7400   47.6320 C   0  0  0  0  0  0  0  0  0  0  0  0
   61.1430   28.0110   48.7260 F   0  0  0  0  0  0  0  0  0  0  0  0
   61.1290   27.2300   46.6170 F   0  0  0  0  0  0  0  0  0  0  0  0
   59.4150   26.7700   47.9910 F   0  0  0  0  0  0  0  0  0  0  0  0
   61.2091   30.2580   46.3558 H   0  0  0  0  0  0  0  0  0  0  0  0
   60.8132   28.8200   45.3546 H   0  0  0  0  0  0  0  0  0  0  0  0
   59.7178   30.2437   45.3546 H   0  0  0  0  0  0  0  0  0  0  0  0
   57.7050   29.4070   46.9020 H   0  0  0  0  0  0  0  0  0  0  0  0
   59.7431   31.9680   50.2412 H   0  0  0  0  0  0  0  0  0  0  0  0
   60.4975   30.3783   50.7592 H   0  0  0  0  0  0  0  0  0  0  0  0
   61.5969   32.5839   51.5258 H   0  0  0  0  0  0  0  0  0  0  0  0
   62.6151   31.2423   50.8322 H   0  0  0  0  0  0  0  0  0  0  0  0
   63.3548   33.3897   49.9824 H   0  0  0  0  0  0  0  0  0  0  0  0
   61.6194   34.8560   50.2451 H   0  0  0  0  0  0  0  0  0  0  0  0
   62.0077   34.7475   48.4637 H   0  0  0  0  0  0  0  0  0  0  0  0
   60.9964   34.7771   46.5450 H   0  0  0  0  0  0  0  0  0  0  0  0
   60.0217   33.9054   44.4117 H   0  0  0  0  0  0  0  0  0  0  0  0
   57.5832   33.6896   42.9754 H   0  0  0  0  0  0  0  0  0  0  0  0
   59.1335   32.9004   42.6376 H   0  0  0  0  0  0  0  0  0  0  0  0
   56.6679   32.3477   41.3336 H   0  0  0  0  0  0  0  0  0  0  0  0
   58.1023   31.2975   41.2731 H   0  0  0  0  0  0  0  0  0  0  0  0
   55.5426   30.8853   42.7321 H   0  0  0  0  0  0  0  0  0  0  0  0
   56.7957   29.6982   42.4308 H   0  0  0  0  0  0  0  0  0  0  0  0
   58.2430   32.3600   48.6900 H   0  0  0  0  0  0  0  0  0  0  0  0
   63.0302   32.9019   47.5249 H   0  0  0  0  0  0  0  0  0  0  0  0
   63.6537   31.5418   48.6029 H   0  0  0  0  0  0  0  0  0  0  0  0
   61.2390   31.6994   46.9236 H   0  0  0  0  0  0  0  0  0  0  0  0
   62.2540   30.2829   47.5440 H   0  0  0  0  0  0  0  0  0  0  0  0
  1  2  1  0
  2  3  1  6
  2  4  1  0
  4  5  2  0
  4  6  1  0
  6  7  1  0
  7  8  1  0
  8  9  1  0
  9 10  1  0
 10 11  1  0
 11 12  1  0
 12 13  2  0
 13 14  1  0
 14 15  2  0
 15 16  1  0
 16 17  1  0
 17 18  1  0
 18 19  1  0
 19 20  1  0
 20 21  2  0
 15 22  1  0
 22 23  2  0
  9 24  1  0
 24 25  1  0
  2 26  1  0
 26 27  1  0
 26 28  1  0
 26 29  1  0
 25  6  1  0
 23 12  1  0
 20 16  1  0
  1 30  1  0
  1 31  1  0
  1 32  1  0
  3 33  1  0
  7 34  1  0
  7 35  1  0
  8 36  1  0
  8 37  1  0
  9 38  1  0
 10 39  1  0
 10 40  1  0
 13 41  1  0
 14 42  1  0
 17 43  1  0
 17 44  1  0
 18 45  1  0
 18 46  1  0
 19 47  1  0
 19 48  1  0
 23 49  1  0
 24 50  1  0
 24 51  1  0
 25 52  1  0
 25 53  1  0
M  CHG  1  23   1
M  END
>  <UniqueID>  (91) 
84

>  <SMILES>  (91) 
C[C@](O)(C(=O)N1CCC(COc2ccc(N3CCCC3=O)n[nH+]2)CC1)C(F)(F)F

>  <Energy>  (91) 
70.62557925493617

>  <Genealogy>  (91) 
CC(O)(C(=O)N1CCC(COc2ccc(N3CCCC3=O)n[nH+]2)CC1)C(F)(F)F (protonated)
C[C@](O)(C(=O)N1CCC(COc2ccc(N3CCCC3=O)n[nH+]2)CC1)C(F)(F)F (chirality)
C[C@](O)(C(=O)N1CCC(COc2ccc(N3CCCC3=O)n[nH+]2)CC1)C(F)(F)F (3D coordinates assigned)
C[C@](O)(C(=O)N1CCC(COc2ccc(N3CCCC3=O)n[nH+]2)CC1)C(F)(F)F (nonaromatic ring conformer: 70.62557925493617 kcal/mol)

>  <smiles>  (91) 
CC(O)(C(=O)N1CCC(COc2ccc(N3CCCC3=O)nn2)CC1)C(F)(F)F

>  <score_type>  (91) 
oracle

>  <origin>  (91) 
adg

>  <m_score__min__energy>  (91) 
-7.1699999999999999

>  <m_primary>  (91) 
energy

$$$$
91:0
     RDKit          3D

 66 69  0  0  0  0  0  0  0  0999 V2000
   55.6110   24.4400   44.5300 O   0  0  0  0  0  0  0  0  0  0  0  0
   55.3670   24.7530   45.7260 C   0  0  0  0  0  0  0  0  0  0  0  0
   54.9590   23.6930   46.7000 C   0  0  0  0  0  0  0  0  0  0  0  0
   55.7900   23.7830   47.9770 C   0  0  0  0  0  0  0  0  0  0  0  0
   56.9830   22.9580   47.8360 N   0  0  0  0  0  0  0  0  0  0  0  0
   57.0100   21.6720   47.2040 C   0  0  0  0  0  0  0  0  0  0  0  0
   56.8190   20.6450   47.9060 O   0  0  0  0  0  0  0  0  0  0  0  0
   57.2470   21.5180   45.7570 C   0  0  0  0  0  0  0  0  0  0  0  0
   58.4910   21.8650   45.2100 C   0  0  0  0  0  0  0  0  0  0  0  0
   58.6990   21.7960   43.8300 C   0  0  0  0  0  0  0  0  0  0  0  0
   57.6720   21.3640   42.9860 C   0  0  0  0  0  0  0  0  0  0  0  0
   56.4330   21.0070   43.5220 C   0  0  0  0  0  0  0  0  0  0  0  0
   56.2120   21.0900   44.9030 C   0  0  0  0  0  0  0  0  0  0  0  0
   54.9690   20.7320   45.4170 O   0  0  0  0  0  0  0  0  0  0  0  0
   55.4400   26.1190   46.1560 N   0  0  0  0  0  0  0  0  0  0  0  0
   56.5380   27.0160   45.9410 C   0  0  0  0  0  0  0  0  0  0  0  0
   57.8180   26.6290   46.3570 C   0  0  0  0  0  0  0  0  0  0  0  0
   58.9200   27.4560   46.1190 C   0  0  0  0  0  0  0  0  0  0  0  0
   58.7540   28.6700   45.4480 C   0  0  0  0  0  0  0  0  0  0  0  0
   57.4810   29.0600   45.0100 C   0  0  0  0  0  0  0  0  0  0  0  0
   57.2500   30.5660   44.1290 S   0  0  0  0  0  0  0  0  0  0  0  0
   56.1130   30.4400   43.1570 O   0  0  0  0  0  0  0  0  0  0  0  0
   58.5030   30.8910   43.3640 O   0  0  0  0  0  0  0  0  0  0  0  0
   56.8610   31.8150   45.2690 N   0  0  0  0  0  0  0  0  0  0  0  0
   57.7550   32.8580   45.6720 C   0  0  0  0  0  0  0  0  0  0  0  0
   57.9650   33.9380   44.8050 C   0  0  0  0  0  0  0  0  0  0  0  0
   58.8430   34.9650   45.1600 C   0  0  0  0  0  0  0  0  0  0  0  0
   59.5390   34.9050   46.3700 C   0  0  0  0  0  0  0  0  0  0  0  0
   59.3650   33.8120   47.2310 C   0  0  0  0  0  0  0  0  0  0  0  0
   60.2680   33.7220   48.7460 S   0  0  0  0  0  0  0  0  0  0  0  0
   60.2360   32.3050   49.2460 O   0  0  0  0  0  0  0  0  0  0  0  0
   59.5880   34.5870   49.7720 O   0  0  0  0  0  0  0  0  0  0  0  0
   61.9310   34.2410   48.5720 N   0  0  0  0  0  0  0  0  0  0  0  0
   62.7260   34.0840   49.8130 C   0  0  0  0  0  0  0  0  0  0  0  0
   64.0260   33.2920   49.6200 C   0  0  0  0  0  0  0  0  0  0  0  0
   63.7520   32.0250   48.8190 C   0  0  0  0  0  0  0  0  0  0  0  0
   63.1640   32.3420   47.4370 C   0  0  0  0  0  0  0  0  0  0  0  0
   62.5610   33.7600   47.3260 C   0  0  0  0  0  0  0  0  0  0  0  0
   58.4640   32.7950   46.8830 C   0  0  0  0  0  0  0  0  0  0  0  0
   56.3770   28.2330   45.2550 C   0  0  0  0  0  0  0  0  0  0  0  0
   53.8961   23.8237   46.9512 H   0  0  0  0  0  0  0  0  0  0  0  0
   55.1248   22.7078   46.2396 H   0  0  0  0  0  0  0  0  0  0  0  0
   56.0849   24.8285   48.1503 H   0  0  0  0  0  0  0  0  0  0  0  0
   55.1941   23.4255   48.8297 H   0  0  0  0  0  0  0  0  0  0  0  0
   59.3070   22.1931   45.8707 H   0  0  0  0  0  0  0  0  0  0  0  0
   59.6732   22.0823   43.4069 H   0  0  0  0  0  0  0  0  0  0  0  0
   57.8397   21.3053   41.9004 H   0  0  0  0  0  0  0  0  0  0  0  0
   55.6279   20.6595   42.8578 H   0  0  0  0  0  0  0  0  0  0  0  0
   57.9573   25.6683   46.8743 H   0  0  0  0  0  0  0  0  0  0  0  0
   59.9198   27.1501   46.4608 H   0  0  0  0  0  0  0  0  0  0  0  0
   59.6222   29.3197   45.2634 H   0  0  0  0  0  0  0  0  0  0  0  0
   57.4366   33.9776   43.8410 H   0  0  0  0  0  0  0  0  0  0  0  0
   58.9866   35.8222   44.4858 H   0  0  0  0  0  0  0  0  0  0  0  0
   60.2258   35.7180   46.6482 H   0  0  0  0  0  0  0  0  0  0  0  0
   62.9826   35.0852   50.1894 H   0  0  0  0  0  0  0  0  0  0  0  0
   62.1059   33.5141   50.5206 H   0  0  0  0  0  0  0  0  0  0  0  0
   64.7544   33.9141   49.0793 H   0  0  0  0  0  0  0  0  0  0  0  0
   64.4293   33.0154   50.6053 H   0  0  0  0  0  0  0  0  0  0  0  0
   64.6959   31.4757   48.6872 H   0  0  0  0  0  0  0  0  0  0  0  0
   63.0182   31.4214   49.3732 H   0  0  0  0  0  0  0  0  0  0  0  0
   63.9649   32.2463   46.6891 H   0  0  0  0  0  0  0  0  0  0  0  0
   62.3424   31.6304   47.2676 H   0  0  0  0  0  0  0  0  0  0  0  0
   63.3658   34.4583   47.0528 H   0  0  0  0  0  0  0  0  0  0  0  0
   61.7681   33.7113   46.5652 H   0  0  0  0  0  0  0  0  0  0  0  0
   58.3117   31.9433   47.5622 H   0  0  0  0  0  0  0  0  0  0  0  0
   55.3783   28.5374   44.9087 H   0  0  0  0  0  0  0  0  0  0  0  0
  1  2  2  0
  2  3  1  0
  3  4  1  0
  4  5  1  0
  5  6  1  0
  6  7  2  0
  6  8  1  0
  8  9  2  0
  9 10  1  0
 10 11  2  0
 11 12  1  0
 12 13  2  0
 13 14  1  0
  2 15  1  0
 15 16  1  0
 16 17  2  0
 17 18  1  0
 18 19  2  0
 19 20  1  0
 20 21  1  0
 21 22  2  0
 21 23  2  0
 21 24  1  0
 24 25  1  0
 25 26  2  0
 26 27  1  0
 27 28  2  0
 28 29  1  0
 29 30  1  0
 30 31  2  0
 30 32  2  0
 30 33  1  0
 33 34  1  0
 34 35  1  0
 35 36  1  0
 36 37  1  0
 37 38  1  0
 29 39  2  0
 20 40  2  0
 13  8  1  0
 40 16  1  0
 39 25  1  0
 38 33  1  0
  3 41  1  0
  3 42  1  0
  4 43  1  0
  4 44  1  0
  9 45  1  0
 10 46  1  0
 11 47  1  0
 12 48  1  0
 17 49  1  0
 18 50  1  0
 19 51  1  0
 26 52  1  0
 27 53  1  0
 28 54  1  0
 34 55  1  0
 34 56  1  0
 35 57  1  0
 35 58  1  0
 36 59  1  0
 36 60  1  0
 37 61  1  0
 37 62  1  0
 38 63  1  0
 38 64  1  0
 39 65  1  0
 40 66  1  0
M  CHG  4   5  -1  14  -1  15  -1  24  -1
M  END
>  <UniqueID>  (92) 
85

>  <SMILES>  (92) 
O=C(CC[N-]C(=O)c1ccccc1[O-])[N-]c1cccc(S(=O)(=O)[N-]c2cccc(S(=O)(=O)N3CCCCC3)c2)c1

>  <Energy>  (92) 
85.45793462151319

>  <Genealogy>  (92) 
O=C(CC[N-]C(=O)c1ccccc1[O-])[N-]c1cccc(S(=O)(=O)[N-]c2cccc(S(=O)(=O)N3CCCCC3)c2)c1 (protonated)
O=C(CC[N-]C(=O)c1ccccc1[O-])[N-]c1cccc(S(=O)(=O)[N-]c2cccc(S(=O)(=O)N3CCCCC3)c2)c1 (3D coordinates assigned)
O=C(CC[N-]C(=O)c1ccccc1[O-])[N-]c1cccc(S(=O)(=O)[N-]c2cccc(S(=O)(=O)N3CCCCC3)c2)c1 (nonaromatic ring conformer: 85.45793462151319 kcal/mol)

>  <smiles>  (92) 
O=C(CCNC(=O)c1ccccc1O)Nc1cccc(S(=O)(=O)Nc2cccc(S(=O)(=O)N3CCCCC3)c2)c1

>  <score_type>  (92) 
oracle

>  <origin>  (92) 
adg

>  <m_score__min__energy>  (92) 
-18.600000000000001

>  <m_primary>  (92) 
energy

$$$$
92:0
     RDKit          3D

 69 72  0  0  1  0  0  0  0  0999 V2000
   61.3450   26.5420   50.6620 C   0  0  0  0  0  0  0  0  0  0  0  0
   60.4830   27.3190   49.7610 C   0  0  0  0  0  0  0  0  0  0  0  0
   60.0510   26.7440   48.5890 C   0  0  0  0  0  0  0  0  0  0  0  0
   59.2240   27.4330   47.6820 C   0  0  0  0  0  0  0  0  0  0  0  0
   58.8400   26.6940   46.5180 C   0  0  0  0  0  0  0  0  0  0  0  0
   58.0390   25.6690   46.4170 C   0  0  0  0  0  0  0  0  0  0  0  0
   56.6400   25.8170   46.3760 C   0  0  0  0  0  0  0  0  0  0  0  0
   55.5070   25.9210   46.3300 N   0  0  0  0  0  0  0  0  0  0  0  0
   58.9000   28.6920   48.0660 C   0  0  0  0  0  0  0  0  0  0  0  0
   59.3290   29.2910   49.2480 C   0  0  0  0  0  0  0  0  0  0  0  0
   58.9290   30.6730   49.5760 C   0  0  0  0  0  0  0  0  0  0  0  0
   60.1350   28.6110   50.1270 C   0  0  0  0  0  0  0  0  0  0  0  0
   60.6150   29.0980   51.3120 O   0  0  0  0  0  0  0  0  0  0  0  0
   61.4250   30.1700   51.5300 C   0  0  0  0  0  0  0  0  0  0  0  0
   62.0350   30.7590   50.4320 C   0  0  0  0  0  0  0  0  0  0  0  0
   62.8710   31.8480   50.5500 C   0  0  0  0  0  0  0  0  0  0  0  0
   63.4310   32.3930   49.5560 N   0  0  0  0  0  0  0  0  0  0  0  0
   63.4110   33.8000   49.3150 C   0  0  0  0  0  0  0  0  0  0  0  0
   63.3570   33.9830   47.8050 C   0  0  0  0  0  0  0  0  0  0  0  0
   62.3530   32.9130   47.3610 C   0  0  0  0  0  0  0  0  0  0  0  0
   61.0770   33.2880   47.8170 N   0  0  0  0  0  0  0  0  0  0  0  0
   60.2420   33.7210   46.7500 C   0  0  0  0  0  0  0  0  0  0  0  0
   59.3630   32.6800   46.1680 C   0  0  0  0  0  0  0  0  0  0  0  0
   58.0750   33.0460   45.7580 C   0  0  0  0  0  0  0  0  0  0  0  0
   57.2200   32.0950   45.2150 C   0  0  0  0  0  0  0  0  0  0  0  0
   57.5910   30.7720   45.0580 C   0  0  0  0  0  0  0  0  0  0  0  0
   56.5080   29.5820   44.3720 S   0  0  0  0  0  0  0  0  0  0  0  0
   56.6230   29.5730   42.6610 N   0  0  0  0  0  0  0  0  0  0  0  0
   55.1320   29.9270   44.8600 O   0  0  0  0  0  0  0  0  0  0  0  0
   56.9140   28.2220   44.9110 O   0  0  0  0  0  0  0  0  0  0  0  0
   58.8620   30.4250   45.4660 C   0  0  0  0  0  0  0  0  0  0  0  0
   59.7310   31.3620   46.0110 C   0  0  0  0  0  0  0  0  0  0  0  0
   60.9050   33.8240   49.0870 C   0  0  0  0  0  0  0  0  0  0  0  0
   62.0860   34.3160   49.8350 C   0  0  0  0  0  0  0  0  0  0  0  0
   63.1080   32.3640   51.7790 N   0  0  0  0  0  0  0  0  0  0  0  0
   62.5210   31.8010   52.8560 C   0  0  0  0  0  0  0  0  0  0  0  0
   62.7220   32.2700   54.0590 N   0  0  0  0  0  0  0  0  0  0  0  0
   61.6960   30.7230   52.7240 N   0  0  0  0  0  0  0  0  0  0  0  0
   61.0877   26.7739   51.7060 H   0  0  0  0  0  0  0  0  0  0  0  0
   61.1950   25.4680   50.4773 H   0  0  0  0  0  0  0  0  0  0  0  0
   62.3977   26.8023   50.4773 H   0  0  0  0  0  0  0  0  0  0  0  0
   60.3609   25.7152   48.3533 H   0  0  0  0  0  0  0  0  0  0  0  0
   59.2839   27.0398   45.5728 H   0  0  0  0  0  0  0  0  0  0  0  0
   58.4702   24.6585   46.3622 H   0  0  0  0  0  0  0  0  0  0  0  0
   58.2540   29.2810   47.3983 H   0  0  0  0  0  0  0  0  0  0  0  0
   58.8937   30.7950   50.6686 H   0  0  0  0  0  0  0  0  0  0  0  0
   59.6603   31.3768   49.1519 H   0  0  0  0  0  0  0  0  0  0  0  0
   57.9348   30.8774   49.1519 H   0  0  0  0  0  0  0  0  0  0  0  0
   61.8446   30.3420   49.4321 H   0  0  0  0  0  0  0  0  0  0  0  0
   64.2730   34.3042   49.7763 H   0  0  0  0  0  0  0  0  0  0  0  0
   63.0026   34.9905   47.5417 H   0  0  0  0  0  0  0  0  0  0  0  0
   64.3398   33.8810   47.3216 H   0  0  0  0  0  0  0  0  0  0  0  0
   62.3489   32.8395   46.2635 H   0  0  0  0  0  0  0  0  0  0  0  0
   62.6323   31.9347   47.7792 H   0  0  0  0  0  0  0  0  0  0  0  0
   59.6027   34.5328   47.1274 H   0  0  0  0  0  0  0  0  0  0  0  0
   60.9201   34.0316   45.9415 H   0  0  0  0  0  0  0  0  0  0  0  0
   57.7397   34.0881   45.8660 H   0  0  0  0  0  0  0  0  0  0  0  0
   56.2130   32.4051   44.8990 H   0  0  0  0  0  0  0  0  0  0  0  0
   57.3820   30.1950   42.3000 H   0  0  0  0  0  0  0  0  0  0  0  0
   55.7020   29.7570   42.2110 H   0  0  0  0  0  0  0  0  0  0  0  0
   59.1953   29.3824   45.3574 H   0  0  0  0  0  0  0  0  0  0  0  0
   60.7363   31.0439   46.3244 H   0  0  0  0  0  0  0  0  0  0  0  0
   60.2134   34.6734   48.9854 H   0  0  0  0  0  0  0  0  0  0  0  0
   60.5572   32.9686   49.6847 H   0  0  0  0  0  0  0  0  0  0  0  0
   62.0973   35.4144   49.7775 H   0  0  0  0  0  0  0  0  0  0  0  0
   61.9847   33.9434   50.8650 H   0  0  0  0  0  0  0  0  0  0  0  0
   63.7340   33.1900   51.9200 H   0  0  0  0  0  0  0  0  0  0  0  0
   62.7360   33.2840   54.2710 H   0  0  0  0  0  0  0  0  0  0  0  0
   61.2790   30.3380   53.5770 H   0  0  0  0  0  0  0  0  0  0  0  0
  1  2  1  0
  2  3  2  0
  3  4  1  0
  4  5  1  0
  5  6  2  0
  6  7  1  0
  7  8  3  0
  4  9  2  0
  9 10  1  0
 10 11  1  0
 10 12  2  0
 12 13  1  0
 13 14  1  0
 14 15  2  0
 15 16  1  0
 16 17  2  0
 17 18  1  0
 18 19  1  0
 19 20  1  0
 20 21  1  0
 21 22  1  0
 22 23  1  0
 23 24  2  0
 24 25  1  0
 25 26  2  0
 26 27  1  0
 27 28  1  0
 27 29  2  0
 27 30  2  0
 26 31  1  0
 31 32  2  0
 21 33  1  0
 33 34  1  0
 16 35  1  0
 35 36  1  0
 36 37  2  3
 36 38  1  0
 12  2  1  0
 38 14  1  0
 34 18  1  0
 32 23  1  0
  1 39  1  0
  1 40  1  0
  1 41  1  0
  3 42  1  0
  5 43  1  0
  6 44  1  0
  9 45  1  0
 11 46  1  0
 11 47  1  0
 11 48  1  0
 15 49  1  0
 18 50  1  0
 19 51  1  0
 19 52  1  0
 20 53  1  0
 20 54  1  0
 22 55  1  0
 22 56  1  0
 24 57  1  0
 25 58  1  0
 28 59  1  0
 28 60  1  0
 31 61  1  0
 32 62  1  0
 33 63  1  0
 33 64  1  0
 34 65  1  0
 34 66  1  0
 35 67  1  0
 37 68  1  0
 38 69  1  0
M  END
>  <smiles>  (93) 
Cc1cc(C=CC#N)cc(C)c1Oc1cc(=NC2CCN(Cc3ccc(S(N)(=O)=O)cc3)CC2)[nH]c(=N)[nH]1

>  <score_type>  (93) 
oracle

>  <origin>  (93) 
adg

>  <m_score__min__energy>  (93) 
-10.81

>  <m_primary>  (93) 
energy

$$$$
