0:0
     RDKit          3D

 51 54  0  0  0  0  0  0  0  0999 V2000
   55.2870   28.6100   45.6240 H   0  0  0  0  0  0  0  0  0  0  0  0
   55.1350   29.3470   44.8990 N   0  0  0  0  0  0  0  0  0  0  0  0
   56.6760   29.6970   44.2030 S   0  0  0  0  0  0  0  0  0  0  0  0
   56.7890   31.1770   43.9670 O   0  0  0  0  0  0  0  0  0  0  0  0
   56.8130   28.9830   42.8870 O   0  0  0  0  0  0  0  0  0  0  0  0
   57.9430   29.1540   45.2980 C   0  0  0  0  0  0  0  0  0  0  0  0
   57.7790   27.9910   46.0630 C   0  0  0  0  0  0  0  0  0  0  0  0
   56.8548   27.4011   45.9744 H   0  0  0  0  0  0  0  0  0  0  0  0
   58.7880   27.5800   46.9380 C   0  0  0  0  0  0  0  0  0  0  0  0
   58.6502   26.6754   47.5485 H   0  0  0  0  0  0  0  0  0  0  0  0
   59.9720   28.3160   47.0390 C   0  0  0  0  0  0  0  0  0  0  0  0
   60.7563   27.9950   47.7403 H   0  0  0  0  0  0  0  0  0  0  0  0
   60.1670   29.4590   46.2540 C   0  0  0  0  0  0  0  0  0  0  0  0
   61.3950   30.1920   46.4010 N   0  0  0  0  0  0  0  0  0  0  0  0
   61.6390   31.1570   47.2410 C   0  0  0  0  0  0  0  0  0  0  0  0
   60.6720   32.0420   47.6020 N   0  0  0  0  0  0  0  0  0  0  0  0
   60.9350   33.0590   48.4610 C   0  0  0  0  0  0  0  0  0  0  0  0
   59.6370   34.2090   48.9000 S   0  0  0  0  0  0  0  0  0  0  0  0
   58.8820   34.0960   47.2790 C   0  0  0  0  0  0  0  0  0  0  0  0
   59.4950   34.7030   46.1760 C   0  0  0  0  0  0  0  0  0  0  0  0
   60.4499   35.2345   46.3014 H   0  0  0  0  0  0  0  0  0  0  0  0
   58.8940   34.6340   44.9150 C   0  0  0  0  0  0  0  0  0  0  0  0
   59.3761   35.1119   44.0494 H   0  0  0  0  0  0  0  0  0  0  0  0
   57.6810   33.9580   44.7540 C   0  0  0  0  0  0  0  0  0  0  0  0
   57.2074   33.9073   43.7625 H   0  0  0  0  0  0  0  0  0  0  0  0
   57.0690   33.3460   45.8530 C   0  0  0  0  0  0  0  0  0  0  0  0
   56.1153   32.8129   45.7252 H   0  0  0  0  0  0  0  0  0  0  0  0
   57.6700   33.4120   47.1150 C   0  0  0  0  0  0  0  0  0  0  0  0
   57.1910   32.9269   47.9783 H   0  0  0  0  0  0  0  0  0  0  0  0
   62.2190   33.2140   48.9820 C   0  0  0  0  0  0  0  0  0  0  0  0
   62.4417   34.0218   49.6946 H   0  0  0  0  0  0  0  0  0  0  0  0
   63.2210   32.3190   48.5790 C   0  0  0  0  0  0  0  0  0  0  0  0
   64.5800   32.4410   49.0330 N   0  0  0  0  0  0  0  0  0  0  0  0
   65.3000   32.7540   48.3420 H   0  0  0  0  0  0  0  0  0  0  0  0
   65.0130   32.2300   50.4150 C   0  0  0  0  0  0  0  0  0  0  0  0
   64.1628   32.4058   51.0905 H   0  0  0  0  0  0  0  0  0  0  0  0
   65.3753   31.1965   50.5179 H   0  0  0  0  0  0  0  0  0  0  0  0
   66.1320   33.1730   50.7730 C   0  0  0  0  0  0  0  0  0  0  0  0
   65.9070   34.2240   51.6790 C   0  0  0  0  0  0  0  0  0  0  0  0
   64.9099   34.3609   52.1229 H   0  0  0  0  0  0  0  0  0  0  0  0
   66.9460   35.0960   52.0180 C   0  0  0  0  0  0  0  0  0  0  0  0
   66.7659   35.9139   52.7312 H   0  0  0  0  0  0  0  0  0  0  0  0
   68.2130   34.9300   51.4520 C   0  0  0  0  0  0  0  0  0  0  0  0
   69.0310   35.6124   51.7263 H   0  0  0  0  0  0  0  0  0  0  0  0
   68.4420   33.8970   50.5370 C   0  0  0  0  0  0  0  0  0  0  0  0
   69.4377   33.7724   50.0864 H   0  0  0  0  0  0  0  0  0  0  0  0
   67.4060   33.0230   50.1950 C   0  0  0  0  0  0  0  0  0  0  0  0
   67.5875   32.2148   49.4712 H   0  0  0  0  0  0  0  0  0  0  0  0
   62.9000   31.3110   47.7240 N   0  0  0  0  0  0  0  0  0  0  0  0
   59.1310   29.8920   45.4030 C   0  0  0  0  0  0  0  0  0  0  0  0
   59.2547   30.8148   44.8172 H   0  0  0  0  0  0  0  0  0  0  0  0
  1  2  1  0
  2  3  1  0
  3  4  2  0
  3  5  2  0
  3  6  1  0
  6  7  2  0
  7  8  1  0
  7  9  1  0
  9 10  1  0
  9 11  2  0
 11 12  1  0
 11 13  1  0
 13 14  1  0
 14 15  2  0
 15 16  1  0
 16 17  2  0
 17 18  1  0
 18 19  1  0
 19 20  2  0
 20 21  1  0
 20 22  1  0
 22 23  1  0
 22 24  2  0
 24 25  1  0
 24 26  1  0
 26 27  1  0
 26 28  2  0
 28 29  1  0
 17 30  1  0
 30 31  1  0
 30 32  2  0
 32 33  1  0
 33 34  1  0
 33 35  1  0
 35 36  1  0
 35 37  1  0
 35 38  1  0
 38 39  2  0
 39 40  1  0
 39 41  1  0
 41 42  1  0
 41 43  2  0
 43 44  1  0
 43 45  1  0
 45 46  1  0
 45 47  2  0
 47 48  1  0
 32 49  1  0
 13 50  2  0
 50 51  1  0
 50  6  1  0
 49 15  1  0
 28 19  1  0
 47 38  1  0
M  CHG  2   2  -1  49  -1
M  END
>  <UniqueID>  (1) 
1

>  <SMILES>  (1) 
[NH-]S(=O)(=O)c1cccc(/N=c2\nc(Sc3ccccc3)cc(NCc3ccccc3)[n-]2)c1

>  <Energy>  (1) 
53.92119154118288

>  <Genealogy>  (1) 
[NH-]S(=O)(=O)c1cccc(N=c2nc(Sc3ccccc3)cc(NCc3ccccc3)[n-]2)c1 (protonated)
[NH-]S(=O)(=O)c1cccc(/N=c2\nc(Sc3ccccc3)cc(NCc3ccccc3)[n-]2)c1 (cis-trans isomerization)
[NH-]S(=O)(=O)c1cccc(/N=c2\nc(Sc3ccccc3)cc(NCc3ccccc3)[n-]2)c1 (3D coordinates assigned)
[NH-]S(=O)(=O)c1cccc(/N=c2\nc(Sc3ccccc3)cc(NCc3ccccc3)[n-]2)c1 (optimized conformer: 53.92119154118288 kcal/mol)

>  <smiles>  (1) 
NS(=O)(=O)c1cccc(N=c2nc(Sc3ccccc3)cc(NCc3ccccc3)[nH]2)c1

>  <score_type>  (1) 
oracle

>  <origin>  (1) 
adg

>  <m_score__min__energy>  (1) 
-14

>  <m_primary>  (1) 
energy

$$$$
1:0
     RDKit          3D

 68 72  0  0  0  0  0  0  0  0999 V2000
   65.2540   33.0320   49.4100 C   0  0  0  0  0  0  0  0  0  0  0  0
   63.8150   32.7940   49.9140 C   0  0  0  0  0  0  0  0  0  0  0  0
   63.6300   31.2890   50.1970 C   0  0  0  0  0  0  0  0  0  0  0  0
   63.5980   33.6120   51.2120 C   0  0  0  0  0  0  0  0  0  0  0  0
   62.1480   33.6740   51.6040 C   0  0  0  0  0  0  0  0  0  0  0  0
   61.8320   33.8010   52.8180 O   0  0  0  0  0  0  0  0  0  0  0  0
   61.0960   33.6750   50.5740 C   0  0  0  0  0  0  0  0  0  0  0  0
   61.3860   33.4930   49.2720 C   0  0  0  0  0  0  0  0  0  0  0  0
   60.2980   33.5210   48.2560 C   0  0  0  0  0  0  0  0  0  0  0  0
   60.4580   34.2440   47.0610 C   0  0  0  0  0  0  0  0  0  0  0  0
   59.4500   34.2530   46.0930 C   0  0  0  0  0  0  0  0  0  0  0  0
   58.2710   33.5170   46.2890 C   0  0  0  0  0  0  0  0  0  0  0  0
   57.2300   33.4820   45.2360 C   0  0  0  0  0  0  0  0  0  0  0  0
   56.6540   34.5490   44.9010 O   0  0  0  0  0  0  0  0  0  0  0  0
   56.7990   32.2490   44.6350 N   0  0  0  0  0  0  0  0  0  0  0  0
   57.2990   31.0590   44.8250 C   0  0  0  0  0  0  0  0  0  0  0  0
   58.6850   30.7990   44.7820 C   0  0  0  0  0  0  0  0  0  0  0  0
   59.1490   29.5040   45.0100 C   0  0  0  0  0  0  0  0  0  0  0  0
   58.2470   28.4650   45.2630 C   0  0  0  0  0  0  0  0  0  0  0  0
   58.7300   27.0900   45.5000 C   0  0  0  0  0  0  0  0  0  0  0  0
   59.8790   26.9140   45.9860 O   0  0  0  0  0  0  0  0  0  0  0  0
   57.9140   25.9520   45.1810 N   0  0  0  0  0  0  0  0  0  0  0  0
   57.3470   25.0660   46.1920 C   0  0  0  0  0  0  0  0  0  0  0  0
   56.5280   24.0640   45.3840 C   0  0  2  0  0  0  0  0  0  0  0  0
   56.3240   22.6930   46.0380 C   0  0  0  0  0  0  0  0  0  0  0  0
   57.0860   21.5740   45.2990 C   0  0  0  0  0  0  0  0  0  0  0  0
   56.4080   21.0980   43.9950 C   0  0  0  0  0  0  0  0  0  0  0  0
   56.7080   21.9320   42.7160 C   0  0  0  0  0  0  0  0  0  0  0  0
   56.5570   23.3850   42.9070 N   0  0  0  0  0  0  0  0  0  0  0  0
   57.2890   23.9840   44.0510 C   0  0  1  0  0  0  0  0  0  0  0  0
   57.7530   25.4210   43.8290 C   0  0  0  0  0  0  0  0  0  0  0  0
   56.8740   28.7490   45.2440 C   0  0  0  0  0  0  0  0  0  0  0  0
   56.4430   30.0220   45.0360 N   0  0  0  0  0  0  0  0  0  0  0  0
   58.1040   32.8000   47.4840 C   0  0  0  0  0  0  0  0  0  0  0  0
   59.1040   32.8040   48.4600 C   0  0  0  0  0  0  0  0  0  0  0  0
   62.7930   33.2220   48.8710 C   0  0  0  0  0  0  0  0  0  0  0  0
   63.1230   33.2970   47.6540 O   0  0  0  0  0  0  0  0  0  0  0  0
   65.9301   33.1438   50.2705 H   0  0  0  0  0  0  0  0  0  0  0  0
   65.5754   32.1748   48.8001 H   0  0  0  0  0  0  0  0  0  0  0  0
   65.2823   33.9470   48.8001 H   0  0  0  0  0  0  0  0  0  0  0  0
   63.6092   31.1201   51.2838 H   0  0  0  0  0  0  0  0  0  0  0  0
   62.6830   30.9464   49.7545 H   0  0  0  0  0  0  0  0  0  0  0  0
   64.4659   30.7272   49.7545 H   0  0  0  0  0  0  0  0  0  0  0  0
   64.1663   33.1410   52.0276 H   0  0  0  0  0  0  0  0  0  0  0  0
   63.9438   34.6398   51.0272 H   0  0  0  0  0  0  0  0  0  0  0  0
   60.0491   33.8279   50.8752 H   0  0  0  0  0  0  0  0  0  0  0  0
   61.3859   34.8083   46.8861 H   0  0  0  0  0  0  0  0  0  0  0  0
   59.5813   34.8403   45.1722 H   0  0  0  0  0  0  0  0  0  0  0  0
   59.3947   31.6123   44.5701 H   0  0  0  0  0  0  0  0  0  0  0  0
   60.2294   29.2984   44.9908 H   0  0  0  0  0  0  0  0  0  0  0  0
   58.1421   24.5569   46.7565 H   0  0  0  0  0  0  0  0  0  0  0  0
   56.7432   25.6044   46.9374 H   0  0  0  0  0  0  0  0  0  0  0  0
   55.4857   24.4001   45.2807 H   0  0  0  0  0  0  0  0  0  0  0  0
   56.6831   22.7394   47.0767 H   0  0  0  0  0  0  0  0  0  0  0  0
   55.2509   22.4553   45.9947 H   0  0  0  0  0  0  0  0  0  0  0  0
   58.0899   21.9478   45.0489 H   0  0  0  0  0  0  0  0  0  0  0  0
   57.1092   20.7078   45.9766 H   0  0  0  0  0  0  0  0  0  0  0  0
   56.7349   20.0649   43.8054 H   0  0  0  0  0  0  0  0  0  0  0  0
   55.3276   21.2086   44.1697 H   0  0  0  0  0  0  0  0  0  0  0  0
   57.7429   21.7286   42.4037 H   0  0  0  0  0  0  0  0  0  0  0  0
   55.9728   21.6298   41.9556 H   0  0  0  0  0  0  0  0  0  0  0  0
   55.5380   23.6170   42.9700 H   0  0  0  0  0  0  0  0  0  0  0  0
   58.1209   23.2667   44.1104 H   0  0  0  0  0  0  0  0  0  0  0  0
   58.7079   25.4439   43.2834 H   0  0  0  0  0  0  0  0  0  0  0  0
   57.0443   26.0068   43.2251 H   0  0  0  0  0  0  0  0  0  0  0  0
   56.1441   27.9406   45.3976 H   0  0  0  0  0  0  0  0  0  0  0  0
   57.1784   32.2303   47.6536 H   0  0  0  0  0  0  0  0  0  0  0  0
   58.9571   32.2427   49.3946 H   0  0  0  0  0  0  0  0  0  0  0  0
  1  2  1  0
  2  3  1  0
  2  4  1  0
  4  5  1  0
  5  6  2  0
  5  7  1  0
  7  8  2  0
  8  9  1  0
  9 10  2  0
 10 11  1  0
 11 12  2  0
 12 13  1  0
 13 14  2  0
 13 15  1  0
 15 16  2  3
 16 17  1  0
 17 18  2  0
 18 19  1  0
 19 20  1  0
 20 21  2  0
 20 22  1  0
 22 23  1  0
 23 24  1  0
 24 25  1  0
 25 26  1  0
 26 27  1  0
 27 28  1  0
 28 29  1  0
 29 30  1  0
 30 31  1  0
 19 32  2  0
 32 33  1  0
 12 34  1  0
 34 35  2  0
  8 36  1  0
 36 37  2  0
 36  2  1  0
 35  9  1  0
 33 16  1  0
 31 22  1  0
 30 24  1  0
  1 38  1  0
  1 39  1  0
  1 40  1  0
  3 41  1  0
  3 42  1  0
  3 43  1  0
  4 44  1  0
  4 45  1  0
  7 46  1  0
 10 47  1  0
 11 48  1  0
 17 49  1  0
 18 50  1  0
 23 51  1  0
 23 52  1  0
 24 53  1  6
 25 54  1  0
 25 55  1  0
 26 56  1  0
 26 57  1  0
 27 58  1  0
 27 59  1  0
 28 60  1  0
 28 61  1  0
 29 62  1  0
 30 63  1  1
 31 64  1  0
 31 65  1  0
 32 66  1  0
 34 67  1  0
 35 68  1  0
M  CHG  1  33  -1
M  END
>  <UniqueID>  (2) 
2

>  <SMILES>  (2) 
CC1(C)CC(=O)C=C(c2ccc(C(=O)N=c3ccc(C(=O)N4C[C@@H]5CCCCN[C@H]5C4)c[n-]3)cc2)C1=O

>  <Energy>  (2) 
109.18312305883786

>  <Genealogy>  (2) 
CC1(C)CC(=O)C=C(c2ccc(C(=O)N=c3ccc(C(=O)N4CC5CCCCNC5C4)c[n-]3)cc2)C1=O (protonated)
CC1(C)CC(=O)C=C(c2ccc(C(=O)N=c3ccc(C(=O)N4C[C@@H]5CCCCN[C@H]5C4)c[n-]3)cc2)C1=O (chirality)
CC1(C)CC(=O)C=C(c2ccc(C(=O)N=c3ccc(C(=O)N4C[C@@H]5CCCCN[C@H]5C4)c[n-]3)cc2)C1=O (3D coordinates assigned)
CC1(C)CC(=O)C=C(c2ccc(C(=O)N=c3ccc(C(=O)N4C[C@@H]5CCCCN[C@H]5C4)c[n-]3)cc2)C1=O (nonaromatic ring conformer: 109.18312305883786 kcal/mol)

>  <smiles>  (2) 
CC1(C)CC(=O)C=C(c2ccc(C(=O)N=c3ccc(C(=O)N4CC5CCCCNC5C4)c[nH]3)cc2)C1=O

>  <score_type>  (2) 
oracle

>  <origin>  (2) 
adg

>  <m_score__min__energy>  (2) 
-10.43

>  <m_primary>  (2) 
energy

$$$$
2:0
     RDKit          3D

 48 50  0  0  0  0  0  0  0  0999 V2000
   54.4090   25.8740   45.6450 O   0  0  0  0  0  0  0  0  0  0  0  0
   55.6680   25.8750   45.6810 C   0  0  0  0  0  0  0  0  0  0  0  0
   56.3530   27.0750   46.0590 N   0  0  0  0  0  0  0  0  0  0  0  0
   57.2040   27.8480   45.1610 C   0  0  0  0  0  0  0  0  0  0  0  0
   56.6820   29.2510   45.0490 C   0  0  0  0  0  0  0  0  0  0  0  0
   55.4450   29.4140   44.8600 O   0  0  0  0  0  0  0  0  0  0  0  0
   57.5460   30.4050   45.1450 N   0  0  0  0  0  0  0  0  0  0  0  0
   57.0850   31.6620   44.5350 C   0  0  0  0  0  0  0  0  0  0  0  0
   58.1060   32.7780   44.7200 C   0  0  0  0  0  0  0  0  0  0  0  0
   58.5680   32.7480   46.1090 N   0  0  0  0  0  0  0  0  0  0  0  0
   59.4280   34.2210   46.4970 S   0  0  0  0  0  0  0  0  0  0  0  0
   59.6060   35.0380   45.2470 O   0  0  0  0  0  0  0  0  0  0  0  0
   58.6180   35.0310   47.4700 O   0  0  0  0  0  0  0  0  0  0  0  0
   61.0150   33.8790   47.1950 C   0  0  0  0  0  0  0  0  0  0  0  0
   61.1580   33.6970   48.5790 C   0  0  0  0  0  0  0  0  0  0  0  0
   62.4150   33.4190   49.1270 C   0  0  0  0  0  0  0  0  0  0  0  0
   63.5330   33.3210   48.2940 C   0  0  0  0  0  0  0  0  0  0  0  0
   63.3980   33.5010   46.9160 C   0  0  0  0  0  0  0  0  0  0  0  0
   62.1420   33.7810   46.3660 C   0  0  0  0  0  0  0  0  0  0  0  0
   59.4280   31.5760   46.3540 C   0  0  0  0  0  0  0  0  0  0  0  0
   58.9210   30.2840   45.6660 C   0  0  0  0  0  0  0  0  0  0  0  0
   56.4010   24.6590   45.2870 C   0  0  0  0  0  0  0  0  0  0  0  0
   55.8170   23.7900   44.3510 C   0  0  0  0  0  0  0  0  0  0  0  0
   56.4910   22.6360   43.9410 C   0  0  0  0  0  0  0  0  0  0  0  0
   55.9060   21.7830   43.0150 O   0  0  0  0  0  0  0  0  0  0  0  0
   57.7510   22.3390   44.4650 C   0  0  0  0  0  0  0  0  0  0  0  0
   58.3350   23.1910   45.4070 C   0  0  0  0  0  0  0  0  0  0  0  0
   57.6640   24.3420   45.8350 C   0  0  0  0  0  0  0  0  0  0  0  0
   58.2610   25.1340   46.8180 O   0  0  0  0  0  0  0  0  0  0  0  0
   58.2294   27.8704   45.5586 H   0  0  0  0  0  0  0  0  0  0  0  0
   57.2028   27.3792   44.1659 H   0  0  0  0  0  0  0  0  0  0  0  0
   56.9237   31.4994   43.4591 H   0  0  0  0  0  0  0  0  0  0  0  0
   56.1497   31.9636   45.0292 H   0  0  0  0  0  0  0  0  0  0  0  0
   58.9569   32.6209   44.0408 H   0  0  0  0  0  0  0  0  0  0  0  0
   57.6500   33.7526   44.4916 H   0  0  0  0  0  0  0  0  0  0  0  0
   60.2787   33.7732   49.2355 H   0  0  0  0  0  0  0  0  0  0  0  0
   62.5232   33.2777   50.2125 H   0  0  0  0  0  0  0  0  0  0  0  0
   64.5211   33.1017   48.7248 H   0  0  0  0  0  0  0  0  0  0  0  0
   64.2793   33.4227   46.2624 H   0  0  0  0  0  0  0  0  0  0  0  0
   62.0384   33.9246   45.2804 H   0  0  0  0  0  0  0  0  0  0  0  0
   60.4367   31.7990   45.9761 H   0  0  0  0  0  0  0  0  0  0  0  0
   59.4208   31.3899   47.4381 H   0  0  0  0  0  0  0  0  0  0  0  0
   59.5930   30.0472   44.8279 H   0  0  0  0  0  0  0  0  0  0  0  0
   58.9139   29.4894   46.4266 H   0  0  0  0  0  0  0  0  0  0  0  0
   54.8234   24.0188   43.9381 H   0  0  0  0  0  0  0  0  0  0  0  0
   58.2840   21.4346   44.1365 H   0  0  0  0  0  0  0  0  0  0  0  0
   59.3290   22.9550   45.8147 H   0  0  0  0  0  0  0  0  0  0  0  0
   57.9710   26.0840   47.0060 H   0  0  0  0  0  0  0  0  0  0  0  0
  1  2  2  0
  2  3  1  0
  3  4  1  0
  4  5  1  0
  5  6  2  0
  5  7  1  0
  7  8  1  0
  8  9  1  0
  9 10  1  0
 10 11  1  0
 11 12  2  0
 11 13  2  0
 11 14  1  0
 14 15  2  0
 15 16  1  0
 16 17  2  0
 17 18  1  0
 18 19  2  0
 10 20  1  0
 20 21  1  0
  2 22  1  0
 22 23  2  0
 23 24  1  0
 24 25  1  0
 24 26  2  0
 26 27  1  0
 27 28  2  0
 28 29  1  0
 21  7  1  0
 28 22  1  0
 19 14  1  0
  4 30  1  0
  4 31  1  0
  8 32  1  0
  8 33  1  0
  9 34  1  0
  9 35  1  0
 15 36  1  0
 16 37  1  0
 17 38  1  0
 18 39  1  0
 19 40  1  0
 20 41  1  0
 20 42  1  0
 21 43  1  0
 21 44  1  0
 23 45  1  0
 26 46  1  0
 27 47  1  0
 29 48  1  0
M  CHG  2   3  -1  25  -1
M  END
>  <UniqueID>  (3) 
3

>  <SMILES>  (3) 
O=C([N-]CC(=O)N1CCN(S(=O)(=O)c2ccccc2)CC1)c1cc([O-])ccc1O

>  <Energy>  (3) 
58.61012090978271

>  <Genealogy>  (3) 
O=C([N-]CC(=O)N1CCN(S(=O)(=O)c2ccccc2)CC1)c1cc([O-])ccc1O (protonated)
O=C([N-]CC(=O)N1CCN(S(=O)(=O)c2ccccc2)CC1)c1cc([O-])ccc1O (3D coordinates assigned)
O=C([N-]CC(=O)N1CCN(S(=O)(=O)c2ccccc2)CC1)c1cc([O-])ccc1O (nonaromatic ring conformer: 58.61012090978271 kcal/mol)

>  <smiles>  (3) 
O=C(NCC(=O)N1CCN(S(=O)(=O)c2ccccc2)CC1)c1cc(O)ccc1O

>  <score_type>  (3) 
oracle

>  <origin>  (3) 
adg

>  <m_score__min__energy>  (3) 
-14.470000000000001

>  <m_primary>  (3) 
energy

$$$$
3:0
     RDKit          3D

 41 43  0  0  0  0  0  0  0  0999 V2000
   53.8570   22.3600   47.9440 C   0  0  0  0  0  0  0  0  0  0  0  0
   54.2740   22.6120   46.5000 C   0  0  0  0  0  0  0  0  0  0  0  0
   55.2100   23.7300   46.4320 N   0  0  0  0  0  0  0  0  0  0  0  0
   54.8870   24.9380   45.9940 N   0  0  0  0  0  0  0  0  0  0  0  0
   55.9790   25.7190   46.1340 C   0  0  0  0  0  0  0  0  0  0  0  0
   56.0110   27.0910   45.7160 N   0  0  0  0  0  0  0  0  0  0  0  0
   57.1040   27.9860   45.9780 C   0  0  0  0  0  0  0  0  0  0  0  0
   57.9010   27.7410   46.9250 O   0  0  0  0  0  0  0  0  0  0  0  0
   57.2810   29.2250   45.1800 C   0  0  0  0  0  0  0  0  0  0  0  0
   56.8010   29.3090   43.8610 C   0  0  0  0  0  0  0  0  0  0  0  0
   56.9870   30.4740   43.1130 C   0  0  0  0  0  0  0  0  0  0  0  0
   57.6500   31.5680   43.6700 C   0  0  0  0  0  0  0  0  0  0  0  0
   58.1280   31.5090   44.9880 C   0  0  0  0  0  0  0  0  0  0  0  0
   58.8570   32.6500   45.5810 C   0  0  0  0  0  0  0  0  0  0  0  0
   60.0460   32.4000   46.1970 N   0  0  0  0  0  0  0  0  0  0  0  0
   60.7970   33.3840   46.7560 C   0  0  0  0  0  0  0  0  0  0  0  0
   60.3590   34.7060   46.7090 C   0  0  0  0  0  0  0  0  0  0  0  0
   59.1400   35.0010   46.1020 C   0  0  0  0  0  0  0  0  0  0  0  0
   58.3570   33.9760   45.5470 C   0  0  0  0  0  0  0  0  0  0  0  0
   57.0250   34.3230   44.9370 C   0  0  0  0  0  0  0  0  0  0  0  0
   57.9590   30.3290   45.7300 C   0  0  0  0  0  0  0  0  0  0  0  0
   57.0340   24.9920   46.6700 C   0  0  0  0  0  0  0  0  0  0  0  0
   56.4900   23.7430   46.8510 C   0  0  0  0  0  0  0  0  0  0  0  0
   57.0910   22.7460   47.3320 O   0  0  0  0  0  0  0  0  0  0  0  0
   54.5977   22.8076   48.6230 H   0  0  0  0  0  0  0  0  0  0  0  0
   52.8716   22.8139   48.1256 H   0  0  0  0  0  0  0  0  0  0  0  0
   53.8007   21.2766   48.1256 H   0  0  0  0  0  0  0  0  0  0  0  0
   54.7572   21.7090   46.0987 H   0  0  0  0  0  0  0  0  0  0  0  0
   53.3806   22.8560   45.9064 H   0  0  0  0  0  0  0  0  0  0  0  0
   55.1560   27.4680   45.2500 H   0  0  0  0  0  0  0  0  0  0  0  0
   56.2755   28.4516   43.4152 H   0  0  0  0  0  0  0  0  0  0  0  0
   56.6095   30.5291   42.0813 H   0  0  0  0  0  0  0  0  0  0  0  0
   57.7986   32.4803   43.0736 H   0  0  0  0  0  0  0  0  0  0  0  0
   61.7506   33.1374   47.2457 H   0  0  0  0  0  0  0  0  0  0  0  0
   60.9699   35.5091   47.1470 H   0  0  0  0  0  0  0  0  0  0  0  0
   58.7891   36.0426   46.0573 H   0  0  0  0  0  0  0  0  0  0  0  0
   56.2940   34.5134   45.7366 H   0  0  0  0  0  0  0  0  0  0  0  0
   57.1303   35.2237   44.3144 H   0  0  0  0  0  0  0  0  0  0  0  0
   56.6775   33.4854   44.3144 H   0  0  0  0  0  0  0  0  0  0  0  0
   58.3608   30.2667   46.7521 H   0  0  0  0  0  0  0  0  0  0  0  0
   58.0555   25.3327   46.8947 H   0  0  0  0  0  0  0  0  0  0  0  0
  1  2  1  0
  2  3  1  0
  3  4  1  0
  4  5  1  0
  5  6  1  0
  6  7  1  0
  7  8  2  0
  7  9  1  0
  9 10  2  0
 10 11  1  0
 11 12  2  0
 12 13  1  0
 13 14  1  0
 14 15  2  0
 15 16  1  0
 16 17  2  0
 17 18  1  0
 18 19  2  0
 19 20  1  0
 13 21  2  0
  5 22  2  0
 22 23  1  0
 23 24  2  0
 23  3  1  0
 21  9  1  0
 19 14  1  0
  1 25  1  0
  1 26  1  0
  1 27  1  0
  2 28  1  0
  2 29  1  0
  6 30  1  0
 10 31  1  0
 11 32  1  0
 12 33  1  0
 16 34  1  0
 17 35  1  0
 18 36  1  0
 20 37  1  0
 20 38  1  0
 20 39  1  0
 21 40  1  0
 22 41  1  0
M  CHG  1   4  -1
M  END
>  <UniqueID>  (4) 
4

>  <SMILES>  (4) 
CCn1[n-]c(NC(=O)c2cccc(-c3ncccc3C)c2)cc1=O

>  <Energy>  (4) 
83.20353817067624

>  <Genealogy>  (4) 
CCn1[n-]c(NC(=O)c2cccc(-c3ncccc3C)c2)cc1=O (protonated)
CCn1[n-]c(NC(=O)c2cccc(-c3ncccc3C)c2)cc1=O (3D coordinates assigned)
CCn1[n-]c(NC(=O)c2cccc(-c3ncccc3C)c2)cc1=O (optimized conformer: 83.20353817067624 kcal/mol)

>  <smiles>  (4) 
CCn1[nH]c(NC(=O)c2cccc(-c3ncccc3C)c2)cc1=O

>  <score_type>  (4) 
oracle

>  <origin>  (4) 
adg

>  <m_score__min__energy>  (4) 
-10.4

>  <m_primary>  (4) 
energy

$$$$
4:0
     RDKit          3D

 58 61  0  0  0  0  0  0  0  0999 V2000
   56.5550   22.5440   49.0860 C   0  0  0  0  0  0  0  0  0  0  0  0
   56.3380   23.3890   47.8700 C   0  0  0  0  0  0  0  0  0  0  0  0
   55.4750   22.9590   46.8580 C   0  0  0  0  0  0  0  0  0  0  0  0
   55.2890   23.7540   45.7180 C   0  0  0  0  0  0  0  0  0  0  0  0
   54.3770   23.3150   44.6370 C   0  0  0  0  0  0  0  0  0  0  0  0
   53.1480   23.1610   44.8700 O   0  0  0  0  0  0  0  0  0  0  0  0
   54.8910   23.0240   43.3370 N   0  0  0  0  0  0  0  0  0  0  0  0
   56.3150   22.8600   43.0730 C   0  0  0  0  0  0  0  0  0  0  0  0
   56.9780   21.8960   44.0400 C   0  0  0  0  0  0  0  0  0  0  0  0
   56.6900   21.4620   42.6090 C   0  0  0  0  0  0  0  0  0  0  0  0
   55.9600   24.9840   45.6300 C   0  0  0  0  0  0  0  0  0  0  0  0
   56.7760   25.4200   46.6980 C   0  0  0  0  0  0  0  0  0  0  0  0
   57.3850   26.5770   46.7050 N   0  0  0  0  0  0  0  0  0  0  0  0
   57.0230   27.7820   46.0110 C   0  0  0  0  0  0  0  0  0  0  0  0
   55.8940   27.8950   45.4590 O   0  0  0  0  0  0  0  0  0  0  0  0
   57.9110   28.8980   46.0360 N   0  0  0  0  0  0  0  0  0  0  0  0
   57.7440   30.0230   45.1610 C   0  0  0  0  0  0  0  0  0  0  0  0
   57.3910   29.8300   43.8190 C   0  0  0  0  0  0  0  0  0  0  0  0
   57.2990   30.9250   42.9520 C   0  0  0  0  0  0  0  0  0  0  0  0
   57.5550   32.2170   43.4240 C   0  0  0  0  0  0  0  0  0  0  0  0
   57.8890   32.4310   44.7770 C   0  0  0  0  0  0  0  0  0  0  0  0
   58.1530   33.8000   45.2950 C   0  0  0  0  0  0  0  0  0  0  0  0
   57.4400   34.7690   44.9140 O   0  0  0  0  0  0  0  0  0  0  0  0
   59.1970   34.0360   46.2530 N   0  0  0  0  0  0  0  0  0  0  0  0
   58.9010   34.7490   47.4950 C   0  0  0  0  0  0  0  0  0  0  0  0
   59.7370   34.1500   48.6250 C   0  0  0  0  0  0  0  0  0  0  0  0
   61.1720   34.1690   48.2650 N   0  0  0  0  0  0  0  0  0  0  0  0
   61.9720   33.6410   49.3830 C   0  0  0  0  0  0  0  0  0  0  0  0
   61.4160   33.3560   47.0540 C   0  0  0  0  0  0  0  0  0  0  0  0
   60.6040   33.8940   45.8650 C   0  0  0  0  0  0  0  0  0  0  0  0
   57.9520   31.3240   45.6400 C   0  0  0  0  0  0  0  0  0  0  0  0
   56.9490   24.6000   47.7680 N   0  0  0  0  0  0  0  0  0  0  0  0
   56.3986   23.1531   49.9885 H   0  0  0  0  0  0  0  0  0  0  0  0
   55.8430   21.7055   49.0816 H   0  0  0  0  0  0  0  0  0  0  0  0
   57.5829   22.1523   49.0816 H   0  0  0  0  0  0  0  0  0  0  0  0
   54.9438   22.0007   46.9555 H   0  0  0  0  0  0  0  0  0  0  0  0
   56.5221   23.8779   42.7110 H   0  0  0  0  0  0  0  0  0  0  0  0
   58.0148   22.0684   44.3644 H   0  0  0  0  0  0  0  0  0  0  0  0
   56.7317   21.5018   45.0370 H   0  0  0  0  0  0  0  0  0  0  0  0
   57.5185   21.3214   41.8992 H   0  0  0  0  0  0  0  0  0  0  0  0
   56.1494   20.6250   42.1429 H   0  0  0  0  0  0  0  0  0  0  0  0
   55.8506   25.6077   44.7305 H   0  0  0  0  0  0  0  0  0  0  0  0
   58.7190   28.9070   46.7320 H   0  0  0  0  0  0  0  0  0  0  0  0
   57.1857   28.8158   43.4459 H   0  0  0  0  0  0  0  0  0  0  0  0
   57.0250   30.7695   41.8981 H   0  0  0  0  0  0  0  0  0  0  0  0
   57.4953   33.0720   42.7345 H   0  0  0  0  0  0  0  0  0  0  0  0
   59.1499   35.8140   47.3770 H   0  0  0  0  0  0  0  0  0  0  0  0
   57.8314   34.6519   47.7329 H   0  0  0  0  0  0  0  0  0  0  0  0
   59.5845   34.7392   49.5413 H   0  0  0  0  0  0  0  0  0  0  0  0
   59.4225   33.1090   48.7909 H   0  0  0  0  0  0  0  0  0  0  0  0
   61.5141   33.9432   50.3364 H   0  0  0  0  0  0  0  0  0  0  0  0
   62.0050   32.5431   49.3238 H   0  0  0  0  0  0  0  0  0  0  0  0
   62.9945   34.0423   49.3238 H   0  0  0  0  0  0  0  0  0  0  0  0
   62.4869   33.3913   46.8053 H   0  0  0  0  0  0  0  0  0  0  0  0
   61.1045   32.3203   47.2550 H   0  0  0  0  0  0  0  0  0  0  0  0
   61.0014   34.8746   45.5643 H   0  0  0  0  0  0  0  0  0  0  0  0
   60.6810   33.1909   45.0226 H   0  0  0  0  0  0  0  0  0  0  0  0
   58.1677   31.4805   46.7072 H   0  0  0  0  0  0  0  0  0  0  0  0
  1  2  1  0
  2  3  2  0
  3  4  1  0
  4  5  1  0
  5  6  2  0
  5  7  1  0
  7  8  1  0
  8  9  1  0
  9 10  1  0
  4 11  2  0
 11 12  1  0
 12 13  2  3
 13 14  1  0
 14 15  2  0
 14 16  1  0
 16 17  1  0
 17 18  2  0
 18 19  1  0
 19 20  2  0
 20 21  1  0
 21 22  1  0
 22 23  2  0
 22 24  1  0
 24 25  1  0
 25 26  1  0
 26 27  1  0
 27 28  1  0
 27 29  1  0
 29 30  1  0
 21 31  2  0
 12 32  1  0
 32  2  1  0
 10  8  1  0
 31 17  1  0
 30 24  1  0
  1 33  1  0
  1 34  1  0
  1 35  1  0
  3 36  1  0
  8 37  1  0
  9 38  1  0
  9 39  1  0
 10 40  1  0
 10 41  1  0
 11 42  1  0
 16 43  1  0
 18 44  1  0
 19 45  1  0
 20 46  1  0
 25 47  1  0
 25 48  1  0
 26 49  1  0
 26 50  1  0
 28 51  1  0
 28 52  1  0
 28 53  1  0
 29 54  1  0
 29 55  1  0
 30 56  1  0
 30 57  1  0
 31 58  1  0
M  CHG  2   7  -1  32  -1
M  END
>  <UniqueID>  (5) 
5

>  <SMILES>  (5) 
Cc1cc(C(=O)[N-]C2CC2)cc(=NC(=O)Nc2cccc(C(=O)N3CCN(C)CC3)c2)[n-]1

>  <Energy>  (5) 
337.2251476584665

>  <Genealogy>  (5) 
Cc1cc(C(=O)[N-]C2CC2)cc(=NC(=O)Nc2cccc(C(=O)N3CCN(C)CC3)c2)[n-]1 (protonated)
Cc1cc(C(=O)[N-]C2CC2)cc(=NC(=O)Nc2cccc(C(=O)N3CCN(C)CC3)c2)[n-]1 (3D coordinates assigned)
Cc1cc(C(=O)[N-]C2CC2)cc(=NC(=O)Nc2cccc(C(=O)N3CCN(C)CC3)c2)[n-]1 (nonaromatic ring conformer: 337.2251476584665 kcal/mol)

>  <smiles>  (5) 
Cc1cc(C(=O)NC2CC2)cc(=NC(=O)Nc2cccc(C(=O)N3CCN(C)CC3)c2)[nH]1

>  <score_type>  (5) 
oracle

>  <origin>  (5) 
adg

>  <m_score__min__energy>  (5) 
-12.33

>  <m_primary>  (5) 
energy

$$$$
5:0
     RDKit          3D

 37 39  0  0  0  0  0  0  0  0999 V2000
   57.8210   27.8630   47.4080 O   0  0  0  0  0  0  0  0  0  0  0  0
   57.6050   27.8660   46.1670 C   0  0  0  0  0  0  0  0  0  0  0  0
   58.4160   26.9820   45.2730 C   0  0  0  0  0  0  0  0  0  0  0  0
   57.5400   26.0880   44.5230 N   0  0  0  0  0  0  0  0  0  0  0  0
   57.3050   24.8630   44.8860 C   0  0  0  0  0  0  0  0  0  0  0  0
   55.9230   24.3320   44.9850 C   0  0  0  0  0  0  0  0  0  0  0  0
   54.9040   25.1360   45.5290 C   0  0  0  0  0  0  0  0  0  0  0  0
   55.1740   26.4360   45.9520 O   0  0  0  0  0  0  0  0  0  0  0  0
   53.6400   24.6480   45.6470 N   0  0  0  0  0  0  0  0  0  0  0  0
   53.3320   23.3900   45.2480 C   0  0  0  0  0  0  0  0  0  0  0  0
   52.1560   22.9610   45.3730 O   0  0  0  0  0  0  0  0  0  0  0  0
   54.2920   22.5920   44.7180 N   0  0  0  0  0  0  0  0  0  0  0  0
   55.5700   23.0260   44.5750 C   0  0  0  0  0  0  0  0  0  0  0  0
   56.4250   22.2450   44.0780 O   0  0  0  0  0  0  0  0  0  0  0  0
   56.6710   28.7830   45.5830 N   0  0  0  0  0  0  0  0  0  0  0  0
   56.9700   29.8380   44.6560 C   0  0  0  0  0  0  0  0  0  0  0  0
   56.4850   29.8180   43.3340 C   0  0  0  0  0  0  0  0  0  0  0  0
   56.8010   30.8550   42.4520 C   0  0  0  0  0  0  0  0  0  0  0  0
   57.6090   31.9120   42.8730 C   0  0  0  0  0  0  0  0  0  0  0  0
   58.1140   31.9310   44.1740 C   0  0  0  0  0  0  0  0  0  0  0  0
   57.8040   30.8960   45.0670 C   0  0  0  0  0  0  0  0  0  0  0  0
   58.4750   30.9480   46.7330 S   0  0  0  0  0  0  0  0  0  0  0  0
   58.8710   32.6890   46.6190 C   0  0  0  0  0  0  0  0  0  0  0  0
   57.9770   33.7400   46.7560 C   0  0  0  0  0  0  0  0  0  0  0  0
   58.5330   34.9740   46.6200 N   0  0  0  0  0  0  0  0  0  0  0  0
   59.8620   34.9120   46.3770 C   0  0  0  0  0  0  0  0  0  0  0  0
   60.3980   33.3180   46.3190 S   0  0  0  0  0  0  0  0  0  0  0  0
   58.9896   27.6037   44.5698 H   0  0  0  0  0  0  0  0  0  0  0  0
   59.1026   26.3812   45.8875 H   0  0  0  0  0  0  0  0  0  0  0  0
   58.1516   24.2030   45.1260 H   0  0  0  0  0  0  0  0  0  0  0  0
   55.8260   27.0220   45.4450 H   0  0  0  0  0  0  0  0  0  0  0  0
   55.8549   28.9828   42.9943 H   0  0  0  0  0  0  0  0  0  0  0  0
   56.4118   30.8380   41.4233 H   0  0  0  0  0  0  0  0  0  0  0  0
   57.8482   32.7311   42.1788 H   0  0  0  0  0  0  0  0  0  0  0  0
   58.7577   32.7613   44.4998 H   0  0  0  0  0  0  0  0  0  0  0  0
   56.9064   33.5884   46.9580 H   0  0  0  0  0  0  0  0  0  0  0  0
   60.5090   35.7903   46.2355 H   0  0  0  0  0  0  0  0  0  0  0  0
  1  2  2  0
  2  3  1  0
  3  4  1  0
  4  5  2  3
  5  6  1  0
  6  7  2  0
  7  8  1  0
  7  9  1  0
  9 10  1  0
 10 11  2  0
 10 12  1  0
 12 13  1  0
 13 14  2  0
  2 15  1  0
 15 16  1  0
 16 17  2  0
 17 18  1  0
 18 19  2  0
 19 20  1  0
 20 21  2  0
 21 22  1  0
 22 23  1  0
 23 24  2  0
 24 25  1  0
 25 26  2  0
 26 27  1  0
 13  6  1  0
 21 16  1  0
 27 23  1  0
  3 28  1  0
  3 29  1  0
  5 30  1  0
  8 31  1  0
 17 32  1  0
 18 33  1  0
 19 34  1  0
 20 35  1  0
 24 36  1  0
 26 37  1  0
M  CHG  3   9  -1  12  -1  15  -1
M  END
>  <UniqueID>  (6) 
6

>  <SMILES>  (6) 
O=C(CN=Cc1c(O)[n-]c(=O)[n-]c1=O)[N-]c1ccccc1Sc1cncs1

>  <Energy>  (6) 
67.10028798893234

>  <Genealogy>  (6) 
O=C(CN=Cc1c(O)[n-]c(=O)[n-]c1=O)[N-]c1ccccc1Sc1cncs1 (protonated)
O=C(CN=Cc1c(O)[n-]c(=O)[n-]c1=O)[N-]c1ccccc1Sc1cncs1 (3D coordinates assigned)
O=C(CN=Cc1c(O)[n-]c(=O)[n-]c1=O)[N-]c1ccccc1Sc1cncs1 (optimized conformer: 67.10028798893234 kcal/mol)

>  <smiles>  (6) 
O=C(CN=Cc1c(O)[nH]c(=O)[nH]c1=O)Nc1ccccc1Sc1cncs1

>  <score_type>  (6) 
oracle

>  <origin>  (6) 
adg

>  <m_score__min__energy>  (6) 
-14.48

>  <m_primary>  (6) 
energy

$$$$
6:0
     RDKit          3D

 49 52  0  0  0  0  0  0  0  0999 V2000
   58.9722   29.1008   48.5586 H   0  0  0  0  0  0  0  0  0  0  0  0
   58.5120   28.6160   47.6850 C   0  0  0  0  0  0  0  0  0  0  0  0
   58.3315   27.5309   47.6897 H   0  0  0  0  0  0  0  0  0  0  0  0
   58.1710   29.3480   46.6140 C   0  0  0  0  0  0  0  0  0  0  0  0
   57.5780   28.9040   45.4180 C   0  0  0  0  0  0  0  0  0  0  0  0
   57.3250   27.6610   44.9590 C   0  0  0  0  0  0  0  0  0  0  0  0
   57.1684   27.5451   43.8764 H   0  0  0  0  0  0  0  0  0  0  0  0
   57.2410   26.4440   45.7890 C   0  0  0  0  0  0  0  0  0  0  0  0
   55.9990   25.9940   46.2590 C   0  0  0  0  0  0  0  0  0  0  0  0
   54.8390   26.7120   45.9950 O   0  0  0  0  0  0  0  0  0  0  0  0
   55.9250   24.8500   46.9880 N   0  0  0  0  0  0  0  0  0  0  0  0
   57.0360   24.1180   47.2590 C   0  0  0  0  0  0  0  0  0  0  0  0
   56.9440   23.0640   47.9400 O   0  0  0  0  0  0  0  0  0  0  0  0
   58.2460   24.5190   46.7920 N   0  0  0  0  0  0  0  0  0  0  0  0
   58.3730   25.6540   46.0580 C   0  0  0  0  0  0  0  0  0  0  0  0
   59.5080   25.9860   45.6220 O   0  0  0  0  0  0  0  0  0  0  0  0
   57.2830   30.0780   44.7290 C   0  0  0  0  0  0  0  0  0  0  0  0
   56.6310   30.1950   43.3840 C   0  0  0  0  0  0  0  0  0  0  0  0
   55.5558   30.3879   43.5133 H   0  0  0  0  0  0  0  0  0  0  0  0
   57.0881   31.0255   42.8260 H   0  0  0  0  0  0  0  0  0  0  0  0
   56.7708   29.2574   42.8260 H   0  0  0  0  0  0  0  0  0  0  0  0
   57.7080   31.1340   45.4440 N   0  0  0  0  0  0  0  0  0  0  0  0
   57.6180   32.1390   45.1720 H   0  0  0  0  0  0  0  0  0  0  0  0
   58.2520   30.7030   46.5710 N   0  0  0  0  0  0  0  0  0  0  0  0
   58.7520   31.6090   47.6110 C   0  0  0  0  0  0  0  0  0  0  0  0
   58.3289   31.3117   48.5819 H   0  0  0  0  0  0  0  0  0  0  0  0
   59.8499   31.5452   47.6355 H   0  0  0  0  0  0  0  0  0  0  0  0
   58.3580   33.0330   47.3160 C   0  0  0  0  0  0  0  0  0  0  0  0
   57.1930   33.2690   46.8930 O   0  0  0  0  0  0  0  0  0  0  0  0
   59.3190   34.1040   47.3860 N   0  0  0  0  0  0  0  0  0  0  0  0
   59.9970   34.3970   48.6520 C   0  0  0  0  0  0  0  0  0  0  0  0
   59.5024   33.8440   49.4641 H   0  0  0  0  0  0  0  0  0  0  0  0
   59.9430   35.4790   48.8426 H   0  0  0  0  0  0  0  0  0  0  0  0
   61.4480   33.9850   48.5820 C   0  0  0  0  0  0  0  0  0  0  0  0
   62.1870   33.8670   49.7680 C   0  0  0  0  0  0  0  0  0  0  0  0
   61.6950   34.0318   50.7379 H   0  0  0  0  0  0  0  0  0  0  0  0
   63.5460   33.5410   49.7240 C   0  0  0  0  0  0  0  0  0  0  0  0
   64.1177   33.4421   50.6586 H   0  0  0  0  0  0  0  0  0  0  0  0
   64.1780   33.3410   48.4960 C   0  0  0  0  0  0  0  0  0  0  0  0
   65.2466   33.0819   48.4646 H   0  0  0  0  0  0  0  0  0  0  0  0
   63.4570   33.4690   47.3070 C   0  0  0  0  0  0  0  0  0  0  0  0
   63.9600   33.3030   46.3429 H   0  0  0  0  0  0  0  0  0  0  0  0
   62.0950   33.8080   47.3330 C   0  0  0  0  0  0  0  0  0  0  0  0
   61.3310   33.8760   46.0280 C   0  0  0  0  0  0  0  0  0  0  0  0
   61.1436   32.8518   45.6731 H   0  0  0  0  0  0  0  0  0  0  0  0
   61.9400   34.4429   45.3085 H   0  0  0  0  0  0  0  0  0  0  0  0
   59.9900   34.5980   46.1820 C   0  0  0  0  0  0  0  0  0  0  0  0
   59.3611   34.3999   45.3015 H   0  0  0  0  0  0  0  0  0  0  0  0
   60.1587   35.6816   46.2682 H   0  0  0  0  0  0  0  0  0  0  0  0
  1  2  1  0
  2  3  1  0
  2  4  2  0
  4  5  1  0
  5  6  2  0
  6  7  1  0
  6  8  1  0
  8  9  2  0
  9 10  1  0
  9 11  1  0
 11 12  1  0
 12 13  2  0
 12 14  1  0
 14 15  1  0
 15 16  2  0
  5 17  1  0
 17 18  1  0
 18 19  1  0
 18 20  1  0
 18 21  1  0
 17 22  2  0
 22 23  1  0
 22 24  1  0
 24 25  1  0
 25 26  1  0
 25 27  1  0
 25 28  1  0
 28 29  2  0
 28 30  1  0
 30 31  1  0
 31 32  1  0
 31 33  1  0
 31 34  1  0
 34 35  2  0
 35 36  1  0
 35 37  1  0
 37 38  1  0
 37 39  2  0
 39 40  1  0
 39 41  1  0
 41 42  1  0
 41 43  2  0
 43 44  1  0
 44 45  1  0
 44 46  1  0
 44 47  1  0
 47 48  1  0
 47 49  1  0
 24  4  1  0
 47 30  1  0
 15  8  1  0
 43 34  1  0
M  CHG  4  10  -1  11  -1  14  -1  22   1
M  END
>  <UniqueID>  (7) 
7

>  <SMILES>  (7) 
C=c1/c(=C\c2c([O-])[n-]c(=O)[n-]c2=O)c(C)[nH+]n1CC(=O)N1CCc2ccccc2C1

>  <Energy>  (7) 
105.00489304691912

>  <Genealogy>  (7) 
C=c1c(=Cc2c([O-])[n-]c(=O)[n-]c2=O)c(C)[nH+]n1CC(=O)N1CCc2ccccc2C1 (protonated)
C=c1/c(=C\c2c([O-])[n-]c(=O)[n-]c2=O)c(C)[nH+]n1CC(=O)N1CCc2ccccc2C1 (cis-trans isomerization)
C=c1/c(=C\c2c([O-])[n-]c(=O)[n-]c2=O)c(C)[nH+]n1CC(=O)N1CCc2ccccc2C1 (3D coordinates assigned)
C=c1/c(=C\c2c([O-])[n-]c(=O)[n-]c2=O)c(C)[nH+]n1CC(=O)N1CCc2ccccc2C1 (nonaromatic ring conformer: 105.00489304691912 kcal/mol)

>  <smiles>  (7) 
C=c1c(=Cc2c(O)[nH]c(=O)[nH]c2=O)c(C)nn1CC(=O)N1CCc2ccccc2C1

>  <score_type>  (7) 
oracle

>  <origin>  (7) 
adg

>  <m_score__min__energy>  (7) 
-15.949999999999999

>  <m_primary>  (7) 
energy

$$$$
7:0
     RDKit          3D

 51 52  0  0  0  0  0  0  0  0999 V2000
   56.6520   26.3470   46.3840 C   0  0  0  0  0  0  0  0  0  0  0  0
   57.1740   27.5690   45.6090 C   0  0  0  0  0  0  0  0  0  0  0  0
   58.1340   28.3610   46.5090 C   0  0  0  0  0  0  0  0  0  0  0  0
   57.9290   27.1240   44.3430 C   0  0  0  0  0  0  0  0  0  0  0  0
   56.0590   28.4560   45.2530 N   0  0  0  0  0  0  0  0  0  0  0  0
   56.1200   29.6380   44.4370 C   0  0  0  0  0  0  0  0  0  0  0  0
   55.1230   30.4020   44.3370 O   0  0  0  0  0  0  0  0  0  0  0  0
   57.4000   30.0120   43.7510 C   0  0  0  0  0  0  0  0  0  0  0  0
   58.2430   30.8190   44.6320 N   0  0  0  0  0  0  0  0  0  0  0  0
   58.2270   32.2570   44.6010 C   0  0  0  0  0  0  0  0  0  0  0  0
   57.7800   32.8560   43.5820 O   0  0  0  0  0  0  0  0  0  0  0  0
   58.7230   33.0420   45.7550 C   0  0  0  0  0  0  0  0  0  0  0  0
   59.2490   34.3310   45.5660 C   0  0  0  0  0  0  0  0  0  0  0  0
   59.6930   35.0800   46.6590 C   0  0  0  0  0  0  0  0  0  0  0  0
   59.6170   34.5540   47.9500 C   0  0  0  0  0  0  0  0  0  0  0  0
   59.0880   33.2750   48.1630 C   0  0  0  0  0  0  0  0  0  0  0  0
   59.0070   32.7780   49.5050 N   0  0  0  0  0  0  0  0  0  0  0  0
   59.5830   31.2250   50.0160 S   0  0  0  0  0  0  0  0  0  0  0  0
   60.2990   31.3670   51.3280 O   0  0  0  0  0  0  0  0  0  0  0  0
   58.4250   30.2780   50.1630 O   0  0  0  0  0  0  0  0  0  0  0  0
   60.7080   30.5800   48.7910 C   0  0  0  0  0  0  0  0  0  0  0  0
   61.8090   31.5710   48.5310 C   0  0  0  0  0  0  0  0  0  0  0  0
   62.5870   32.0620   49.5940 C   0  0  0  0  0  0  0  0  0  0  0  0
   63.5780   33.0200   49.3580 C   0  0  0  0  0  0  0  0  0  0  0  0
   63.7980   33.4970   48.0610 C   0  0  0  0  0  0  0  0  0  0  0  0
   63.0210   33.0220   47.0000 C   0  0  0  0  0  0  0  0  0  0  0  0
   62.0260   32.0670   47.2320 C   0  0  0  0  0  0  0  0  0  0  0  0
   58.6360   32.5240   47.0610 C   0  0  0  0  0  0  0  0  0  0  0  0
   56.7328   26.5362   47.4646 H   0  0  0  0  0  0  0  0  0  0  0  0
   55.5990   26.1683   46.1208 H   0  0  0  0  0  0  0  0  0  0  0  0
   57.2509   25.4627   46.1208 H   0  0  0  0  0  0  0  0  0  0  0  0
   57.8944   28.1633   47.5642 H   0  0  0  0  0  0  0  0  0  0  0  0
   59.1691   28.0506   46.3037 H   0  0  0  0  0  0  0  0  0  0  0  0
   58.0260   29.4363   46.3037 H   0  0  0  0  0  0  0  0  0  0  0  0
   58.8434   26.5851   44.6318 H   0  0  0  0  0  0  0  0  0  0  0  0
   57.2854   26.4608   43.7464 H   0  0  0  0  0  0  0  0  0  0  0  0
   58.1975   28.0083   43.7464 H   0  0  0  0  0  0  0  0  0  0  0  0
   57.9416   29.0958   43.4730 H   0  0  0  0  0  0  0  0  0  0  0  0
   57.1607   30.6016   42.8537 H   0  0  0  0  0  0  0  0  0  0  0  0
   58.9780   30.3380   45.2010 H   0  0  0  0  0  0  0  0  0  0  0  0
   59.3117   34.7529   44.5521 H   0  0  0  0  0  0  0  0  0  0  0  0
   60.1040   36.0881   46.5016 H   0  0  0  0  0  0  0  0  0  0  0  0
   59.9746   35.1474   48.8044 H   0  0  0  0  0  0  0  0  0  0  0  0
   61.1441   29.6387   49.1567 H   0  0  0  0  0  0  0  0  0  0  0  0
   60.1579   30.3980   47.8560 H   0  0  0  0  0  0  0  0  0  0  0  0
   62.4156   31.6912   50.6153 H   0  0  0  0  0  0  0  0  0  0  0  0
   64.1854   33.3991   50.1931 H   0  0  0  0  0  0  0  0  0  0  0  0
   64.5823   34.2458   47.8761 H   0  0  0  0  0  0  0  0  0  0  0  0
   63.1926   33.4000   45.9813 H   0  0  0  0  0  0  0  0  0  0  0  0
   61.4109   31.7023   46.3962 H   0  0  0  0  0  0  0  0  0  0  0  0
   58.2106   31.5225   47.2223 H   0  0  0  0  0  0  0  0  0  0  0  0
  1  2  1  0
  2  3  1  0
  2  4  1  0
  2  5  1  0
  5  6  1  0
  6  7  2  0
  6  8  1  0
  8  9  1  0
  9 10  1  0
 10 11  2  0
 10 12  1  0
 12 13  2  0
 13 14  1  0
 14 15  2  0
 15 16  1  0
 16 17  1  0
 17 18  1  0
 18 19  2  0
 18 20  2  0
 18 21  1  0
 21 22  1  0
 22 23  2  0
 23 24  1  0
 24 25  2  0
 25 26  1  0
 26 27  2  0
 16 28  2  0
 28 12  1  0
 27 22  1  0
  1 29  1  0
  1 30  1  0
  1 31  1  0
  3 32  1  0
  3 33  1  0
  3 34  1  0
  4 35  1  0
  4 36  1  0
  4 37  1  0
  8 38  1  0
  8 39  1  0
  9 40  1  0
 13 41  1  0
 14 42  1  0
 15 43  1  0
 21 44  1  0
 21 45  1  0
 23 46  1  0
 24 47  1  0
 25 48  1  0
 26 49  1  0
 27 50  1  0
 28 51  1  0
M  CHG  2   5  -1  17  -1
M  END
>  <UniqueID>  (8) 
8

>  <SMILES>  (8) 
CC(C)(C)[N-]C(=O)CNC(=O)c1cccc([N-]S(=O)(=O)Cc2ccccc2)c1

>  <Energy>  (8) 
42.40151192282167

>  <Genealogy>  (8) 
CC(C)(C)[N-]C(=O)CNC(=O)c1cccc([N-]S(=O)(=O)Cc2ccccc2)c1 (protonated)
CC(C)(C)[N-]C(=O)CNC(=O)c1cccc([N-]S(=O)(=O)Cc2ccccc2)c1 (3D coordinates assigned)
CC(C)(C)[N-]C(=O)CNC(=O)c1cccc([N-]S(=O)(=O)Cc2ccccc2)c1 (optimized conformer: 42.40151192282167 kcal/mol)

>  <smiles>  (8) 
CC(C)(C)NC(=O)CNC(=O)c1cccc(NS(=O)(=O)Cc2ccccc2)c1

>  <score_type>  (8) 
oracle

>  <origin>  (8) 
adg

>  <m_score__min__energy>  (8) 
-11.92

>  <m_primary>  (8) 
energy

$$$$
8:0
     RDKit          3D

 37 39  0  0  0  0  0  0  0  0999 V2000
   59.9150   30.0590   48.9870 C   0  0  0  0  0  0  0  0  0  0  0  0
   59.9110   31.0700   48.1180 C   0  0  0  0  0  0  0  0  0  0  0  0
   58.6730   31.5610   47.4260 C   0  0  0  0  0  0  0  0  0  0  0  0
   59.2080   32.6170   46.4980 C   0  0  0  0  0  0  0  0  0  0  0  0
   58.4400   33.1950   45.5600 C   0  0  0  0  0  0  0  0  0  0  0  0
   57.7170   32.4760   44.5030 C   0  0  0  0  0  0  0  0  0  0  0  0
   58.0060   32.7000   43.2970 O   0  0  0  0  0  0  0  0  0  0  0  0
   56.6220   31.6180   44.8330 N   0  0  0  0  0  0  0  0  0  0  0  0
   56.5730   29.9510   44.3700 S   0  0  0  0  0  0  0  0  0  0  0  0
   56.5970   29.8550   42.8700 O   0  0  0  0  0  0  0  0  0  0  0  0
   55.2980   29.3400   44.8810 O   0  0  0  0  0  0  0  0  0  0  0  0
   57.9700   29.1040   45.0260 C   0  0  0  0  0  0  0  0  0  0  0  0
   59.2620   29.4110   44.5740 C   0  0  0  0  0  0  0  0  0  0  0  0
   60.3680   28.7350   45.1000 C   0  0  0  0  0  0  0  0  0  0  0  0
   60.1880   27.7550   46.0790 C   0  0  0  0  0  0  0  0  0  0  0  0
   58.9030   27.4500   46.5370 C   0  0  0  0  0  0  0  0  0  0  0  0
   57.7950   28.1250   46.0130 C   0  0  0  0  0  0  0  0  0  0  0  0
   60.6430   32.8140   46.7740 C   0  0  0  0  0  0  0  0  0  0  0  0
   61.5030   33.8420   46.3610 C   0  0  0  0  0  0  0  0  0  0  0  0
   62.8290   33.8420   46.8180 C   0  0  0  0  0  0  0  0  0  0  0  0
   63.2690   32.8540   47.7130 C   0  0  0  0  0  0  0  0  0  0  0  0
   62.3820   31.8750   48.1810 C   0  0  0  0  0  0  0  0  0  0  0  0
   62.8080   30.9680   49.0920 F   0  0  0  0  0  0  0  0  0  0  0  0
   61.0600   31.8820   47.7050 C   0  0  0  0  0  0  0  0  0  0  0  0
   60.8565   29.7456   49.4618 H   0  0  0  0  0  0  0  0  0  0  0  0
   58.9768   29.5383   49.2293 H   0  0  0  0  0  0  0  0  0  0  0  0
   58.1847   30.7506   46.8649 H   0  0  0  0  0  0  0  0  0  0  0  0
   57.9064   31.9375   48.1192 H   0  0  0  0  0  0  0  0  0  0  0  0
   58.3453   34.2906   45.5854 H   0  0  0  0  0  0  0  0  0  0  0  0
   59.4056   30.1843   43.8050 H   0  0  0  0  0  0  0  0  0  0  0  0
   61.3801   28.9753   44.7424 H   0  0  0  0  0  0  0  0  0  0  0  0
   61.0585   27.2227   46.4900 H   0  0  0  0  0  0  0  0  0  0  0  0
   58.7629   26.6794   47.3093 H   0  0  0  0  0  0  0  0  0  0  0  0
   56.7846   27.8866   46.3766 H   0  0  0  0  0  0  0  0  0  0  0  0
   61.1433   34.6355   45.6895 H   0  0  0  0  0  0  0  0  0  0  0  0
   63.5270   34.6193   46.4737 H   0  0  0  0  0  0  0  0  0  0  0  0
   64.3164   32.8482   48.0490 H   0  0  0  0  0  0  0  0  0  0  0  0
  1  2  2  0
  2  3  1  0
  3  4  1  0
  4  5  2  3
  5  6  1  0
  6  7  2  0
  6  8  1  0
  8  9  1  0
  9 10  2  0
  9 11  2  0
  9 12  1  0
 12 13  2  0
 13 14  1  0
 14 15  2  0
 15 16  1  0
 16 17  2  0
  4 18  1  0
 18 19  2  0
 19 20  1  0
 20 21  2  0
 21 22  1  0
 22 23  1  0
 22 24  2  0
 24  2  1  0
 17 12  1  0
 24 18  1  0
  1 25  1  0
  1 26  1  0
  3 27  1  0
  3 28  1  0
  5 29  1  0
 13 30  1  0
 14 31  1  0
 15 32  1  0
 16 33  1  0
 17 34  1  0
 19 35  1  0
 20 36  1  0
 21 37  1  0
M  CHG  1   8  -1
M  END
>  <UniqueID>  (9) 
9

>  <SMILES>  (9) 
C=C1CC(=CC(=O)[N-]S(=O)(=O)c2ccccc2)c2cccc(F)c21

>  <Energy>  (9) 
67.50090417699523

>  <Genealogy>  (9) 
C=C1CC(=CC(=O)[N-]S(=O)(=O)c2ccccc2)c2cccc(F)c21 (protonated)
C=C1CC(=CC(=O)[N-]S(=O)(=O)c2ccccc2)c2cccc(F)c21 (3D coordinates assigned)
C=C1CC(=CC(=O)[N-]S(=O)(=O)c2ccccc2)c2cccc(F)c21 (nonaromatic ring conformer: 67.50090417699523 kcal/mol)

>  <smiles>  (9) 
C=C1CC(=CC(=O)NS(=O)(=O)c2ccccc2)c2cccc(F)c21

>  <score_type>  (9) 
oracle

>  <origin>  (9) 
adg

>  <m_score__min__energy>  (9) 
-10.56

>  <m_primary>  (9) 
energy

$$$$
9:0
     RDKit          3D

 55 58  0  0  0  0  0  0  0  0999 V2000
   60.8160   26.5720   51.3550 C   0  0  0  0  0  0  0  0  0  0  0  0
   60.8700   27.7820   50.4710 C   0  0  0  0  0  0  0  0  0  0  0  0
   61.5820   28.9210   50.8750 C   0  0  0  0  0  0  0  0  0  0  0  0
   61.6650   30.0370   50.0410 C   0  0  0  0  0  0  0  0  0  0  0  0
   61.0500   30.0230   48.7760 C   0  0  0  0  0  0  0  0  0  0  0  0
   61.0970   31.1240   47.9050 C   0  0  0  0  0  0  0  0  0  0  0  0
   61.7940   32.3220   48.2600 N   0  0  0  0  0  0  0  0  0  0  0  0
   63.1980   32.4710   47.8580 C   0  0  0  0  0  0  0  0  0  0  0  0
   63.7590   33.8330   48.2850 C   0  0  0  0  0  0  0  0  0  0  0  0
   63.3560   34.1410   49.7310 C   0  0  0  0  0  0  0  0  0  0  0  0
   61.8250   34.1370   49.9380 C   0  0  0  0  0  0  0  0  0  0  0  0
   61.0440   33.4590   48.8000 C   0  0  0  0  0  0  0  0  0  0  0  0
   60.4660   31.0570   46.7070 N   0  0  0  0  0  0  0  0  0  0  0  0
   59.7980   29.9410   46.3080 C   0  0  0  0  0  0  0  0  0  0  0  0
   59.1330   29.9310   45.0320 N   0  0  0  0  0  0  0  0  0  0  0  0
   58.4940   31.1600   44.5450 C   0  0  0  0  0  0  0  0  0  0  0  0
   57.5490   30.8710   43.3650 C   0  0  0  0  0  0  0  0  0  0  0  0
   56.7620   29.5450   43.5520 C   0  0  0  0  0  0  0  0  0  0  0  0
   55.8100   29.6760   44.7630 C   0  0  0  0  0  0  0  0  0  0  0  0
   55.9410   29.3210   42.3540 N   0  0  0  0  0  0  0  0  0  0  0  0
   57.7370   28.3350   43.7670 C   0  0  0  0  0  0  0  0  0  0  0  0
   59.1630   28.7490   44.1630 C   0  0  0  0  0  0  0  0  0  0  0  0
   59.7300   28.8610   47.1400 N   0  0  0  0  0  0  0  0  0  0  0  0
   60.3420   28.8750   48.3580 C   0  0  0  0  0  0  0  0  0  0  0  0
   60.2620   27.7590   49.2060 C   0  0  0  0  0  0  0  0  0  0  0  0
   60.8301   26.8869   52.4089 H   0  0  0  0  0  0  0  0  0  0  0  0
   59.8919   26.0108   51.1523 H   0  0  0  0  0  0  0  0  0  0  0  0
   61.6864   25.9307   51.1523 H   0  0  0  0  0  0  0  0  0  0  0  0
   62.0786   28.9347   51.8564 H   0  0  0  0  0  0  0  0  0  0  0  0
   62.2132   30.9306   50.3741 H   0  0  0  0  0  0  0  0  0  0  0  0
   63.7922   31.6748   48.3302 H   0  0  0  0  0  0  0  0  0  0  0  0
   63.2543   32.4009   46.7617 H   0  0  0  0  0  0  0  0  0  0  0  0
   64.8563   33.8139   48.2097 H   0  0  0  0  0  0  0  0  0  0  0  0
   63.3510   34.6124   47.6247 H   0  0  0  0  0  0  0  0  0  0  0  0
   63.8020   33.3814   50.3898 H   0  0  0  0  0  0  0  0  0  0  0  0
   63.7204   35.1512   49.9690 H   0  0  0  0  0  0  0  0  0  0  0  0
   61.6036   33.6049   50.8749 H   0  0  0  0  0  0  0  0  0  0  0  0
   61.5036   35.1887   49.9634 H   0  0  0  0  0  0  0  0  0  0  0  0
   60.0782   33.1026   49.1877 H   0  0  0  0  0  0  0  0  0  0  0  0
   60.8863   34.1919   47.9950 H   0  0  0  0  0  0  0  0  0  0  0  0
   57.9158   31.6118   45.3644 H   0  0  0  0  0  0  0  0  0  0  0  0
   59.2811   31.8460   44.1987 H   0  0  0  0  0  0  0  0  0  0  0  0
   56.8307   31.6993   43.2759 H   0  0  0  0  0  0  0  0  0  0  0  0
   58.1633   30.7730   42.4578 H   0  0  0  0  0  0  0  0  0  0  0  0
   56.3890   29.5963   45.6949 H   0  0  0  0  0  0  0  0  0  0  0  0
   55.3042   30.6522   44.7279 H   0  0  0  0  0  0  0  0  0  0  0  0
   55.0594   28.8727   44.7279 H   0  0  0  0  0  0  0  0  0  0  0  0
   55.5250   30.2300   42.0420 H   0  0  0  0  0  0  0  0  0  0  0  0
   55.1420   28.6890   42.5900 H   0  0  0  0  0  0  0  0  0  0  0  0
   57.3273   27.6971   44.5640 H   0  0  0  0  0  0  0  0  0  0  0  0
   57.8123   27.8097   42.8035 H   0  0  0  0  0  0  0  0  0  0  0  0
   59.6454   27.9182   44.6987 H   0  0  0  0  0  0  0  0  0  0  0  0
   59.7286   28.9922   43.2515 H   0  0  0  0  0  0  0  0  0  0  0  0
   59.1730   28.0240   46.8550 H   0  0  0  0  0  0  0  0  0  0  0  0
   59.7193   26.8606   48.8769 H   0  0  0  0  0  0  0  0  0  0  0  0
  1  2  1  0
  2  3  2  0
  3  4  1  0
  4  5  2  0
  5  6  1  0
  6  7  1  0
  7  8  1  0
  8  9  1  0
  9 10  1  0
 10 11  1  0
 11 12  1  0
  6 13  2  0
 13 14  1  0
 14 15  1  0
 15 16  1  0
 16 17  1  0
 17 18  1  0
 18 19  1  0
 18 20  1  0
 18 21  1  0
 21 22  1  0
 14 23  2  0
 23 24  1  0
 24 25  2  0
 25  2  1  0
 24  5  1  0
 12  7  1  0
 22 15  1  0
  1 26  1  0
  1 27  1  0
  1 28  1  0
  3 29  1  0
  4 30  1  0
  8 31  1  0
  8 32  1  0
  9 33  1  0
  9 34  1  0
 10 35  1  0
 10 36  1  0
 11 37  1  0
 11 38  1  0
 12 39  1  0
 12 40  1  0
 16 41  1  0
 16 42  1  0
 17 43  1  0
 17 44  1  0
 19 45  1  0
 19 46  1  0
 19 47  1  0
 20 48  1  0
 20 49  1  0
 21 50  1  0
 21 51  1  0
 22 52  1  0
 22 53  1  0
 23 54  1  0
 25 55  1  0
M  CHG  1  23   1
M  END
>  <UniqueID>  (10) 
10

>  <SMILES>  (10) 
Cc1ccc2c(N3CCCCC3)nc(N3CCC(C)(N)CC3)[nH+]c2c1

>  <Energy>  (10) 
71.10935724594714

>  <Genealogy>  (10) 
Cc1ccc2c(N3CCCCC3)nc(N3CCC(C)(N)CC3)[nH+]c2c1 (protonated)
Cc1ccc2c(N3CCCCC3)nc(N3CCC(C)(N)CC3)[nH+]c2c1 (3D coordinates assigned)
Cc1ccc2c(N3CCCCC3)nc(N3CCC(C)(N)CC3)[nH+]c2c1 (nonaromatic ring conformer: 71.10935724594714 kcal/mol)

>  <smiles>  (10) 
Cc1ccc2c(N3CCCCC3)nc(N3CCC(C)(N)CC3)nc2c1

>  <score_type>  (10) 
oracle

>  <origin>  (10) 
adg

>  <m_score__min__energy>  (10) 
-5.8600000000000003

>  <m_primary>  (10) 
energy

$$$$
10:0
     RDKit          3D

 57 60  0  0  0  0  0  0  0  0999 V2000
   58.5760   25.4320   47.3610 H   0  0  0  0  0  0  0  0  0  0  0  0
   58.9880   26.0160   48.1220 N   0  0  0  0  0  0  0  0  0  0  0  0
   59.5520   27.1520   47.8690 C   0  0  0  0  0  0  0  0  0  0  0  0
   59.7460   28.0550   48.8650 N   0  0  0  0  0  0  0  0  0  0  0  0
   60.3280   29.2670   48.6530 C   0  0  0  0  0  0  0  0  0  0  0  0
   60.4770   30.1940   49.8240 C   0  0  0  0  0  0  0  0  0  0  0  0
   60.3850   29.6216   50.7588 H   0  0  0  0  0  0  0  0  0  0  0  0
   61.4644   30.6774   49.7857 H   0  0  0  0  0  0  0  0  0  0  0  0
   59.6908   30.9624   49.7857 H   0  0  0  0  0  0  0  0  0  0  0  0
   60.7310   29.6330   47.3440 C   0  0  0  0  0  0  0  0  0  0  0  0
   61.3410   30.9950   47.0770 C   0  0  0  0  0  0  0  0  0  0  0  0
   62.3152   31.0651   47.5831 H   0  0  0  0  0  0  0  0  0  0  0  0
   61.4778   31.1274   45.9936 H   0  0  0  0  0  0  0  0  0  0  0  0
   60.4560   32.0360   47.5830 N   0  0  0  0  0  0  0  0  0  0  0  0
   59.6630   32.8610   46.7260 C   0  0  0  0  0  0  0  0  0  0  0  0
   59.8850   34.0980   46.6550 O   0  0  0  0  0  0  0  0  0  0  0  0
   58.5980   32.2580   45.9130 C   0  0  0  0  0  0  0  0  0  0  0  0
   58.7020   31.1680   45.0730 C   0  0  0  0  0  0  0  0  0  0  0  0
   59.5981   30.5462   44.9304 H   0  0  0  0  0  0  0  0  0  0  0  0
   57.5120   30.9970   44.4560 N   0  0  0  0  0  0  0  0  0  0  0  0
   57.2070   29.9890   43.4450 C   0  0  0  0  0  0  0  0  0  0  0  0
   56.1907   30.1600   43.0603 H   0  0  0  0  0  0  0  0  0  0  0  0
   57.9430   30.0713   42.6317 H   0  0  0  0  0  0  0  0  0  0  0  0
   57.2870   28.6020   44.0310 C   0  0  0  0  0  0  0  0  0  0  0  0
   56.6530   28.3100   45.2500 C   0  0  0  0  0  0  0  0  0  0  0  0
   56.1057   29.1000   45.7850 H   0  0  0  0  0  0  0  0  0  0  0  0
   56.7140   27.0200   45.7870 C   0  0  0  0  0  0  0  0  0  0  0  0
   56.2026   26.7978   46.7352 H   0  0  0  0  0  0  0  0  0  0  0  0
   57.4220   26.0100   45.1250 C   0  0  0  0  0  0  0  0  0  0  0  0
   57.4710   24.6970   45.6980 N   0  0  0  0  0  0  0  0  0  0  0  0
   56.5720   24.2080   46.7000 C   0  0  0  0  0  0  0  0  0  0  0  0
   56.9980   24.0580   47.8740 O   0  0  0  0  0  0  0  0  0  0  0  0
   55.1760   23.8300   46.3660 C   0  0  0  0  0  0  0  0  0  0  0  0
   54.4970   22.8640   47.1320 C   0  0  0  0  0  0  0  0  0  0  0  0
   54.9976   22.3965   47.9928 H   0  0  0  0  0  0  0  0  0  0  0  0
   53.1880   22.4960   46.8030 C   0  0  0  0  0  0  0  0  0  0  0  0
   52.6616   21.7439   47.4090 H   0  0  0  0  0  0  0  0  0  0  0  0
   52.5470   23.0800   45.7080 C   0  0  0  0  0  0  0  0  0  0  0  0
   51.5172   22.7887   45.4537 H   0  0  0  0  0  0  0  0  0  0  0  0
   53.2140   24.0340   44.9360 C   0  0  0  0  0  0  0  0  0  0  0  0
   52.7086   24.4950   44.0746 H   0  0  0  0  0  0  0  0  0  0  0  0
   54.5220   24.4030   45.2570 C   0  0  0  0  0  0  0  0  0  0  0  0
   55.0461   25.1470   44.6392 H   0  0  0  0  0  0  0  0  0  0  0  0
   58.0360   26.2950   43.8930 C   0  0  0  0  0  0  0  0  0  0  0  0
   58.5798   25.5035   43.3564 H   0  0  0  0  0  0  0  0  0  0  0  0
   57.9590   27.5780   43.3470 C   0  0  0  0  0  0  0  0  0  0  0  0
   58.4283   27.7870   42.3743 H   0  0  0  0  0  0  0  0  0  0  0  0
   56.6500   31.9230   44.8530 N   0  0  0  0  0  0  0  0  0  0  0  0
   57.2980   32.6940   45.7420 C   0  0  0  0  0  0  0  0  0  0  0  0
   56.7730   33.6840   46.3180 O   0  0  0  0  0  0  0  0  0  0  0  0
   60.5860   28.6800   46.3000 C   0  0  0  0  0  0  0  0  0  0  0  0
   61.0490   28.9630   44.8930 C   0  0  0  0  0  0  0  0  0  0  0  0
   61.9872   29.5364   44.9241 H   0  0  0  0  0  0  0  0  0  0  0  0
   61.2172   28.0132   44.3643 H   0  0  0  0  0  0  0  0  0  0  0  0
   60.2804   29.5458   44.3643 H   0  0  0  0  0  0  0  0  0  0  0  0
   59.9710   27.4490   46.5720 C   0  0  0  0  0  0  0  0  0  0  0  0
   59.8193   26.7187   45.7635 H   0  0  0  0  0  0  0  0  0  0  0  0
  1  2  1  0
  2  3  2  0
  3  4  1  0
  4  5  1  0
  5  6  1  0
  6  7  1  0
  6  8  1  0
  6  9  1  0
  5 10  2  0
 10 11  1  0
 11 12  1  0
 11 13  1  0
 11 14  1  0
 14 15  1  0
 15 16  2  0
 15 17  1  0
 17 18  2  0
 18 19  1  0
 18 20  1  0
 20 21  1  0
 21 22  1  0
 21 23  1  0
 21 24  1  0
 24 25  2  0
 25 26  1  0
 25 27  1  0
 27 28  1  0
 27 29  2  0
 29 30  1  0
 30 31  1  0
 31 32  2  0
 31 33  1  0
 33 34  2  0
 34 35  1  0
 34 36  1  0
 36 37  1  0
 36 38  2  0
 38 39  1  0
 38 40  1  0
 40 41  1  0
 40 42  2  0
 42 43  1  0
 29 44  1  0
 44 45  1  0
 44 46  2  0
 46 47  1  0
 20 48  1  0
 48 49  1  0
 49 50  2  0
 10 51  1  0
 51 52  1  0
 52 53  1  0
 52 54  1  0
 52 55  1  0
 51 56  2  0
 56 57  1  0
 56  3  1  0
 49 17  1  0
 46 24  1  0
 42 33  1  0
M  CHG  4   4  -1  14  -1  30  -1  48  -1
M  END
>  <UniqueID>  (11) 
11

>  <SMILES>  (11) 
[H]/N=c1/cc(C)c(C[N-]C(=O)c2cn(Cc3ccc([N-]C(=O)c4ccccc4)cc3)[n-]c2=O)c(C)[n-]1

>  <Energy>  (11) 
98.26765183898738

>  <Genealogy>  (11) 
Cc1cc(=N)[n-]c(C)c1C[N-]C(=O)c1cn(Cc2ccc([N-]C(=O)c3ccccc3)cc2)[n-]c1=O (protonated)
[H]/N=c1/cc(C)c(C[N-]C(=O)c2cn(Cc3ccc([N-]C(=O)c4ccccc4)cc3)[n-]c2=O)c(C)[n-]1 (cis-trans isomerization)
[H]/N=c1/cc(C)c(C[N-]C(=O)c2cn(Cc3ccc([N-]C(=O)c4ccccc4)cc3)[n-]c2=O)c(C)[n-]1 (3D coordinates assigned)
[H]/N=c1/cc(C)c(C[N-]C(=O)c2cn(Cc3ccc([N-]C(=O)c4ccccc4)cc3)[n-]c2=O)c(C)[n-]1 (optimized conformer: 98.26765183898738 kcal/mol)

>  <smiles>  (11) 
Cc1cc(=N)[nH]c(C)c1CNC(=O)c1cn(Cc2ccc(NC(=O)c3ccccc3)cc2)[nH]c1=O

>  <score_type>  (11) 
oracle

>  <origin>  (11) 
adg

>  <m_score__min__energy>  (11) 
-15.56

>  <m_primary>  (11) 
energy

$$$$
11:0
     RDKit          3D

 30 32  0  0  0  0  0  0  0  0999 V2000
   53.8110   29.7710   54.8490 C   0  0  0  0  0  0  0  0  0  0  0  0
   54.3870   30.1750   53.7120 C   0  0  0  0  0  0  0  0  0  0  0  0
   55.7170   30.3530   53.5940 N   0  0  0  0  0  0  0  0  0  0  0  0
   55.9560   30.7540   52.3280 C   0  0  0  0  0  0  0  0  0  0  0  0
   57.3080   31.0420   51.7850 C   0  0  0  0  0  0  0  0  0  0  0  0
   58.1620   29.9940   51.3910 C   0  0  0  0  0  0  0  0  0  0  0  0
   59.4340   30.2700   50.8790 C   0  0  0  0  0  0  0  0  0  0  0  0
   59.8680   31.5910   50.7520 C   0  0  0  0  0  0  0  0  0  0  0  0
   59.0290   32.6400   51.1370 C   0  0  0  0  0  0  0  0  0  0  0  0
   59.4600   33.9550   51.0070 O   0  0  0  0  0  0  0  0  0  0  0  0
   57.7560   32.3690   51.6510 C   0  0  0  0  0  0  0  0  0  0  0  0
   54.7650   30.8370   51.6240 C   0  0  0  0  0  0  0  0  0  0  0  0
   53.7540   30.4760   52.5050 C   0  0  0  0  0  0  0  0  0  0  0  0
   52.4390   30.3860   52.2290 C   0  0  0  0  0  0  0  0  0  0  0  0
   51.8290   30.8430   50.9680 C   0  0  0  0  0  0  0  0  0  0  0  0
   51.7130   30.0630   49.8780 N   0  0  0  0  0  0  0  0  0  0  0  0
   51.0330   30.8390   49.0070 C   0  0  0  0  0  0  0  0  0  0  0  0
   50.7380   30.4540   47.8450 O   0  0  0  0  0  0  0  0  0  0  0  0
   50.6850   32.0540   49.4810 N   0  0  0  0  0  0  0  0  0  0  0  0
   51.1850   32.0370   50.7270 C   0  0  0  0  0  0  0  0  0  0  0  0
   51.0110   33.0730   51.6380 O   0  0  0  0  0  0  0  0  0  0  0  0
   52.7199   29.6398   54.8964 H   0  0  0  0  0  0  0  0  0  0  0  0
   54.4283   29.5698   55.7370 H   0  0  0  0  0  0  0  0  0  0  0  0
   56.4280   30.1810   54.3400 H   0  0  0  0  0  0  0  0  0  0  0  0
   57.8264   28.9508   51.4866 H   0  0  0  0  0  0  0  0  0  0  0  0
   60.0942   29.4441   50.5756 H   0  0  0  0  0  0  0  0  0  0  0  0
   60.8689   31.8056   50.3494 H   0  0  0  0  0  0  0  0  0  0  0  0
   57.1008   33.1995   51.9525 H   0  0  0  0  0  0  0  0  0  0  0  0
   54.6440   31.1318   50.5712 H   0  0  0  0  0  0  0  0  0  0  0  0
   51.7802   29.9445   52.9913 H   0  0  0  0  0  0  0  0  0  0  0  0
  1  2  2  0
  2  3  1  0
  3  4  1  0
  4  5  1  0
  5  6  2  0
  6  7  1  0
  7  8  2  0
  8  9  1  0
  9 10  1  0
  9 11  2  0
  4 12  2  0
 12 13  1  0
 13 14  2  3
 14 15  1  0
 15 16  1  0
 16 17  1  0
 17 18  2  0
 17 19  1  0
 19 20  1  0
 20 21  1  0
 13  2  1  0
 20 15  2  0
 11  5  1  0
  1 22  1  0
  1 23  1  0
  3 24  1  0
  6 25  1  0
  7 26  1  0
  8 27  1  0
 11 28  1  0
 12 29  1  0
 14 30  1  0
M  CHG  4  10  -1  16  -1  19  -1  21  -1
M  END
>  <UniqueID>  (12) 
12

>  <SMILES>  (12) 
C=c1[nH]c(-c2cccc([O-])c2)cc1=Cc1[n-]c(=O)[n-]c1[O-]

>  <Energy>  (12) 
98.69405121836127

>  <Genealogy>  (12) 
C=c1[nH]c(-c2cccc([O-])c2)cc1=Cc1[n-]c(=O)[n-]c1[O-] (protonated)
C=c1[nH]c(-c2cccc([O-])c2)cc1=Cc1[n-]c(=O)[n-]c1[O-] (3D coordinates assigned)
C=c1[nH]c(-c2cccc([O-])c2)cc1=Cc1[n-]c(=O)[n-]c1[O-] (optimized conformer: 98.69405121836127 kcal/mol)

>  <smiles>  (12) 
C=c1[nH]c(-c2cccc(O)c2)cc1=Cc1[nH]c(=O)[nH]c1O

>  <score_type>  (12) 
oracle

>  <origin>  (12) 
adg

>  <m_score__min__energy>  (12) 
-16.82

>  <m_primary>  (12) 
energy

$$$$
12:0
     RDKit          3D

 32 34  0  0  1  0  0  0  0  0999 V2000
   57.0170   31.5540   42.0440 C   0  0  0  0  0  0  0  0  0  0  0  0
   57.2020   30.9670   43.4000 C   0  0  0  0  0  0  0  0  0  0  0  0
   57.9680   31.6570   44.2950 C   0  0  0  0  0  0  0  0  0  0  0  0
   58.1410   31.1150   45.5460 C   0  0  0  0  0  0  0  0  0  0  0  0
   57.5450   29.8960   45.8750 C   0  0  0  0  0  0  0  0  0  0  0  0
   56.7720   29.1830   44.9980 C   0  0  0  0  0  0  0  0  0  0  0  0
   56.1400   27.9540   45.2510 N   0  0  0  0  0  0  0  0  0  0  0  0
   56.6240   26.8320   45.9260 C   0  0  0  0  0  0  0  0  0  0  0  0
   58.0890   26.6590   46.6090 S   0  0  0  0  0  0  0  0  0  0  0  0
   55.7550   25.6890   46.0450 N   0  0  0  0  0  0  0  0  0  0  0  0
   56.1210   24.5670   45.5290 C   0  0  0  0  0  0  0  0  0  0  0  0
   56.1290   24.4690   44.1930 N   0  0  0  0  0  0  0  0  0  0  0  0
   56.5110   23.3040   43.6340 C   0  0  0  0  0  0  0  0  0  0  0  0
   56.8820   22.2370   44.3770 N   0  0  0  0  0  0  0  0  0  0  0  0
   56.8860   22.2980   45.7070 C   0  0  0  0  0  0  0  0  0  0  0  0
   57.1880   21.4510   46.7110 N   0  0  0  0  0  0  0  0  0  0  0  0
   57.0020   22.0670   47.8870 N   0  0  0  0  0  0  0  0  0  0  0  0
   56.5740   23.3320   47.6570 C   0  0  0  0  0  0  0  0  0  0  0  0
   56.4980   23.4860   46.2940 C   0  0  0  0  0  0  0  0  0  0  0  0
   56.6200   29.7710   43.7280 C   0  0  0  0  0  0  0  0  0  0  0  0
   56.6876   32.5992   42.1387 H   0  0  0  0  0  0  0  0  0  0  0  0
   57.9700   31.5182   41.4958 H   0  0  0  0  0  0  0  0  0  0  0  0
   56.2568   30.9782   41.4958 H   0  0  0  0  0  0  0  0  0  0  0  0
   58.4321   32.6166   44.0233 H   0  0  0  0  0  0  0  0  0  0  0  0
   58.7521   31.6443   46.2919 H   0  0  0  0  0  0  0  0  0  0  0  0
   57.7037   29.4898   46.8849 H   0  0  0  0  0  0  0  0  0  0  0  0
   55.1450   27.8700   44.8720 H   0  0  0  0  0  0  0  0  0  0  0  0
   55.8560   25.2490   43.5500 H   0  0  0  0  0  0  0  0  0  0  0  0
   56.5214   23.2182   42.5374 H   0  0  0  0  0  0  0  0  0  0  0  0
   57.5170   20.4630   46.5490 H   0  0  0  0  0  0  0  0  0  0  0  0
   56.3334   24.0905   48.4165 H   0  0  0  0  0  0  0  0  0  0  0  0
   56.0124   29.2517   42.9722 H   0  0  0  0  0  0  0  0  0  0  0  0
  1  2  1  0
  2  3  2  0
  3  4  1  0
  4  5  2  0
  5  6  1  0
  6  7  1  0
  7  8  1  0
  8  9  2  0
  8 10  1  0
 10 11  2  0
 11 12  1  0
 12 13  1  0
 13 14  2  0
 14 15  1  0
 15 16  1  0
 16 17  1  0
 17 18  2  0
 18 19  1  0
  6 20  2  0
 20  2  1  0
 19 11  1  0
 19 15  2  0
  1 21  1  0
  1 22  1  0
  1 23  1  0
  3 24  1  0
  4 25  1  0
  5 26  1  0
  7 27  1  0
 12 28  1  0
 13 29  1  0
 16 30  1  0
 18 31  1  0
 20 32  1  0
M  END
>  <smiles>  (13) 
Cc1cccc(NC(=S)N=c2[nH]cnc3[nH]ncc23)c1

>  <score_type>  (13) 
oracle

>  <origin>  (13) 
adg

>  <m_score__min__energy>  (13) 
-7.8099999999999996

>  <m_primary>  (13) 
energy

$$$$
13:0
     RDKit          3D

 36 38  0  0  0  0  0  0  0  0999 V2000
   56.6390   28.3547   43.9344 H   0  0  0  0  0  0  0  0  0  0  0  0
   57.0390   28.9110   44.7950 C   0  0  0  0  0  0  0  0  0  0  0  0
   57.1160   28.2780   45.9720 C   0  0  0  0  0  0  0  0  0  0  0  0
   57.1068   28.8679   46.9004 H   0  0  0  0  0  0  0  0  0  0  0  0
   57.2130   26.8060   46.0540 C   0  0  0  0  0  0  0  0  0  0  0  0
   56.0190   26.0610   46.0630 C   0  0  0  0  0  0  0  0  0  0  0  0
   54.7850   26.7010   45.9950 O   0  0  0  0  0  0  0  0  0  0  0  0
   56.0570   24.6660   46.1320 C   0  0  0  0  0  0  0  0  0  0  0  0
   55.1191   24.0912   46.1366 H   0  0  0  0  0  0  0  0  0  0  0  0
   57.2800   24.0010   46.1950 C   0  0  0  0  0  0  0  0  0  0  0  0
   57.3062   22.9019   46.2314 H   0  0  0  0  0  0  0  0  0  0  0  0
   58.4710   24.7270   46.2120 C   0  0  0  0  0  0  0  0  0  0  0  0
   59.4317   24.1941   46.2676 H   0  0  0  0  0  0  0  0  0  0  0  0
   58.4580   26.1300   46.1590 C   0  0  0  0  0  0  0  0  0  0  0  0
   60.0090   26.9840   46.2860 S   0  0  0  0  0  0  0  0  0  0  0  0
   61.1460   26.0310   46.0410 O   0  0  0  0  0  0  0  0  0  0  0  0
   60.0580   28.0700   45.2490 O   0  0  0  0  0  0  0  0  0  0  0  0
   60.2150   27.6870   47.8580 N   0  0  0  0  0  0  0  0  0  0  0  0
   59.9900   28.9380   48.1130 C   0  0  0  0  0  0  0  0  0  0  0  0
   58.8630   29.3980   48.6980 N   0  0  0  0  0  0  0  0  0  0  0  0
   58.8890   30.7520   48.8210 C   0  0  0  0  0  0  0  0  0  0  0  0
   58.0620   31.3196   49.2726 H   0  0  0  0  0  0  0  0  0  0  0  0
   60.0380   31.3670   48.3340 C   0  0  0  0  0  0  0  0  0  0  0  0
   60.2451   32.4473   48.3449 H   0  0  0  0  0  0  0  0  0  0  0  0
   61.0570   30.1730   47.7250 S   0  0  0  0  0  0  0  0  0  0  0  0
   57.4600   30.3160   44.5810 C   0  0  0  0  0  0  0  0  0  0  0  0
   57.9680   31.0370   45.6760 C   0  0  0  0  0  0  0  0  0  0  0  0
   58.0466   30.5508   46.6596 H   0  0  0  0  0  0  0  0  0  0  0  0
   58.3740   32.3660   45.5260 C   0  0  0  0  0  0  0  0  0  0  0  0
   58.7635   32.9222   46.3914 H   0  0  0  0  0  0  0  0  0  0  0  0
   58.2860   32.9890   44.2790 C   0  0  0  0  0  0  0  0  0  0  0  0
   58.6820   34.2780   44.1350 F   0  0  0  0  0  0  0  0  0  0  0  0
   57.7970   32.2810   43.1790 C   0  0  0  0  0  0  0  0  0  0  0  0
   57.7333   32.7704   42.1959 H   0  0  0  0  0  0  0  0  0  0  0  0
   57.3880   30.9510   43.3240 C   0  0  0  0  0  0  0  0  0  0  0  0
   57.0081   30.3975   42.4526 H   0  0  0  0  0  0  0  0  0  0  0  0
  1  2  1  0
  2  3  2  0
  3  4  1  0
  3  5  1  0
  5  6  2  0
  6  7  1  0
  6  8  1  0
  8  9  1  0
  8 10  2  0
 10 11  1  0
 10 12  1  0
 12 13  1  0
 12 14  2  0
 14 15  1  0
 15 16  2  0
 15 17  2  0
 15 18  1  0
 18 19  2  3
 19 20  1  0
 20 21  1  0
 21 22  1  0
 21 23  2  0
 23 24  1  0
 23 25  1  0
  2 26  1  0
 26 27  2  0
 27 28  1  0
 27 29  1  0
 29 30  1  0
 29 31  2  0
 31 32  1  0
 31 33  1  0
 33 34  1  0
 33 35  2  0
 35 36  1  0
 14  5  1  0
 25 19  1  0
 35 26  1  0
M  CHG  2   7  -1  20  -1
M  END
>  <UniqueID>  (14) 
13

>  <SMILES>  (14) 
O=S(=O)(N=c1[n-]ccs1)c1cccc([O-])c1/C=C/c1ccc(F)cc1

>  <Energy>  (14) 
81.01331660723322

>  <Genealogy>  (14) 
O=S(=O)(N=c1[n-]ccs1)c1cccc([O-])c1C=Cc1ccc(F)cc1 (protonated)
O=S(=O)(N=c1[n-]ccs1)c1cccc([O-])c1/C=C/c1ccc(F)cc1 (cis-trans isomerization)
O=S(=O)(N=c1[n-]ccs1)c1cccc([O-])c1/C=C/c1ccc(F)cc1 (3D coordinates assigned)
O=S(=O)(N=c1[n-]ccs1)c1cccc([O-])c1/C=C/c1ccc(F)cc1 (optimized conformer: 81.01331660723322 kcal/mol)

>  <smiles>  (14) 
O=S(=O)(N=c1[nH]ccs1)c1cccc(O)c1C=Cc1ccc(F)cc1

>  <score_type>  (14) 
oracle

>  <origin>  (14) 
adg

>  <m_score__min__energy>  (14) 
-12

>  <m_primary>  (14) 
energy

$$$$
14:0
     RDKit          3D

 37 39  0  0  0  0  0  0  0  0999 V2000
   57.7540   32.9800   52.8170 O   0  0  0  0  0  0  0  0  0  0  0  0
   57.5160   31.9910   52.0700 C   0  0  0  0  0  0  0  0  0  0  0  0
   58.3720   31.7300   50.9450 N   0  0  0  0  0  0  0  0  0  0  0  0
   59.3560   32.7020   50.4730 C   0  0  0  0  0  0  0  0  0  0  0  0
   59.0420   33.1160   49.0620 C   0  0  0  0  0  0  0  0  0  0  0  0
   59.6000   34.2810   48.5150 C   0  0  0  0  0  0  0  0  0  0  0  0
   59.2700   34.6550   47.2110 C   0  0  0  0  0  0  0  0  0  0  0  0
   58.4110   33.8950   46.4800 N   0  0  0  0  0  0  0  0  0  0  0  0
   57.8500   32.7650   46.9870 C   0  0  0  0  0  0  0  0  0  0  0  0
   58.1540   32.3560   48.2880 C   0  0  0  0  0  0  0  0  0  0  0  0
   56.3660   31.1070   52.3770 C   0  0  0  0  0  0  0  0  0  0  0  0
   56.4510   30.1320   53.3880 C   0  0  0  0  0  0  0  0  0  0  0  0
   55.3670   29.2930   53.6550 C   0  0  0  0  0  0  0  0  0  0  0  0
   54.1870   29.4130   52.9190 C   0  0  0  0  0  0  0  0  0  0  0  0
   54.0810   30.3790   51.9070 C   0  0  0  0  0  0  0  0  0  0  0  0
   52.8270   30.4810   51.0840 C   0  0  0  0  0  0  0  0  0  0  0  0
   51.8160   31.3300   51.7900 C   0  0  0  0  0  0  0  0  0  0  0  0
   51.5860   31.2860   53.1150 N   0  0  0  0  0  0  0  0  0  0  0  0
   50.6650   32.2560   53.3020 C   0  0  0  0  0  0  0  0  0  0  0  0
   50.1830   32.5230   54.4330 O   0  0  0  0  0  0  0  0  0  0  0  0
   50.3040   32.9210   52.1830 N   0  0  0  0  0  0  0  0  0  0  0  0
   51.0480   32.3260   51.2360 C   0  0  0  0  0  0  0  0  0  0  0  0
   51.0290   32.6900   49.8960 O   0  0  0  0  0  0  0  0  0  0  0  0
   55.1780   31.2130   51.6320 C   0  0  0  0  0  0  0  0  0  0  0  0
   58.3330   30.8030   50.4660 H   0  0  0  0  0  0  0  0  0  0  0  0
   59.3334   33.5877   51.1250 H   0  0  0  0  0  0  0  0  0  0  0  0
   60.3550   32.2423   50.4981 H   0  0  0  0  0  0  0  0  0  0  0  0
   60.2925   34.8954   49.1091 H   0  0  0  0  0  0  0  0  0  0  0  0
   59.7054   35.5658   46.7741 H   0  0  0  0  0  0  0  0  0  0  0  0
   57.1563   32.1724   46.3725 H   0  0  0  0  0  0  0  0  0  0  0  0
   57.6996   31.4438   48.7021 H   0  0  0  0  0  0  0  0  0  0  0  0
   57.3776   30.0300   53.9720 H   0  0  0  0  0  0  0  0  0  0  0  0
   55.4433   28.5348   54.4482 H   0  0  0  0  0  0  0  0  0  0  0  0
   53.3374   28.7480   53.1331 H   0  0  0  0  0  0  0  0  0  0  0  0
   53.0665   30.9340   50.1106 H   0  0  0  0  0  0  0  0  0  0  0  0
   52.4107   29.4737   50.9357 H   0  0  0  0  0  0  0  0  0  0  0  0
   55.1067   31.9571   50.8250 H   0  0  0  0  0  0  0  0  0  0  0  0
  1  2  2  0
  2  3  1  0
  3  4  1  0
  4  5  1  0
  5  6  2  0
  6  7  1  0
  7  8  2  0
  8  9  1  0
  9 10  2  0
  2 11  1  0
 11 12  2  0
 12 13  1  0
 13 14  2  0
 14 15  1  0
 15 16  1  0
 16 17  1  0
 17 18  1  0
 18 19  1  0
 19 20  2  0
 19 21  1  0
 21 22  1  0
 22 23  1  0
 15 24  2  0
 10  5  1  0
 24 11  1  0
 22 17  2  0
  3 25  1  0
  4 26  1  0
  4 27  1  0
  6 28  1  0
  7 29  1  0
  9 30  1  0
 10 31  1  0
 12 32  1  0
 13 33  1  0
 14 34  1  0
 16 35  1  0
 16 36  1  0
 24 37  1  0
M  CHG  3  18  -1  21  -1  23  -1
M  END
>  <UniqueID>  (15) 
14

>  <SMILES>  (15) 
O=C(NCc1ccncc1)c1cccc(Cc2[n-]c(=O)[n-]c2[O-])c1

>  <Energy>  (15) 
67.93081049026436

>  <Genealogy>  (15) 
O=C(NCc1ccncc1)c1cccc(Cc2[n-]c(=O)[n-]c2[O-])c1 (protonated)
O=C(NCc1ccncc1)c1cccc(Cc2[n-]c(=O)[n-]c2[O-])c1 (3D coordinates assigned)
O=C(NCc1ccncc1)c1cccc(Cc2[n-]c(=O)[n-]c2[O-])c1 (optimized conformer: 67.93081049026436 kcal/mol)

>  <smiles>  (15) 
O=C(NCc1ccncc1)c1cccc(Cc2[nH]c(=O)[nH]c2O)c1

>  <score_type>  (15) 
oracle

>  <origin>  (15) 
adg

>  <m_score__min__energy>  (15) 
-16.600000000000001

>  <m_primary>  (15) 
energy

$$$$
15:0
     RDKit          3D

 51 54  0  0  0  0  0  0  0  0999 V2000
   59.1537   32.5015   51.1284 H   0  0  0  0  0  0  0  0  0  0  0  0
   59.6010   32.7220   50.1480 C   0  0  0  0  0  0  0  0  0  0  0  0
   60.9330   32.9620   50.0480 N   0  0  0  0  0  0  0  0  0  0  0  0
   61.5100   33.2400   48.8480 C   0  0  0  0  0  0  0  0  0  0  0  0
   62.7870   33.4700   48.7470 N   0  0  0  0  0  0  0  0  0  0  0  0
   63.6670   33.1630   47.6110 C   0  0  0  0  0  0  0  0  0  0  0  0
   64.7007   33.3453   47.9398 H   0  0  0  0  0  0  0  0  0  0  0  0
   63.5800   31.6870   47.2110 C   0  0  0  0  0  0  0  0  0  0  0  0
   63.5432   31.0633   48.1163 H   0  0  0  0  0  0  0  0  0  0  0  0
   62.6706   31.5217   46.6147 H   0  0  0  0  0  0  0  0  0  0  0  0
   64.4637   31.4160   46.6147 H   0  0  0  0  0  0  0  0  0  0  0  0
   63.4060   34.0970   46.4230 C   0  0  0  0  0  0  0  0  0  0  0  0
   63.1274   35.0941   46.7948 H   0  0  0  0  0  0  0  0  0  0  0  0
   64.3167   34.1752   45.8110 H   0  0  0  0  0  0  0  0  0  0  0  0
   62.5867   33.6917   45.8110 H   0  0  0  0  0  0  0  0  0  0  0  0
   60.7400   33.2780   47.7290 N   0  0  0  0  0  0  0  0  0  0  0  0
   59.4010   33.0400   47.7730 C   0  0  0  0  0  0  0  0  0  0  0  0
   58.6250   33.0840   46.5560 N   0  0  0  0  0  0  0  0  0  0  0  0
   57.7650   31.9630   46.1620 C   0  0  0  0  0  0  0  0  0  0  0  0
   56.7659   32.1162   46.5959 H   0  0  0  0  0  0  0  0  0  0  0  0
   58.2317   31.0388   46.5335 H   0  0  0  0  0  0  0  0  0  0  0  0
   57.6260   31.8340   44.6540 C   0  0  0  0  0  0  0  0  0  0  0  0
   57.0010   30.6910   44.0760 C   0  0  0  0  0  0  0  0  0  0  0  0
   56.4530   29.5730   44.8830 C   0  0  0  0  0  0  0  0  0  0  0  0
   55.2080   29.3670   44.8720 O   0  0  0  0  0  0  0  0  0  0  0  0
   57.3320   28.7100   45.6230 N   0  0  0  0  0  0  0  0  0  0  0  0
   58.4270   28.9940   46.2730 C   0  0  0  0  0  0  0  0  0  0  0  0
   58.3980   28.9300   47.6330 N   0  0  0  0  0  0  0  0  0  0  0  0
   59.4880   29.1960   48.4010 C   0  0  0  0  0  0  0  0  0  0  0  0
   59.4165   29.1350   49.4970 H   0  0  0  0  0  0  0  0  0  0  0  0
   60.6960   29.5460   47.8000 C   0  0  0  0  0  0  0  0  0  0  0  0
   61.5793   29.7713   48.4156 H   0  0  0  0  0  0  0  0  0  0  0  0
   60.7710   29.6070   46.4090 C   0  0  0  0  0  0  0  0  0  0  0  0
   61.7196   29.8759   45.9213 H   0  0  0  0  0  0  0  0  0  0  0  0
   59.6430   29.3270   45.6340 C   0  0  0  0  0  0  0  0  0  0  0  0
   59.7006   29.3653   44.5362 H   0  0  0  0  0  0  0  0  0  0  0  0
   56.9150   30.5870   42.6770 C   0  0  0  0  0  0  0  0  0  0  0  0
   56.4469   29.6991   42.2269 H   0  0  0  0  0  0  0  0  0  0  0  0
   57.4140   31.5920   41.8530 C   0  0  0  0  0  0  0  0  0  0  0  0
   57.3288   31.4984   40.7603 H   0  0  0  0  0  0  0  0  0  0  0  0
   58.0200   32.7140   42.4080 C   0  0  0  0  0  0  0  0  0  0  0  0
   58.4190   33.4996   41.7496 H   0  0  0  0  0  0  0  0  0  0  0  0
   58.1270   32.8530   43.7990 C   0  0  0  0  0  0  0  0  0  0  0  0
   58.8850   34.0400   44.3380 C   0  0  0  0  0  0  0  0  0  0  0  0
   58.6408   34.9242   43.7309 H   0  0  0  0  0  0  0  0  0  0  0  0
   59.9598   33.8112   44.2881 H   0  0  0  0  0  0  0  0  0  0  0  0
   58.5290   34.3250   45.7880 C   0  0  0  0  0  0  0  0  0  0  0  0
   57.5023   34.7155   45.8455 H   0  0  0  0  0  0  0  0  0  0  0  0
   59.2235   35.0715   46.2008 H   0  0  0  0  0  0  0  0  0  0  0  0
   58.8010   32.7550   49.0090 C   0  0  0  0  0  0  0  0  0  0  0  0
   57.7203   32.5615   49.0767 H   0  0  0  0  0  0  0  0  0  0  0  0
  1  2  1  0
  2  3  1  0
  3  4  1  0
  4  5  2  3
  5  6  1  0
  6  7  1  0
  6  8  1  0
  8  9  1  0
  8 10  1  0
  8 11  1  0
  6 12  1  0
 12 13  1  0
 12 14  1  0
 12 15  1  0
  4 16  1  0
 16 17  2  0
 17 18  1  0
 18 19  1  0
 19 20  1  0
 19 21  1  0
 19 22  1  0
 22 23  2  0
 23 24  1  0
 24 25  2  0
 24 26  1  0
 26 27  2  0
 27 28  1  0
 28 29  1  0
 29 30  1  0
 29 31  2  0
 31 32  1  0
 31 33  1  0
 33 34  1  0
 33 35  2  0
 35 36  1  0
 23 37  1  0
 37 38  1  0
 37 39  2  0
 39 40  1  0
 39 41  1  0
 41 42  1  0
 41 43  2  0
 43 44  1  0
 44 45  1  0
 44 46  1  0
 44 47  1  0
 47 48  1  0
 47 49  1  0
 17 50  1  0
 50 51  1  0
 50  2  2  0
 47 18  1  0
 43 22  1  0
 35 27  1  0
M  CHG  2   3  -1  28  -1
M  END
>  <UniqueID>  (16) 
15

>  <SMILES>  (16) 
CC(C)N=c1nc(N2CCc3cccc(C(=O)/N=c4\cccc[n-]4)c3C2)cc[n-]1

>  <Energy>  (16) 
72.45512085973354

>  <Genealogy>  (16) 
CC(C)N=c1nc(N2CCc3cccc(C(=O)N=c4cccc[n-]4)c3C2)cc[n-]1 (protonated)
CC(C)N=c1nc(N2CCc3cccc(C(=O)/N=c4\cccc[n-]4)c3C2)cc[n-]1 (cis-trans isomerization)
CC(C)N=c1nc(N2CCc3cccc(C(=O)/N=c4\cccc[n-]4)c3C2)cc[n-]1 (3D coordinates assigned)
CC(C)N=c1nc(N2CCc3cccc(C(=O)/N=c4\cccc[n-]4)c3C2)cc[n-]1 (nonaromatic ring conformer: 72.45512085973354 kcal/mol)

>  <smiles>  (16) 
CC(C)N=c1nc(N2CCc3cccc(C(=O)N=c4cccc[nH]4)c3C2)cc[nH]1

>  <score_type>  (16) 
oracle

>  <origin>  (16) 
adg

>  <m_score__min__energy>  (16) 
-12.52

>  <m_primary>  (16) 
energy

$$$$
16:0
     RDKit          3D

 54 57  0  0  0  0  0  0  0  0999 V2000
   54.1660   26.3390   46.3700 H   0  0  0  0  0  0  0  0  0  0  0  0
   55.1210   26.4250   46.0470 O   0  0  0  0  0  0  0  0  0  0  0  0
   56.1160   25.5480   46.4740 C   0  0  0  0  0  0  0  0  0  0  0  0
   55.8920   24.5410   47.3330 N   0  0  0  0  0  0  0  0  0  0  0  0
   57.1000   23.9430   47.4150 C   0  0  0  0  0  0  0  0  0  0  0  0
   57.3070   22.9300   48.1320 O   0  0  0  0  0  0  0  0  0  0  0  0
   58.0650   24.5100   46.6600 N   0  0  0  0  0  0  0  0  0  0  0  0
   57.4390   25.5490   46.0830 C   0  0  0  0  0  0  0  0  0  0  0  0
   58.0690   26.4190   45.0800 C   0  0  0  0  0  0  0  0  0  0  0  0
   58.5573   25.9268   44.2260 H   0  0  0  0  0  0  0  0  0  0  0  0
   58.1020   27.7650   45.1130 C   0  0  0  0  0  0  0  0  0  0  0  0
   57.3530   28.5510   44.2510 C   0  0  0  0  0  0  0  0  0  0  0  0
   56.7038   28.1953   43.4374 H   0  0  0  0  0  0  0  0  0  0  0  0
   57.5770   29.8630   44.6080 C   0  0  0  0  0  0  0  0  0  0  0  0
   56.9420   31.0520   43.9510 C   0  0  0  0  0  0  0  0  0  0  0  0
   56.5727   31.7435   44.7226 H   0  0  0  0  0  0  0  0  0  0  0  0
   57.6860   31.5654   43.3242 H   0  0  0  0  0  0  0  0  0  0  0  0
   56.1015   30.7192   43.3242 H   0  0  0  0  0  0  0  0  0  0  0  0
   58.4450   29.9280   45.6400 N   0  0  0  0  0  0  0  0  0  0  0  0
   58.9420   31.1430   46.2270 C   0  0  0  0  0  0  0  0  0  0  0  0
   58.0570   32.1860   46.5310 C   0  0  0  0  0  0  0  0  0  0  0  0
   56.9766   32.0528   46.3731 H   0  0  0  0  0  0  0  0  0  0  0  0
   58.5440   33.3940   47.0340 C   0  0  0  0  0  0  0  0  0  0  0  0
   57.8455   34.2075   47.2797 H   0  0  0  0  0  0  0  0  0  0  0  0
   59.9160   33.5720   47.2260 C   0  0  0  0  0  0  0  0  0  0  0  0
   60.2960   34.5320   47.6055 H   0  0  0  0  0  0  0  0  0  0  0  0
   60.8110   32.5320   46.9370 C   0  0  0  0  0  0  0  0  0  0  0  0
   62.5490   32.7760   47.1460 S   0  0  0  0  0  0  0  0  0  0  0  0
   63.0000   33.8280   46.1720 O   0  0  0  0  0  0  0  0  0  0  0  0
   63.2700   31.5010   46.8040 O   0  0  0  0  0  0  0  0  0  0  0  0
   62.9960   33.2700   48.7670 N   0  0  0  0  0  0  0  0  0  0  0  0
   62.1040   34.3050   49.3310 C   0  0  0  0  0  0  0  0  0  0  0  0
   62.7225   35.0574   49.8422 H   0  0  0  0  0  0  0  0  0  0  0  0
   61.5345   34.7341   48.4934 H   0  0  0  0  0  0  0  0  0  0  0  0
   61.0820   33.7490   50.3370 C   0  0  0  0  0  0  0  0  0  0  0  0
   61.5076   33.7920   51.3504 H   0  0  0  0  0  0  0  0  0  0  0  0
   60.1646   34.3542   50.2923 H   0  0  0  0  0  0  0  0  0  0  0  0
   60.7580   32.3560   50.0040 N   0  0  0  0  0  0  0  0  0  0  0  0
   59.6230   31.8800   50.8080 C   0  0  0  0  0  0  0  0  0  0  0  0
   59.8630   31.9806   51.8768 H   0  0  0  0  0  0  0  0  0  0  0  0
   58.7310   32.4799   50.5744 H   0  0  0  0  0  0  0  0  0  0  0  0
   59.4257   30.8233   50.5744 H   0  0  0  0  0  0  0  0  0  0  0  0
   61.9360   31.4880   50.2020 C   0  0  0  0  0  0  0  0  0  0  0  0
   62.0528   31.2908   51.2779 H   0  0  0  0  0  0  0  0  0  0  0  0
   61.7667   30.5588   49.6381 H   0  0  0  0  0  0  0  0  0  0  0  0
   63.2350   32.1300   49.6720 C   0  0  0  0  0  0  0  0  0  0  0  0
   63.8251   32.4835   50.5304 H   0  0  0  0  0  0  0  0  0  0  0  0
   63.7658   31.3602   49.0927 H   0  0  0  0  0  0  0  0  0  0  0  0
   60.3180   31.3160   46.4380 C   0  0  0  0  0  0  0  0  0  0  0  0
   61.0140   30.4949   46.2114 H   0  0  0  0  0  0  0  0  0  0  0  0
   58.8000   28.6550   45.9480 C   0  0  0  0  0  0  0  0  0  0  0  0
   59.7340   28.3550   46.8620 C   0  0  0  0  0  0  0  0  0  0  0  0
   60.2039   29.1560   47.4516 H   0  0  0  0  0  0  0  0  0  0  0  0
   60.0304   27.3079   47.0222 H   0  0  0  0  0  0  0  0  0  0  0  0
  1  2  1  0
  2  3  1  0
  3  4  1  0
  4  5  1  0
  5  6  2  0
  5  7  1  0
  7  8  1  0
  8  9  1  0
  9 10  1  0
  9 11  2  0
 11 12  1  0
 12 13  1  0
 12 14  2  0
 14 15  1  0
 15 16  1  0
 15 17  1  0
 15 18  1  0
 14 19  1  0
 19 20  1  0
 20 21  2  0
 21 22  1  0
 21 23  1  0
 23 24  1  0
 23 25  2  0
 25 26  1  0
 25 27  1  0
 27 28  1  0
 28 29  2  0
 28 30  2  0
 28 31  1  0
 31 32  1  0
 32 33  1  0
 32 34  1  0
 32 35  1  0
 35 36  1  0
 35 37  1  0
 35 38  1  0
 38 39  1  0
 39 40  1  0
 39 41  1  0
 39 42  1  0
 38 43  1  0
 43 44  1  0
 43 45  1  0
 43 46  1  0
 46 47  1  0
 46 48  1  0
 27 49  2  0
 49 50  1  0
 19 51  1  0
 51 52  2  0
 52 53  1  0
 52 54  1  0
  8  3  2  0
 51 11  1  0
 49 20  1  0
 46 31  1  0
M  CHG  2   4  -1   7  -1
M  END
>  <UniqueID>  (17) 
16

>  <SMILES>  (17) 
C=c1/c(=C\c2[n-]c(=O)[n-]c2O)cc(C)n1-c1cccc(S(=O)(=O)N2CCN(C)CC2)c1

>  <Energy>  (17) 
140.0476136317955

>  <Genealogy>  (17) 
C=c1c(=Cc2[n-]c(=O)[n-]c2O)cc(C)n1-c1cccc(S(=O)(=O)N2CCN(C)CC2)c1 (protonated)
C=c1/c(=C\c2[n-]c(=O)[n-]c2O)cc(C)n1-c1cccc(S(=O)(=O)N2CCN(C)CC2)c1 (cis-trans isomerization)
C=c1/c(=C\c2[n-]c(=O)[n-]c2O)cc(C)n1-c1cccc(S(=O)(=O)N2CCN(C)CC2)c1 (3D coordinates assigned)
C=c1/c(=C\c2[n-]c(=O)[n-]c2O)cc(C)n1-c1cccc(S(=O)(=O)N2CCN(C)CC2)c1 (nonaromatic ring conformer: 140.0476136317955 kcal/mol)

>  <smiles>  (17) 
C=c1c(=Cc2[nH]c(=O)[nH]c2O)cc(C)n1-c1cccc(S(=O)(=O)N2CCN(C)CC2)c1

>  <score_type>  (17) 
oracle

>  <origin>  (17) 
adg

>  <m_score__min__energy>  (17) 
-14.550000000000001

>  <m_primary>  (17) 
energy

$$$$
17:0
     RDKit          3D

 67 71  0  0  0  0  0  0  0  0999 V2000
   65.1490   33.7510   52.5240 C   0  0  0  0  0  0  0  0  0  0  0  0
   64.2610   34.7630   51.8840 C   0  0  0  0  0  0  0  0  0  0  0  0
   64.4960   35.9920   52.0490 O   0  0  0  0  0  0  0  0  0  0  0  0
   63.0940   34.3260   51.1750 N   0  0  0  0  0  0  0  0  0  0  0  0
   63.0260   34.0210   49.7750 C   0  0  0  0  0  0  0  0  0  0  0  0
   64.1260   33.4980   49.0800 C   0  0  0  0  0  0  0  0  0  0  0  0
   64.0170   33.2030   47.7210 C   0  0  0  0  0  0  0  0  0  0  0  0
   62.8120   33.4190   47.0490 C   0  0  0  0  0  0  0  0  0  0  0  0
   61.6840   33.9270   47.7280 C   0  0  0  0  0  0  0  0  0  0  0  0
   60.4190   34.1740   46.9560 C   0  0  0  0  0  0  0  0  0  0  0  0
   60.0050   35.3640   46.8670 O   0  0  0  0  0  0  0  0  0  0  0  0
   59.6390   33.1310   46.3120 N   0  0  0  0  0  0  0  0  0  0  0  0
   58.7330   32.4530   47.2580 C   0  0  0  0  0  0  0  0  0  0  0  0
   58.0510   31.2630   46.5670 C   0  0  0  0  0  0  0  0  0  0  0  0
   57.4170   31.6340   45.2820 N   0  0  0  0  0  0  0  0  0  0  0  0
   57.5370   30.6280   44.2070 C   0  0  0  0  0  0  0  0  0  0  0  0
   57.4790   29.1990   44.6980 C   0  0  0  0  0  0  0  0  0  0  0  0
   58.6320   28.3710   44.6190 C   0  0  0  0  0  0  0  0  0  0  0  0
   58.5930   27.0370   45.0670 C   0  0  0  0  0  0  0  0  0  0  0  0
   57.3840   26.5550   45.5560 C   0  0  0  0  0  0  0  0  0  0  0  0
   57.1080   25.3110   45.9780 N   0  0  0  0  0  0  0  0  0  0  0  0
   55.7840   25.3890   46.2630 C   0  0  0  0  0  0  0  0  0  0  0  0
   55.1140   24.3530   46.6760 N   0  0  0  0  0  0  0  0  0  0  0  0
   54.2400   23.5350   45.8840 C   0  0  0  0  0  0  0  0  0  0  0  0
   53.6960   23.9880   44.8390 O   0  0  0  0  0  0  0  0  0  0  0  0
   54.0220   22.2130   46.2760 O   0  0  0  0  0  0  0  0  0  0  0  0
   55.0780   21.2990   46.5670 C   0  0  0  0  0  0  0  0  0  0  0  0
   56.2800   21.6130   45.7170 C   0  0  0  0  0  0  0  0  0  0  0  0
   56.2880   21.2540   44.3580 C   0  0  0  0  0  0  0  0  0  0  0  0
   57.4100   21.5170   43.5670 C   0  0  0  0  0  0  0  0  0  0  0  0
   58.5340   22.1320   44.1260 C   0  0  0  0  0  0  0  0  0  0  0  0
   58.5370   22.4820   45.4790 C   0  0  0  0  0  0  0  0  0  0  0  0
   57.4170   22.2220   46.2740 C   0  0  0  0  0  0  0  0  0  0  0  0
   55.2240   26.6110   46.0470 N   0  0  0  0  0  0  0  0  0  0  0  0
   56.2660   27.3280   45.6020 C   0  0  0  0  0  0  0  0  0  0  0  0
   56.2690   28.6580   45.1890 C   0  0  0  0  0  0  0  0  0  0  0  0
   57.5550   33.0450   44.8620 C   0  0  0  0  0  0  0  0  0  0  0  0
   58.9830   33.6030   45.0630 C   0  0  0  0  0  0  0  0  0  0  0  0
   61.8130   34.2140   49.1030 C   0  0  0  0  0  0  0  0  0  0  0  0
   65.0738   33.8368   53.6181 H   0  0  0  0  0  0  0  0  0  0  0  0
   64.8392   32.7424   52.2131 H   0  0  0  0  0  0  0  0  0  0  0  0
   66.1893   33.9271   52.2131 H   0  0  0  0  0  0  0  0  0  0  0  0
   65.0752   33.3203   49.6067 H   0  0  0  0  0  0  0  0  0  0  0  0
   64.8832   32.7988   47.1767 H   0  0  0  0  0  0  0  0  0  0  0  0
   62.7411   33.1900   45.9754 H   0  0  0  0  0  0  0  0  0  0  0  0
   60.3230   32.3930   46.0180 H   0  0  0  0  0  0  0  0  0  0  0  0
   59.3111   32.0912   48.1211 H   0  0  0  0  0  0  0  0  0  0  0  0
   57.9649   33.1640   47.5966 H   0  0  0  0  0  0  0  0  0  0  0  0
   58.8069   30.4872   46.3752 H   0  0  0  0  0  0  0  0  0  0  0  0
   57.2568   30.9012   47.2366 H   0  0  0  0  0  0  0  0  0  0  0  0
   56.7141   30.7831   43.4937 H   0  0  0  0  0  0  0  0  0  0  0  0
   58.5261   30.7682   43.7465 H   0  0  0  0  0  0  0  0  0  0  0  0
   59.5656   28.7775   44.2029 H   0  0  0  0  0  0  0  0  0  0  0  0
   59.4878   26.3982   45.0314 H   0  0  0  0  0  0  0  0  0  0  0  0
   55.3509   21.3840   47.6292 H   0  0  0  0  0  0  0  0  0  0  0  0
   54.7395   20.2753   46.3493 H   0  0  0  0  0  0  0  0  0  0  0  0
   55.4081   20.7643   43.9154 H   0  0  0  0  0  0  0  0  0  0  0  0
   57.4085   21.2395   42.5026 H   0  0  0  0  0  0  0  0  0  0  0  0
   59.4153   22.3403   43.5015 H   0  0  0  0  0  0  0  0  0  0  0  0
   59.4227   22.9632   45.9194 H   0  0  0  0  0  0  0  0  0  0  0  0
   57.4259   22.4952   47.3395 H   0  0  0  0  0  0  0  0  0  0  0  0
   55.3563   29.2696   45.2433 H   0  0  0  0  0  0  0  0  0  0  0  0
   57.2976   33.1191   43.7951 H   0  0  0  0  0  0  0  0  0  0  0  0
   56.8790   33.6415   45.4923 H   0  0  0  0  0  0  0  0  0  0  0  0
   59.6008   33.2925   44.2075 H   0  0  0  0  0  0  0  0  0  0  0  0
   58.8929   34.6966   45.1406 H   0  0  0  0  0  0  0  0  0  0  0  0
   60.9438   34.5968   49.6580 H   0  0  0  0  0  0  0  0  0  0  0  0
  1  2  1  0
  2  3  2  0
  2  4  1  0
  4  5  1  0
  5  6  2  0
  6  7  1  0
  7  8  2  0
  8  9  1  0
  9 10  1  0
 10 11  2  0
 10 12  1  0
 12 13  1  0
 13 14  1  0
 14 15  1  0
 15 16  1  0
 16 17  1  0
 17 18  2  0
 18 19  1  0
 19 20  2  0
 20 21  1  0
 21 22  1  0
 22 23  2  3
 23 24  1  0
 24 25  2  0
 24 26  1  0
 26 27  1  0
 27 28  1  0
 28 29  2  0
 29 30  1  0
 30 31  2  0
 31 32  1  0
 32 33  2  0
 22 34  1  0
 34 35  1  0
 35 36  2  0
 15 37  1  0
 37 38  1  0
  9 39  2  0
 39  5  1  0
 38 12  1  0
 36 17  1  0
 35 20  1  0
 33 28  1  0
  1 40  1  0
  1 41  1  0
  1 42  1  0
  6 43  1  0
  7 44  1  0
  8 45  1  0
 12 46  1  0
 13 47  1  0
 13 48  1  0
 14 49  1  0
 14 50  1  0
 16 51  1  0
 16 52  1  0
 18 53  1  0
 19 54  1  0
 27 55  1  0
 27 56  1  0
 29 57  1  0
 30 58  1  0
 31 59  1  0
 32 60  1  0
 33 61  1  0
 36 62  1  0
 37 63  1  0
 37 64  1  0
 38 65  1  0
 38 66  1  0
 39 67  1  0
M  CHG  4   4  -1  12   1  21  -1  34  -1
M  END
>  <UniqueID>  (18) 
17

>  <SMILES>  (18) 
CC(=O)[N-]c1cccc(C(=O)[NH+]2CCN(Cc3ccc4[n-]c(=NC(=O)OCc5ccccc5)[n-]c4c3)CC2)c1

>  <Energy>  (18) 
133.9572441200719

>  <Genealogy>  (18) 
CC(=O)[N-]c1cccc(C(=O)[NH+]2CCN(Cc3ccc4[n-]c(=NC(=O)OCc5ccccc5)[n-]c4c3)CC2)c1 (protonated)
CC(=O)[N-]c1cccc(C(=O)[NH+]2CCN(Cc3ccc4[n-]c(=NC(=O)OCc5ccccc5)[n-]c4c3)CC2)c1 (3D coordinates assigned)
CC(=O)[N-]c1cccc(C(=O)[NH+]2CCN(Cc3ccc4[n-]c(=NC(=O)OCc5ccccc5)[n-]c4c3)CC2)c1 (nonaromatic ring conformer: 133.9572441200719 kcal/mol)

>  <smiles>  (18) 
CC(=O)Nc1cccc(C(=O)N2CCN(Cc3ccc4[nH]c(=NC(=O)OCc5ccccc5)[nH]c4c3)CC2)c1

>  <score_type>  (18) 
oracle

>  <origin>  (18) 
adg

>  <m_score__min__energy>  (18) 
-13.890000000000001

>  <m_primary>  (18) 
energy

$$$$
18:0
     RDKit          3D

 50 53  0  0  0  0  0  0  0  0999 V2000
   55.8390   27.4190   45.6460 O   0  0  0  0  0  0  0  0  0  0  0  0
   56.7400   28.1400   45.1420 C   0  0  0  0  0  0  0  0  0  0  0  0
   57.8670   27.4930   44.3880 C   0  0  0  0  0  0  0  0  0  0  0  0
   59.3970   28.4940   44.4650 S   0  0  0  0  0  0  0  0  0  0  0  0
   59.4530   28.6090   46.2630 C   0  0  0  0  0  0  0  0  0  0  0  0
   59.3420   29.8710   46.8610 C   0  0  0  0  0  0  0  0  0  0  0  0
   59.4050   30.0020   48.2500 C   0  0  0  0  0  0  0  0  0  0  0  0
   59.5890   28.8740   49.0510 C   0  0  0  0  0  0  0  0  0  0  0  0
   59.6990   27.6100   48.4660 C   0  0  0  0  0  0  0  0  0  0  0  0
   59.6210   27.4630   47.0700 C   0  0  0  0  0  0  0  0  0  0  0  0
   59.7020   26.1580   46.4710 N   0  0  0  0  0  0  0  0  0  0  0  0
   58.6310   25.2020   46.5550 C   0  0  0  0  0  0  0  0  0  0  0  0
   57.6740   25.3840   47.3540 O   0  0  0  0  0  0  0  0  0  0  0  0
   58.6230   24.0240   45.6740 C   0  0  0  0  0  0  0  0  0  0  0  0
   57.6100   23.6730   44.8010 C   0  0  0  0  0  0  0  0  0  0  0  0
   58.0420   22.5220   44.1770 C   0  0  0  0  0  0  0  0  0  0  0  0
   59.2860   22.2420   44.7060 C   0  0  0  0  0  0  0  0  0  0  0  0
   59.6040   23.1550   45.5950 O   0  0  0  0  0  0  0  0  0  0  0  0
   56.6600   29.5620   45.3190 N   0  0  0  0  0  0  0  0  0  0  0  0
   57.0490   30.5780   44.3800 C   0  0  0  0  0  0  0  0  0  0  0  0
   56.6870   30.4280   43.0360 C   0  0  0  0  0  0  0  0  0  0  0  0
   57.0390   31.4010   42.0980 C   0  0  0  0  0  0  0  0  0  0  0  0
   57.7740   32.5210   42.4920 C   0  0  0  0  0  0  0  0  0  0  0  0
   58.1970   32.6590   43.8200 C   0  0  0  0  0  0  0  0  0  0  0  0
   58.9210   33.8400   44.1950 N   0  0  0  0  0  0  0  0  0  0  0  0
   59.4720   34.1440   45.4830 C   0  0  0  0  0  0  0  0  0  0  0  0
   60.7250   34.1540   45.6130 O   0  0  0  0  0  0  0  0  0  0  0  0
   58.5820   34.3550   46.6850 C   0  0  0  0  0  0  0  0  0  0  0  0
   58.3210   33.1430   47.5750 C   0  0  0  0  0  0  0  0  0  0  0  0
   59.2920   34.2210   48.0230 C   0  0  0  0  0  0  0  0  0  0  0  0
   57.8270   31.6850   44.7640 C   0  0  0  0  0  0  0  0  0  0  0  0
   58.0663   26.5034   44.8250 H   0  0  0  0  0  0  0  0  0  0  0  0
   57.5676   27.4056   43.3331 H   0  0  0  0  0  0  0  0  0  0  0  0
   59.2045   30.7636   46.2331 H   0  0  0  0  0  0  0  0  0  0  0  0
   59.3095   30.9952   48.7131 H   0  0  0  0  0  0  0  0  0  0  0  0
   59.6475   28.9803   50.1443 H   0  0  0  0  0  0  0  0  0  0  0  0
   59.8475   26.7245   49.1015 H   0  0  0  0  0  0  0  0  0  0  0  0
   60.4720   25.9750   45.7890 H   0  0  0  0  0  0  0  0  0  0  0  0
   56.6589   24.2012   44.6384 H   0  0  0  0  0  0  0  0  0  0  0  0
   57.5039   21.9433   43.4118 H   0  0  0  0  0  0  0  0  0  0  0  0
   59.9153   21.3845   44.4256 H   0  0  0  0  0  0  0  0  0  0  0  0
   56.1225   29.5394   42.7172 H   0  0  0  0  0  0  0  0  0  0  0  0
   56.7367   31.2848   41.0468 H   0  0  0  0  0  0  0  0  0  0  0  0
   58.0222   33.2992   41.7553 H   0  0  0  0  0  0  0  0  0  0  0  0
   57.9362   35.1006   46.1982 H   0  0  0  0  0  0  0  0  0  0  0  0
   57.3511   33.0311   48.0817 H   0  0  0  0  0  0  0  0  0  0  0  0
   58.3764   32.0526   47.4409 H   0  0  0  0  0  0  0  0  0  0  0  0
   59.0254   34.8887   48.8555 H   0  0  0  0  0  0  0  0  0  0  0  0
   60.3426   34.2325   48.3487 H   0  0  0  0  0  0  0  0  0  0  0  0
   58.1484   31.7895   45.8108 H   0  0  0  0  0  0  0  0  0  0  0  0
  1  2  2  0
  2  3  1  0
  3  4  1  0
  4  5  1  0
  5  6  2  0
  6  7  1  0
  7  8  2  0
  8  9  1  0
  9 10  2  0
 10 11  1  0
 11 12  1  0
 12 13  2  0
 12 14  1  0
 14 15  2  0
 15 16  1  0
 16 17  2  0
 17 18  1  0
  2 19  1  0
 19 20  1  0
 20 21  2  0
 21 22  1  0
 22 23  2  0
 23 24  1  0
 24 25  1  0
 25 26  1  0
 26 27  2  0
 26 28  1  0
 28 29  1  0
 29 30  1  0
 24 31  2  0
 10  5  1  0
 18 14  1  0
 31 20  1  0
 30 28  1  0
  3 32  1  0
  3 33  1  0
  6 34  1  0
  7 35  1  0
  8 36  1  0
  9 37  1  0
 11 38  1  0
 15 39  1  0
 16 40  1  0
 17 41  1  0
 21 42  1  0
 22 43  1  0
 23 44  1  0
 28 45  1  0
 29 46  1  0
 29 47  1  0
 30 48  1  0
 30 49  1  0
 31 50  1  0
M  CHG  2  19  -1  25  -1
M  END
>  <UniqueID>  (19) 
18

>  <SMILES>  (19) 
O=C(CSc1ccccc1NC(=O)c1ccco1)[N-]c1cccc([N-]C(=O)C2CC2)c1

>  <Energy>  (19) 
350.34793420594616

>  <Genealogy>  (19) 
O=C(CSc1ccccc1NC(=O)c1ccco1)[N-]c1cccc([N-]C(=O)C2CC2)c1 (protonated)
O=C(CSc1ccccc1NC(=O)c1ccco1)[N-]c1cccc([N-]C(=O)C2CC2)c1 (3D coordinates assigned)
O=C(CSc1ccccc1NC(=O)c1ccco1)[N-]c1cccc([N-]C(=O)C2CC2)c1 (nonaromatic ring conformer: 350.34793420594616 kcal/mol)

>  <smiles>  (19) 
O=C(CSc1ccccc1NC(=O)c1ccco1)Nc1cccc(NC(=O)C2CC2)c1

>  <score_type>  (19) 
oracle

>  <origin>  (19) 
adg

>  <m_score__min__energy>  (19) 
-11.93

>  <m_primary>  (19) 
energy

$$$$
19:0
     RDKit          3D

 50 53  0  0  0  0  0  0  0  0999 V2000
   55.2070   28.7270   45.6160 H   0  0  0  0  0  0  0  0  0  0  0  0
   55.1150   29.3480   44.7810 N   0  0  0  0  0  0  0  0  0  0  0  0
   56.6780   30.0130   44.4680 S   0  0  0  0  0  0  0  0  0  0  0  0
   56.6090   31.5150   44.5190 O   0  0  0  0  0  0  0  0  0  0  0  0
   57.1290   29.5980   43.0950 O   0  0  0  0  0  0  0  0  0  0  0  0
   57.8140   29.4330   45.6800 C   0  0  0  0  0  0  0  0  0  0  0  0
   58.9570   30.1790   46.0000 C   0  0  0  0  0  0  0  0  0  0  0  0
   59.1343   31.1483   45.5110 H   0  0  0  0  0  0  0  0  0  0  0  0
   59.8720   29.6940   46.9390 C   0  0  0  0  0  0  0  0  0  0  0  0
   60.7602   30.2902   47.1954 H   0  0  0  0  0  0  0  0  0  0  0  0
   59.6640   28.4500   47.5570 C   0  0  0  0  0  0  0  0  0  0  0  0
   60.6760   27.9070   48.5360 C   0  0  0  0  0  0  0  0  0  0  0  0
   60.3291   26.9313   48.9070 H   0  0  0  0  0  0  0  0  0  0  0  0
   61.6413   27.8033   48.0189 H   0  0  0  0  0  0  0  0  0  0  0  0
   60.8520   28.8150   49.6710 N   0  0  0  0  0  0  0  0  0  0  0  0
   59.9950   29.6900   50.1170 C   0  0  0  0  0  0  0  0  0  0  0  0
   58.9330   29.2490   50.8380 N   0  0  0  0  0  0  0  0  0  0  0  0
   57.9900   30.1110   51.2900 C   0  0  0  0  0  0  0  0  0  0  0  0
   56.9890   29.6400   51.9820 N   0  0  0  0  0  0  0  0  0  0  0  0
   55.8770   30.2890   52.7050 C   0  0  0  0  0  0  0  0  0  0  0  0
   56.5438   30.7514   53.4477 H   0  0  0  0  0  0  0  0  0  0  0  0
   54.5580   29.5360   52.7690 C   0  0  0  0  0  0  0  0  0  0  0  0
   54.4718   28.5370   52.3167 H   0  0  0  0  0  0  0  0  0  0  0  0
   53.8741   29.2295   53.5742 H   0  0  0  0  0  0  0  0  0  0  0  0
   54.6970   30.7710   51.8770 C   0  0  0  0  0  0  0  0  0  0  0  0
   54.7108   30.6610   50.7826 H   0  0  0  0  0  0  0  0  0  0  0  0
   54.1546   31.7224   51.7737 H   0  0  0  0  0  0  0  0  0  0  0  0
   58.1080   31.4320   51.0010 N   0  0  0  0  0  0  0  0  0  0  0  0
   59.1600   31.8970   50.2840 C   0  0  0  0  0  0  0  0  0  0  0  0
   59.2110   33.1690   50.0050 N   0  0  0  0  0  0  0  0  0  0  0  0
   60.1640   33.8120   49.1040 C   0  0  0  0  0  0  0  0  0  0  0  0
   60.3384   34.8474   49.4320 H   0  0  0  0  0  0  0  0  0  0  0  0
   61.1149   33.2593   49.1187 H   0  0  0  0  0  0  0  0  0  0  0  0
   59.6050   33.8150   47.7070 C   0  0  0  0  0  0  0  0  0  0  0  0
   58.2110   33.7900   47.5190 C   0  0  0  0  0  0  0  0  0  0  0  0
   57.5413   33.7885   48.3917 H   0  0  0  0  0  0  0  0  0  0  0  0
   57.6720   33.7670   46.2290 C   0  0  0  0  0  0  0  0  0  0  0  0
   56.5809   33.7560   46.0902 H   0  0  0  0  0  0  0  0  0  0  0  0
   58.5150   33.7580   45.1180 C   0  0  0  0  0  0  0  0  0  0  0  0
   58.0879   33.7430   44.1044 H   0  0  0  0  0  0  0  0  0  0  0  0
   59.9020   33.7680   45.2910 C   0  0  0  0  0  0  0  0  0  0  0  0
   60.5635   33.7578   44.4122 H   0  0  0  0  0  0  0  0  0  0  0  0
   60.4530   33.7910   46.5780 C   0  0  0  0  0  0  0  0  0  0  0  0
   62.2080   33.7820   46.7360 Cl  0  0  0  0  0  0  0  0  0  0  0  0
   60.1230   31.0260   49.8610 N   0  0  0  0  0  0  0  0  0  0  0  0
   60.9560   31.3820   49.3490 H   0  0  0  0  0  0  0  0  0  0  0  0
   58.5060   27.7160   47.2490 C   0  0  0  0  0  0  0  0  0  0  0  0
   58.3174   26.7552   47.7502 H   0  0  0  0  0  0  0  0  0  0  0  0
   57.5930   28.2010   46.3090 C   0  0  0  0  0  0  0  0  0  0  0  0
   56.6969   27.6129   46.0619 H   0  0  0  0  0  0  0  0  0  0  0  0
  1  2  1  0
  2  3  1  0
  3  4  2  0
  3  5  2  0
  3  6  1  0
  6  7  2  0
  7  8  1  0
  7  9  1  0
  9 10  1  0
  9 11  2  0
 11 12  1  0
 12 13  1  0
 12 14  1  0
 12 15  1  0
 15 16  2  0
 16 17  1  0
 17 18  1  0
 18 19  2  3
 19 20  1  0
 20 21  1  0
 20 22  1  0
 22 23  1  0
 22 24  1  0
 22 25  1  0
 25 26  1  0
 25 27  1  0
 18 28  1  0
 28 29  1  0
 29 30  2  3
 30 31  1  0
 31 32  1  0
 31 33  1  0
 31 34  1  0
 34 35  2  0
 35 36  1  0
 35 37  1  0
 37 38  1  0
 37 39  2  0
 39 40  1  0
 39 41  1  0
 41 42  1  0
 41 43  2  0
 43 44  1  0
 29 45  1  0
 45 46  1  0
 11 47  1  0
 47 48  1  0
 47 49  2  0
 49 50  1  0
 49  6  1  0
 45 16  1  0
 25 20  1  0
 43 34  1  0
M  CHG  3   2  -1  17  -1  28  -1
M  END
>  <UniqueID>  (20) 
19

>  <SMILES>  (20) 
[NH-]S(=O)(=O)c1ccc(C/N=c2/[n-]c(=NC3CC3)[n-]c(=NCc3ccccc3Cl)[nH]2)cc1

>  <Energy>  (20) 
329.02510535263457

>  <Genealogy>  (20) 
[NH-]S(=O)(=O)c1ccc(CN=c2[n-]c(=NC3CC3)[n-]c(=NCc3ccccc3Cl)[nH]2)cc1 (protonated)
[NH-]S(=O)(=O)c1ccc(C/N=c2/[n-]c(=NC3CC3)[n-]c(=NCc3ccccc3Cl)[nH]2)cc1 (cis-trans isomerization)
[NH-]S(=O)(=O)c1ccc(C/N=c2/[n-]c(=NC3CC3)[n-]c(=NCc3ccccc3Cl)[nH]2)cc1 (3D coordinates assigned)
[NH-]S(=O)(=O)c1ccc(C/N=c2/[n-]c(=NC3CC3)[n-]c(=NCc3ccccc3Cl)[nH]2)cc1 (nonaromatic ring conformer: 329.02510535263457 kcal/mol)

>  <smiles>  (20) 
NS(=O)(=O)c1ccc(CN=c2[nH]c(=NCc3ccccc3Cl)[nH]c(=NC3CC3)[nH]2)cc1

>  <score_type>  (20) 
oracle

>  <origin>  (20) 
adg

>  <m_score__min__energy>  (20) 
-14.550000000000001

>  <m_primary>  (20) 
energy

$$$$
20:0
     RDKit          3D

 62 65  0  0  0  0  0  0  0  0999 V2000
   58.1550   30.3120   47.3290 O   0  0  0  0  0  0  0  0  0  0  0  0
   59.0970   29.4950   47.1390 C   0  0  0  0  0  0  0  0  0  0  0  0
   59.1310   28.6770   45.8840 C   0  0  0  0  0  0  0  0  0  0  0  0
   57.9710   27.6810   45.8580 C   0  0  0  0  0  0  0  0  0  0  0  0
   57.0360   28.0430   44.7970 N   0  0  0  0  0  0  0  0  0  0  0  0
   56.3160   29.2810   44.7130 C   0  0  0  0  0  0  0  0  0  0  0  0
   55.1580   29.3390   45.2050 O   0  0  0  0  0  0  0  0  0  0  0  0
   56.8600   30.4720   44.0270 C   0  0  0  0  0  0  0  0  0  0  0  0
   56.8680   30.5610   42.6260 C   0  0  0  0  0  0  0  0  0  0  0  0
   57.4080   31.6840   41.9940 C   0  0  0  0  0  0  0  0  0  0  0  0
   57.9590   32.7200   42.7520 C   0  0  0  0  0  0  0  0  0  0  0  0
   57.9800   32.6320   44.1510 C   0  0  0  0  0  0  0  0  0  0  0  0
   58.7000   33.9140   45.1240 S   0  0  0  0  0  0  0  0  0  0  0  0
   57.5960   34.6470   45.8330 O   0  0  0  0  0  0  0  0  0  0  0  0
   59.4350   34.8880   44.2430 O   0  0  0  0  0  0  0  0  0  0  0  0
   59.7950   33.2140   46.2960 N   0  0  0  0  0  0  0  0  0  0  0  0
   60.8560   34.1660   46.6420 C   0  0  0  0  0  0  0  0  0  0  0  0
   60.4040   34.9470   47.8650 C   0  0  0  0  0  0  0  0  0  0  0  0
   59.3120   34.1060   48.4990 C   0  0  0  0  0  0  0  0  0  0  0  0
   59.0920   32.9320   47.5540 C   0  0  0  0  0  0  0  0  0  0  0  0
   57.4380   31.5040   44.7830 C   0  0  0  0  0  0  0  0  0  0  0  0
   60.1660   29.3870   48.0920 N   0  0  0  0  0  0  0  0  0  0  0  0
   61.0110   30.4700   48.5030 C   0  0  0  0  0  0  0  0  0  0  0  0
   62.0850   30.9020   47.6970 C   0  0  0  0  0  0  0  0  0  0  0  0
   62.8910   31.9650   48.1100 C   0  0  0  0  0  0  0  0  0  0  0  0
   62.6290   32.6150   49.3180 C   0  0  0  0  0  0  0  0  0  0  0  0
   61.5490   32.2150   50.1060 C   0  0  0  0  0  0  0  0  0  0  0  0
   60.7320   31.1490   49.7000 C   0  0  0  0  0  0  0  0  0  0  0  0
   59.6410   30.7330   50.5330 N   0  0  0  0  0  0  0  0  0  0  0  0
   58.3330   31.3590   50.3250 C   0  0  0  0  0  0  0  0  0  0  0  0
   57.4470   31.1150   51.5490 C   0  0  0  0  0  0  0  0  0  0  0  0
   57.3860   29.7320   51.8490 O   0  0  0  0  0  0  0  0  0  0  0  0
   58.6640   29.2760   52.2590 C   0  0  0  0  0  0  0  0  0  0  0  0
   59.6860   29.3930   51.1160 C   0  0  0  0  0  0  0  0  0  0  0  0
   59.0524   29.3460   45.0144 H   0  0  0  0  0  0  0  0  0  0  0  0
   60.0781   28.1186   45.8507 H   0  0  0  0  0  0  0  0  0  0  0  0
   58.3615   26.6696   45.6720 H   0  0  0  0  0  0  0  0  0  0  0  0
   57.4498   27.7032   46.8264 H   0  0  0  0  0  0  0  0  0  0  0  0
   56.4472   29.7429   42.0230 H   0  0  0  0  0  0  0  0  0  0  0  0
   57.3992   31.7526   40.8962 H   0  0  0  0  0  0  0  0  0  0  0  0
   58.3767   33.6056   42.2507 H   0  0  0  0  0  0  0  0  0  0  0  0
   61.7857   33.6232   46.8680 H   0  0  0  0  0  0  0  0  0  0  0  0
   61.0467   34.8488   45.8009 H   0  0  0  0  0  0  0  0  0  0  0  0
   61.2409   35.0829   48.5658 H   0  0  0  0  0  0  0  0  0  0  0  0
   60.0440   35.9518   47.5988 H   0  0  0  0  0  0  0  0  0  0  0  0
   59.6309   33.7468   49.4886 H   0  0  0  0  0  0  0  0  0  0  0  0
   58.3888   34.6855   48.6470 H   0  0  0  0  0  0  0  0  0  0  0  0
   59.4915   32.0117   48.0050 H   0  0  0  0  0  0  0  0  0  0  0  0
   58.0172   32.7945   47.3646 H   0  0  0  0  0  0  0  0  0  0  0  0
   57.4659   31.4270   45.8800 H   0  0  0  0  0  0  0  0  0  0  0  0
   62.2884   30.3998   46.7397 H   0  0  0  0  0  0  0  0  0  0  0  0
   63.7338   32.2909   47.4827 H   0  0  0  0  0  0  0  0  0  0  0  0
   63.2741   33.4425   49.6484 H   0  0  0  0  0  0  0  0  0  0  0  0
   61.3371   32.7381   51.0502 H   0  0  0  0  0  0  0  0  0  0  0  0
   58.4642   32.4412   50.1779 H   0  0  0  0  0  0  0  0  0  0  0  0
   57.8559   30.9218   49.4355 H   0  0  0  0  0  0  0  0  0  0  0  0
   57.8648   31.6546   52.4117 H   0  0  0  0  0  0  0  0  0  0  0  0
   56.4314   31.4771   51.3311 H   0  0  0  0  0  0  0  0  0  0  0  0
   59.0060   29.8829   53.1103 H   0  0  0  0  0  0  0  0  0  0  0  0
   58.5816   28.2176   52.5473 H   0  0  0  0  0  0  0  0  0  0  0  0
   60.6951   29.2020   51.5100 H   0  0  0  0  0  0  0  0  0  0  0  0
   59.4403   28.6550   50.3382 H   0  0  0  0  0  0  0  0  0  0  0  0
  1  2  2  0
  2  3  1  0
  3  4  1  0
  4  5  1  0
  5  6  1  0
  6  7  2  0
  6  8  1  0
  8  9  2  0
  9 10  1  0
 10 11  2  0
 11 12  1  0
 12 13  1  0
 13 14  2  0
 13 15  2  0
 13 16  1  0
 16 17  1  0
 17 18  1  0
 18 19  1  0
 19 20  1  0
 12 21  2  0
  2 22  1  0
 22 23  1  0
 23 24  2  0
 24 25  1  0
 25 26  2  0
 26 27  1  0
 27 28  2  0
 28 29  1  0
 29 30  1  0
 30 31  1  0
 31 32  1  0
 32 33  1  0
 33 34  1  0
 21  8  1  0
 28 23  1  0
 34 29  1  0
 20 16  1  0
  3 35  1  0
  3 36  1  0
  4 37  1  0
  4 38  1  0
  9 39  1  0
 10 40  1  0
 11 41  1  0
 17 42  1  0
 17 43  1  0
 18 44  1  0
 18 45  1  0
 19 46  1  0
 19 47  1  0
 20 48  1  0
 20 49  1  0
 21 50  1  0
 24 51  1  0
 25 52  1  0
 26 53  1  0
 27 54  1  0
 30 55  1  0
 30 56  1  0
 31 57  1  0
 31 58  1  0
 33 59  1  0
 33 60  1  0
 34 61  1  0
 34 62  1  0
M  CHG  2   5  -1  22  -1
M  END
>  <UniqueID>  (21) 
20

>  <SMILES>  (21) 
O=C(CC[N-]C(=O)c1cccc(S(=O)(=O)N2CCCC2)c1)[N-]c1ccccc1N1CCOCC1

>  <Energy>  (21) 
76.01066643755159

>  <Genealogy>  (21) 
O=C(CC[N-]C(=O)c1cccc(S(=O)(=O)N2CCCC2)c1)[N-]c1ccccc1N1CCOCC1 (protonated)
O=C(CC[N-]C(=O)c1cccc(S(=O)(=O)N2CCCC2)c1)[N-]c1ccccc1N1CCOCC1 (3D coordinates assigned)
O=C(CC[N-]C(=O)c1cccc(S(=O)(=O)N2CCCC2)c1)[N-]c1ccccc1N1CCOCC1 (nonaromatic ring conformer: 76.01066643755159 kcal/mol)

>  <smiles>  (21) 
O=C(CCNC(=O)c1cccc(S(=O)(=O)N2CCCC2)c1)Nc1ccccc1N1CCOCC1

>  <score_type>  (21) 
oracle

>  <origin>  (21) 
adg

>  <m_score__min__energy>  (21) 
-13.630000000000001

>  <m_primary>  (21) 
energy

$$$$
21:0
     RDKit          3D

 45 49  0  0  0  0  0  0  0  0999 V2000
   58.5320   29.7910   44.4790 H   0  0  0  0  0  0  0  0  0  0  0  0
   59.1640   29.1320   44.9190 O   0  0  0  0  0  0  0  0  0  0  0  0
   58.7140   27.9060   45.4080 C   0  0  0  0  0  0  0  0  0  0  0  0
   59.6530   26.9500   45.8640 C   0  0  0  0  0  0  0  0  0  0  0  0
   60.7278   27.1797   45.8195 H   0  0  0  0  0  0  0  0  0  0  0  0
   59.2290   25.7130   46.3720 C   0  0  0  0  0  0  0  0  0  0  0  0
   59.9535   24.9643   46.7249 H   0  0  0  0  0  0  0  0  0  0  0  0
   57.8620   25.4660   46.4140 C   0  0  0  0  0  0  0  0  0  0  0  0
   57.1660   24.3690   46.8670 C   0  0  0  0  0  0  0  0  0  0  0  0
   57.7340   23.2190   47.4000 O   0  0  0  0  0  0  0  0  0  0  0  0
   55.8340   24.5530   46.7330 N   0  0  0  0  0  0  0  0  0  0  0  0
   55.7020   25.7820   46.1850 C   0  0  0  0  0  0  0  0  0  0  0  0
   54.4680   26.3420   45.8900 O   0  0  0  0  0  0  0  0  0  0  0  0
   56.9380   26.3760   45.9740 C   0  0  0  0  0  0  0  0  0  0  0  0
   57.3240   27.6230   45.4470 C   0  0  0  0  0  0  0  0  0  0  0  0
   56.3140   28.6550   45.0050 C   0  0  0  0  0  0  0  0  0  0  0  0
   56.2434   29.4447   45.7674 H   0  0  0  0  0  0  0  0  0  0  0  0
   55.3354   28.1692   44.8774 H   0  0  0  0  0  0  0  0  0  0  0  0
   56.7330   29.2600   43.7040 C   0  0  0  0  0  0  0  0  0  0  0  0
   57.0180   28.5080   42.7330 O   0  0  0  0  0  0  0  0  0  0  0  0
   56.8240   30.6870   43.5890 N   0  0  0  0  0  0  0  0  0  0  0  0
   57.3600   31.4930   44.4560 C   0  0  0  0  0  0  0  0  0  0  0  0
   57.4980   31.2130   45.7740 N   0  0  0  0  0  0  0  0  0  0  0  0
   58.0550   32.2550   46.4480 C   0  0  0  0  0  0  0  0  0  0  0  0
   58.2506   32.2260   47.5301 H   0  0  0  0  0  0  0  0  0  0  0  0
   58.3580   33.3620   45.6580 C   0  0  0  0  0  0  0  0  0  0  0  0
   58.9900   34.6320   46.1320 C   0  0  0  0  0  0  0  0  0  0  0  0
   59.2903   35.2347   45.2622 H   0  0  0  0  0  0  0  0  0  0  0  0
   58.2629   35.1879   46.7422 H   0  0  0  0  0  0  0  0  0  0  0  0
   60.1980   34.3310   46.9660 C   0  0  0  0  0  0  0  0  0  0  0  0
   60.3020   34.5530   48.3370 C   0  0  0  0  0  0  0  0  0  0  0  0
   59.5219   34.9257   49.0171 H   0  0  0  0  0  0  0  0  0  0  0  0
   61.5980   34.2030   48.6550 C   0  0  0  0  0  0  0  0  0  0  0  0
   62.2730   34.2250   49.8760 C   0  0  0  0  0  0  0  0  0  0  0  0
   61.7713   34.5580   50.7965 H   0  0  0  0  0  0  0  0  0  0  0  0
   63.6170   33.8070   49.8910 C   0  0  0  0  0  0  0  0  0  0  0  0
   64.1779   33.8043   50.8372 H   0  0  0  0  0  0  0  0  0  0  0  0
   64.2500   33.3910   48.6990 C   0  0  0  0  0  0  0  0  0  0  0  0
   65.3004   33.0654   48.7235 H   0  0  0  0  0  0  0  0  0  0  0  0
   63.5460   33.3900   47.4790 C   0  0  0  0  0  0  0  0  0  0  0  0
   64.0315   33.0754   46.5434 H   0  0  0  0  0  0  0  0  0  0  0  0
   62.2130   33.8010   47.4960 C   0  0  0  0  0  0  0  0  0  0  0  0
   61.3690   33.8810   46.4540 N   0  0  0  0  0  0  0  0  0  0  0  0
   61.5790   33.6600   45.4550 H   0  0  0  0  0  0  0  0  0  0  0  0
   57.9160   33.0300   44.0670 S   0  0  0  0  0  0  0  0  0  0  0  0
  1  2  1  0
  2  3  1  0
  3  4  1  0
  4  5  1  0
  4  6  2  0
  6  7  1  0
  6  8  1  0
  8  9  2  0
  9 10  1  0
  9 11  1  0
 11 12  1  0
 12 13  1  0
 12 14  2  0
 14 15  1  0
 15 16  1  0
 16 17  1  0
 16 18  1  0
 16 19  1  0
 19 20  2  0
 19 21  1  0
 21 22  2  0
 22 23  1  0
 23 24  1  0
 24 25  1  0
 24 26  2  0
 26 27  1  0
 27 28  1  0
 27 29  1  0
 27 30  1  0
 30 31  2  0
 31 32  1  0
 31 33  1  0
 33 34  2  0
 34 35  1  0
 34 36  1  0
 36 37  1  0
 36 38  2  0
 38 39  1  0
 38 40  1  0
 40 41  1  0
 40 42  2  0
 42 43  1  0
 43 44  1  0
 26 45  1  0
 15  3  2  0
 45 22  1  0
 14  8  1  0
 43 30  1  0
 42 33  1  0
M  CHG  4  10  -1  11  -1  13  -1  23  -1
M  END
>  <UniqueID>  (22) 
21

>  <SMILES>  (22) 
O=C(Cc1c(O)ccc2c([O-])[n-]c([O-])c12)/N=c1\[n-]cc(Cc2cc3ccccc3[nH]2)s1

>  <Energy>  (22) 
148.4979596877034

>  <Genealogy>  (22) 
O=C(Cc1c(O)ccc2c([O-])[n-]c([O-])c12)N=c1[n-]cc(Cc2cc3ccccc3[nH]2)s1 (protonated)
O=C(Cc1c(O)ccc2c([O-])[n-]c([O-])c12)/N=c1\[n-]cc(Cc2cc3ccccc3[nH]2)s1 (cis-trans isomerization)
O=C(Cc1c(O)ccc2c([O-])[n-]c([O-])c12)/N=c1\[n-]cc(Cc2cc3ccccc3[nH]2)s1 (3D coordinates assigned)
O=C(Cc1c(O)ccc2c([O-])[n-]c([O-])c12)/N=c1\[n-]cc(Cc2cc3ccccc3[nH]2)s1 (optimized conformer: 148.4979596877034 kcal/mol)

>  <smiles>  (22) 
O=C(Cc1c(O)ccc2c(O)[nH]c(O)c12)N=c1[nH]cc(Cc2cc3ccccc3[nH]2)s1

>  <score_type>  (22) 
oracle

>  <origin>  (22) 
adg

>  <m_score__min__energy>  (22) 
-18.129999999999999

>  <m_primary>  (22) 
energy

$$$$
22:0
     RDKit          3D

 62 66  0  0  0  0  0  0  0  0999 V2000
   59.1330   26.3290   48.1730 H   0  0  0  0  0  0  0  0  0  0  0  0
   58.6740   25.7750   47.4630 O   0  0  0  0  0  0  0  0  0  0  0  0
   57.5320   26.2180   46.8040 C   0  0  0  0  0  0  0  0  0  0  0  0
   56.3680   25.5470   46.8210 N   0  0  0  0  0  0  0  0  0  0  0  0
   55.5600   26.3270   46.0770 C   0  0  0  0  0  0  0  0  0  0  0  0
   54.3580   26.0370   45.8450 O   0  0  0  0  0  0  0  0  0  0  0  0
   56.1440   27.4410   45.5920 N   0  0  0  0  0  0  0  0  0  0  0  0
   57.4010   27.3780   46.0670 C   0  0  0  0  0  0  0  0  0  0  0  0
   58.4810   28.3380   45.7500 C   0  0  0  0  0  0  0  0  0  0  0  0
   59.4585   27.9250   45.4603 H   0  0  0  0  0  0  0  0  0  0  0  0
   58.3590   29.6830   45.7890 C   0  0  0  0  0  0  0  0  0  0  0  0
   58.8640   30.5410   46.7570 C   0  0  0  0  0  0  0  0  0  0  0  0
   59.4387   30.2561   47.6506 H   0  0  0  0  0  0  0  0  0  0  0  0
   58.5060   31.8200   46.3820 C   0  0  0  0  0  0  0  0  0  0  0  0
   58.8470   33.0300   47.1570 C   0  0  0  0  0  0  0  0  0  0  0  0
   57.9270   33.8560   47.4170 O   0  0  0  0  0  0  0  0  0  0  0  0
   60.1880   33.2810   47.6220 N   0  0  0  0  0  0  0  0  0  0  0  0
   60.3680   34.1720   48.7780 C   0  0  0  0  0  0  0  0  0  0  0  0
   60.0644   35.1897   48.4916 H   0  0  0  0  0  0  0  0  0  0  0  0
   59.7488   33.7865   49.6014 H   0  0  0  0  0  0  0  0  0  0  0  0
   61.8230   34.2080   49.2600 C   0  0  0  0  0  0  0  0  0  0  0  0
   62.3932   34.9226   48.6482 H   0  0  0  0  0  0  0  0  0  0  0  0
   61.8496   34.5204   50.3144 H   0  0  0  0  0  0  0  0  0  0  0  0
   62.4470   32.8120   49.1280 C   0  0  0  0  0  0  0  0  0  0  0  0
   61.8034   32.0658   49.6169 H   0  0  0  0  0  0  0  0  0  0  0  0
   63.7890   32.7690   49.8370 C   0  0  0  0  0  0  0  0  0  0  0  0
   64.4660   33.8310   49.9140 O   0  0  0  0  0  0  0  0  0  0  0  0
   64.2850   31.5720   50.4880 N   0  0  0  0  0  0  0  0  0  0  0  0
   65.7500   31.4190   50.6120 C   0  0  0  0  0  0  0  0  0  0  0  0
   66.1399   32.2759   51.1809 H   0  0  0  0  0  0  0  0  0  0  0  0
   66.1516   31.3702   49.5891 H   0  0  0  0  0  0  0  0  0  0  0  0
   66.1810   30.1490   51.3110 C   0  0  0  0  0  0  0  0  0  0  0  0
   67.5280   29.7490   51.2470 C   0  0  0  0  0  0  0  0  0  0  0  0
   68.2433   30.3285   50.6449 H   0  0  0  0  0  0  0  0  0  0  0  0
   67.9620   28.6170   51.9460 C   0  0  0  0  0  0  0  0  0  0  0  0
   69.0140   28.3020   51.8825 H   0  0  0  0  0  0  0  0  0  0  0  0
   67.0600   27.8860   52.7250 C   0  0  0  0  0  0  0  0  0  0  0  0
   67.4042   26.9983   53.2760 H   0  0  0  0  0  0  0  0  0  0  0  0
   65.7190   28.2820   52.8050 C   0  0  0  0  0  0  0  0  0  0  0  0
   65.0143   27.7125   53.4288 H   0  0  0  0  0  0  0  0  0  0  0  0
   65.2730   29.4050   52.0900 C   0  0  0  0  0  0  0  0  0  0  0  0
   63.8470   29.8510   52.2060 C   0  0  0  0  0  0  0  0  0  0  0  0
   63.7632   30.5946   53.0122 H   0  0  0  0  0  0  0  0  0  0  0  0
   63.2154   28.9793   52.4323 H   0  0  0  0  0  0  0  0  0  0  0  0
   63.3820   30.4760   50.8930 C   0  0  0  0  0  0  0  0  0  0  0  0
   62.3653   30.8753   51.0232 H   0  0  0  0  0  0  0  0  0  0  0  0
   63.3911   29.7029   50.1106 H   0  0  0  0  0  0  0  0  0  0  0  0
   62.5490   32.4230   47.6340 C   0  0  0  0  0  0  0  0  0  0  0  0
   63.4688   32.8625   47.2207 H   0  0  0  0  0  0  0  0  0  0  0  0
   62.5558   31.3242   47.5829 H   0  0  0  0  0  0  0  0  0  0  0  0
   61.3480   32.9140   46.7910 C   0  0  0  0  0  0  0  0  0  0  0  0
   61.6603   33.7957   46.2121 H   0  0  0  0  0  0  0  0  0  0  0  0
   61.0404   32.0871   46.1341 H   0  0  0  0  0  0  0  0  0  0  0  0
   57.8390   31.8000   45.2050 N   0  0  0  0  0  0  0  0  0  0  0  0
   57.3840   32.9650   44.4370 C   0  0  0  0  0  0  0  0  0  0  0  0
   57.0729   33.7615   45.1289 H   0  0  0  0  0  0  0  0  0  0  0  0
   58.2056   33.3300   43.8032 H   0  0  0  0  0  0  0  0  0  0  0  0
   56.5324   32.6766   43.8032 H   0  0  0  0  0  0  0  0  0  0  0  0
   57.7250   30.4980   44.8410 C   0  0  0  0  0  0  0  0  0  0  0  0
   57.0820   30.0850   43.7360 C   0  0  0  0  0  0  0  0  0  0  0  0
   56.6198   30.8206   43.0613 H   0  0  0  0  0  0  0  0  0  0  0  0
   57.0177   29.0112   43.5060 H   0  0  0  0  0  0  0  0  0  0  0  0
  1  2  1  0
  2  3  1  0
  3  4  1  0
  4  5  1  0
  5  6  2  0
  5  7  1  0
  7  8  1  0
  8  9  1  0
  9 10  1  0
  9 11  2  0
 11 12  1  0
 12 13  1  0
 12 14  2  0
 14 15  1  0
 15 16  2  0
 15 17  1  0
 17 18  1  0
 18 19  1  0
 18 20  1  0
 18 21  1  0
 21 22  1  0
 21 23  1  0
 21 24  1  0
 24 25  1  0
 24 26  1  0
 26 27  2  0
 26 28  1  0
 28 29  1  0
 29 30  1  0
 29 31  1  0
 29 32  1  0
 32 33  2  0
 33 34  1  0
 33 35  1  0
 35 36  1  0
 35 37  2  0
 37 38  1  0
 37 39  1  0
 39 40  1  0
 39 41  2  0
 41 42  1  0
 42 43  1  0
 42 44  1  0
 42 45  1  0
 45 46  1  0
 45 47  1  0
 24 48  1  0
 48 49  1  0
 48 50  1  0
 48 51  1  0
 51 52  1  0
 51 53  1  0
 14 54  1  0
 54 55  1  0
 55 56  1  0
 55 57  1  0
 55 58  1  0
 54 59  1  0
 59 60  2  0
 60 61  1  0
 60 62  1  0
  8  3  2  0
 59 11  1  0
 51 17  1  0
 45 28  1  0
 41 32  1  0
M  CHG  2   4  -1   7  -1
M  END
>  <UniqueID>  (23) 
22

>  <SMILES>  (23) 
C=c1/c(=C/c2[n-]c(=O)[n-]c2O)cc(C(=O)N2CCC(C(=O)N3CCc4ccccc4C3)CC2)n1C

>  <Energy>  (23) 
140.68070865815073

>  <Genealogy>  (23) 
C=c1c(=Cc2[n-]c(=O)[n-]c2O)cc(C(=O)N2CCC(C(=O)N3CCc4ccccc4C3)CC2)n1C (protonated)
C=c1/c(=C/c2[n-]c(=O)[n-]c2O)cc(C(=O)N2CCC(C(=O)N3CCc4ccccc4C3)CC2)n1C (cis-trans isomerization)
C=c1/c(=C/c2[n-]c(=O)[n-]c2O)cc(C(=O)N2CCC(C(=O)N3CCc4ccccc4C3)CC2)n1C (3D coordinates assigned)
C=c1/c(=C/c2[n-]c(=O)[n-]c2O)cc(C(=O)N2CCC(C(=O)N3CCc4ccccc4C3)CC2)n1C (nonaromatic ring conformer: 140.68070865815073 kcal/mol)

>  <smiles>  (23) 
C=c1c(=Cc2[nH]c(=O)[nH]c2O)cc(C(=O)N2CCC(C(=O)N3CCc4ccccc4C3)CC2)n1C

>  <score_type>  (23) 
oracle

>  <origin>  (23) 
adg

>  <m_score__min__energy>  (23) 
-14.74

>  <m_primary>  (23) 
energy

$$$$
23:0
     RDKit          3D

 34 36  0  0  0  0  0  0  0  0999 V2000
   57.9110   27.8350   47.8610 O   0  0  0  0  0  0  0  0  0  0  0  0
   57.4650   27.7780   46.6820 C   0  0  0  0  0  0  0  0  0  0  0  0
   57.2180   28.9940   45.9640 N   0  0  0  0  0  0  0  0  0  0  0  0
   58.1050   29.5240   44.9360 C   0  0  0  0  0  0  0  0  0  0  0  0
   58.2070   31.0250   45.0550 C   0  0  0  0  0  0  0  0  0  0  0  0
   57.6860   31.8390   44.0350 C   0  0  0  0  0  0  0  0  0  0  0  0
   57.7870   33.2310   44.1180 C   0  0  0  0  0  0  0  0  0  0  0  0
   58.4100   33.8230   45.2160 C   0  0  0  0  0  0  0  0  0  0  0  0
   58.9370   33.0260   46.2360 C   0  0  0  0  0  0  0  0  0  0  0  0
   58.8420   31.6310   46.1620 C   0  0  0  0  0  0  0  0  0  0  0  0
   59.5310   30.6740   47.4710 Cl  0  0  0  0  0  0  0  0  0  0  0  0
   57.1960   26.4650   46.0380 C   0  0  0  0  0  0  0  0  0  0  0  0
   58.2690   25.6860   45.5710 C   0  0  0  0  0  0  0  0  0  0  0  0
   58.0450   24.4500   44.9590 C   0  0  0  0  0  0  0  0  0  0  0  0
   56.7400   23.9570   44.7950 C   0  0  0  0  0  0  0  0  0  0  0  0
   56.5020   22.6420   44.1440 C   0  0  0  0  0  0  0  0  0  0  0  0
   56.4970   22.3550   42.7910 C   0  0  0  0  0  0  0  0  0  0  0  0
   56.2400   21.0450   42.6180 N   0  0  0  0  0  0  0  0  0  0  0  0
   56.0840   20.4830   43.8070 N   0  0  0  0  0  0  0  0  0  0  0  0
   56.2370   21.4290   44.7520 C   0  0  0  0  0  0  0  0  0  0  0  0
   55.6640   24.7320   45.2600 C   0  0  0  0  0  0  0  0  0  0  0  0
   55.8820   25.9710   45.8740 C   0  0  0  0  0  0  0  0  0  0  0  0
   54.7800   26.6960   46.3150 O   0  0  0  0  0  0  0  0  0  0  0  0
   59.1049   29.0817   45.0563 H   0  0  0  0  0  0  0  0  0  0  0  0
   57.6973   29.2705   43.9463 H   0  0  0  0  0  0  0  0  0  0  0  0
   57.1953   31.3779   43.1652 H   0  0  0  0  0  0  0  0  0  0  0  0
   57.3743   33.8602   43.3157 H   0  0  0  0  0  0  0  0  0  0  0  0
   58.4868   34.9185   45.2795 H   0  0  0  0  0  0  0  0  0  0  0  0
   59.4284   33.4965   47.1004 H   0  0  0  0  0  0  0  0  0  0  0  0
   59.2987   26.0544   45.6890 H   0  0  0  0  0  0  0  0  0  0  0  0
   58.8997   23.8568   44.6019 H   0  0  0  0  0  0  0  0  0  0  0  0
   56.6748   23.0817   41.9846 H   0  0  0  0  0  0  0  0  0  0  0  0
   56.1629   21.2632   45.8369 H   0  0  0  0  0  0  0  0  0  0  0  0
   54.6359   24.3598   45.1398 H   0  0  0  0  0  0  0  0  0  0  0  0
  1  2  2  0
  2  3  1  0
  3  4  1  0
  4  5  1  0
  5  6  2  0
  6  7  1  0
  7  8  2  0
  8  9  1  0
  9 10  2  0
 10 11  1  0
  2 12  1  0
 12 13  2  0
 13 14  1  0
 14 15  2  0
 15 16  1  0
 16 17  1  0
 17 18  2  0
 18 19  1  0
 19 20  1  0
 15 21  1  0
 21 22  2  0
 22 23  1  0
 10  5  1  0
 22 12  1  0
 20 16  2  0
  4 24  1  0
  4 25  1  0
  6 26  1  0
  7 27  1  0
  8 28  1  0
  9 29  1  0
 13 30  1  0
 14 31  1  0
 17 32  1  0
 20 33  1  0
 21 34  1  0
M  CHG  3   3  -1  19  -1  23  -1
M  END
>  <UniqueID>  (24) 
23

>  <SMILES>  (24) 
O=C([N-]Cc1ccccc1Cl)c1ccc(-c2cn[n-]c2)cc1[O-]

>  <Energy>  (24) 
69.84946503853327

>  <Genealogy>  (24) 
O=C([N-]Cc1ccccc1Cl)c1ccc(-c2cn[n-]c2)cc1[O-] (protonated)
O=C([N-]Cc1ccccc1Cl)c1ccc(-c2cn[n-]c2)cc1[O-] (3D coordinates assigned)
O=C([N-]Cc1ccccc1Cl)c1ccc(-c2cn[n-]c2)cc1[O-] (optimized conformer: 69.84946503853327 kcal/mol)

>  <smiles>  (24) 
O=C(NCc1ccccc1Cl)c1ccc(-c2cn[nH]c2)cc1O

>  <score_type>  (24) 
oracle

>  <origin>  (24) 
adg

>  <m_score__min__energy>  (24) 
-14.67

>  <m_primary>  (24) 
energy

$$$$
24:0
     RDKit          3D

 27 28  0  0  0  0  0  0  0  0999 V2000
   59.7060   29.4480   50.8790 C   0  0  0  0  0  0  0  0  0  0  0  0
   59.7420   28.9560   49.4620 C   0  0  0  0  0  0  0  0  0  0  0  0
   60.5770   27.8880   49.1070 C   0  0  0  0  0  0  0  0  0  0  0  0
   60.5760   27.4010   47.7970 C   0  0  0  0  0  0  0  0  0  0  0  0
   59.7400   27.9730   46.8360 C   0  0  0  0  0  0  0  0  0  0  0  0
   58.9010   29.0470   47.1750 C   0  0  0  0  0  0  0  0  0  0  0  0
   57.9910   29.6460   46.1790 C   0  0  0  0  0  0  0  0  0  0  0  0
   57.8140   30.9790   46.0610 N   0  0  0  0  0  0  0  0  0  0  0  0
   56.9730   31.1770   45.0580 N   0  0  0  0  0  0  0  0  0  0  0  0
   56.6550   29.9640   44.5720 C   0  0  0  0  0  0  0  0  0  0  0  0
   55.6660   29.7490   43.2840 S   0  0  0  0  0  0  0  0  0  0  0  0
   57.2790   28.9730   45.2450 N   0  0  0  0  0  0  0  0  0  0  0  0
   57.2650   27.5350   44.9500 C   0  0  0  0  0  0  0  0  0  0  0  0
   56.5770   26.7670   46.0370 C   0  0  0  0  0  0  0  0  0  0  0  0
   55.1570   26.6330   46.0190 N   0  0  0  0  0  0  0  0  0  0  0  0
   57.2390   26.2810   46.9920 O   0  0  0  0  0  0  0  0  0  0  0  0
   58.8900   29.5170   48.4990 C   0  0  0  0  0  0  0  0  0  0  0  0
   59.7687   28.5914   51.5663 H   0  0  0  0  0  0  0  0  0  0  0  0
   60.5572   30.1222   51.0548 H   0  0  0  0  0  0  0  0  0  0  0  0
   58.7657   29.9911   51.0548 H   0  0  0  0  0  0  0  0  0  0  0  0
   61.2349   27.4318   49.8613 H   0  0  0  0  0  0  0  0  0  0  0  0
   61.2357   26.5647   47.5223 H   0  0  0  0  0  0  0  0  0  0  0  0
   59.7385   27.5805   45.8084 H   0  0  0  0  0  0  0  0  0  0  0  0
   56.7340   27.3683   44.0012 H   0  0  0  0  0  0  0  0  0  0  0  0
   58.3048   27.1833   44.8787 H   0  0  0  0  0  0  0  0  0  0  0  0
   54.5660   27.0980   46.7440 H   0  0  0  0  0  0  0  0  0  0  0  0
   58.2076   30.3317   48.7829 H   0  0  0  0  0  0  0  0  0  0  0  0
  1  2  1  0
  2  3  2  0
  3  4  1  0
  4  5  2  0
  5  6  1  0
  6  7  1  0
  7  8  2  0
  8  9  1  0
  9 10  1  0
 10 11  2  0
 10 12  1  0
 12 13  1  0
 13 14  1  0
 14 15  1  0
 14 16  2  0
  6 17  2  0
 17  2  1  0
 12  7  1  0
  1 18  1  0
  1 19  1  0
  1 20  1  0
  3 21  1  0
  4 22  1  0
  5 23  1  0
 13 24  1  0
 13 25  1  0
 15 26  1  0
 17 27  1  0
M  CHG  2   9  -1  15  -1
M  END
>  <UniqueID>  (25) 
24

>  <SMILES>  (25) 
Cc1cccc(-c2n[n-]c(=S)n2CC([NH-])=O)c1

>  <Energy>  (25) 
65.8262576827323

>  <Genealogy>  (25) 
Cc1cccc(-c2n[n-]c(=S)n2CC([NH-])=O)c1 (protonated)
Cc1cccc(-c2n[n-]c(=S)n2CC([NH-])=O)c1 (3D coordinates assigned)
Cc1cccc(-c2n[n-]c(=S)n2CC([NH-])=O)c1 (optimized conformer: 65.8262576827323 kcal/mol)

>  <smiles>  (25) 
Cc1cccc(-c2n[nH]c(=S)n2CC(N)=O)c1

>  <score_type>  (25) 
oracle

>  <origin>  (25) 
adg

>  <m_score__min__energy>  (25) 
-10.82

>  <m_primary>  (25) 
energy

$$$$
25:0
     RDKit          3D

 60 63  0  0  0  0  0  0  0  0999 V2000
   59.1971   32.1586   48.1433 H   0  0  0  0  0  0  0  0  0  0  0  0
   58.7520   32.4380   47.1770 C   0  0  0  0  0  0  0  0  0  0  0  0
   57.8320   31.6650   46.5430 N   0  0  0  0  0  0  0  0  0  0  0  0
   57.4480   32.2170   45.3680 C   0  0  0  0  0  0  0  0  0  0  0  0
   56.5830   31.6810   44.5670 N   0  0  0  0  0  0  0  0  0  0  0  0
   56.5320   29.9820   44.2290 S   0  0  0  0  0  0  0  0  0  0  0  0
   56.5190   29.7580   42.7430 O   0  0  0  0  0  0  0  0  0  0  0  0
   55.2920   29.3790   44.8290 O   0  0  0  0  0  0  0  0  0  0  0  0
   57.9560   29.2170   44.9260 C   0  0  0  0  0  0  0  0  0  0  0  0
   59.2380   29.5940   44.5030 C   0  0  0  0  0  0  0  0  0  0  0  0
   59.3556   30.3815   43.7441 H   0  0  0  0  0  0  0  0  0  0  0  0
   60.3660   28.9730   45.0420 C   0  0  0  0  0  0  0  0  0  0  0  0
   61.3701   29.2727   44.7075 H   0  0  0  0  0  0  0  0  0  0  0  0
   60.2220   27.9710   46.0060 C   0  0  0  0  0  0  0  0  0  0  0  0
   61.1133   27.4789   46.4225 H   0  0  0  0  0  0  0  0  0  0  0  0
   58.9450   27.5910   46.4440 C   0  0  0  0  0  0  0  0  0  0  0  0
   58.7880   26.4850   47.4450 C   0  0  0  0  0  0  0  0  0  0  0  0
   58.8469   26.8999   48.4621 H   0  0  0  0  0  0  0  0  0  0  0  0
   57.8118   25.9983   47.3035 H   0  0  0  0  0  0  0  0  0  0  0  0
   59.5902   25.7458   47.3035 H   0  0  0  0  0  0  0  0  0  0  0  0
   57.8120   28.2060   45.8860 C   0  0  0  0  0  0  0  0  0  0  0  0
   56.8067   27.8926   46.2041 H   0  0  0  0  0  0  0  0  0  0  0  0
   58.2250   33.6740   45.0600 S   0  0  0  0  0  0  0  0  0  0  0  0
   59.0870   33.6120   46.5070 C   0  0  0  0  0  0  0  0  0  0  0  0
   60.1210   34.6020   46.9390 C   0  0  0  0  0  0  0  0  0  0  0  0
   59.7567   35.1471   47.8223 H   0  0  0  0  0  0  0  0  0  0  0  0
   60.3107   35.3077   46.1168 H   0  0  0  0  0  0  0  0  0  0  0  0
   61.4010   33.8920   47.2850 C   0  0  0  0  0  0  0  0  0  0  0  0
   62.4620   33.8610   46.3690 C   0  0  0  0  0  0  0  0  0  0  0  0
   62.3698   34.3827   45.4050 H   0  0  0  0  0  0  0  0  0  0  0  0
   63.6350   33.1700   46.6770 C   0  0  0  0  0  0  0  0  0  0  0  0
   64.4656   33.1528   45.9560 H   0  0  0  0  0  0  0  0  0  0  0  0
   63.7590   32.5000   47.8970 C   0  0  0  0  0  0  0  0  0  0  0  0
   64.6869   31.9574   48.1306 H   0  0  0  0  0  0  0  0  0  0  0  0
   62.7040   32.5150   48.8290 C   0  0  0  0  0  0  0  0  0  0  0  0
   62.8010   31.7930   50.1260 C   0  0  0  0  0  0  0  0  0  0  0  0
   62.0870   30.7640   50.3010 O   0  0  0  0  0  0  0  0  0  0  0  0
   63.7040   32.2200   51.1790 N   0  0  0  0  0  0  0  0  0  0  0  0
   63.2920   31.9460   52.1020 H   0  0  0  0  0  0  0  0  0  0  0  0
   63.8190   33.7010   51.1610 C   0  0  0  0  0  0  0  0  0  0  0  0
   62.9583   34.1294   51.6955 H   0  0  0  0  0  0  0  0  0  0  0  0
   63.8399   34.0247   50.1099 H   0  0  0  0  0  0  0  0  0  0  0  0
   65.1080   34.1910   51.8290 C   0  0  0  0  0  0  0  0  0  0  0  0
   65.1096   33.8858   52.8858 H   0  0  0  0  0  0  0  0  0  0  0  0
   65.1578   35.2876   51.7578 H   0  0  0  0  0  0  0  0  0  0  0  0
   66.2750   33.6100   51.1530 N   0  0  0  0  0  0  0  0  0  0  0  0
   67.5390   34.3070   51.1790 C   0  0  0  0  0  0  0  0  0  0  0  0
   67.7130   35.2620   51.9840 O   0  0  0  0  0  0  0  0  0  0  0  0
   68.6720   33.9080   50.2840 C   0  0  0  0  0  0  0  0  0  0  0  0
   69.5338   33.6045   50.8966 H   0  0  0  0  0  0  0  0  0  0  0  0
   68.3588   33.0661   49.6491 H   0  0  0  0  0  0  0  0  0  0  0  0
   68.9554   34.7604   49.6491 H   0  0  0  0  0  0  0  0  0  0  0  0
   66.1200   32.3360   50.4390 C   0  0  0  0  0  0  0  0  0  0  0  0
   67.0664   31.7771   50.4824 H   0  0  0  0  0  0  0  0  0  0  0  0
   65.8538   32.5404   49.3914 H   0  0  0  0  0  0  0  0  0  0  0  0
   65.0060   31.5000   51.0870 C   0  0  0  0  0  0  0  0  0  0  0  0
   65.3239   31.2228   52.1029 H   0  0  0  0  0  0  0  0  0  0  0  0
   64.8462   30.6196   50.4471 H   0  0  0  0  0  0  0  0  0  0  0  0
   61.5220   33.2070   48.5050 C   0  0  0  0  0  0  0  0  0  0  0  0
   60.6827   33.2113   49.2161 H   0  0  0  0  0  0  0  0  0  0  0  0
  1  2  1  0
  2  3  1  0
  3  4  1  0
  4  5  2  0
  5  6  1  0
  6  7  2  0
  6  8  2  0
  6  9  1  0
  9 10  2  0
 10 11  1  0
 10 12  1  0
 12 13  1  0
 12 14  2  0
 14 15  1  0
 14 16  1  0
 16 17  1  0
 17 18  1  0
 17 19  1  0
 17 20  1  0
 16 21  2  0
 21 22  1  0
  4 23  1  0
 23 24  1  0
 24 25  1  0
 25 26  1  0
 25 27  1  0
 25 28  1  0
 28 29  2  0
 29 30  1  0
 29 31  1  0
 31 32  1  0
 31 33  2  0
 33 34  1  0
 33 35  1  0
 35 36  1  0
 36 37  2  0
 36 38  1  0
 38 39  1  0
 38 40  1  0
 40 41  1  0
 40 42  1  0
 40 43  1  0
 43 44  1  0
 43 45  1  0
 43 46  1  0
 46 47  1  0
 47 48  2  0
 47 49  1  0
 49 50  1  0
 49 51  1  0
 49 52  1  0
 46 53  1  0
 53 54  1  0
 53 55  1  0
 53 56  1  0
 56 57  1  0
 56 58  1  0
 35 59  2  0
 59 60  1  0
 24  2  2  0
 59 28  1  0
 21  9  1  0
 56 38  1  0
M  CHG  2   3  -1  38   1
M  END
>  <UniqueID>  (26) 
25

>  <SMILES>  (26) 
CC(=O)N1CC[NH+](C(=O)c2cccc(Cc3c[n-]/c(=N\S(=O)(=O)c4cccc(C)c4)s3)c2)CC1

>  <Energy>  (26) 
104.78580414351856

>  <Genealogy>  (26) 
CC(=O)N1CC[NH+](C(=O)c2cccc(Cc3c[n-]c(=NS(=O)(=O)c4cccc(C)c4)s3)c2)CC1 (protonated)
CC(=O)N1CC[NH+](C(=O)c2cccc(Cc3c[n-]/c(=N\S(=O)(=O)c4cccc(C)c4)s3)c2)CC1 (cis-trans isomerization)
CC(=O)N1CC[NH+](C(=O)c2cccc(Cc3c[n-]/c(=N\S(=O)(=O)c4cccc(C)c4)s3)c2)CC1 (3D coordinates assigned)
CC(=O)N1CC[NH+](C(=O)c2cccc(Cc3c[n-]/c(=N\S(=O)(=O)c4cccc(C)c4)s3)c2)CC1 (nonaromatic ring conformer: 104.78580414351856 kcal/mol)

>  <smiles>  (26) 
CC(=O)N1CCN(C(=O)c2cccc(Cc3c[nH]c(=NS(=O)(=O)c4cccc(C)c4)s3)c2)CC1

>  <score_type>  (26) 
oracle

>  <origin>  (26) 
adg

>  <m_score__min__energy>  (26) 
-11.779999999999999

>  <m_primary>  (26) 
energy

$$$$
26:0
     RDKit          3D

 56 59  0  0  0  0  0  0  0  0999 V2000
   61.8600   32.0610   52.1700 C   0  0  0  0  0  0  0  0  0  0  0  0
   61.4890   32.1310   50.7490 N   0  0  0  0  0  0  0  0  0  0  0  0
   60.9090   33.4470   50.4310 C   0  0  0  0  0  0  0  0  0  0  0  0
   60.2650   33.3800   49.0440 C   0  0  0  0  0  0  0  0  0  0  0  0
   61.1210   32.6380   48.1060 N   0  0  0  0  0  0  0  0  0  0  0  0
   60.5790   32.1440   46.8650 C   0  0  0  0  0  0  0  0  0  0  0  0
   61.0160   31.0680   46.3740 O   0  0  0  0  0  0  0  0  0  0  0  0
   59.4870   32.8550   46.1660 C   0  0  0  0  0  0  0  0  0  0  0  0
   59.6810   34.1900   45.7750 C   0  0  0  0  0  0  0  0  0  0  0  0
   58.6700   34.8850   45.1080 C   0  0  0  0  0  0  0  0  0  0  0  0
   57.4520   34.2590   44.8390 C   0  0  0  0  0  0  0  0  0  0  0  0
   57.2390   32.9380   45.2380 C   0  0  0  0  0  0  0  0  0  0  0  0
   58.2540   32.2220   45.9000 C   0  0  0  0  0  0  0  0  0  0  0  0
   58.0130   30.8960   46.3980 N   0  0  0  0  0  0  0  0  0  0  0  0
   57.4090   29.8290   45.6580 C   0  0  0  0  0  0  0  0  0  0  0  0
   56.4550   30.0710   44.8690 O   0  0  0  0  0  0  0  0  0  0  0  0
   57.9480   28.4560   45.7710 C   0  0  0  0  0  0  0  0  0  0  0  0
   57.4150   27.4430   44.9520 C   0  0  0  0  0  0  0  0  0  0  0  0
   57.8400   26.1200   45.0920 C   0  0  0  0  0  0  0  0  0  0  0  0
   58.8000   25.7890   46.0470 C   0  0  0  0  0  0  0  0  0  0  0  0
   59.3580   26.7850   46.8510 C   0  0  0  0  0  0  0  0  0  0  0  0
   58.9640   28.1220   46.7050 C   0  0  0  0  0  0  0  0  0  0  0  0
   59.6170   29.1200   47.5070 N   0  0  0  0  0  0  0  0  0  0  0  0
   59.7700   29.0270   48.9360 C   0  0  0  0  0  0  0  0  0  0  0  0
   58.9530   29.8070   49.7690 C   0  0  0  0  0  0  0  0  0  0  0  0
   59.0960   29.7480   51.1580 C   0  0  0  0  0  0  0  0  0  0  0  0
   60.0500   28.9010   51.7290 C   0  0  0  0  0  0  0  0  0  0  0  0
   60.8570   28.1070   50.9110 C   0  0  0  0  0  0  0  0  0  0  0  0
   60.7180   28.1640   49.5200 C   0  0  0  0  0  0  0  0  0  0  0  0
   62.5270   32.3880   48.4560 C   0  0  0  0  0  0  0  0  0  0  0  0
   62.6580   31.8260   49.8900 C   0  0  0  0  0  0  0  0  0  0  0  0
   60.9676   32.2294   52.7907 H   0  0  0  0  0  0  0  0  0  0  0  0
   62.2785   31.0681   52.3912 H   0  0  0  0  0  0  0  0  0  0  0  0
   62.6115   32.8332   52.3912 H   0  0  0  0  0  0  0  0  0  0  0  0
   60.1466   33.7059   51.1805 H   0  0  0  0  0  0  0  0  0  0  0  0
   61.6966   34.2148   50.4407 H   0  0  0  0  0  0  0  0  0  0  0  0
   59.2919   32.8732   49.1223 H   0  0  0  0  0  0  0  0  0  0  0  0
   60.1337   34.4048   48.6664 H   0  0  0  0  0  0  0  0  0  0  0  0
   60.6351   34.6911   45.9955 H   0  0  0  0  0  0  0  0  0  0  0  0
   58.8337   35.9266   44.7944 H   0  0  0  0  0  0  0  0  0  0  0  0
   56.6579   34.8076   44.3114 H   0  0  0  0  0  0  0  0  0  0  0  0
   56.2725   32.4541   45.0338 H   0  0  0  0  0  0  0  0  0  0  0  0
   56.6575   27.6954   44.1954 H   0  0  0  0  0  0  0  0  0  0  0  0
   57.4158   25.3367   44.4466 H   0  0  0  0  0  0  0  0  0  0  0  0
   59.1181   24.7429   46.1673 H   0  0  0  0  0  0  0  0  0  0  0  0
   60.1130   26.5180   47.6051 H   0  0  0  0  0  0  0  0  0  0  0  0
   59.9090   30.0060   47.0350 H   0  0  0  0  0  0  0  0  0  0  0  0
   58.1949   30.4693   49.3256 H   0  0  0  0  0  0  0  0  0  0  0  0
   58.4568   30.3691   51.8028 H   0  0  0  0  0  0  0  0  0  0  0  0
   60.1652   28.8597   52.8222 H   0  0  0  0  0  0  0  0  0  0  0  0
   61.6031   27.4357   51.3612 H   0  0  0  0  0  0  0  0  0  0  0  0
   61.3515   27.5324   48.8798 H   0  0  0  0  0  0  0  0  0  0  0  0
   62.9490   31.6611   47.7464 H   0  0  0  0  0  0  0  0  0  0  0  0
   63.0719   33.3423   48.4062 H   0  0  0  0  0  0  0  0  0  0  0  0
   62.7699   30.7335   49.8278 H   0  0  0  0  0  0  0  0  0  0  0  0
   63.5340   32.3072   50.3495 H   0  0  0  0  0  0  0  0  0  0  0  0
  1  2  1  0
  2  3  1  0
  3  4  1  0
  4  5  1  0
  5  6  1  0
  6  7  2  0
  6  8  1  0
  8  9  2  0
  9 10  1  0
 10 11  2  0
 11 12  1  0
 12 13  2  0
 13 14  1  0
 14 15  1  0
 15 16  2  0
 15 17  1  0
 17 18  2  0
 18 19  1  0
 19 20  2  0
 20 21  1  0
 21 22  2  0
 22 23  1  0
 23 24  1  0
 24 25  2  0
 25 26  1  0
 26 27  2  0
 27 28  1  0
 28 29  2  0
  5 30  1  0
 30 31  1  0
 31  2  1  0
 13  8  1  0
 22 17  1  0
 29 24  1  0
  1 32  1  0
  1 33  1  0
  1 34  1  0
  3 35  1  0
  3 36  1  0
  4 37  1  0
  4 38  1  0
  9 39  1  0
 10 40  1  0
 11 41  1  0
 12 42  1  0
 18 43  1  0
 19 44  1  0
 20 45  1  0
 21 46  1  0
 23 47  1  0
 25 48  1  0
 26 49  1  0
 27 50  1  0
 28 51  1  0
 29 52  1  0
 30 53  1  0
 30 54  1  0
 31 55  1  0
 31 56  1  0
M  CHG  1  14  -1
M  END
>  <UniqueID>  (27) 
26

>  <SMILES>  (27) 
CN1CCN(C(=O)c2ccccc2[N-]C(=O)c2ccccc2Nc2ccccc2)CC1

>  <Energy>  (27) 
82.39459569420394

>  <Genealogy>  (27) 
CN1CCN(C(=O)c2ccccc2[N-]C(=O)c2ccccc2Nc2ccccc2)CC1 (protonated)
CN1CCN(C(=O)c2ccccc2[N-]C(=O)c2ccccc2Nc2ccccc2)CC1 (3D coordinates assigned)
CN1CCN(C(=O)c2ccccc2[N-]C(=O)c2ccccc2Nc2ccccc2)CC1 (nonaromatic ring conformer: 82.39459569420394 kcal/mol)

>  <smiles>  (27) 
CN1CCN(C(=O)c2ccccc2NC(=O)c2ccccc2Nc2ccccc2)CC1

>  <score_type>  (27) 
oracle

>  <origin>  (27) 
adg

>  <m_score__min__energy>  (27) 
-11.529999999999999

>  <m_primary>  (27) 
energy

$$$$
27:0
     RDKit          3D

 59 62  0  0  0  0  0  0  0  0999 V2000
   55.1460   27.5080   45.3710 H   0  0  0  0  0  0  0  0  0  0  0  0
   55.0000   26.6710   45.9200 O   0  0  0  0  0  0  0  0  0  0  0  0
   56.0650   25.8620   46.3090 C   0  0  0  0  0  0  0  0  0  0  0  0
   55.9300   24.8010   47.1210 N   0  0  0  0  0  0  0  0  0  0  0  0
   57.1970   24.3490   47.2340 C   0  0  0  0  0  0  0  0  0  0  0  0
   57.4990   23.3450   47.9310 O   0  0  0  0  0  0  0  0  0  0  0  0
   58.1160   25.0610   46.5490 N   0  0  0  0  0  0  0  0  0  0  0  0
   57.3830   26.0120   45.9390 C   0  0  0  0  0  0  0  0  0  0  0  0
   57.9480   27.1310   45.1660 C   0  0  0  0  0  0  0  0  0  0  0  0
   58.1817   26.9441   44.1075 H   0  0  0  0  0  0  0  0  0  0  0  0
   58.2030   28.3640   45.6450 C   0  0  0  0  0  0  0  0  0  0  0  0
   58.4510   28.6080   46.9830 C   0  0  0  0  0  0  0  0  0  0  0  0
   58.4049   27.8753   47.8022 H   0  0  0  0  0  0  0  0  0  0  0  0
   58.7670   29.9450   47.0940 C   0  0  0  0  0  0  0  0  0  0  0  0
   59.1200   30.5950   48.3710 C   0  0  0  0  0  0  0  0  0  0  0  0
   58.5880   30.1730   49.4330 O   0  0  0  0  0  0  0  0  0  0  0  0
   60.0840   31.6650   48.4280 N   0  0  0  0  0  0  0  0  0  0  0  0
   60.0700   32.5850   49.5660 C   0  0  0  0  0  0  0  0  0  0  0  0
   59.0458   32.6574   49.9606 H   0  0  0  0  0  0  0  0  0  0  0  0
   60.7488   32.2017   50.3421 H   0  0  0  0  0  0  0  0  0  0  0  0
   60.5440   33.9760   49.1360 C   0  0  0  0  0  0  0  0  0  0  0  0
   59.7491   34.4482   48.5401 H   0  0  0  0  0  0  0  0  0  0  0  0
   60.7653   34.5449   50.0511 H   0  0  0  0  0  0  0  0  0  0  0  0
   61.7790   33.9420   48.3290 N   0  0  0  0  0  0  0  0  0  0  0  0
   63.0540   34.1960   49.0330 C   0  0  0  0  0  0  0  0  0  0  0  0
   63.8744   33.7995   48.4167 H   0  0  0  0  0  0  0  0  0  0  0  0
   63.1239   35.2836   49.1823 H   0  0  0  0  0  0  0  0  0  0  0  0
   63.1390   33.5500   50.4240 C   0  0  0  0  0  0  0  0  0  0  0  0
   63.1692   34.3394   51.1894 H   0  0  0  0  0  0  0  0  0  0  0  0
   62.2567   32.9110   50.5761 H   0  0  0  0  0  0  0  0  0  0  0  0
   64.3800   32.7050   50.5330 C   0  0  0  0  0  0  0  0  0  0  0  0
   64.3200   31.4280   51.1170 C   0  0  0  0  0  0  0  0  0  0  0  0
   63.3573   31.0323   51.4728 H   0  0  0  0  0  0  0  0  0  0  0  0
   65.4810   30.6590   51.2470 C   0  0  0  0  0  0  0  0  0  0  0  0
   65.4277   29.6566   51.6968 H   0  0  0  0  0  0  0  0  0  0  0  0
   66.7080   31.1610   50.8070 C   0  0  0  0  0  0  0  0  0  0  0  0
   67.6192   30.5531   50.9082 H   0  0  0  0  0  0  0  0  0  0  0  0
   66.7780   32.4360   50.2380 C   0  0  0  0  0  0  0  0  0  0  0  0
   67.7452   32.8316   49.8944 H   0  0  0  0  0  0  0  0  0  0  0  0
   65.6210   33.2090   50.1050 C   0  0  0  0  0  0  0  0  0  0  0  0
   65.6815   34.2149   49.6640 H   0  0  0  0  0  0  0  0  0  0  0  0
   61.8020   32.9660   47.2220 C   0  0  0  0  0  0  0  0  0  0  0  0
   61.1484   33.3324   46.4167 H   0  0  0  0  0  0  0  0  0  0  0  0
   62.8455   32.8685   46.8880 H   0  0  0  0  0  0  0  0  0  0  0  0
   61.3210   31.5720   47.6480 C   0  0  0  0  0  0  0  0  0  0  0  0
   61.1364   30.9640   46.7500 H   0  0  0  0  0  0  0  0  0  0  0  0
   62.0977   31.1062   48.2723 H   0  0  0  0  0  0  0  0  0  0  0  0
   58.6820   30.5590   45.8880 N   0  0  0  0  0  0  0  0  0  0  0  0
   58.7460   32.0120   45.6570 C   0  0  0  0  0  0  0  0  0  0  0  0
   59.4935   32.4529   46.3329 H   0  0  0  0  0  0  0  0  0  0  0  0
   59.0272   32.1924   44.6090 H   0  0  0  0  0  0  0  0  0  0  0  0
   57.3910   32.6570   45.9200 C   0  0  0  0  0  0  0  0  0  0  0  0
   57.2265   32.7353   47.0048 H   0  0  0  0  0  0  0  0  0  0  0  0
   57.3701   33.6617   45.4725 H   0  0  0  0  0  0  0  0  0  0  0  0
   56.5980   32.0397   45.4725 H   0  0  0  0  0  0  0  0  0  0  0  0
   58.2920   29.6050   44.9960 C   0  0  0  0  0  0  0  0  0  0  0  0
   57.9040   29.8790   43.7400 C   0  0  0  0  0  0  0  0  0  0  0  0
   58.0239   30.8953   43.3367 H   0  0  0  0  0  0  0  0  0  0  0  0
   57.4663   29.0871   43.1144 H   0  0  0  0  0  0  0  0  0  0  0  0
  1  2  1  0
  2  3  1  0
  3  4  1  0
  4  5  1  0
  5  6  2  0
  5  7  1  0
  7  8  1  0
  8  9  1  0
  9 10  1  0
  9 11  2  0
 11 12  1  0
 12 13  1  0
 12 14  2  0
 14 15  1  0
 15 16  2  0
 15 17  1  0
 17 18  1  0
 18 19  1  0
 18 20  1  0
 18 21  1  0
 21 22  1  0
 21 23  1  0
 21 24  1  0
 24 25  1  0
 25 26  1  0
 25 27  1  0
 25 28  1  0
 28 29  1  0
 28 30  1  0
 28 31  1  0
 31 32  2  0
 32 33  1  0
 32 34  1  0
 34 35  1  0
 34 36  2  0
 36 37  1  0
 36 38  1  0
 38 39  1  0
 38 40  2  0
 40 41  1  0
 24 42  1  0
 42 43  1  0
 42 44  1  0
 42 45  1  0
 45 46  1  0
 45 47  1  0
 14 48  1  0
 48 49  1  0
 49 50  1  0
 49 51  1  0
 49 52  1  0
 52 53  1  0
 52 54  1  0
 52 55  1  0
 48 56  1  0
 56 57  2  0
 57 58  1  0
 57 59  1  0
  8  3  2  0
 56 11  1  0
 45 17  1  0
 40 31  1  0
M  CHG  2   4  -1   7  -1
M  END
>  <UniqueID>  (28) 
27

>  <SMILES>  (28) 
C=c1/c(=C\c2[n-]c(=O)[n-]c2O)cc(C(=O)N2CCN(CCc3ccccc3)CC2)n1CC

>  <Energy>  (28) 
141.1612949162963

>  <Genealogy>  (28) 
C=c1c(=Cc2[n-]c(=O)[n-]c2O)cc(C(=O)N2CCN(CCc3ccccc3)CC2)n1CC (protonated)
C=c1/c(=C\c2[n-]c(=O)[n-]c2O)cc(C(=O)N2CCN(CCc3ccccc3)CC2)n1CC (cis-trans isomerization)
C=c1/c(=C\c2[n-]c(=O)[n-]c2O)cc(C(=O)N2CCN(CCc3ccccc3)CC2)n1CC (3D coordinates assigned)
C=c1/c(=C\c2[n-]c(=O)[n-]c2O)cc(C(=O)N2CCN(CCc3ccccc3)CC2)n1CC (nonaromatic ring conformer: 141.1612949162963 kcal/mol)

>  <smiles>  (28) 
C=c1c(=Cc2[nH]c(=O)[nH]c2O)cc(C(=O)N2CCN(CCc3ccccc3)CC2)n1CC

>  <score_type>  (28) 
oracle

>  <origin>  (28) 
adg

>  <m_score__min__energy>  (28) 
-13.52

>  <m_primary>  (28) 
energy

$$$$
28:0
     RDKit          3D

 45 48  0  0  0  0  0  0  0  0999 V2000
   63.3010   32.4230   50.7140 C   0  0  0  0  0  0  0  0  0  0  0  0
   63.1000   32.9150   49.3040 C   0  0  0  0  0  0  0  0  0  0  0  0
   64.0940   32.6340   48.3510 C   0  0  0  0  0  0  0  0  0  0  0  0
   63.9780   33.1020   47.0420 C   0  0  0  0  0  0  0  0  0  0  0  0
   62.8680   33.8550   46.6650 C   0  0  0  0  0  0  0  0  0  0  0  0
   61.8600   34.1280   47.5920 C   0  0  0  0  0  0  0  0  0  0  0  0
   61.9470   33.6410   48.9070 C   0  0  0  0  0  0  0  0  0  0  0  0
   60.8230   33.9190   49.8320 C   0  0  0  0  0  0  0  0  0  0  0  0
   61.0730   34.1660   51.0410 O   0  0  0  0  0  0  0  0  0  0  0  0
   59.4550   33.8970   49.4010 N   0  0  0  0  0  0  0  0  0  0  0  0
   58.9480   33.2940   48.2010 C   0  0  0  0  0  0  0  0  0  0  0  0
   58.9040   31.8990   48.0330 C   0  0  0  0  0  0  0  0  0  0  0  0
   58.4050   31.3480   46.8500 C   0  0  0  0  0  0  0  0  0  0  0  0
   57.9650   32.1820   45.8140 C   0  0  0  0  0  0  0  0  0  0  0  0
   57.3600   31.4760   44.3190 S   0  0  0  0  0  0  0  0  0  0  0  0
   55.9060   31.1400   44.4980 O   0  0  0  0  0  0  0  0  0  0  0  0
   57.5000   32.4430   43.1760 O   0  0  0  0  0  0  0  0  0  0  0  0
   58.2410   30.0280   43.9500 N   0  0  0  0  0  0  0  0  0  0  0  0
   58.0230   28.7690   44.6120 C   0  0  0  0  0  0  0  0  0  0  0  0
   59.1420   27.9530   44.9240 C   0  0  0  0  0  0  0  0  0  0  0  0
   58.9740   26.7100   45.5600 C   0  0  0  0  0  0  0  0  0  0  0  0
   57.6770   26.3140   45.8760 C   0  0  0  0  0  0  0  0  0  0  0  0
   57.2900   25.1790   46.4770 N   0  0  0  0  0  0  0  0  0  0  0  0
   55.9430   25.3340   46.5280 C   0  0  0  0  0  0  0  0  0  0  0  0
   55.1840   24.4650   47.0310 O   0  0  0  0  0  0  0  0  0  0  0  0
   55.4710   26.4900   45.9980 N   0  0  0  0  0  0  0  0  0  0  0  0
   56.5990   27.0920   45.5900 C   0  0  0  0  0  0  0  0  0  0  0  0
   56.7230   28.3280   44.9620 C   0  0  0  0  0  0  0  0  0  0  0  0
   58.0290   33.5730   45.9720 C   0  0  0  0  0  0  0  0  0  0  0  0
   58.5270   34.1240   47.1550 C   0  0  0  0  0  0  0  0  0  0  0  0
   62.9829   33.2016   51.4229 H   0  0  0  0  0  0  0  0  0  0  0  0
   62.7020   31.5144   50.8742 H   0  0  0  0  0  0  0  0  0  0  0  0
   64.3649   32.1938   50.8742 H   0  0  0  0  0  0  0  0  0  0  0  0
   64.9727   32.0388   48.6403 H   0  0  0  0  0  0  0  0  0  0  0  0
   64.7640   32.8762   46.3064 H   0  0  0  0  0  0  0  0  0  0  0  0
   62.7856   34.2349   45.6360 H   0  0  0  0  0  0  0  0  0  0  0  0
   60.9901   34.7297   47.2900 H   0  0  0  0  0  0  0  0  0  0  0  0
   59.2638   31.2388   48.8359 H   0  0  0  0  0  0  0  0  0  0  0  0
   58.3575   30.2554   46.7317 H   0  0  0  0  0  0  0  0  0  0  0  0
   58.9000   30.0680   43.1400 H   0  0  0  0  0  0  0  0  0  0  0  0
   60.1540   28.2976   44.6648 H   0  0  0  0  0  0  0  0  0  0  0  0
   59.8377   26.0724   45.7996 H   0  0  0  0  0  0  0  0  0  0  0  0
   55.8381   28.9439   44.7440 H   0  0  0  0  0  0  0  0  0  0  0  0
   57.6859   34.2331   45.1617 H   0  0  0  0  0  0  0  0  0  0  0  0
   58.5888   35.2167   47.2655 H   0  0  0  0  0  0  0  0  0  0  0  0
  1  2  1  0
  2  3  2  0
  3  4  1  0
  4  5  2  0
  5  6  1  0
  6  7  2  0
  7  8  1  0
  8  9  2  0
  8 10  1  0
 10 11  1  0
 11 12  2  0
 12 13  1  0
 13 14  2  0
 14 15  1  0
 15 16  2  0
 15 17  2  0
 15 18  1  0
 18 19  1  0
 19 20  2  0
 20 21  1  0
 21 22  2  0
 22 23  1  0
 23 24  1  0
 24 25  2  0
 24 26  1  0
 26 27  1  0
 27 28  2  0
 14 29  1  0
 29 30  2  0
  7  2  1  0
 30 11  1  0
 28 19  1  0
 27 22  1  0
  1 31  1  0
  1 32  1  0
  1 33  1  0
  3 34  1  0
  4 35  1  0
  5 36  1  0
  6 37  1  0
 12 38  1  0
 13 39  1  0
 18 40  1  0
 20 41  1  0
 21 42  1  0
 28 43  1  0
 29 44  1  0
 30 45  1  0
M  CHG  3  10  -1  23  -1  26  -1
M  END
>  <UniqueID>  (29) 
28

>  <SMILES>  (29) 
Cc1ccccc1C(=O)[N-]c1ccc(S(=O)(=O)Nc2ccc3[n-]c(=O)[n-]c3c2)cc1

>  <Energy>  (29) 
96.61493021416257

>  <Genealogy>  (29) 
Cc1ccccc1C(=O)[N-]c1ccc(S(=O)(=O)Nc2ccc3[n-]c(=O)[n-]c3c2)cc1 (protonated)
Cc1ccccc1C(=O)[N-]c1ccc(S(=O)(=O)Nc2ccc3[n-]c(=O)[n-]c3c2)cc1 (3D coordinates assigned)
Cc1ccccc1C(=O)[N-]c1ccc(S(=O)(=O)Nc2ccc3[n-]c(=O)[n-]c3c2)cc1 (optimized conformer: 96.61493021416257 kcal/mol)

>  <smiles>  (29) 
Cc1ccccc1C(=O)Nc1ccc(S(=O)(=O)Nc2ccc3[nH]c(=O)[nH]c3c2)cc1

>  <score_type>  (29) 
oracle

>  <origin>  (29) 
adg

>  <m_score__min__energy>  (29) 
-14.449999999999999

>  <m_primary>  (29) 
energy

$$$$
29:0
     RDKit          3D

 58 61  0  0  0  0  0  0  0  0999 V2000
   55.1400   26.6760   45.9920 N   0  0  0  0  0  0  0  0  0  0  0  0
   55.9890   25.5460   45.7500 C   0  0  0  0  0  0  0  0  0  0  0  0
   55.5300   24.2690   46.1110 C   0  0  0  0  0  0  0  0  0  0  0  0
   56.3480   23.1480   45.9430 C   0  0  0  0  0  0  0  0  0  0  0  0
   57.6270   23.2870   45.4000 C   0  0  0  0  0  0  0  0  0  0  0  0
   58.0900   24.5470   45.0170 C   0  0  0  0  0  0  0  0  0  0  0  0
   57.2890   25.6920   45.2020 C   0  0  0  0  0  0  0  0  0  0  0  0
   57.7870   26.9830   44.8130 N   0  0  0  0  0  0  0  0  0  0  0  0
   58.8330   27.6700   45.5210 C   0  0  0  0  0  0  0  0  0  0  0  0
   59.2740   27.2110   46.6080 O   0  0  0  0  0  0  0  0  0  0  0  0
   59.3190   28.9870   45.0740 C   0  0  0  0  0  0  0  0  0  0  0  0
   58.9420   30.1730   45.5650 C   0  0  0  0  0  0  0  0  0  0  0  0
   59.4850   30.8460   46.7720 C   0  0  0  0  0  0  0  0  0  0  0  0
   60.8680   31.0740   46.8420 C   0  0  0  0  0  0  0  0  0  0  0  0
   61.4100   31.8380   47.8760 C   0  0  0  0  0  0  0  0  0  0  0  0
   60.5720   32.4160   48.8300 C   0  0  0  0  0  0  0  0  0  0  0  0
   59.1920   32.2040   48.7760 C   0  0  0  0  0  0  0  0  0  0  0  0
   58.3680   32.8370   49.7130 O   0  0  0  0  0  0  0  0  0  0  0  0
   58.5970   32.8310   51.0950 C   0  0  0  0  0  0  0  0  0  0  0  0
   59.7710   33.4220   51.5800 C   0  0  0  0  0  0  0  0  0  0  0  0
   60.0670   33.3980   52.9430 C   0  0  0  0  0  0  0  0  0  0  0  0
   59.1980   32.7650   53.8340 C   0  0  0  0  0  0  0  0  0  0  0  0
   58.0370   32.1510   53.3630 C   0  0  0  0  0  0  0  0  0  0  0  0
   57.7200   32.1810   51.9930 C   0  0  0  0  0  0  0  0  0  0  0  0
   56.5220   31.5720   51.4920 N   0  0  0  0  0  0  0  0  0  0  0  0
   55.9380   30.3360   51.9260 C   0  0  0  0  0  0  0  0  0  0  0  0
   56.6670   29.3270   52.1280 O   0  0  0  0  0  0  0  0  0  0  0  0
   54.4700   30.2280   52.0720 C   0  0  0  0  0  0  0  0  0  0  0  0
   53.8980   29.1240   52.7310 C   0  0  0  0  0  0  0  0  0  0  0  0
   52.5110   29.0140   52.8520 C   0  0  0  0  0  0  0  0  0  0  0  0
   51.6800   30.0050   52.3340 C   0  0  0  0  0  0  0  0  0  0  0  0
   52.2270   31.1300   51.6930 C   0  0  0  0  0  0  0  0  0  0  0  0
   51.3420   32.2080   51.1960 C   0  0  0  0  0  0  0  0  0  0  0  0
   50.9460   33.1230   51.9690 O   0  0  0  0  0  0  0  0  0  0  0  0
   50.9030   32.2040   49.8780 O   0  0  0  0  0  0  0  0  0  0  0  0
   53.6230   31.2230   51.5500 C   0  0  0  0  0  0  0  0  0  0  0  0
   58.6470   31.4090   47.7560 C   0  0  0  0  0  0  0  0  0  0  0  0
   55.1550   27.4980   45.3440 H   0  0  0  0  0  0  0  0  0  0  0  0
   54.4390   26.7010   46.7630 H   0  0  0  0  0  0  0  0  0  0  0  0
   54.5195   24.1499   46.5290 H   0  0  0  0  0  0  0  0  0  0  0  0
   55.9831   22.1535   46.2394 H   0  0  0  0  0  0  0  0  0  0  0  0
   58.2699   22.4033   45.2740 H   0  0  0  0  0  0  0  0  0  0  0  0
   59.0887   24.6472   44.5669 H   0  0  0  0  0  0  0  0  0  0  0  0
   57.3070   27.4970   44.0460 H   0  0  0  0  0  0  0  0  0  0  0  0
   60.0604   28.9960   44.2614 H   0  0  0  0  0  0  0  0  0  0  0  0
   58.1485   30.7039   45.0186 H   0  0  0  0  0  0  0  0  0  0  0  0
   61.5305   30.6466   46.0749 H   0  0  0  0  0  0  0  0  0  0  0  0
   62.4984   31.9847   47.9391 H   0  0  0  0  0  0  0  0  0  0  0  0
   60.9994   33.0411   49.6279 H   0  0  0  0  0  0  0  0  0  0  0  0
   60.4655   33.9093   50.8798 H   0  0  0  0  0  0  0  0  0  0  0  0
   60.9843   33.8774   53.3156 H   0  0  0  0  0  0  0  0  0  0  0  0
   59.4292   32.7504   54.9093 H   0  0  0  0  0  0  0  0  0  0  0  0
   57.3649   31.6399   54.0680 H   0  0  0  0  0  0  0  0  0  0  0  0
   54.5472   28.3429   53.1534 H   0  0  0  0  0  0  0  0  0  0  0  0
   52.0729   28.1413   53.3584 H   0  0  0  0  0  0  0  0  0  0  0  0
   50.5884   29.9064   52.4273 H   0  0  0  0  0  0  0  0  0  0  0  0
   54.0584   32.0849   51.0232 H   0  0  0  0  0  0  0  0  0  0  0  0
   57.5630   31.2247   47.7242 H   0  0  0  0  0  0  0  0  0  0  0  0
  1  2  1  0
  2  3  2  0
  3  4  1  0
  4  5  2  0
  5  6  1  0
  6  7  2  0
  7  8  1  0
  8  9  1  0
  9 10  2  0
  9 11  1  0
 11 12  2  3
 12 13  1  0
 13 14  2  0
 14 15  1  0
 15 16  2  0
 16 17  1  0
 17 18  1  0
 18 19  1  0
 19 20  2  0
 20 21  1  0
 21 22  2  0
 22 23  1  0
 23 24  2  0
 24 25  1  0
 25 26  1  0
 26 27  2  0
 26 28  1  0
 28 29  2  0
 29 30  1  0
 30 31  2  0
 31 32  1  0
 32 33  1  0
 33 34  2  0
 33 35  1  0
 32 36  2  0
 17 37  2  0
  7  2  1  0
 37 13  1  0
 24 19  1  0
 36 28  1  0
  1 38  1  0
  1 39  1  0
  3 40  1  0
  4 41  1  0
  5 42  1  0
  6 43  1  0
  8 44  1  0
 11 45  1  0
 12 46  1  0
 14 47  1  0
 15 48  1  0
 16 49  1  0
 20 50  1  0
 21 51  1  0
 22 52  1  0
 23 53  1  0
 29 54  1  0
 30 55  1  0
 31 56  1  0
 36 57  1  0
 37 58  1  0
M  CHG  2  25  -1  35  -1
M  END
>  <UniqueID>  (30) 
29

>  <SMILES>  (30) 
Nc1ccccc1NC(=O)C=Cc1cccc(Oc2ccccc2[N-]C(=O)c2cccc(C(=O)[O-])c2)c1

>  <Energy>  (30) 
81.73685190204617

>  <Genealogy>  (30) 
Nc1ccccc1NC(=O)C=Cc1cccc(Oc2ccccc2[N-]C(=O)c2cccc(C(=O)[O-])c2)c1 (protonated)
Nc1ccccc1NC(=O)C=Cc1cccc(Oc2ccccc2[N-]C(=O)c2cccc(C(=O)[O-])c2)c1 (3D coordinates assigned)
Nc1ccccc1NC(=O)C=Cc1cccc(Oc2ccccc2[N-]C(=O)c2cccc(C(=O)[O-])c2)c1 (optimized conformer: 81.73685190204617 kcal/mol)

>  <smiles>  (30) 
Nc1ccccc1NC(=O)C=Cc1cccc(Oc2ccccc2NC(=O)c2cccc(C(=O)O)c2)c1

>  <score_type>  (30) 
oracle

>  <origin>  (30) 
adg

>  <m_score__min__energy>  (30) 
-16.07

>  <m_primary>  (30) 
energy

$$$$
30:0
     RDKit          3D

 55 57  0  0  0  0  0  0  0  0999 V2000
   61.1997   33.8620   45.4224 H   0  0  0  0  0  0  0  0  0  0  0  0
   61.6820   33.8670   46.4110 C   0  0  0  0  0  0  0  0  0  0  0  0
   63.0380   33.5470   46.5280 C   0  0  0  0  0  0  0  0  0  0  0  0
   63.6225   33.2936   45.6313 H   0  0  0  0  0  0  0  0  0  0  0  0
   63.6510   33.5490   47.7840 C   0  0  0  0  0  0  0  0  0  0  0  0
   64.7195   33.3032   47.8726 H   0  0  0  0  0  0  0  0  0  0  0  0
   62.9070   33.8640   48.9350 C   0  0  0  0  0  0  0  0  0  0  0  0
   63.5740   33.9020   50.2830 C   0  0  0  0  0  0  0  0  0  0  0  0
   62.8144   33.7773   51.0688 H   0  0  0  0  0  0  0  0  0  0  0  0
   64.0835   34.8691   50.4062 H   0  0  0  0  0  0  0  0  0  0  0  0
   64.5800   32.8010   50.3880 C   0  0  0  0  0  0  0  0  0  0  0  0
   65.8100   33.0760   50.3430 O   0  0  0  0  0  0  0  0  0  0  0  0
   64.1240   31.4430   50.4930 N   0  0  0  0  0  0  0  0  0  0  0  0
   62.9510   31.0010   50.1510 C   0  0  0  0  0  0  0  0  0  0  0  0
   62.5350   30.8400   48.8740 N   0  0  0  0  0  0  0  0  0  0  0  0
   61.2870   30.3800   48.7900 N   0  0  0  0  0  0  0  0  0  0  0  0
   60.7150   30.1650   49.9980 C   0  0  0  0  0  0  0  0  0  0  0  0
   59.3000   29.7190   50.1770 C   0  0  0  0  0  0  0  0  0  0  0  0
   59.2233   29.1154   51.0934 H   0  0  0  0  0  0  0  0  0  0  0  0
   59.0012   29.1200   49.3041 H   0  0  0  0  0  0  0  0  0  0  0  0
   58.3690   30.9310   50.2910 C   0  0  0  0  0  0  0  0  0  0  0  0
   57.9220   30.9440   51.2960 H   0  0  0  0  0  0  0  0  0  0  0  0
   57.5934   30.8420   49.5160 H   0  0  0  0  0  0  0  0  0  0  0  0
   59.1220   32.2470   50.0650 C   0  0  0  0  0  0  0  0  0  0  0  0
   60.1748   32.0236   49.8375 H   0  0  0  0  0  0  0  0  0  0  0  0
   59.0435   32.8549   50.9784 H   0  0  0  0  0  0  0  0  0  0  0  0
   58.5570   32.9850   48.9800 O   0  0  0  0  0  0  0  0  0  0  0  0
   58.3700   32.5020   47.6750 C   0  0  0  0  0  0  0  0  0  0  0  0
   58.9240   31.2870   47.2260 C   0  0  0  0  0  0  0  0  0  0  0  0
   59.5206   30.6699   47.9140 H   0  0  0  0  0  0  0  0  0  0  0  0
   58.7190   30.8620   45.9100 C   0  0  0  0  0  0  0  0  0  0  0  0
   59.1619   29.9157   45.5658 H   0  0  0  0  0  0  0  0  0  0  0  0
   57.9520   31.6350   45.0260 C   0  0  0  0  0  0  0  0  0  0  0  0
   57.7640   31.1910   43.5970 C   0  0  0  0  0  0  0  0  0  0  0  0
   58.7374   31.2171   43.0853 H   0  0  0  0  0  0  0  0  0  0  0  0
   57.0468   31.8743   43.1188 H   0  0  0  0  0  0  0  0  0  0  0  0
   57.1960   29.7680   43.5110 C   0  0  0  0  0  0  0  0  0  0  0  0
   57.9898   29.0522   43.7709 H   0  0  0  0  0  0  0  0  0  0  0  0
   56.8362   29.6067   42.4841 H   0  0  0  0  0  0  0  0  0  0  0  0
   56.0350   29.5680   44.4480 C   0  0  0  0  0  0  0  0  0  0  0  0
   55.1660   30.4750   44.5470 O   0  0  0  0  0  0  0  0  0  0  0  0
   55.9040   28.3960   45.2600 N   0  0  0  0  0  0  0  0  0  0  0  0
   57.0170   27.5750   45.7170 C   0  0  0  0  0  0  0  0  0  0  0  0
   57.0353   27.5615   46.8168 H   0  0  0  0  0  0  0  0  0  0  0  0
   56.8949   26.5490   45.3397 H   0  0  0  0  0  0  0  0  0  0  0  0
   57.9613   27.9945   45.3397 H   0  0  0  0  0  0  0  0  0  0  0  0
   57.3970   32.8440   45.4740 C   0  0  0  0  0  0  0  0  0  0  0  0
   56.7995   33.4608   44.7866 H   0  0  0  0  0  0  0  0  0  0  0  0
   57.6010   33.2670   46.7910 C   0  0  0  0  0  0  0  0  0  0  0  0
   57.1525   34.2105   47.1356 H   0  0  0  0  0  0  0  0  0  0  0  0
   61.7610   30.5730   51.2580 S   0  0  0  0  0  0  0  0  0  0  0  0
   61.5490   34.1970   48.8060 C   0  0  0  0  0  0  0  0  0  0  0  0
   60.9628   34.4621   49.6982 H   0  0  0  0  0  0  0  0  0  0  0  0
   60.9390   34.1930   47.5480 C   0  0  0  0  0  0  0  0  0  0  0  0
   59.8729   34.4468   47.4535 H   0  0  0  0  0  0  0  0  0  0  0  0
  1  2  1  0
  2  3  2  0
  3  4  1  0
  3  5  1  0
  5  6  1  0
  5  7  2  0
  7  8  1  0
  8  9  1  0
  8 10  1  0
  8 11  1  0
 11 12  2  0
 11 13  1  0
 13 14  2  0
 14 15  1  0
 15 16  1  0
 16 17  2  0
 17 18  1  0
 18 19  1  0
 18 20  1  0
 18 21  1  0
 21 22  1  0
 21 23  1  0
 21 24  1  0
 24 25  1  0
 24 26  1  0
 24 27  1  0
 27 28  1  0
 28 29  2  0
 29 30  1  0
 29 31  1  0
 31 32  1  0
 31 33  2  0
 33 34  1  0
 34 35  1  0
 34 36  1  0
 34 37  1  0
 37 38  1  0
 37 39  1  0
 37 40  1  0
 40 41  2  0
 40 42  1  0
 42 43  1  0
 43 44  1  0
 43 45  1  0
 43 46  1  0
 33 47  1  0
 47 48  1  0
 47 49  2  0
 49 50  1  0
 17 51  1  0
  7 52  1  0
 52 53  1  0
 52 54  2  0
 54 55  1  0
 54  2  1  0
 51 14  1  0
 49 28  1  0
M  CHG  2  15  -1  42  -1
M  END
>  <UniqueID>  (31) 
30

>  <SMILES>  (31) 
C[N-]C(=O)CCc1ccc(OCCCc2n[n-]/c(=N\C(=O)Cc3ccccc3)s2)cc1

>  <Energy>  (31) 
80.41316627316019

>  <Genealogy>  (31) 
C[N-]C(=O)CCc1ccc(OCCCc2n[n-]c(=NC(=O)Cc3ccccc3)s2)cc1 (protonated)
C[N-]C(=O)CCc1ccc(OCCCc2n[n-]/c(=N\C(=O)Cc3ccccc3)s2)cc1 (cis-trans isomerization)
C[N-]C(=O)CCc1ccc(OCCCc2n[n-]/c(=N\C(=O)Cc3ccccc3)s2)cc1 (3D coordinates assigned)
C[N-]C(=O)CCc1ccc(OCCCc2n[n-]/c(=N\C(=O)Cc3ccccc3)s2)cc1 (optimized conformer: 80.41316627316019 kcal/mol)

>  <smiles>  (31) 
CNC(=O)CCc1ccc(OCCCc2n[nH]c(=NC(=O)Cc3ccccc3)s2)cc1

>  <score_type>  (31) 
oracle

>  <origin>  (31) 
adg

>  <m_score__min__energy>  (31) 
-13.73

>  <m_primary>  (31) 
energy

$$$$
31:0
     RDKit          3D

 60 63  0  0  0  0  0  0  0  0999 V2000
   60.7260   29.4960   51.3820 C   0  0  0  0  0  0  0  0  0  0  0  0
   60.4990   28.9520   50.0450 N   0  0  0  0  0  0  0  0  0  0  0  0
   60.6930   27.6650   49.6960 C   0  0  0  0  0  0  0  0  0  0  0  0
   60.4070   27.5120   48.3550 C   0  0  0  0  0  0  0  0  0  0  0  0
   60.5310   26.3170   47.5800 N   0  0  0  0  0  0  0  0  0  0  0  0
   59.1820   25.5970   46.7670 S   0  0  0  0  0  0  0  0  0  0  0  0
   58.1410   25.2000   47.7760 O   0  0  0  0  0  0  0  0  0  0  0  0
   59.6230   24.3710   46.0180 O   0  0  0  0  0  0  0  0  0  0  0  0
   58.5110   26.8040   45.6790 C   0  0  0  0  0  0  0  0  0  0  0  0
   57.1520   27.1300   45.7710 C   0  0  0  0  0  0  0  0  0  0  0  0
   56.6420   28.2240   45.0710 C   0  0  0  0  0  0  0  0  0  0  0  0
   57.4900   29.0090   44.2770 C   0  0  0  0  0  0  0  0  0  0  0  0
   56.9160   30.5280   43.5970 S   0  0  0  0  0  0  0  0  0  0  0  0
   56.2650   30.2610   42.2690 O   0  0  0  0  0  0  0  0  0  0  0  0
   55.9040   31.1610   44.5110 O   0  0  0  0  0  0  0  0  0  0  0  0
   58.2630   31.6040   43.3730 N   0  0  0  0  0  0  0  0  0  0  0  0
   57.8190   32.9950   43.4980 C   0  0  0  0  0  0  0  0  0  0  0  0
   58.2620   33.5540   44.8200 C   0  0  0  0  0  0  0  0  0  0  0  0
   59.2570   34.5460   44.8640 C   0  0  0  0  0  0  0  0  0  0  0  0
   59.6590   35.0850   46.0890 C   0  0  0  0  0  0  0  0  0  0  0  0
   59.0790   34.6340   47.2770 C   0  0  0  0  0  0  0  0  0  0  0  0
   58.0860   33.6510   47.2410 C   0  0  0  0  0  0  0  0  0  0  0  0
   57.6730   33.1160   46.0170 C   0  0  0  0  0  0  0  0  0  0  0  0
   58.8400   28.6590   44.1500 C   0  0  0  0  0  0  0  0  0  0  0  0
   59.3480   27.5570   44.8440 C   0  0  0  0  0  0  0  0  0  0  0  0
   60.0330   28.7410   47.8580 C   0  0  0  0  0  0  0  0  0  0  0  0
   60.1020   29.6180   48.9310 C   0  0  0  0  0  0  0  0  0  0  0  0
   59.8410   31.0740   48.8460 C   0  0  0  0  0  0  0  0  0  0  0  0
   58.6880   31.5300   49.0650 O   0  0  0  0  0  0  0  0  0  0  0  0
   60.9050   31.9850   48.5440 N   0  0  0  0  0  0  0  0  0  0  0  0
   61.2740   32.9850   49.5490 C   0  0  0  0  0  0  0  0  0  0  0  0
   62.4520   33.8230   49.0590 C   0  0  0  0  0  0  0  0  0  0  0  0
   63.3690   32.9860   48.3870 O   0  0  0  0  0  0  0  0  0  0  0  0
   62.8530   32.6220   47.1190 C   0  0  0  0  0  0  0  0  0  0  0  0
   61.4030   32.0810   47.1680 C   0  0  0  0  0  0  0  0  0  0  0  0
   60.4175   28.7567   52.1359 H   0  0  0  0  0  0  0  0  0  0  0  0
   61.7946   29.7245   51.5083 H   0  0  0  0  0  0  0  0  0  0  0  0
   60.1368   30.4163   51.5083 H   0  0  0  0  0  0  0  0  0  0  0  0
   61.0262   26.8641   50.3724 H   0  0  0  0  0  0  0  0  0  0  0  0
   56.4839   26.5210   46.3977 H   0  0  0  0  0  0  0  0  0  0  0  0
   55.5725   28.4711   45.1422 H   0  0  0  0  0  0  0  0  0  0  0  0
   58.6130   31.4600   42.3970 H   0  0  0  0  0  0  0  0  0  0  0  0
   58.2559   33.5923   42.6842 H   0  0  0  0  0  0  0  0  0  0  0  0
   56.7213   33.0326   43.4374 H   0  0  0  0  0  0  0  0  0  0  0  0
   59.7207   34.8991   43.9311 H   0  0  0  0  0  0  0  0  0  0  0  0
   60.4334   35.8657   46.1178 H   0  0  0  0  0  0  0  0  0  0  0  0
   59.4038   35.0525   48.2410 H   0  0  0  0  0  0  0  0  0  0  0  0
   57.6287   33.2978   48.1770 H   0  0  0  0  0  0  0  0  0  0  0  0
   56.8843   32.3497   45.9917 H   0  0  0  0  0  0  0  0  0  0  0  0
   59.5022   29.2526   43.5026 H   0  0  0  0  0  0  0  0  0  0  0  0
   60.4070   27.2801   44.7346 H   0  0  0  0  0  0  0  0  0  0  0  0
   59.7403   28.9781   46.8245 H   0  0  0  0  0  0  0  0  0  0  0  0
   60.4137   33.6442   49.7371 H   0  0  0  0  0  0  0  0  0  0  0  0
   61.5647   32.4687   50.4758 H   0  0  0  0  0  0  0  0  0  0  0  0
   62.0895   34.5999   48.3697 H   0  0  0  0  0  0  0  0  0  0  0  0
   62.9477   34.3011   49.9167 H   0  0  0  0  0  0  0  0  0  0  0  0
   62.8706   33.5095   46.4693 H   0  0  0  0  0  0  0  0  0  0  0  0
   63.4865   31.8083   46.7361 H   0  0  0  0  0  0  0  0  0  0  0  0
   60.7502   32.7596   46.5994 H   0  0  0  0  0  0  0  0  0  0  0  0
   61.3992   31.0714   46.7312 H   0  0  0  0  0  0  0  0  0  0  0  0
  1  2  1  0
  2  3  1  0
  3  4  2  0
  4  5  1  0
  5  6  1  0
  6  7  2  0
  6  8  2  0
  6  9  1  0
  9 10  2  0
 10 11  1  0
 11 12  2  0
 12 13  1  0
 13 14  2  0
 13 15  2  0
 13 16  1  0
 16 17  1  0
 17 18  1  0
 18 19  2  0
 19 20  1  0
 20 21  2  0
 21 22  1  0
 22 23  2  0
 12 24  1  0
 24 25  2  0
  4 26  1  0
 26 27  2  0
 27 28  1  0
 28 29  2  0
 28 30  1  0
 30 31  1  0
 31 32  1  0
 32 33  1  0
 33 34  1  0
 34 35  1  0
 27  2  1  0
 35 30  1  0
 25  9  1  0
 23 18  1  0
  1 36  1  0
  1 37  1  0
  1 38  1  0
  3 39  1  0
 10 40  1  0
 11 41  1  0
 16 42  1  0
 17 43  1  0
 17 44  1  0
 19 45  1  0
 20 46  1  0
 21 47  1  0
 22 48  1  0
 23 49  1  0
 24 50  1  0
 25 51  1  0
 26 52  1  0
 31 53  1  0
 31 54  1  0
 32 55  1  0
 32 56  1  0
 34 57  1  0
 34 58  1  0
 35 59  1  0
 35 60  1  0
M  CHG  1   5  -1
M  END
>  <UniqueID>  (32) 
31

>  <SMILES>  (32) 
Cn1cc([N-]S(=O)(=O)c2ccc(S(=O)(=O)NCc3ccccc3)cc2)cc1C(=O)N1CCOCC1

>  <Energy>  (32) 
97.63145281204706

>  <Genealogy>  (32) 
Cn1cc([N-]S(=O)(=O)c2ccc(S(=O)(=O)NCc3ccccc3)cc2)cc1C(=O)N1CCOCC1 (protonated)
Cn1cc([N-]S(=O)(=O)c2ccc(S(=O)(=O)NCc3ccccc3)cc2)cc1C(=O)N1CCOCC1 (3D coordinates assigned)
Cn1cc([N-]S(=O)(=O)c2ccc(S(=O)(=O)NCc3ccccc3)cc2)cc1C(=O)N1CCOCC1 (nonaromatic ring conformer: 97.63145281204706 kcal/mol)

>  <smiles>  (32) 
Cn1cc(NS(=O)(=O)c2ccc(S(=O)(=O)NCc3ccccc3)cc2)cc1C(=O)N1CCOCC1

>  <score_type>  (32) 
oracle

>  <origin>  (32) 
adg

>  <m_score__min__energy>  (32) 
-11.01

>  <m_primary>  (32) 
energy

$$$$
32:0
     RDKit          3D

 54 56  0  0  0  0  0  0  0  0999 V2000
   61.3108   29.8379   47.4369 H   0  0  0  0  0  0  0  0  0  0  0  0
   60.3740   30.1070   46.9270 C   0  0  0  0  0  0  0  0  0  0  0  0
   59.8810   31.3640   47.0310 N   0  0  0  0  0  0  0  0  0  0  0  0
   58.7250   31.7270   46.4140 C   0  0  0  0  0  0  0  0  0  0  0  0
   58.2620   32.9420   46.5120 N   0  0  0  0  0  0  0  0  0  0  0  0
   58.5710   34.0580   45.6620 C   0  0  0  0  0  0  0  0  0  0  0  0
   57.9620   34.2410   44.5720 O   0  0  0  0  0  0  0  0  0  0  0  0
   59.6010   35.0490   46.1040 C   0  0  0  0  0  0  0  0  0  0  0  0
   60.0930   35.4813   45.2202 H   0  0  0  0  0  0  0  0  0  0  0  0
   59.1104   35.8438   46.6850 H   0  0  0  0  0  0  0  0  0  0  0  0
   60.6310   34.3730   46.9660 C   0  0  0  0  0  0  0  0  0  0  0  0
   61.8140   33.8690   46.3950 C   0  0  0  0  0  0  0  0  0  0  0  0
   61.9788   33.9543   45.3108 H   0  0  0  0  0  0  0  0  0  0  0  0
   62.7810   33.2600   47.2010 C   0  0  0  0  0  0  0  0  0  0  0  0
   63.7006   32.8601   46.7489 H   0  0  0  0  0  0  0  0  0  0  0  0
   62.5800   33.1590   48.5810 C   0  0  0  0  0  0  0  0  0  0  0  0
   63.3395   32.6757   49.2132 H   0  0  0  0  0  0  0  0  0  0  0  0
   61.4140   33.6720   49.1580 C   0  0  0  0  0  0  0  0  0  0  0  0
   61.2586   33.5941   50.2442 H   0  0  0  0  0  0  0  0  0  0  0  0
   60.4450   34.2840   48.3560 C   0  0  0  0  0  0  0  0  0  0  0  0
   59.5345   34.6969   48.8149 H   0  0  0  0  0  0  0  0  0  0  0  0
   58.0270   30.7720   45.6560 C   0  0  0  0  0  0  0  0  0  0  0  0
   56.9580   31.1070   45.0710 O   0  0  0  0  0  0  0  0  0  0  0  0
   58.5110   29.4890   45.5470 N   0  0  0  0  0  0  0  0  0  0  0  0
   57.8100   28.5100   44.6950 C   0  0  0  0  0  0  0  0  0  0  0  0
   58.4047   27.5866   44.6343 H   0  0  0  0  0  0  0  0  0  0  0  0
   57.6787   28.9328   43.6880 H   0  0  0  0  0  0  0  0  0  0  0  0
   56.4670   28.1990   45.2800 C   0  0  0  0  0  0  0  0  0  0  0  0
   55.5050   28.9960   45.1130 O   0  0  0  0  0  0  0  0  0  0  0  0
   56.3050   27.0230   46.0740 N   0  0  0  0  0  0  0  0  0  0  0  0
   57.4250   26.2880   46.6430 C   0  0  0  0  0  0  0  0  0  0  0  0
   57.6851   26.7138   47.6233 H   0  0  0  0  0  0  0  0  0  0  0  0
   58.2950   26.3616   45.9740 H   0  0  0  0  0  0  0  0  0  0  0  0
   57.0340   24.8480   46.8080 C   0  0  0  0  0  0  0  0  0  0  0  0
   56.2040   24.4670   47.8730 C   0  0  0  0  0  0  0  0  0  0  0  0
   55.8186   25.2282   48.5674 H   0  0  0  0  0  0  0  0  0  0  0  0
   55.8660   23.1260   48.0540 C   0  0  0  0  0  0  0  0  0  0  0  0
   55.2124   22.8339   48.8892 H   0  0  0  0  0  0  0  0  0  0  0  0
   56.3540   22.1520   47.1790 C   0  0  0  0  0  0  0  0  0  0  0  0
   56.0831   21.0966   47.3298 H   0  0  0  0  0  0  0  0  0  0  0  0
   57.1900   22.5130   46.1060 C   0  0  0  0  0  0  0  0  0  0  0  0
   57.7090   21.5430   45.1780 N   0  0  0  0  0  0  0  0  0  0  0  0
   58.4030   20.8410   45.5180 H   0  0  0  0  0  0  0  0  0  0  0  0
   57.2430   21.4210   43.5090 S   0  0  0  0  0  0  0  0  0  0  0  0
   56.1940   20.3510   43.3740 O   0  0  0  0  0  0  0  0  0  0  0  0
   58.4290   21.0410   42.6660 O   0  0  0  0  0  0  0  0  0  0  0  0
   56.5550   22.9690   42.9560 C   0  0  0  0  0  0  0  0  0  0  0  0
   56.2827   23.5816   43.8281 H   0  0  0  0  0  0  0  0  0  0  0  0
   57.2995   23.5052   42.3493 H   0  0  0  0  0  0  0  0  0  0  0  0
   55.6581   22.7757   42.3493 H   0  0  0  0  0  0  0  0  0  0  0  0
   57.5300   23.8660   45.9350 C   0  0  0  0  0  0  0  0  0  0  0  0
   58.1926   24.1593   45.1074 H   0  0  0  0  0  0  0  0  0  0  0  0
   59.6900   29.1540   46.1710 C   0  0  0  0  0  0  0  0  0  0  0  0
   60.4050   27.5460   46.0410 Cl  0  0  0  0  0  0  0  0  0  0  0  0
  1  2  1  0
  2  3  1  0
  3  4  1  0
  4  5  2  0
  5  6  1  0
  6  7  2  0
  6  8  1  0
  8  9  1  0
  8 10  1  0
  8 11  1  0
 11 12  2  0
 12 13  1  0
 12 14  1  0
 14 15  1  0
 14 16  2  0
 16 17  1  0
 16 18  1  0
 18 19  1  0
 18 20  2  0
 20 21  1  0
  4 22  1  0
 22 23  2  0
 22 24  1  0
 24 25  1  0
 25 26  1  0
 25 27  1  0
 25 28  1  0
 28 29  2  0
 28 30  1  0
 30 31  1  0
 31 32  1  0
 31 33  1  0
 31 34  1  0
 34 35  2  0
 35 36  1  0
 35 37  1  0
 37 38  1  0
 37 39  2  0
 39 40  1  0
 39 41  1  0
 41 42  1  0
 42 43  1  0
 42 44  1  0
 44 45  2  0
 44 46  2  0
 44 47  1  0
 47 48  1  0
 47 49  1  0
 47 50  1  0
 41 51  2  0
 51 52  1  0
 24 53  1  0
 53 54  1  0
 53  2  2  0
 20 11  1  0
 51 34  1  0
M  CHG  2   3  -1  30  -1
M  END
>  <UniqueID>  (33) 
32

>  <SMILES>  (33) 
CS(=O)(=O)Nc1cccc(C[N-]C(=O)Cn2c(Cl)c[n-]/c(=N\C(=O)Cc3ccccc3)c2=O)c1

>  <Energy>  (33) 
56.55848604398148

>  <Genealogy>  (33) 
CS(=O)(=O)Nc1cccc(C[N-]C(=O)Cn2c(Cl)c[n-]c(=NC(=O)Cc3ccccc3)c2=O)c1 (protonated)
CS(=O)(=O)Nc1cccc(C[N-]C(=O)Cn2c(Cl)c[n-]/c(=N\C(=O)Cc3ccccc3)c2=O)c1 (cis-trans isomerization)
CS(=O)(=O)Nc1cccc(C[N-]C(=O)Cn2c(Cl)c[n-]/c(=N\C(=O)Cc3ccccc3)c2=O)c1 (3D coordinates assigned)
CS(=O)(=O)Nc1cccc(C[N-]C(=O)Cn2c(Cl)c[n-]/c(=N\C(=O)Cc3ccccc3)c2=O)c1 (optimized conformer: 56.55848604398148 kcal/mol)

>  <smiles>  (33) 
CS(=O)(=O)Nc1cccc(CNC(=O)Cn2c(Cl)c[nH]c(=NC(=O)Cc3ccccc3)c2=O)c1

>  <score_type>  (33) 
oracle

>  <origin>  (33) 
adg

>  <m_score__min__energy>  (33) 
-13.67

>  <m_primary>  (33) 
energy

$$$$
33:0
     RDKit          3D

 34 36  0  0  0  0  0  0  0  0999 V2000
   55.1610   29.3330   44.7520 N   0  0  0  0  0  0  0  0  0  0  0  0
   56.7400   30.0320   44.6620 S   0  0  0  0  0  0  0  0  0  0  0  0
   56.6250   31.5230   44.7930 O   0  0  0  0  0  0  0  0  0  0  0  0
   57.3310   29.6900   43.3230 O   0  0  0  0  0  0  0  0  0  0  0  0
   57.7580   29.3970   45.9620 C   0  0  0  0  0  0  0  0  0  0  0  0
   58.6430   30.2720   46.6160 C   0  0  0  0  0  0  0  0  0  0  0  0
   59.4050   29.8250   47.6970 C   0  0  0  0  0  0  0  0  0  0  0  0
   59.3150   28.4950   48.1200 C   0  0  0  0  0  0  0  0  0  0  0  0
   58.4360   27.6160   47.4830 C   0  0  0  0  0  0  0  0  0  0  0  0
   57.6730   28.0490   46.3900 C   0  0  0  0  0  0  0  0  0  0  0  0
   56.8100   27.1090   45.7370 N   0  0  0  0  0  0  0  0  0  0  0  0
   56.4890   25.8390   46.3250 C   0  0  0  0  0  0  0  0  0  0  0  0
   56.8730   25.5770   47.4970 O   0  0  0  0  0  0  0  0  0  0  0  0
   55.7050   24.8410   45.5660 C   0  0  0  0  0  0  0  0  0  0  0  0
   56.3160   24.0110   44.6150 C   0  0  0  0  0  0  0  0  0  0  0  0
   55.5250   23.0930   43.9220 C   0  0  0  0  0  0  0  0  0  0  0  0
   56.0430   22.3320   43.0630 O   0  0  0  0  0  0  0  0  0  0  0  0
   54.1930   23.0170   44.1760 N   0  0  0  0  0  0  0  0  0  0  0  0
   53.6130   23.8280   45.0980 C   0  0  0  0  0  0  0  0  0  0  0  0
   52.3780   23.7460   45.3200 O   0  0  0  0  0  0  0  0  0  0  0  0
   54.3660   24.7290   45.7820 N   0  0  0  0  0  0  0  0  0  0  0  0
   60.1150   28.0620   49.1810 O   0  0  0  0  0  0  0  0  0  0  0  0
   61.2060   28.8550   49.6540 C   0  0  0  0  0  0  0  0  0  0  0  0
   60.8270   30.3420   49.6410 C   0  0  0  0  0  0  0  0  0  0  0  0
   60.2630   30.6970   48.3760 O   0  0  0  0  0  0  0  0  0  0  0  0
   55.1460   28.7230   45.6000 H   0  0  0  0  0  0  0  0  0  0  0  0
   58.7355   31.3135   46.2744 H   0  0  0  0  0  0  0  0  0  0  0  0
   58.3423   26.5800   47.8406 H   0  0  0  0  0  0  0  0  0  0  0  0
   56.2640   27.4420   44.9110 H   0  0  0  0  0  0  0  0  0  0  0  0
   57.3961   24.0819   44.4192 H   0  0  0  0  0  0  0  0  0  0  0  0
   61.4556   28.5529   50.6818 H   0  0  0  0  0  0  0  0  0  0  0  0
   62.0733   28.7005   48.9953 H   0  0  0  0  0  0  0  0  0  0  0  0
   60.0904   30.5361   50.4345 H   0  0  0  0  0  0  0  0  0  0  0  0
   61.7314   30.9443   49.8124 H   0  0  0  0  0  0  0  0  0  0  0  0
  1  2  1  0
  2  3  2  0
  2  4  2  0
  2  5  1  0
  5  6  2  0
  6  7  1  0
  7  8  2  0
  8  9  1  0
  9 10  2  0
 10 11  1  0
 11 12  1  0
 12 13  2  0
 12 14  1  0
 14 15  2  0
 15 16  1  0
 16 17  2  0
 16 18  1  0
 18 19  1  0
 19 20  2  0
 19 21  1  0
  8 22  1  0
 22 23  1  0
 23 24  1  0
 24 25  1  0
 10  5  1  0
 21 14  1  0
 25  7  1  0
  1 26  1  0
  6 27  1  0
  9 28  1  0
 11 29  1  0
 15 30  1  0
 23 31  1  0
 23 32  1  0
 24 33  1  0
 24 34  1  0
M  CHG  3   1  -1  18  -1  21  -1
M  END
>  <UniqueID>  (34) 
33

>  <SMILES>  (34) 
[NH-]S(=O)(=O)c1cc2c(cc1NC(=O)c1cc(=O)[n-]c(=O)[n-]1)OCCO2

>  <Energy>  (34) 
45.3403584394239

>  <Genealogy>  (34) 
[NH-]S(=O)(=O)c1cc2c(cc1NC(=O)c1cc(=O)[n-]c(=O)[n-]1)OCCO2 (protonated)
[NH-]S(=O)(=O)c1cc2c(cc1NC(=O)c1cc(=O)[n-]c(=O)[n-]1)OCCO2 (3D coordinates assigned)
[NH-]S(=O)(=O)c1cc2c(cc1NC(=O)c1cc(=O)[n-]c(=O)[n-]1)OCCO2 (nonaromatic ring conformer: 45.3403584394239 kcal/mol)

>  <smiles>  (34) 
NS(=O)(=O)c1cc2c(cc1NC(=O)c1cc(=O)[nH]c(=O)[nH]1)OCCO2

>  <score_type>  (34) 
oracle

>  <origin>  (34) 
adg

>  <m_score__min__energy>  (34) 
-14.27

>  <m_primary>  (34) 
energy

$$$$
34:0
     RDKit          3D

 50 53  0  0  0  0  0  0  0  0999 V2000
   55.1320   29.3290   44.8040 N   0  0  0  0  0  0  0  0  0  0  0  0
   56.7010   29.5360   44.1090 S   0  0  0  0  0  0  0  0  0  0  0  0
   57.3100   28.1900   43.8270 O   0  0  0  0  0  0  0  0  0  0  0  0
   56.5810   30.2930   42.8150 O   0  0  0  0  0  0  0  0  0  0  0  0
   57.7230   30.4230   45.2340 C   0  0  0  0  0  0  0  0  0  0  0  0
   58.2140   29.8010   46.3890 C   0  0  0  0  0  0  0  0  0  0  0  0
   59.0410   30.5030   47.2710 C   0  0  0  0  0  0  0  0  0  0  0  0
   59.3900   31.8390   47.0070 C   0  0  0  0  0  0  0  0  0  0  0  0
   60.2820   32.5770   47.9360 C   0  0  0  0  0  0  0  0  0  0  0  0
   61.3910   31.9220   48.5000 C   0  0  0  0  0  0  0  0  0  0  0  0
   62.2640   32.5950   49.3700 C   0  0  0  0  0  0  0  0  0  0  0  0
   63.3860   31.9010   49.9500 N   0  0  0  0  0  0  0  0  0  0  0  0
   63.2940   30.6980   50.7780 C   0  0  0  0  0  0  0  0  0  0  0  0
   64.7220   30.4350   51.3160 C   0  0  0  0  0  0  0  0  0  0  0  0
   65.5570   31.4910   50.7550 N   0  0  0  0  0  0  0  0  0  0  0  0
   67.0140   31.5460   50.8410 C   0  0  0  0  0  0  0  0  0  0  0  0
   67.4630   32.9480   51.1430 C   0  0  0  0  0  0  0  0  0  0  0  0
   66.7410   33.7460   52.0460 C   0  0  0  0  0  0  0  0  0  0  0  0
   67.1430   35.0610   52.3010 C   0  0  0  0  0  0  0  0  0  0  0  0
   68.2600   35.5900   51.6500 C   0  0  0  0  0  0  0  0  0  0  0  0
   68.9780   34.8070   50.7420 C   0  0  0  0  0  0  0  0  0  0  0  0
   68.5790   33.4910   50.4830 C   0  0  0  0  0  0  0  0  0  0  0  0
   64.7420   32.3070   49.9380 C   0  0  0  0  0  0  0  0  0  0  0  0
   65.1900   33.2480   49.2320 O   0  0  0  0  0  0  0  0  0  0  0  0
   62.0070   33.9380   49.6860 C   0  0  0  0  0  0  0  0  0  0  0  0
   60.9030   34.5950   49.1400 C   0  0  0  0  0  0  0  0  0  0  0  0
   60.0350   33.9230   48.2700 C   0  0  0  0  0  0  0  0  0  0  0  0
   58.9170   34.5850   47.7620 O   0  0  0  0  0  0  0  0  0  0  0  0
   58.9050   32.4550   45.8400 C   0  0  0  0  0  0  0  0  0  0  0  0
   58.0780   31.7500   44.9600 C   0  0  0  0  0  0  0  0  0  0  0  0
   55.2430   28.6950   45.6270 H   0  0  0  0  0  0  0  0  0  0  0  0
   57.9477   28.7554   46.6031 H   0  0  0  0  0  0  0  0  0  0  0  0
   59.4207   30.0072   48.1765 H   0  0  0  0  0  0  0  0  0  0  0  0
   61.5777   30.8658   48.2559 H   0  0  0  0  0  0  0  0  0  0  0  0
   62.5961   30.8616   51.6124 H   0  0  0  0  0  0  0  0  0  0  0  0
   62.9187   29.8407   50.1999 H   0  0  0  0  0  0  0  0  0  0  0  0
   64.7322   30.4814   52.4150 H   0  0  0  0  0  0  0  0  0  0  0  0
   65.0851   29.4365   51.0312 H   0  0  0  0  0  0  0  0  0  0  0  0
   67.3564   30.8742   51.6419 H   0  0  0  0  0  0  0  0  0  0  0  0
   67.4427   31.2311   49.8782 H   0  0  0  0  0  0  0  0  0  0  0  0
   65.8563   33.3351   52.5543 H   0  0  0  0  0  0  0  0  0  0  0  0
   66.5791   35.6793   53.0149 H   0  0  0  0  0  0  0  0  0  0  0  0
   68.5749   36.6244   51.8524 H   0  0  0  0  0  0  0  0  0  0  0  0
   69.8574   35.2255   50.2306 H   0  0  0  0  0  0  0  0  0  0  0  0
   69.1402   32.8797   49.7609 H   0  0  0  0  0  0  0  0  0  0  0  0
   62.6804   34.4768   50.3688 H   0  0  0  0  0  0  0  0  0  0  0  0
   60.7133   35.6481   49.3948 H   0  0  0  0  0  0  0  0  0  0  0  0
   58.8020   35.5880   47.8600 H   0  0  0  0  0  0  0  0  0  0  0  0
   59.1776   33.4973   45.6179 H   0  0  0  0  0  0  0  0  0  0  0  0
   57.7046   32.2397   44.0485 H   0  0  0  0  0  0  0  0  0  0  0  0
  1  2  1  0
  2  3  2  0
  2  4  2  0
  2  5  1  0
  5  6  2  0
  6  7  1  0
  7  8  2  0
  8  9  1  0
  9 10  2  0
 10 11  1  0
 11 12  1  0
 12 13  1  0
 13 14  1  0
 14 15  1  0
 15 16  1  0
 16 17  1  0
 17 18  2  0
 18 19  1  0
 19 20  2  0
 20 21  1  0
 21 22  2  0
 15 23  1  0
 23 24  2  0
 11 25  2  0
 25 26  1  0
 26 27  2  0
 27 28  1  0
  8 29  1  0
 29 30  2  0
 30  5  1  0
 27  9  1  0
 23 12  1  0
 22 17  1  0
  1 31  1  0
  6 32  1  0
  7 33  1  0
 10 34  1  0
 13 35  1  0
 13 36  1  0
 14 37  1  0
 14 38  1  0
 16 39  1  0
 16 40  1  0
 18 41  1  0
 19 42  1  0
 20 43  1  0
 21 44  1  0
 22 45  1  0
 25 46  1  0
 26 47  1  0
 28 48  1  0
 29 49  1  0
 30 50  1  0
M  CHG  1   1  -1
M  END
>  <UniqueID>  (35) 
34

>  <SMILES>  (35) 
[NH-]S(=O)(=O)c1ccc(-c2cc(N3CCN(Cc4ccccc4)C3=O)ccc2O)cc1

>  <Energy>  (35) 
74.80778218156084

>  <Genealogy>  (35) 
[NH-]S(=O)(=O)c1ccc(-c2cc(N3CCN(Cc4ccccc4)C3=O)ccc2O)cc1 (protonated)
[NH-]S(=O)(=O)c1ccc(-c2cc(N3CCN(Cc4ccccc4)C3=O)ccc2O)cc1 (3D coordinates assigned)
[NH-]S(=O)(=O)c1ccc(-c2cc(N3CCN(Cc4ccccc4)C3=O)ccc2O)cc1 (nonaromatic ring conformer: 74.80778218156084 kcal/mol)

>  <smiles>  (35) 
NS(=O)(=O)c1ccc(-c2cc(N3CCN(Cc4ccccc4)C3=O)ccc2O)cc1

>  <score_type>  (35) 
oracle

>  <origin>  (35) 
adg

>  <m_score__min__energy>  (35) 
-11.699999999999999

>  <m_primary>  (35) 
energy

$$$$
35:0
     RDKit          3D

 60 63  0  0  0  0  0  0  0  0999 V2000
   60.0540   22.6270   45.5810 O   0  0  0  0  0  0  0  0  0  0  0  0
   59.1940   23.5340   45.4250 C   0  0  0  0  0  0  0  0  0  0  0  0
   58.1620   23.3820   44.3340 C   0  0  0  0  0  0  0  0  0  0  0  0
   56.8860   24.1960   44.6210 C   0  0  0  0  0  0  0  0  0  0  0  0
   57.1730   25.6720   44.7470 C   0  0  0  0  0  0  0  0  0  0  0  0
   56.6190   26.4140   45.8030 C   0  0  0  0  0  0  0  0  0  0  0  0
   56.8890   27.7780   45.9280 C   0  0  0  0  0  0  0  0  0  0  0  0
   57.6970   28.4330   44.9840 C   0  0  0  0  0  0  0  0  0  0  0  0
   57.9610   29.8410   45.1030 N   0  0  0  0  0  0  0  0  0  0  0  0
   57.0660   30.9240   44.8190 C   0  0  0  0  0  0  0  0  0  0  0  0
   55.8870   30.7830   44.3990 O   0  0  0  0  0  0  0  0  0  0  0  0
   57.7030   32.1970   45.1430 C   0  0  0  0  0  0  0  0  0  0  0  0
   57.2320   33.5060   45.0370 C   0  0  0  0  0  0  0  0  0  0  0  0
   58.0920   34.5490   45.4220 C   0  0  0  0  0  0  0  0  0  0  0  0
   59.3920   34.2670   45.8970 C   0  0  0  0  0  0  0  0  0  0  0  0
   59.8390   32.9390   46.0070 C   0  0  0  0  0  0  0  0  0  0  0  0
   58.9640   31.9210   45.6270 C   0  0  0  0  0  0  0  0  0  0  0  0
   59.1380   30.4730   45.6150 C   0  0  0  0  0  0  0  0  0  0  0  0
   60.1860   29.8610   45.9540 O   0  0  0  0  0  0  0  0  0  0  0  0
   58.2430   27.6930   43.9230 C   0  0  0  0  0  0  0  0  0  0  0  0
   57.9930   26.3220   43.8130 C   0  0  0  0  0  0  0  0  0  0  0  0
   59.1560   24.6120   46.3710 N   0  0  0  0  0  0  0  0  0  0  0  0
   59.9070   25.6740   46.4330 C   0  0  0  0  0  0  0  0  0  0  0  0
   59.8830   26.6680   47.5240 C   0  0  0  0  0  0  0  0  0  0  0  0
   58.9150   27.4660   47.6620 O   0  0  0  0  0  0  0  0  0  0  0  0
   61.0150   26.7560   48.3960 N   0  0  0  0  0  0  0  0  0  0  0  0
   60.9390   27.0850   49.8150 C   0  0  0  0  0  0  0  0  0  0  0  0
   60.6590   28.5470   49.9890 C   0  0  0  0  0  0  0  0  0  0  0  0
   60.6640   29.0520   51.1470 O   0  0  0  0  0  0  0  0  0  0  0  0
   60.4610   29.3860   48.8400 N   0  0  0  0  0  0  0  0  0  0  0  0
   60.0560   30.7860   48.9460 C   0  0  0  0  0  0  0  0  0  0  0  0
   61.2030   31.6750   48.5540 C   0  0  0  0  0  0  0  0  0  0  0  0
   61.3060   32.9770   49.0760 C   0  0  0  0  0  0  0  0  0  0  0  0
   62.4020   33.7820   48.7490 C   0  0  0  0  0  0  0  0  0  0  0  0
   63.4080   33.2880   47.9110 C   0  0  0  0  0  0  0  0  0  0  0  0
   63.3170   31.9930   47.3940 C   0  0  0  0  0  0  0  0  0  0  0  0
   62.2210   31.1870   47.7180 C   0  0  0  0  0  0  0  0  0  0  0  0
   58.5967   23.7282   43.3847 H   0  0  0  0  0  0  0  0  0  0  0  0
   57.8800   22.3200   44.2821 H   0  0  0  0  0  0  0  0  0  0  0  0
   56.1737   24.0419   43.7971 H   0  0  0  0  0  0  0  0  0  0  0  0
   56.4693   23.8482   45.5778 H   0  0  0  0  0  0  0  0  0  0  0  0
   55.9677   25.9168   46.5369 H   0  0  0  0  0  0  0  0  0  0  0  0
   56.4662   28.3436   46.7714 H   0  0  0  0  0  0  0  0  0  0  0  0
   56.2187   33.7154   44.6636 H   0  0  0  0  0  0  0  0  0  0  0  0
   57.7502   35.5923   45.3529 H   0  0  0  0  0  0  0  0  0  0  0  0
   60.0597   35.0931   46.1830 H   0  0  0  0  0  0  0  0  0  0  0  0
   60.8476   32.7094   46.3812 H   0  0  0  0  0  0  0  0  0  0  0  0
   58.8718   28.1955   43.1732 H   0  0  0  0  0  0  0  0  0  0  0  0
   58.4424   25.7491   42.9884 H   0  0  0  0  0  0  0  0  0  0  0  0
   60.6145   25.8436   45.6080 H   0  0  0  0  0  0  0  0  0  0  0  0
   60.1314   26.5016   50.2812 H   0  0  0  0  0  0  0  0  0  0  0  0
   61.8993   26.8423   50.2934 H   0  0  0  0  0  0  0  0  0  0  0  0
   60.4830   28.9540   47.8880 H   0  0  0  0  0  0  0  0  0  0  0  0
   59.2035   30.9720   48.2762 H   0  0  0  0  0  0  0  0  0  0  0  0
   59.7639   31.0037   49.9839 H   0  0  0  0  0  0  0  0  0  0  0  0
   60.5219   33.3635   49.7437 H   0  0  0  0  0  0  0  0  0  0  0  0
   62.4732   34.8036   49.1506 H   0  0  0  0  0  0  0  0  0  0  0  0
   64.2720   33.9203   47.6588 H   0  0  0  0  0  0  0  0  0  0  0  0
   64.1070   31.6078   46.7326 H   0  0  0  0  0  0  0  0  0  0  0  0
   62.1557   30.1652   47.3160 H   0  0  0  0  0  0  0  0  0  0  0  0
  1  2  2  0
  2  3  1  0
  3  4  1  0
  4  5  1  0
  5  6  2  0
  6  7  1  0
  7  8  2  0
  8  9  1  0
  9 10  1  0
 10 11  2  0
 10 12  1  0
 12 13  2  0
 13 14  1  0
 14 15  2  0
 15 16  1  0
 16 17  2  0
 17 18  1  0
 18 19  2  0
  8 20  1  0
 20 21  2  0
  2 22  1  0
 22 23  2  3
 23 24  1  0
 24 25  2  0
 24 26  1  0
 26 27  1  0
 27 28  1  0
 28 29  2  0
 28 30  1  0
 30 31  1  0
 31 32  1  0
 32 33  2  0
 33 34  1  0
 34 35  2  0
 35 36  1  0
 36 37  2  0
 21  5  1  0
 37 32  1  0
 18  9  1  0
 17 12  1  0
  3 38  1  0
  3 39  1  0
  4 40  1  0
  4 41  1  0
  6 42  1  0
  7 43  1  0
 13 44  1  0
 14 45  1  0
 15 46  1  0
 16 47  1  0
 20 48  1  0
 21 49  1  0
 23 50  1  0
 27 51  1  0
 27 52  1  0
 30 53  1  0
 31 54  1  0
 31 55  1  0
 33 56  1  0
 34 57  1  0
 35 58  1  0
 36 59  1  0
 37 60  1  0
M  CHG  1  26  -1
M  END
>  <UniqueID>  (36) 
35

>  <SMILES>  (36) 
O=C(CCc1ccc(N2C(=O)c3ccccc3C2=O)cc1)N=CC(=O)[N-]CC(=O)NCc1ccccc1

>  <Energy>  (36) 
105.30759023507507

>  <Genealogy>  (36) 
O=C(CCc1ccc(N2C(=O)c3ccccc3C2=O)cc1)N=CC(=O)[N-]CC(=O)NCc1ccccc1 (protonated)
O=C(CCc1ccc(N2C(=O)c3ccccc3C2=O)cc1)N=CC(=O)[N-]CC(=O)NCc1ccccc1 (3D coordinates assigned)
O=C(CCc1ccc(N2C(=O)c3ccccc3C2=O)cc1)N=CC(=O)[N-]CC(=O)NCc1ccccc1 (nonaromatic ring conformer: 105.30759023507507 kcal/mol)

>  <smiles>  (36) 
O=C(CCc1ccc(N2C(=O)c3ccccc3C2=O)cc1)N=CC(=O)NCC(=O)NCc1ccccc1

>  <score_type>  (36) 
oracle

>  <origin>  (36) 
adg

>  <m_score__min__energy>  (36) 
-10.69

>  <m_primary>  (36) 
energy

$$$$
36:0
     RDKit          3D

 44 46  0  0  1  0  0  0  0  0999 V2000
   57.8080   32.3080   42.7380 C   0  0  0  0  0  0  0  0  0  0  0  0
   58.0710   31.9000   44.1540 C   0  0  0  0  0  0  0  0  0  0  0  0
   58.3730   30.5820   44.4270 C   0  0  0  0  0  0  0  0  0  0  0  0
   58.6070   30.2440   45.7320 C   0  0  0  0  0  0  0  0  0  0  0  0
   58.5410   31.1950   46.7210 C   0  0  0  0  0  0  0  0  0  0  0  0
   58.2420   32.5250   46.4890 C   0  0  0  0  0  0  0  0  0  0  0  0
   58.1830   33.5090   47.4830 N   0  0  0  0  0  0  0  0  0  0  0  0
   59.2570   33.9080   48.3560 C   0  0  0  0  0  0  0  0  0  0  0  0
   60.5600   33.5680   47.7460 C   0  0  0  0  0  0  0  0  0  0  0  0
   61.0950   34.1940   46.7070 C   0  0  0  0  0  0  0  0  0  0  0  0
   62.4820   33.8420   46.3290 C   0  0  0  0  0  0  0  0  0  0  0  0
   63.0010   32.7130   47.1490 C   0  0  2  0  0  0  0  0  0  0  0  0
   61.9550   31.6160   47.1760 C   0  0  0  0  0  0  0  0  0  0  0  0
   61.3170   32.4280   48.3200 C   0  0  1  0  0  0  0  0  0  0  0  0
   62.7180   32.8700   48.6260 C   0  0  0  0  0  0  0  0  0  0  0  0
   62.9370   34.2060   49.2210 C   0  0  0  0  0  0  0  0  0  0  0  0
   63.5180   31.8010   49.3750 C   0  0  0  0  0  0  0  0  0  0  0  0
   58.0050   32.8560   45.1560 C   0  0  0  0  0  0  0  0  0  0  0  0
   57.6810   34.2500   44.8380 C   0  0  0  0  0  0  0  0  0  0  0  0
   57.2120   33.2325   42.7275 H   0  0  0  0  0  0  0  0  0  0  0  0
   58.7642   32.4823   42.2230 H   0  0  0  0  0  0  0  0  0  0  0  0
   57.2544   31.5090   42.2230 H   0  0  0  0  0  0  0  0  0  0  0  0
   58.4238   29.8306   43.6252 H   0  0  0  0  0  0  0  0  0  0  0  0
   58.8498   29.2029   45.9911 H   0  0  0  0  0  0  0  0  0  0  0  0
   58.7372   30.8806   47.7567 H   0  0  0  0  0  0  0  0  0  0  0  0
   57.2630   34.0230   47.6220 H   0  0  0  0  0  0  0  0  0  0  0  0
   59.2057   34.9940   48.5231 H   0  0  0  0  0  0  0  0  0  0  0  0
   59.1584   33.3770   49.3143 H   0  0  0  0  0  0  0  0  0  0  0  0
   60.5270   34.9498   46.1447 H   0  0  0  0  0  0  0  0  0  0  0  0
   62.5006   33.5515   45.2682 H   0  0  0  0  0  0  0  0  0  0  0  0
   63.1213   34.7195   46.5059 H   0  0  0  0  0  0  0  0  0  0  0  0
   64.0295   32.5967   46.7766 H   0  0  0  0  0  0  0  0  0  0  0  0
   61.3433   31.5312   46.2657 H   0  0  0  0  0  0  0  0  0  0  0  0
   62.2095   30.5499   47.2696 H   0  0  0  0  0  0  0  0  0  0  0  0
   60.6387   31.9940   49.0693 H   0  0  0  0  0  0  0  0  0  0  0  0
   62.9238   34.1255   50.3180 H   0  0  0  0  0  0  0  0  0  0  0  0
   63.9114   34.5979   48.8938 H   0  0  0  0  0  0  0  0  0  0  0  0
   62.1387   34.8884   48.8938 H   0  0  0  0  0  0  0  0  0  0  0  0
   63.4056   31.9512   50.4589 H   0  0  0  0  0  0  0  0  0  0  0  0
   63.1425   30.8037   49.1021 H   0  0  0  0  0  0  0  0  0  0  0  0
   64.5807   31.8800   49.1021 H   0  0  0  0  0  0  0  0  0  0  0  0
   57.5490   34.8178   45.7709 H   0  0  0  0  0  0  0  0  0  0  0  0
   58.5003   34.6924   44.2523 H   0  0  0  0  0  0  0  0  0  0  0  0
   56.7506   34.2858   44.2523 H   0  0  0  0  0  0  0  0  0  0  0  0
  1  2  1  0
  2  3  2  0
  3  4  1  0
  4  5  2  0
  5  6  1  0
  6  7  1  0
  7  8  1  0
  8  9  1  0
  9 10  2  0
 10 11  1  0
 11 12  1  0
 12 13  1  0
 13 14  1  0
 14 15  1  0
 15 16  1  0
 15 17  1  0
  6 18  2  0
 18 19  1  0
 18  2  1  0
 14  9  1  0
 15 12  1  0
  1 20  1  0
  1 21  1  0
  1 22  1  0
  3 23  1  0
  4 24  1  0
  5 25  1  0
  7 26  1  0
  8 27  1  0
  8 28  1  0
 10 29  1  0
 11 30  1  0
 11 31  1  0
 12 32  1  1
 13 33  1  0
 13 34  1  0
 14 35  1  1
 16 36  1  0
 16 37  1  0
 16 38  1  0
 17 39  1  0
 17 40  1  0
 17 41  1  0
 19 42  1  0
 19 43  1  0
 19 44  1  0
M  END
>  <smiles>  (37) 
Cc1cccc(NCC2=CCC3CC2C3(C)C)c1C

>  <score_type>  (37) 
oracle

>  <origin>  (37) 
adg

>  <m_score__min__energy>  (37) 
-7.6600000000000001

>  <m_primary>  (37) 
energy

$$$$
37:0
     RDKit          3D

 54 57  0  0  0  0  0  0  0  0999 V2000
   55.5740   30.3530   44.4580 O   0  0  0  0  0  0  0  0  0  0  0  0
   56.7610   30.7540   44.5840 C   0  0  0  0  0  0  0  0  0  0  0  0
   56.9930   32.0300   45.1940 N   0  0  0  0  0  0  0  0  0  0  0  0
   58.1770   32.4390   45.8910 C   0  0  0  0  0  0  0  0  0  0  0  0
   59.0300   33.3710   45.2920 C   0  0  0  0  0  0  0  0  0  0  0  0
   60.1780   33.8100   45.9580 C   0  0  0  0  0  0  0  0  0  0  0  0
   60.4820   33.3330   47.2460 C   0  0  0  0  0  0  0  0  0  0  0  0
   61.6610   33.7930   47.9400 N   0  0  0  0  0  0  0  0  0  0  0  0
   61.5550   34.4130   49.2670 C   0  0  0  0  0  0  0  0  0  0  0  0
   62.1990   33.5210   50.3340 C   0  0  0  0  0  0  0  0  0  0  0  0
   63.8180   32.7930   49.8500 S   0  0  0  0  0  0  0  0  0  0  0  0
   64.1210   33.7790   48.3440 C   0  0  0  0  0  0  0  0  0  0  0  0
   62.9870   33.5820   47.3360 C   0  0  0  0  0  0  0  0  0  0  0  0
   59.6000   32.4260   47.8590 C   0  0  0  0  0  0  0  0  0  0  0  0
   58.4540   31.9880   47.1900 C   0  0  0  0  0  0  0  0  0  0  0  0
   57.8850   29.9490   43.9610 C   0  0  2  0  0  0  0  0  0  0  0  0
   57.3660   28.5740   43.4730 C   0  0  0  0  0  0  0  0  0  0  0  0
   57.7070   27.4600   44.4720 C   0  0  0  0  0  0  0  0  0  0  0  0
   59.1730   27.3090   44.6410 N   0  0  2  0  0  0  0  0  0  0  0  0
   59.5030   26.4510   46.1280 S   0  0  0  0  0  0  0  0  0  0  0  0
   58.3840   25.4920   46.4280 O   0  0  0  0  0  0  0  0  0  0  0  0
   60.7850   25.6770   46.0030 O   0  0  0  0  0  0  0  0  0  0  0  0
   59.6660   27.5930   47.4510 C   0  0  0  0  0  0  0  0  0  0  0  0
   60.7390   27.6770   48.3260 C   0  0  0  0  0  0  0  0  0  0  0  0
   60.5720   28.6730   49.2960 C   0  0  0  0  0  0  0  0  0  0  0  0
   59.3710   29.3640   49.1840 C   0  0  0  0  0  0  0  0  0  0  0  0
   58.5140   28.7360   47.8790 S   0  0  0  0  0  0  0  0  0  0  0  0
   59.9320   28.5890   44.5870 C   0  0  0  0  0  0  0  0  0  0  0  0
   59.0700   29.8070   44.9450 C   0  0  0  0  0  0  0  0  0  0  0  0
   58.7963   33.7612   44.2904 H   0  0  0  0  0  0  0  0  0  0  0  0
   60.8485   34.5337   45.4714 H   0  0  0  0  0  0  0  0  0  0  0  0
   62.0671   35.3864   49.2528 H   0  0  0  0  0  0  0  0  0  0  0  0
   60.4908   34.5455   49.5117 H   0  0  0  0  0  0  0  0  0  0  0  0
   62.3521   34.1259   51.2399 H   0  0  0  0  0  0  0  0  0  0  0  0
   61.5119   32.6762   50.4897 H   0  0  0  0  0  0  0  0  0  0  0  0
   64.1835   34.8433   48.6149 H   0  0  0  0  0  0  0  0  0  0  0  0
   65.0648   33.4476   47.8863 H   0  0  0  0  0  0  0  0  0  0  0  0
   63.1182   34.2979   46.5112 H   0  0  0  0  0  0  0  0  0  0  0  0
   63.0322   32.5433   46.9767 H   0  0  0  0  0  0  0  0  0  0  0  0
   59.8137   32.0581   48.8734 H   0  0  0  0  0  0  0  0  0  0  0  0
   57.7660   31.2864   47.6843 H   0  0  0  0  0  0  0  0  0  0  0  0
   58.2589   30.4899   43.0791 H   0  0  0  0  0  0  0  0  0  0  0  0
   56.2737   28.6256   43.3536 H   0  0  0  0  0  0  0  0  0  0  0  0
   57.8529   28.3405   42.5146 H   0  0  0  0  0  0  0  0  0  0  0  0
   57.2585   27.7044   45.4462 H   0  0  0  0  0  0  0  0  0  0  0  0
   57.3060   26.5129   44.0818 H   0  0  0  0  0  0  0  0  0  0  0  0
   59.5220   26.6980   43.8650 H   0  0  0  0  0  0  0  0  0  0  0  0
   61.6266   27.0301   48.2645 H   0  0  0  0  0  0  0  0  0  0  0  0
   61.3203   28.8882   50.0730 H   0  0  0  0  0  0  0  0  0  0  0  0
   59.0372   30.1830   49.8380 H   0  0  0  0  0  0  0  0  0  0  0  0
   60.7702   28.5308   45.2969 H   0  0  0  0  0  0  0  0  0  0  0  0
   60.2818   28.7233   43.5528 H   0  0  0  0  0  0  0  0  0  0  0  0
   58.6786   29.6845   45.9657 H   0  0  0  0  0  0  0  0  0  0  0  0
   59.6928   30.7114   44.8800 H   0  0  0  0  0  0  0  0  0  0  0  0
  1  2  2  0
  2  3  1  0
  3  4  1  0
  4  5  2  0
  5  6  1  0
  6  7  2  0
  7  8  1  0
  8  9  1  0
  9 10  1  0
 10 11  1  0
 11 12  1  0
 12 13  1  0
  7 14  1  0
 14 15  2  0
  2 16  1  0
 16 17  1  0
 17 18  1  0
 18 19  1  0
 19 20  1  0
 20 21  2  0
 20 22  2  0
 20 23  1  0
 23 24  2  0
 24 25  1  0
 25 26  2  0
 26 27  1  0
 19 28  1  0
 28 29  1  0
 15  4  1  0
 29 16  1  0
 13  8  1  0
 27 23  1  0
  5 30  1  0
  6 31  1  0
  9 32  1  0
  9 33  1  0
 10 34  1  0
 10 35  1  0
 12 36  1  0
 12 37  1  0
 13 38  1  0
 13 39  1  0
 14 40  1  0
 15 41  1  0
 16 42  1  6
 17 43  1  0
 17 44  1  0
 18 45  1  0
 18 46  1  0
 19 47  1  6
 24 48  1  0
 25 49  1  0
 26 50  1  0
 28 51  1  0
 28 52  1  0
 29 53  1  0
 29 54  1  0
M  CHG  2   3  -1  19   1
M  END
>  <UniqueID>  (38) 
36

>  <SMILES>  (38) 
O=C([N-]c1ccc(N2CCSCC2)cc1)C1CC[NH+](S(=O)(=O)c2cccs2)CC1

>  <Energy>  (38) 
98.18161741601072

>  <Genealogy>  (38) 
O=C([N-]c1ccc(N2CCSCC2)cc1)C1CC[NH+](S(=O)(=O)c2cccs2)CC1 (protonated)
O=C([N-]c1ccc(N2CCSCC2)cc1)C1CC[NH+](S(=O)(=O)c2cccs2)CC1 (3D coordinates assigned)
O=C([N-]c1ccc(N2CCSCC2)cc1)C1CC[NH+](S(=O)(=O)c2cccs2)CC1 (nonaromatic ring conformer: 98.18161741601072 kcal/mol)

>  <smiles>  (38) 
O=C(Nc1ccc(N2CCSCC2)cc1)C1CCN(S(=O)(=O)c2cccs2)CC1

>  <score_type>  (38) 
oracle

>  <origin>  (38) 
adg

>  <m_score__min__energy>  (38) 
-9.5199999999999996

>  <m_primary>  (38) 
energy

$$$$
38:0
     RDKit          3D

 40 43  0  0  0  0  0  0  0  0999 V2000
   64.6380   32.4980   46.9920 H   0  0  0  0  0  0  0  0  0  0  0  0
   64.1340   32.5600   47.8450 O   0  0  0  0  0  0  0  0  0  0  0  0
   63.4180   33.7660   47.7960 C   0  0  1  0  0  0  0  0  0  0  0  0
   64.1409   34.5607   47.5597 H   0  0  0  0  0  0  0  0  0  0  0  0
   62.3190   33.7230   46.7280 C   0  0  0  0  0  0  0  0  0  0  0  0
   62.2512   32.7164   46.2897 H   0  0  0  0  0  0  0  0  0  0  0  0
   62.5284   34.4232   45.9059 H   0  0  0  0  0  0  0  0  0  0  0  0
   61.0790   34.0610   47.4140 N   0  0  0  0  0  0  0  0  0  0  0  0
   59.8310   34.3930   46.7680 C   0  0  0  0  0  0  0  0  0  0  0  0
   59.5490   35.6070   46.5770 O   0  0  0  0  0  0  0  0  0  0  0  0
   58.8580   33.3820   46.3000 C   0  0  0  0  0  0  0  0  0  0  0  0
   58.6980   32.1920   46.9280 N   0  0  0  0  0  0  0  0  0  0  0  0
   57.8110   31.3900   46.3400 N   0  0  0  0  0  0  0  0  0  0  0  0
   57.2720   31.9280   45.2250 C   0  0  0  0  0  0  0  0  0  0  0  0
   56.3600   31.3550   44.4980 N   0  0  0  0  0  0  0  0  0  0  0  0
   56.5890   30.3220   43.5260 C   0  0  0  0  0  0  0  0  0  0  0  0
   56.2900   30.5490   42.3240 O   0  0  0  0  0  0  0  0  0  0  0  0
   57.2300   29.0380   43.8820 C   0  0  0  0  0  0  0  0  0  0  0  0
   57.4270   28.1720   42.9870 O   0  0  0  0  0  0  0  0  0  0  0  0
   57.5660   28.7500   45.2490 N   0  0  0  0  0  0  0  0  0  0  0  0
   57.1710   29.3620   45.9980 H   0  0  0  0  0  0  0  0  0  0  0  0
   58.3760   27.6280   45.6460 C   0  0  0  0  0  0  0  0  0  0  0  0
   57.8380   26.3280   45.6580 C   0  0  0  0  0  0  0  0  0  0  0  0
   56.7845   26.1705   45.3835 H   0  0  0  0  0  0  0  0  0  0  0  0
   58.6320   25.2360   46.0160 C   0  0  0  0  0  0  0  0  0  0  0  0
   58.2005   24.2243   46.0301 H   0  0  0  0  0  0  0  0  0  0  0  0
   59.9730   25.4270   46.3560 C   0  0  0  0  0  0  0  0  0  0  0  0
   60.5957   24.5665   46.6420 H   0  0  0  0  0  0  0  0  0  0  0  0
   60.5230   26.7090   46.3330 C   0  0  0  0  0  0  0  0  0  0  0  0
   61.5806   26.8557   46.5973 H   0  0  0  0  0  0  0  0  0  0  0  0
   59.7350   27.8100   45.9750 C   0  0  0  0  0  0  0  0  0  0  0  0
   60.4680   29.4090   45.9810 Cl  0  0  0  0  0  0  0  0  0  0  0  0
   57.8750   33.4640   44.9270 S   0  0  0  0  0  0  0  0  0  0  0  0
   61.2590   34.2460   48.8450 C   0  0  1  0  0  0  0  0  0  0  0  0
   60.4838   34.9998   49.0472 H   0  0  0  0  0  0  0  0  0  0  0  0
   61.6920   32.9990   49.6000 C   0  0  0  0  0  0  0  0  0  0  0  0
   61.6331   32.0133   49.1154 H   0  0  0  0  0  0  0  0  0  0  0  0
   61.4270   32.5396   50.5637 H   0  0  0  0  0  0  0  0  0  0  0  0
   62.7270   34.0160   49.1370 C   0  0  1  0  0  0  0  0  0  0  0  0
   63.5630   34.4904   49.6718 H   0  0  0  0  0  0  0  0  0  0  0  0
  1  2  1  0
  2  3  1  0
  3  4  1  6
  3  5  1  0
  5  6  1  0
  5  7  1  0
  5  8  1  0
  8  9  1  0
  9 10  2  0
  9 11  1  0
 11 12  2  0
 12 13  1  0
 13 14  1  0
 14 15  2  0
 15 16  1  0
 16 17  2  0
 16 18  1  0
 18 19  2  0
 18 20  1  0
 20 21  1  0
 20 22  1  0
 22 23  2  0
 23 24  1  0
 23 25  1  0
 25 26  1  0
 25 27  2  0
 27 28  1  0
 27 29  1  0
 29 30  1  0
 29 31  2  0
 31 32  1  0
 14 33  1  0
  8 34  1  0
 34 35  1  1
 34 36  1  0
 36 37  1  0
 36 38  1  0
 36 39  1  0
 39 40  1  1
 39  3  1  0
 33 11  1  0
 39 34  1  0
 31 22  1  0
M  CHG  1  13  -1
M  END
>  <UniqueID>  (39) 
37

>  <SMILES>  (39) 
O=C(/N=c1\[n-]nc(C(=O)N2C[C@H](O)[C@@H]3CC32)s1)C(=O)Nc1ccccc1Cl

>  <Energy>  (39) 
358.19264577891136

>  <Genealogy>  (39) 
O=C(N=c1[n-]nc(C(=O)N2CC(O)C3CC32)s1)C(=O)Nc1ccccc1Cl (protonated)
O=C(N=c1[n-]nc(C(=O)N2C[C@H](O)[C@@H]3CC32)s1)C(=O)Nc1ccccc1Cl (chirality)
O=C(/N=c1\[n-]nc(C(=O)N2C[C@H](O)[C@@H]3CC32)s1)C(=O)Nc1ccccc1Cl (cis-trans isomerization)
O=C(/N=c1\[n-]nc(C(=O)N2C[C@H](O)[C@@H]3CC32)s1)C(=O)Nc1ccccc1Cl (3D coordinates assigned)
O=C(/N=c1\[n-]nc(C(=O)N2C[C@H](O)[C@@H]3CC32)s1)C(=O)Nc1ccccc1Cl (nonaromatic ring conformer: 358.19264577891136 kcal/mol)

>  <smiles>  (39) 
O=C(N=c1[nH]nc(C(=O)N2CC(O)C3CC32)s1)C(=O)Nc1ccccc1Cl

>  <score_type>  (39) 
oracle

>  <origin>  (39) 
adg

>  <m_score__min__energy>  (39) 
-10.960000000000001

>  <m_primary>  (39) 
energy

$$$$
39:0
     RDKit          3D

 41 43  0  0  0  0  0  0  0  0999 V2000
   60.7270   27.0750   49.4060 C   0  0  0  0  0  0  0  0  0  0  0  0
   60.7580   26.7540   47.9120 C   0  0  0  0  0  0  0  0  0  0  0  0
   59.6230   27.3930   47.2150 N   0  0  0  0  0  0  0  0  0  0  0  0
   58.6240   26.5690   46.7720 C   0  0  0  0  0  0  0  0  0  0  0  0
   57.4930   27.0630   46.1060 C   0  0  0  0  0  0  0  0  0  0  0  0
   56.4350   26.1100   45.6580 C   0  0  0  0  0  0  0  0  0  0  0  0
   55.0610   26.3250   45.9760 N   0  0  0  0  0  0  0  0  0  0  0  0
   56.7460   25.0930   44.9810 O   0  0  0  0  0  0  0  0  0  0  0  0
   57.3990   28.4500   45.8850 C   0  0  0  0  0  0  0  0  0  0  0  0
   56.3910   28.9350   45.3020 O   0  0  0  0  0  0  0  0  0  0  0  0
   58.4340   29.3010   46.3130 C   0  0  0  0  0  0  0  0  0  0  0  0
   58.3640   30.6880   46.0800 C   0  0  0  0  0  0  0  0  0  0  0  0
   59.3930   31.5340   46.4860 C   0  0  0  0  0  0  0  0  0  0  0  0
   59.3110   32.8590   46.2090 F   0  0  0  0  0  0  0  0  0  0  0  0
   60.5170   31.0110   47.1340 C   0  0  0  0  0  0  0  0  0  0  0  0
   61.5870   31.8800   47.5460 N   0  0  0  0  0  0  0  0  0  0  0  0
   61.9230   33.0410   46.7130 C   0  0  0  0  0  0  0  0  0  0  0  0
   63.0400   33.8670   47.3600 C   0  0  0  0  0  0  0  0  0  0  0  0
   64.0960   32.9830   47.8650 N   0  0  0  0  0  0  0  0  0  0  0  0
   63.6280   32.0980   48.9500 C   0  0  0  0  0  0  0  0  0  0  0  0
   62.1160   31.7880   48.9110 C   0  0  0  0  0  0  0  0  0  0  0  0
   60.6010   29.6330   47.3720 C   0  0  0  0  0  0  0  0  0  0  0  0
   59.5620   28.7530   46.9780 C   0  0  0  0  0  0  0  0  0  0  0  0
   60.8170   26.1430   49.9832 H   0  0  0  0  0  0  0  0  0  0  0  0
   61.5648   27.7429   49.6550 H   0  0  0  0  0  0  0  0  0  0  0  0
   59.7769   27.5702   49.6550 H   0  0  0  0  0  0  0  0  0  0  0  0
   61.7002   27.1254   47.4827 H   0  0  0  0  0  0  0  0  0  0  0  0
   60.6824   25.6641   47.7837 H   0  0  0  0  0  0  0  0  0  0  0  0
   58.7109   25.4860   46.9436 H   0  0  0  0  0  0  0  0  0  0  0  0
   54.7730   27.0950   46.6200 H   0  0  0  0  0  0  0  0  0  0  0  0
   57.4847   31.1089   45.5704 H   0  0  0  0  0  0  0  0  0  0  0  0
   62.2580   32.6918   45.7252 H   0  0  0  0  0  0  0  0  0  0  0  0
   61.0290   33.6737   46.6112 H   0  0  0  0  0  0  0  0  0  0  0  0
   63.4660   34.5513   46.6115 H   0  0  0  0  0  0  0  0  0  0  0  0
   62.6213   34.4419   48.1992 H   0  0  0  0  0  0  0  0  0  0  0  0
   64.4420   32.3930   47.0710 H   0  0  0  0  0  0  0  0  0  0  0  0
   64.1763   31.1470   48.8793 H   0  0  0  0  0  0  0  0  0  0  0  0
   63.8155   32.6312   49.8937 H   0  0  0  0  0  0  0  0  0  0  0  0
   61.9493   30.7696   49.2918 H   0  0  0  0  0  0  0  0  0  0  0  0
   61.5942   32.5279   49.5357 H   0  0  0  0  0  0  0  0  0  0  0  0
   61.4908   29.2259   47.8745 H   0  0  0  0  0  0  0  0  0  0  0  0
  1  2  1  0
  2  3  1  0
  3  4  1  0
  4  5  2  0
  5  6  1  0
  6  7  1  0
  6  8  2  0
  5  9  1  0
  9 10  2  0
  9 11  1  0
 11 12  2  0
 12 13  1  0
 13 14  1  0
 13 15  2  0
 15 16  1  0
 16 17  1  0
 17 18  1  0
 18 19  1  0
 19 20  1  0
 20 21  1  0
 15 22  1  0
 22 23  2  0
 23  3  1  0
 23 11  1  0
 21 16  1  0
  1 24  1  0
  1 25  1  0
  1 26  1  0
  2 27  1  0
  2 28  1  0
  4 29  1  0
  7 30  1  0
 12 31  1  0
 17 32  1  0
 17 33  1  0
 18 34  1  0
 18 35  1  0
 19 36  1  0
 20 37  1  0
 20 38  1  0
 21 39  1  0
 21 40  1  0
 22 41  1  0
M  CHG  1   7  -1
M  END
>  <UniqueID>  (40) 
38

>  <SMILES>  (40) 
CCn1cc(C([NH-])=O)c(=O)c2cc(F)c(N3CCNCC3)cc21

>  <Energy>  (40) 
61.081877982545535

>  <Genealogy>  (40) 
CCn1cc(C([NH-])=O)c(=O)c2cc(F)c(N3CCNCC3)cc21 (protonated)
CCn1cc(C([NH-])=O)c(=O)c2cc(F)c(N3CCNCC3)cc21 (3D coordinates assigned)
CCn1cc(C([NH-])=O)c(=O)c2cc(F)c(N3CCNCC3)cc21 (nonaromatic ring conformer: 61.081877982545535 kcal/mol)

>  <smiles>  (40) 
CCn1cc(C(N)=O)c(=O)c2cc(F)c(N3CCNCC3)cc21

>  <score_type>  (40) 
oracle

>  <origin>  (40) 
adg

>  <m_score__min__energy>  (40) 
-10.220000000000001

>  <m_primary>  (40) 
energy

$$$$
40:0
     RDKit          3D

 29 30  0  0  0  0  0  0  0  0999 V2000
   58.1280   32.9940   43.7630 C   0  0  0  0  0  0  0  0  0  0  0  0
   57.2160   32.7680   44.9640 C   0  0  0  0  0  0  0  0  0  0  0  0
   56.7830   31.4080   45.0240 O   0  0  0  0  0  0  0  0  0  0  0  0
   57.6110   30.2930   45.2360 C   0  0  0  0  0  0  0  0  0  0  0  0
   58.8530   30.5000   45.8450 C   0  0  0  0  0  0  0  0  0  0  0  0
   59.7150   29.4280   46.0820 C   0  0  0  0  0  0  0  0  0  0  0  0
   59.3470   28.1360   45.7050 C   0  0  0  0  0  0  0  0  0  0  0  0
   58.1090   27.9010   45.0840 C   0  0  0  0  0  0  0  0  0  0  0  0
   57.7230   26.5220   44.6930 C   0  0  0  0  0  0  0  0  0  0  0  0
   57.8070   26.1780   43.4820 O   0  0  0  0  0  0  0  0  0  0  0  0
   57.2440   25.5270   45.6840 C   0  0  0  0  0  0  0  0  0  0  0  0
   55.9800   25.6630   46.2830 C   0  0  0  0  0  0  0  0  0  0  0  0
   55.1440   26.7220   45.9450 O   0  0  0  0  0  0  0  0  0  0  0  0
   55.5550   24.7470   47.1910 N   0  0  0  0  0  0  0  0  0  0  0  0
   56.3350   23.6930   47.5410 C   0  0  0  0  0  0  0  0  0  0  0  0
   55.9180   22.8550   48.3820 O   0  0  0  0  0  0  0  0  0  0  0  0
   57.5660   23.5450   46.9900 N   0  0  0  0  0  0  0  0  0  0  0  0
   58.0400   24.4340   46.0800 C   0  0  0  0  0  0  0  0  0  0  0  0
   59.1990   24.2760   45.6120 O   0  0  0  0  0  0  0  0  0  0  0  0
   57.2370   28.9850   44.8680 C   0  0  0  0  0  0  0  0  0  0  0  0
   59.1401   33.2448   44.1132 H   0  0  0  0  0  0  0  0  0  0  0  0
   58.1669   32.0783   43.1547 H   0  0  0  0  0  0  0  0  0  0  0  0
   57.7348   33.8219   43.1547 H   0  0  0  0  0  0  0  0  0  0  0  0
   57.7655   33.0124   45.8850 H   0  0  0  0  0  0  0  0  0  0  0  0
   56.3322   33.4150   44.8620 H   0  0  0  0  0  0  0  0  0  0  0  0
   59.1531   31.5164   46.1397 H   0  0  0  0  0  0  0  0  0  0  0  0
   60.6867   29.6022   46.5671 H   0  0  0  0  0  0  0  0  0  0  0  0
   60.0309   27.2957   45.8953 H   0  0  0  0  0  0  0  0  0  0  0  0
   56.2537   28.8092   44.4073 H   0  0  0  0  0  0  0  0  0  0  0  0
  1  2  1  0
  2  3  1  0
  3  4  1  0
  4  5  2  0
  5  6  1  0
  6  7  2  0
  7  8  1  0
  8  9  1  0
  9 10  2  0
  9 11  1  0
 11 12  2  0
 12 13  1  0
 12 14  1  0
 14 15  1  0
 15 16  2  0
 15 17  1  0
 17 18  1  0
 18 19  2  0
  8 20  2  0
 20  4  1  0
 18 11  1  0
  1 21  1  0
  1 22  1  0
  1 23  1  0
  2 24  1  0
  2 25  1  0
  5 26  1  0
  6 27  1  0
  7 28  1  0
 20 29  1  0
M  CHG  3  13  -1  14  -1  17  -1
M  END
>  <UniqueID>  (41) 
39

>  <SMILES>  (41) 
CCOc1cccc(C(=O)c2c([O-])[n-]c(=O)[n-]c2=O)c1

>  <Energy>  (41) 
37.14815504608291

>  <Genealogy>  (41) 
CCOc1cccc(C(=O)c2c([O-])[n-]c(=O)[n-]c2=O)c1 (protonated)
CCOc1cccc(C(=O)c2c([O-])[n-]c(=O)[n-]c2=O)c1 (3D coordinates assigned)
CCOc1cccc(C(=O)c2c([O-])[n-]c(=O)[n-]c2=O)c1 (optimized conformer: 37.14815504608291 kcal/mol)

>  <smiles>  (41) 
CCOc1cccc(C(=O)c2c(O)[nH]c(=O)[nH]c2=O)c1

>  <score_type>  (41) 
oracle

>  <origin>  (41) 
adg

>  <m_score__min__energy>  (41) 
-14.529999999999999

>  <m_primary>  (41) 
energy

$$$$
41:0
     RDKit          3D

 57 60  0  0  1  0  0  0  0  0999 V2000
   59.7190   29.1350   49.6320 C   0  0  0  0  0  0  0  0  0  0  0  0
   59.4960   29.4870   51.0630 C   0  0  0  0  0  0  0  0  0  0  0  0
   59.5210   30.8710   51.3910 N   0  0  0  0  0  0  0  0  0  0  0  0
   60.6920   31.5710   50.9630 C   0  0  0  0  0  0  0  0  0  0  0  0
   60.3660   33.0030   50.5600 C   0  0  0  0  0  0  0  0  0  0  0  0
   59.3470   32.9030   49.5390 N   0  0  0  0  0  0  0  0  0  0  0  0
   59.4880   33.3940   48.2170 C   0  0  0  0  0  0  0  0  0  0  0  0
   60.6020   34.0630   47.7610 C   0  0  0  0  0  0  0  0  0  0  0  0
   60.7240   34.5380   46.4670 C   0  0  0  0  0  0  0  0  0  0  0  0
   59.7010   34.3520   45.5630 C   0  0  0  0  0  0  0  0  0  0  0  0
   58.5780   33.6850   45.9990 C   0  0  0  0  0  0  0  0  0  0  0  0
   57.5320   33.5020   45.0500 N   0  0  0  0  0  0  0  0  0  0  0  0
   57.3390   32.3520   44.4660 C   0  0  0  0  0  0  0  0  0  0  0  0
   57.4130   32.3640   43.1100 N   0  0  0  0  0  0  0  0  0  0  0  0
   57.2290   31.2280   42.4140 C   0  0  0  0  0  0  0  0  0  0  0  0
   56.9680   30.0670   43.1090 C   0  0  0  0  0  0  0  0  0  0  0  0
   56.7810   28.9170   42.4220 F   0  0  0  0  0  0  0  0  0  0  0  0
   56.8940   30.0540   44.4810 C   0  0  0  0  0  0  0  0  0  0  0  0
   56.6530   29.0020   45.1810 N   0  0  0  0  0  0  0  0  0  0  0  0
   57.7680   28.3060   45.7430 C   0  0  0  0  0  0  0  0  0  0  0  0
   58.9170   29.0540   45.9380 C   0  0  0  0  0  0  0  0  0  0  0  0
   60.0230   28.4330   46.4770 C   0  0  0  0  0  0  0  0  0  0  0  0
   59.9710   27.0880   46.8120 C   0  0  0  0  0  0  0  0  0  0  0  0
   58.8200   26.3540   46.6130 C   0  0  0  0  0  0  0  0  0  0  0  0
   57.7090   26.9670   46.0730 C   0  0  0  0  0  0  0  0  0  0  0  0
   56.4680   26.2370   45.8420 C   0  0  0  0  0  0  0  0  0  0  0  0
   56.5200   25.0470   45.4680 O   0  0  0  0  0  0  0  0  0  0  0  0
   55.2360   26.8450   46.0300 O   0  0  0  0  0  0  0  0  0  0  0  0
   57.0860   31.2250   45.1360 N   0  0  0  0  0  0  0  0  0  0  0  0
   58.4630   33.2100   47.3050 C   0  0  0  0  0  0  0  0  0  0  0  0
   58.1030   32.2450   49.9270 C   0  0  0  0  0  0  0  0  0  0  0  0
   58.2830   31.5640   51.2640 C   0  0  0  0  0  0  0  0  0  0  0  0
   60.3068   28.2073   49.5699 H   0  0  0  0  0  0  0  0  0  0  0  0
   58.7487   28.9883   49.1350 H   0  0  0  0  0  0  0  0  0  0  0  0
   60.2661   29.9496   49.1350 H   0  0  0  0  0  0  0  0  0  0  0  0
   58.5109   29.0931   51.3537 H   0  0  0  0  0  0  0  0  0  0  0  0
   60.3451   29.0456   51.6054 H   0  0  0  0  0  0  0  0  0  0  0  0
   61.4203   31.5879   51.7872 H   0  0  0  0  0  0  0  0  0  0  0  0
   61.1064   31.0502   50.0872 H   0  0  0  0  0  0  0  0  0  0  0  0
   59.9875   33.5675   51.4249 H   0  0  0  0  0  0  0  0  0  0  0  0
   61.2571   33.5327   50.1920 H   0  0  0  0  0  0  0  0  0  0  0  0
   61.4356   34.2279   48.4595 H   0  0  0  0  0  0  0  0  0  0  0  0
   61.6393   35.0650   46.1596 H   0  0  0  0  0  0  0  0  0  0  0  0
   59.7786   34.7229   44.5303 H   0  0  0  0  0  0  0  0  0  0  0  0
   57.6100   33.2390   42.5730 H   0  0  0  0  0  0  0  0  0  0  0  0
   57.2855   31.2257   41.3155 H   0  0  0  0  0  0  0  0  0  0  0  0
   58.9463   30.1201   45.6687 H   0  0  0  0  0  0  0  0  0  0  0  0
   60.9482   29.0047   46.6418 H   0  0  0  0  0  0  0  0  0  0  0  0
   60.8586   26.6006   47.2417 H   0  0  0  0  0  0  0  0  0  0  0  0
   58.7887   25.2881   46.8830 H   0  0  0  0  0  0  0  0  0  0  0  0
   55.1470   27.8510   45.9540 H   0  0  0  0  0  0  0  0  0  0  0  0
   57.0400   31.2740   46.1760 H   0  0  0  0  0  0  0  0  0  0  0  0
   57.5479   32.6834   47.6138 H   0  0  0  0  0  0  0  0  0  0  0  0
   57.3013   32.9943   50.0032 H   0  0  0  0  0  0  0  0  0  0  0  0
   57.8359   31.4943   49.1687 H   0  0  0  0  0  0  0  0  0  0  0  0
   58.2303   32.3285   52.0531 H   0  0  0  0  0  0  0  0  0  0  0  0
   57.4837   30.8136   51.3530 H   0  0  0  0  0  0  0  0  0  0  0  0
  1  2  1  0
  2  3  1  0
  3  4  1  0
  4  5  1  0
  5  6  1  0
  6  7  1  0
  7  8  2  0
  8  9  1  0
  9 10  2  0
 10 11  1  0
 11 12  1  0
 12 13  2  0
 13 14  1  0
 14 15  1  0
 15 16  2  0
 16 17  1  0
 16 18  1  0
 18 19  2  0
 19 20  1  0
 20 21  2  0
 21 22  1  0
 22 23  2  0
 23 24  1  0
 24 25  2  0
 25 26  1  0
 26 27  2  0
 26 28  1  0
 18 29  1  0
 11 30  2  0
  6 31  1  0
 31 32  1  0
 32  3  1  0
 30  7  1  0
 29 13  1  0
 25 20  1  0
  1 33  1  0
  1 34  1  0
  1 35  1  0
  2 36  1  0
  2 37  1  0
  4 38  1  0
  4 39  1  0
  5 40  1  0
  5 41  1  0
  8 42  1  0
  9 43  1  0
 10 44  1  0
 14 45  1  0
 15 46  1  0
 21 47  1  0
 22 48  1  0
 23 49  1  0
 24 50  1  0
 28 51  1  0
 29 52  1  0
 30 53  1  0
 31 54  1  0
 31 55  1  0
 32 56  1  0
 32 57  1  0
M  END
>  <smiles>  (42) 
CCN1CCN(c2cccc(N=c3[nH]cc(F)c(=Nc4ccccc4C(=O)O)[nH]3)c2)CC1

>  <score_type>  (42) 
oracle

>  <origin>  (42) 
adg

>  <m_score__min__energy>  (42) 
-10.949999999999999

>  <m_primary>  (42) 
energy

$$$$
42:0
     RDKit          3D

 24 25  0  0  0  0  0  0  0  0999 V2000
   55.9970   29.7440   43.0240 C   0  0  0  0  0  0  0  0  0  0  0  0
   56.7000   29.5490   44.1410 C   0  0  0  0  0  0  0  0  0  0  0  0
   56.7370   28.3760   44.8040 N   0  0  0  0  0  0  0  0  0  0  0  0
   57.5360   28.5550   45.8760 C   0  0  0  0  0  0  0  0  0  0  0  0
   57.7690   27.5910   46.7790 C   0  0  0  0  0  0  0  0  0  0  0  0
   57.2070   26.2300   46.7070 C   0  0  0  0  0  0  0  0  0  0  0  0
   57.8660   25.1270   47.0980 N   0  0  0  0  0  0  0  0  0  0  0  0
   56.9770   24.1260   46.9520 C   0  0  0  0  0  0  0  0  0  0  0  0
   57.2470   22.9240   47.2140 O   0  0  0  0  0  0  0  0  0  0  0  0
   55.7650   24.5240   46.5100 N   0  0  0  0  0  0  0  0  0  0  0  0
   55.9200   25.8550   46.3720 C   0  0  0  0  0  0  0  0  0  0  0  0
   54.8910   26.7110   45.9970 O   0  0  0  0  0  0  0  0  0  0  0  0
   58.0060   29.8620   45.9110 C   0  0  0  0  0  0  0  0  0  0  0  0
   57.4790   30.4900   44.7970 C   0  0  0  0  0  0  0  0  0  0  0  0
   57.6790   31.9260   44.4220 C   0  0  0  0  0  0  0  0  0  0  0  0
   56.0094   30.7272   42.5309 H   0  0  0  0  0  0  0  0  0  0  0  0
   55.4050   28.9215   42.5961 H   0  0  0  0  0  0  0  0  0  0  0  0
   56.2370   27.4960   44.5380 H   0  0  0  0  0  0  0  0  0  0  0  0
   58.4230   27.8320   47.6300 H   0  0  0  0  0  0  0  0  0  0  0  0
   58.8510   25.0600   47.4410 H   0  0  0  0  0  0  0  0  0  0  0  0
   58.6644   30.3075   46.6713 H   0  0  0  0  0  0  0  0  0  0  0  0
   57.7638   32.5348   45.3342 H   0  0  0  0  0  0  0  0  0  0  0  0
   58.5996   32.0251   43.8282 H   0  0  0  0  0  0  0  0  0  0  0  0
   56.8205   32.2729   43.8282 H   0  0  0  0  0  0  0  0  0  0  0  0
  1  2  2  0
  2  3  1  0
  3  4  1  0
  4  5  2  3
  5  6  1  0
  6  7  1  0
  7  8  1  0
  8  9  2  0
  8 10  1  0
 10 11  1  0
 11 12  1  0
  4 13  1  0
 13 14  2  0
 14 15  1  0
 14  2  1  0
 11  6  2  0
  1 16  1  0
  1 17  1  0
  3 18  1  0
  5 19  1  0
  7 20  1  0
 13 21  1  0
 15 22  1  0
 15 23  1  0
 15 24  1  0
M  CHG  2  10  -1  12  -1
M  END
>  <UniqueID>  (43) 
40

>  <SMILES>  (43) 
C=c1[nH]c(=Cc2[nH]c(=O)[n-]c2[O-])cc1C

>  <Energy>  (43) 
86.08249773673937

>  <Genealogy>  (43) 
C=c1[nH]c(=Cc2[nH]c(=O)[n-]c2[O-])cc1C (protonated)
C=c1[nH]c(=Cc2[nH]c(=O)[n-]c2[O-])cc1C (3D coordinates assigned)
C=c1[nH]c(=Cc2[nH]c(=O)[n-]c2[O-])cc1C (optimized conformer: 86.08249773673937 kcal/mol)

>  <smiles>  (43) 
C=c1[nH]c(=Cc2[nH]c(=O)[nH]c2O)cc1C

>  <score_type>  (43) 
oracle

>  <origin>  (43) 
adg

>  <m_score__min__energy>  (43) 
-13.289999999999999

>  <m_primary>  (43) 
energy

$$$$
43:0
     RDKit          3D

 47 50  0  0  0  0  0  0  0  0999 V2000
   58.0950   28.1530   44.5810 C   0  0  0  0  0  0  0  0  0  0  0  0
   57.9650   27.1210   45.4150 C   0  0  0  0  0  0  0  0  0  0  0  0
   56.9930   26.1930   45.2940 N   0  0  0  0  0  0  0  0  0  0  0  0
   57.2270   25.2590   46.2420 C   0  0  0  0  0  0  0  0  0  0  0  0
   56.5050   24.1440   46.4280 C   0  0  0  0  0  0  0  0  0  0  0  0
   55.1210   23.9700   45.9530 C   0  0  0  0  0  0  0  0  0  0  0  0
   54.4530   22.7690   45.8630 C   0  0  0  0  0  0  0  0  0  0  0  0
   53.1700   23.0890   45.4710 C   0  0  0  0  0  0  0  0  0  0  0  0
   52.1620   22.1620   45.2460 O   0  0  0  0  0  0  0  0  0  0  0  0
   52.9920   24.4180   45.3400 N   0  0  0  0  0  0  0  0  0  0  0  0
   54.1900   24.9500   45.6500 C   0  0  0  0  0  0  0  0  0  0  0  0
   54.4200   26.3190   45.7040 O   0  0  0  0  0  0  0  0  0  0  0  0
   58.3590   25.5840   46.9690 C   0  0  0  0  0  0  0  0  0  0  0  0
   58.8160   26.7860   46.4620 C   0  0  0  0  0  0  0  0  0  0  0  0
   60.0010   27.5170   46.9510 C   0  0  0  0  0  0  0  0  0  0  0  0
   61.0630   26.8750   47.1700 O   0  0  0  0  0  0  0  0  0  0  0  0
   59.9610   28.9340   47.1990 N   0  0  0  0  0  0  0  0  0  0  0  0
   58.8220   29.5300   47.9140 C   0  0  0  0  0  0  0  0  0  0  0  0
   58.4720   30.9030   47.3260 C   0  0  0  0  0  0  0  0  0  0  0  0
   59.6770   31.6850   47.0180 N   0  0  0  0  0  0  0  0  0  0  0  0
   59.5460   32.9550   46.3570 C   0  0  0  0  0  0  0  0  0  0  0  0
   58.8660   33.0460   45.1310 C   0  0  0  0  0  0  0  0  0  0  0  0
   58.7400   34.2800   44.4840 C   0  0  0  0  0  0  0  0  0  0  0  0
   59.2970   35.4280   45.0520 C   0  0  0  0  0  0  0  0  0  0  0  0
   59.9820   35.3450   46.2670 C   0  0  0  0  0  0  0  0  0  0  0  0
   60.1100   34.1140   46.9200 C   0  0  0  0  0  0  0  0  0  0  0  0
   60.8060   34.0480   48.0830 F   0  0  0  0  0  0  0  0  0  0  0  0
   61.0000   31.1830   47.4040 C   0  0  0  0  0  0  0  0  0  0  0  0
   61.1660   29.7340   46.9330 C   0  0  0  0  0  0  0  0  0  0  0  0
   58.9075   28.8799   44.7279 H   0  0  0  0  0  0  0  0  0  0  0  0
   57.3898   28.2776   43.7460 H   0  0  0  0  0  0  0  0  0  0  0  0
   56.2560   26.1750   44.5530 H   0  0  0  0  0  0  0  0  0  0  0  0
   56.9746   23.3086   46.9680 H   0  0  0  0  0  0  0  0  0  0  0  0
   54.8576   21.7656   46.0619 H   0  0  0  0  0  0  0  0  0  0  0  0
   58.8063   25.0014   47.7878 H   0  0  0  0  0  0  0  0  0  0  0  0
   57.9504   28.8652   47.8228 H   0  0  0  0  0  0  0  0  0  0  0  0
   59.0955   29.6573   48.9718 H   0  0  0  0  0  0  0  0  0  0  0  0
   57.8949   30.7581   46.4008 H   0  0  0  0  0  0  0  0  0  0  0  0
   57.8853   31.4569   48.0736 H   0  0  0  0  0  0  0  0  0  0  0  0
   58.4308   32.1431   44.6778 H   0  0  0  0  0  0  0  0  0  0  0  0
   58.2017   34.3462   43.5270 H   0  0  0  0  0  0  0  0  0  0  0  0
   59.1964   36.3978   44.5427 H   0  0  0  0  0  0  0  0  0  0  0  0
   60.4219   36.2499   46.7115 H   0  0  0  0  0  0  0  0  0  0  0  0
   61.7770   31.8085   46.9403 H   0  0  0  0  0  0  0  0  0  0  0  0
   61.0964   31.2211   48.4991 H   0  0  0  0  0  0  0  0  0  0  0  0
   61.3639   29.7314   45.8510 H   0  0  0  0  0  0  0  0  0  0  0  0
   62.0038   29.2869   47.4882 H   0  0  0  0  0  0  0  0  0  0  0  0
  1  2  2  0
  2  3  1  0
  3  4  1  0
  4  5  2  3
  5  6  1  0
  6  7  1  0
  7  8  2  0
  8  9  1  0
  8 10  1  0
 10 11  1  0
 11 12  1  0
  4 13  1  0
 13 14  2  0
 14 15  1  0
 15 16  2  0
 15 17  1  0
 17 18  1  0
 18 19  1  0
 19 20  1  0
 20 21  1  0
 21 22  2  0
 22 23  1  0
 23 24  2  0
 24 25  1  0
 25 26  2  0
 26 27  1  0
 20 28  1  0
 28 29  1  0
 14  2  1  0
 29 17  1  0
 11  6  2  0
 26 21  1  0
  1 30  1  0
  1 31  1  0
  3 32  1  0
  5 33  1  0
  7 34  1  0
 13 35  1  0
 18 36  1  0
 18 37  1  0
 19 38  1  0
 19 39  1  0
 22 40  1  0
 23 41  1  0
 24 42  1  0
 25 43  1  0
 28 44  1  0
 28 45  1  0
 29 46  1  0
 29 47  1  0
M  CHG  3   9  -1  10  -1  12  -1
M  END
>  <UniqueID>  (44) 
41

>  <SMILES>  (44) 
C=c1[nH]c(=Cc2cc([O-])[n-]c2[O-])cc1C(=O)N1CCN(c2ccccc2F)CC1

>  <Energy>  (44) 
119.18300919951858

>  <Genealogy>  (44) 
C=c1[nH]c(=Cc2cc([O-])[n-]c2[O-])cc1C(=O)N1CCN(c2ccccc2F)CC1 (protonated)
C=c1[nH]c(=Cc2cc([O-])[n-]c2[O-])cc1C(=O)N1CCN(c2ccccc2F)CC1 (3D coordinates assigned)
C=c1[nH]c(=Cc2cc([O-])[n-]c2[O-])cc1C(=O)N1CCN(c2ccccc2F)CC1 (nonaromatic ring conformer: 119.18300919951858 kcal/mol)

>  <smiles>  (44) 
C=c1[nH]c(=Cc2cc(O)[nH]c2O)cc1C(=O)N1CCN(c2ccccc2F)CC1

>  <score_type>  (44) 
oracle

>  <origin>  (44) 
adg

>  <m_score__min__energy>  (44) 
-17.23

>  <m_primary>  (44) 
energy

$$$$
44:0
     RDKit          3D

 49 52  0  0  0  0  0  0  0  0999 V2000
   60.7530   33.2860   51.6940 O   0  0  0  0  0  0  0  0  0  0  0  0
   60.3700   32.4860   50.7980 C   0  0  0  0  0  0  0  0  0  0  0  0
   59.2930   31.6990   51.0290 N   0  0  0  0  0  0  0  0  0  0  0  0
   58.8500   30.8110   50.1050 C   0  0  0  0  0  0  0  0  0  0  0  0
   57.8470   30.0950   50.3770 O   0  0  0  0  0  0  0  0  0  0  0  0
   59.4930   30.6850   48.9010 N   0  0  0  0  0  0  0  0  0  0  0  0
   59.0290   29.7090   47.9490 C   0  0  0  0  0  0  0  0  0  0  0  0
   59.0860   28.3440   48.2540 C   0  0  0  0  0  0  0  0  0  0  0  0
   58.6160   27.4010   47.3380 C   0  0  0  0  0  0  0  0  0  0  0  0
   58.0910   27.8090   46.1040 C   0  0  0  0  0  0  0  0  0  0  0  0
   57.5750   26.8540   45.2290 O   0  0  0  0  0  0  0  0  0  0  0  0
   58.0670   29.1810   45.7710 C   0  0  0  0  0  0  0  0  0  0  0  0
   57.5480   29.6520   44.5140 N   0  0  0  0  0  0  0  0  0  0  0  0
   57.7940   30.9940   43.9830 C   0  0  0  0  0  0  0  0  0  0  0  0
   57.0100   32.0450   44.7750 C   0  0  0  0  0  0  0  0  0  0  0  0
   57.9300   33.0420   45.4310 C   0  0  0  0  0  0  0  0  0  0  0  0
   58.7820   33.8430   44.6520 C   0  0  0  0  0  0  0  0  0  0  0  0
   59.6110   34.7900   45.2620 C   0  0  0  0  0  0  0  0  0  0  0  0
   59.5880   34.9510   46.6510 C   0  0  0  0  0  0  0  0  0  0  0  0
   58.7340   34.1670   47.4310 C   0  0  0  0  0  0  0  0  0  0  0  0
   57.9050   33.2180   46.8250 C   0  0  0  0  0  0  0  0  0  0  0  0
   58.5180   30.1200   46.7100 C   0  0  0  0  0  0  0  0  0  0  0  0
   60.5880   31.4700   48.6210 C   0  0  0  0  0  0  0  0  0  0  0  0
   61.0430   32.4060   49.5730 C   0  0  0  0  0  0  0  0  0  0  0  0
   62.2710   33.2520   49.3040 C   0  0  0  0  0  0  0  0  0  0  0  0
   62.5420   33.4160   47.8040 C   0  0  0  0  0  0  0  0  0  0  0  0
   62.5330   32.0530   47.1150 C   0  0  0  0  0  0  0  0  0  0  0  0
   61.2490   31.3950   47.3420 N   0  0  0  0  0  0  0  0  0  0  0  0
   59.5019   28.0137   49.2173 H   0  0  0  0  0  0  0  0  0  0  0  0
   58.6580   26.3302   47.5864 H   0  0  0  0  0  0  0  0  0  0  0  0
   57.0030   27.1140   44.4340 H   0  0  0  0  0  0  0  0  0  0  0  0
   56.8000   29.0890   44.0490 H   0  0  0  0  0  0  0  0  0  0  0  0
   58.8687   31.2178   44.0525 H   0  0  0  0  0  0  0  0  0  0  0  0
   57.4634   31.0241   42.9343 H   0  0  0  0  0  0  0  0  0  0  0  0
   56.3348   32.5786   44.0899 H   0  0  0  0  0  0  0  0  0  0  0  0
   56.4412   31.5298   45.5630 H   0  0  0  0  0  0  0  0  0  0  0  0
   58.7971   33.7248   43.5585 H   0  0  0  0  0  0  0  0  0  0  0  0
   60.2820   35.4090   44.6484 H   0  0  0  0  0  0  0  0  0  0  0  0
   60.2422   35.6948   47.1294 H   0  0  0  0  0  0  0  0  0  0  0  0
   58.7138   34.2965   48.5232 H   0  0  0  0  0  0  0  0  0  0  0  0
   57.2303   32.6065   47.4421 H   0  0  0  0  0  0  0  0  0  0  0  0
   58.4702   31.1927   46.4712 H   0  0  0  0  0  0  0  0  0  0  0  0
   62.1202   34.2471   49.7479 H   0  0  0  0  0  0  0  0  0  0  0  0
   63.1375   32.7424   49.7507 H   0  0  0  0  0  0  0  0  0  0  0  0
   61.7617   34.0523   47.3611 H   0  0  0  0  0  0  0  0  0  0  0  0
   63.5290   33.8817   47.6661 H   0  0  0  0  0  0  0  0  0  0  0  0
   62.6884   32.1885   46.0345 H   0  0  0  0  0  0  0  0  0  0  0  0
   63.3397   31.4302   47.5291 H   0  0  0  0  0  0  0  0  0  0  0  0
   60.7840   30.9400   46.5250 H   0  0  0  0  0  0  0  0  0  0  0  0
  1  2  2  0
  2  3  1  0
  3  4  1  0
  4  5  2  0
  4  6  1  0
  6  7  1  0
  7  8  2  0
  8  9  1  0
  9 10  2  0
 10 11  1  0
 10 12  1  0
 12 13  1  0
 13 14  1  0
 14 15  1  0
 15 16  1  0
 16 17  2  0
 17 18  1  0
 18 19  2  0
 19 20  1  0
 20 21  2  0
 12 22  2  0
  6 23  1  0
 23 24  2  0
 24 25  1  0
 25 26  1  0
 26 27  1  0
 27 28  1  0
 24  2  1  0
 22  7  1  0
 28 23  1  0
 21 16  1  0
  8 29  1  0
  9 30  1  0
 11 31  1  0
 13 32  1  0
 14 33  1  0
 14 34  1  0
 15 35  1  0
 15 36  1  0
 17 37  1  0
 18 38  1  0
 19 39  1  0
 20 40  1  0
 21 41  1  0
 22 42  1  0
 25 43  1  0
 25 44  1  0
 26 45  1  0
 26 46  1  0
 27 47  1  0
 27 48  1  0
 28 49  1  0
M  CHG  1   3  -1
M  END
>  <UniqueID>  (45) 
42

>  <SMILES>  (45) 
O=c1[n-]c(=O)n(-c2ccc(O)c(NCCc3ccccc3)c2)c2c1CCCN2

>  <Energy>  (45) 
64.00308371525362

>  <Genealogy>  (45) 
O=c1[n-]c(=O)n(-c2ccc(O)c(NCCc3ccccc3)c2)c2c1CCCN2 (protonated)
O=c1[n-]c(=O)n(-c2ccc(O)c(NCCc3ccccc3)c2)c2c1CCCN2 (3D coordinates assigned)
O=c1[n-]c(=O)n(-c2ccc(O)c(NCCc3ccccc3)c2)c2c1CCCN2 (nonaromatic ring conformer: 64.00308371525362 kcal/mol)

>  <smiles>  (45) 
O=c1[nH]c(=O)n(-c2ccc(O)c(NCCc3ccccc3)c2)c2c1CCCN2

>  <score_type>  (45) 
oracle

>  <origin>  (45) 
adg

>  <m_score__min__energy>  (45) 
-10.369999999999999

>  <m_primary>  (45) 
energy

$$$$
45:0
     RDKit          3D

 60 63  0  0  0  0  0  0  0  0999 V2000
   58.5230   31.3590   49.4210 C   0  0  0  0  0  0  0  0  0  0  0  0
   59.2300   30.3290   50.2070 N   0  0  0  0  0  0  0  0  0  0  0  0
   60.4840   29.8970   49.8260 C   0  0  0  0  0  0  0  0  0  0  0  0
   61.1580   30.4230   48.6150 C   0  0  0  0  0  0  0  0  0  0  0  0
   60.8490   29.9360   47.4950 O   0  0  0  0  0  0  0  0  0  0  0  0
   62.1520   31.4640   48.6970 N   0  0  0  0  0  0  0  0  0  0  0  0
   62.9650   31.8240   47.5220 C   0  0  0  0  0  0  0  0  0  0  0  0
   62.6930   33.2780   47.0850 C   0  0  0  0  0  0  0  0  0  0  0  0
   62.1680   34.1760   48.2290 C   0  0  0  0  0  0  0  0  0  0  0  0
   60.7020   34.1170   48.2540 N   0  0  0  0  0  0  0  0  0  0  0  0
   59.8270   34.5700   47.2120 C   0  0  0  0  0  0  0  0  0  0  0  0
   59.6050   35.8060   47.0930 O   0  0  0  0  0  0  0  0  0  0  0  0
   59.2040   33.6350   46.2630 C   0  0  0  0  0  0  0  0  0  0  0  0
   58.7680   34.0900   45.0100 C   0  0  0  0  0  0  0  0  0  0  0  0
   58.2380   33.1910   44.0800 C   0  0  0  0  0  0  0  0  0  0  0  0
   58.1330   31.8320   44.3940 C   0  0  0  0  0  0  0  0  0  0  0  0
   57.6680   30.9090   43.4050 N   0  0  0  0  0  0  0  0  0  0  0  0
   56.8880   29.4200   43.8350 S   0  0  0  0  0  0  0  0  0  0  0  0
   56.6670   28.6090   42.5840 O   0  0  0  0  0  0  0  0  0  0  0  0
   55.5510   29.7210   44.4630 O   0  0  0  0  0  0  0  0  0  0  0  0
   57.8820   28.4670   44.9410 C   0  0  0  0  0  0  0  0  0  0  0  0
   59.2710   28.3760   44.7610 C   0  0  0  0  0  0  0  0  0  0  0  0
   60.0400   27.5800   45.6200 C   0  0  0  0  0  0  0  0  0  0  0  0
   59.4300   26.8780   46.6610 C   0  0  0  0  0  0  0  0  0  0  0  0
   58.0470   26.9720   46.8520 C   0  0  0  0  0  0  0  0  0  0  0  0
   57.2750   27.7620   45.9890 C   0  0  0  0  0  0  0  0  0  0  0  0
   58.4960   31.3930   45.6750 C   0  0  0  0  0  0  0  0  0  0  0  0
   59.0380   32.2860   46.6000 C   0  0  0  0  0  0  0  0  0  0  0  0
   62.7590   33.7110   49.5750 C   0  0  0  0  0  0  0  0  0  0  0  0
   62.2760   32.2900   49.9130 C   0  0  0  0  0  0  0  0  0  0  0  0
   61.1470   28.9160   50.5770 C   0  0  0  0  0  0  0  0  0  0  0  0
   60.5320   28.3640   51.6940 C   0  0  0  0  0  0  0  0  0  0  0  0
   59.2540   28.7780   52.0490 C   0  0  0  0  0  0  0  0  0  0  0  0
   58.6050   29.7540   51.2910 C   0  0  0  0  0  0  0  0  0  0  0  0
   57.4340   30.0920   51.6190 O   0  0  0  0  0  0  0  0  0  0  0  0
   58.0348   32.0702   50.1036 H   0  0  0  0  0  0  0  0  0  0  0  0
   59.2441   31.8955   48.7868 H   0  0  0  0  0  0  0  0  0  0  0  0
   57.7631   30.8789   48.7868 H   0  0  0  0  0  0  0  0  0  0  0  0
   64.0301   31.7180   47.7756 H   0  0  0  0  0  0  0  0  0  0  0  0
   62.6974   31.1532   46.6923 H   0  0  0  0  0  0  0  0  0  0  0  0
   63.6313   33.7093   46.7060 H   0  0  0  0  0  0  0  0  0  0  0  0
   61.9093   33.2437   46.3139 H   0  0  0  0  0  0  0  0  0  0  0  0
   62.4797   35.2172   48.0595 H   0  0  0  0  0  0  0  0  0  0  0  0
   58.8434   35.1581   44.7582 H   0  0  0  0  0  0  0  0  0  0  0  0
   57.9022   33.5537   43.0973 H   0  0  0  0  0  0  0  0  0  0  0  0
   58.0650   30.9680   42.4410 H   0  0  0  0  0  0  0  0  0  0  0  0
   59.7565   28.9304   43.9444 H   0  0  0  0  0  0  0  0  0  0  0  0
   61.1278   27.5080   45.4737 H   0  0  0  0  0  0  0  0  0  0  0  0
   60.0365   26.2510   47.3311 H   0  0  0  0  0  0  0  0  0  0  0  0
   57.5665   26.4270   47.6779 H   0  0  0  0  0  0  0  0  0  0  0  0
   56.1868   27.8289   46.1352 H   0  0  0  0  0  0  0  0  0  0  0  0
   58.3527   30.3383   45.9525 H   0  0  0  0  0  0  0  0  0  0  0  0
   59.3358   31.9292   47.5970 H   0  0  0  0  0  0  0  0  0  0  0  0
   63.8570   33.7140   49.5086 H   0  0  0  0  0  0  0  0  0  0  0  0
   62.4252   34.3980   50.3666 H   0  0  0  0  0  0  0  0  0  0  0  0
   62.9989   31.8182   50.5947 H   0  0  0  0  0  0  0  0  0  0  0  0
   61.2858   32.3627   50.3865 H   0  0  0  0  0  0  0  0  0  0  0  0
   62.1533   28.5836   50.2821 H   0  0  0  0  0  0  0  0  0  0  0  0
   61.0538   27.6037   52.2937 H   0  0  0  0  0  0  0  0  0  0  0  0
   58.7551   28.3378   52.9250 H   0  0  0  0  0  0  0  0  0  0  0  0
  1  2  1  0
  2  3  1  0
  3  4  1  0
  4  5  2  0
  4  6  1  0
  6  7  1  0
  7  8  1  0
  8  9  1  0
  9 10  1  0
 10 11  1  0
 11 12  2  0
 11 13  1  0
 13 14  2  0
 14 15  1  0
 15 16  2  0
 16 17  1  0
 17 18  1  0
 18 19  2  0
 18 20  2  0
 18 21  1  0
 21 22  2  0
 22 23  1  0
 23 24  2  0
 24 25  1  0
 25 26  2  0
 16 27  1  0
 27 28  2  0
  9 29  1  0
 29 30  1  0
  3 31  2  0
 31 32  1  0
 32 33  2  0
 33 34  1  0
 34 35  2  0
 34  2  1  0
 30  6  1  0
 28 13  1  0
 26 21  1  0
  1 36  1  0
  1 37  1  0
  1 38  1  0
  7 39  1  0
  7 40  1  0
  8 41  1  0
  8 42  1  0
  9 43  1  0
 14 44  1  0
 15 45  1  0
 17 46  1  0
 22 47  1  0
 23 48  1  0
 24 49  1  0
 25 50  1  0
 26 51  1  0
 27 52  1  0
 28 53  1  0
 29 54  1  0
 29 55  1  0
 30 56  1  0
 30 57  1  0
 31 58  1  0
 32 59  1  0
 33 60  1  0
M  CHG  1  10  -1
M  END
>  <UniqueID>  (46) 
43

>  <SMILES>  (46) 
Cn1c(C(=O)N2CCC([N-]C(=O)c3ccc(NS(=O)(=O)c4ccccc4)cc3)CC2)cccc1=O

>  <Energy>  (46) 
85.24229514894537

>  <Genealogy>  (46) 
Cn1c(C(=O)N2CCC([N-]C(=O)c3ccc(NS(=O)(=O)c4ccccc4)cc3)CC2)cccc1=O (protonated)
Cn1c(C(=O)N2CCC([N-]C(=O)c3ccc(NS(=O)(=O)c4ccccc4)cc3)CC2)cccc1=O (3D coordinates assigned)
Cn1c(C(=O)N2CCC([N-]C(=O)c3ccc(NS(=O)(=O)c4ccccc4)cc3)CC2)cccc1=O (nonaromatic ring conformer: 85.24229514894537 kcal/mol)

>  <smiles>  (46) 
Cn1c(C(=O)N2CCC(NC(=O)c3ccc(NS(=O)(=O)c4ccccc4)cc3)CC2)cccc1=O

>  <score_type>  (46) 
oracle

>  <origin>  (46) 
adg

>  <m_score__min__energy>  (46) 
-11.220000000000001

>  <m_primary>  (46) 
energy

$$$$
46:0
     RDKit          3D

 52 54  0  0  0  0  0  0  0  0999 V2000
   59.3160   35.3350   46.9390 C   0  0  0  0  0  0  0  0  0  0  0  0
   58.8200   34.0780   46.3940 C   0  0  0  0  0  0  0  0  0  0  0  0
   57.8660   34.1610   45.3710 C   0  0  0  0  0  0  0  0  0  0  0  0
   57.3640   33.0310   44.7650 C   0  0  0  0  0  0  0  0  0  0  0  0
   57.8440   31.8200   45.2130 C   0  0  0  0  0  0  0  0  0  0  0  0
   57.3400   30.6200   44.6000 N   0  0  0  0  0  0  0  0  0  0  0  0
   57.1710   30.5220   43.1900 C   0  0  0  0  0  0  0  0  0  0  0  0
   57.4420   31.4530   42.4000 O   0  0  0  0  0  0  0  0  0  0  0  0
   56.6460   29.2470   42.6490 C   0  0  0  0  0  0  0  0  0  0  0  0
   57.7430   27.8570   42.9760 S   0  0  0  0  0  0  0  0  0  0  0  0
   57.8890   27.6710   44.7480 C   0  0  0  0  0  0  0  0  0  0  0  0
   58.7200   28.4190   45.4940 N   0  0  0  0  0  0  0  0  0  0  0  0
   58.8100   28.2540   46.8420 C   0  0  0  0  0  0  0  0  0  0  0  0
   59.6950   29.0530   47.6200 N   0  0  0  0  0  0  0  0  0  0  0  0
   58.0190   27.2840   47.4580 C   0  0  0  0  0  0  0  0  0  0  0  0
   57.1690   26.5210   46.6910 C   0  0  0  0  0  0  0  0  0  0  0  0
   56.4310   25.6300   47.1960 O   0  0  0  0  0  0  0  0  0  0  0  0
   57.1370   26.7420   45.3660 N   0  0  0  0  0  0  0  0  0  0  0  0
   58.7780   31.7400   46.2160 C   0  0  0  0  0  0  0  0  0  0  0  0
   59.3050   32.8770   46.8510 C   0  0  0  0  0  0  0  0  0  0  0  0
   60.4410   32.6780   48.1370 S   0  0  0  0  0  0  0  0  0  0  0  0
   59.6800   32.9770   49.4400 O   0  0  0  0  0  0  0  0  0  0  0  0
   60.7520   31.1940   48.3580 O   0  0  0  0  0  0  0  0  0  0  0  0
   61.7720   33.6530   48.1970 N   0  0  0  0  0  0  0  0  0  0  0  0
   62.7060   33.8500   47.2070 C   0  0  0  0  0  0  0  0  0  0  0  0
   63.7680   32.7730   47.2760 C   0  0  0  0  0  0  0  0  0  0  0  0
   64.1090   32.3400   48.6450 C   0  0  0  0  0  0  0  0  0  0  0  0
   63.6060   33.1820   49.7680 C   0  0  0  0  0  0  0  0  0  0  0  0
   62.3130   33.8860   49.5150 C   0  0  0  0  0  0  0  0  0  0  0  0
   59.2984   35.2905   48.0380 H   0  0  0  0  0  0  0  0  0  0  0  0
   60.3475   35.5021   46.5952 H   0  0  0  0  0  0  0  0  0  0  0  0
   58.6766   36.1614   46.5952 H   0  0  0  0  0  0  0  0  0  0  0  0
   57.5106   35.1497   45.0452 H   0  0  0  0  0  0  0  0  0  0  0  0
   56.6153   33.0924   43.9614 H   0  0  0  0  0  0  0  0  0  0  0  0
   57.1030   29.8220   45.2210 H   0  0  0  0  0  0  0  0  0  0  0  0
   55.6695   29.0425   43.1122 H   0  0  0  0  0  0  0  0  0  0  0  0
   56.5604   29.3564   41.5578 H   0  0  0  0  0  0  0  0  0  0  0  0
   59.4110   29.4310   48.5660 H   0  0  0  0  0  0  0  0  0  0  0  0
   60.6470   29.2710   47.2530 H   0  0  0  0  0  0  0  0  0  0  0  0
   58.0743   27.1307   48.5459 H   0  0  0  0  0  0  0  0  0  0  0  0
   56.4810   26.1530   44.7710 H   0  0  0  0  0  0  0  0  0  0  0  0
   59.1274   30.7469   46.5349 H   0  0  0  0  0  0  0  0  0  0  0  0
   62.2106   33.8109   46.2257 H   0  0  0  0  0  0  0  0  0  0  0  0
   63.1789   34.8332   47.3469 H   0  0  0  0  0  0  0  0  0  0  0  0
   63.4061   31.8968   46.7181 H   0  0  0  0  0  0  0  0  0  0  0  0
   64.6833   33.2066   46.8467 H   0  0  0  0  0  0  0  0  0  0  0  0
   63.7035   31.3268   48.7829 H   0  0  0  0  0  0  0  0  0  0  0  0
   65.2050   32.4137   48.7024 H   0  0  0  0  0  0  0  0  0  0  0  0
   63.4719   32.5320   50.6452 H   0  0  0  0  0  0  0  0  0  0  0  0
   64.3570   33.9726   49.9125 H   0  0  0  0  0  0  0  0  0  0  0  0
   61.5787   33.5405   50.2576 H   0  0  0  0  0  0  0  0  0  0  0  0
   62.5143   34.9646   49.5931 H   0  0  0  0  0  0  0  0  0  0  0  0
  1  2  1  0
  2  3  2  0
  3  4  1  0
  4  5  2  0
  5  6  1  0
  6  7  1  0
  7  8  2  0
  7  9  1  0
  9 10  1  0
 10 11  1  0
 11 12  2  0
 12 13  1  0
 13 14  1  0
 13 15  2  0
 15 16  1  0
 16 17  2  0
 16 18  1  0
  5 19  1  0
 19 20  2  0
 20 21  1  0
 21 22  2  0
 21 23  2  0
 21 24  1  0
 24 25  1  0
 25 26  1  0
 26 27  1  0
 27 28  1  0
 28 29  1  0
 20  2  1  0
 29 24  1  0
 18 11  1  0
  1 30  1  0
  1 31  1  0
  1 32  1  0
  3 33  1  0
  4 34  1  0
  6 35  1  0
  9 36  1  0
  9 37  1  0
 14 38  1  0
 14 39  1  0
 15 40  1  0
 18 41  1  0
 19 42  1  0
 25 43  1  0
 25 44  1  0
 26 45  1  0
 26 46  1  0
 27 47  1  0
 27 48  1  0
 28 49  1  0
 28 50  1  0
 29 51  1  0
 29 52  1  0
M  END
>  <smiles>  (47) 
Cc1ccc(NC(=O)CSc2nc(N)cc(=O)[nH]2)cc1S(=O)(=O)N1CCCCC1

>  <score_type>  (47) 
oracle

>  <origin>  (47) 
adg

>  <m_score__min__energy>  (47) 
-9.3900000000000006

>  <m_primary>  (47) 
energy

$$$$
47:0
     RDKit          3D

 64 68  0  0  0  0  0  0  0  0999 V2000
   55.1360   26.6950   46.0070 O   0  0  0  0  0  0  0  0  0  0  0  0
   56.2220   26.2600   46.4810 C   0  0  0  0  0  0  0  0  0  0  0  0
   56.2610   24.9850   47.1310 N   0  0  0  0  0  0  0  0  0  0  0  0
   57.2540   23.9570   46.8430 C   0  0  0  0  0  0  0  0  0  0  0  0
   57.0280   23.3770   45.4740 C   0  0  0  0  0  0  0  0  0  0  0  0
   55.9870   23.8550   44.6580 C   0  0  0  0  0  0  0  0  0  0  0  0
   55.7850   23.3120   43.3850 C   0  0  0  0  0  0  0  0  0  0  0  0
   56.6160   22.2900   42.9190 C   0  0  0  0  0  0  0  0  0  0  0  0
   57.6510   21.8080   43.7250 C   0  0  0  0  0  0  0  0  0  0  0  0
   57.8590   22.3490   44.9980 C   0  0  0  0  0  0  0  0  0  0  0  0
   57.4440   27.0820   46.3790 C   0  0  0  0  0  0  0  0  0  0  0  0
   58.2050   27.2790   47.3930 N   0  0  0  0  0  0  0  0  0  0  0  0
   59.3810   28.0390   47.0030 C   0  0  2  0  0  0  0  0  0  0  0  0
   59.6410   29.2200   47.9270 C   0  0  0  0  0  0  0  0  0  0  0  0
   60.7380   30.0610   47.6700 C   0  0  0  0  0  0  0  0  0  0  0  0
   61.0300   31.1320   48.5190 C   0  0  0  0  0  0  0  0  0  0  0  0
   60.2540   31.3590   49.6610 C   0  0  0  0  0  0  0  0  0  0  0  0
   60.6380   32.6960   50.7440 S   0  0  0  0  0  0  0  0  0  0  0  0
   62.1250   32.7520   50.9600 O   0  0  0  0  0  0  0  0  0  0  0  0
   59.9750   32.4750   52.0770 O   0  0  0  0  0  0  0  0  0  0  0  0
   60.1220   34.2020   50.0450 N   0  0  0  0  0  0  0  0  0  0  0  0
   60.7980   34.4250   48.7680 C   0  0  0  0  0  0  0  0  0  0  0  0
   59.8170   34.2040   47.6520 C   0  0  0  0  0  0  0  0  0  0  0  0
   58.6500   33.4540   47.8770 C   0  0  0  0  0  0  0  0  0  0  0  0
   57.7250   33.2660   46.8440 C   0  0  0  0  0  0  0  0  0  0  0  0
   57.9520   33.8350   45.5870 C   0  0  0  0  0  0  0  0  0  0  0  0
   59.1020   34.5990   45.3620 C   0  0  0  0  0  0  0  0  0  0  0  0
   60.0310   34.7860   46.3910 C   0  0  0  0  0  0  0  0  0  0  0  0
   59.1760   30.5100   49.9430 C   0  0  0  0  0  0  0  0  0  0  0  0
   58.8710   29.4480   49.0860 C   0  0  0  0  0  0  0  0  0  0  0  0
   59.1870   28.4440   45.5960 N   0  0  0  0  0  0  0  0  0  0  0  0
   57.9850   27.7150   45.1370 C   0  0  0  0  0  0  0  0  0  0  0  0
   56.9720   28.6480   44.4440 C   0  0  0  0  0  0  0  0  0  0  0  0
   57.3280   28.5810   42.9710 C   0  0  0  0  0  0  0  0  0  0  0  0
   57.8300   27.1640   42.7420 C   0  0  0  0  0  0  0  0  0  0  0  0
   58.3970   26.6770   44.0740 C   0  0  0  0  0  0  0  0  0  0  0  0
   58.2591   24.4019   46.8865 H   0  0  0  0  0  0  0  0  0  0  0  0
   57.1627   23.1543   47.5896 H   0  0  0  0  0  0  0  0  0  0  0  0
   55.3297   24.6584   45.0221 H   0  0  0  0  0  0  0  0  0  0  0  0
   54.9706   23.6902   42.7496 H   0  0  0  0  0  0  0  0  0  0  0  0
   56.4555   21.8646   41.9174 H   0  0  0  0  0  0  0  0  0  0  0  0
   58.3031   21.0019   43.3577 H   0  0  0  0  0  0  0  0  0  0  0  0
   58.6760   21.9683   45.6286 H   0  0  0  0  0  0  0  0  0  0  0  0
   60.2853   27.4193   47.0937 H   0  0  0  0  0  0  0  0  0  0  0  0
   61.3731   29.8741   46.7915 H   0  0  0  0  0  0  0  0  0  0  0  0
   61.8735   31.7994   48.2885 H   0  0  0  0  0  0  0  0  0  0  0  0
   61.1778   35.4565   48.7267 H   0  0  0  0  0  0  0  0  0  0  0  0
   61.6414   33.7262   48.6662 H   0  0  0  0  0  0  0  0  0  0  0  0
   58.4633   33.0137   48.8676 H   0  0  0  0  0  0  0  0  0  0  0  0
   56.8178   32.6696   47.0211 H   0  0  0  0  0  0  0  0  0  0  0  0
   57.2261   33.6818   44.7749 H   0  0  0  0  0  0  0  0  0  0  0  0
   59.2759   35.0530   44.3753 H   0  0  0  0  0  0  0  0  0  0  0  0
   60.9323   35.3908   46.2124 H   0  0  0  0  0  0  0  0  0  0  0  0
   58.5665   30.6796   50.8429 H   0  0  0  0  0  0  0  0  0  0  0  0
   58.0240   28.7855   49.3177 H   0  0  0  0  0  0  0  0  0  0  0  0
   59.0510   29.4800   45.5280 H   0  0  0  0  0  0  0  0  0  0  0  0
   55.9435   28.2952   44.6105 H   0  0  0  0  0  0  0  0  0  0  0  0
   57.0178   29.6748   44.8359 H   0  0  0  0  0  0  0  0  0  0  0  0
   56.4414   28.7803   42.3512 H   0  0  0  0  0  0  0  0  0  0  0  0
   58.0836   29.3323   42.6978 H   0  0  0  0  0  0  0  0  0  0  0  0
   57.0008   26.5152   42.4233 H   0  0  0  0  0  0  0  0  0  0  0  0
   58.5966   27.1391   41.9535 H   0  0  0  0  0  0  0  0  0  0  0  0
   57.9800   25.6907   44.3256 H   0  0  0  0  0  0  0  0  0  0  0  0
   59.4911   26.5744   44.0244 H   0  0  0  0  0  0  0  0  0  0  0  0
  1  2  2  0
  2  3  1  0
  3  4  1  0
  4  5  1  0
  5  6  2  0
  6  7  1  0
  7  8  2  0
  8  9  1  0
  9 10  2  0
  2 11  1  0
 11 12  2  0
 12 13  1  0
 13 14  1  0
 14 15  2  0
 15 16  1  0
 16 17  2  0
 17 18  1  0
 18 19  2  0
 18 20  2  0
 18 21  1  0
 21 22  1  0
 22 23  1  0
 23 24  2  0
 24 25  1  0
 25 26  2  0
 26 27  1  0
 27 28  2  0
 17 29  1  0
 29 30  2  0
 13 31  1  0
 31 32  1  0
 32 33  1  0
 33 34  1  0
 34 35  1  0
 35 36  1  0
 10  5  1  0
 32 11  1  0
 30 14  1  0
 36 32  1  0
 28 23  1  0
  4 37  1  0
  4 38  1  0
  6 39  1  0
  7 40  1  0
  8 41  1  0
  9 42  1  0
 10 43  1  0
 13 44  1  6
 15 45  1  0
 16 46  1  0
 22 47  1  0
 22 48  1  0
 24 49  1  0
 25 50  1  0
 26 51  1  0
 27 52  1  0
 28 53  1  0
 29 54  1  0
 30 55  1  0
 31 56  1  0
 33 57  1  0
 33 58  1  0
 34 59  1  0
 34 60  1  0
 35 61  1  0
 35 62  1  0
 36 63  1  0
 36 64  1  0
M  CHG  2   3  -1  21  -1
M  END
>  <UniqueID>  (48) 
44

>  <SMILES>  (48) 
O=C([N-]Cc1ccccc1)C1=N[C@H](c2ccc(S(=O)(=O)[N-]Cc3ccccc3)cc2)NC12CCCC2

>  <Energy>  (48) 
77.9989389971169

>  <Genealogy>  (48) 
O=C([N-]Cc1ccccc1)C1=NC(c2ccc(S(=O)(=O)[N-]Cc3ccccc3)cc2)NC12CCCC2 (protonated)
O=C([N-]Cc1ccccc1)C1=N[C@H](c2ccc(S(=O)(=O)[N-]Cc3ccccc3)cc2)NC12CCCC2 (chirality)
O=C([N-]Cc1ccccc1)C1=N[C@H](c2ccc(S(=O)(=O)[N-]Cc3ccccc3)cc2)NC12CCCC2 (3D coordinates assigned)
O=C([N-]Cc1ccccc1)C1=N[C@H](c2ccc(S(=O)(=O)[N-]Cc3ccccc3)cc2)NC12CCCC2 (nonaromatic ring conformer: 77.9989389971169 kcal/mol)

>  <smiles>  (48) 
O=C(NCc1ccccc1)C1=NC(c2ccc(S(=O)(=O)NCc3ccccc3)cc2)NC12CCCC2

>  <score_type>  (48) 
oracle

>  <origin>  (48) 
adg

>  <m_score__min__energy>  (48) 
-12.59

>  <m_primary>  (48) 
energy

$$$$
48:0
     RDKit          3D

 35 37  0  0  0  0  0  0  0  0999 V2000
   60.3022   28.1532   45.3335 H   0  0  0  0  0  0  0  0  0  0  0  0
   60.2370   27.4430   46.1710 C   0  0  0  0  0  0  0  0  0  0  0  0
   61.1053   27.2859   46.8277 H   0  0  0  0  0  0  0  0  0  0  0  0
   59.1010   26.7700   46.3910 C   0  0  0  0  0  0  0  0  0  0  0  0
   57.9080   26.8580   45.6650 C   0  0  0  0  0  0  0  0  0  0  0  0
   57.6850   27.6430   44.5880 C   0  0  0  0  0  0  0  0  0  0  0  0
   57.5910   27.1531   43.6076 H   0  0  0  0  0  0  0  0  0  0  0  0
   57.5590   29.1120   44.6370 C   0  0  0  0  0  0  0  0  0  0  0  0
   56.3080   29.7280   44.8000 C   0  0  0  0  0  0  0  0  0  0  0  0
   55.1510   28.9660   44.9130 O   0  0  0  0  0  0  0  0  0  0  0  0
   56.2220   31.0820   44.8620 N   0  0  0  0  0  0  0  0  0  0  0  0
   57.3340   31.8580   44.7840 C   0  0  0  0  0  0  0  0  0  0  0  0
   57.1990   33.4830   44.8570 S   0  0  0  0  0  0  0  0  0  0  0  0
   58.5580   31.2840   44.6580 N   0  0  0  0  0  0  0  0  0  0  0  0
   58.6950   29.9340   44.5910 C   0  0  0  0  0  0  0  0  0  0  0  0
   59.8460   29.4330   44.4790 O   0  0  0  0  0  0  0  0  0  0  0  0
   57.0230   25.9680   46.2900 C   0  0  0  0  0  0  0  0  0  0  0  0
   55.6810   25.5550   45.8370 C   0  0  0  0  0  0  0  0  0  0  0  0
   54.7090   26.3390   45.9980 O   0  0  0  0  0  0  0  0  0  0  0  0
   55.4520   24.2840   45.2220 N   0  0  0  0  0  0  0  0  0  0  0  0
   56.4780   23.5290   44.5130 C   0  0  0  0  0  0  0  0  0  0  0  0
   56.8316   22.9201   45.3581 H   0  0  0  0  0  0  0  0  0  0  0  0
   56.1050   23.2710   43.0650 C   0  0  0  0  0  0  0  0  0  0  0  0
   56.3992   22.3282   42.5807 H   0  0  0  0  0  0  0  0  0  0  0  0
   55.1666   23.2727   42.4911 H   0  0  0  0  0  0  0  0  0  0  0  0
   57.1580   24.3110   43.4050 C   0  0  0  0  0  0  0  0  0  0  0  0
   58.2151   24.1217   43.1670 H   0  0  0  0  0  0  0  0  0  0  0  0
   57.2985   25.3784   43.1794 H   0  0  0  0  0  0  0  0  0  0  0  0
   57.7250   25.3880   47.3390 C   0  0  0  0  0  0  0  0  0  0  0  0
   57.2210   24.3390   48.2810 C   0  0  0  0  0  0  0  0  0  0  0  0
   57.3801   24.6702   49.3178 H   0  0  0  0  0  0  0  0  0  0  0  0
   56.1467   24.1770   48.1086 H   0  0  0  0  0  0  0  0  0  0  0  0
   57.7658   23.3991   48.1086 H   0  0  0  0  0  0  0  0  0  0  0  0
   58.9700   25.8900   47.4020 N   0  0  0  0  0  0  0  0  0  0  0  0
   59.7040   25.6250   48.0980 H   0  0  0  0  0  0  0  0  0  0  0  0
  1  2  1  0
  2  3  1  0
  2  4  2  0
  4  5  1  0
  5  6  2  0
  6  7  1  0
  6  8  1  0
  8  9  2  0
  9 10  1  0
  9 11  1  0
 11 12  1  0
 12 13  2  0
 12 14  1  0
 14 15  1  0
 15 16  2  0
  5 17  1  0
 17 18  1  0
 18 19  2  0
 18 20  1  0
 20 21  1  0
 21 22  1  0
 21 23  1  0
 23 24  1  0
 23 25  1  0
 23 26  1  0
 26 27  1  0
 26 28  1  0
 17 29  2  0
 29 30  1  0
 30 31  1  0
 30 32  1  0
 30 33  1  0
 29 34  1  0
 34 35  1  0
 34  4  1  0
 15  8  1  0
 26 21  1  0
M  CHG  4  10  -1  11  -1  14  -1  20  -1
M  END
>  <UniqueID>  (49) 
45

>  <SMILES>  (49) 
C=c1[nH]c(C)c(C(=O)[N-]C2CC2)/c1=C\c1c([O-])[n-]c(=S)[n-]c1=O

>  <Energy>  (49) 
343.96551056414086

>  <Genealogy>  (49) 
C=c1[nH]c(C)c(C(=O)[N-]C2CC2)c1=Cc1c([O-])[n-]c(=S)[n-]c1=O (protonated)
C=c1[nH]c(C)c(C(=O)[N-]C2CC2)/c1=C\c1c([O-])[n-]c(=S)[n-]c1=O (cis-trans isomerization)
C=c1[nH]c(C)c(C(=O)[N-]C2CC2)/c1=C\c1c([O-])[n-]c(=S)[n-]c1=O (3D coordinates assigned)
C=c1[nH]c(C)c(C(=O)[N-]C2CC2)/c1=C\c1c([O-])[n-]c(=S)[n-]c1=O (nonaromatic ring conformer: 343.96551056414086 kcal/mol)

>  <smiles>  (49) 
C=c1[nH]c(C)c(C(=O)NC2CC2)c1=Cc1c(O)[nH]c(=S)[nH]c1=O

>  <score_type>  (49) 
oracle

>  <origin>  (49) 
adg

>  <m_score__min__energy>  (49) 
-15.92

>  <m_primary>  (49) 
energy

$$$$
49:0
     RDKit          3D

 57 61  0  0  0  0  0  0  0  0999 V2000
   57.0570   29.3690   51.9230 O   0  0  0  0  0  0  0  0  0  0  0  0
   56.1950   30.0850   52.5030 C   0  0  0  0  0  0  0  0  0  0  0  0
   54.9320   29.4520   53.0030 C   0  0  0  0  0  0  0  0  0  0  0  0
   53.7400   30.1670   52.4530 C   0  0  0  0  0  0  0  0  0  0  0  0
   53.6740   30.8260   51.2300 C   0  0  0  0  0  0  0  0  0  0  0  0
   52.4460   31.4630   51.0140 C   0  0  0  0  0  0  0  0  0  0  0  0
   51.5480   31.3150   52.0660 C   0  0  0  0  0  0  0  0  0  0  0  0
   52.2860   30.3960   53.2680 S   0  0  0  0  0  0  0  0  0  0  0  0
   56.4440   31.4790   52.7470 N   0  0  0  0  0  0  0  0  0  0  0  0
   57.4850   32.2390   52.1070 C   0  0  0  0  0  0  0  0  0  0  0  0
   57.9590   33.4020   52.7260 C   0  0  0  0  0  0  0  0  0  0  0  0
   58.9300   34.1870   52.1040 C   0  0  0  0  0  0  0  0  0  0  0  0
   59.4340   33.8240   50.8530 C   0  0  0  0  0  0  0  0  0  0  0  0
   58.9710   32.6610   50.2060 C   0  0  0  0  0  0  0  0  0  0  0  0
   59.4780   32.2590   48.8660 C   0  0  0  0  0  0  0  0  0  0  0  0
   58.6170   31.8400   47.8390 C   0  0  0  0  0  0  0  0  0  0  0  0
   59.1610   31.4860   46.5970 C   0  0  0  0  0  0  0  0  0  0  0  0
   58.3170   31.0560   45.5150 N   0  0  0  0  0  0  0  0  0  0  0  0
   57.7190   32.0460   44.6110 C   0  0  0  0  0  0  0  0  0  0  0  0
   57.3790   31.3840   43.2730 C   0  0  0  0  0  0  0  0  0  0  0  0
   56.5890   30.2260   43.4710 O   0  0  0  0  0  0  0  0  0  0  0  0
   57.3370   29.2500   44.1730 C   0  0  0  0  0  0  0  0  0  0  0  0
   57.6830   29.7360   45.5840 C   0  0  0  0  0  0  0  0  0  0  0  0
   60.5050   31.5880   46.4060 N   0  0  0  0  0  0  0  0  0  0  0  0
   61.3310   32.0040   47.3990 C   0  0  0  0  0  0  0  0  0  0  0  0
   62.8120   32.1040   47.1420 C   0  0  0  0  0  0  0  0  0  0  0  0
   63.2950   33.5230   46.8420 C   0  0  0  0  0  0  0  0  0  0  0  0
   64.1450   33.4970   48.1080 C   0  0  0  0  0  0  0  0  0  0  0  0
   63.6610   32.0860   48.4120 C   0  0  0  0  0  0  0  0  0  0  0  0
   60.8130   32.3310   48.6120 N   0  0  0  0  0  0  0  0  0  0  0  0
   57.9800   31.8850   50.8380 C   0  0  0  0  0  0  0  0  0  0  0  0
   54.9028   28.3996   52.6843 H   0  0  0  0  0  0  0  0  0  0  0  0
   54.9112   29.5141   54.1010 H   0  0  0  0  0  0  0  0  0  0  0  0
   54.5021   30.8448   50.5062 H   0  0  0  0  0  0  0  0  0  0  0  0
   52.2133   32.0272   50.0988 H   0  0  0  0  0  0  0  0  0  0  0  0
   50.5293   31.7281   52.1057 H   0  0  0  0  0  0  0  0  0  0  0  0
   55.8510   31.9670   53.4600 H   0  0  0  0  0  0  0  0  0  0  0  0
   57.5634   33.6984   53.7086 H   0  0  0  0  0  0  0  0  0  0  0  0
   59.3003   35.0958   52.6009 H   0  0  0  0  0  0  0  0  0  0  0  0
   60.1979   34.4505   50.3693 H   0  0  0  0  0  0  0  0  0  0  0  0
   57.5310   31.7903   48.0070 H   0  0  0  0  0  0  0  0  0  0  0  0
   56.8006   32.4473   45.0642 H   0  0  0  0  0  0  0  0  0  0  0  0
   58.4349   32.8637   44.4413 H   0  0  0  0  0  0  0  0  0  0  0  0
   56.8219   32.0981   42.6487 H   0  0  0  0  0  0  0  0  0  0  0  0
   58.3159   31.0908   42.7767 H   0  0  0  0  0  0  0  0  0  0  0  0
   56.7446   28.3260   44.2456 H   0  0  0  0  0  0  0  0  0  0  0  0
   58.2732   29.0646   43.6260 H   0  0  0  0  0  0  0  0  0  0  0  0
   56.7625   29.8042   46.1823 H   0  0  0  0  0  0  0  0  0  0  0  0
   58.3785   29.0239   46.0522 H   0  0  0  0  0  0  0  0  0  0  0  0
   62.9162   31.3092   46.3887 H   0  0  0  0  0  0  0  0  0  0  0  0
   63.8758   33.6131   45.9122 H   0  0  0  0  0  0  0  0  0  0  0  0
   62.5720   34.3343   46.6718 H   0  0  0  0  0  0  0  0  0  0  0  0
   65.2269   33.5695   47.9229 H   0  0  0  0  0  0  0  0  0  0  0  0
   64.0429   34.2925   48.8609 H   0  0  0  0  0  0  0  0  0  0  0  0
   64.4577   31.3275   48.4090 H   0  0  0  0  0  0  0  0  0  0  0  0
   63.2034   31.8517   49.3845 H   0  0  0  0  0  0  0  0  0  0  0  0
   57.5876   30.9901   50.3329 H   0  0  0  0  0  0  0  0  0  0  0  0
  1  2  2  0
  2  3  1  0
  3  4  1  0
  4  5  2  0
  5  6  1  0
  6  7  2  0
  7  8  1  0
  2  9  1  0
  9 10  1  0
 10 11  2  0
 11 12  1  0
 12 13  2  0
 13 14  1  0
 14 15  1  0
 15 16  2  0
 16 17  1  0
 17 18  1  0
 18 19  1  0
 19 20  1  0
 20 21  1  0
 21 22  1  0
 22 23  1  0
 17 24  2  0
 24 25  1  0
 25 26  1  0
 26 27  1  0
 27 28  1  0
 28 29  1  0
 25 30  2  0
 14 31  2  0
  8  4  1  0
 31 10  1  0
 30 15  1  0
 23 18  1  0
 29 26  1  0
  3 32  1  0
  3 33  1  0
  5 34  1  0
  6 35  1  0
  7 36  1  0
  9 37  1  0
 11 38  1  0
 12 39  1  0
 13 40  1  0
 16 41  1  0
 19 42  1  0
 19 43  1  0
 20 44  1  0
 20 45  1  0
 22 46  1  0
 22 47  1  0
 23 48  1  0
 23 49  1  0
 26 50  1  0
 27 51  1  0
 27 52  1  0
 28 53  1  0
 28 54  1  0
 29 55  1  0
 29 56  1  0
 31 57  1  0
M  END
>  <UniqueID>  (50) 
46

>  <SMILES>  (50) 
O=C(Cc1cccs1)Nc1cccc(-c2cc(N3CCOCC3)nc(C3CCC3)n2)c1

>  <Energy>  (50) 
155.7965331738852

>  <Genealogy>  (50) 
O=C(Cc1cccs1)Nc1cccc(-c2cc(N3CCOCC3)nc(C3CCC3)n2)c1 (3D coordinates assigned)
O=C(Cc1cccs1)Nc1cccc(-c2cc(N3CCOCC3)nc(C3CCC3)n2)c1 (nonaromatic ring conformer: 155.7965331738852 kcal/mol)

>  <smiles>  (50) 
O=C(Cc1cccs1)Nc1cccc(-c2cc(N3CCOCC3)nc(C3CCC3)n2)c1

>  <score_type>  (50) 
oracle

>  <origin>  (50) 
adg

>  <m_score__min__energy>  (50) 
-9.4900000000000002

>  <m_primary>  (50) 
energy

$$$$
50:0
     RDKit          3D

 55 58  0  0  0  0  0  0  0  0999 V2000
   68.3940   33.1610   51.2050 C   0  0  0  0  0  0  0  0  0  0  0  0
   67.1700   32.5900   50.5550 C   0  0  0  0  0  0  0  0  0  0  0  0
   67.0440   31.3390   50.4860 O   0  0  0  0  0  0  0  0  0  0  0  0
   66.0890   33.4250   50.1120 N   0  0  0  0  0  0  0  0  0  0  0  0
   64.8140   33.1460   50.1000 C   0  0  0  0  0  0  0  0  0  0  0  0
   63.9750   33.3660   51.2120 C   0  0  0  0  0  0  0  0  0  0  0  0
   62.6150   33.0380   51.1240 C   0  0  0  0  0  0  0  0  0  0  0  0
   62.1010   32.5350   49.9310 C   0  0  0  0  0  0  0  0  0  0  0  0
   62.9510   32.3620   48.8350 C   0  0  0  0  0  0  0  0  0  0  0  0
   64.2700   32.6680   48.9470 N   0  0  0  0  0  0  0  0  0  0  0  0
   60.6350   32.2220   49.8730 C   0  0  0  0  0  0  0  0  0  0  0  0
   60.2240   31.5170   51.1130 N   0  0  2  0  0  0  0  0  0  0  0  0
   58.7990   31.0760   51.0380 C   0  0  0  0  0  0  0  0  0  0  0  0
   57.7790   32.2580   50.9450 C   0  0  0  0  0  0  0  0  0  0  0  0
   56.6460   32.1820   51.9780 C   0  0  0  0  0  0  0  0  0  0  0  0
   56.0840   30.8250   52.0440 N   0  0  0  0  0  0  0  0  0  0  0  0
   54.6710   30.6340   52.2690 C   0  0  0  0  0  0  0  0  0  0  0  0
   54.2120   29.5800   53.0770 C   0  0  0  0  0  0  0  0  0  0  0  0
   52.8460   29.3920   53.2870 C   0  0  0  0  0  0  0  0  0  0  0  0
   51.9190   30.2500   52.6930 C   0  0  0  0  0  0  0  0  0  0  0  0
   52.3500   31.3110   51.8780 C   0  0  0  0  0  0  0  0  0  0  0  0
   51.3650   32.2210   51.2490 C   0  0  0  0  0  0  0  0  0  0  0  0
   50.7460   33.2580   52.0090 N   0  0  0  0  0  0  0  0  0  0  0  0
   51.0620   32.0880   50.0330 O   0  0  0  0  0  0  0  0  0  0  0  0
   53.7310   31.4940   51.6710 C   0  0  0  0  0  0  0  0  0  0  0  0
   56.9820   29.6580   52.0810 C   0  0  0  0  0  0  0  0  0  0  0  0
   58.4510   30.0820   52.1730 C   0  0  0  0  0  0  0  0  0  0  0  0
   60.5520   32.2540   52.3760 C   0  0  0  0  0  0  0  0  0  0  0  0
   61.6590   33.3290   52.2440 C   0  0  0  0  0  0  0  0  0  0  0  0
   68.2858   33.1105   52.2985 H   0  0  0  0  0  0  0  0  0  0  0  0
   69.2769   32.5818   50.8968 H   0  0  0  0  0  0  0  0  0  0  0  0
   68.5175   34.2097   50.8968 H   0  0  0  0  0  0  0  0  0  0  0  0
   64.3842   33.7913   52.1403 H   0  0  0  0  0  0  0  0  0  0  0  0
   62.5529   31.9789   47.8838 H   0  0  0  0  0  0  0  0  0  0  0  0
   60.0648   33.1579   49.7785 H   0  0  0  0  0  0  0  0  0  0  0  0
   60.4344   31.5777   49.0043 H   0  0  0  0  0  0  0  0  0  0  0  0
   60.7960   30.6360   51.1280 H   0  0  0  0  0  0  0  0  0  0  0  0
   58.6973   30.5371   50.0844 H   0  0  0  0  0  0  0  0  0  0  0  0
   58.3254   33.2003   51.0983 H   0  0  0  0  0  0  0  0  0  0  0  0
   57.3108   32.1994   49.9514 H   0  0  0  0  0  0  0  0  0  0  0  0
   57.0419   32.4560   52.9670 H   0  0  0  0  0  0  0  0  0  0  0  0
   55.8489   32.8774   51.6761 H   0  0  0  0  0  0  0  0  0  0  0  0
   54.9355   28.8980   53.5475 H   0  0  0  0  0  0  0  0  0  0  0  0
   52.4980   28.5647   53.9230 H   0  0  0  0  0  0  0  0  0  0  0  0
   50.8435   30.0947   52.8639 H   0  0  0  0  0  0  0  0  0  0  0  0
   50.6510   34.2240   51.6220 H   0  0  0  0  0  0  0  0  0  0  0  0
   54.0795   32.3200   51.0336 H   0  0  0  0  0  0  0  0  0  0  0  0
   56.7321   29.0425   52.9578 H   0  0  0  0  0  0  0  0  0  0  0  0
   56.8452   29.0880   51.1502 H   0  0  0  0  0  0  0  0  0  0  0  0
   58.6283   30.5655   53.1450 H   0  0  0  0  0  0  0  0  0  0  0  0
   59.0864   29.1897   52.0726 H   0  0  0  0  0  0  0  0  0  0  0  0
   59.6357   32.7506   52.7279 H   0  0  0  0  0  0  0  0  0  0  0  0
   60.9405   31.5004   53.0769 H   0  0  0  0  0  0  0  0  0  0  0  0
   61.1836   34.3033   52.0574 H   0  0  0  0  0  0  0  0  0  0  0  0
   62.2346   33.3316   53.1814 H   0  0  0  0  0  0  0  0  0  0  0  0
  1  2  1  0
  2  3  2  0
  2  4  1  0
  4  5  2  3
  5  6  1  0
  6  7  2  0
  7  8  1  0
  8  9  2  0
  9 10  1  0
  8 11  1  0
 11 12  1  0
 12 13  1  0
 13 14  1  0
 14 15  1  0
 15 16  1  0
 16 17  1  0
 17 18  2  0
 18 19  1  0
 19 20  2  0
 20 21  1  0
 21 22  1  0
 22 23  1  0
 22 24  2  0
 21 25  2  0
 16 26  1  0
 26 27  1  0
 12 28  1  0
 28 29  1  0
 10  5  1  0
 27 13  1  0
 29  7  1  0
 25 17  1  0
  1 30  1  0
  1 31  1  0
  1 32  1  0
  6 33  1  0
  9 34  1  0
 11 35  1  0
 11 36  1  0
 12 37  1  1
 13 38  1  0
 14 39  1  0
 14 40  1  0
 15 41  1  0
 15 42  1  0
 18 43  1  0
 19 44  1  0
 20 45  1  0
 23 46  1  0
 25 47  1  0
 26 48  1  0
 26 49  1  0
 27 50  1  0
 27 51  1  0
 28 52  1  0
 28 53  1  0
 29 54  1  0
 29 55  1  0
M  CHG  3  10  -1  12   1  23  -1
M  END
>  <UniqueID>  (51) 
47

>  <SMILES>  (51) 
CC(=O)N=c1cc2c(c[n-]1)C[N@H+](C1CCN(c3cccc(C([NH-])=O)c3)CC1)CC2

>  <Energy>  (51) 
87.48189090511674

>  <Genealogy>  (51) 
CC(=O)N=c1cc2c(c[n-]1)C[NH+](C1CCN(c3cccc(C([NH-])=O)c3)CC1)CC2 (protonated)
CC(=O)N=c1cc2c(c[n-]1)C[N@H+](C1CCN(c3cccc(C([NH-])=O)c3)CC1)CC2 (chirality)
CC(=O)N=c1cc2c(c[n-]1)C[N@H+](C1CCN(c3cccc(C([NH-])=O)c3)CC1)CC2 (3D coordinates assigned)
CC(=O)N=c1cc2c(c[n-]1)C[N@H+](C1CCN(c3cccc(C([NH-])=O)c3)CC1)CC2 (nonaromatic ring conformer: 87.48189090511674 kcal/mol)

>  <smiles>  (51) 
CC(=O)N=c1cc2c(c[nH]1)CN(C1CCN(c3cccc(C(N)=O)c3)CC1)CC2

>  <score_type>  (51) 
oracle

>  <origin>  (51) 
adg

>  <m_score__min__energy>  (51) 
-10.710000000000001

>  <m_primary>  (51) 
energy

$$$$
51:0
     RDKit          3D

 47 49  0  0  1  0  0  0  0  0999 V2000
   57.6340   24.0030   45.3910 C   0  0  0  0  0  0  0  0  0  0  0  0
   56.9320   25.1480   44.6610 C   0  0  0  0  0  0  0  0  0  0  0  0
   56.6570   26.4340   45.8120 S   0  0  0  0  0  0  0  0  0  0  0  0
   55.1370   26.4590   45.9810 O   0  0  0  0  0  0  0  0  0  0  0  0
   57.1100   26.0500   47.2110 O   0  0  0  0  0  0  0  0  0  0  0  0
   57.1630   28.0110   45.3760 C   0  0  0  0  0  0  0  0  0  0  0  0
   56.2130   28.8970   44.8640 C   0  0  0  0  0  0  0  0  0  0  0  0
   56.4860   30.1930   44.5110 C   0  0  0  0  0  0  0  0  0  0  0  0
   57.7570   30.6930   44.6520 C   0  0  0  0  0  0  0  0  0  0  0  0
   58.0400   32.0990   44.2670 C   0  0  0  0  0  0  0  0  0  0  0  0
   58.7140   29.8480   45.1520 C   0  0  0  0  0  0  0  0  0  0  0  0
   58.4410   28.5220   45.5150 C   0  0  0  0  0  0  0  0  0  0  0  0
   59.7160   27.5280   46.0850 S   0  0  0  0  0  0  0  0  0  0  0  0
   61.0370   28.2790   45.8570 O   0  0  0  0  0  0  0  0  0  0  0  0
   59.8100   26.1600   45.6050 O   0  0  0  0  0  0  0  0  0  0  0  0
   59.5350   27.4300   47.8350 N   0  0  0  0  0  0  0  0  0  0  0  0
   60.1390   28.3390   48.5500 C   0  0  0  0  0  0  0  0  0  0  0  0
   60.4350   28.2340   49.8570 N   0  0  0  0  0  0  0  0  0  0  0  0
   61.0450   29.3580   50.2260 N   0  0  0  0  0  0  0  0  0  0  0  0
   61.1400   30.1820   49.1530 C   0  0  0  0  0  0  0  0  0  0  0  0
   61.6560   31.3560   49.0760 N   0  0  0  0  0  0  0  0  0  0  0  0
   61.1650   32.3070   48.1390 C   0  0  0  0  0  0  0  0  0  0  0  0
   59.8020   32.5640   48.1760 C   0  0  0  0  0  0  0  0  0  0  0  0
   59.2140   33.4700   47.3100 C   0  0  0  0  0  0  0  0  0  0  0  0
   60.0190   34.1240   46.3960 C   0  0  0  0  0  0  0  0  0  0  0  0
   59.2750   35.2740   45.2970 Cl  0  0  0  0  0  0  0  0  0  0  0  0
   61.3780   33.8560   46.3710 C   0  0  0  0  0  0  0  0  0  0  0  0
   61.9760   32.9540   47.2300 C   0  0  0  0  0  0  0  0  0  0  0  0
   60.5660   29.5300   48.1060 N   0  0  0  0  0  0  0  0  0  0  0  0
   57.5435   24.1506   46.4773 H   0  0  0  0  0  0  0  0  0  0  0  0
   57.1661   23.0478   45.1105 H   0  0  0  0  0  0  0  0  0  0  0  0
   58.6975   23.9867   45.1105 H   0  0  0  0  0  0  0  0  0  0  0  0
   57.5666   25.5117   43.8394 H   0  0  0  0  0  0  0  0  0  0  0  0
   55.9770   24.8030   44.2380 H   0  0  0  0  0  0  0  0  0  0  0  0
   55.1829   28.5328   44.7362 H   0  0  0  0  0  0  0  0  0  0  0  0
   55.6851   30.8339   44.1139 H   0  0  0  0  0  0  0  0  0  0  0  0
   58.1629   32.7098   45.1736 H   0  0  0  0  0  0  0  0  0  0  0  0
   58.9638   32.1371   43.6711 H   0  0  0  0  0  0  0  0  0  0  0  0
   57.2029   32.4916   43.6711 H   0  0  0  0  0  0  0  0  0  0  0  0
   59.7396   30.2268   45.2734 H   0  0  0  0  0  0  0  0  0  0  0  0
   60.2280   27.4180   50.4910 H   0  0  0  0  0  0  0  0  0  0  0  0
   61.4110   29.6130   51.1740 H   0  0  0  0  0  0  0  0  0  0  0  0
   59.1748   32.0362   48.9096 H   0  0  0  0  0  0  0  0  0  0  0  0
   58.1321   33.6649   47.3483 H   0  0  0  0  0  0  0  0  0  0  0  0
   62.0064   34.3826   45.6376 H   0  0  0  0  0  0  0  0  0  0  0  0
   63.0579   32.7592   47.1905 H   0  0  0  0  0  0  0  0  0  0  0  0
   60.4680   29.8730   47.1390 H   0  0  0  0  0  0  0  0  0  0  0  0
  1  2  1  0
  2  3  1  0
  3  4  2  0
  3  5  2  0
  3  6  1  0
  6  7  2  0
  7  8  1  0
  8  9  2  0
  9 10  1  0
  9 11  1  0
 11 12  2  0
 12 13  1  0
 13 14  2  0
 13 15  2  0
 13 16  1  0
 16 17  2  0
 17 18  1  0
 18 19  1  0
 19 20  1  0
 20 21  2  0
 21 22  1  0
 22 23  2  0
 23 24  1  0
 24 25  2  0
 25 26  1  0
 25 27  1  0
 27 28  2  0
 20 29  1  0
 12  6  1  0
 29 17  1  0
 28 22  1  0
  1 30  1  0
  1 31  1  0
  1 32  1  0
  2 33  1  0
  2 34  1  0
  7 35  1  0
  8 36  1  0
 10 37  1  0
 10 38  1  0
 10 39  1  0
 11 40  1  0
 18 41  1  0
 19 42  1  0
 23 43  1  0
 24 44  1  0
 27 45  1  0
 28 46  1  0
 29 47  1  0
M  END
>  <smiles>  (52) 
CCS(=O)(=O)c1ccc(C)cc1S(=O)(=O)N=c1[nH][nH]c(=Nc2ccc(Cl)cc2)[nH]1

>  <score_type>  (52) 
oracle

>  <origin>  (52) 
adg

>  <m_score__min__energy>  (52) 
-9.5899999999999999

>  <m_primary>  (52) 
energy

$$$$
52:0
     RDKit          3D

 37 38  0  0  0  0  0  0  0  0999 V2000
   58.7520   30.7740   45.8910 C   0  0  0  0  0  0  0  0  0  0  0  0
   58.6600   29.3850   46.4730 C   0  0  0  0  0  0  0  0  0  0  0  0
   59.5030   29.0010   47.5050 C   0  0  0  0  0  0  0  0  0  0  0  0
   60.4350   29.9440   47.9700 N   0  0  0  0  0  0  0  0  0  0  0  0
   60.2610   30.8270   49.0600 C   0  0  0  0  0  0  0  0  0  0  0  0
   59.2200   30.8640   49.7490 O   0  0  0  0  0  0  0  0  0  0  0  0
   61.3590   31.7840   49.4410 C   0  0  0  0  0  0  0  0  0  0  0  0
   60.6030   33.4400   49.5960 S   0  0  0  0  0  0  0  0  0  0  0  0
   59.4790   33.6390   48.2100 C   0  0  0  0  0  0  0  0  0  0  0  0
   59.9110   34.4280   47.2030 N   0  0  0  0  0  0  0  0  0  0  0  0
   59.1570   34.6490   46.1070 C   0  0  0  0  0  0  0  0  0  0  0  0
   59.5720   35.3880   45.1790 O   0  0  0  0  0  0  0  0  0  0  0  0
   57.9050   34.0240   46.0530 C   0  0  0  0  0  0  0  0  0  0  0  0
   57.0840   34.2680   44.8450 C   0  0  0  0  0  0  0  0  0  0  0  0
   57.5050   33.2400   47.0770 N   0  0  0  0  0  0  0  0  0  0  0  0
   58.2800   33.0410   48.1550 N   0  0  0  0  0  0  0  0  0  0  0  0
   59.3470   27.7210   47.9720 C   0  0  0  0  0  0  0  0  0  0  0  0
   58.4040   26.8500   47.4520 C   0  0  0  0  0  0  0  0  0  0  0  0
   57.5760   27.2260   46.4390 C   0  0  0  0  0  0  0  0  0  0  0  0
   56.3640   26.1810   45.7330 Cl  0  0  0  0  0  0  0  0  0  0  0  0
   57.7180   28.5190   45.9520 C   0  0  0  0  0  0  0  0  0  0  0  0
   56.8710   29.0040   44.8730 C   0  0  0  0  0  0  0  0  0  0  0  0
   57.3760   29.1170   43.7040 O   0  0  0  0  0  0  0  0  0  0  0  0
   55.5530   29.3560   45.0090 O   0  0  0  0  0  0  0  0  0  0  0  0
   58.8008   31.5107   46.7064 H   0  0  0  0  0  0  0  0  0  0  0  0
   59.6573   30.8526   45.2711 H   0  0  0  0  0  0  0  0  0  0  0  0
   57.8650   30.9713   45.2711 H   0  0  0  0  0  0  0  0  0  0  0  0
   61.3740   30.0270   47.4740 H   0  0  0  0  0  0  0  0  0  0  0  0
   61.8058   31.4825   50.3999 H   0  0  0  0  0  0  0  0  0  0  0  0
   62.1547   31.7876   48.6815 H   0  0  0  0  0  0  0  0  0  0  0  0
   56.0698   34.5694   45.1457 H   0  0  0  0  0  0  0  0  0  0  0  0
   57.5421   35.0688   44.2460 H   0  0  0  0  0  0  0  0  0  0  0  0
   57.0303   33.3470   44.2460 H   0  0  0  0  0  0  0  0  0  0  0  0
   57.9650   32.4300   48.9490 H   0  0  0  0  0  0  0  0  0  0  0  0
   59.9949   27.3731   48.7900 H   0  0  0  0  0  0  0  0  0  0  0  0
   58.3225   25.8341   47.8659 H   0  0  0  0  0  0  0  0  0  0  0  0
   55.2230   30.0910   45.6330 H   0  0  0  0  0  0  0  0  0  0  0  0
  1  2  1  0
  2  3  2  0
  3  4  1  0
  4  5  1  0
  5  6  2  0
  5  7  1  0
  7  8  1  0
  8  9  1  0
  9 10  2  0
 10 11  1  0
 11 12  2  0
 11 13  1  0
 13 14  1  0
 13 15  2  0
 15 16  1  0
  3 17  1  0
 17 18  2  0
 18 19  1  0
 19 20  1  0
 19 21  2  0
 21 22  1  0
 22 23  2  0
 22 24  1  0
 21  2  1  0
 16  9  1  0
  1 25  1  0
  1 26  1  0
  1 27  1  0
  4 28  1  0
  7 29  1  0
  7 30  1  0
 14 31  1  0
 14 32  1  0
 14 33  1  0
 16 34  1  0
 17 35  1  0
 18 36  1  0
 24 37  1  0
M  END
>  <smiles>  (53) 
Cc1c(NC(=O)CSc2nc(=O)c(C)n[nH]2)ccc(Cl)c1C(=O)O

>  <score_type>  (53) 
oracle

>  <origin>  (53) 
adg

>  <m_score__min__energy>  (53) 
-7.7800000000000002

>  <m_primary>  (53) 
energy

$$$$
53:0
     RDKit          3D

 56 59  0  0  0  0  0  0  0  0999 V2000
   54.0200   26.3140   46.4180 H   0  0  0  0  0  0  0  0  0  0  0  0
   54.8990   26.5810   45.9920 O   0  0  0  0  0  0  0  0  0  0  0  0
   56.0920   25.9000   46.2340 C   0  0  0  0  0  0  0  0  0  0  0  0
   56.0500   24.7390   46.9380 N   0  0  0  0  0  0  0  0  0  0  0  0
   57.1770   24.0300   47.2030 C   0  0  0  0  0  0  0  0  0  0  0  0
   57.1070   22.9610   47.8620 O   0  0  0  0  0  0  0  0  0  0  0  0
   58.3780   24.4740   46.7550 N   0  0  0  0  0  0  0  0  0  0  0  0
   58.4810   25.6270   46.0460 C   0  0  0  0  0  0  0  0  0  0  0  0
   59.6110   25.9950   45.6260 O   0  0  0  0  0  0  0  0  0  0  0  0
   57.3310   26.3920   45.7800 C   0  0  0  0  0  0  0  0  0  0  0  0
   57.4120   27.6330   44.9840 C   0  0  0  0  0  0  0  0  0  0  0  0
   57.2378   27.5540   43.9008 H   0  0  0  0  0  0  0  0  0  0  0  0
   57.6840   28.8590   45.4850 C   0  0  0  0  0  0  0  0  0  0  0  0
   58.2870   29.1950   46.7080 C   0  0  0  0  0  0  0  0  0  0  0  0
   58.6530   28.2770   47.8460 C   0  0  0  0  0  0  0  0  0  0  0  0
   58.4520   28.7810   48.8029 H   0  0  0  0  0  0  0  0  0  0  0  0
   58.0528   27.3574   47.7828 H   0  0  0  0  0  0  0  0  0  0  0  0
   59.7213   28.0226   47.7828 H   0  0  0  0  0  0  0  0  0  0  0  0
   58.3930   30.5860   46.7230 C   0  0  0  0  0  0  0  0  0  0  0  0
   59.0240   31.4290   47.7610 C   0  0  0  0  0  0  0  0  0  0  0  0
   59.0830   31.0360   48.9550 O   0  0  0  0  0  0  0  0  0  0  0  0
   59.5580   32.7080   47.3930 N   0  0  0  0  0  0  0  0  0  0  0  0
   60.9300   33.1210   47.4860 C   0  0  0  0  0  0  0  0  0  0  0  0
   61.6870   33.4510   46.3490 C   0  0  0  0  0  0  0  0  0  0  0  0
   61.2360   33.3763   45.3485 H   0  0  0  0  0  0  0  0  0  0  0  0
   63.0120   33.8740   46.4870 C   0  0  0  0  0  0  0  0  0  0  0  0
   63.6023   34.1267   45.5939 H   0  0  0  0  0  0  0  0  0  0  0  0
   63.5890   33.9770   47.7540 C   0  0  0  0  0  0  0  0  0  0  0  0
   64.6331   34.3081   47.8548 H   0  0  0  0  0  0  0  0  0  0  0  0
   62.8430   33.6600   48.9000 C   0  0  0  0  0  0  0  0  0  0  0  0
   63.4400   33.7910   50.2460 C   0  0  0  0  0  0  0  0  0  0  0  0
   62.7170   34.1920   51.1990 O   0  0  0  0  0  0  0  0  0  0  0  0
   64.8220   33.4670   50.4920 N   0  0  0  0  0  0  0  0  0  0  0  0
   65.4270   32.2940   49.8370 C   0  0  0  0  0  0  0  0  0  0  0  0
   64.6640   31.5087   49.7313 H   0  0  0  0  0  0  0  0  0  0  0  0
   65.8055   32.6020   48.8512 H   0  0  0  0  0  0  0  0  0  0  0  0
   66.5990   31.7450   50.6570 C   0  0  0  0  0  0  0  0  0  0  0  0
   66.2149   31.3544   51.6109 H   0  0  0  0  0  0  0  0  0  0  0  0
   67.0840   30.9494   50.0724 H   0  0  0  0  0  0  0  0  0  0  0  0
   67.6460   32.8320   50.9490 C   0  0  0  0  0  0  0  0  0  0  0  0
   68.2435   32.5140   51.8161 H   0  0  0  0  0  0  0  0  0  0  0  0
   68.2526   32.9454   50.0384 H   0  0  0  0  0  0  0  0  0  0  0  0
   67.0370   34.2170   51.2590 C   0  0  0  0  0  0  0  0  0  0  0  0
   67.5616   34.6451   52.1259 H   0  0  0  0  0  0  0  0  0  0  0  0
   67.1570   34.8392   50.3599 H   0  0  0  0  0  0  0  0  0  0  0  0
   65.5390   34.1520   51.5770 C   0  0  0  0  0  0  0  0  0  0  0  0
   65.3901   33.6001   52.5168 H   0  0  0  0  0  0  0  0  0  0  0  0
   65.1475   35.1750   51.6779 H   0  0  0  0  0  0  0  0  0  0  0  0
   61.5060   33.2540   48.7570 C   0  0  0  0  0  0  0  0  0  0  0  0
   60.9044   33.0381   49.6522 H   0  0  0  0  0  0  0  0  0  0  0  0
   57.8440   31.1040   45.6100 N   0  0  0  0  0  0  0  0  0  0  0  0
   57.7850   32.1180   45.3650 H   0  0  0  0  0  0  0  0  0  0  0  0
   57.4080   30.0770   44.8550 C   0  0  0  0  0  0  0  0  0  0  0  0
   56.8240   30.2640   43.6660 C   0  0  0  0  0  0  0  0  0  0  0  0
   56.4814   29.3988   43.0794 H   0  0  0  0  0  0  0  0  0  0  0  0
   56.6864   31.2829   43.2750 H   0  0  0  0  0  0  0  0  0  0  0  0
  1  2  1  0
  2  3  1  0
  3  4  1  0
  4  5  1  0
  5  6  2  0
  5  7  1  0
  7  8  1  0
  8  9  2  0
  8 10  1  0
 10 11  1  0
 11 12  1  0
 11 13  2  0
 13 14  1  0
 14 15  1  0
 15 16  1  0
 15 17  1  0
 15 18  1  0
 14 19  2  0
 19 20  1  0
 20 21  2  0
 20 22  1  0
 22 23  1  0
 23 24  2  0
 24 25  1  0
 24 26  1  0
 26 27  1  0
 26 28  2  0
 28 29  1  0
 28 30  1  0
 30 31  1  0
 31 32  2  0
 31 33  1  0
 33 34  1  0
 34 35  1  0
 34 36  1  0
 34 37  1  0
 37 38  1  0
 37 39  1  0
 37 40  1  0
 40 41  1  0
 40 42  1  0
 40 43  1  0
 43 44  1  0
 43 45  1  0
 43 46  1  0
 46 47  1  0
 46 48  1  0
 30 49  2  0
 49 50  1  0
 19 51  1  0
 51 52  1  0
 51 53  1  0
 53 54  2  0
 54 55  1  0
 54 56  1  0
 10  3  2  0
 53 13  1  0
 49 23  1  0
 46 33  1  0
M  CHG  3   4  -1   7  -1  22  -1
M  END
>  <UniqueID>  (54) 
48

>  <SMILES>  (54) 
C=c1[nH]c(C(=O)[N-]c2cccc(C(=O)N3CCCCC3)c2)c(C)/c1=C\c1c(O)[n-]c(=O)[n-]c1=O

>  <Energy>  (54) 
111.33951331038992

>  <Genealogy>  (54) 
C=c1[nH]c(C(=O)[N-]c2cccc(C(=O)N3CCCCC3)c2)c(C)c1=Cc1c(O)[n-]c(=O)[n-]c1=O (protonated)
C=c1[nH]c(C(=O)[N-]c2cccc(C(=O)N3CCCCC3)c2)c(C)/c1=C\c1c(O)[n-]c(=O)[n-]c1=O (cis-trans isomerization)
C=c1[nH]c(C(=O)[N-]c2cccc(C(=O)N3CCCCC3)c2)c(C)/c1=C\c1c(O)[n-]c(=O)[n-]c1=O (3D coordinates assigned)
C=c1[nH]c(C(=O)[N-]c2cccc(C(=O)N3CCCCC3)c2)c(C)/c1=C\c1c(O)[n-]c(=O)[n-]c1=O (nonaromatic ring conformer: 111.33951331038992 kcal/mol)

>  <smiles>  (54) 
C=c1[nH]c(C(=O)Nc2cccc(C(=O)N3CCCCC3)c2)c(C)c1=Cc1c(O)[nH]c(=O)[nH]c1=O

>  <score_type>  (54) 
oracle

>  <origin>  (54) 
adg

>  <m_score__min__energy>  (54) 
-15.949999999999999

>  <m_primary>  (54) 
energy

$$$$
54:0
     RDKit          3D

 71 74  0  0  0  0  0  0  0  0999 V2000
   59.4710   29.1980   48.7500 C   0  0  0  0  0  0  0  0  0  0  0  0
   59.6690   27.9350   48.3500 C   0  0  0  0  0  0  0  0  0  0  0  0
   60.7070   27.5880   47.3170 C   0  0  0  0  0  0  0  0  0  0  0  0
   60.1150   26.8360   46.1990 N   0  0  0  0  0  0  0  0  0  0  0  0
   58.9120   27.0610   45.7230 C   0  0  0  0  0  0  0  0  0  0  0  0
   58.0010   25.9750   45.4560 N   0  0  0  0  0  0  0  0  0  0  0  0
   58.3170   24.3070   45.8430 S   0  0  0  0  0  0  0  0  0  0  0  0
   57.6780   23.9730   47.1620 O   0  0  0  0  0  0  0  0  0  0  0  0
   59.8050   24.1080   45.9540 O   0  0  0  0  0  0  0  0  0  0  0  0
   57.6340   23.2580   44.6000 C   0  0  0  0  0  0  0  0  0  0  0  0
   58.1950   21.9970   44.3510 C   0  0  0  0  0  0  0  0  0  0  0  0
   57.6550   21.1730   43.3600 C   0  0  0  0  0  0  0  0  0  0  0  0
   56.5530   21.6030   42.6130 C   0  0  0  0  0  0  0  0  0  0  0  0
   55.9940   22.8620   42.8530 C   0  0  0  0  0  0  0  0  0  0  0  0
   56.5320   23.6900   43.8450 C   0  0  0  0  0  0  0  0  0  0  0  0
   58.4610   28.4300   45.3780 C   0  0  0  0  0  0  0  0  0  0  0  0
   57.1130   28.6870   45.0880 C   0  0  0  0  0  0  0  0  0  0  0  0
   56.6980   29.9800   44.7490 C   0  0  0  0  0  0  0  0  0  0  0  0
   57.6270   31.0260   44.6700 C   0  0  0  0  0  0  0  0  0  0  0  0
   57.1610   32.2990   44.3010 O   0  0  0  0  0  0  0  0  0  0  0  0
   57.7580   33.5390   44.6820 C   0  0  0  0  0  0  0  0  0  0  0  0
   58.3440   33.4570   46.0630 C   0  0  0  0  0  0  0  0  0  0  0  0
   57.7620   32.7990   47.0700 C   0  0  0  0  0  0  0  0  0  0  0  0
   58.4960   32.9380   48.3310 C   0  0  0  0  0  0  0  0  0  0  0  0
   58.1700   32.3510   49.5530 C   0  0  0  0  0  0  0  0  0  0  0  0
   59.0070   32.5720   50.6570 C   0  0  0  0  0  0  0  0  0  0  0  0
   60.1710   33.3770   50.5280 C   0  0  0  0  0  0  0  0  0  0  0  0
   61.0530   33.6100   51.5950 O   0  0  0  0  0  0  0  0  0  0  0  0
   62.3690   33.0660   51.7030 C   0  0  0  0  0  0  0  0  0  0  0  0
   63.2010   33.4500   50.5050 C   0  0  0  0  0  0  0  0  0  0  0  0
   63.7900   34.5610   50.5200 O   0  0  0  0  0  0  0  0  0  0  0  0
   63.2880   32.6140   49.3290 N   0  0  0  0  0  0  0  0  0  0  0  0
   62.5180   31.3670   49.2240 C   0  0  0  0  0  0  0  0  0  0  0  0
   64.1360   33.0420   48.2140 C   0  0  0  0  0  0  0  0  0  0  0  0
   60.4700   33.9650   49.2840 C   0  0  0  0  0  0  0  0  0  0  0  0
   59.6140   33.7360   48.2080 C   0  0  0  0  0  0  0  0  0  0  0  0
   59.7810   34.3250   46.5850 S   0  0  0  0  0  0  0  0  0  0  0  0
   59.6280   35.8170   46.4910 O   0  0  0  0  0  0  0  0  0  0  0  0
   61.0410   33.8320   45.9300 O   0  0  0  0  0  0  0  0  0  0  0  0
   58.9850   30.7630   44.9440 C   0  0  0  0  0  0  0  0  0  0  0  0
   59.3950   29.4710   45.2910 C   0  0  0  0  0  0  0  0  0  0  0  0
   58.7048   29.4215   49.5070 H   0  0  0  0  0  0  0  0  0  0  0  0
   60.0746   30.0117   48.3215 H   0  0  0  0  0  0  0  0  0  0  0  0
   59.0579   27.1317   48.7873 H   0  0  0  0  0  0  0  0  0  0  0  0
   61.1517   28.5164   46.9293 H   0  0  0  0  0  0  0  0  0  0  0  0
   61.4744   26.9591   47.7920 H   0  0  0  0  0  0  0  0  0  0  0  0
   60.7220   26.1150   45.7460 H   0  0  0  0  0  0  0  0  0  0  0  0
   57.0760   26.1930   45.0250 H   0  0  0  0  0  0  0  0  0  0  0  0
   59.0614   21.6561   44.9367 H   0  0  0  0  0  0  0  0  0  0  0  0
   58.0972   20.1845   43.1669 H   0  0  0  0  0  0  0  0  0  0  0  0
   56.1263   20.9507   41.8369 H   0  0  0  0  0  0  0  0  0  0  0  0
   55.1309   23.2019   42.2618 H   0  0  0  0  0  0  0  0  0  0  0  0
   56.0910   24.6800   44.0332 H   0  0  0  0  0  0  0  0  0  0  0  0
   56.3788   27.8688   45.1272 H   0  0  0  0  0  0  0  0  0  0  0  0
   55.6354   30.1764   44.5432 H   0  0  0  0  0  0  0  0  0  0  0  0
   58.5565   33.7876   43.9674 H   0  0  0  0  0  0  0  0  0  0  0  0
   56.9797   34.3163   44.6790 H   0  0  0  0  0  0  0  0  0  0  0  0
   56.8344   32.2173   46.9642 H   0  0  0  0  0  0  0  0  0  0  0  0
   57.2709   31.7247   49.6499 H   0  0  0  0  0  0  0  0  0  0  0  0
   58.7607   32.1192   51.6288 H   0  0  0  0  0  0  0  0  0  0  0  0
   62.8470   33.4538   52.6147 H   0  0  0  0  0  0  0  0  0  0  0  0
   62.2972   31.9693   51.7487 H   0  0  0  0  0  0  0  0  0  0  0  0
   62.2869   30.9928   50.2322 H   0  0  0  0  0  0  0  0  0  0  0  0
   61.5811   31.5592   48.6806 H   0  0  0  0  0  0  0  0  0  0  0  0
   63.1095   30.6155   48.6806 H   0  0  0  0  0  0  0  0  0  0  0  0
   65.0530   33.5048   48.6074 H   0  0  0  0  0  0  0  0  0  0  0  0
   64.4006   32.1695   47.5986 H   0  0  0  0  0  0  0  0  0  0  0  0
   63.5912   33.7731   47.5986 H   0  0  0  0  0  0  0  0  0  0  0  0
   61.3640   34.5944   49.1633 H   0  0  0  0  0  0  0  0  0  0  0  0
   59.7240   31.5757   44.8848 H   0  0  0  0  0  0  0  0  0  0  0  0
   60.4570   29.2712   45.4968 H   0  0  0  0  0  0  0  0  0  0  0  0
  1  2  2  0
  2  3  1  0
  3  4  1  0
  4  5  2  3
  5  6  1  0
  6  7  1  0
  7  8  2  0
  7  9  2  0
  7 10  1  0
 10 11  2  0
 11 12  1  0
 12 13  2  0
 13 14  1  0
 14 15  2  0
  5 16  1  0
 16 17  2  0
 17 18  1  0
 18 19  2  0
 19 20  1  0
 20 21  1  0
 21 22  1  0
 22 23  2  0
 23 24  1  0
 24 25  2  0
 25 26  1  0
 26 27  2  0
 27 28  1  0
 28 29  1  0
 29 30  1  0
 30 31  2  0
 30 32  1  0
 32 33  1  0
 32 34  1  0
 27 35  1  0
 35 36  2  0
 36 37  1  0
 37 38  2  0
 37 39  2  0
 19 40  1  0
 40 41  2  0
 15 10  1  0
 41 16  1  0
 37 22  1  0
 36 24  1  0
  1 42  1  0
  1 43  1  0
  2 44  1  0
  3 45  1  0
  3 46  1  0
  4 47  1  0
  6 48  1  0
 11 49  1  0
 12 50  1  0
 13 51  1  0
 14 52  1  0
 15 53  1  0
 17 54  1  0
 18 55  1  0
 21 56  1  0
 21 57  1  0
 23 58  1  0
 25 59  1  0
 26 60  1  0
 29 61  1  0
 29 62  1  0
 33 63  1  0
 33 64  1  0
 33 65  1  0
 34 66  1  0
 34 67  1  0
 34 68  1  0
 35 69  1  0
 40 70  1  0
 41 71  1  0
M  CHG  1   4   1
M  END
>  <UniqueID>  (55) 
49

>  <SMILES>  (55) 
C=CC[NH+]=C(NS(=O)(=O)c1ccccc1)c1ccc(OCC2=Cc3ccc(OCC(=O)N(C)C)cc3S2(=O)=O)cc1

>  <Energy>  (55) 
96.63290569129038

>  <Genealogy>  (55) 
C=CC[NH+]=C(NS(=O)(=O)c1ccccc1)c1ccc(OCC2=Cc3ccc(OCC(=O)N(C)C)cc3S2(=O)=O)cc1 (protonated)
C=CC[NH+]=C(NS(=O)(=O)c1ccccc1)c1ccc(OCC2=Cc3ccc(OCC(=O)N(C)C)cc3S2(=O)=O)cc1 (3D coordinates assigned)
C=CC[NH+]=C(NS(=O)(=O)c1ccccc1)c1ccc(OCC2=Cc3ccc(OCC(=O)N(C)C)cc3S2(=O)=O)cc1 (nonaromatic ring conformer: 96.63290569129038 kcal/mol)

>  <smiles>  (55) 
C=CCN=C(NS(=O)(=O)c1ccccc1)c1ccc(OCC2=Cc3ccc(OCC(=O)N(C)C)cc3S2(=O)=O)cc1

>  <score_type>  (55) 
oracle

>  <origin>  (55) 
adg

>  <m_score__min__energy>  (55) 
-9.1699999999999999

>  <m_primary>  (55) 
energy

$$$$
55:0
     RDKit          3D

 34 36  0  0  0  0  0  0  0  0999 V2000
   58.7560   27.7700   44.7360 O   0  0  0  0  0  0  0  0  0  0  0  0
   57.8100   28.2750   45.3950 C   0  0  0  0  0  0  0  0  0  0  0  0
   56.8460   27.3990   45.9970 N   0  0  0  0  0  0  0  0  0  0  0  0
   56.6310   26.0170   45.6710 C   0  0  0  0  0  0  0  0  0  0  0  0
   57.6970   25.1690   45.3130 C   0  0  0  0  0  0  0  0  0  0  0  0
   57.4550   23.8300   44.9980 C   0  0  0  0  0  0  0  0  0  0  0  0
   56.1510   23.3290   45.0180 C   0  0  0  0  0  0  0  0  0  0  0  0
   55.9190   22.0290   44.7100 F   0  0  0  0  0  0  0  0  0  0  0  0
   55.0850   24.1710   45.3470 C   0  0  0  0  0  0  0  0  0  0  0  0
   55.3210   25.5120   45.6670 C   0  0  0  0  0  0  0  0  0  0  0  0
   54.2510   26.3390   45.9890 O   0  0  0  0  0  0  0  0  0  0  0  0
   57.6940   29.7530   45.4840 C   0  0  0  0  0  0  0  0  0  0  0  0
   56.6610   30.4270   44.8180 C   0  0  0  0  0  0  0  0  0  0  0  0
   55.7230   29.7310   44.0670 O   0  0  0  0  0  0  0  0  0  0  0  0
   56.5810   31.7780   44.8870 N   0  0  0  0  0  0  0  0  0  0  0  0
   57.4800   32.5090   45.5920 C   0  0  0  0  0  0  0  0  0  0  0  0
   57.3620   33.7640   45.6220 O   0  0  0  0  0  0  0  0  0  0  0  0
   58.4960   31.8860   46.2680 N   0  0  0  0  0  0  0  0  0  0  0  0
   59.4520   32.6680   47.0080 C   0  0  0  0  0  0  0  0  0  0  0  0
   60.5920   33.1740   46.3620 C   0  0  0  0  0  0  0  0  0  0  0  0
   61.5290   33.9280   47.0750 C   0  0  0  0  0  0  0  0  0  0  0  0
   61.3330   34.1820   48.4350 C   0  0  0  0  0  0  0  0  0  0  0  0
   60.1990   33.6850   49.0840 C   0  0  0  0  0  0  0  0  0  0  0  0
   59.2580   32.9310   48.3760 C   0  0  0  0  0  0  0  0  0  0  0  0
   58.1290   32.4490   49.0300 O   0  0  0  0  0  0  0  0  0  0  0  0
   58.6070   30.5200   46.2320 C   0  0  0  0  0  0  0  0  0  0  0  0
   59.5280   29.9460   46.8800 O   0  0  0  0  0  0  0  0  0  0  0  0
   58.7237   25.5626   45.2814 H   0  0  0  0  0  0  0  0  0  0  0  0
   58.2930   23.1684   44.7336 H   0  0  0  0  0  0  0  0  0  0  0  0
   54.0576   23.7780   45.3543 H   0  0  0  0  0  0  0  0  0  0  0  0
   60.7482   32.9763   45.2912 H   0  0  0  0  0  0  0  0  0  0  0  0
   62.4208   34.3214   46.5652 H   0  0  0  0  0  0  0  0  0  0  0  0
   62.0718   34.7736   48.9955 H   0  0  0  0  0  0  0  0  0  0  0  0
   60.0465   33.8876   50.1544 H   0  0  0  0  0  0  0  0  0  0  0  0
  1  2  2  0
  2  3  1  0
  3  4  1  0
  4  5  2  0
  5  6  1  0
  6  7  2  0
  7  8  1  0
  7  9  1  0
  9 10  2  0
 10 11  1  0
  2 12  1  0
 12 13  2  0
 13 14  1  0
 13 15  1  0
 15 16  1  0
 16 17  2  0
 16 18  1  0
 18 19  1  0
 19 20  2  0
 20 21  1  0
 21 22  2  0
 22 23  1  0
 23 24  2  0
 24 25  1  0
 18 26  1  0
 26 27  2  0
 10  4  1  0
 26 12  1  0
 24 19  1  0
  5 28  1  0
  6 29  1  0
  9 30  1  0
 20 31  1  0
 21 32  1  0
 22 33  1  0
 23 34  1  0
M  CHG  5   3  -1  11  -1  14  -1  15  -1  25  -1
M  END
>  <UniqueID>  (56) 
50

>  <SMILES>  (56) 
O=C([N-]c1ccc(F)cc1[O-])c1c([O-])[n-]c(=O)n(-c2ccccc2[O-])c1=O

>  <Energy>  (56) 
58.473860443526625

>  <Genealogy>  (56) 
O=C([N-]c1ccc(F)cc1[O-])c1c([O-])[n-]c(=O)n(-c2ccccc2[O-])c1=O (protonated)
O=C([N-]c1ccc(F)cc1[O-])c1c([O-])[n-]c(=O)n(-c2ccccc2[O-])c1=O (3D coordinates assigned)
O=C([N-]c1ccc(F)cc1[O-])c1c([O-])[n-]c(=O)n(-c2ccccc2[O-])c1=O (optimized conformer: 58.473860443526625 kcal/mol)

>  <smiles>  (56) 
O=C(Nc1ccc(F)cc1O)c1c(O)[nH]c(=O)n(-c2ccccc2O)c1=O

>  <score_type>  (56) 
oracle

>  <origin>  (56) 
adg

>  <m_score__min__energy>  (56) 
-16.84

>  <m_primary>  (56) 
energy

$$$$
56:0
     RDKit          3D

 45 47  0  0  1  0  0  0  0  0999 V2000
   57.3990   28.7070   43.8040 C   0  0  0  0  0  0  0  0  0  0  0  0
   56.6350   29.7300   43.4460 C   0  0  0  0  0  0  0  0  0  0  0  0
   57.0170   31.1680   43.5990 C   0  0  0  0  0  0  0  0  0  0  0  0
   56.9630   31.6940   44.8800 N   0  0  0  0  0  0  0  0  0  0  0  0
   57.9290   31.7380   45.7080 C   0  0  0  0  0  0  0  0  0  0  0  0
   58.2730   30.5470   46.2600 N   0  0  0  0  0  0  0  0  0  0  0  0
   59.2880   30.4920   47.1230 C   0  0  0  0  0  0  0  0  0  0  0  0
   59.7120   29.2150   47.7040 C   0  0  0  0  0  0  0  0  0  0  0  0
   60.1350   28.9090   48.8960 C   0  0  0  0  0  0  0  0  0  0  0  0
   60.4440   27.4600   48.9950 C   0  0  0  0  0  0  0  0  0  0  0  0
   59.6900   26.8870   47.9210 N   0  0  0  0  0  0  0  0  0  0  0  0
   59.7520   27.9220   46.9300 C   0  0  0  0  0  0  0  0  0  0  0  0
   59.9430   31.6150   47.4230 N   0  0  0  0  0  0  0  0  0  0  0  0
   59.6310   32.8410   46.8900 C   0  0  0  0  0  0  0  0  0  0  0  0
   60.4670   33.9550   47.3600 C   0  0  0  0  0  0  0  0  0  0  0  0
   61.5020   33.6200   48.3540 C   0  0  0  0  0  0  0  0  0  0  0  0
   62.8490   33.4600   47.9990 C   0  0  0  0  0  0  0  0  0  0  0  0
   63.3840   33.8260   46.3470 Cl  0  0  0  0  0  0  0  0  0  0  0  0
   63.8170   33.0680   48.8940 C   0  0  0  0  0  0  0  0  0  0  0  0
   63.5230   32.8090   50.2090 C   0  0  0  0  0  0  0  0  0  0  0  0
   62.1770   32.9710   50.5690 C   0  0  0  0  0  0  0  0  0  0  0  0
   61.2130   33.3560   49.6910 C   0  0  0  0  0  0  0  0  0  0  0  0
   59.5720   33.4880   50.2800 Cl  0  0  0  0  0  0  0  0  0  0  0  0
   58.5860   32.9130   46.0010 C   0  0  0  0  0  0  0  0  0  0  0  0
   58.1810   34.1650   45.3950 C   0  0  0  0  0  0  0  0  0  0  0  0
   57.0428   27.6767   43.6572 H   0  0  0  0  0  0  0  0  0  0  0  0
   58.3890   28.8887   44.2478 H   0  0  0  0  0  0  0  0  0  0  0  0
   55.6521   29.5055   43.0060 H   0  0  0  0  0  0  0  0  0  0  0  0
   58.0496   31.2788   43.2366 H   0  0  0  0  0  0  0  0  0  0  0  0
   56.2654   31.7292   43.0245 H   0  0  0  0  0  0  0  0  0  0  0  0
   60.2485   29.6281   49.7206 H   0  0  0  0  0  0  0  0  0  0  0  0
   61.5205   27.2769   48.8620 H   0  0  0  0  0  0  0  0  0  0  0  0
   60.1889   27.0320   49.9757 H   0  0  0  0  0  0  0  0  0  0  0  0
   58.6970   26.7900   48.2020 H   0  0  0  0  0  0  0  0  0  0  0  0
   60.6851   27.8472   46.3523 H   0  0  0  0  0  0  0  0  0  0  0  0
   58.9249   27.8496   46.2084 H   0  0  0  0  0  0  0  0  0  0  0  0
   60.7270   31.5230   48.1170 H   0  0  0  0  0  0  0  0  0  0  0  0
   60.9715   34.3884   46.4838 H   0  0  0  0  0  0  0  0  0  0  0  0
   59.7785   34.6423   47.8735 H   0  0  0  0  0  0  0  0  0  0  0  0
   64.8549   32.9592   48.5462 H   0  0  0  0  0  0  0  0  0  0  0  0
   64.2907   32.4956   50.9318 H   0  0  0  0  0  0  0  0  0  0  0  0
   61.8874   32.7771   51.6123 H   0  0  0  0  0  0  0  0  0  0  0  0
   57.9450   34.8946   46.1836 H   0  0  0  0  0  0  0  0  0  0  0  0
   58.9998   34.5519   44.7706 H   0  0  0  0  0  0  0  0  0  0  0  0
   57.2907   33.9991   44.7706 H   0  0  0  0  0  0  0  0  0  0  0  0
  1  2  2  0
  2  3  1  0
  3  4  1  0
  4  5  2  0
  5  6  1  0
  6  7  2  0
  7  8  1  0
  8  9  2  0
  9 10  1  0
 10 11  1  0
 11 12  1  0
  7 13  1  0
 13 14  1  0
 14 15  1  0
 15 16  1  0
 16 17  2  0
 17 18  1  0
 17 19  1  0
 19 20  2  0
 20 21  1  0
 21 22  2  0
 22 23  1  0
 14 24  2  0
 24 25  1  0
 24  5  1  0
 12  8  1  0
 22 16  1  0
  1 26  1  0
  1 27  1  0
  2 28  1  0
  3 29  1  0
  3 30  1  0
  9 31  1  0
 10 32  1  0
 10 33  1  0
 11 34  1  0
 12 35  1  0
 12 36  1  0
 13 37  1  0
 15 38  1  0
 15 39  1  0
 19 40  1  0
 20 41  1  0
 21 42  1  0
 25 43  1  0
 25 44  1  0
 25 45  1  0
M  END
>  <smiles>  (57) 
C=CCN=c1nc(C2=CCNC2)[nH]c(Cc2c(Cl)cccc2Cl)c1C

>  <score_type>  (57) 
oracle

>  <origin>  (57) 
adg

>  <m_score__min__energy>  (57) 
-8.2400000000000002

>  <m_primary>  (57) 
energy

$$$$
57:0
     RDKit          3D

 57 60  0  0  0  0  0  0  0  0999 V2000
   57.7010   31.9590   42.5650 C   0  0  0  0  0  0  0  0  0  0  0  0
   57.6860   31.8850   44.0390 N   0  0  0  0  0  0  0  0  0  0  0  0
   57.5940   30.6930   44.7340 C   0  0  0  0  0  0  0  0  0  0  0  0
   57.1890   29.5650   44.2100 N   0  0  0  0  0  0  0  0  0  0  0  0
   57.3580   28.2220   44.6800 C   0  0  0  0  0  0  0  0  0  0  0  0
   57.0540   27.8880   46.0070 C   0  0  0  0  0  0  0  0  0  0  0  0
   57.2460   26.5810   46.4630 C   0  0  0  0  0  0  0  0  0  0  0  0
   57.7650   25.6030   45.6020 C   0  0  0  0  0  0  0  0  0  0  0  0
   57.9320   23.9340   46.1530 S   0  0  0  0  0  0  0  0  0  0  0  0
   57.7640   23.8850   47.6460 O   0  0  0  0  0  0  0  0  0  0  0  0
   59.3120   23.4370   45.8230 O   0  0  0  0  0  0  0  0  0  0  0  0
   56.7420   22.8930   45.4050 N   0  0  0  0  0  0  0  0  0  0  0  0
   55.9390   23.6180   44.3960 C   0  0  0  0  0  0  0  0  0  0  0  0
   56.3650   23.2670   42.9580 C   0  0  0  0  0  0  0  0  0  0  0  0
   56.2590   21.8810   42.6630 O   0  0  0  0  0  0  0  0  0  0  0  0
   56.5080   21.0350   43.7800 C   0  0  0  0  0  0  0  0  0  0  0  0
   57.3850   21.6770   44.8660 C   0  0  0  0  0  0  0  0  0  0  0  0
   58.1300   25.9570   44.2960 C   0  0  0  0  0  0  0  0  0  0  0  0
   57.9390   27.2650   43.8410 C   0  0  0  0  0  0  0  0  0  0  0  0
   57.9240   30.6700   46.0450 N   0  0  0  0  0  0  0  0  0  0  0  0
   58.2280   31.7970   46.7210 C   0  0  0  0  0  0  0  0  0  0  0  0
   58.5390   31.7130   47.9400 O   0  0  0  0  0  0  0  0  0  0  0  0
   58.1790   33.0070   46.0890 N   0  0  0  0  0  0  0  0  0  0  0  0
   58.4820   34.2550   46.8230 C   0  0  0  0  0  0  0  0  0  0  0  0
   59.8280   34.8510   46.3860 C   0  0  0  0  0  0  0  0  0  0  0  0
   60.9840   34.2160   47.1150 C   0  0  0  0  0  0  0  0  0  0  0  0
   60.8890   33.9440   48.4890 C   0  0  0  0  0  0  0  0  0  0  0  0
   61.9450   33.3150   49.1570 C   0  0  0  0  0  0  0  0  0  0  0  0
   63.0960   32.9470   48.4550 C   0  0  0  0  0  0  0  0  0  0  0  0
   63.1930   33.2050   47.0850 C   0  0  0  0  0  0  0  0  0  0  0  0
   62.1410   33.8360   46.4150 C   0  0  0  0  0  0  0  0  0  0  0  0
   57.9050   33.0440   44.7450 C   0  0  0  0  0  0  0  0  0  0  0  0
   57.8720   34.1580   44.1490 O   0  0  0  0  0  0  0  0  0  0  0  0
   57.9105   32.9925   42.2519 H   0  0  0  0  0  0  0  0  0  0  0  0
   58.4821   31.2914   42.1723 H   0  0  0  0  0  0  0  0  0  0  0  0
   56.7216   31.6483   42.1723 H   0  0  0  0  0  0  0  0  0  0  0  0
   56.6636   28.6561   46.6907 H   0  0  0  0  0  0  0  0  0  0  0  0
   56.9894   26.3186   47.5000 H   0  0  0  0  0  0  0  0  0  0  0  0
   54.8797   23.3521   44.5274 H   0  0  0  0  0  0  0  0  0  0  0  0
   56.1003   24.6959   44.5444 H   0  0  0  0  0  0  0  0  0  0  0  0
   55.7237   23.8230   42.2583 H   0  0  0  0  0  0  0  0  0  0  0  0
   57.4252   23.5417   42.8560 H   0  0  0  0  0  0  0  0  0  0  0  0
   55.5420   20.7638   44.2308 H   0  0  0  0  0  0  0  0  0  0  0  0
   57.0585   20.1611   43.4013 H   0  0  0  0  0  0  0  0  0  0  0  0
   57.5346   20.9554   45.6826 H   0  0  0  0  0  0  0  0  0  0  0  0
   58.3517   21.9556   44.4211 H   0  0  0  0  0  0  0  0  0  0  0  0
   58.5685   25.2026   43.6263 H   0  0  0  0  0  0  0  0  0  0  0  0
   58.2460   27.5422   42.8217 H   0  0  0  0  0  0  0  0  0  0  0  0
   57.6856   34.9879   46.6263 H   0  0  0  0  0  0  0  0  0  0  0  0
   58.5404   34.0194   47.8959 H   0  0  0  0  0  0  0  0  0  0  0  0
   59.9556   34.6881   45.3056 H   0  0  0  0  0  0  0  0  0  0  0  0
   59.8207   35.9245   46.6257 H   0  0  0  0  0  0  0  0  0  0  0  0
   59.9811   34.2264   49.0422 H   0  0  0  0  0  0  0  0  0  0  0  0
   61.8694   33.1100   50.2351 H   0  0  0  0  0  0  0  0  0  0  0  0
   63.9265   32.4538   48.9814 H   0  0  0  0  0  0  0  0  0  0  0  0
   64.0982   32.9112   46.5333 H   0  0  0  0  0  0  0  0  0  0  0  0
   62.2194   34.0356   45.3361 H   0  0  0  0  0  0  0  0  0  0  0  0
  1  2  1  0
  2  3  1  0
  3  4  2  3
  4  5  1  0
  5  6  2  0
  6  7  1  0
  7  8  2  0
  8  9  1  0
  9 10  2  0
  9 11  2  0
  9 12  1  0
 12 13  1  0
 13 14  1  0
 14 15  1  0
 15 16  1  0
 16 17  1  0
  8 18  1  0
 18 19  2  0
  3 20  1  0
 20 21  1  0
 21 22  2  0
 21 23  1  0
 23 24  1  0
 24 25  1  0
 25 26  1  0
 26 27  2  0
 27 28  1  0
 28 29  2  0
 29 30  1  0
 30 31  2  0
 23 32  1  0
 32 33  2  0
 32  2  1  0
 19  5  1  0
 31 26  1  0
 17 12  1  0
  1 34  1  0
  1 35  1  0
  1 36  1  0
  6 37  1  0
  7 38  1  0
 13 39  1  0
 13 40  1  0
 14 41  1  0
 14 42  1  0
 16 43  1  0
 16 44  1  0
 17 45  1  0
 17 46  1  0
 18 47  1  0
 19 48  1  0
 24 49  1  0
 24 50  1  0
 25 51  1  0
 25 52  1  0
 27 53  1  0
 28 54  1  0
 29 55  1  0
 30 56  1  0
 31 57  1  0
M  CHG  1  20  -1
M  END
>  <UniqueID>  (58) 
51

>  <SMILES>  (58) 
Cn1c(=Nc2ccc(S(=O)(=O)N3CCOCC3)cc2)[n-]c(=O)n(CCc2ccccc2)c1=O

>  <Energy>  (58) 
93.71249150685814

>  <Genealogy>  (58) 
Cn1c(=Nc2ccc(S(=O)(=O)N3CCOCC3)cc2)[n-]c(=O)n(CCc2ccccc2)c1=O (protonated)
Cn1c(=Nc2ccc(S(=O)(=O)N3CCOCC3)cc2)[n-]c(=O)n(CCc2ccccc2)c1=O (3D coordinates assigned)
Cn1c(=Nc2ccc(S(=O)(=O)N3CCOCC3)cc2)[n-]c(=O)n(CCc2ccccc2)c1=O (nonaromatic ring conformer: 93.71249150685814 kcal/mol)

>  <smiles>  (58) 
Cn1c(=Nc2ccc(S(=O)(=O)N3CCOCC3)cc2)[nH]c(=O)n(CCc2ccccc2)c1=O

>  <score_type>  (58) 
oracle

>  <origin>  (58) 
adg

>  <m_score__min__energy>  (58) 
-11.59

>  <m_primary>  (58) 
energy

$$$$
58:0
     RDKit          3D

 66 69  0  0  0  0  0  0  0  0999 V2000
   58.7630   30.4350   45.4730 C   0  0  0  0  0  0  0  0  0  0  0  0
   58.6280   30.3090   46.7940 C   0  0  0  0  0  0  0  0  0  0  0  0
   59.7470   30.4200   47.7620 C   0  0  0  0  0  0  0  0  0  0  0  0
   61.0460   30.7410   47.3640 C   0  0  0  0  0  0  0  0  0  0  0  0
   62.0490   30.8450   48.3170 C   0  0  0  0  0  0  0  0  0  0  0  0
   61.7900   30.6250   49.6810 C   0  0  0  0  0  0  0  0  0  0  0  0
   62.9700   30.8450   50.6070 C   0  0  0  0  0  0  0  0  0  0  0  0
   62.5680   31.4580   51.9290 C   0  0  0  0  0  0  0  0  0  0  0  0
   61.9960   30.7400   52.7960 O   0  0  0  0  0  0  0  0  0  0  0  0
   62.8070   32.8570   52.2070 N   0  0  0  0  0  0  0  0  0  0  0  0
   62.6070   33.3940   53.5580 C   0  0  0  0  0  0  0  0  0  0  0  0
   63.2700   33.7480   51.1330 C   0  0  0  0  0  0  0  0  0  0  0  0
   62.2350   33.8310   50.0430 C   0  0  0  0  0  0  0  0  0  0  0  0
   60.8670   33.8010   50.3530 C   0  0  0  0  0  0  0  0  0  0  0  0
   59.9100   33.8570   49.3360 C   0  0  0  0  0  0  0  0  0  0  0  0
   60.3040   33.9410   47.9880 C   0  0  0  0  0  0  0  0  0  0  0  0
   59.2890   34.0030   46.9060 C   0  0  0  0  0  0  0  0  0  0  0  0
   57.9890   33.4990   47.1150 C   0  0  0  0  0  0  0  0  0  0  0  0
   57.0340   33.5590   46.0950 C   0  0  0  0  0  0  0  0  0  0  0  0
   57.3640   34.1180   44.8580 C   0  0  0  0  0  0  0  0  0  0  0  0
   58.6480   34.6190   44.6380 C   0  0  0  0  0  0  0  0  0  0  0  0
   59.6070   34.5630   45.6540 C   0  0  0  0  0  0  0  0  0  0  0  0
   61.6770   33.9660   47.6820 C   0  0  0  0  0  0  0  0  0  0  0  0
   62.6320   33.9100   48.7010 C   0  0  0  0  0  0  0  0  0  0  0  0
   60.4430   30.3160   50.0670 C   0  0  0  0  0  0  0  0  0  0  0  0
   60.0230   30.0900   51.2870 N   0  0  0  0  0  0  0  0  0  0  0  0
   58.5650   30.3860   52.1870 S   0  0  0  0  0  0  0  0  0  0  0  0
   58.3910   29.3930   53.2980 O   0  0  0  0  0  0  0  0  0  0  0  0
   57.3660   30.3700   51.2780 O   0  0  0  0  0  0  0  0  0  0  0  0
   58.7080   31.9870   52.9050 C   0  0  0  0  0  0  0  0  0  0  0  0
   58.2940   33.1240   52.1980 C   0  0  0  0  0  0  0  0  0  0  0  0
   58.4260   34.3940   52.7680 C   0  0  0  0  0  0  0  0  0  0  0  0
   58.9670   34.5390   54.0560 C   0  0  0  0  0  0  0  0  0  0  0  0
   59.1470   35.9040   54.6520 C   0  0  0  0  0  0  0  0  0  0  0  0
   59.4040   33.4010   54.7500 C   0  0  0  0  0  0  0  0  0  0  0  0
   59.2720   32.1320   54.1800 C   0  0  0  0  0  0  0  0  0  0  0  0
   59.4890   30.2380   49.0890 N   0  0  0  0  0  0  0  0  0  0  0  0
   57.8839   30.3395   44.8187 H   0  0  0  0  0  0  0  0  0  0  0  0
   59.7534   30.6344   45.0379 H   0  0  0  0  0  0  0  0  0  0  0  0
   57.6219   30.1099   47.1915 H   0  0  0  0  0  0  0  0  0  0  0  0
   61.2730   30.9105   46.3011 H   0  0  0  0  0  0  0  0  0  0  0  0
   63.0691   31.1053   47.9982 H   0  0  0  0  0  0  0  0  0  0  0  0
   63.4509   29.8749   50.8007 H   0  0  0  0  0  0  0  0  0  0  0  0
   63.6558   31.5471   50.1102 H   0  0  0  0  0  0  0  0  0  0  0  0
   62.8903   32.6335   54.3005 H   0  0  0  0  0  0  0  0  0  0  0  0
   63.2321   34.2890   53.6931 H   0  0  0  0  0  0  0  0  0  0  0  0
   61.5487   33.6621   53.6931 H   0  0  0  0  0  0  0  0  0  0  0  0
   63.4451   34.7528   51.5449 H   0  0  0  0  0  0  0  0  0  0  0  0
   64.2034   33.3466   50.7114 H   0  0  0  0  0  0  0  0  0  0  0  0
   60.5457   33.7330   51.4028 H   0  0  0  0  0  0  0  0  0  0  0  0
   58.8403   33.8352   49.5915 H   0  0  0  0  0  0  0  0  0  0  0  0
   57.7242   33.0558   48.0863 H   0  0  0  0  0  0  0  0  0  0  0  0
   56.0214   33.1654   46.2671 H   0  0  0  0  0  0  0  0  0  0  0  0
   56.6115   34.1633   44.0569 H   0  0  0  0  0  0  0  0  0  0  0  0
   58.9060   35.0588   43.6633 H   0  0  0  0  0  0  0  0  0  0  0  0
   60.6172   34.9593   45.4738 H   0  0  0  0  0  0  0  0  0  0  0  0
   62.0013   34.0301   46.6329 H   0  0  0  0  0  0  0  0  0  0  0  0
   63.7024   33.9280   48.4481 H   0  0  0  0  0  0  0  0  0  0  0  0
   57.8638   33.0170   51.1913 H   0  0  0  0  0  0  0  0  0  0  0  0
   58.1049   35.2830   52.2054 H   0  0  0  0  0  0  0  0  0  0  0  0
   59.1371   35.8291   55.7494 H   0  0  0  0  0  0  0  0  0  0  0  0
   60.1084   36.3244   54.3218 H   0  0  0  0  0  0  0  0  0  0  0  0
   58.3275   36.5593   54.3218 H   0  0  0  0  0  0  0  0  0  0  0  0
   59.8531   33.5081   55.7484 H   0  0  0  0  0  0  0  0  0  0  0  0
   59.6117   31.2442   54.7335 H   0  0  0  0  0  0  0  0  0  0  0  0
   58.5080   30.0100   49.3720 H   0  0  0  0  0  0  0  0  0  0  0  0
  1  2  2  0
  2  3  1  0
  3  4  2  0
  4  5  1  0
  5  6  2  0
  6  7  1  0
  7  8  1  0
  8  9  2  0
  8 10  1  0
 10 11  1  0
 10 12  1  0
 12 13  1  0
 13 14  2  0
 14 15  1  0
 15 16  2  0
 16 17  1  0
 17 18  2  0
 18 19  1  0
 19 20  2  0
 20 21  1  0
 21 22  2  0
 16 23  1  0
 23 24  2  0
  6 25  1  0
 25 26  2  3
 26 27  1  0
 27 28  2  0
 27 29  2  0
 27 30  1  0
 30 31  2  0
 31 32  1  0
 32 33  2  0
 33 34  1  0
 33 35  1  0
 35 36  2  0
 25 37  1  0
 37  3  1  0
 24 13  1  0
 36 30  1  0
 22 17  1  0
  1 38  1  0
  1 39  1  0
  2 40  1  0
  4 41  1  0
  5 42  1  0
  7 43  1  0
  7 44  1  0
 11 45  1  0
 11 46  1  0
 11 47  1  0
 12 48  1  0
 12 49  1  0
 14 50  1  0
 15 51  1  0
 18 52  1  0
 19 53  1  0
 20 54  1  0
 21 55  1  0
 22 56  1  0
 23 57  1  0
 24 58  1  0
 31 59  1  0
 32 60  1  0
 34 61  1  0
 34 62  1  0
 34 63  1  0
 35 64  1  0
 36 65  1  0
 37 66  1  0
M  END
>  <UniqueID>  (59) 
52

>  <SMILES>  (59) 
C=Cc1ccc(CC(=O)N(C)Cc2ccc(-c3ccccc3)cc2)c(=NS(=O)(=O)c2ccc(C)cc2)[nH]1

>  <Energy>  (59) 
95.8992415153188

>  <Genealogy>  (59) 
C=Cc1ccc(CC(=O)N(C)Cc2ccc(-c3ccccc3)cc2)c(=NS(=O)(=O)c2ccc(C)cc2)[nH]1 (3D coordinates assigned)
C=Cc1ccc(CC(=O)N(C)Cc2ccc(-c3ccccc3)cc2)c(=NS(=O)(=O)c2ccc(C)cc2)[nH]1 (optimized conformer: 95.8992415153188 kcal/mol)

>  <smiles>  (59) 
C=Cc1ccc(CC(=O)N(C)Cc2ccc(-c3ccccc3)cc2)c(=NS(=O)(=O)c2ccc(C)cc2)[nH]1

>  <score_type>  (59) 
oracle

>  <origin>  (59) 
adg

>  <m_score__min__energy>  (59) 
-11.57

>  <m_primary>  (59) 
energy

$$$$
59:0
     RDKit          3D

 49 52  0  0  0  0  0  0  0  0999 V2000
   57.5060   31.6500   50.6440 N   0  0  0  0  0  0  0  0  0  0  0  0
   58.5070   30.9290   49.9340 C   0  0  0  0  0  0  0  0  0  0  0  0
   58.2140   29.8200   49.4130 O   0  0  0  0  0  0  0  0  0  0  0  0
   59.8740   31.4630   49.7700 C   0  0  0  0  0  0  0  0  0  0  0  0
   60.9580   30.7600   50.1880 N   0  0  0  0  0  0  0  0  0  0  0  0
   61.9860   31.5830   49.9160 C   0  0  0  0  0  0  0  0  0  0  0  0
   63.3330   31.3590   50.1800 C   0  0  0  0  0  0  0  0  0  0  0  0
   64.2600   32.3790   49.8570 C   0  0  0  0  0  0  0  0  0  0  0  0
   65.7030   32.1770   50.1360 C   0  0  0  0  0  0  0  0  0  0  0  0
   66.1750   31.0200   50.8280 N   0  0  0  0  0  0  0  0  0  0  0  0
   66.5380   33.0450   49.7660 O   0  0  0  0  0  0  0  0  0  0  0  0
   63.7830   33.5970   49.3000 C   0  0  0  0  0  0  0  0  0  0  0  0
   62.4120   33.7880   49.0480 C   0  0  0  0  0  0  0  0  0  0  0  0
   61.5380   32.7440   49.3620 C   0  0  0  0  0  0  0  0  0  0  0  0
   60.1950   32.6900   49.2530 N   0  0  0  0  0  0  0  0  0  0  0  0
   59.2970   33.7660   48.8140 C   0  0  0  0  0  0  0  0  0  0  0  0
   59.0090   33.6640   47.3390 C   0  0  0  0  0  0  0  0  0  0  0  0
   59.8350   34.3090   46.4080 C   0  0  0  0  0  0  0  0  0  0  0  0
   59.5720   34.1980   45.0420 C   0  0  0  0  0  0  0  0  0  0  0  0
   58.5040   33.4230   44.5900 C   0  0  0  0  0  0  0  0  0  0  0  0
   57.6960   32.7380   45.5000 C   0  0  0  0  0  0  0  0  0  0  0  0
   56.6380   31.9120   44.9910 N   0  0  0  0  0  0  0  0  0  0  0  0
   56.7900   30.2360   44.5800 S   0  0  0  0  0  0  0  0  0  0  0  0
   55.5000   29.5350   44.8760 O   0  0  0  0  0  0  0  0  0  0  0  0
   57.0740   30.1140   43.1120 O   0  0  0  0  0  0  0  0  0  0  0  0
   58.0750   29.4970   45.5270 C   0  0  0  0  0  0  0  0  0  0  0  0
   57.8040   28.3600   46.3000 C   0  0  0  0  0  0  0  0  0  0  0  0
   58.8200   27.7610   47.0520 C   0  0  0  0  0  0  0  0  0  0  0  0
   60.1110   28.2950   47.0350 C   0  0  0  0  0  0  0  0  0  0  0  0
   60.3860   29.4320   46.2680 C   0  0  0  0  0  0  0  0  0  0  0  0
   59.3720   30.0320   45.5140 C   0  0  0  0  0  0  0  0  0  0  0  0
   57.9490   32.8660   46.8770 C   0  0  0  0  0  0  0  0  0  0  0  0
   56.6380   31.9750   50.1650 H   0  0  0  0  0  0  0  0  0  0  0  0
   63.6697   30.4128   50.6286 H   0  0  0  0  0  0  0  0  0  0  0  0
   67.2010   30.8740   50.9530 H   0  0  0  0  0  0  0  0  0  0  0  0
   65.5220   30.3610   51.3050 H   0  0  0  0  0  0  0  0  0  0  0  0
   64.4954   34.4009   49.0629 H   0  0  0  0  0  0  0  0  0  0  0  0
   62.0400   34.7294   48.6174 H   0  0  0  0  0  0  0  0  0  0  0  0
   58.3510   33.6939   49.3706 H   0  0  0  0  0  0  0  0  0  0  0  0
   59.7873   34.7313   49.0083 H   0  0  0  0  0  0  0  0  0  0  0  0
   60.6926   34.9041   46.7550 H   0  0  0  0  0  0  0  0  0  0  0  0
   60.2106   34.7247   44.3176 H   0  0  0  0  0  0  0  0  0  0  0  0
   58.2973   33.3511   43.5120 H   0  0  0  0  0  0  0  0  0  0  0  0
   56.7887   27.9370   46.3155 H   0  0  0  0  0  0  0  0  0  0  0  0
   58.6024   26.8687   47.6573 H   0  0  0  0  0  0  0  0  0  0  0  0
   60.9103   27.8218   47.6242 H   0  0  0  0  0  0  0  0  0  0  0  0
   61.4014   29.8550   46.2578 H   0  0  0  0  0  0  0  0  0  0  0  0
   59.5918   30.9246   44.9099 H   0  0  0  0  0  0  0  0  0  0  0  0
   57.3109   32.3363   47.5996 H   0  0  0  0  0  0  0  0  0  0  0  0
  1  2  1  0
  2  3  2  0
  2  4  1  0
  4  5  2  0
  5  6  1  0
  6  7  2  0
  7  8  1  0
  8  9  1  0
  9 10  1  0
  9 11  2  0
  8 12  2  0
 12 13  1  0
 13 14  2  0
 14 15  1  0
 15 16  1  0
 16 17  1  0
 17 18  2  0
 18 19  1  0
 19 20  2  0
 20 21  1  0
 21 22  1  0
 22 23  1  0
 23 24  2  0
 23 25  2  0
 23 26  1  0
 26 27  2  0
 27 28  1  0
 28 29  2  0
 29 30  1  0
 30 31  2  0
 21 32  2  0
 15  4  1  0
 32 17  1  0
 14  6  1  0
 31 26  1  0
  1 33  1  0
  7 34  1  0
 10 35  1  0
 10 36  1  0
 12 37  1  0
 13 38  1  0
 16 39  1  0
 16 40  1  0
 18 41  1  0
 19 42  1  0
 20 43  1  0
 27 44  1  0
 28 45  1  0
 29 46  1  0
 30 47  1  0
 31 48  1  0
 32 49  1  0
M  CHG  2   1  -1  22  -1
M  END
>  <UniqueID>  (60) 
53

>  <SMILES>  (60) 
[NH-]C(=O)c1nc2cc(C(N)=O)ccc2n1Cc1cccc([N-]S(=O)(=O)c2ccccc2)c1

>  <Energy>  (60) 
94.95506457857832

>  <Genealogy>  (60) 
[NH-]C(=O)c1nc2cc(C(N)=O)ccc2n1Cc1cccc([N-]S(=O)(=O)c2ccccc2)c1 (protonated)
[NH-]C(=O)c1nc2cc(C(N)=O)ccc2n1Cc1cccc([N-]S(=O)(=O)c2ccccc2)c1 (3D coordinates assigned)
[NH-]C(=O)c1nc2cc(C(N)=O)ccc2n1Cc1cccc([N-]S(=O)(=O)c2ccccc2)c1 (optimized conformer: 94.95506457857832 kcal/mol)

>  <smiles>  (60) 
NC(=O)c1ccc2c(c1)nc(C(N)=O)n2Cc1cccc(NS(=O)(=O)c2ccccc2)c1

>  <score_type>  (60) 
oracle

>  <origin>  (60) 
adg

>  <m_score__min__energy>  (60) 
-14.539999999999999

>  <m_primary>  (60) 
energy

$$$$
60:0
     RDKit          3D

 43 44  0  0  0  0  0  0  0  0999 V2000
   57.6480   26.0430   44.6140 C   0  0  0  0  0  0  0  0  0  0  0  0
   56.5680   26.7340   45.8450 S   0  0  0  0  0  0  0  0  0  0  0  0
   55.4570   25.7610   46.1270 O   0  0  0  0  0  0  0  0  0  0  0  0
   57.3540   26.9930   47.0990 O   0  0  0  0  0  0  0  0  0  0  0  0
   55.9100   28.2210   45.2440 N   0  0  0  0  0  0  0  0  0  0  0  0
   56.6570   29.4240   45.0180 C   0  0  0  0  0  0  0  0  0  0  0  0
   57.6880   29.7480   45.9060 C   0  0  0  0  0  0  0  0  0  0  0  0
   58.4430   30.9110   45.7250 C   0  0  0  0  0  0  0  0  0  0  0  0
   58.1720   31.7720   44.6450 C   0  0  0  0  0  0  0  0  0  0  0  0
   58.8940   32.9550   44.4160 O   0  0  0  0  0  0  0  0  0  0  0  0
   58.5850   34.2300   44.9780 C   0  0  0  0  0  0  0  0  0  0  0  0
   59.3200   34.4290   46.2690 C   0  0  0  0  0  0  0  0  0  0  0  0
   59.1350   35.4890   46.9260 O   0  0  0  0  0  0  0  0  0  0  0  0
   60.2290   33.4270   46.7490 N   0  0  0  0  0  0  0  0  0  0  0  0
   60.9550   33.5690   48.0190 C   0  0  0  0  0  0  0  0  0  0  0  0
   62.4520   33.8080   47.7520 C   0  0  0  0  0  0  0  0  0  0  0  0
   63.1180   32.6070   47.0500 C   0  0  0  0  0  0  0  0  0  0  0  0
   62.5180   31.2450   47.4550 C   0  0  0  0  0  0  0  0  0  0  0  0
   61.8780   31.2880   48.8460 C   0  0  0  0  0  0  0  0  0  0  0  0
   60.7410   32.3270   48.9260 C   0  0  0  0  0  0  0  0  0  0  0  0
   57.1430   31.4440   43.7550 C   0  0  0  0  0  0  0  0  0  0  0  0
   56.3880   30.2800   43.9370 C   0  0  0  0  0  0  0  0  0  0  0  0
   58.4758   25.5133   45.1082 H   0  0  0  0  0  0  0  0  0  0  0  0
   57.0842   25.3375   43.9860 H   0  0  0  0  0  0  0  0  0  0  0  0
   58.0523   26.8505   43.9860 H   0  0  0  0  0  0  0  0  0  0  0  0
   57.9067   29.0823   46.7539 H   0  0  0  0  0  0  0  0  0  0  0  0
   59.2520   31.1540   46.4296 H   0  0  0  0  0  0  0  0  0  0  0  0
   58.8788   35.0183   44.2694 H   0  0  0  0  0  0  0  0  0  0  0  0
   57.5037   34.2787   45.1741 H   0  0  0  0  0  0  0  0  0  0  0  0
   60.3450   32.5550   46.1840 H   0  0  0  0  0  0  0  0  0  0  0  0
   60.5534   34.4426   48.5534 H   0  0  0  0  0  0  0  0  0  0  0  0
   62.5603   34.6966   47.1127 H   0  0  0  0  0  0  0  0  0  0  0  0
   62.9495   33.9499   48.7227 H   0  0  0  0  0  0  0  0  0  0  0  0
   62.9997   32.7299   45.9633 H   0  0  0  0  0  0  0  0  0  0  0  0
   64.1742   32.5986   47.3573 H   0  0  0  0  0  0  0  0  0  0  0  0
   61.7499   30.9630   46.7198 H   0  0  0  0  0  0  0  0  0  0  0  0
   63.3352   30.5091   47.4807 H   0  0  0  0  0  0  0  0  0  0  0  0
   61.4682   30.2942   49.0794 H   0  0  0  0  0  0  0  0  0  0  0  0
   62.6548   31.5775   49.5690 H   0  0  0  0  0  0  0  0  0  0  0  0
   59.8030   31.8370   48.6258 H   0  0  0  0  0  0  0  0  0  0  0  0
   60.7155   32.6914   49.9636 H   0  0  0  0  0  0  0  0  0  0  0  0
   56.9258   32.1072   42.9047 H   0  0  0  0  0  0  0  0  0  0  0  0
   55.5809   30.0343   43.2311 H   0  0  0  0  0  0  0  0  0  0  0  0
  1  2  1  0
  2  3  2  0
  2  4  2  0
  2  5  1  0
  5  6  1  0
  6  7  2  0
  7  8  1  0
  8  9  2  0
  9 10  1  0
 10 11  1  0
 11 12  1  0
 12 13  2  0
 12 14  1  0
 14 15  1  0
 15 16  1  0
 16 17  1  0
 17 18  1  0
 18 19  1  0
 19 20  1  0
  9 21  1  0
 21 22  2  0
 22  6  1  0
 20 15  1  0
  1 23  1  0
  1 24  1  0
  1 25  1  0
  7 26  1  0
  8 27  1  0
 11 28  1  0
 11 29  1  0
 14 30  1  0
 15 31  1  0
 16 32  1  0
 16 33  1  0
 17 34  1  0
 17 35  1  0
 18 36  1  0
 18 37  1  0
 19 38  1  0
 19 39  1  0
 20 40  1  0
 20 41  1  0
 21 42  1  0
 22 43  1  0
M  CHG  1   5  -1
M  END
>  <UniqueID>  (61) 
54

>  <SMILES>  (61) 
CS(=O)(=O)[N-]c1ccc(OCC(=O)NC2CCCCC2)cc1

>  <Energy>  (61) 
40.3027867756616

>  <Genealogy>  (61) 
CS(=O)(=O)[N-]c1ccc(OCC(=O)NC2CCCCC2)cc1 (protonated)
CS(=O)(=O)[N-]c1ccc(OCC(=O)NC2CCCCC2)cc1 (3D coordinates assigned)
CS(=O)(=O)[N-]c1ccc(OCC(=O)NC2CCCCC2)cc1 (nonaromatic ring conformer: 40.3027867756616 kcal/mol)

>  <smiles>  (61) 
CS(=O)(=O)Nc1ccc(OCC(=O)NC2CCCCC2)cc1

>  <score_type>  (61) 
oracle

>  <origin>  (61) 
adg

>  <m_score__min__energy>  (61) 
-9.4100000000000001

>  <m_primary>  (61) 
energy

$$$$
61:0
     RDKit          3D

 53 55  0  0  0  0  0  0  0  0999 V2000
   56.4120   28.4720   45.2230 O   0  0  0  0  0  0  0  0  0  0  0  0
   57.5310   28.0650   45.6510 C   0  0  0  0  0  0  0  0  0  0  0  0
   57.8810   26.6030   45.5240 C   0  0  0  0  0  0  0  0  0  0  0  0
   57.4050   25.8020   46.7400 C   0  0  0  0  0  0  0  0  0  0  0  0
   55.9520   24.8390   46.3490 S   0  0  0  0  0  0  0  0  0  0  0  0
   54.8420   25.7500   45.9060 O   0  0  0  0  0  0  0  0  0  0  0  0
   55.4970   24.0770   47.5630 O   0  0  0  0  0  0  0  0  0  0  0  0
   56.3470   23.7050   45.0610 C   0  0  0  0  0  0  0  0  0  0  0  0
   55.6170   23.7040   43.8620 C   0  0  0  0  0  0  0  0  0  0  0  0
   55.9350   22.7920   42.8540 C   0  0  0  0  0  0  0  0  0  0  0  0
   56.9860   21.8850   43.0320 C   0  0  0  0  0  0  0  0  0  0  0  0
   57.7260   21.8920   44.2160 C   0  0  0  0  0  0  0  0  0  0  0  0
   57.4090   22.8020   45.2280 C   0  0  0  0  0  0  0  0  0  0  0  0
   58.4340   28.9930   46.2880 N   0  0  0  0  0  0  0  0  0  0  0  0
   59.3770   28.5270   47.3170 C   0  0  0  0  0  0  0  0  0  0  0  0
   59.9200   29.6870   48.1610 C   0  0  0  0  0  0  0  0  0  0  0  0
   60.3990   30.7780   47.3040 N   0  0  0  0  0  0  0  0  0  0  0  0
   61.5160   31.5970   47.7010 C   0  0  0  0  0  0  0  0  0  0  0  0
   62.2470   32.1230   46.8180 O   0  0  0  0  0  0  0  0  0  0  0  0
   61.8040   31.9020   49.1420 C   0  0  0  0  0  0  0  0  0  0  0  0
   61.4400   33.6540   49.5150 S   0  0  0  0  0  0  0  0  0  0  0  0
   60.1870   33.8250   48.2390 C   0  0  0  0  0  0  0  0  0  0  0  0
   58.9120   33.2800   48.4190 C   0  0  0  0  0  0  0  0  0  0  0  0
   57.9490   33.3880   47.4090 C   0  0  0  0  0  0  0  0  0  0  0  0
   58.2490   34.0690   46.2260 C   0  0  0  0  0  0  0  0  0  0  0  0
   57.0420   34.2040   44.9600 Cl  0  0  0  0  0  0  0  0  0  0  0  0
   59.5220   34.6250   46.0430 C   0  0  0  0  0  0  0  0  0  0  0  0
   60.4880   34.5050   47.0510 C   0  0  0  0  0  0  0  0  0  0  0  0
   59.7290   31.0640   46.0250 C   0  0  0  0  0  0  0  0  0  0  0  0
   58.3390   30.4230   45.9770 C   0  0  0  0  0  0  0  0  0  0  0  0
   57.4021   26.1984   44.6202 H   0  0  0  0  0  0  0  0  0  0  0  0
   58.9757   26.5153   45.4610 H   0  0  0  0  0  0  0  0  0  0  0  0
   58.2096   25.1239   47.0606 H   0  0  0  0  0  0  0  0  0  0  0  0
   57.1498   26.5076   47.5444 H   0  0  0  0  0  0  0  0  0  0  0  0
   54.7954   24.4209   43.7169 H   0  0  0  0  0  0  0  0  0  0  0  0
   55.3581   22.7862   41.9175 H   0  0  0  0  0  0  0  0  0  0  0  0
   57.2296   21.1648   42.2371 H   0  0  0  0  0  0  0  0  0  0  0  0
   58.5562   21.1832   44.3518 H   0  0  0  0  0  0  0  0  0  0  0  0
   57.9940   22.8109   46.1595 H   0  0  0  0  0  0  0  0  0  0  0  0
   58.8592   27.8172   47.9789 H   0  0  0  0  0  0  0  0  0  0  0  0
   60.2267   28.0473   46.8092 H   0  0  0  0  0  0  0  0  0  0  0  0
   59.1178   30.0655   48.8116 H   0  0  0  0  0  0  0  0  0  0  0  0
   60.7623   29.3184   48.7649 H   0  0  0  0  0  0  0  0  0  0  0  0
   61.1788   31.2594   49.7793 H   0  0  0  0  0  0  0  0  0  0  0  0
   62.8695   31.7120   49.3382 H   0  0  0  0  0  0  0  0  0  0  0  0
   58.6647   32.7641   49.3585 H   0  0  0  0  0  0  0  0  0  0  0  0
   56.9554   32.9366   47.5465 H   0  0  0  0  0  0  0  0  0  0  0  0
   59.7627   35.1549   45.1096 H   0  0  0  0  0  0  0  0  0  0  0  0
   61.4858   34.9459   46.9094 H   0  0  0  0  0  0  0  0  0  0  0  0
   59.6269   32.1530   45.9082 H   0  0  0  0  0  0  0  0  0  0  0  0
   60.3366   30.6438   45.2100 H   0  0  0  0  0  0  0  0  0  0  0  0
   57.6863   30.9134   46.7142 H   0  0  0  0  0  0  0  0  0  0  0  0
   57.9201   30.5454   44.9673 H   0  0  0  0  0  0  0  0  0  0  0  0
  1  2  2  0
  2  3  1  0
  3  4  1  0
  4  5  1  0
  5  6  2  0
  5  7  2  0
  5  8  1  0
  8  9  2  0
  9 10  1  0
 10 11  2  0
 11 12  1  0
 12 13  2  0
  2 14  1  0
 14 15  1  0
 15 16  1  0
 16 17  1  0
 17 18  1  0
 18 19  2  0
 18 20  1  0
 20 21  1  0
 21 22  1  0
 22 23  2  0
 23 24  1  0
 24 25  2  0
 25 26  1  0
 25 27  1  0
 27 28  2  0
 17 29  1  0
 29 30  1  0
 13  8  1  0
 30 14  1  0
 28 22  1  0
  3 31  1  0
  3 32  1  0
  4 33  1  0
  4 34  1  0
  9 35  1  0
 10 36  1  0
 11 37  1  0
 12 38  1  0
 13 39  1  0
 15 40  1  0
 15 41  1  0
 16 42  1  0
 16 43  1  0
 20 44  1  0
 20 45  1  0
 23 46  1  0
 24 47  1  0
 27 48  1  0
 28 49  1  0
 29 50  1  0
 29 51  1  0
 30 52  1  0
 30 53  1  0
M  END
>  <UniqueID>  (62) 
55

>  <SMILES>  (62) 
O=C(CCS(=O)(=O)c1ccccc1)N1CCN(C(=O)CSc2ccc(Cl)cc2)CC1

>  <Energy>  (62) 
45.422484672512894

>  <Genealogy>  (62) 
O=C(CCS(=O)(=O)c1ccccc1)N1CCN(C(=O)CSc2ccc(Cl)cc2)CC1 (3D coordinates assigned)
O=C(CCS(=O)(=O)c1ccccc1)N1CCN(C(=O)CSc2ccc(Cl)cc2)CC1 (nonaromatic ring conformer: 45.422484672512894 kcal/mol)

>  <smiles>  (62) 
O=C(CCS(=O)(=O)c1ccccc1)N1CCN(C(=O)CSc2ccc(Cl)cc2)CC1

>  <score_type>  (62) 
oracle

>  <origin>  (62) 
adg

>  <m_score__min__energy>  (62) 
-10.67

>  <m_primary>  (62) 
energy

$$$$
62:0
     RDKit          3D

 58 61  0  0  0  0  0  0  0  0999 V2000
   55.1940   26.1220   46.8550 H   0  0  0  0  0  0  0  0  0  0  0  0
   55.1900   26.6960   45.9830 N   0  0  0  0  0  0  0  0  0  0  0  0
   56.2240   27.3880   45.6220 C   0  0  0  0  0  0  0  0  0  0  0  0
   56.0680   28.6890   45.2530 N   0  0  0  0  0  0  0  0  0  0  0  0
   57.1180   29.4780   44.8970 C   0  0  0  0  0  0  0  0  0  0  0  0
   56.8680   30.8110   44.5410 O   0  0  0  0  0  0  0  0  0  0  0  0
   57.5770   31.9270   45.0120 C   0  0  0  0  0  0  0  0  0  0  0  0
   57.3870   33.2120   44.4730 C   0  0  0  0  0  0  0  0  0  0  0  0
   56.6627   33.3632   43.6590 H   0  0  0  0  0  0  0  0  0  0  0  0
   58.1140   34.2960   44.9670 C   0  0  0  0  0  0  0  0  0  0  0  0
   57.9746   35.2954   44.5291 H   0  0  0  0  0  0  0  0  0  0  0  0
   59.0180   34.1150   46.0160 C   0  0  0  0  0  0  0  0  0  0  0  0
   59.6010   34.9700   46.3890 H   0  0  0  0  0  0  0  0  0  0  0  0
   59.1870   32.8490   46.5970 C   0  0  0  0  0  0  0  0  0  0  0  0
   60.1330   32.6840   47.6660 N   0  0  0  0  0  0  0  0  0  0  0  0
   59.8160   32.1740   48.5200 H   0  0  0  0  0  0  0  0  0  0  0  0
   61.5100   33.0920   47.5870 C   0  0  0  0  0  0  0  0  0  0  0  0
   62.0200   33.3960   46.4740 O   0  0  0  0  0  0  0  0  0  0  0  0
   62.3810   33.1090   48.8190 C   0  0  0  0  0  0  0  0  0  0  0  0
   61.9209   32.4390   49.5603 H   0  0  0  0  0  0  0  0  0  0  0  0
   63.8010   32.5600   48.5180 C   0  0  0  0  0  0  0  0  0  0  0  0
   63.7738   31.4627   48.5904 H   0  0  0  0  0  0  0  0  0  0  0  0
   64.0756   32.9020   47.5092 H   0  0  0  0  0  0  0  0  0  0  0  0
   64.8770   33.0880   49.4880 C   0  0  0  0  0  0  0  0  0  0  0  0
   65.6563   32.3208   49.6064 H   0  0  0  0  0  0  0  0  0  0  0  0
   65.2930   34.0139   49.0642 H   0  0  0  0  0  0  0  0  0  0  0  0
   64.2930   33.4170   50.8650 C   0  0  0  0  0  0  0  0  0  0  0  0
   63.8453   32.5063   51.2895 H   0  0  0  0  0  0  0  0  0  0  0  0
   65.1076   33.7894   51.5036 H   0  0  0  0  0  0  0  0  0  0  0  0
   63.2100   34.5130   50.7770 C   0  0  0  0  0  0  0  0  0  0  0  0
   62.4881   34.3549   51.5917 H   0  0  0  0  0  0  0  0  0  0  0  0
   63.7243   35.4821   50.8563 H   0  0  0  0  0  0  0  0  0  0  0  0
   62.4420   34.5160   49.4380 C   0  0  0  0  0  0  0  0  0  0  0  0
   61.4168   34.8733   49.6149 H   0  0  0  0  0  0  0  0  0  0  0  0
   62.9724   35.1780   48.7378 H   0  0  0  0  0  0  0  0  0  0  0  0
   58.4680   31.7550   46.0790 C   0  0  0  0  0  0  0  0  0  0  0  0
   58.6073   30.7554   46.5165 H   0  0  0  0  0  0  0  0  0  0  0  0
   58.4190   28.9540   44.9450 C   0  0  0  0  0  0  0  0  0  0  0  0
   59.2816   29.5883   44.6927 H   0  0  0  0  0  0  0  0  0  0  0  0
   58.6100   27.6230   45.3150 C   0  0  0  0  0  0  0  0  0  0  0  0
   59.6270   27.2058   45.3548 H   0  0  0  0  0  0  0  0  0  0  0  0
   57.5120   26.8160   45.6360 C   0  0  0  0  0  0  0  0  0  0  0  0
   57.7380   25.4100   46.0280 C   0  0  0  0  0  0  0  0  0  0  0  0
   58.7100   24.7850   45.5290 O   0  0  0  0  0  0  0  0  0  0  0  0
   56.8610   24.7250   46.9290 N   0  0  0  0  0  0  0  0  0  0  0  0
   56.4750   23.3240   46.7980 C   0  0  0  0  0  0  0  0  0  0  0  0
   57.2257   22.6885   47.2905 H   0  0  0  0  0  0  0  0  0  0  0  0
   55.4954   23.1659   47.2727 H   0  0  0  0  0  0  0  0  0  0  0  0
   56.3920   22.9660   45.3430 C   0  0  0  0  0  0  0  0  0  0  0  0
   55.5460   23.6850   44.4860 C   0  0  0  0  0  0  0  0  0  0  0  0
   54.9608   24.5340   44.8692 H   0  0  0  0  0  0  0  0  0  0  0  0
   55.4520   23.3150   43.1420 C   0  0  0  0  0  0  0  0  0  0  0  0
   54.7928   23.8757   42.4629 H   0  0  0  0  0  0  0  0  0  0  0  0
   56.1740   22.2630   42.6720 N   0  0  0  0  0  0  0  0  0  0  0  0
   56.9970   21.5450   43.4820 C   0  0  0  0  0  0  0  0  0  0  0  0
   57.5713   20.7014   43.0716 H   0  0  0  0  0  0  0  0  0  0  0  0
   57.1150   21.8760   44.8340 C   0  0  0  0  0  0  0  0  0  0  0  0
   57.7690   21.2874   45.4941 H   0  0  0  0  0  0  0  0  0  0  0  0
  1  2  1  0
  2  3  2  0
  3  4  1  0
  4  5  1  0
  5  6  1  0
  6  7  1  0
  7  8  2  0
  8  9  1  0
  8 10  1  0
 10 11  1  0
 10 12  2  0
 12 13  1  0
 12 14  1  0
 14 15  1  0
 15 16  1  0
 15 17  1  0
 17 18  2  0
 17 19  1  0
 19 20  1  0
 19 21  1  0
 21 22  1  0
 21 23  1  0
 21 24  1  0
 24 25  1  0
 24 26  1  0
 24 27  1  0
 27 28  1  0
 27 29  1  0
 27 30  1  0
 30 31  1  0
 30 32  1  0
 30 33  1  0
 33 34  1  0
 33 35  1  0
 14 36  2  0
 36 37  1  0
  5 38  2  0
 38 39  1  0
 38 40  1  0
 40 41  1  0
 40 42  2  0
 42 43  1  0
 43 44  2  0
 43 45  1  0
 45 46  1  0
 46 47  1  0
 46 48  1  0
 46 49  1  0
 49 50  2  0
 50 51  1  0
 50 52  1  0
 52 53  1  0
 52 54  2  0
 54 55  1  0
 55 56  1  0
 55 57  2  0
 57 58  1  0
 42  3  1  0
 57 49  1  0
 36  7  1  0
 33 19  1  0
M  CHG  2   4  -1  45  -1
M  END
>  <UniqueID>  (63) 
56

>  <SMILES>  (63) 
[H]/N=c1\[n-]c(Oc2cccc(NC(=O)C3CCCCC3)c2)ccc1C(=O)[N-]Cc1ccncc1

>  <Energy>  (63) 
79.14174509999745

>  <Genealogy>  (63) 
N=c1[n-]c(Oc2cccc(NC(=O)C3CCCCC3)c2)ccc1C(=O)[N-]Cc1ccncc1 (protonated)
[H]/N=c1\[n-]c(Oc2cccc(NC(=O)C3CCCCC3)c2)ccc1C(=O)[N-]Cc1ccncc1 (cis-trans isomerization)
[H]/N=c1\[n-]c(Oc2cccc(NC(=O)C3CCCCC3)c2)ccc1C(=O)[N-]Cc1ccncc1 (3D coordinates assigned)
[H]/N=c1\[n-]c(Oc2cccc(NC(=O)C3CCCCC3)c2)ccc1C(=O)[N-]Cc1ccncc1 (nonaromatic ring conformer: 79.14174509999745 kcal/mol)

>  <smiles>  (63) 
N=c1[nH]c(Oc2cccc(NC(=O)C3CCCCC3)c2)ccc1C(=O)NCc1ccncc1

>  <score_type>  (63) 
oracle

>  <origin>  (63) 
adg

>  <m_score__min__energy>  (63) 
-13.869999999999999

>  <m_primary>  (63) 
energy

$$$$
63:0
     RDKit          3D

 49 52  0  0  0  0  0  0  0  0999 V2000
   55.1530   30.1030   43.7270 C   0  0  0  0  0  0  0  0  0  0  0  0
   56.1960   29.6270   44.4110 C   0  0  0  0  0  0  0  0  0  0  0  0
   56.1220   28.5550   45.2240 N   0  0  0  0  0  0  0  0  0  0  0  0
   57.3430   28.4130   45.7880 C   0  0  0  0  0  0  0  0  0  0  0  0
   57.6690   27.5030   46.7190 C   0  0  0  0  0  0  0  0  0  0  0  0
   57.1090   26.1420   46.7720 C   0  0  0  0  0  0  0  0  0  0  0  0
   57.8450   25.0550   47.0640 N   0  0  0  0  0  0  0  0  0  0  0  0
   56.9670   24.0380   46.9290 C   0  0  0  0  0  0  0  0  0  0  0  0
   57.2840   22.8360   47.1360 O   0  0  0  0  0  0  0  0  0  0  0  0
   55.7270   24.4060   46.5460 N   0  0  0  0  0  0  0  0  0  0  0  0
   55.8350   25.7400   46.4390 C   0  0  0  0  0  0  0  0  0  0  0  0
   54.8050   26.5630   46.0000 O   0  0  0  0  0  0  0  0  0  0  0  0
   58.2010   29.4010   45.3350 C   0  0  0  0  0  0  0  0  0  0  0  0
   57.4740   30.1680   44.4420 C   0  0  0  0  0  0  0  0  0  0  0  0
   57.9420   31.4600   43.8280 C   0  0  0  0  0  0  0  0  0  0  0  0
   58.2110   32.5060   44.8730 C   0  0  0  0  0  0  0  0  0  0  0  0
   58.9680   32.3530   46.0300 C   0  0  0  0  0  0  0  0  0  0  0  0
   59.0970   33.5330   46.7790 C   0  0  0  0  0  0  0  0  0  0  0  0
   59.8040   33.6010   48.0740 C   0  0  0  0  0  0  0  0  0  0  0  0
   59.9060   34.7080   48.6690 O   0  0  0  0  0  0  0  0  0  0  0  0
   60.3360   32.4170   48.6910 N   0  0  0  0  0  0  0  0  0  0  0  0
   60.0700   32.1720   50.1100 C   0  0  0  0  0  0  0  0  0  0  0  0
   60.6030   30.7960   50.5400 C   0  0  0  0  0  0  0  0  0  0  0  0
   60.3930   29.7730   49.4940 N   0  0  0  0  0  0  0  0  0  0  0  0
   58.9640   29.4690   49.2980 C   0  0  0  0  0  0  0  0  0  0  0  0
   61.0740   30.0960   48.2140 C   0  0  0  0  0  0  0  0  0  0  0  0
   61.3410   31.6020   48.0000 C   0  0  0  0  0  0  0  0  0  0  0  0
   58.4450   34.6230   46.2020 C   0  0  0  0  0  0  0  0  0  0  0  0
   57.7280   34.1130   44.7680 S   0  0  0  0  0  0  0  0  0  0  0  0
   55.2759   30.9829   43.0784 H   0  0  0  0  0  0  0  0  0  0  0  0
   54.1707   29.6153   43.8120 H   0  0  0  0  0  0  0  0  0  0  0  0
   55.2600   28.0030   45.4300 H   0  0  0  0  0  0  0  0  0  0  0  0
   58.3991   27.7914   47.4896 H   0  0  0  0  0  0  0  0  0  0  0  0
   59.2514   29.5470   45.6270 H   0  0  0  0  0  0  0  0  0  0  0  0
   58.8680   31.2723   43.2647 H   0  0  0  0  0  0  0  0  0  0  0  0
   57.1469   31.8331   43.1657 H   0  0  0  0  0  0  0  0  0  0  0  0
   59.4227   31.3972   46.3297 H   0  0  0  0  0  0  0  0  0  0  0  0
   60.5633   32.9521   50.7085 H   0  0  0  0  0  0  0  0  0  0  0  0
   58.9821   32.1929   50.2717 H   0  0  0  0  0  0  0  0  0  0  0  0
   61.6806   30.8799   50.7444 H   0  0  0  0  0  0  0  0  0  0  0  0
   60.0525   30.4826   51.4393 H   0  0  0  0  0  0  0  0  0  0  0  0
   58.4737   29.3647   50.2771 H   0  0  0  0  0  0  0  0  0  0  0  0
   58.4891   30.2862   48.7353 H   0  0  0  0  0  0  0  0  0  0  0  0
   58.8629   28.5292   48.7353 H   0  0  0  0  0  0  0  0  0  0  0  0
   62.0391   29.5686   48.1943 H   0  0  0  0  0  0  0  0  0  0  0  0
   60.3971   29.7778   47.4074 H   0  0  0  0  0  0  0  0  0  0  0  0
   62.3378   31.8501   48.3934 H   0  0  0  0  0  0  0  0  0  0  0  0
   61.2873   31.8180   46.9228 H   0  0  0  0  0  0  0  0  0  0  0  0
   58.4063   35.6421   46.6143 H   0  0  0  0  0  0  0  0  0  0  0  0
  1  2  2  0
  2  3  1  0
  3  4  1  0
  4  5  2  3
  5  6  1  0
  6  7  1  0
  7  8  1  0
  8  9  2  0
  8 10  1  0
 10 11  1  0
 11 12  1  0
  4 13  1  0
 13 14  2  0
 14 15  1  0
 15 16  1  0
 16 17  2  0
 17 18  1  0
 18 19  1  0
 19 20  2  0
 19 21  1  0
 21 22  1  0
 22 23  1  0
 23 24  1  0
 24 25  1  0
 24 26  1  0
 26 27  1  0
 18 28  2  0
 28 29  1  0
 14  2  1  0
 29 16  1  0
 11  6  2  0
 27 21  1  0
  1 30  1  0
  1 31  1  0
  3 32  1  0
  5 33  1  0
 13 34  1  0
 15 35  1  0
 15 36  1  0
 17 37  1  0
 22 38  1  0
 22 39  1  0
 23 40  1  0
 23 41  1  0
 25 42  1  0
 25 43  1  0
 25 44  1  0
 26 45  1  0
 26 46  1  0
 27 47  1  0
 27 48  1  0
 28 49  1  0
M  CHG  3   7  -1  10  -1  12  -1
M  END
>  <UniqueID>  (64) 
57

>  <SMILES>  (64) 
C=c1[nH]c(=Cc2[n-]c(=O)[n-]c2[O-])cc1Cc1cc(C(=O)N2CCN(C)CC2)cs1

>  <Energy>  (64) 
145.3252928273523

>  <Genealogy>  (64) 
C=c1[nH]c(=Cc2[n-]c(=O)[n-]c2[O-])cc1Cc1cc(C(=O)N2CCN(C)CC2)cs1 (protonated)
C=c1[nH]c(=Cc2[n-]c(=O)[n-]c2[O-])cc1Cc1cc(C(=O)N2CCN(C)CC2)cs1 (3D coordinates assigned)
C=c1[nH]c(=Cc2[n-]c(=O)[n-]c2[O-])cc1Cc1cc(C(=O)N2CCN(C)CC2)cs1 (nonaromatic ring conformer: 145.3252928273523 kcal/mol)

>  <smiles>  (64) 
C=c1[nH]c(=Cc2[nH]c(=O)[nH]c2O)cc1Cc1cc(C(=O)N2CCN(C)CC2)cs1

>  <score_type>  (64) 
oracle

>  <origin>  (64) 
adg

>  <m_score__min__energy>  (64) 
-17.350000000000001

>  <m_primary>  (64) 
energy

$$$$
64:0
     RDKit          3D

 55 58  0  0  0  0  0  0  0  0999 V2000
   59.1690   28.4550   44.5330 C   0  0  0  0  0  0  0  0  0  0  0  0
   59.0290   28.3600   45.8660 C   0  0  0  0  0  0  0  0  0  0  0  0
   58.3800   27.3200   46.5520 C   0  0  0  0  0  0  0  0  0  0  0  0
   58.0030   26.0930   46.1420 C   0  0  0  0  0  0  0  0  0  0  0  0
   56.6110   25.6270   46.0240 C   0  0  0  0  0  0  0  0  0  0  0  0
   56.2040   24.3650   46.2560 N   0  0  0  0  0  0  0  0  0  0  0  0
   54.8600   24.4470   46.1540 C   0  0  0  0  0  0  0  0  0  0  0  0
   54.1080   23.4470   46.2940 O   0  0  0  0  0  0  0  0  0  0  0  0
   54.3850   25.6850   45.9010 N   0  0  0  0  0  0  0  0  0  0  0  0
   55.5070   26.4210   45.8360 C   0  0  0  0  0  0  0  0  0  0  0  0
   55.5200   27.7920   45.6130 O   0  0  0  0  0  0  0  0  0  0  0  0
   58.2000   27.7630   47.8480 C   0  0  0  0  0  0  0  0  0  0  0  0
   58.8010   29.0010   47.9340 C   0  0  0  0  0  0  0  0  0  0  0  0
   58.8770   29.8080   49.1960 C   0  0  0  0  0  0  0  0  0  0  0  0
   59.3440   29.3550   46.7430 N   0  0  0  0  0  0  0  0  0  0  0  0
   60.0680   30.6120   46.4780 C   0  0  0  0  0  0  0  0  0  0  0  0
   59.1260   31.7250   46.0700 C   0  0  0  0  0  0  0  0  0  0  0  0
   58.4930   31.6560   44.8150 C   0  0  0  0  0  0  0  0  0  0  0  0
   57.6200   32.6640   44.4000 C   0  0  0  0  0  0  0  0  0  0  0  0
   57.3740   33.7590   45.2270 C   0  0  0  0  0  0  0  0  0  0  0  0
   58.0020   33.8530   46.4690 C   0  0  0  0  0  0  0  0  0  0  0  0
   58.8850   32.8510   46.8980 C   0  0  0  0  0  0  0  0  0  0  0  0
   59.5270   33.0090   48.2160 C   0  0  0  0  0  0  0  0  0  0  0  0
   58.7810   33.0790   49.2300 O   0  0  0  0  0  0  0  0  0  0  0  0
   60.9610   33.1410   48.3570 N   0  0  0  0  0  0  0  0  0  0  0  0
   61.8620   32.9110   47.2200 C   0  0  0  0  0  0  0  0  0  0  0  0
   63.0690   33.8570   47.2890 C   0  0  0  0  0  0  0  0  0  0  0  0
   63.7260   33.8490   48.6100 N   0  0  0  0  0  0  0  0  0  0  0  0
   64.4950   32.6160   48.8540 C   0  0  0  0  0  0  0  0  0  0  0  0
   62.7740   34.1490   49.6970 C   0  0  0  0  0  0  0  0  0  0  0  0
   61.5610   33.2100   49.6950 C   0  0  0  0  0  0  0  0  0  0  0  0
   59.6973   29.3148   44.0954 H   0  0  0  0  0  0  0  0  0  0  0  0
   58.7553   27.6729   43.8794 H   0  0  0  0  0  0  0  0  0  0  0  0
   58.7988   25.3825   45.8740 H   0  0  0  0  0  0  0  0  0  0  0  0
   57.6775   27.2304   48.6563 H   0  0  0  0  0  0  0  0  0  0  0  0
   58.8138   29.1365   50.0650 H   0  0  0  0  0  0  0  0  0  0  0  0
   59.8307   30.3555   49.2243 H   0  0  0  0  0  0  0  0  0  0  0  0
   58.0423   30.5239   49.2243 H   0  0  0  0  0  0  0  0  0  0  0  0
   60.6032   30.9143   47.3902 H   0  0  0  0  0  0  0  0  0  0  0  0
   60.7699   30.4356   45.6496 H   0  0  0  0  0  0  0  0  0  0  0  0
   58.6879   30.7988   44.1537 H   0  0  0  0  0  0  0  0  0  0  0  0
   57.1260   32.5939   43.4197 H   0  0  0  0  0  0  0  0  0  0  0  0
   56.6835   34.5502   44.8996 H   0  0  0  0  0  0  0  0  0  0  0  0
   57.8033   34.7194   47.1169 H   0  0  0  0  0  0  0  0  0  0  0  0
   62.2164   31.8699   47.2441 H   0  0  0  0  0  0  0  0  0  0  0  0
   61.3126   33.1036   46.2867 H   0  0  0  0  0  0  0  0  0  0  0  0
   63.8023   33.5473   46.5298 H   0  0  0  0  0  0  0  0  0  0  0  0
   62.7010   34.8777   47.1080 H   0  0  0  0  0  0  0  0  0  0  0  0
   64.5955   32.4549   49.9375 H   0  0  0  0  0  0  0  0  0  0  0  0
   63.9697   31.7610   48.4033 H   0  0  0  0  0  0  0  0  0  0  0  0
   65.4939   32.7116   48.4033 H   0  0  0  0  0  0  0  0  0  0  0  0
   63.2959   34.0483   50.6601 H   0  0  0  0  0  0  0  0  0  0  0  0
   62.4029   35.1728   49.5416 H   0  0  0  0  0  0  0  0  0  0  0  0
   61.8832   32.2031   49.9987 H   0  0  0  0  0  0  0  0  0  0  0  0
   60.8111   33.5991   50.3994 H   0  0  0  0  0  0  0  0  0  0  0  0
  1  2  2  0
  2  3  1  0
  3  4  2  3
  4  5  1  0
  5  6  1  0
  6  7  1  0
  7  8  2  0
  7  9  1  0
  9 10  1  0
 10 11  1  0
  3 12  1  0
 12 13  2  0
 13 14  1  0
 13 15  1  0
 15 16  1  0
 16 17  1  0
 17 18  2  0
 18 19  1  0
 19 20  2  0
 20 21  1  0
 21 22  2  0
 22 23  1  0
 23 24  2  0
 23 25  1  0
 25 26  1  0
 26 27  1  0
 27 28  1  0
 28 29  1  0
 28 30  1  0
 30 31  1  0
 15  2  1  0
 22 17  1  0
 31 25  1  0
 10  5  2  0
  1 32  1  0
  1 33  1  0
  4 34  1  0
 12 35  1  0
 14 36  1  0
 14 37  1  0
 14 38  1  0
 16 39  1  0
 16 40  1  0
 18 41  1  0
 19 42  1  0
 20 43  1  0
 21 44  1  0
 26 45  1  0
 26 46  1  0
 27 47  1  0
 27 48  1  0
 29 49  1  0
 29 50  1  0
 29 51  1  0
 30 52  1  0
 30 53  1  0
 31 54  1  0
 31 55  1  0
M  CHG  3   6  -1   9  -1  11  -1
M  END
>  <UniqueID>  (65) 
58

>  <SMILES>  (65) 
C=c1c(=Cc2[n-]c(=O)[n-]c2[O-])cc(C)n1Cc1ccccc1C(=O)N1CCN(C)CC1

>  <Energy>  (65) 
135.65755168966103

>  <Genealogy>  (65) 
C=c1c(=Cc2[n-]c(=O)[n-]c2[O-])cc(C)n1Cc1ccccc1C(=O)N1CCN(C)CC1 (protonated)
C=c1c(=Cc2[n-]c(=O)[n-]c2[O-])cc(C)n1Cc1ccccc1C(=O)N1CCN(C)CC1 (3D coordinates assigned)
C=c1c(=Cc2[n-]c(=O)[n-]c2[O-])cc(C)n1Cc1ccccc1C(=O)N1CCN(C)CC1 (nonaromatic ring conformer: 135.65755168966103 kcal/mol)

>  <smiles>  (65) 
C=c1c(=Cc2[nH]c(=O)[nH]c2O)cc(C)n1Cc1ccccc1C(=O)N1CCN(C)CC1

>  <score_type>  (65) 
oracle

>  <origin>  (65) 
adg

>  <m_score__min__energy>  (65) 
-16.640000000000001

>  <m_primary>  (65) 
energy

$$$$
65:0
     RDKit          3D

 41 44  0  0  0  0  0  0  0  0999 V2000
   52.5960   24.7690   45.1730 O   0  0  0  0  0  0  0  0  0  0  0  0
   53.7480   24.4580   45.5740 C   0  0  0  0  0  0  0  0  0  0  0  0
   54.7450   25.3870   45.6060 N   0  0  0  0  0  0  0  0  0  0  0  0
   56.0130   25.0870   46.0350 C   0  0  0  0  0  0  0  0  0  0  0  0
   57.0510   26.1490   46.0490 C   0  0  0  0  0  0  0  0  0  0  0  0
   57.9940   26.1880   47.0910 C   0  0  0  0  0  0  0  0  0  0  0  0
   58.9730   27.1820   47.1230 C   0  0  0  0  0  0  0  0  0  0  0  0
   59.0230   28.1540   46.1230 C   0  0  0  0  0  0  0  0  0  0  0  0
   58.0870   28.1420   45.0730 C   0  0  0  0  0  0  0  0  0  0  0  0
   58.1040   29.1310   44.0290 N   0  0  0  0  0  0  0  0  0  0  0  0
   57.0300   30.4940   43.9680 S   0  0  0  0  0  0  0  0  0  0  0  0
   56.8800   30.9420   42.5420 O   0  0  0  0  0  0  0  0  0  0  0  0
   55.6840   30.0820   44.4940 O   0  0  0  0  0  0  0  0  0  0  0  0
   57.6890   31.8250   44.9130 C   0  0  0  0  0  0  0  0  0  0  0  0
   58.1420   31.6120   46.2200 C   0  0  0  0  0  0  0  0  0  0  0  0
   58.6760   32.6700   46.9620 C   0  0  0  0  0  0  0  0  0  0  0  0
   58.7620   33.9590   46.4060 C   0  0  0  0  0  0  0  0  0  0  0  0
   59.3150   35.0460   47.1710 N   0  0  0  0  0  0  0  0  0  0  0  0
   59.6400   36.1160   46.6150 O   0  0  0  0  0  0  0  0  0  0  0  0
   59.4950   34.9240   48.5300 O   0  0  0  0  0  0  0  0  0  0  0  0
   58.3010   34.1660   45.0940 C   0  0  0  0  0  0  0  0  0  0  0  0
   57.7660   33.1070   44.3550 C   0  0  0  0  0  0  0  0  0  0  0  0
   57.1010   27.1420   45.0510 C   0  0  0  0  0  0  0  0  0  0  0  0
   56.2870   23.7710   46.4700 C   0  0  0  0  0  0  0  0  0  0  0  0
   55.2760   22.8690   46.4260 N   0  0  0  0  0  0  0  0  0  0  0  0
   55.2510   21.5760   46.7730 C   0  0  0  0  0  0  0  0  0  0  0  0
   53.9650   21.1170   46.5360 C   0  0  0  0  0  0  0  0  0  0  0  0
   53.1930   22.1200   46.0450 N   0  0  0  0  0  0  0  0  0  0  0  0
   54.0430   23.1670   45.9980 C   0  0  0  0  0  0  0  0  0  0  0  0
   57.9599   25.4295   47.8869 H   0  0  0  0  0  0  0  0  0  0  0  0
   59.7088   27.1994   47.9405 H   0  0  0  0  0  0  0  0  0  0  0  0
   59.7983   28.9336   46.1560 H   0  0  0  0  0  0  0  0  0  0  0  0
   58.8520   29.0880   43.3010 H   0  0  0  0  0  0  0  0  0  0  0  0
   58.0777   30.6082   46.6653 H   0  0  0  0  0  0  0  0  0  0  0  0
   59.0313   32.4929   47.9879 H   0  0  0  0  0  0  0  0  0  0  0  0
   58.3618   35.1687   44.6458 H   0  0  0  0  0  0  0  0  0  0  0  0
   57.4040   33.2814   43.3310 H   0  0  0  0  0  0  0  0  0  0  0  0
   56.3560   27.1341   44.2417 H   0  0  0  0  0  0  0  0  0  0  0  0
   57.2864   23.4880   46.8320 H   0  0  0  0  0  0  0  0  0  0  0  0
   56.0920   20.9892   47.1709 H   0  0  0  0  0  0  0  0  0  0  0  0
   53.6197   20.0888   46.7192 H   0  0  0  0  0  0  0  0  0  0  0  0
  1  2  2  0
  2  3  1  0
  3  4  1  0
  4  5  1  0
  5  6  2  0
  6  7  1  0
  7  8  2  0
  8  9  1  0
  9 10  1  0
 10 11  1  0
 11 12  2  0
 11 13  2  0
 11 14  1  0
 14 15  2  0
 15 16  1  0
 16 17  2  0
 17 18  1  0
 18 19  2  0
 18 20  1  0
 17 21  1  0
 21 22  2  0
  9 23  2  0
  4 24  2  0
 24 25  1  0
 25 26  1  0
 26 27  2  0
 27 28  1  0
 28 29  2  0
 29  2  1  0
 23  5  1  0
 29 25  1  0
 22 14  1  0
  6 30  1  0
  7 31  1  0
  8 32  1  0
 10 33  1  0
 15 34  1  0
 16 35  1  0
 21 36  1  0
 22 37  1  0
 23 38  1  0
 24 39  1  0
 26 40  1  0
 27 41  1  0
M  CHG  3   3  -1  18   1  20  -1
M  END
>  <UniqueID>  (66) 
59

>  <SMILES>  (66) 
O=c1[n-]c(-c2cccc(NS(=O)(=O)c3ccc([N+](=O)[O-])cc3)c2)cn2ccnc12

>  <Energy>  (66) 
90.0431123669708

>  <Genealogy>  (66) 
O=c1[n-]c(-c2cccc(NS(=O)(=O)c3ccc([N+](=O)[O-])cc3)c2)cn2ccnc12 (protonated)
O=c1[n-]c(-c2cccc(NS(=O)(=O)c3ccc([N+](=O)[O-])cc3)c2)cn2ccnc12 (3D coordinates assigned)
O=c1[n-]c(-c2cccc(NS(=O)(=O)c3ccc([N+](=O)[O-])cc3)c2)cn2ccnc12 (optimized conformer: 90.0431123669708 kcal/mol)

>  <smiles>  (66) 
O=c1[nH]c(-c2cccc(NS(=O)(=O)c3ccc([N+](=O)[O-])cc3)c2)cn2ccnc12

>  <score_type>  (66) 
oracle

>  <origin>  (66) 
adg

>  <m_score__min__energy>  (66) 
-11.199999999999999

>  <m_primary>  (66) 
energy

$$$$
66:0
     RDKit          3D

 55 58  0  0  0  0  0  0  0  0999 V2000
   63.3970   34.3720   50.8950 C   0  0  0  0  0  0  0  0  0  0  0  0
   63.0770   33.6220   49.6360 C   0  0  0  0  0  0  0  0  0  0  0  0
   63.6270   32.3500   49.4110 C   0  0  0  0  0  0  0  0  0  0  0  0
   63.3590   31.6700   48.2210 C   0  0  0  0  0  0  0  0  0  0  0  0
   62.5530   32.2560   47.2420 C   0  0  0  0  0  0  0  0  0  0  0  0
   62.0100   33.5330   47.4460 C   0  0  0  0  0  0  0  0  0  0  0  0
   61.1610   34.1670   46.3750 C   0  0  0  0  0  0  0  0  0  0  0  0
   59.8850   34.6440   46.9510 N   0  0  0  0  0  0  0  0  0  0  0  0
   58.8920   34.9650   45.9040 C   0  0  0  0  0  0  0  0  0  0  0  0
   58.4410   33.7030   45.1520 C   0  0  0  0  0  0  0  0  0  0  0  0
   58.2640   32.5740   46.0770 N   0  0  0  0  0  0  0  0  0  0  0  0
   58.1740   31.2160   45.5860 C   0  0  0  0  0  0  0  0  0  0  0  0
   59.2040   30.2870   45.8110 C   0  0  0  0  0  0  0  0  0  0  0  0
   59.0780   28.9820   45.3290 C   0  0  0  0  0  0  0  0  0  0  0  0
   57.9250   28.5930   44.6300 C   0  0  0  0  0  0  0  0  0  0  0  0
   57.7650   27.2170   44.1010 C   0  0  0  0  0  0  0  0  0  0  0  0
   58.1560   26.9590   42.9300 O   0  0  0  0  0  0  0  0  0  0  0  0
   57.1590   26.1800   44.8910 N   0  0  0  0  0  0  0  0  0  0  0  0
   57.0760   24.7970   44.4300 C   0  0  0  0  0  0  0  0  0  0  0  0
   56.1470   24.0190   45.3070 C   0  0  0  0  0  0  0  0  0  0  0  0
   55.8710   22.6700   45.2000 C   0  0  0  0  0  0  0  0  0  0  0  0
   54.9550   22.4010   46.1940 C   0  0  0  0  0  0  0  0  0  0  0  0
   54.7300   23.5990   46.8430 C   0  0  0  0  0  0  0  0  0  0  0  0
   55.4550   24.5450   46.2890 O   0  0  0  0  0  0  0  0  0  0  0  0
   56.9240   29.5540   44.4160 C   0  0  0  0  0  0  0  0  0  0  0  0
   57.0710   30.8180   44.8940 N   0  0  0  0  0  0  0  0  0  0  0  0
   58.1560   32.8670   47.5120 C   0  0  0  0  0  0  0  0  0  0  0  0
   59.3470   33.7210   47.9870 C   0  0  0  0  0  0  0  0  0  0  0  0
   62.2810   34.2160   48.6440 C   0  0  0  0  0  0  0  0  0  0  0  0
   63.1336   33.7547   51.7665 H   0  0  0  0  0  0  0  0  0  0  0  0
   64.4721   34.6032   50.9209 H   0  0  0  0  0  0  0  0  0  0  0  0
   62.8199   35.3081   50.9209 H   0  0  0  0  0  0  0  0  0  0  0  0
   64.2706   31.8878   50.1740 H   0  0  0  0  0  0  0  0  0  0  0  0
   63.7841   30.6693   48.0540 H   0  0  0  0  0  0  0  0  0  0  0  0
   62.3435   31.7141   46.3080 H   0  0  0  0  0  0  0  0  0  0  0  0
   61.7032   35.0184   45.9379 H   0  0  0  0  0  0  0  0  0  0  0  0
   60.9466   33.4193   45.5972 H   0  0  0  0  0  0  0  0  0  0  0  0
   58.0150   35.4337   46.3743 H   0  0  0  0  0  0  0  0  0  0  0  0
   59.3604   35.6494   45.1813 H   0  0  0  0  0  0  0  0  0  0  0  0
   57.4855   33.9074   44.6468 H   0  0  0  0  0  0  0  0  0  0  0  0
   59.2156   33.4367   44.4178 H   0  0  0  0  0  0  0  0  0  0  0  0
   60.1062   30.5863   46.3646 H   0  0  0  0  0  0  0  0  0  0  0  0
   59.8866   28.2557   45.4982 H   0  0  0  0  0  0  0  0  0  0  0  0
   56.6950   26.4160   45.7960 H   0  0  0  0  0  0  0  0  0  0  0  0
   56.7006   24.7798   43.3962 H   0  0  0  0  0  0  0  0  0  0  0  0
   58.0768   24.3423   44.4718 H   0  0  0  0  0  0  0  0  0  0  0  0
   56.2934   21.9596   44.4741 H   0  0  0  0  0  0  0  0  0  0  0  0
   54.4958   21.4283   46.4240 H   0  0  0  0  0  0  0  0  0  0  0  0
   54.0477   23.7401   47.6942 H   0  0  0  0  0  0  0  0  0  0  0  0
   56.0156   29.2825   43.8583 H   0  0  0  0  0  0  0  0  0  0  0  0
   57.2213   33.4161   47.6986 H   0  0  0  0  0  0  0  0  0  0  0  0
   58.1594   31.9173   48.0671 H   0  0  0  0  0  0  0  0  0  0  0  0
   59.0194   34.3218   48.8482 H   0  0  0  0  0  0  0  0  0  0  0  0
   60.1575   33.0217   48.2401 H   0  0  0  0  0  0  0  0  0  0  0  0
   61.8668   35.2222   48.8053 H   0  0  0  0  0  0  0  0  0  0  0  0
  1  2  1  0
  2  3  2  0
  3  4  1  0
  4  5  2  0
  5  6  1  0
  6  7  1  0
  7  8  1  0
  8  9  1  0
  9 10  1  0
 10 11  1  0
 11 12  1  0
 12 13  2  0
 13 14  1  0
 14 15  2  0
 15 16  1  0
 16 17  2  0
 16 18  1  0
 18 19  1  0
 19 20  1  0
 20 21  2  0
 21 22  1  0
 22 23  2  0
 23 24  1  0
 15 25  1  0
 25 26  2  0
 11 27  1  0
 27 28  1  0
  6 29  2  0
 29  2  1  0
 28  8  1  0
 26 12  1  0
 24 20  1  0
  1 30  1  0
  1 31  1  0
  1 32  1  0
  3 33  1  0
  4 34  1  0
  5 35  1  0
  7 36  1  0
  7 37  1  0
  9 38  1  0
  9 39  1  0
 10 40  1  0
 10 41  1  0
 13 42  1  0
 14 43  1  0
 18 44  1  0
 19 45  1  0
 19 46  1  0
 21 47  1  0
 22 48  1  0
 23 49  1  0
 25 50  1  0
 27 51  1  0
 27 52  1  0
 28 53  1  0
 28 54  1  0
 29 55  1  0
M  END
>  <UniqueID>  (67) 
60

>  <SMILES>  (67) 
Cc1cccc(CN2CCN(c3ccc(C(=O)NCc4ccco4)cn3)CC2)c1

>  <Energy>  (67) 
93.49378180251212

>  <Genealogy>  (67) 
Cc1cccc(CN2CCN(c3ccc(C(=O)NCc4ccco4)cn3)CC2)c1 (3D coordinates assigned)
Cc1cccc(CN2CCN(c3ccc(C(=O)NCc4ccco4)cn3)CC2)c1 (nonaromatic ring conformer: 93.49378180251212 kcal/mol)

>  <smiles>  (67) 
Cc1cccc(CN2CCN(c3ccc(C(=O)NCc4ccco4)cn3)CC2)c1

>  <score_type>  (67) 
oracle

>  <origin>  (67) 
adg

>  <m_score__min__energy>  (67) 
-8.8399999999999999

>  <m_primary>  (67) 
energy

$$$$
67:0
     RDKit          3D

 56 59  0  0  0  0  0  0  0  0999 V2000
   57.3620   25.1640   43.9680 C   0  0  0  0  0  0  0  0  0  0  0  0
   58.0750   25.9510   44.7830 C   0  0  0  0  0  0  0  0  0  0  0  0
   58.7180   25.4710   45.8660 N   0  0  0  0  0  0  0  0  0  0  0  0
   59.3290   26.5100   46.4620 C   0  0  0  0  0  0  0  0  0  0  0  0
   60.2590   26.3540   47.6240 C   0  0  0  0  0  0  0  0  0  0  0  0
   59.0950   27.6770   45.7520 C   0  0  0  0  0  0  0  0  0  0  0  0
   59.7820   28.9610   46.0160 C   0  0  0  0  0  0  0  0  0  0  0  0
   61.0050   29.0340   45.7120 O   0  0  0  0  0  0  0  0  0  0  0  0
   59.1230   30.1150   46.6180 N   0  0  1  0  0  0  0  0  0  0  0  0
   58.8740   29.8900   48.0760 C   0  0  0  0  0  0  0  0  0  0  0  0
   59.8450   30.6620   48.9820 C   0  0  0  0  0  0  0  0  0  0  0  0
   59.7070   32.1900   48.7460 C   0  0  1  0  0  0  0  0  0  0  0  0
   60.8650   32.9830   49.2440 N   0  0  0  0  0  0  0  0  0  0  0  0
   61.4340   32.4260   50.4890 C   0  0  0  0  0  0  0  0  0  0  0  0
   62.2910   33.4860   51.2040 C   0  0  0  0  0  0  0  0  0  0  0  0
   62.9000   34.5080   50.2290 C   0  0  0  0  0  0  0  0  0  0  0  0
   63.1990   33.8630   48.8750 C   0  0  0  0  0  0  0  0  0  0  0  0
   61.9210   33.2740   48.2390 C   0  0  0  0  0  0  0  0  0  0  0  0
   59.3560   32.5230   47.2740 C   0  0  0  0  0  0  0  0  0  0  0  0
   59.8130   31.4050   46.3280 C   0  0  0  0  0  0  0  0  0  0  0  0
   58.2680   27.3330   44.6740 C   0  0  0  0  0  0  0  0  0  0  0  0
   57.7810   28.1300   43.6980 C   0  0  0  0  0  0  0  0  0  0  0  0
   57.3190   29.5120   43.8920 C   0  0  0  0  0  0  0  0  0  0  0  0
   58.2560   30.9010   43.6860 S   0  0  0  0  0  0  0  0  0  0  0  0
   57.0580   31.9000   44.3090 C   0  0  0  0  0  0  0  0  0  0  0  0
   57.1590   33.1500   44.4080 O   0  0  0  0  0  0  0  0  0  0  0  0
   55.9660   31.2160   44.7110 N   0  0  0  0  0  0  0  0  0  0  0  0
   56.1210   29.8840   44.4960 C   0  0  0  0  0  0  0  0  0  0  0  0
   55.1440   28.9680   44.8620 O   0  0  0  0  0  0  0  0  0  0  0  0
   56.8520   25.5955   43.0941 H   0  0  0  0  0  0  0  0  0  0  0  0
   57.2861   24.0858   44.1722 H   0  0  0  0  0  0  0  0  0  0  0  0
   58.7620   24.4740   46.1740 H   0  0  0  0  0  0  0  0  0  0  0  0
   59.6927   26.4490   48.5622 H   0  0  0  0  0  0  0  0  0  0  0  0
   60.7354   25.3634   47.5820 H   0  0  0  0  0  0  0  0  0  0  0  0
   61.0325   27.1349   47.5820 H   0  0  0  0  0  0  0  0  0  0  0  0
   58.1830   30.1720   46.1580 H   0  0  0  0  0  0  0  0  0  0  0  0
   58.9786   28.8155   48.2868 H   0  0  0  0  0  0  0  0  0  0  0  0
   57.8605   30.2573   48.2950 H   0  0  0  0  0  0  0  0  0  0  0  0
   60.8759   30.3520   48.7557 H   0  0  0  0  0  0  0  0  0  0  0  0
   59.6054   30.4403   50.0324 H   0  0  0  0  0  0  0  0  0  0  0  0
   58.8537   32.5060   49.3641 H   0  0  0  0  0  0  0  0  0  0  0  0
   60.6156   32.1120   51.1536 H   0  0  0  0  0  0  0  0  0  0  0  0
   62.0675   31.5623   50.2385 H   0  0  0  0  0  0  0  0  0  0  0  0
   61.6583   34.0219   51.9268 H   0  0  0  0  0  0  0  0  0  0  0  0
   63.1213   32.9637   51.7018 H   0  0  0  0  0  0  0  0  0  0  0  0
   62.1892   35.3350   50.0844 H   0  0  0  0  0  0  0  0  0  0  0  0
   63.8430   34.8805   50.6556 H   0  0  0  0  0  0  0  0  0  0  0  0
   63.6169   34.6244   48.2000 H   0  0  0  0  0  0  0  0  0  0  0  0
   63.9174   33.0448   49.0315 H   0  0  0  0  0  0  0  0  0  0  0  0
   61.5247   33.9966   47.5105 H   0  0  0  0  0  0  0  0  0  0  0  0
   62.1953   32.3232   47.7587 H   0  0  0  0  0  0  0  0  0  0  0  0
   59.8558   33.4606   46.9893 H   0  0  0  0  0  0  0  0  0  0  0  0
   58.2639   32.6248   47.1909 H   0  0  0  0  0  0  0  0  0  0  0  0
   60.8975   31.2622   46.4438 H   0  0  0  0  0  0  0  0  0  0  0  0
   59.5601   31.7035   45.2999 H   0  0  0  0  0  0  0  0  0  0  0  0
   57.7260   27.7134   42.6814 H   0  0  0  0  0  0  0  0  0  0  0  0
  1  2  2  0
  2  3  1  0
  3  4  1  0
  4  5  1  0
  4  6  2  0
  6  7  1  0
  7  8  2  0
  7  9  1  0
  9 10  1  0
 10 11  1  0
 11 12  1  0
 12 13  1  0
 13 14  1  0
 14 15  1  0
 15 16  1  0
 16 17  1  0
 17 18  1  0
 12 19  1  0
 19 20  1  0
  6 21  1  0
 21 22  2  3
 22 23  1  0
 23 24  1  0
 24 25  1  0
 25 26  2  0
 25 27  1  0
 27 28  1  0
 28 29  1  0
 21  2  1  0
 28 23  2  0
 20  9  1  0
 18 13  1  0
  1 30  1  0
  1 31  1  0
  3 32  1  0
  5 33  1  0
  5 34  1  0
  5 35  1  0
  9 36  1  6
 10 37  1  0
 10 38  1  0
 11 39  1  0
 11 40  1  0
 12 41  1  1
 14 42  1  0
 14 43  1  0
 15 44  1  0
 15 45  1  0
 16 46  1  0
 16 47  1  0
 17 48  1  0
 17 49  1  0
 18 50  1  0
 18 51  1  0
 19 52  1  0
 19 53  1  0
 20 54  1  0
 20 55  1  0
 22 56  1  0
M  CHG  3   9   1  27  -1  29  -1
M  END
>  <UniqueID>  (68) 
61

>  <SMILES>  (68) 
C=c1[nH]c(C)c(C(=O)[NH+]2CCC(N3CCCCC3)CC2)c1=Cc1sc(=O)[n-]c1[O-]

>  <Energy>  (68) 
154.2081868382477

>  <Genealogy>  (68) 
C=c1[nH]c(C)c(C(=O)[NH+]2CCC(N3CCCCC3)CC2)c1=Cc1sc(=O)[n-]c1[O-] (protonated)
C=c1[nH]c(C)c(C(=O)[NH+]2CCC(N3CCCCC3)CC2)c1=Cc1sc(=O)[n-]c1[O-] (3D coordinates assigned)
C=c1[nH]c(C)c(C(=O)[NH+]2CCC(N3CCCCC3)CC2)c1=Cc1sc(=O)[n-]c1[O-] (nonaromatic ring conformer: 154.2081868382477 kcal/mol)

>  <smiles>  (68) 
C=c1[nH]c(C)c(C(=O)N2CCC(N3CCCCC3)CC2)c1=Cc1sc(=O)[nH]c1O

>  <score_type>  (68) 
oracle

>  <origin>  (68) 
adg

>  <m_score__min__energy>  (68) 
-14.68

>  <m_primary>  (68) 
energy

$$$$
68:0
     RDKit          3D

 50 51  0  0  0  0  0  0  0  0999 V2000
   57.3900   33.0670   45.8130 C   0  0  0  0  0  0  0  0  0  0  0  0
   58.8110   32.7170   46.2800 C   0  0  0  0  0  0  0  0  0  0  0  0
   59.1190   33.1630   47.6610 N   0  0  0  0  0  0  0  0  0  0  0  0
   59.2970   34.6250   47.8150 C   0  0  0  0  0  0  0  0  0  0  0  0
   59.6540   35.2990   46.4900 C   0  0  0  0  0  0  0  0  0  0  0  0
   58.1800   32.6080   48.6630 C   0  0  0  0  0  0  0  0  0  0  0  0
   58.8700   32.5060   50.0260 C   0  0  0  0  0  0  0  0  0  0  0  0
   58.0510   31.7390   50.9860 N   0  0  0  0  0  0  0  0  0  0  0  0
   57.8870   30.3870   50.8320 C   0  0  0  0  0  0  0  0  0  0  0  0
   58.4380   29.7740   49.8780 O   0  0  0  0  0  0  0  0  0  0  0  0
   57.1230   29.6880   51.7070 N   0  0  0  0  0  0  0  0  0  0  0  0
   56.5080   30.3120   52.7390 C   0  0  0  0  0  0  0  0  0  0  0  0
   55.7790   29.6190   53.5610 N   0  0  0  0  0  0  0  0  0  0  0  0
   54.5840   28.8620   53.1870 C   0  0  0  0  0  0  0  0  0  0  0  0
   53.3060   29.5400   53.7050 C   0  0  0  0  0  0  0  0  0  0  0  0
   52.6130   30.2810   52.6290 N   0  0  0  0  0  0  0  0  0  0  0  0
   52.8650   29.8860   51.3410 C   0  0  0  0  0  0  0  0  0  0  0  0
   52.2800   30.5380   50.2590 C   0  0  0  0  0  0  0  0  0  0  0  0
   51.4170   31.6030   50.4860 C   0  0  0  0  0  0  0  0  0  0  0  0
   50.8850   32.1980   49.5120 O   0  0  0  0  0  0  0  0  0  0  0  0
   51.1400   32.0030   51.7940 C   0  0  0  0  0  0  0  0  0  0  0  0
   50.2610   33.0630   52.0070 O   0  0  0  0  0  0  0  0  0  0  0  0
   51.7470   31.3300   52.8790 C   0  0  0  0  0  0  0  0  0  0  0  0
   51.3910   31.7420   54.2890 C   0  0  0  0  0  0  0  0  0  0  0  0
   56.6550   31.6530   52.8910 N   0  0  0  0  0  0  0  0  0  0  0  0
   57.4150   32.3670   52.0250 C   0  0  0  0  0  0  0  0  0  0  0  0
   57.5220   33.6120   52.1940 O   0  0  0  0  0  0  0  0  0  0  0  0
   56.7447   33.2259   46.6895 H   0  0  0  0  0  0  0  0  0  0  0  0
   57.4187   33.9849   45.2075 H   0  0  0  0  0  0  0  0  0  0  0  0
   56.9891   32.2408   45.2075 H   0  0  0  0  0  0  0  0  0  0  0  0
   58.9309   31.6245   46.2344 H   0  0  0  0  0  0  0  0  0  0  0  0
   59.5054   33.2474   45.6118 H   0  0  0  0  0  0  0  0  0  0  0  0
   58.3600   35.0593   48.1937 H   0  0  0  0  0  0  0  0  0  0  0  0
   60.1258   34.7951   48.5180 H   0  0  0  0  0  0  0  0  0  0  0  0
   60.1603   36.2549   46.6896 H   0  0  0  0  0  0  0  0  0  0  0  0
   60.3230   34.6431   45.9135 H   0  0  0  0  0  0  0  0  0  0  0  0
   58.7356   35.4839   45.9135 H   0  0  0  0  0  0  0  0  0  0  0  0
   57.3041   33.2681   48.7465 H   0  0  0  0  0  0  0  0  0  0  0  0
   57.8615   31.6049   48.3432 H   0  0  0  0  0  0  0  0  0  0  0  0
   59.8398   32.0024   49.8999 H   0  0  0  0  0  0  0  0  0  0  0  0
   59.0081   33.5228   50.4222 H   0  0  0  0  0  0  0  0  0  0  0  0
   54.5330   28.7925   52.0904 H   0  0  0  0  0  0  0  0  0  0  0  0
   54.6526   27.8614   53.6387 H   0  0  0  0  0  0  0  0  0  0  0  0
   52.6286   28.7700   54.1027 H   0  0  0  0  0  0  0  0  0  0  0  0
   53.5886   30.2557   54.4911 H   0  0  0  0  0  0  0  0  0  0  0  0
   53.5419   29.0383   51.1589 H   0  0  0  0  0  0  0  0  0  0  0  0
   52.4995   30.2123   49.2315 H   0  0  0  0  0  0  0  0  0  0  0  0
   51.9372   31.1099   55.0047 H   0  0  0  0  0  0  0  0  0  0  0  0
   51.6680   32.7952   54.4442 H   0  0  0  0  0  0  0  0  0  0  0  0
   50.3088   31.6207   54.4442 H   0  0  0  0  0  0  0  0  0  0  0  0
  1  2  1  0
  2  3  1  0
  3  4  1  0
  4  5  1  0
  3  6  1  0
  6  7  1  0
  7  8  1  0
  8  9  1  0
  9 10  2  0
  9 11  1  0
 11 12  1  0
 12 13  2  3
 13 14  1  0
 14 15  1  0
 15 16  1  0
 16 17  1  0
 17 18  2  0
 18 19  1  0
 19 20  2  0
 19 21  1  0
 21 22  1  0
 21 23  2  0
 23 24  1  0
 12 25  1  0
 25 26  1  0
 26 27  2  0
 26  8  1  0
 23 16  1  0
  1 28  1  0
  1 29  1  0
  1 30  1  0
  2 31  1  0
  2 32  1  0
  4 33  1  0
  4 34  1  0
  5 35  1  0
  5 36  1  0
  5 37  1  0
  6 38  1  0
  6 39  1  0
  7 40  1  0
  7 41  1  0
 14 42  1  0
 14 43  1  0
 15 44  1  0
 15 45  1  0
 17 46  1  0
 18 47  1  0
 24 48  1  0
 24 49  1  0
 24 50  1  0
M  CHG  3  11  -1  22  -1  25  -1
M  END
>  <UniqueID>  (69) 
62

>  <SMILES>  (69) 
CCN(CC)CCn1c(=O)[n-]c(=NCCn2ccc(=O)c([O-])c2C)[n-]c1=O

>  <Energy>  (69) 
55.155846311463385

>  <Genealogy>  (69) 
CCN(CC)CCn1c(=O)[n-]c(=NCCn2ccc(=O)c([O-])c2C)[n-]c1=O (protonated)
CCN(CC)CCn1c(=O)[n-]c(=NCCn2ccc(=O)c([O-])c2C)[n-]c1=O (3D coordinates assigned)
CCN(CC)CCn1c(=O)[n-]c(=NCCn2ccc(=O)c([O-])c2C)[n-]c1=O (optimized conformer: 55.155846311463385 kcal/mol)

>  <smiles>  (69) 
CCN(CC)CCn1c(=O)[nH]c(=NCCn2ccc(=O)c(O)c2C)[nH]c1=O

>  <score_type>  (69) 
oracle

>  <origin>  (69) 
adg

>  <m_score__min__energy>  (69) 
-13.82

>  <m_primary>  (69) 
energy

$$$$
69:0
     RDKit          3D

 39 41  0  0  0  0  0  0  0  0999 V2000
   60.3550   21.9290   45.6200 O   0  0  0  0  0  0  0  0  0  0  0  0
   59.3140   22.3760   45.0650 C   0  0  0  0  0  0  0  0  0  0  0  0
   58.5570   21.7010   44.1920 N   0  0  0  0  0  0  0  0  0  0  0  0
   57.5490   22.4510   43.8020 N   0  0  0  0  0  0  0  0  0  0  0  0
   57.6150   23.6380   44.4060 C   0  0  0  0  0  0  0  0  0  0  0  0
   56.7660   24.8350   44.3410 C   0  0  0  0  0  0  0  0  0  0  0  0
   56.8870   25.8580   45.7520 S   0  0  0  0  0  0  0  0  0  0  0  0
   57.2990   25.0110   46.9550 O   0  0  0  0  0  0  0  0  0  0  0  0
   55.4930   26.3540   46.1370 O   0  0  0  0  0  0  0  0  0  0  0  0
   57.8690   27.2210   45.5800 N   0  0  0  0  0  0  0  0  0  0  0  0
   57.6820   27.9330   44.4070 C   0  0  0  0  0  0  0  0  0  0  0  0
   57.5870   29.4170   44.4720 C   0  0  0  0  0  0  0  0  0  0  0  0
   58.2080   30.0020   45.6400 N   0  0  0  0  0  0  0  0  0  0  0  0
   58.2240   31.4370   45.6970 C   0  0  0  0  0  0  0  0  0  0  0  0
   57.4090   32.1640   44.8370 C   0  0  0  0  0  0  0  0  0  0  0  0
   57.4020   33.5490   44.8660 C   0  0  0  0  0  0  0  0  0  0  0  0
   58.1970   34.2510   45.7430 C   0  0  0  0  0  0  0  0  0  0  0  0
   59.0080   33.5350   46.6000 C   0  0  0  0  0  0  0  0  0  0  0  0
   59.0050   32.1480   46.5590 C   0  0  0  0  0  0  0  0  0  0  0  0
   58.7780   29.2210   46.6890 C   0  0  0  0  0  0  0  0  0  0  0  0
   58.2440   27.8370   46.7740 C   0  0  0  0  0  0  0  0  0  0  0  0
   58.7280   23.5780   45.1950 N   0  0  0  0  0  0  0  0  0  0  0  0
   58.7120   20.7360   43.8550 H   0  0  0  0  0  0  0  0  0  0  0  0
   57.0611   25.4228   43.4593 H   0  0  0  0  0  0  0  0  0  0  0  0
   55.7238   24.4877   44.2837 H   0  0  0  0  0  0  0  0  0  0  0  0
   58.5274   27.6926   43.7455 H   0  0  0  0  0  0  0  0  0  0  0  0
   56.6852   27.6192   44.0635 H   0  0  0  0  0  0  0  0  0  0  0  0
   58.0742   29.8330   43.5778 H   0  0  0  0  0  0  0  0  0  0  0  0
   56.5162   29.6622   44.5281 H   0  0  0  0  0  0  0  0  0  0  0  0
   56.7612   31.6327   44.1242 H   0  0  0  0  0  0  0  0  0  0  0  0
   56.7475   34.0990   44.1738 H   0  0  0  0  0  0  0  0  0  0  0  0
   58.1864   35.3508   45.7604 H   0  0  0  0  0  0  0  0  0  0  0  0
   59.6561   34.0633   47.3148 H   0  0  0  0  0  0  0  0  0  0  0  0
   59.6604   31.5991   47.2512 H   0  0  0  0  0  0  0  0  0  0  0  0
   59.8642   29.1627   46.5252 H   0  0  0  0  0  0  0  0  0  0  0  0
   58.5170   29.7202   47.6338 H   0  0  0  0  0  0  0  0  0  0  0  0
   59.0203   27.2114   47.2388 H   0  0  0  0  0  0  0  0  0  0  0  0
   57.3108   27.9295   47.3490 H   0  0  0  0  0  0  0  0  0  0  0  0
   59.0940   24.3460   45.8240 H   0  0  0  0  0  0  0  0  0  0  0  0
  1  2  2  0
  2  3  1  0
  3  4  1  0
  4  5  2  0
  5  6  1  0
  6  7  1  0
  7  8  2  0
  7  9  2  0
  7 10  1  0
 10 11  1  0
 11 12  1  0
 12 13  1  0
 13 14  1  0
 14 15  2  0
 15 16  1  0
 16 17  2  0
 17 18  1  0
 18 19  2  0
 13 20  1  0
 20 21  1  0
  5 22  1  0
 22  2  1  0
 21 10  1  0
 19 14  1  0
  3 23  1  0
  6 24  1  0
  6 25  1  0
 11 26  1  0
 11 27  1  0
 12 28  1  0
 12 29  1  0
 15 30  1  0
 16 31  1  0
 17 32  1  0
 18 33  1  0
 19 34  1  0
 20 35  1  0
 20 36  1  0
 21 37  1  0
 21 38  1  0
 22 39  1  0
M  END
>  <smiles>  (70) 
O=c1[nH]nc(CS(=O)(=O)N2CCN(c3ccccc3)CC2)[nH]1

>  <score_type>  (70) 
oracle

>  <origin>  (70) 
adg

>  <m_score__min__energy>  (70) 
-8.0700000000000003

>  <m_primary>  (70) 
energy

$$$$
70:0
     RDKit          3D

 54 57  0  0  0  0  0  0  0  0999 V2000
   57.2720   29.4170   43.5960 C   0  0  0  0  0  0  0  0  0  0  0  0
   56.2320   30.0480   44.4710 C   0  0  0  0  0  0  0  0  0  0  0  0
   55.2610   29.3500   44.8620 O   0  0  0  0  0  0  0  0  0  0  0  0
   56.2830   31.4330   44.8390 N   0  0  0  0  0  0  0  0  0  0  0  0
   57.4490   32.1750   45.2240 C   0  0  0  0  0  0  0  0  0  0  0  0
   57.7740   33.3360   44.5140 C   0  0  0  0  0  0  0  0  0  0  0  0
   58.8890   34.0950   44.8740 C   0  0  0  0  0  0  0  0  0  0  0  0
   59.6710   33.7170   45.9670 C   0  0  0  0  0  0  0  0  0  0  0  0
   59.3290   32.5850   46.7270 C   0  0  0  0  0  0  0  0  0  0  0  0
   60.1520   32.2060   47.9370 C   0  0  0  0  0  0  0  0  0  0  0  0
   60.8700   30.9210   47.7880 N   0  0  0  0  0  0  0  0  0  0  0  0
   60.5330   29.8670   48.7700 C   0  0  0  0  0  0  0  0  0  0  0  0
   59.4110   28.9180   48.2950 C   0  0  0  0  0  0  0  0  0  0  0  0
   59.3920   28.7070   46.7680 C   0  0  0  0  0  0  0  0  0  0  0  0
   58.9520   27.3490   46.4270 N   0  0  0  0  0  0  0  0  0  0  0  0
   59.8540   26.2080   46.2800 C   0  0  0  0  0  0  0  0  0  0  0  0
   58.9300   25.0760   45.9390 C   0  0  0  0  0  0  0  0  0  0  0  0
   59.2890   23.7650   45.6380 C   0  0  0  0  0  0  0  0  0  0  0  0
   58.2820   22.8520   45.2990 C   0  0  0  0  0  0  0  0  0  0  0  0
   56.9340   23.2570   45.2720 C   0  0  0  0  0  0  0  0  0  0  0  0
   56.5670   24.5830   45.5880 C   0  0  0  0  0  0  0  0  0  0  0  0
   55.1370   24.9630   45.5930 C   0  0  0  0  0  0  0  0  0  0  0  0
   54.7500   26.2840   45.9650 N   0  0  0  0  0  0  0  0  0  0  0  0
   54.2520   24.1450   45.2300 O   0  0  0  0  0  0  0  0  0  0  0  0
   57.6060   25.4810   45.9110 C   0  0  0  0  0  0  0  0  0  0  0  0
   57.6150   26.9070   46.1930 C   0  0  0  0  0  0  0  0  0  0  0  0
   56.6160   27.6740   46.1720 O   0  0  0  0  0  0  0  0  0  0  0  0
   60.7520   29.0160   46.1380 C   0  0  0  0  0  0  0  0  0  0  0  0
   61.1250   30.4820   46.3930 C   0  0  0  0  0  0  0  0  0  0  0  0
   58.2220   31.8110   46.3400 C   0  0  0  0  0  0  0  0  0  0  0  0
   58.0442   28.9485   44.2238 H   0  0  0  0  0  0  0  0  0  0  0  0
   56.8017   28.6518   42.9609 H   0  0  0  0  0  0  0  0  0  0  0  0
   57.7335   30.1875   42.9609 H   0  0  0  0  0  0  0  0  0  0  0  0
   57.1473   33.6526   43.6672 H   0  0  0  0  0  0  0  0  0  0  0  0
   59.1520   34.9927   44.2953 H   0  0  0  0  0  0  0  0  0  0  0  0
   60.5593   34.3080   46.2348 H   0  0  0  0  0  0  0  0  0  0  0  0
   60.8928   32.9993   48.1157 H   0  0  0  0  0  0  0  0  0  0  0  0
   59.4527   32.0884   48.7779 H   0  0  0  0  0  0  0  0  0  0  0  0
   61.4361   29.2693   48.9628 H   0  0  0  0  0  0  0  0  0  0  0  0
   60.1666   30.3735   49.6751 H   0  0  0  0  0  0  0  0  0  0  0  0
   59.5523   27.9409   48.7801 H   0  0  0  0  0  0  0  0  0  0  0  0
   58.4535   29.3846   48.5699 H   0  0  0  0  0  0  0  0  0  0  0  0
   58.6641   29.4171   46.3485 H   0  0  0  0  0  0  0  0  0  0  0  0
   60.5793   26.3813   45.4714 H   0  0  0  0  0  0  0  0  0  0  0  0
   60.4540   26.0159   47.1817 H   0  0  0  0  0  0  0  0  0  0  0  0
   60.3432   23.4520   45.6658 H   0  0  0  0  0  0  0  0  0  0  0  0
   58.5460   21.8130   45.0526 H   0  0  0  0  0  0  0  0  0  0  0  0
   56.1550   22.5293   45.0006 H   0  0  0  0  0  0  0  0  0  0  0  0
   55.1700   27.1180   45.4980 H   0  0  0  0  0  0  0  0  0  0  0  0
   61.5169   28.3624   46.5828 H   0  0  0  0  0  0  0  0  0  0  0  0
   60.6970   28.8398   45.0536 H   0  0  0  0  0  0  0  0  0  0  0  0
   62.1956   30.6121   46.1767 H   0  0  0  0  0  0  0  0  0  0  0  0
   60.4908   31.0972   45.7378 H   0  0  0  0  0  0  0  0  0  0  0  0
   57.9579   30.9118   46.9158 H   0  0  0  0  0  0  0  0  0  0  0  0
  1  2  1  0
  2  3  2  0
  2  4  1  0
  4  5  1  0
  5  6  2  0
  6  7  1  0
  7  8  2  0
  8  9  1  0
  9 10  1  0
 10 11  1  0
 11 12  1  0
 12 13  1  0
 13 14  1  0
 14 15  1  0
 15 16  1  0
 16 17  1  0
 17 18  2  0
 18 19  1  0
 19 20  2  0
 20 21  1  0
 21 22  1  0
 22 23  1  0
 22 24  2  0
 21 25  2  0
 25 26  1  0
 26 27  2  0
 14 28  1  0
 28 29  1  0
  9 30  2  0
 30  5  1  0
 29 11  1  0
 26 15  1  0
 25 17  1  0
  1 31  1  0
  1 32  1  0
  1 33  1  0
  6 34  1  0
  7 35  1  0
  8 36  1  0
 10 37  1  0
 10 38  1  0
 12 39  1  0
 12 40  1  0
 13 41  1  0
 13 42  1  0
 14 43  1  0
 16 44  1  0
 16 45  1  0
 18 46  1  0
 19 47  1  0
 20 48  1  0
 23 49  1  0
 28 50  1  0
 28 51  1  0
 29 52  1  0
 29 53  1  0
 30 54  1  0
M  CHG  2   4  -1  23  -1
M  END
>  <UniqueID>  (71) 
63

>  <SMILES>  (71) 
CC(=O)[N-]c1cccc(CN2CCC(N3Cc4cccc(C([NH-])=O)c4C3=O)CC2)c1

>  <Energy>  (71) 
95.84281161852527

>  <Genealogy>  (71) 
CC(=O)[N-]c1cccc(CN2CCC(N3Cc4cccc(C([NH-])=O)c4C3=O)CC2)c1 (protonated)
CC(=O)[N-]c1cccc(CN2CCC(N3Cc4cccc(C([NH-])=O)c4C3=O)CC2)c1 (3D coordinates assigned)
CC(=O)[N-]c1cccc(CN2CCC(N3Cc4cccc(C([NH-])=O)c4C3=O)CC2)c1 (nonaromatic ring conformer: 95.84281161852527 kcal/mol)

>  <smiles>  (71) 
CC(=O)Nc1cccc(CN2CCC(N3Cc4cccc(C(N)=O)c4C3=O)CC2)c1

>  <score_type>  (71) 
oracle

>  <origin>  (71) 
adg

>  <m_score__min__energy>  (71) 
-14.890000000000001

>  <m_primary>  (71) 
energy

$$$$
71:0
     RDKit          3D

 53 56  0  0  0  0  0  0  0  0999 V2000
   65.6930   32.7220   49.7350 C   0  0  0  0  0  0  0  0  0  0  0  0
   64.4640   32.4100   48.9860 N   0  0  0  0  0  0  0  0  0  0  0  0
   64.1580   33.4880   48.0120 C   0  0  0  0  0  0  0  0  0  0  0  0
   62.6600   33.5910   47.6400 C   0  0  0  0  0  0  0  0  0  0  0  0
   61.9450   32.3310   47.8810 N   0  0  0  0  0  0  0  0  0  0  0  0
   60.8050   32.0040   47.0660 C   0  0  0  0  0  0  0  0  0  0  0  0
   60.1000   32.9340   46.5830 O   0  0  0  0  0  0  0  0  0  0  0  0
   60.4470   30.6030   46.7730 C   0  0  0  0  0  0  0  0  0  0  0  0
   61.1980   29.9130   46.0350 O   0  0  0  0  0  0  0  0  0  0  0  0
   59.1520   30.0220   47.2650 C   0  0  0  0  0  0  0  0  0  0  0  0
   58.3110   29.5350   46.1180 C   0  0  0  0  0  0  0  0  0  0  0  0
   57.7890   28.2540   45.9420 C   0  0  0  0  0  0  0  0  0  0  0  0
   57.9920   26.8790   47.0720 S   0  0  0  0  0  0  0  0  0  0  0  0
   57.2910   25.7100   45.9150 C   0  0  0  0  0  0  0  0  0  0  0  0
   56.1530   24.9750   46.2550 C   0  0  0  0  0  0  0  0  0  0  0  0
   55.6200   24.0730   45.3330 C   0  0  0  0  0  0  0  0  0  0  0  0
   56.2230   23.9090   44.0750 C   0  0  0  0  0  0  0  0  0  0  0  0
   55.6790   22.9870   43.1150 N   0  0  0  0  0  0  0  0  0  0  0  0
   54.6960   23.3060   42.4140 O   0  0  0  0  0  0  0  0  0  0  0  0
   56.2330   21.7370   42.9550 O   0  0  0  0  0  0  0  0  0  0  0  0
   57.3660   24.6720   43.7790 C   0  0  0  0  0  0  0  0  0  0  0  0
   57.8650   25.5450   44.6940 N   0  0  0  0  0  0  0  0  0  0  0  0
   57.1210   28.1600   44.7720 N   0  0  0  0  0  0  0  0  0  0  0  0
   57.2200   29.3710   44.1970 C   0  0  0  0  0  0  0  0  0  0  0  0
   56.6970   29.7620   42.9650 C   0  0  0  0  0  0  0  0  0  0  0  0
   56.9300   31.0830   42.5410 C   0  0  0  0  0  0  0  0  0  0  0  0
   57.6790   31.9690   43.3450 C   0  0  0  0  0  0  0  0  0  0  0  0
   58.1960   31.5480   44.5830 C   0  0  0  0  0  0  0  0  0  0  0  0
   57.9440   30.2350   44.9820 C   0  0  0  0  0  0  0  0  0  0  0  0
   62.1460   31.6110   49.1470 C   0  0  0  0  0  0  0  0  0  0  0  0
   63.3430   32.1780   49.9160 C   0  0  0  0  0  0  0  0  0  0  0  0
   65.4877   32.6699   50.8144 H   0  0  0  0  0  0  0  0  0  0  0  0
   66.4756   31.9940   49.4750 H   0  0  0  0  0  0  0  0  0  0  0  0
   66.0336   33.7351   49.4750 H   0  0  0  0  0  0  0  0  0  0  0  0
   64.6440   31.5220   48.4550 H   0  0  0  0  0  0  0  0  0  0  0  0
   64.4734   34.4477   48.4473 H   0  0  0  0  0  0  0  0  0  0  0  0
   64.7005   33.2450   47.0864 H   0  0  0  0  0  0  0  0  0  0  0  0
   62.1972   34.3835   48.2465 H   0  0  0  0  0  0  0  0  0  0  0  0
   62.5917   33.8202   46.5663 H   0  0  0  0  0  0  0  0  0  0  0  0
   59.3683   29.1780   47.9365 H   0  0  0  0  0  0  0  0  0  0  0  0
   58.5961   30.8064   47.7995 H   0  0  0  0  0  0  0  0  0  0  0  0
   55.6813   25.1058   47.2401 H   0  0  0  0  0  0  0  0  0  0  0  0
   54.7248   23.4886   45.5923 H   0  0  0  0  0  0  0  0  0  0  0  0
   57.8592   24.5621   42.8019 H   0  0  0  0  0  0  0  0  0  0  0  0
   56.6390   27.3160   44.3900 H   0  0  0  0  0  0  0  0  0  0  0  0
   56.1207   29.0600   42.3445 H   0  0  0  0  0  0  0  0  0  0  0  0
   56.5262   31.4274   41.5775 H   0  0  0  0  0  0  0  0  0  0  0  0
   57.8598   32.9978   43.0001 H   0  0  0  0  0  0  0  0  0  0  0  0
   58.7802   32.2317   45.2164 H   0  0  0  0  0  0  0  0  0  0  0  0
   61.2415   31.7104   49.7650 H   0  0  0  0  0  0  0  0  0  0  0  0
   62.3436   30.5527   48.9211 H   0  0  0  0  0  0  0  0  0  0  0  0
   63.0570   33.1290   50.3890 H   0  0  0  0  0  0  0  0  0  0  0  0
   63.6530   31.4603   50.6898 H   0  0  0  0  0  0  0  0  0  0  0  0
  1  2  1  0
  2  3  1  0
  3  4  1  0
  4  5  1  0
  5  6  1  0
  6  7  2  0
  6  8  1  0
  8  9  2  0
  8 10  1  0
 10 11  1  0
 11 12  2  0
 12 13  1  0
 13 14  1  0
 14 15  2  0
 15 16  1  0
 16 17  2  0
 17 18  1  0
 18 19  2  0
 18 20  1  0
 17 21  1  0
 21 22  2  0
 12 23  1  0
 23 24  1  0
 24 25  2  0
 25 26  1  0
 26 27  2  0
 27 28  1  0
 28 29  2  0
  5 30  1  0
 30 31  1  0
 31  2  1  0
 29 11  1  0
 22 14  1  0
 29 24  1  0
  1 32  1  0
  1 33  1  0
  1 34  1  0
  2 35  1  0
  3 36  1  0
  3 37  1  0
  4 38  1  0
  4 39  1  0
 10 40  1  0
 10 41  1  0
 15 42  1  0
 16 43  1  0
 21 44  1  0
 23 45  1  0
 25 46  1  0
 26 47  1  0
 27 48  1  0
 28 49  1  0
 30 50  1  0
 30 51  1  0
 31 52  1  0
 31 53  1  0
M  CHG  3   2   1  18   1  20  -1
M  END
>  <UniqueID>  (72) 
64

>  <SMILES>  (72) 
C[NH+]1CCN(C(=O)C(=O)Cc2c(Sc3ccc([N+](=O)[O-])cn3)[nH]c3ccccc23)CC1

>  <Energy>  (72) 
93.13621059705991

>  <Genealogy>  (72) 
C[NH+]1CCN(C(=O)C(=O)Cc2c(Sc3ccc([N+](=O)[O-])cn3)[nH]c3ccccc23)CC1 (protonated)
C[NH+]1CCN(C(=O)C(=O)Cc2c(Sc3ccc([N+](=O)[O-])cn3)[nH]c3ccccc23)CC1 (3D coordinates assigned)
C[NH+]1CCN(C(=O)C(=O)Cc2c(Sc3ccc([N+](=O)[O-])cn3)[nH]c3ccccc23)CC1 (nonaromatic ring conformer: 93.13621059705991 kcal/mol)

>  <smiles>  (72) 
CN1CCN(C(=O)C(=O)Cc2c(Sc3ccc([N+](=O)[O-])cn3)[nH]c3ccccc23)CC1

>  <score_type>  (72) 
oracle

>  <origin>  (72) 
adg

>  <m_score__min__energy>  (72) 
-8.5600000000000005

>  <m_primary>  (72) 
energy

$$$$
72:0
     RDKit          3D

 39 41  0  0  0  0  0  0  0  0999 V2000
   61.3105   29.8070   49.4360 H   0  0  0  0  0  0  0  0  0  0  0  0
   60.4690   30.0620   48.7750 C   0  0  0  0  0  0  0  0  0  0  0  0
   59.6170   29.1830   48.1300 C   0  0  0  0  0  0  0  0  0  0  0  0
   59.6710   27.7200   48.2000 C   0  0  0  0  0  0  0  0  0  0  0  0
   60.0120   27.1540   49.2730 O   0  0  0  0  0  0  0  0  0  0  0  0
   59.4500   26.9510   47.0130 N   0  0  0  0  0  0  0  0  0  0  0  0
   58.3280   26.4900   46.5360 C   0  0  0  0  0  0  0  0  0  0  0  0
   57.1760   27.1780   46.6940 N   0  0  0  0  0  0  0  0  0  0  0  0
   56.2580   26.3980   46.0960 C   0  0  0  0  0  0  0  0  0  0  0  0
   54.9100   26.7170   46.0120 O   0  0  0  0  0  0  0  0  0  0  0  0
   56.8370   25.2570   45.5990 C   0  0  0  0  0  0  0  0  0  0  0  0
   56.3197   24.4497   45.0599 H   0  0  0  0  0  0  0  0  0  0  0  0
   58.1510   25.3020   45.8890 N   0  0  0  0  0  0  0  0  0  0  0  0
   59.0820   24.2030   45.6360 C   0  0  0  0  0  0  0  0  0  0  0  0
   59.4314   23.7905   46.5940 H   0  0  0  0  0  0  0  0  0  0  0  0
   58.5721   23.4154   45.0618 H   0  0  0  0  0  0  0  0  0  0  0  0
   59.9427   24.5764   45.0618 H   0  0  0  0  0  0  0  0  0  0  0  0
   58.7290   29.8490   47.4280 O   0  0  0  0  0  0  0  0  0  0  0  0
   58.9600   31.1320   47.5840 C   0  0  0  0  0  0  0  0  0  0  0  0
   58.1740   32.2100   46.9100 C   0  0  0  0  0  0  0  0  0  0  0  0
   58.7756   33.1301   46.8715 H   0  0  0  0  0  0  0  0  0  0  0  0
   57.2499   32.3929   47.4779 H   0  0  0  0  0  0  0  0  0  0  0  0
   57.8290   31.7990   45.5490 N   0  0  0  0  0  0  0  0  0  0  0  0
   58.1180   32.4510   44.3990 C   0  0  0  0  0  0  0  0  0  0  0  0
   58.8520   33.7550   44.3050 C   0  0  0  0  0  0  0  0  0  0  0  0
   59.0634   34.1306   45.3171 H   0  0  0  0  0  0  0  0  0  0  0  0
   59.7982   33.6050   43.7645 H   0  0  0  0  0  0  0  0  0  0  0  0
   58.2329   34.4861   43.7645 H   0  0  0  0  0  0  0  0  0  0  0  0
   57.4910   31.7940   43.3510 C   0  0  0  0  0  0  0  0  0  0  0  0
   57.4360   32.3080   41.5100 Br  0  0  0  0  0  0  0  0  0  0  0  0
   56.8440   30.7220   43.9420 C   0  0  0  0  0  0  0  0  0  0  0  0
   55.9360   29.7520   43.2620 C   0  0  0  0  0  0  0  0  0  0  0  0
   55.3900   29.1688   44.0182 H   0  0  0  0  0  0  0  0  0  0  0  0
   55.2187   30.3000   42.6333 H   0  0  0  0  0  0  0  0  0  0  0  0
   56.5301   29.0724   42.6333 H   0  0  0  0  0  0  0  0  0  0  0  0
   57.0530   30.7620   45.2710 N   0  0  0  0  0  0  0  0  0  0  0  0
   56.6450   30.1140   45.9820 H   0  0  0  0  0  0  0  0  0  0  0  0
   60.0440   31.3240   48.4170 C   0  0  0  0  0  0  0  0  0  0  0  0
   60.4787   32.2847   48.7303 H   0  0  0  0  0  0  0  0  0  0  0  0
  1  2  1  0
  2  3  2  0
  3  4  1  0
  4  5  2  0
  4  6  1  0
  6  7  2  0
  7  8  1  0
  8  9  1  0
  9 10  1  0
  9 11  2  0
 11 12  1  0
 11 13  1  0
 13 14  1  0
 14 15  1  0
 14 16  1  0
 14 17  1  0
  3 18  1  0
 18 19  1  0
 19 20  1  0
 20 21  1  0
 20 22  1  0
 20 23  1  0
 23 24  1  0
 24 25  1  0
 25 26  1  0
 25 27  1  0
 25 28  1  0
 24 29  2  0
 29 30  1  0
 29 31  1  0
 31 32  1  0
 32 33  1  0
 32 34  1  0
 32 35  1  0
 31 36  2  0
 36 37  1  0
 19 38  2  0
 38 39  1  0
 38  2  1  0
 13  7  1  0
 36 23  1  0
M  CHG  3   8  -1  10  -1  36   1
M  END
>  <UniqueID>  (73) 
65

>  <SMILES>  (73) 
Cc1[nH+]n(Cc2ccc(C(=O)/N=c3/[n-]c([O-])cn3C)o2)c(C)c1Br

>  <Energy>  (73) 
134.55239977101178

>  <Genealogy>  (73) 
Cc1[nH+]n(Cc2ccc(C(=O)N=c3[n-]c([O-])cn3C)o2)c(C)c1Br (protonated)
Cc1[nH+]n(Cc2ccc(C(=O)/N=c3/[n-]c([O-])cn3C)o2)c(C)c1Br (cis-trans isomerization)
Cc1[nH+]n(Cc2ccc(C(=O)/N=c3/[n-]c([O-])cn3C)o2)c(C)c1Br (3D coordinates assigned)
Cc1[nH+]n(Cc2ccc(C(=O)/N=c3/[n-]c([O-])cn3C)o2)c(C)c1Br (optimized conformer: 134.55239977101178 kcal/mol)

>  <smiles>  (73) 
Cc1nn(Cc2ccc(C(=O)N=c3[nH]c(O)cn3C)o2)c(C)c1Br

>  <score_type>  (73) 
oracle

>  <origin>  (73) 
adg

>  <m_score__min__energy>  (73) 
-11.59

>  <m_primary>  (73) 
energy

$$$$
73:0
     RDKit          3D

 60 64  0  0  0  0  0  0  0  0999 V2000
   61.1770   30.8030   46.8810 O   0  0  0  0  0  0  0  0  0  0  0  0
   59.9870   30.4330   47.0720 C   0  0  0  0  0  0  0  0  0  0  0  0
   58.9710   31.4260   47.2580 N   0  0  0  0  0  0  0  0  0  0  0  0
   58.8800   32.6220   46.4710 C   0  0  0  0  0  0  0  0  0  0  0  0
   59.7000   33.7130   46.7930 C   0  0  0  0  0  0  0  0  0  0  0  0
   59.6770   34.8670   46.0090 C   0  0  0  0  0  0  0  0  0  0  0  0
   58.8060   34.9580   44.9120 C   0  0  0  0  0  0  0  0  0  0  0  0
   57.9420   33.8980   44.6160 C   0  0  0  0  0  0  0  0  0  0  0  0
   57.9780   32.7140   45.3860 C   0  0  0  0  0  0  0  0  0  0  0  0
   57.0190   31.6640   45.1820 N   0  0  0  0  0  0  0  0  0  0  0  0
   57.1120   30.5780   44.2490 C   0  0  0  0  0  0  0  0  0  0  0  0
   57.2560   30.8430   43.0180 O   0  0  0  0  0  0  0  0  0  0  0  0
   56.9550   29.1690   44.6770 C   0  0  0  0  0  0  0  0  0  0  0  0
   57.8670   28.1590   44.4200 C   0  0  0  0  0  0  0  0  0  0  0  0
   57.3100   26.9980   44.9010 C   0  0  0  0  0  0  0  0  0  0  0  0
   56.0830   27.3660   45.4190 C   0  0  0  0  0  0  0  0  0  0  0  0
   55.1680   26.4910   45.9980 O   0  0  0  0  0  0  0  0  0  0  0  0
   55.8550   28.6860   45.2890 N   0  0  0  0  0  0  0  0  0  0  0  0
   59.6670   28.9880   47.0720 C   0  0  0  0  0  0  0  0  0  0  0  0
   58.5950   28.5020   47.8350 C   0  0  0  0  0  0  0  0  0  0  0  0
   58.2950   27.1380   47.8390 C   0  0  0  0  0  0  0  0  0  0  0  0
   59.0640   26.2390   47.0920 C   0  0  0  0  0  0  0  0  0  0  0  0
   58.7400   24.8750   47.1420 O   0  0  0  0  0  0  0  0  0  0  0  0
   57.4610   24.3400   46.9600 C   0  0  0  0  0  0  0  0  0  0  0  0
   56.4730   24.7740   47.6150 O   0  0  0  0  0  0  0  0  0  0  0  0
   57.2860   23.2460   46.0590 N   0  0  0  0  0  0  0  0  0  0  0  0
   56.2230   22.2690   46.3120 C   0  0  0  0  0  0  0  0  0  0  0  0
   55.2110   22.2120   45.1560 C   0  0  0  0  0  0  0  0  0  0  0  0
   55.8150   22.1750   43.8030 N   0  0  0  0  0  0  0  0  0  0  0  0
   56.9450   21.2350   43.6690 C   0  0  0  0  0  0  0  0  0  0  0  0
   58.2560   21.7800   44.2830 C   0  0  0  0  0  0  0  0  0  0  0  0
   58.1030   23.2080   44.8340 C   0  0  0  0  0  0  0  0  0  0  0  0
   57.4580   24.0990   43.7660 C   0  0  0  0  0  0  0  0  0  0  0  0
   56.1260   23.5120   43.2480 C   0  0  0  0  0  0  0  0  0  0  0  0
   60.1590   26.7210   46.3530 C   0  0  0  0  0  0  0  0  0  0  0  0
   60.4550   28.0860   46.3430 C   0  0  0  0  0  0  0  0  0  0  0  0
   60.3646   33.6588   47.6679 H   0  0  0  0  0  0  0  0  0  0  0  0
   60.3434   35.7079   46.2513 H   0  0  0  0  0  0  0  0  0  0  0  0
   58.8027   35.8621   44.2854 H   0  0  0  0  0  0  0  0  0  0  0  0
   57.2320   33.9868   43.7806 H   0  0  0  0  0  0  0  0  0  0  0  0
   58.8450   28.2650   43.9277 H   0  0  0  0  0  0  0  0  0  0  0  0
   57.7483   25.9894   44.8783 H   0  0  0  0  0  0  0  0  0  0  0  0
   55.1470   26.3420   46.9980 H   0  0  0  0  0  0  0  0  0  0  0  0
   57.9881   29.1981   48.4327 H   0  0  0  0  0  0  0  0  0  0  0  0
   57.4474   26.7675   48.4342 H   0  0  0  0  0  0  0  0  0  0  0  0
   56.6762   21.2746   46.4375 H   0  0  0  0  0  0  0  0  0  0  0  0
   55.6857   22.5770   47.2211 H   0  0  0  0  0  0  0  0  0  0  0  0
   54.5980   21.3074   45.2820 H   0  0  0  0  0  0  0  0  0  0  0  0
   54.6270   23.1426   45.2093 H   0  0  0  0  0  0  0  0  0  0  0  0
   56.6827   20.2957   44.1779 H   0  0  0  0  0  0  0  0  0  0  0  0
   57.1220   21.0819   42.5942 H   0  0  0  0  0  0  0  0  0  0  0  0
   58.5625   21.1163   45.1049 H   0  0  0  0  0  0  0  0  0  0  0  0
   59.0105   21.8109   43.4832 H   0  0  0  0  0  0  0  0  0  0  0  0
   59.1074   23.5765   45.0899 H   0  0  0  0  0  0  0  0  0  0  0  0
   57.2636   25.0904   44.2011 H   0  0  0  0  0  0  0  0  0  0  0  0
   58.1525   24.1662   42.9156 H   0  0  0  0  0  0  0  0  0  0  0  0
   55.3125   24.2003   43.5210 H   0  0  0  0  0  0  0  0  0  0  0  0
   56.2254   23.3953   42.1587 H   0  0  0  0  0  0  0  0  0  0  0  0
   60.7848   26.0204   45.7807 H   0  0  0  0  0  0  0  0  0  0  0  0
   61.3113   28.4555   45.7598 H   0  0  0  0  0  0  0  0  0  0  0  0
  1  2  2  0
  2  3  1  0
  3  4  1  0
  4  5  2  0
  5  6  1  0
  6  7  2  0
  7  8  1  0
  8  9  2  0
  9 10  1  0
 10 11  1  0
 11 12  2  0
 11 13  1  0
 13 14  2  0
 14 15  1  0
 15 16  2  0
 16 17  1  0
 16 18  1  0
  2 19  1  0
 19 20  2  0
 20 21  1  0
 21 22  2  0
 22 23  1  0
 23 24  1  0
 24 25  2  0
 24 26  1  0
 26 27  1  0
 27 28  1  0
 28 29  1  0
 29 30  1  0
 30 31  1  0
 31 32  1  0
 32 33  1  0
 33 34  1  0
 22 35  1  0
 35 36  2  0
  9  4  1  0
 18 13  1  0
 36 19  1  0
 32 26  1  0
 34 29  1  0
  5 37  1  0
  6 38  1  0
  7 39  1  0
  8 40  1  0
 14 41  1  0
 15 42  1  0
 17 43  1  0
 20 44  1  0
 21 45  1  0
 27 46  1  0
 27 47  1  0
 28 48  1  0
 28 49  1  0
 30 50  1  0
 30 51  1  0
 31 52  1  0
 31 53  1  0
 32 54  1  0
 33 55  1  0
 33 56  1  0
 34 57  1  0
 34 58  1  0
 35 59  1  0
 36 60  1  0
M  CHG  3   3  -1  10  -1  18  -1
M  END
>  <UniqueID>  (74) 
66

>  <SMILES>  (74) 
O=C([N-]c1ccccc1[N-]C(=O)c1ccc(O)[n-]1)c1ccc(OC(=O)N2CCN3CCC2CC3)cc1

>  <Energy>  (74) 
126.58452953123526

>  <Genealogy>  (74) 
O=C([N-]c1ccccc1[N-]C(=O)c1ccc(O)[n-]1)c1ccc(OC(=O)N2CCN3CCC2CC3)cc1 (protonated)
O=C([N-]c1ccccc1[N-]C(=O)c1ccc(O)[n-]1)c1ccc(OC(=O)N2CCN3CCC2CC3)cc1 (3D coordinates assigned)
O=C([N-]c1ccccc1[N-]C(=O)c1ccc(O)[n-]1)c1ccc(OC(=O)N2CCN3CCC2CC3)cc1 (nonaromatic ring conformer: 126.58452953123526 kcal/mol)

>  <smiles>  (74) 
O=C(Nc1ccccc1NC(=O)c1ccc(O)[nH]1)c1ccc(OC(=O)N2CCN3CCC2CC3)cc1

>  <score_type>  (74) 
oracle

>  <origin>  (74) 
adg

>  <m_score__min__energy>  (74) 
-16.07

>  <m_primary>  (74) 
energy

$$$$
74:0
     RDKit          3D

 46 48  0  0  0  0  0  0  0  0999 V2000
   57.0260   21.6110   43.2050 C   0  0  0  0  0  0  0  0  0  0  0  0
   57.0720   22.3810   44.2930 C   0  0  0  0  0  0  0  0  0  0  0  0
   55.8890   23.1240   44.7960 C   0  0  0  0  0  0  0  0  0  0  0  0
   54.6990   22.4710   44.9040 N   0  0  0  0  0  0  0  0  0  0  0  0
   53.5810   23.0890   45.3560 C   0  0  0  0  0  0  0  0  0  0  0  0
   52.4990   22.4520   45.4400 O   0  0  0  0  0  0  0  0  0  0  0  0
   53.6270   24.3940   45.7160 N   0  0  0  0  0  0  0  0  0  0  0  0
   54.7800   25.1050   45.6340 C   0  0  0  0  0  0  0  0  0  0  0  0
   54.7730   26.3170   45.9790 O   0  0  0  0  0  0  0  0  0  0  0  0
   55.9610   24.4900   45.1690 C   0  0  0  0  0  0  0  0  0  0  0  0
   57.2500   25.2840   45.0560 C   0  0  0  0  0  0  0  0  0  0  0  0
   57.6860   25.7730   46.3840 N   0  0  0  0  0  0  0  0  0  0  0  0
   59.1530   25.7810   46.5650 C   0  0  0  0  0  0  0  0  0  0  0  0
   59.8630   26.7920   45.6500 C   0  0  0  0  0  0  0  0  0  0  0  0
   59.1160   28.0940   45.5230 C   0  0  0  0  0  0  0  0  0  0  0  0
   59.7350   29.1760   44.8820 C   0  0  0  0  0  0  0  0  0  0  0  0
   59.0500   30.3810   44.7020 C   0  0  0  0  0  0  0  0  0  0  0  0
   57.7290   30.5180   45.1570 C   0  0  0  0  0  0  0  0  0  0  0  0
   56.9870   31.7350   44.9980 N   0  0  0  0  0  0  0  0  0  0  0  0
   57.4210   33.2810   45.6550 S   0  0  0  0  0  0  0  0  0  0  0  0
   56.6420   34.3450   44.9340 O   0  0  0  0  0  0  0  0  0  0  0  0
   57.0680   33.3330   47.1150 O   0  0  0  0  0  0  0  0  0  0  0  0
   59.1660   33.5910   45.4300 C   0  0  0  0  0  0  0  0  0  0  0  0
   59.5580   34.9420   46.0160 C   0  0  0  0  0  0  0  0  0  0  0  0
   57.1080   29.4380   45.7940 C   0  0  0  0  0  0  0  0  0  0  0  0
   57.7830   28.2190   45.9620 C   0  0  0  0  0  0  0  0  0  0  0  0
   57.1100   27.0930   46.7090 C   0  0  0  0  0  0  0  0  0  0  0  0
   57.9283   21.0789   42.8693 H   0  0  0  0  0  0  0  0  0  0  0  0
   56.0858   21.5081   42.6434 H   0  0  0  0  0  0  0  0  0  0  0  0
   58.0230   22.4690   44.8387 H   0  0  0  0  0  0  0  0  0  0  0  0
   58.0348   24.6390   44.6340 H   0  0  0  0  0  0  0  0  0  0  0  0
   57.0733   26.1509   44.4023 H   0  0  0  0  0  0  0  0  0  0  0  0
   59.3762   26.0373   47.6112 H   0  0  0  0  0  0  0  0  0  0  0  0
   59.5237   24.7796   46.3009 H   0  0  0  0  0  0  0  0  0  0  0  0
   60.8610   26.9990   46.0636 H   0  0  0  0  0  0  0  0  0  0  0  0
   59.9200   26.3452   44.6464 H   0  0  0  0  0  0  0  0  0  0  0  0
   60.7681   29.0760   44.5177 H   0  0  0  0  0  0  0  0  0  0  0  0
   59.5477   31.2250   44.2020 H   0  0  0  0  0  0  0  0  0  0  0  0
   59.7403   32.7996   45.9338 H   0  0  0  0  0  0  0  0  0  0  0  0
   59.3857   33.5982   44.3522 H   0  0  0  0  0  0  0  0  0  0  0  0
   59.5412   34.8841   47.1143 H   0  0  0  0  0  0  0  0  0  0  0  0
   60.5705   35.2083   45.6783 H   0  0  0  0  0  0  0  0  0  0  0  0
   58.8453   35.7088   45.6783 H   0  0  0  0  0  0  0  0  0  0  0  0
   56.0789   29.5456   46.1674 H   0  0  0  0  0  0  0  0  0  0  0  0
   57.2217   27.2701   47.7889 H   0  0  0  0  0  0  0  0  0  0  0  0
   56.0521   27.0785   46.4080 H   0  0  0  0  0  0  0  0  0  0  0  0
  1  2  2  0
  2  3  1  0
  3  4  1  0
  4  5  1  0
  5  6  2  0
  5  7  1  0
  7  8  1  0
  8  9  2  0
  8 10  1  0
 10 11  1  0
 11 12  1  0
 12 13  1  0
 13 14  1  0
 14 15  1  0
 15 16  2  0
 16 17  1  0
 17 18  2  0
 18 19  1  0
 19 20  1  0
 20 21  2  0
 20 22  2  0
 20 23  1  0
 23 24  1  0
 18 25  1  0
 25 26  2  0
 26 27  1  0
 10  3  2  0
 27 12  1  0
 26 15  1  0
  1 28  1  0
  1 29  1  0
  2 30  1  0
 11 31  1  0
 11 32  1  0
 13 33  1  0
 13 34  1  0
 14 35  1  0
 14 36  1  0
 16 37  1  0
 17 38  1  0
 23 39  1  0
 23 40  1  0
 24 41  1  0
 24 42  1  0
 24 43  1  0
 25 44  1  0
 27 45  1  0
 27 46  1  0
M  CHG  3   4  -1   7  -1  19  -1
M  END
>  <UniqueID>  (75) 
67

>  <SMILES>  (75) 
C=Cc1[n-]c(=O)[n-]c(=O)c1CN1CCc2ccc([N-]S(=O)(=O)CC)cc2C1

>  <Energy>  (75) 
52.70701500922616

>  <Genealogy>  (75) 
C=Cc1[n-]c(=O)[n-]c(=O)c1CN1CCc2ccc([N-]S(=O)(=O)CC)cc2C1 (protonated)
C=Cc1[n-]c(=O)[n-]c(=O)c1CN1CCc2ccc([N-]S(=O)(=O)CC)cc2C1 (3D coordinates assigned)
C=Cc1[n-]c(=O)[n-]c(=O)c1CN1CCc2ccc([N-]S(=O)(=O)CC)cc2C1 (nonaromatic ring conformer: 52.70701500922616 kcal/mol)

>  <smiles>  (75) 
C=Cc1[nH]c(=O)[nH]c(=O)c1CN1CCc2ccc(NS(=O)(=O)CC)cc2C1

>  <score_type>  (75) 
oracle

>  <origin>  (75) 
adg

>  <m_score__min__energy>  (75) 
-13.44

>  <m_primary>  (75) 
energy

$$$$
75:0
     RDKit          3D

 72 76  0  0  0  0  0  0  0  0999 V2000
   55.5090   29.1210   44.9370 O   0  0  0  0  0  0  0  0  0  0  0  0
   56.5490   29.8210   44.8110 C   0  0  0  0  0  0  0  0  0  0  0  0
   57.8420   29.2040   44.8000 N   0  0  0  0  0  0  0  0  0  0  0  0
   58.5430   28.6980   45.9460 C   0  0  0  0  0  0  0  0  0  0  0  0
   59.5380   27.7120   45.8330 C   0  0  0  0  0  0  0  0  0  0  0  0
   60.2040   27.2490   46.9730 C   0  0  0  0  0  0  0  0  0  0  0  0
   59.8710   27.7460   48.2430 C   0  0  0  0  0  0  0  0  0  0  0  0
   60.6210   27.2950   49.4360 C   0  0  0  0  0  0  0  0  0  0  0  0
   60.5110   26.0990   49.8180 O   0  0  0  0  0  0  0  0  0  0  0  0
   61.5130   28.1610   50.1460 N   0  0  0  0  0  0  0  0  0  0  0  0
   61.2590   29.5760   50.4220 C   0  0  0  0  0  0  0  0  0  0  0  0
   62.5950   30.2780   50.7460 C   0  0  0  0  0  0  0  0  0  0  0  0
   62.4060   31.3800   51.7940 C   0  0  0  0  0  0  0  0  0  0  0  0
   61.9230   30.8250   53.0810 N   0  0  0  0  0  0  0  0  0  0  0  0
   61.4100   31.9030   53.9510 C   0  0  0  0  0  0  0  0  0  0  0  0
   60.1290   32.4620   53.3880 C   0  0  0  0  0  0  0  0  0  0  0  0
   58.8990   31.8700   53.7250 C   0  0  0  0  0  0  0  0  0  0  0  0
   57.7070   32.3720   53.1940 C   0  0  0  0  0  0  0  0  0  0  0  0
   57.7340   33.4660   52.3230 C   0  0  0  0  0  0  0  0  0  0  0  0
   58.9530   34.0600   51.9850 C   0  0  0  0  0  0  0  0  0  0  0  0
   60.1470   33.5620   52.5140 C   0  0  0  0  0  0  0  0  0  0  0  0
   60.9510   29.7060   52.9390 C   0  0  0  0  0  0  0  0  0  0  0  0
   60.2420   29.6990   51.5770 C   0  0  0  0  0  0  0  0  0  0  0  0
   58.8650   28.7200   48.3530 C   0  0  0  0  0  0  0  0  0  0  0  0
   58.1960   29.1790   47.2140 C   0  0  0  0  0  0  0  0  0  0  0  0
   56.4510   31.2290   44.5720 N   0  0  0  0  0  0  0  0  0  0  0  0
   57.3400   32.2310   45.0880 C   0  0  0  0  0  0  0  0  0  0  0  0
   57.3890   33.4800   44.4570 C   0  0  0  0  0  0  0  0  0  0  0  0
   58.2420   34.4790   44.9330 C   0  0  0  0  0  0  0  0  0  0  0  0
   59.0670   34.2330   46.0340 C   0  0  0  0  0  0  0  0  0  0  0  0
   59.0510   32.9760   46.6540 C   0  0  0  0  0  0  0  0  0  0  0  0
   60.1230   32.6340   48.0120 S   0  0  0  0  0  0  0  0  0  0  0  0
   60.7240   31.2690   47.8130 O   0  0  0  0  0  0  0  0  0  0  0  0
   59.3360   32.6270   49.2940 O   0  0  0  0  0  0  0  0  0  0  0  0
   61.3980   33.8340   48.0790 N   0  0  0  0  0  0  0  0  0  0  0  0
   62.3180   33.5500   49.1860 C   0  0  0  0  0  0  0  0  0  0  0  0
   63.4560   32.6960   48.6470 C   0  0  0  0  0  0  0  0  0  0  0  0
   63.4050   32.8600   47.1390 C   0  0  0  0  0  0  0  0  0  0  0  0
   62.2200   33.7750   46.8660 C   0  0  0  0  0  0  0  0  0  0  0  0
   58.1980   31.9730   46.1720 C   0  0  0  0  0  0  0  0  0  0  0  0
   59.7941   27.3027   44.8446 H   0  0  0  0  0  0  0  0  0  0  0  0
   60.9941   26.4902   46.8735 H   0  0  0  0  0  0  0  0  0  0  0  0
   60.8237   30.0707   49.5412 H   0  0  0  0  0  0  0  0  0  0  0  0
   63.3061   29.5335   51.1334 H   0  0  0  0  0  0  0  0  0  0  0  0
   62.9774   30.7388   49.8233 H   0  0  0  0  0  0  0  0  0  0  0  0
   63.3692   31.8844   51.9607 H   0  0  0  0  0  0  0  0  0  0  0  0
   61.6538   32.0895   51.4187 H   0  0  0  0  0  0  0  0  0  0  0  0
   61.2191   31.4987   54.9560 H   0  0  0  0  0  0  0  0  0  0  0  0
   62.1588   32.7070   54.0052 H   0  0  0  0  0  0  0  0  0  0  0  0
   58.8744   31.0088   54.4089 H   0  0  0  0  0  0  0  0  0  0  0  0
   56.7471   31.9061   53.4615 H   0  0  0  0  0  0  0  0  0  0  0  0
   56.7958   33.8588   51.9041 H   0  0  0  0  0  0  0  0  0  0  0  0
   58.9728   34.9214   51.3011 H   0  0  0  0  0  0  0  0  0  0  0  0
   61.1041   34.0329   52.2452 H   0  0  0  0  0  0  0  0  0  0  0  0
   61.4908   28.7550   53.0585 H   0  0  0  0  0  0  0  0  0  0  0  0
   60.1796   29.8390   53.7118 H   0  0  0  0  0  0  0  0  0  0  0  0
   59.5484   28.8462   51.5374 H   0  0  0  0  0  0  0  0  0  0  0  0
   59.6959   30.6470   51.4624 H   0  0  0  0  0  0  0  0  0  0  0  0
   58.6017   29.1244   49.3415 H   0  0  0  0  0  0  0  0  0  0  0  0
   57.3919   29.9228   47.3151 H   0  0  0  0  0  0  0  0  0  0  0  0
   56.7523   33.6758   43.5816 H   0  0  0  0  0  0  0  0  0  0  0  0
   58.2643   35.4620   44.4398 H   0  0  0  0  0  0  0  0  0  0  0  0
   59.7286   35.0255   46.4138 H   0  0  0  0  0  0  0  0  0  0  0  0
   62.7176   34.4919   49.5898 H   0  0  0  0  0  0  0  0  0  0  0  0
   61.7915   33.0187   49.9925 H   0  0  0  0  0  0  0  0  0  0  0  0
   64.4210   33.0486   49.0399 H   0  0  0  0  0  0  0  0  0  0  0  0
   63.3541   31.6427   48.9472 H   0  0  0  0  0  0  0  0  0  0  0  0
   64.3355   33.3168   46.7709 H   0  0  0  0  0  0  0  0  0  0  0  0
   63.2975   31.8919   46.6280 H   0  0  0  0  0  0  0  0  0  0  0  0
   62.5789   34.7828   46.6100 H   0  0  0  0  0  0  0  0  0  0  0  0
   61.6274   33.3884   46.0237 H   0  0  0  0  0  0  0  0  0  0  0  0
   58.1999   30.9794   46.6441 H   0  0  0  0  0  0  0  0  0  0  0  0
  1  2  2  0
  2  3  1  0
  3  4  1  0
  4  5  2  0
  5  6  1  0
  6  7  2  0
  7  8  1  0
  8  9  2  0
  8 10  1  0
 10 11  1  0
 11 12  1  0
 12 13  1  0
 13 14  1  0
 14 15  1  0
 15 16  1  0
 16 17  2  0
 17 18  1  0
 18 19  2  0
 19 20  1  0
 20 21  2  0
 14 22  1  0
 22 23  1  0
  7 24  1  0
 24 25  2  0
  2 26  1  0
 26 27  1  0
 27 28  2  0
 28 29  1  0
 29 30  2  0
 30 31  1  0
 31 32  1  0
 32 33  2  0
 32 34  2  0
 32 35  1  0
 35 36  1  0
 36 37  1  0
 37 38  1  0
 38 39  1  0
 31 40  2  0
 25  4  1  0
 40 27  1  0
 23 11  1  0
 39 35  1  0
 21 16  1  0
  5 41  1  0
  6 42  1  0
 11 43  1  0
 12 44  1  0
 12 45  1  0
 13 46  1  0
 13 47  1  0
 15 48  1  0
 15 49  1  0
 17 50  1  0
 18 51  1  0
 19 52  1  0
 20 53  1  0
 21 54  1  0
 22 55  1  0
 22 56  1  0
 23 57  1  0
 23 58  1  0
 24 59  1  0
 25 60  1  0
 28 61  1  0
 29 62  1  0
 30 63  1  0
 36 64  1  0
 36 65  1  0
 37 66  1  0
 37 67  1  0
 38 68  1  0
 38 69  1  0
 39 70  1  0
 39 71  1  0
 40 72  1  0
M  CHG  3   3  -1  10  -1  26  -1
M  END
>  <UniqueID>  (76) 
68

>  <SMILES>  (76) 
O=C([N-]c1ccc(C(=O)[N-]C2CCN(Cc3ccccc3)CC2)cc1)[N-]c1cccc(S(=O)(=O)N2CCCC2)c1

>  <Energy>  (76) 
97.89436130606428

>  <Genealogy>  (76) 
O=C([N-]c1ccc(C(=O)[N-]C2CCN(Cc3ccccc3)CC2)cc1)[N-]c1cccc(S(=O)(=O)N2CCCC2)c1 (protonated)
O=C([N-]c1ccc(C(=O)[N-]C2CCN(Cc3ccccc3)CC2)cc1)[N-]c1cccc(S(=O)(=O)N2CCCC2)c1 (3D coordinates assigned)
O=C([N-]c1ccc(C(=O)[N-]C2CCN(Cc3ccccc3)CC2)cc1)[N-]c1cccc(S(=O)(=O)N2CCCC2)c1 (nonaromatic ring conformer: 97.89436130606428 kcal/mol)

>  <smiles>  (76) 
O=C(Nc1ccc(C(=O)NC2CCN(Cc3ccccc3)CC2)cc1)Nc1cccc(S(=O)(=O)N2CCCC2)c1

>  <score_type>  (76) 
oracle

>  <origin>  (76) 
adg

>  <m_score__min__energy>  (76) 
-14.33

>  <m_primary>  (76) 
energy

$$$$
76:0
     RDKit          3D

 60 63  0  0  0  0  0  0  0  0999 V2000
   55.1440   27.8480   44.8850 H   0  0  0  0  0  0  0  0  0  0  0  0
   55.9820   28.0860   45.3990 O   0  0  0  0  0  0  0  0  0  0  0  0
   56.6480   29.2930   45.2000 C   0  0  0  0  0  0  0  0  0  0  0  0
   56.0930   30.5100   44.1820 S   0  0  0  0  0  0  0  0  0  0  0  0
   57.4440   31.4700   44.4620 C   0  0  0  0  0  0  0  0  0  0  0  0
   57.6140   32.6410   43.9260 N   0  0  0  0  0  0  0  0  0  0  0  0
   57.8220   33.8720   44.6360 C   0  0  0  0  0  0  0  0  0  0  0  0
   56.8470   34.5100   45.1220 O   0  0  0  0  0  0  0  0  0  0  0  0
   59.2300   34.3620   44.8380 C   0  0  0  0  0  0  0  0  0  0  0  0
   59.8721   33.9168   44.0637 H   0  0  0  0  0  0  0  0  0  0  0  0
   59.2129   35.4598   44.7702 H   0  0  0  0  0  0  0  0  0  0  0  0
   59.7850   33.9970   46.1950 C   0  0  0  0  0  0  0  0  0  0  0  0
   58.9180   33.8020   47.2870 C   0  0  0  0  0  0  0  0  0  0  0  0
   57.8330   33.9232   47.1525 H   0  0  0  0  0  0  0  0  0  0  0  0
   59.4290   33.4550   48.5420 C   0  0  0  0  0  0  0  0  0  0  0  0
   58.7472   33.3158   49.3939 H   0  0  0  0  0  0  0  0  0  0  0  0
   60.8060   33.2850   48.7140 C   0  0  0  0  0  0  0  0  0  0  0  0
   61.2970   32.9400   49.9290 F   0  0  0  0  0  0  0  0  0  0  0  0
   61.6730   33.4590   47.6300 C   0  0  0  0  0  0  0  0  0  0  0  0
   62.7549   33.3128   47.7644 H   0  0  0  0  0  0  0  0  0  0  0  0
   61.1690   33.8180   46.3770 C   0  0  0  0  0  0  0  0  0  0  0  0
   61.8563   33.9611   45.5302 H   0  0  0  0  0  0  0  0  0  0  0  0
   58.3140   30.8970   45.3260 N   0  0  0  0  0  0  0  0  0  0  0  0
   57.8730   29.6840   45.7560 C   0  0  0  0  0  0  0  0  0  0  0  0
   58.6340   28.9120   46.7550 C   0  0  0  0  0  0  0  0  0  0  0  0
   58.8830   27.5480   46.5390 C   0  0  0  0  0  0  0  0  0  0  0  0
   58.4522   27.0453   45.6605 H   0  0  0  0  0  0  0  0  0  0  0  0
   59.6760   26.8250   47.4350 C   0  0  0  0  0  0  0  0  0  0  0  0
   59.8596   25.7540   47.2641 H   0  0  0  0  0  0  0  0  0  0  0  0
   60.2360   27.4590   48.5470 C   0  0  0  0  0  0  0  0  0  0  0  0
   60.8665   26.8860   49.2428 H   0  0  0  0  0  0  0  0  0  0  0  0
   59.9990   28.8230   48.7820 C   0  0  0  0  0  0  0  0  0  0  0  0
   60.5910   29.5040   49.9570 C   0  0  0  0  0  0  0  0  0  0  0  0
   60.0930   30.5840   50.3680 O   0  0  0  0  0  0  0  0  0  0  0  0
   61.7560   28.9890   50.6150 N   0  0  0  0  0  0  0  0  0  0  0  0
   62.4360   29.5970   51.5440 C   0  0  0  0  0  0  0  0  0  0  0  0
   62.5801   29.0793   52.5038 H   0  0  0  0  0  0  0  0  0  0  0  0
   63.0370   30.9690   51.3800 C   0  0  0  0  0  0  0  0  0  0  0  0
   63.3097   31.3624   52.3704 H   0  0  0  0  0  0  0  0  0  0  0  0
   62.2940   31.6202   50.8963 H   0  0  0  0  0  0  0  0  0  0  0  0
   64.2430   30.9230   50.5310 N   0  0  0  0  0  0  0  0  0  0  0  0
   64.2560   31.9960   49.5020 C   0  0  0  0  0  0  0  0  0  0  0  0
   63.2402   32.4076   49.4084 H   0  0  0  0  0  0  0  0  0  0  0  0
   64.5995   31.5495   48.5572 H   0  0  0  0  0  0  0  0  0  0  0  0
   65.2180   33.1360   49.8560 C   0  0  0  0  0  0  0  0  0  0  0  0
   64.9070   33.5845   50.8110 H   0  0  0  0  0  0  0  0  0  0  0  0
   65.1860   33.8823   49.0485 H   0  0  0  0  0  0  0  0  0  0  0  0
   66.6080   32.6430   49.9840 N   0  0  0  0  0  0  0  0  0  0  0  0
   67.4240   33.6040   50.7440 C   0  0  0  0  0  0  0  0  0  0  0  0
   67.2807   33.4352   51.8215 H   0  0  0  0  0  0  0  0  0  0  0  0
   68.4852   33.4661   50.4892 H   0  0  0  0  0  0  0  0  0  0  0  0
   67.1159   34.6288   50.4892 H   0  0  0  0  0  0  0  0  0  0  0  0
   66.7080   31.2740   50.5540 C   0  0  0  0  0  0  0  0  0  0  0  0
   67.5869   31.2294   51.2139 H   0  0  0  0  0  0  0  0  0  0  0  0
   66.7971   30.5673   49.7158 H   0  0  0  0  0  0  0  0  0  0  0  0
   65.4630   30.8850   51.3640 C   0  0  0  0  0  0  0  0  0  0  0  0
   65.3466   31.5890   52.2012 H   0  0  0  0  0  0  0  0  0  0  0  0
   65.5978   29.8576   51.7331 H   0  0  0  0  0  0  0  0  0  0  0  0
   59.2070   29.5470   47.8710 C   0  0  0  0  0  0  0  0  0  0  0  0
   59.0345   30.6211   48.0339 H   0  0  0  0  0  0  0  0  0  0  0  0
  1  2  1  0
  2  3  1  0
  3  4  1  0
  4  5  1  0
  5  6  2  0
  6  7  1  0
  7  8  2  0
  7  9  1  0
  9 10  1  0
  9 11  1  0
  9 12  1  0
 12 13  2  0
 13 14  1  0
 13 15  1  0
 15 16  1  0
 15 17  2  0
 17 18  1  0
 17 19  1  0
 19 20  1  0
 19 21  2  0
 21 22  1  0
  5 23  1  0
 23 24  1  0
 24 25  1  0
 25 26  2  0
 26 27  1  0
 26 28  1  0
 28 29  1  0
 28 30  2  0
 30 31  1  0
 30 32  1  0
 32 33  1  0
 33 34  2  0
 33 35  1  0
 35 36  2  3
 36 37  1  0
 36 38  1  0
 38 39  1  0
 38 40  1  0
 38 41  1  0
 41 42  1  0
 42 43  1  0
 42 44  1  0
 42 45  1  0
 45 46  1  0
 45 47  1  0
 45 48  1  0
 48 49  1  0
 49 50  1  0
 49 51  1  0
 49 52  1  0
 48 53  1  0
 53 54  1  0
 53 55  1  0
 53 56  1  0
 56 57  1  0
 56 58  1  0
 32 59  2  0
 59 60  1  0
 24  3  2  0
 59 25  1  0
 21 12  1  0
 56 41  1  0
M  CHG  1  23  -1
M  END
>  <UniqueID>  (77) 
69

>  <SMILES>  (77) 
CN1CCN(CC=NC(=O)c2cccc(-c3[n-]/c(=N\C(=O)Cc4ccc(F)cc4)sc3O)c2)CC1

>  <Energy>  (77) 
119.16825732730328

>  <Genealogy>  (77) 
CN1CCN(CC=NC(=O)c2cccc(-c3[n-]c(=NC(=O)Cc4ccc(F)cc4)sc3O)c2)CC1 (protonated)
CN1CCN(CC=NC(=O)c2cccc(-c3[n-]/c(=N\C(=O)Cc4ccc(F)cc4)sc3O)c2)CC1 (cis-trans isomerization)
CN1CCN(CC=NC(=O)c2cccc(-c3[n-]/c(=N\C(=O)Cc4ccc(F)cc4)sc3O)c2)CC1 (3D coordinates assigned)
CN1CCN(CC=NC(=O)c2cccc(-c3[n-]/c(=N\C(=O)Cc4ccc(F)cc4)sc3O)c2)CC1 (nonaromatic ring conformer: 119.16825732730328 kcal/mol)

>  <smiles>  (77) 
CN1CCN(CC=NC(=O)c2cccc(-c3[nH]c(=NC(=O)Cc4ccc(F)cc4)sc3O)c2)CC1

>  <score_type>  (77) 
oracle

>  <origin>  (77) 
adg

>  <m_score__min__energy>  (77) 
-11.42

>  <m_primary>  (77) 
energy

$$$$
77:0
     RDKit          3D

 59 62  0  0  0  0  0  0  0  0999 V2000
   63.2789   34.7864   46.8138 H   0  0  0  0  0  0  0  0  0  0  0  0
   62.6630   33.8760   46.7720 C   0  0  0  0  0  0  0  0  0  0  0  0
   61.6100   33.8920   46.0020 N   0  0  0  0  0  0  0  0  0  0  0  0
   60.2510   34.0060   46.4400 C   0  0  0  0  0  0  0  0  0  0  0  0
   59.9190   34.9430   47.2170 O   0  0  0  0  0  0  0  0  0  0  0  0
   59.2490   33.0190   46.0020 C   0  0  0  0  0  0  0  0  0  0  0  0
   59.5680   31.6540   45.9820 C   0  0  0  0  0  0  0  0  0  0  0  0
   60.5440   31.3157   46.3602 H   0  0  0  0  0  0  0  0  0  0  0  0
   58.6550   30.7200   45.4850 C   0  0  0  0  0  0  0  0  0  0  0  0
   58.9262   29.6544   45.4539 H   0  0  0  0  0  0  0  0  0  0  0  0
   57.3940   31.1320   45.0250 C   0  0  0  0  0  0  0  0  0  0  0  0
   56.4500   30.1510   44.4430 C   0  0  0  0  0  0  0  0  0  0  0  0
   56.0290   30.2980   43.2640 O   0  0  0  0  0  0  0  0  0  0  0  0
   56.0470   29.0090   45.2040 N   0  0  0  0  0  0  0  0  0  0  0  0
   56.9900   28.1270   45.8750 C   0  0  0  0  0  0  0  0  0  0  0  0
   58.0100   28.3455   45.5258 H   0  0  0  0  0  0  0  0  0  0  0  0
   56.9349   28.2868   46.9619 H   0  0  0  0  0  0  0  0  0  0  0  0
   56.6470   26.7040   45.5590 C   0  0  0  0  0  0  0  0  0  0  0  0
   55.5320   26.1380   46.1030 N   0  0  0  0  0  0  0  0  0  0  0  0
   55.1940   24.8430   45.8580 C   0  0  0  0  0  0  0  0  0  0  0  0
   54.2849   24.4177   46.3081 H   0  0  0  0  0  0  0  0  0  0  0  0
   56.0020   24.0520   45.0340 C   0  0  0  0  0  0  0  0  0  0  0  0
   55.7320   23.0052   44.8308 H   0  0  0  0  0  0  0  0  0  0  0  0
   57.1550   24.6050   44.4720 C   0  0  0  0  0  0  0  0  0  0  0  0
   57.8020   23.9930   43.8264 H   0  0  0  0  0  0  0  0  0  0  0  0
   57.4840   25.9370   44.7320 C   0  0  0  0  0  0  0  0  0  0  0  0
   58.3898   26.3812   44.2934 H   0  0  0  0  0  0  0  0  0  0  0  0
   57.0600   32.4960   45.0880 C   0  0  0  0  0  0  0  0  0  0  0  0
   56.0609   32.8286   44.7698 H   0  0  0  0  0  0  0  0  0  0  0  0
   57.9880   33.4330   45.5520 C   0  0  0  0  0  0  0  0  0  0  0  0
   57.7269   34.5015   45.5639 H   0  0  0  0  0  0  0  0  0  0  0  0
   63.0880   32.7210   47.5930 C   0  0  0  0  0  0  0  0  0  0  0  0
   63.1220   31.5780   47.0610 O   0  0  0  0  0  0  0  0  0  0  0  0
   63.4430   32.8800   48.9380 O   0  0  0  0  0  0  0  0  0  0  0  0
   62.5430   33.3200   49.9500 C   0  0  0  0  0  0  0  0  0  0  0  0
   62.9827   33.1153   50.9373 H   0  0  0  0  0  0  0  0  0  0  0  0
   62.3708   34.3990   49.8234 H   0  0  0  0  0  0  0  0  0  0  0  0
   61.2230   32.6050   49.8400 C   0  0  0  0  0  0  0  0  0  0  0  0
   60.0300   33.3380   49.7460 C   0  0  0  0  0  0  0  0  0  0  0  0
   60.0564   34.4363   49.8009 H   0  0  0  0  0  0  0  0  0  0  0  0
   58.8090   32.6790   49.5830 C   0  0  0  0  0  0  0  0  0  0  0  0
   57.8771   33.2590   49.5105 H   0  0  0  0  0  0  0  0  0  0  0  0
   58.7700   31.2840   49.5120 C   0  0  0  0  0  0  0  0  0  0  0  0
   57.8073   30.7700   49.3743 H   0  0  0  0  0  0  0  0  0  0  0  0
   59.9480   30.5380   49.6150 C   0  0  0  0  0  0  0  0  0  0  0  0
   59.8700   29.1410   49.5310 O   0  0  0  0  0  0  0  0  0  0  0  0
   60.0460   28.3860   48.3610 C   0  0  0  0  0  0  0  0  0  0  0  0
   59.6680   27.0300   48.2750 C   0  0  0  0  0  0  0  0  0  0  0  0
   59.2626   26.5166   49.1593 H   0  0  0  0  0  0  0  0  0  0  0  0
   59.8070   26.3370   47.0700 C   0  0  0  0  0  0  0  0  0  0  0  0
   59.5180   25.2774   47.0089 H   0  0  0  0  0  0  0  0  0  0  0  0
   60.3130   26.9890   45.9420 C   0  0  0  0  0  0  0  0  0  0  0  0
   60.4134   26.4444   44.9916 H   0  0  0  0  0  0  0  0  0  0  0  0
   60.6910   28.3300   46.0200 C   0  0  0  0  0  0  0  0  0  0  0  0
   61.0942   28.8397   45.1325 H   0  0  0  0  0  0  0  0  0  0  0  0
   60.5580   29.0260   47.2240 C   0  0  0  0  0  0  0  0  0  0  0  0
   60.8570   30.0831   47.2800 H   0  0  0  0  0  0  0  0  0  0  0  0
   61.1780   31.2030   49.7530 C   0  0  0  0  0  0  0  0  0  0  0  0
   62.1116   30.6227   49.7932 H   0  0  0  0  0  0  0  0  0  0  0  0
  1  2  1  0
  2  3  2  0
  3  4  1  0
  4  5  2  0
  4  6  1  0
  6  7  2  0
  7  8  1  0
  7  9  1  0
  9 10  1  0
  9 11  2  0
 11 12  1  0
 12 13  2  0
 12 14  1  0
 14 15  1  0
 15 16  1  0
 15 17  1  0
 15 18  1  0
 18 19  2  0
 19 20  1  0
 20 21  1  0
 20 22  2  0
 22 23  1  0
 22 24  1  0
 24 25  1  0
 24 26  2  0
 26 27  1  0
 11 28  1  0
 28 29  1  0
 28 30  2  0
 30 31  1  0
  2 32  1  0
 32 33  2  0
 32 34  1  0
 34 35  1  0
 35 36  1  0
 35 37  1  0
 35 38  1  0
 38 39  2  0
 39 40  1  0
 39 41  1  0
 41 42  1  0
 41 43  2  0
 43 44  1  0
 43 45  1  0
 45 46  1  0
 46 47  1  0
 47 48  2  0
 48 49  1  0
 48 50  1  0
 50 51  1  0
 50 52  2  0
 52 53  1  0
 52 54  1  0
 54 55  1  0
 54 56  2  0
 56 57  1  0
 45 58  2  0
 58 59  1  0
 30  6  1  0
 58 38  1  0
 26 18  1  0
 56 47  1  0
M  CHG  1  14  -1
M  END
>  <UniqueID>  (78) 
70

>  <SMILES>  (78) 
O=C(/C=N\C(=O)c1ccc(C(=O)[N-]Cc2ccccn2)cc1)OCc1cccc(Oc2ccccc2)c1

>  <Energy>  (78) 
71.02573529542802

>  <Genealogy>  (78) 
O=C(C=NC(=O)c1ccc(C(=O)[N-]Cc2ccccn2)cc1)OCc1cccc(Oc2ccccc2)c1 (protonated)
O=C(/C=N\C(=O)c1ccc(C(=O)[N-]Cc2ccccn2)cc1)OCc1cccc(Oc2ccccc2)c1 (cis-trans isomerization)
O=C(/C=N\C(=O)c1ccc(C(=O)[N-]Cc2ccccn2)cc1)OCc1cccc(Oc2ccccc2)c1 (3D coordinates assigned)
O=C(/C=N\C(=O)c1ccc(C(=O)[N-]Cc2ccccn2)cc1)OCc1cccc(Oc2ccccc2)c1 (optimized conformer: 71.02573529542802 kcal/mol)

>  <smiles>  (78) 
O=C(C=NC(=O)c1ccc(C(=O)NCc2ccccn2)cc1)OCc1cccc(Oc2ccccc2)c1

>  <score_type>  (78) 
oracle

>  <origin>  (78) 
adg

>  <m_score__min__energy>  (78) 
-10.76

>  <m_primary>  (78) 
energy

$$$$
78:0
     RDKit          3D

 63 66  0  0  0  0  0  0  0  0999 V2000
   63.3790   34.2410   46.2670 C   0  0  0  0  0  0  0  0  0  0  0  0
   62.5650   33.1330   46.8670 C   0  0  0  0  0  0  0  0  0  0  0  0
   63.1970   32.0940   47.5550 C   0  0  0  0  0  0  0  0  0  0  0  0
   62.4330   31.0570   48.0820 C   0  0  0  0  0  0  0  0  0  0  0  0
   61.0450   31.0420   47.9090 C   0  0  0  0  0  0  0  0  0  0  0  0
   60.2820   29.9060   48.4600 C   0  0  0  0  0  0  0  0  0  0  0  0
   60.1340   29.8360   49.7110 O   0  0  0  0  0  0  0  0  0  0  0  0
   59.7450   28.8660   47.6090 N   0  0  0  0  0  0  0  0  0  0  0  0
   58.8660   27.8400   48.1870 C   0  0  0  0  0  0  0  0  0  0  0  0
   57.8190   27.3880   47.1630 C   0  0  0  0  0  0  0  0  0  0  0  0
   58.4780   26.9400   45.8440 C   0  0  0  0  0  0  0  0  0  0  0  0
   57.4080   26.4510   44.9210 N   0  0  0  0  0  0  0  0  0  0  0  0
   57.7530   25.4530   43.8800 C   0  0  0  0  0  0  0  0  0  0  0  0
   57.8010   23.9960   44.3930 C   0  0  0  0  0  0  0  0  0  0  0  0
   57.5260   23.8670   45.8930 C   0  0  0  0  0  0  0  0  0  0  0  0
   56.2930   24.6720   46.3240 C   0  0  0  0  0  0  0  0  0  0  0  0
   56.1750   26.0500   45.6320 C   0  0  0  0  0  0  0  0  0  0  0  0
   59.3200   28.1170   45.2950 C   0  0  0  0  0  0  0  0  0  0  0  0
   60.3730   28.5640   46.3130 C   0  0  0  0  0  0  0  0  0  0  0  0
   60.4320   32.1060   47.2050 C   0  0  0  0  0  0  0  0  0  0  0  0
   58.9270   32.2170   47.0760 C   0  0  0  0  0  0  0  0  0  0  0  0
   58.5160   32.1200   45.6620 N   0  0  0  0  0  0  0  0  0  0  0  0
   58.8960   33.1120   44.8060 C   0  0  0  0  0  0  0  0  0  0  0  0
   58.5060   33.0840   43.4740 C   0  0  0  0  0  0  0  0  0  0  0  0
   57.7390   32.0190   43.0210 C   0  0  0  0  0  0  0  0  0  0  0  0
   57.3640   32.0060   41.8160 O   0  0  0  0  0  0  0  0  0  0  0  0
   57.3990   31.0010   43.8750 N   0  0  0  0  0  0  0  0  0  0  0  0
   56.5700   29.8810   43.3970 C   0  0  0  0  0  0  0  0  0  0  0  0
   57.7730   31.0620   45.1950 C   0  0  0  0  0  0  0  0  0  0  0  0
   57.4330   30.1350   45.9830 O   0  0  0  0  0  0  0  0  0  0  0  0
   61.2110   33.1110   46.6990 N   0  0  0  0  0  0  0  0  0  0  0  0
   63.8236   34.8461   47.0709 H   0  0  0  0  0  0  0  0  0  0  0  0
   64.1790   33.8129   45.6451 H   0  0  0  0  0  0  0  0  0  0  0  0
   62.7314   34.8764   45.6451 H   0  0  0  0  0  0  0  0  0  0  0  0
   64.2900   32.0957   47.6791 H   0  0  0  0  0  0  0  0  0  0  0  0
   62.9235   30.2443   48.6379 H   0  0  0  0  0  0  0  0  0  0  0  0
   59.4722   26.9738   48.4907 H   0  0  0  0  0  0  0  0  0  0  0  0
   58.3485   28.2665   49.0589 H   0  0  0  0  0  0  0  0  0  0  0  0
   57.2490   26.5458   47.5822 H   0  0  0  0  0  0  0  0  0  0  0  0
   57.1566   28.2392   46.9469 H   0  0  0  0  0  0  0  0  0  0  0  0
   59.1740   26.0989   45.9788 H   0  0  0  0  0  0  0  0  0  0  0  0
   56.9995   25.5131   43.0808 H   0  0  0  0  0  0  0  0  0  0  0  0
   58.7660   25.6988   43.5287 H   0  0  0  0  0  0  0  0  0  0  0  0
   57.0453   23.4104   43.8490 H   0  0  0  0  0  0  0  0  0  0  0  0
   58.8218   23.6252   44.2184 H   0  0  0  0  0  0  0  0  0  0  0  0
   57.3593   22.8066   46.1333 H   0  0  0  0  0  0  0  0  0  0  0  0
   58.3973   24.2659   46.4331 H   0  0  0  0  0  0  0  0  0  0  0  0
   55.3942   24.0851   46.0839 H   0  0  0  0  0  0  0  0  0  0  0  0
   56.3953   24.8625   47.4025 H   0  0  0  0  0  0  0  0  0  0  0  0
   55.3504   26.0070   44.9053 H   0  0  0  0  0  0  0  0  0  0  0  0
   55.9931   26.7970   46.4187 H   0  0  0  0  0  0  0  0  0  0  0  0
   59.8257   27.7970   44.3720 H   0  0  0  0  0  0  0  0  0  0  0  0
   58.6472   28.9637   45.0938 H   0  0  0  0  0  0  0  0  0  0  0  0
   61.1105   27.7590   46.4475 H   0  0  0  0  0  0  0  0  0  0  0  0
   60.8660   29.4728   45.9375 H   0  0  0  0  0  0  0  0  0  0  0  0
   58.4548   31.4032   47.6459 H   0  0  0  0  0  0  0  0  0  0  0  0
   58.6094   33.1935   47.4704 H   0  0  0  0  0  0  0  0  0  0  0  0
   59.5171   33.9416   45.1747 H   0  0  0  0  0  0  0  0  0  0  0  0
   58.7999   33.8925   42.7885 H   0  0  0  0  0  0  0  0  0  0  0  0
   56.1635   29.3318   44.2590 H   0  0  0  0  0  0  0  0  0  0  0  0
   55.7419   30.2718   42.7875 H   0  0  0  0  0  0  0  0  0  0  0  0
   57.1857   29.2031   42.7875 H   0  0  0  0  0  0  0  0  0  0  0  0
   60.7580   33.8930   46.1750 H   0  0  0  0  0  0  0  0  0  0  0  0
  1  2  1  0
  2  3  2  0
  3  4  1  0
  4  5  2  0
  5  6  1  0
  6  7  2  0
  6  8  1  0
  8  9  1  0
  9 10  1  0
 10 11  1  0
 11 12  1  0
 12 13  1  0
 13 14  1  0
 14 15  1  0
 15 16  1  0
 16 17  1  0
 11 18  1  0
 18 19  1  0
  5 20  1  0
 20 21  1  0
 21 22  1  0
 22 23  1  0
 23 24  2  0
 24 25  1  0
 25 26  2  0
 25 27  1  0
 27 28  1  0
 27 29  1  0
 29 30  2  0
 20 31  2  0
 31  2  1  0
 19  8  1  0
 29 22  1  0
 17 12  1  0
  1 32  1  0
  1 33  1  0
  1 34  1  0
  3 35  1  0
  4 36  1  0
  9 37  1  0
  9 38  1  0
 10 39  1  0
 10 40  1  0
 11 41  1  0
 13 42  1  0
 13 43  1  0
 14 44  1  0
 14 45  1  0
 15 46  1  0
 15 47  1  0
 16 48  1  0
 16 49  1  0
 17 50  1  0
 17 51  1  0
 18 52  1  0
 18 53  1  0
 19 54  1  0
 19 55  1  0
 21 56  1  0
 21 57  1  0
 23 58  1  0
 24 59  1  0
 28 60  1  0
 28 61  1  0
 28 62  1  0
 31 63  1  0
M  CHG  1  31   1
M  END
>  <UniqueID>  (79) 
71

>  <SMILES>  (79) 
Cc1ccc(C(=O)N2CCC(N3CCCCC3)CC2)c(Cn2ccc(=O)n(C)c2=O)[nH+]1

>  <Energy>  (79) 
90.2061870409021

>  <Genealogy>  (79) 
Cc1ccc(C(=O)N2CCC(N3CCCCC3)CC2)c(Cn2ccc(=O)n(C)c2=O)[nH+]1 (protonated)
Cc1ccc(C(=O)N2CCC(N3CCCCC3)CC2)c(Cn2ccc(=O)n(C)c2=O)[nH+]1 (3D coordinates assigned)
Cc1ccc(C(=O)N2CCC(N3CCCCC3)CC2)c(Cn2ccc(=O)n(C)c2=O)[nH+]1 (nonaromatic ring conformer: 90.2061870409021 kcal/mol)

>  <smiles>  (79) 
Cc1ccc(C(=O)N2CCC(N3CCCCC3)CC2)c(Cn2ccc(=O)n(C)c2=O)n1

>  <score_type>  (79) 
oracle

>  <origin>  (79) 
adg

>  <m_score__min__energy>  (79) 
-7.5700000000000003

>  <m_primary>  (79) 
energy

$$$$
79:0
     RDKit          3D

 28 31  0  0  0  0  0  0  0  0999 V2000
   55.5230   25.4260   45.9550 O   0  0  0  0  0  0  0  0  0  0  0  0
   56.2900   26.4050   46.0820 C   0  0  0  0  0  0  0  0  0  0  0  0
   56.0600   27.6980   45.5900 N   0  0  0  0  0  0  0  0  0  0  0  0
   56.9600   28.7980   45.7510 C   0  0  0  0  0  0  0  0  0  0  0  0
   56.5720   29.8610   45.2530 O   0  0  0  0  0  0  0  0  0  0  0  0
   58.2540   28.6330   46.4790 C   0  0  0  0  0  0  0  0  0  0  0  0
   58.4170   27.3450   46.9390 C   0  0  0  0  0  0  0  0  0  0  0  0
   59.9920   27.3320   47.8560 S   0  0  0  0  0  0  0  0  0  0  0  0
   60.2890   29.0750   47.5330 C   0  0  0  0  0  0  0  0  0  0  0  0
   61.1910   30.0120   47.8090 N   0  0  0  0  0  0  0  0  0  0  0  0
   60.7790   31.1060   47.2620 N   0  0  0  0  0  0  0  0  0  0  0  0
   59.5710   30.8890   46.6030 C   0  0  0  0  0  0  0  0  0  0  0  0
   58.9590   32.0010   45.9420 C   0  0  0  0  0  0  0  0  0  0  0  0
   58.4850   31.7730   44.6250 C   0  0  0  0  0  0  0  0  0  0  0  0
   57.7740   32.7360   43.9430 C   0  0  0  0  0  0  0  0  0  0  0  0
   57.4980   33.9440   44.5060 C   0  0  0  0  0  0  0  0  0  0  0  0
   57.9390   34.2040   45.7820 C   0  0  0  0  0  0  0  0  0  0  0  0
   58.6440   33.2290   46.4390 C   0  0  0  0  0  0  0  0  0  0  0  0
   59.2270   29.5380   46.7820 C   0  0  0  0  0  0  0  0  0  0  0  0
   57.5610   26.2220   46.8070 C   0  0  0  0  0  0  0  0  0  0  0  0
   57.8230   25.1030   47.2670 O   0  0  0  0  0  0  0  0  0  0  0  0
   55.1480   27.8460   45.0650 H   0  0  0  0  0  0  0  0  0  0  0  0
   61.2930   32.0160   47.3170 H   0  0  0  0  0  0  0  0  0  0  0  0
   58.6891   30.8079   44.1382 H   0  0  0  0  0  0  0  0  0  0  0  0
   57.4222   32.5242   42.9225 H   0  0  0  0  0  0  0  0  0  0  0  0
   56.9296   34.7023   43.9475 H   0  0  0  0  0  0  0  0  0  0  0  0
   57.7312   35.1707   46.2639 H   0  0  0  0  0  0  0  0  0  0  0  0
   58.9858   33.4592   47.4589 H   0  0  0  0  0  0  0  0  0  0  0  0
  1  2  2  0
  2  3  1  0
  3  4  1  0
  4  5  2  0
  4  6  1  0
  6  7  2  0
  7  8  1  0
  8  9  1  0
  9 10  2  0
 10 11  1  0
 11 12  1  0
 12 13  1  0
 13 14  2  0
 14 15  1  0
 15 16  2  0
 16 17  1  0
 17 18  2  0
 12 19  2  0
  7 20  1  0
 20 21  2  0
 20  2  1  0
 19  6  1  0
 19  9  1  0
 18 13  1  0
  3 22  1  0
 11 23  1  0
 14 24  1  0
 15 25  1  0
 16 26  1  0
 17 27  1  0
 18 28  1  0
M  END
>  <smiles>  (80) 
O=C1NC(=O)c2c(sc3n[nH]c(-c4ccccc4)c23)C1=O

>  <score_type>  (80) 
oracle

>  <origin>  (80) 
adg

>  <m_score__min__energy>  (80) 
-7.96

>  <m_primary>  (80) 
energy

$$$$
80:0
     RDKit          3D

 54 56  0  0  0  0  0  0  0  0999 V2000
   58.5680   33.0730   42.2200 O   0  0  0  0  0  0  0  0  0  0  0  0
   57.7880   32.4300   42.9730 C   0  0  0  0  0  0  0  0  0  0  0  0
   56.8940   31.3870   42.3740 C   0  0  0  0  0  0  0  0  0  0  0  0
   57.2080   30.0740   42.9330 N   0  0  0  0  0  0  0  0  0  0  0  0
   56.7530   29.6630   44.2320 C   0  0  0  0  0  0  0  0  0  0  0  0
   55.9460   30.3950   44.8680 O   0  0  0  0  0  0  0  0  0  0  0  0
   57.2000   28.3830   44.8350 C   0  0  0  0  0  0  0  0  0  0  0  0
   58.5210   27.9240   44.6740 C   0  0  0  0  0  0  0  0  0  0  0  0
   58.9310   26.7240   45.2600 C   0  0  0  0  0  0  0  0  0  0  0  0
   58.0330   25.9650   46.0260 C   0  0  0  0  0  0  0  0  0  0  0  0
   58.4900   24.7020   46.7050 C   0  0  0  0  0  0  0  0  0  0  0  0
   59.6140   23.7430   45.6260 S   0  0  0  0  0  0  0  0  0  0  0  0
   58.3180   23.1270   44.5480 C   0  0  0  0  0  0  0  0  0  0  0  0
   57.4490   24.0240   43.9110 C   0  0  0  0  0  0  0  0  0  0  0  0
   56.4280   23.5440   43.0860 C   0  0  0  0  0  0  0  0  0  0  0  0
   56.2770   22.1680   42.8870 C   0  0  0  0  0  0  0  0  0  0  0  0
   57.1510   21.2710   43.5110 C   0  0  0  0  0  0  0  0  0  0  0  0
   58.1710   21.7500   44.3400 C   0  0  0  0  0  0  0  0  0  0  0  0
   56.7200   26.4240   46.2000 C   0  0  0  0  0  0  0  0  0  0  0  0
   56.3070   27.6220   45.6110 C   0  0  0  0  0  0  0  0  0  0  0  0
   57.7260   32.7140   44.3810 N   0  0  0  0  0  0  0  0  0  0  0  0
   58.5470   33.6900   45.0410 C   0  0  0  0  0  0  0  0  0  0  0  0
   59.4240   34.3290   44.3980 O   0  0  0  0  0  0  0  0  0  0  0  0
   58.3670   33.9340   46.4420 N   0  0  0  0  0  0  0  0  0  0  0  0
   59.2190   34.8510   47.1970 C   0  0  0  0  0  0  0  0  0  0  0  0
   60.4830   34.1530   47.6200 C   0  0  0  0  0  0  0  0  0  0  0  0
   60.8000   34.0420   48.9840 C   0  0  0  0  0  0  0  0  0  0  0  0
   61.9590   33.3710   49.3850 C   0  0  0  0  0  0  0  0  0  0  0  0
   62.8050   32.8010   48.4290 C   0  0  0  0  0  0  0  0  0  0  0  0
   62.4930   32.9030   47.0710 C   0  0  0  0  0  0  0  0  0  0  0  0
   61.3350   33.5740   46.6660 C   0  0  0  0  0  0  0  0  0  0  0  0
   55.8457   31.6355   42.5960 H   0  0  0  0  0  0  0  0  0  0  0  0
   57.0506   31.3612   41.2855 H   0  0  0  0  0  0  0  0  0  0  0  0
   57.7370   29.4060   42.3290 H   0  0  0  0  0  0  0  0  0  0  0  0
   59.2358   28.5147   44.0823 H   0  0  0  0  0  0  0  0  0  0  0  0
   59.9637   26.3720   45.1202 H   0  0  0  0  0  0  0  0  0  0  0  0
   59.0198   24.9644   47.6326 H   0  0  0  0  0  0  0  0  0  0  0  0
   57.6066   24.0848   46.9254 H   0  0  0  0  0  0  0  0  0  0  0  0
   57.5709   25.1069   44.0607 H   0  0  0  0  0  0  0  0  0  0  0  0
   55.7427   24.2491   42.5928 H   0  0  0  0  0  0  0  0  0  0  0  0
   55.4713   21.7909   42.2400 H   0  0  0  0  0  0  0  0  0  0  0  0
   57.0360   20.1890   43.3497 H   0  0  0  0  0  0  0  0  0  0  0  0
   58.8584   21.0441   44.8291 H   0  0  0  0  0  0  0  0  0  0  0  0
   56.0110   25.8381   46.8034 H   0  0  0  0  0  0  0  0  0  0  0  0
   55.2746   27.9730   45.7554 H   0  0  0  0  0  0  0  0  0  0  0  0
   57.0420   32.1810   44.9630 H   0  0  0  0  0  0  0  0  0  0  0  0
   57.6010   33.4370   46.9500 H   0  0  0  0  0  0  0  0  0  0  0  0
   59.4742   35.7142   46.5648 H   0  0  0  0  0  0  0  0  0  0  0  0
   58.6780   35.1899   48.0928 H   0  0  0  0  0  0  0  0  0  0  0  0
   60.1339   34.4846   49.7392 H   0  0  0  0  0  0  0  0  0  0  0  0
   62.2056   33.2914   50.4540 H   0  0  0  0  0  0  0  0  0  0  0  0
   63.7161   32.2723   48.7459 H   0  0  0  0  0  0  0  0  0  0  0  0
   63.1593   32.4548   46.3193 H   0  0  0  0  0  0  0  0  0  0  0  0
   61.0907   33.6485   45.5961 H   0  0  0  0  0  0  0  0  0  0  0  0
  1  2  2  0
  2  3  1  0
  3  4  1  0
  4  5  1  0
  5  6  2  0
  5  7  1  0
  7  8  2  0
  8  9  1  0
  9 10  2  0
 10 11  1  0
 11 12  1  0
 12 13  1  0
 13 14  2  0
 14 15  1  0
 15 16  2  0
 16 17  1  0
 17 18  2  0
 10 19  1  0
 19 20  2  0
  2 21  1  0
 21 22  1  0
 22 23  2  0
 22 24  1  0
 24 25  1  0
 25 26  1  0
 26 27  2  0
 27 28  1  0
 28 29  2  0
 29 30  1  0
 30 31  2  0
 20  7  1  0
 31 26  1  0
 18 13  1  0
  3 32  1  0
  3 33  1  0
  4 34  1  0
  8 35  1  0
  9 36  1  0
 11 37  1  0
 11 38  1  0
 14 39  1  0
 15 40  1  0
 16 41  1  0
 17 42  1  0
 18 43  1  0
 19 44  1  0
 20 45  1  0
 21 46  1  0
 24 47  1  0
 25 48  1  0
 25 49  1  0
 27 50  1  0
 28 51  1  0
 29 52  1  0
 30 53  1  0
 31 54  1  0
M  END
>  <UniqueID>  (81) 
72

>  <SMILES>  (81) 
O=C(CNC(=O)c1ccc(CSc2ccccc2)cc1)NC(=O)NCc1ccccc1

>  <Energy>  (81) 
47.52983180821439

>  <Genealogy>  (81) 
O=C(CNC(=O)c1ccc(CSc2ccccc2)cc1)NC(=O)NCc1ccccc1 (3D coordinates assigned)
O=C(CNC(=O)c1ccc(CSc2ccccc2)cc1)NC(=O)NCc1ccccc1 (optimized conformer: 47.52983180821439 kcal/mol)

>  <smiles>  (81) 
O=C(CNC(=O)c1ccc(CSc2ccccc2)cc1)NC(=O)NCc1ccccc1

>  <score_type>  (81) 
oracle

>  <origin>  (81) 
adg

>  <m_score__min__energy>  (81) 
-9.2400000000000002

>  <m_primary>  (81) 
energy

$$$$
81:0
     RDKit          3D

 37 39  0  0  0  0  0  0  0  0999 V2000
   55.7680   22.2050   44.2170 O   0  0  0  0  0  0  0  0  0  0  0  0
   56.0020   23.3680   44.6340 C   0  0  0  0  0  0  0  0  0  0  0  0
   54.9690   24.1880   45.1610 N   0  0  0  0  0  0  0  0  0  0  0  0
   55.5210   25.4110   45.6120 C   0  0  0  0  0  0  0  0  0  0  0  0
   54.7890   26.3420   46.0410 O   0  0  0  0  0  0  0  0  0  0  0  0
   56.9790   25.5010   45.4630 C   0  0  0  0  0  0  0  0  0  0  0  0
   57.7740   26.5040   45.8640 C   0  0  0  0  0  0  0  0  0  0  0  0
   57.8360   27.8360   45.2350 C   0  0  0  0  0  0  0  0  0  0  0  0
   59.0590   28.3130   44.7520 C   0  0  0  0  0  0  0  0  0  0  0  0
   59.1520   29.5940   44.2080 C   0  0  0  0  0  0  0  0  0  0  0  0
   58.0300   30.4400   44.1760 C   0  0  0  0  0  0  0  0  0  0  0  0
   58.1510   31.8050   43.6180 C   0  0  0  0  0  0  0  0  0  0  0  0
   58.4510   32.9010   44.3360 C   0  0  0  0  0  0  0  0  0  0  0  0
   58.1890   33.0710   45.7840 C   0  0  0  0  0  0  0  0  0  0  0  0
   57.0180   32.8650   46.2030 O   0  0  0  0  0  0  0  0  0  0  0  0
   59.2470   33.4330   46.7580 C   0  0  0  0  0  0  0  0  0  0  0  0
   58.9120   34.1180   47.9370 C   0  0  0  0  0  0  0  0  0  0  0  0
   59.9100   34.5050   48.8370 C   0  0  0  0  0  0  0  0  0  0  0  0
   61.2490   34.2050   48.5720 C   0  0  0  0  0  0  0  0  0  0  0  0
   61.5910   33.5040   47.4120 C   0  0  0  0  0  0  0  0  0  0  0  0
   63.4210   33.1030   47.0430 Br  0  0  0  0  0  0  0  0  0  0  0  0
   60.5940   33.1070   46.5150 C   0  0  0  0  0  0  0  0  0  0  0  0
   56.7960   29.9670   44.6720 C   0  0  0  0  0  0  0  0  0  0  0  0
   55.6470   30.7630   44.6760 O   0  0  0  0  0  0  0  0  0  0  0  0
   56.7110   28.6760   45.2070 C   0  0  0  0  0  0  0  0  0  0  0  0
   57.6520   24.0750   44.6020 S   0  0  0  0  0  0  0  0  0  0  0  0
   58.4295   26.3188   46.7277 H   0  0  0  0  0  0  0  0  0  0  0  0
   59.9530   27.6739   44.8015 H   0  0  0  0  0  0  0  0  0  0  0  0
   60.1115   29.9451   43.8006 H   0  0  0  0  0  0  0  0  0  0  0  0
   57.9835   31.9320   42.5383 H   0  0  0  0  0  0  0  0  0  0  0  0
   58.9290   33.7382   43.8062 H   0  0  0  0  0  0  0  0  0  0  0  0
   57.8592   34.3514   48.1539 H   0  0  0  0  0  0  0  0  0  0  0  0
   59.6405   35.0468   49.7556 H   0  0  0  0  0  0  0  0  0  0  0  0
   62.0333   34.5203   49.2758 H   0  0  0  0  0  0  0  0  0  0  0  0
   60.8646   32.5365   45.6142 H   0  0  0  0  0  0  0  0  0  0  0  0
   55.5610   31.6010   45.2360 H   0  0  0  0  0  0  0  0  0  0  0  0
   55.7528   28.3158   45.6097 H   0  0  0  0  0  0  0  0  0  0  0  0
  1  2  2  0
  2  3  1  0
  3  4  1  0
  4  5  2  0
  4  6  1  0
  6  7  2  3
  7  8  1  0
  8  9  2  0
  9 10  1  0
 10 11  2  0
 11 12  1  0
 12 13  2  3
 13 14  1  0
 14 15  2  0
 14 16  1  0
 16 17  2  0
 17 18  1  0
 18 19  2  0
 19 20  1  0
 20 21  1  0
 20 22  2  0
 11 23  1  0
 23 24  1  0
 23 25  2  0
  6 26  1  0
 26  2  1  0
 25  8  1  0
 22 16  1  0
  7 27  1  0
  9 28  1  0
 10 29  1  0
 12 30  1  0
 13 31  1  0
 17 32  1  0
 18 33  1  0
 19 34  1  0
 22 35  1  0
 24 36  1  0
 25 37  1  0
M  CHG  1   3  -1
M  END
>  <UniqueID>  (82) 
73

>  <SMILES>  (82) 
O=C1[N-]C(=O)C(=Cc2ccc(C=CC(=O)c3cccc(Br)c3)c(O)c2)S1

>  <Energy>  (82) 
76.31841090386226

>  <Genealogy>  (82) 
O=C1[N-]C(=O)C(=Cc2ccc(C=CC(=O)c3cccc(Br)c3)c(O)c2)S1 (protonated)
O=C1[N-]C(=O)C(=Cc2ccc(C=CC(=O)c3cccc(Br)c3)c(O)c2)S1 (3D coordinates assigned)
O=C1[N-]C(=O)C(=Cc2ccc(C=CC(=O)c3cccc(Br)c3)c(O)c2)S1 (nonaromatic ring conformer: 76.31841090386226 kcal/mol)

>  <smiles>  (82) 
O=C1NC(=O)C(=Cc2ccc(C=CC(=O)c3cccc(Br)c3)c(O)c2)S1

>  <score_type>  (82) 
oracle

>  <origin>  (82) 
adg

>  <m_score__min__energy>  (82) 
-12.26

>  <m_primary>  (82) 
energy

$$$$
82:0
     RDKit          3D

 73 77  0  0  0  0  0  0  0  0999 V2000
   53.1890   25.9780   46.0010 H   0  0  0  0  0  0  0  0  0  0  0  0
   54.1730   25.9640   45.6490 N   0  0  0  0  0  0  0  0  0  0  0  0
   54.9180   24.7460   45.6180 C   0  0  0  0  0  0  0  0  0  0  0  0
   54.3040   23.6530   45.4710 O   0  0  0  0  0  0  0  0  0  0  0  0
   56.3940   24.7590   45.7510 C   0  0  0  0  0  0  0  0  0  0  0  0
   57.1650   23.6970   45.2430 C   0  0  0  0  0  0  0  0  0  0  0  0
   56.6698   22.8529   44.7408 H   0  0  0  0  0  0  0  0  0  0  0  0
   58.5550   23.7090   45.3730 C   0  0  0  0  0  0  0  0  0  0  0  0
   59.1488   22.8699   44.9815 H   0  0  0  0  0  0  0  0  0  0  0  0
   59.1940   24.7800   45.9970 C   0  0  0  0  0  0  0  0  0  0  0  0
   60.2896   24.7807   46.0956 H   0  0  0  0  0  0  0  0  0  0  0  0
   58.4490   25.8550   46.4990 C   0  0  0  0  0  0  0  0  0  0  0  0
   59.1420   26.9740   47.1820 C   0  0  0  0  0  0  0  0  0  0  0  0
   59.9700   26.8360   48.2820 C   0  0  0  0  0  0  0  0  0  0  0  0
   60.2665   25.9089   48.7944 H   0  0  0  0  0  0  0  0  0  0  0  0
   60.3370   28.1280   48.5870 C   0  0  0  0  0  0  0  0  0  0  0  0
   61.1240   28.4460   49.5710 N   0  0  0  0  0  0  0  0  0  0  0  0
   60.8470   29.3410   50.6600 C   0  0  0  0  0  0  0  0  0  0  0  0
   61.8080   29.7080   51.3880 O   0  0  0  0  0  0  0  0  0  0  0  0
   59.4800   29.9480   50.8970 C   0  0  2  0  0  0  0  0  0  0  0  0
   58.7767   29.3625   50.2867 H   0  0  0  0  0  0  0  0  0  0  0  0
   59.4800   31.3590   50.5360 N   0  0  0  0  0  0  0  0  0  0  0  0
   59.6870   31.8330   49.1950 C   0  0  0  0  0  0  0  0  0  0  0  0
   58.8800   31.5060   48.2870 O   0  0  0  0  0  0  0  0  0  0  0  0
   60.7760   32.6800   48.9220 O   0  0  0  0  0  0  0  0  0  0  0  0
   61.9480   32.3330   48.1670 C   0  0  0  0  0  0  0  0  0  0  0  0
   61.5250   31.2830   47.1290 C   0  0  0  0  0  0  0  0  0  0  0  0
   61.1621   30.3822   47.6456 H   0  0  0  0  0  0  0  0  0  0  0  0
   60.7219   31.6930   46.4990 H   0  0  0  0  0  0  0  0  0  0  0  0
   62.3881   31.0218   46.4990 H   0  0  0  0  0  0  0  0  0  0  0  0
   62.5060   33.5670   47.4310 C   0  0  0  0  0  0  0  0  0  0  0  0
   62.8428   34.3118   48.1671 H   0  0  0  0  0  0  0  0  0  0  0  0
   63.3551   33.2649   46.8003 H   0  0  0  0  0  0  0  0  0  0  0  0
   61.7184   34.0050   46.8003 H   0  0  0  0  0  0  0  0  0  0  0  0
   63.0210   31.7180   49.0840 C   0  0  0  0  0  0  0  0  0  0  0  0
   62.7406   31.8787   50.1355 H   0  0  0  0  0  0  0  0  0  0  0  0
   63.0979   30.6387   48.8858 H   0  0  0  0  0  0  0  0  0  0  0  0
   63.9911   32.1972   48.8858 H   0  0  0  0  0  0  0  0  0  0  0  0
   59.0230   32.2230   51.6090 C   0  0  0  0  0  0  0  0  0  0  0  0
   59.8460   32.8612   51.9631 H   0  0  0  0  0  0  0  0  0  0  0  0
   58.2151   32.8900   51.2737 H   0  0  0  0  0  0  0  0  0  0  0  0
   58.5550   31.2940   52.7240 C   0  0  0  0  0  0  0  0  0  0  0  0
   58.9581   31.6277   53.6915 H   0  0  0  0  0  0  0  0  0  0  0  0
   57.4581   31.2907   52.8063 H   0  0  0  0  0  0  0  0  0  0  0  0
   59.0890   29.9040   52.3800 C   0  0  0  0  0  0  0  0  0  0  0  0
   59.9677   29.6696   52.9988 H   0  0  0  0  0  0  0  0  0  0  0  0
   58.3344   29.1270   52.5717 H   0  0  0  0  0  0  0  0  0  0  0  0
   59.7560   29.0030   47.7440 N   0  0  0  0  0  0  0  0  0  0  0  0
   59.0370   28.2950   46.8830 N   0  0  0  0  0  0  0  0  0  0  0  0
   58.3670   28.8970   45.7650 C   0  0  0  0  0  0  0  0  0  0  0  0
   58.0340   28.1190   44.6490 C   0  0  0  0  0  0  0  0  0  0  0  0
   58.2837   27.0478   44.6338 H   0  0  0  0  0  0  0  0  0  0  0  0
   57.3860   28.6980   43.5550 C   0  0  0  0  0  0  0  0  0  0  0  0
   57.1525   28.0886   42.6695 H   0  0  0  0  0  0  0  0  0  0  0  0
   57.0340   30.0500   43.5840 C   0  0  0  0  0  0  0  0  0  0  0  0
   56.5404   30.5072   42.7137 H   0  0  0  0  0  0  0  0  0  0  0  0
   57.3090   30.8270   44.7220 C   0  0  0  0  0  0  0  0  0  0  0  0
   56.9500   32.1820   44.8050 O   0  0  0  0  0  0  0  0  0  0  0  0
   57.7460   33.2080   45.3410 C   0  0  0  0  0  0  0  0  0  0  0  0
   57.7140   33.5450   46.7110 C   0  0  0  0  0  0  0  0  0  0  0  0
   57.0360   33.0088   47.3912 H   0  0  0  0  0  0  0  0  0  0  0  0
   58.5400   34.5570   47.2070 C   0  0  0  0  0  0  0  0  0  0  0  0
   58.4985   34.8270   48.2725 H   0  0  0  0  0  0  0  0  0  0  0  0
   59.4180   35.2260   46.3520 C   0  0  0  0  0  0  0  0  0  0  0  0
   60.0662   36.0239   46.7434 H   0  0  0  0  0  0  0  0  0  0  0  0
   59.4730   34.8810   44.9970 C   0  0  0  0  0  0  0  0  0  0  0  0
   60.1706   35.4023   44.3250 H   0  0  0  0  0  0  0  0  0  0  0  0
   58.6410   33.8730   44.4960 C   0  0  0  0  0  0  0  0  0  0  0  0
   58.6912   33.6020   43.4311 H   0  0  0  0  0  0  0  0  0  0  0  0
   57.9940   30.2500   45.7980 C   0  0  0  0  0  0  0  0  0  0  0  0
   58.2422   30.8624   46.6774 H   0  0  0  0  0  0  0  0  0  0  0  0
   57.0450   25.8290   46.3910 C   0  0  0  0  0  0  0  0  0  0  0  0
   56.4514   26.6541   46.8115 H   0  0  0  0  0  0  0  0  0  0  0  0
  1  2  1  0
  2  3  1  0
  3  4  2  0
  3  5  1  0
  5  6  2  0
  6  7  1  0
  6  8  1  0
  8  9  1  0
  8 10  2  0
 10 11  1  0
 10 12  1  0
 12 13  1  0
 13 14  2  0
 14 15  1  0
 14 16  1  0
 16 17  2  0
 17 18  1  0
 18 19  2  0
 18 20  1  0
 20 21  1  6
 20 22  1  0
 22 23  1  0
 23 24  2  0
 23 25  1  0
 25 26  1  0
 26 27  1  0
 27 28  1  0
 27 29  1  0
 27 30  1  0
 26 31  1  0
 31 32  1  0
 31 33  1  0
 31 34  1  0
 26 35  1  0
 35 36  1  0
 35 37  1  0
 35 38  1  0
 22 39  1  0
 39 40  1  0
 39 41  1  0
 39 42  1  0
 42 43  1  0
 42 44  1  0
 42 45  1  0
 45 46  1  0
 45 47  1  0
 16 48  1  0
 48 49  1  0
 49 50  1  0
 50 51  2  0
 51 52  1  0
 51 53  1  0
 53 54  1  0
 53 55  2  0
 55 56  1  0
 55 57  1  0
 57 58  1  0
 58 59  1  0
 59 60  2  0
 60 61  1  0
 60 62  1  0
 62 63  1  0
 62 64  2  0
 64 65  1  0
 64 66  1  0
 66 67  1  0
 66 68  2  0
 68 69  1  0
 57 70  2  0
 70 71  1  0
 12 72  2  0
 72 73  1  0
 72  5  1  0
 49 13  1  0
 70 50  1  0
 45 20  1  0
 68 59  1  0
M  CHG  2   2  -1  48  -1
M  END
>  <UniqueID>  (83) 
74

>  <SMILES>  (83) 
CC(C)(C)OC(=O)N1CCC[C@@H]1C(=O)/N=c1/cc(-c2cccc(C([NH-])=O)c2)n(-c2cccc(Oc3ccccc3)c2)[n-]1

>  <Energy>  (83) 
124.26898464882933

>  <Genealogy>  (83) 
CC(C)(C)OC(=O)N1CCCC1C(=O)N=c1cc(-c2cccc(C([NH-])=O)c2)n(-c2cccc(Oc3ccccc3)c2)[n-]1 (protonated)
CC(C)(C)OC(=O)N1CCC[C@@H]1C(=O)N=c1cc(-c2cccc(C([NH-])=O)c2)n(-c2cccc(Oc3ccccc3)c2)[n-]1 (chirality)
CC(C)(C)OC(=O)N1CCC[C@@H]1C(=O)/N=c1/cc(-c2cccc(C([NH-])=O)c2)n(-c2cccc(Oc3ccccc3)c2)[n-]1 (cis-trans isomerization)
CC(C)(C)OC(=O)N1CCC[C@@H]1C(=O)/N=c1/cc(-c2cccc(C([NH-])=O)c2)n(-c2cccc(Oc3ccccc3)c2)[n-]1 (3D coordinates assigned)
CC(C)(C)OC(=O)N1CCC[C@@H]1C(=O)/N=c1/cc(-c2cccc(C([NH-])=O)c2)n(-c2cccc(Oc3ccccc3)c2)[n-]1 (nonaromatic ring conformer: 124.26898464882933 kcal/mol)

>  <smiles>  (83) 
CC(C)(C)OC(=O)N1CCCC1C(=O)N=c1cc(-c2cccc(C(N)=O)c2)n(-c2cccc(Oc3ccccc3)c2)[nH]1

>  <score_type>  (83) 
oracle

>  <origin>  (83) 
adg

>  <m_score__min__energy>  (83) 
-14.289999999999999

>  <m_primary>  (83) 
energy

$$$$
83:0
     RDKit          3D

 75 79  0  0  0  0  0  0  0  0999 V2000
   64.5640   32.6780   47.0770 H   0  0  0  0  0  0  0  0  0  0  0  0
   63.7980   33.2840   47.2690 O   0  0  0  0  0  0  0  0  0  0  0  0
   63.5660   33.2500   48.6560 C   0  0  2  0  0  0  0  0  0  0  0  0
   64.5458   33.3846   49.1375 H   0  0  0  0  0  0  0  0  0  0  0  0
   62.9180   31.9260   49.0720 C   0  0  0  0  0  0  0  0  0  0  0  0
   63.3759   31.5476   49.9978 H   0  0  0  0  0  0  0  0  0  0  0  0
   63.0525   31.1467   48.3074 H   0  0  0  0  0  0  0  0  0  0  0  0
   61.5160   32.2340   49.2880 N   0  0  0  0  0  0  0  0  0  0  0  0
   60.5240   31.2410   49.5860 C   0  0  0  0  0  0  0  0  0  0  0  0
   60.7360   29.9400   49.2540 N   0  0  0  0  0  0  0  0  0  0  0  0
   59.8020   28.9950   49.5340 C   0  0  0  0  0  0  0  0  0  0  0  0
   60.0200   27.7620   49.1870 N   0  0  0  0  0  0  0  0  0  0  0  0
   59.5910   27.1410   47.9650 C   0  0  0  0  0  0  0  0  0  0  0  0
   60.4590   26.3360   47.2080 C   0  0  0  0  0  0  0  0  0  0  0  0
   61.4787   26.1373   47.5697 H   0  0  0  0  0  0  0  0  0  0  0  0
   60.0300   25.7880   45.9980 C   0  0  0  0  0  0  0  0  0  0  0  0
   60.7118   25.1555   45.4106 H   0  0  0  0  0  0  0  0  0  0  0  0
   58.7370   26.0400   45.5300 C   0  0  0  0  0  0  0  0  0  0  0  0
   58.4059   25.6029   44.5764 H   0  0  0  0  0  0  0  0  0  0  0  0
   57.8570   26.8490   46.2710 C   0  0  0  0  0  0  0  0  0  0  0  0
   56.4780   27.0970   45.7900 C   0  0  0  0  0  0  0  0  0  0  0  0
   55.5440   26.3360   46.1610 O   0  0  0  0  0  0  0  0  0  0  0  0
   56.2120   28.2390   44.9550 N   0  0  0  0  0  0  0  0  0  0  0  0
   56.6460   29.4600   45.0900 C   0  0  0  0  0  0  0  0  0  0  0  0
   56.0130   30.5100   44.5360 N   0  0  0  0  0  0  0  0  0  0  0  0
   56.7000   31.5690   44.8490 O   0  0  0  0  0  0  0  0  0  0  0  0
   57.7520   31.2640   45.5780 C   0  0  0  0  0  0  0  0  0  0  0  0
   58.7210   32.2930   46.1260 C   0  0  0  0  0  0  0  0  0  0  0  0
   58.8870   33.4170   45.0880 C   0  0  0  0  0  0  0  0  0  0  0  0
   59.0288   34.3768   45.6064 H   0  0  0  0  0  0  0  0  0  0  0  0
   59.7640   33.2076   44.4579 H   0  0  0  0  0  0  0  0  0  0  0  0
   57.9869   33.4700   44.4579 H   0  0  0  0  0  0  0  0  0  0  0  0
   60.0850   31.6190   46.3730 C   0  0  0  0  0  0  0  0  0  0  0  0
   60.2605   31.5323   47.4554 H   0  0  0  0  0  0  0  0  0  0  0  0
   60.0861   30.6166   45.9199 H   0  0  0  0  0  0  0  0  0  0  0  0
   60.8819   32.2271   45.9199 H   0  0  0  0  0  0  0  0  0  0  0  0
   58.2170   32.8940   47.4540 C   0  0  0  0  0  0  0  0  0  0  0  0
   58.6710   32.3527   48.2971 H   0  0  0  0  0  0  0  0  0  0  0  0
   58.4985   33.9561   47.5060 H   0  0  0  0  0  0  0  0  0  0  0  0
   57.1221   32.8019   47.5060 H   0  0  0  0  0  0  0  0  0  0  0  0
   57.7670   29.8910   45.7780 C   0  0  0  0  0  0  0  0  0  0  0  0
   58.4934   29.2908   46.3455 H   0  0  0  0  0  0  0  0  0  0  0  0
   58.3040   27.4100   47.4810 C   0  0  0  0  0  0  0  0  0  0  0  0
   57.6347   28.0682   48.0544 H   0  0  0  0  0  0  0  0  0  0  0  0
   58.6390   29.3630   50.1330 N   0  0  0  0  0  0  0  0  0  0  0  0
   58.4160   30.6580   50.4650 C   0  0  0  0  0  0  0  0  0  0  0  0
   57.2090   31.0060   51.0780 O   0  0  0  0  0  0  0  0  0  0  0  0
   57.1180   31.6260   52.3580 C   0  0  0  0  0  0  0  0  0  0  0  0
   57.2854   32.7073   52.2449 H   0  0  0  0  0  0  0  0  0  0  0  0
   56.1172   31.4274   52.7691 H   0  0  0  0  0  0  0  0  0  0  0  0
   58.1630   31.0570   53.3310 C   0  0  0  0  0  0  0  0  0  0  0  0
   57.6380   30.6962   54.2278 H   0  0  0  0  0  0  0  0  0  0  0  0
   58.6907   30.2560   52.7926 H   0  0  0  0  0  0  0  0  0  0  0  0
   59.1920   32.0290   53.7570 N   0  0  0  0  0  0  0  0  0  0  0  0
   59.0150   33.4300   53.3180 C   0  0  0  0  0  0  0  0  0  0  0  0
   57.9945   33.5494   52.9252 H   0  0  0  0  0  0  0  0  0  0  0  0
   59.1937   34.0763   54.1900 H   0  0  0  0  0  0  0  0  0  0  0  0
   60.0140   33.8400   52.2240 C   0  0  0  0  0  0  0  0  0  0  0  0
   59.7449   33.3353   51.2844 H   0  0  0  0  0  0  0  0  0  0  0  0
   59.9702   34.9324   52.1025 H   0  0  0  0  0  0  0  0  0  0  0  0
   61.3320   33.4810   52.5790 O   0  0  0  0  0  0  0  0  0  0  0  0
   61.4260   32.0760   52.6470 C   0  0  0  0  0  0  0  0  0  0  0  0
   61.0618   31.6426   51.7038 H   0  0  0  0  0  0  0  0  0  0  0  0
   62.4773   31.7970   52.8111 H   0  0  0  0  0  0  0  0  0  0  0  0
   60.5830   31.5380   53.8080 C   0  0  0  0  0  0  0  0  0  0  0  0
   60.5734   30.4391   53.7602 H   0  0  0  0  0  0  0  0  0  0  0  0
   61.0335   31.8922   54.7469 H   0  0  0  0  0  0  0  0  0  0  0  0
   59.3610   31.5960   50.1930 N   0  0  0  0  0  0  0  0  0  0  0  0
   61.2210   33.6550   49.1980 C   0  0  0  0  0  0  0  0  0  0  0  0
   60.6959   33.9958   50.1025 H   0  0  0  0  0  0  0  0  0  0  0  0
   60.5685   33.8810   48.3418 H   0  0  0  0  0  0  0  0  0  0  0  0
   62.5780   34.3520   49.0740 C   0  0  1  0  0  0  0  0  0  0  0  0
   62.5453   35.1806   48.3513 H   0  0  0  0  0  0  0  0  0  0  0  0
   62.9650   34.8810   50.3160 O   0  0  0  0  0  0  0  0  0  0  0  0
   62.5260   34.3240   51.0110 H   0  0  0  0  0  0  0  0  0  0  0  0
  1  2  1  0
  2  3  1  0
  3  4  1  1
  3  5  1  0
  5  6  1  0
  5  7  1  0
  5  8  1  0
  8  9  1  0
  9 10  2  0
 10 11  1  0
 11 12  2  0
 12 13  1  0
 13 14  2  0
 14 15  1  0
 14 16  1  0
 16 17  1  0
 16 18  2  0
 18 19  1  0
 18 20  1  0
 20 21  1  0
 21 22  2  0
 21 23  1  0
 23 24  2  0
 24 25  1  0
 25 26  1  0
 26 27  1  0
 27 28  1  0
 28 29  1  0
 29 30  1  0
 29 31  1  0
 29 32  1  0
 28 33  1  0
 33 34  1  0
 33 35  1  0
 33 36  1  0
 28 37  1  0
 37 38  1  0
 37 39  1  0
 37 40  1  0
 27 41  2  0
 41 42  1  0
 20 43  2  0
 43 44  1  0
 11 45  1  0
 45 46  2  0
 46 47  1  0
 47 48  1  0
 48 49  1  0
 48 50  1  0
 48 51  1  0
 51 52  1  0
 51 53  1  0
 51 54  1  0
 54 55  1  0
 55 56  1  0
 55 57  1  0
 55 58  1  0
 58 59  1  0
 58 60  1  0
 58 61  1  0
 61 62  1  0
 62 63  1  0
 62 64  1  0
 62 65  1  0
 65 66  1  0
 65 67  1  0
 46 68  1  0
  8 69  1  0
 69 70  1  0
 69 71  1  0
 69 72  1  0
 72 73  1  6
 72 74  1  0
 74 75  1  0
 72  3  1  0
 68  9  1  0
 43 13  1  0
 65 54  1  0
 41 24  1  0
M  CHG  2  25  -1  68  -1
M  END
>  <UniqueID>  (84) 
75

>  <SMILES>  (84) 
CC(C)(C)c1c/c(=N\C(=O)c2cccc(/N=c3\nc(OCCN4CCOCC4)[n-]c(N4C[C@@H](O)[C@H](O)C4)n3)c2)[n-]o1

>  <Energy>  (84) 
127.77703401191647

>  <Genealogy>  (84) 
CC(C)(C)c1cc(=NC(=O)c2cccc(N=c3nc(OCCN4CCOCC4)[n-]c(N4CC(O)C(O)C4)n3)c2)[n-]o1 (protonated)
CC(C)(C)c1cc(=NC(=O)c2cccc(N=c3nc(OCCN4CCOCC4)[n-]c(N4C[C@@H](O)[C@H](O)C4)n3)c2)[n-]o1 (chirality)
CC(C)(C)c1c/c(=N\C(=O)c2cccc(/N=c3\nc(OCCN4CCOCC4)[n-]c(N4C[C@@H](O)[C@H](O)C4)n3)c2)[n-]o1 (cis-trans isomerization)
CC(C)(C)c1c/c(=N\C(=O)c2cccc(/N=c3\nc(OCCN4CCOCC4)[n-]c(N4C[C@@H](O)[C@H](O)C4)n3)c2)[n-]o1 (3D coordinates assigned)
CC(C)(C)c1c/c(=N\C(=O)c2cccc(/N=c3\nc(OCCN4CCOCC4)[n-]c(N4C[C@@H](O)[C@H](O)C4)n3)c2)[n-]o1 (nonaromatic ring conformer: 127.77703401191647 kcal/mol)

>  <smiles>  (84) 
CC(C)(C)c1cc(=NC(=O)c2cccc(N=c3nc(OCCN4CCOCC4)[nH]c(N4CC(O)C(O)C4)n3)c2)[nH]o1

>  <score_type>  (84) 
oracle

>  <origin>  (84) 
adg

>  <m_score__min__energy>  (84) 
-12.44

>  <m_primary>  (84) 
energy

$$$$
84:0
     RDKit          3D

 35 37  0  0  0  0  0  0  0  0999 V2000
   54.7840   27.4660   46.3730 H   0  0  0  0  0  0  0  0  0  0  0  0
   55.1220   26.6870   45.8210 O   0  0  0  0  0  0  0  0  0  0  0  0
   56.0100   25.7550   46.3500 C   0  0  0  0  0  0  0  0  0  0  0  0
   55.6200   24.6570   47.0170 N   0  0  0  0  0  0  0  0  0  0  0  0
   56.7930   24.0800   47.3550 C   0  0  0  0  0  0  0  0  0  0  0  0
   56.8580   23.0070   48.0090 O   0  0  0  0  0  0  0  0  0  0  0  0
   57.8920   24.7510   46.9470 N   0  0  0  0  0  0  0  0  0  0  0  0
   57.3840   25.8060   46.2830 C   0  0  0  0  0  0  0  0  0  0  0  0
   58.1870   26.9220   45.7600 C   0  0  0  0  0  0  0  0  0  0  0  0
   58.8525   26.7081   44.9107 H   0  0  0  0  0  0  0  0  0  0  0  0
   58.1770   28.1830   46.2320 C   0  0  0  0  0  0  0  0  0  0  0  0
   58.6260   28.5240   47.4960 C   0  0  0  0  0  0  0  0  0  0  0  0
   58.9849   27.8371   48.2766 H   0  0  0  0  0  0  0  0  0  0  0  0
   58.5330   29.9010   47.5810 C   0  0  0  0  0  0  0  0  0  0  0  0
   58.9440   30.7670   48.7040 C   0  0  0  0  0  0  0  0  0  0  0  0
   58.6730   30.3910   49.8740 O   0  0  0  0  0  0  0  0  0  0  0  0
   59.6790   31.9880   48.5370 N   0  0  0  0  0  0  0  0  0  0  0  0
   59.1420   33.3390   48.6260 C   0  0  0  0  0  0  0  0  0  0  0  0
   58.2660   33.3437   49.2913 H   0  0  0  0  0  0  0  0  0  0  0  0
   59.9090   34.0158   49.0306 H   0  0  0  0  0  0  0  0  0  0  0  0
   58.7350   33.7990   47.2570 C   0  0  0  0  0  0  0  0  0  0  0  0
   57.4910   33.4300   46.7250 C   0  0  0  0  0  0  0  0  0  0  0  0
   56.7931   32.8219   47.3192 H   0  0  0  0  0  0  0  0  0  0  0  0
   57.1440   33.8400   45.4350 C   0  0  0  0  0  0  0  0  0  0  0  0
   56.1661   33.5620   45.0150 H   0  0  0  0  0  0  0  0  0  0  0  0
   58.0130   34.5820   44.6980 N   0  0  0  0  0  0  0  0  0  0  0  0
   59.2310   34.9420   45.1830 C   0  0  0  0  0  0  0  0  0  0  0  0
   59.9134   35.5416   44.5626 H   0  0  0  0  0  0  0  0  0  0  0  0
   59.6180   34.5520   46.4680 C   0  0  0  0  0  0  0  0  0  0  0  0
   60.6074   34.8332   46.8580 H   0  0  0  0  0  0  0  0  0  0  0  0
   58.0390   30.3810   46.4640 O   0  0  0  0  0  0  0  0  0  0  0  0
   57.7820   29.3890   45.6410 C   0  0  0  0  0  0  0  0  0  0  0  0
   57.1660   29.5890   44.4740 C   0  0  0  0  0  0  0  0  0  0  0  0
   56.9643   28.7389   43.8057 H   0  0  0  0  0  0  0  0  0  0  0  0
   56.8600   30.6040   44.1805 H   0  0  0  0  0  0  0  0  0  0  0  0
  1  2  1  0
  2  3  1  0
  3  4  1  0
  4  5  1  0
  5  6  2  0
  5  7  1  0
  7  8  1  0
  8  9  1  0
  9 10  1  0
  9 11  2  0
 11 12  1  0
 12 13  1  0
 12 14  2  0
 14 15  1  0
 15 16  2  0
 15 17  1  0
 17 18  1  0
 18 19  1  0
 18 20  1  0
 18 21  1  0
 21 22  2  0
 22 23  1  0
 22 24  1  0
 24 25  1  0
 24 26  2  0
 26 27  1  0
 27 28  1  0
 27 29  2  0
 29 30  1  0
 14 31  1  0
 31 32  1  0
 32 33  2  0
 33 34  1  0
 33 35  1  0
  8  3  2  0
 32 11  1  0
 29 21  1  0
M  CHG  3   4  -1   7  -1  17  -1
M  END
>  <UniqueID>  (85) 
76

>  <SMILES>  (85) 
C=c1oc(C(=O)[N-]Cc2ccncc2)c/c1=C/c1[n-]c(=O)[n-]c1O

>  <Energy>  (85) 
106.61170550272786

>  <Genealogy>  (85) 
C=c1oc(C(=O)[N-]Cc2ccncc2)cc1=Cc1[n-]c(=O)[n-]c1O (protonated)
C=c1oc(C(=O)[N-]Cc2ccncc2)c/c1=C/c1[n-]c(=O)[n-]c1O (cis-trans isomerization)
C=c1oc(C(=O)[N-]Cc2ccncc2)c/c1=C/c1[n-]c(=O)[n-]c1O (3D coordinates assigned)
C=c1oc(C(=O)[N-]Cc2ccncc2)c/c1=C/c1[n-]c(=O)[n-]c1O (optimized conformer: 106.61170550272786 kcal/mol)

>  <smiles>  (85) 
C=c1oc(C(=O)NCc2ccncc2)cc1=Cc1[nH]c(=O)[nH]c1O

>  <score_type>  (85) 
oracle

>  <origin>  (85) 
adg

>  <m_score__min__energy>  (85) 
-13.039999999999999

>  <m_primary>  (85) 
energy

$$$$
85:0
     RDKit          3D

 24 25  0  0  0  0  0  0  0  0999 V2000
   56.8640   26.9360   45.8800 S   0  0  0  0  0  0  0  0  0  0  0  0
   56.8370   28.4430   45.2490 C   0  0  0  0  0  0  0  0  0  0  0  0
   57.9190   29.0510   44.7280 N   0  0  0  0  0  0  0  0  0  0  0  0
   57.4000   30.2380   44.3410 C   0  0  0  0  0  0  0  0  0  0  0  0
   58.1860   31.2870   43.6190 C   0  0  0  0  0  0  0  0  0  0  0  0
   57.5940   32.6850   43.8360 C   0  0  0  0  0  0  0  0  0  0  0  0
   58.1820   33.3590   45.0510 C   0  0  0  0  0  0  0  0  0  0  0  0
   59.0870   34.4240   44.9050 C   0  0  0  0  0  0  0  0  0  0  0  0
   59.6600   35.0200   46.0330 C   0  0  0  0  0  0  0  0  0  0  0  0
   59.3390   34.5550   47.3100 C   0  0  0  0  0  0  0  0  0  0  0  0
   58.4460   33.4900   47.4630 C   0  0  0  0  0  0  0  0  0  0  0  0
   57.8720   32.8900   46.3380 C   0  0  0  0  0  0  0  0  0  0  0  0
   56.0790   30.3400   44.5930 N   0  0  0  0  0  0  0  0  0  0  0  0
   55.7370   29.2040   45.1720 N   0  0  0  0  0  0  0  0  0  0  0  0
   59.2214   31.2761   43.9904 H   0  0  0  0  0  0  0  0  0  0  0  0
   58.1524   31.0623   42.5427 H   0  0  0  0  0  0  0  0  0  0  0  0
   57.8036   33.3021   42.9499 H   0  0  0  0  0  0  0  0  0  0  0  0
   56.5109   32.5772   43.9949 H   0  0  0  0  0  0  0  0  0  0  0  0
   59.3456   34.7900   43.9004 H   0  0  0  0  0  0  0  0  0  0  0  0
   60.3646   35.8563   45.9141 H   0  0  0  0  0  0  0  0  0  0  0  0
   59.7889   35.0268   48.1960 H   0  0  0  0  0  0  0  0  0  0  0  0
   58.1948   33.1238   48.4694 H   0  0  0  0  0  0  0  0  0  0  0  0
   57.1753   32.0478   46.4614 H   0  0  0  0  0  0  0  0  0  0  0  0
   54.7720   28.9640   45.4940 H   0  0  0  0  0  0  0  0  0  0  0  0
  1  2  2  0
  2  3  1  0
  3  4  1  0
  4  5  1  0
  5  6  1  0
  6  7  1  0
  7  8  2  0
  8  9  1  0
  9 10  2  0
 10 11  1  0
 11 12  2  0
  4 13  2  0
 13 14  1  0
 14  2  1  0
 12  7  1  0
  5 15  1  0
  5 16  1  0
  6 17  1  0
  6 18  1  0
  8 19  1  0
  9 20  1  0
 10 21  1  0
 11 22  1  0
 12 23  1  0
 14 24  1  0
M  CHG  1   3  -1
M  END
>  <UniqueID>  (86) 
77

>  <SMILES>  (86) 
S=c1[n-]c(CCc2ccccc2)n[nH]1

>  <Energy>  (86) 
52.98461397275426

>  <Genealogy>  (86) 
S=c1[n-]c(CCc2ccccc2)n[nH]1 (protonated)
S=c1[n-]c(CCc2ccccc2)n[nH]1 (3D coordinates assigned)
S=c1[n-]c(CCc2ccccc2)n[nH]1 (optimized conformer: 52.98461397275426 kcal/mol)

>  <smiles>  (86) 
S=c1[nH]nc(CCc2ccccc2)[nH]1

>  <score_type>  (86) 
oracle

>  <origin>  (86) 
adg

>  <m_score__min__energy>  (86) 
-8.4800000000000004

>  <m_primary>  (86) 
energy

$$$$
86:0
     RDKit          3D

 39 40  0  0  0  0  0  0  0  0999 V2000
   62.4410   32.5970   50.5540 H   0  0  0  0  0  0  0  0  0  0  0  0
   61.6020   33.1520   50.4280 O   0  0  0  0  0  0  0  0  0  0  0  0
   61.1370   33.5180   49.1650 C   0  0  0  0  0  0  0  0  0  0  0  0
   59.9010   34.1650   49.0630 C   0  0  0  0  0  0  0  0  0  0  0  0
   59.3226   34.3843   49.9726 H   0  0  0  0  0  0  0  0  0  0  0  0
   59.3970   34.5340   47.8160 C   0  0  0  0  0  0  0  0  0  0  0  0
   58.4296   35.0532   47.7488 H   0  0  0  0  0  0  0  0  0  0  0  0
   60.1160   34.2470   46.6490 C   0  0  0  0  0  0  0  0  0  0  0  0
   59.5520   34.6470   45.3400 C   0  0  0  0  0  0  0  0  0  0  0  0
   59.6185   35.7103   45.0661 H   0  0  0  0  0  0  0  0  0  0  0  0
   58.9660   33.8200   44.4590 C   0  0  0  0  0  0  0  0  0  0  0  0
   59.4786   33.6651   43.4982 H   0  0  0  0  0  0  0  0  0  0  0  0
   57.6910   33.0990   44.6680 C   0  0  0  0  0  0  0  0  0  0  0  0
   56.6430   33.7840   44.8150 O   0  0  0  0  0  0  0  0  0  0  0  0
   57.6040   31.6210   44.7560 C   0  0  0  0  0  0  0  0  0  0  0  0
   58.7460   30.8410   45.0030 C   0  0  0  0  0  0  0  0  0  0  0  0
   59.7177   31.3312   45.1630 H   0  0  0  0  0  0  0  0  0  0  0  0
   58.6570   29.4480   45.0470 C   0  0  0  0  0  0  0  0  0  0  0  0
   59.5579   28.8488   45.2455 H   0  0  0  0  0  0  0  0  0  0  0  0
   57.4280   28.8090   44.8400 C   0  0  0  0  0  0  0  0  0  0  0  0
   57.3640   27.3360   44.9190 C   0  0  0  0  0  0  0  0  0  0  0  0
   57.5060   26.7715   43.9857 H   0  0  0  0  0  0  0  0  0  0  0  0
   57.1460   26.6320   46.0410 C   0  0  0  0  0  0  0  0  0  0  0  0
   57.9740   26.5690   46.7624 H   0  0  0  0  0  0  0  0  0  0  0  0
   55.8930   25.9350   46.3920 C   0  0  0  0  0  0  0  0  0  0  0  0
   54.7750   26.3340   45.9750 O   0  0  0  0  0  0  0  0  0  0  0  0
   55.9550   24.7810   47.1640 O   0  0  0  0  0  0  0  0  0  0  0  0
   56.2700   29.5870   44.6490 C   0  0  0  0  0  0  0  0  0  0  0  0
   55.0240   28.9820   44.5140 O   0  0  0  0  0  0  0  0  0  0  0  0
   56.3620   30.9810   44.6030 C   0  0  0  0  0  0  0  0  0  0  0  0
   55.4545   31.5824   44.4457 H   0  0  0  0  0  0  0  0  0  0  0  0
   61.3770   33.6330   46.7510 C   0  0  0  0  0  0  0  0  0  0  0  0
   61.9710   33.4534   45.8428 H   0  0  0  0  0  0  0  0  0  0  0  0
   61.8860   33.2460   48.0060 C   0  0  0  0  0  0  0  0  0  0  0  0
   63.1230   32.5930   48.1370 O   0  0  0  0  0  0  0  0  0  0  0  0
   64.2360   33.1080   48.8580 C   0  0  0  0  0  0  0  0  0  0  0  0
   64.0458   33.0200   49.9379 H   0  0  0  0  0  0  0  0  0  0  0  0
   65.1385   32.5360   48.5968 H   0  0  0  0  0  0  0  0  0  0  0  0
   64.3842   34.1662   48.5968 H   0  0  0  0  0  0  0  0  0  0  0  0
  1  2  1  0
  2  3  1  0
  3  4  2  0
  4  5  1  0
  4  6  1  0
  6  7  1  0
  6  8  2  0
  8  9  1  0
  9 10  1  0
  9 11  2  3
 11 12  1  0
 11 13  1  0
 13 14  2  0
 13 15  1  0
 15 16  2  0
 16 17  1  0
 16 18  1  0
 18 19  1  0
 18 20  2  0
 20 21  1  0
 21 22  1  0
 21 23  2  0
 23 24  1  0
 23 25  1  0
 25 26  2  0
 25 27  1  0
 20 28  1  0
 28 29  1  0
 28 30  2  0
 30 31  1  0
  8 32  1  0
 32 33  1  0
 32 34  2  0
 34 35  1  0
 35 36  1  0
 36 37  1  0
 36 38  1  0
 36 39  1  0
 34  3  1  0
 30 15  1  0
M  CHG  2  27  -1  29  -1
M  END
>  <UniqueID>  (87) 
78

>  <SMILES>  (87) 
COc1cc(C=CC(=O)c2ccc(/C=C\C(=O)[O-])c([O-])c2)ccc1O

>  <Energy>  (87) 
55.62556510092664

>  <Genealogy>  (87) 
COc1cc(C=CC(=O)c2ccc(C=CC(=O)[O-])c([O-])c2)ccc1O (protonated)
COc1cc(C=CC(=O)c2ccc(/C=C\C(=O)[O-])c([O-])c2)ccc1O (cis-trans isomerization)
COc1cc(C=CC(=O)c2ccc(/C=C\C(=O)[O-])c([O-])c2)ccc1O (3D coordinates assigned)
COc1cc(C=CC(=O)c2ccc(/C=C\C(=O)[O-])c([O-])c2)ccc1O (optimized conformer: 55.62556510092664 kcal/mol)

>  <smiles>  (87) 
COc1cc(C=CC(=O)c2ccc(C=CC(=O)O)c(O)c2)ccc1O

>  <score_type>  (87) 
oracle

>  <origin>  (87) 
adg

>  <m_score__min__energy>  (87) 
-14.529999999999999

>  <m_primary>  (87) 
energy

$$$$
87:0
     RDKit          3D

 41 43  0  0  0  0  0  0  0  0999 V2000
   58.2198   28.0192   42.6733 H   0  0  0  0  0  0  0  0  0  0  0  0
   57.9750   27.0610   43.1550 C   0  0  0  0  0  0  0  0  0  0  0  0
   57.6205   26.2150   42.5479 H   0  0  0  0  0  0  0  0  0  0  0  0
   58.1090   26.9240   44.4850 C   0  0  0  0  0  0  0  0  0  0  0  0
   57.8390   25.7740   45.2410 C   0  0  0  0  0  0  0  0  0  0  0  0
   57.1530   24.6600   44.9270 C   0  0  0  0  0  0  0  0  0  0  0  0
   57.6956   23.8611   44.4004 H   0  0  0  0  0  0  0  0  0  0  0  0
   55.7320   24.4280   45.2340 C   0  0  0  0  0  0  0  0  0  0  0  0
   54.8190   25.3760   45.6350 C   0  0  0  0  0  0  0  0  0  0  0  0
   55.1050   26.7020   45.9330 O   0  0  0  0  0  0  0  0  0  0  0  0
   53.5820   24.8440   45.7010 N   0  0  0  0  0  0  0  0  0  0  0  0
   53.7850   23.5670   45.3080 C   0  0  0  0  0  0  0  0  0  0  0  0
   52.8550   22.7230   45.2210 O   0  0  0  0  0  0  0  0  0  0  0  0
   55.0670   23.2820   45.0050 N   0  0  0  0  0  0  0  0  0  0  0  0
   55.4450   22.3810   44.6380 H   0  0  0  0  0  0  0  0  0  0  0  0
   58.4030   25.9880   46.4870 C   0  0  0  0  0  0  0  0  0  0  0  0
   58.4400   25.2727   47.3219 H   0  0  0  0  0  0  0  0  0  0  0  0
   58.9100   27.2720   46.4800 C   0  0  0  0  0  0  0  0  0  0  0  0
   59.5600   27.9390   47.6540 C   0  0  0  0  0  0  0  0  0  0  0  0
   59.1520   27.5203   48.5858 H   0  0  0  0  0  0  0  0  0  0  0  0
   60.6458   27.7663   47.6190 H   0  0  0  0  0  0  0  0  0  0  0  0
   59.3593   29.0200   47.6190 H   0  0  0  0  0  0  0  0  0  0  0  0
   58.7160   27.8480   45.2730 N   0  0  0  0  0  0  0  0  0  0  0  0
   59.0850   29.1940   44.9170 C   0  0  0  0  0  0  0  0  0  0  0  0
   60.3020   29.4740   44.7430 O   0  0  0  0  0  0  0  0  0  0  0  0
   58.0810   30.2230   44.7750 N   0  0  0  0  0  0  0  0  0  0  0  0
   58.2910   31.5360   45.3360 C   0  0  0  0  0  0  0  0  0  0  0  0
   59.0220   31.6980   46.5250 C   0  0  0  0  0  0  0  0  0  0  0  0
   59.4094   30.8142   47.0531 H   0  0  0  0  0  0  0  0  0  0  0  0
   59.2600   32.9750   47.0410 C   0  0  0  0  0  0  0  0  0  0  0  0
   59.8389   33.0936   47.9688 H   0  0  0  0  0  0  0  0  0  0  0  0
   58.7630   34.1020   46.3790 C   0  0  0  0  0  0  0  0  0  0  0  0
   59.0000   35.3400   46.8780 F   0  0  0  0  0  0  0  0  0  0  0  0
   58.0250   33.9520   45.2030 C   0  0  0  0  0  0  0  0  0  0  0  0
   57.6311   34.8388   44.6849 H   0  0  0  0  0  0  0  0  0  0  0  0
   57.7860   32.6760   44.6830 C   0  0  0  0  0  0  0  0  0  0  0  0
   57.2003   32.5627   43.7588 H   0  0  0  0  0  0  0  0  0  0  0  0
   56.7950   29.8940   44.1560 C   0  0  0  0  0  0  0  0  0  0  0  0
   56.0484   29.7030   44.9410 H   0  0  0  0  0  0  0  0  0  0  0  0
   56.4628   30.7361   43.5311 H   0  0  0  0  0  0  0  0  0  0  0  0
   56.9080   28.9958   43.5311 H   0  0  0  0  0  0  0  0  0  0  0  0
  1  2  1  0
  2  3  1  0
  2  4  2  0
  4  5  1  0
  5  6  2  0
  6  7  1  0
  6  8  1  0
  8  9  2  0
  9 10  1  0
  9 11  1  0
 11 12  1  0
 12 13  2  0
 12 14  1  0
 14 15  1  0
  5 16  1  0
 16 17  1  0
 16 18  2  0
 18 19  1  0
 19 20  1  0
 19 21  1  0
 19 22  1  0
 18 23  1  0
 23 24  1  0
 24 25  2  0
 24 26  1  0
 26 27  1  0
 27 28  2  0
 28 29  1  0
 28 30  1  0
 30 31  1  0
 30 32  2  0
 32 33  1  0
 32 34  1  0
 34 35  1  0
 34 36  2  0
 36 37  1  0
 26 38  1  0
 38 39  1  0
 38 40  1  0
 38 41  1  0
 23  4  1  0
 36 27  1  0
 14  8  1  0
M  CHG  2  10  -1  11  -1
M  END
>  <UniqueID>  (88) 
79

>  <SMILES>  (88) 
C=c1/c(=C\c2[nH]c(=O)[n-]c2[O-])cc(C)n1C(=O)N(C)c1ccc(F)cc1

>  <Energy>  (88) 
120.2670250613588

>  <Genealogy>  (88) 
C=c1c(=Cc2[nH]c(=O)[n-]c2[O-])cc(C)n1C(=O)N(C)c1ccc(F)cc1 (protonated)
C=c1/c(=C\c2[nH]c(=O)[n-]c2[O-])cc(C)n1C(=O)N(C)c1ccc(F)cc1 (cis-trans isomerization)
C=c1/c(=C\c2[nH]c(=O)[n-]c2[O-])cc(C)n1C(=O)N(C)c1ccc(F)cc1 (3D coordinates assigned)
C=c1/c(=C\c2[nH]c(=O)[n-]c2[O-])cc(C)n1C(=O)N(C)c1ccc(F)cc1 (optimized conformer: 120.2670250613588 kcal/mol)

>  <smiles>  (88) 
C=c1c(=Cc2[nH]c(=O)[nH]c2O)cc(C)n1C(=O)N(C)c1ccc(F)cc1

>  <score_type>  (88) 
oracle

>  <origin>  (88) 
adg

>  <m_score__min__energy>  (88) 
-13.74

>  <m_primary>  (88) 
energy

$$$$
88:0
     RDKit          3D

 59 62  0  0  0  0  0  0  0  0999 V2000
   64.0403   28.3968   52.9540 H   0  0  0  0  0  0  0  0  0  0  0  0
   63.9830   29.2220   52.2290 C   0  0  0  0  0  0  0  0  0  0  0  0
   65.1120   30.0020   51.9690 C   0  0  0  0  0  0  0  0  0  0  0  0
   66.0576   29.7914   52.4901 H   0  0  0  0  0  0  0  0  0  0  0  0
   65.0410   31.0500   51.0470 C   0  0  0  0  0  0  0  0  0  0  0  0
   65.9295   31.6690   50.8534 H   0  0  0  0  0  0  0  0  0  0  0  0
   63.8400   31.3180   50.3650 C   0  0  0  0  0  0  0  0  0  0  0  0
   63.7560   32.4070   49.4210 N   0  0  0  0  0  0  0  0  0  0  0  0
   63.5020   33.7840   49.8720 C   0  0  0  0  0  0  0  0  0  0  0  0
   64.3146   34.4401   49.5268 H   0  0  0  0  0  0  0  0  0  0  0  0
   63.4557   33.8106   50.9707 H   0  0  0  0  0  0  0  0  0  0  0  0
   62.1710   34.2670   49.2890 C   0  0  0  0  0  0  0  0  0  0  0  0
   62.1206   35.3632   49.3655 H   0  0  0  0  0  0  0  0  0  0  0  0
   61.3496   33.8050   49.8563 H   0  0  0  0  0  0  0  0  0  0  0  0
   62.0460   33.8760   47.8760 N   0  0  0  0  0  0  0  0  0  0  0  0
   60.7500   33.8550   47.2670 C   0  0  0  0  0  0  0  0  0  0  0  0
   59.9200   34.9800   47.3320 C   0  0  0  0  0  0  0  0  0  0  0  0
   60.2637   35.8882   47.8487 H   0  0  0  0  0  0  0  0  0  0  0  0
   58.6540   34.9490   46.7400 C   0  0  0  0  0  0  0  0  0  0  0  0
   58.0021   35.8333   46.7946 H   0  0  0  0  0  0  0  0  0  0  0  0
   58.2130   33.7990   46.0790 C   0  0  0  0  0  0  0  0  0  0  0  0
   57.2143   33.7802   45.6184 H   0  0  0  0  0  0  0  0  0  0  0  0
   59.0430   32.6650   46.0010 C   0  0  0  0  0  0  0  0  0  0  0  0
   58.6350   31.4690   45.3190 N   0  0  0  0  0  0  0  0  0  0  0  0
   58.8780   30.5550   45.7650 H   0  0  0  0  0  0  0  0  0  0  0  0
   57.6050   31.4460   44.3220 C   0  0  0  0  0  0  0  0  0  0  0  0
   57.6930   32.1810   43.3030 O   0  0  0  0  0  0  0  0  0  0  0  0
   56.5000   30.5380   44.4280 N   0  0  0  0  0  0  0  0  0  0  0  0
   56.5720   29.3340   44.9160 C   0  0  0  0  0  0  0  0  0  0  0  0
   57.7500   28.7380   45.2050 N   0  0  0  0  0  0  0  0  0  0  0  0
   57.3810   27.5220   45.6650 C   0  0  0  0  0  0  0  0  0  0  0  0
   58.3530   26.4360   46.1040 C   0  0  0  0  0  0  0  0  0  0  0  0
   58.3490   25.2710   45.0890 C   0  0  0  0  0  0  0  0  0  0  0  0
   58.3457   24.3133   45.6301 H   0  0  0  0  0  0  0  0  0  0  0  0
   57.4511   25.3383   44.4572 H   0  0  0  0  0  0  0  0  0  0  0  0
   59.2474   25.3321   44.4572 H   0  0  0  0  0  0  0  0  0  0  0  0
   59.7800   27.0130   46.1870 C   0  0  0  0  0  0  0  0  0  0  0  0
   60.0677   27.1293   47.2423 H   0  0  0  0  0  0  0  0  0  0  0  0
   60.4820   26.3281   45.6890 H   0  0  0  0  0  0  0  0  0  0  0  0
   59.8086   27.9934   45.6890 H   0  0  0  0  0  0  0  0  0  0  0  0
   57.9280   25.8940   47.4830 C   0  0  0  0  0  0  0  0  0  0  0  0
   58.3994   26.4952   48.2744 H   0  0  0  0  0  0  0  0  0  0  0  0
   56.8339   25.9542   47.5793 H   0  0  0  0  0  0  0  0  0  0  0  0
   58.2474   24.8458   47.5793 H   0  0  0  0  0  0  0  0  0  0  0  0
   56.0020   27.4430   45.6180 C   0  0  0  0  0  0  0  0  0  0  0  0
   55.2130   26.3590   45.9830 O   0  0  0  0  0  0  0  0  0  0  0  0
   55.5290   28.5710   45.1570 O   0  0  0  0  0  0  0  0  0  0  0  0
   60.3150   32.7100   46.5890 C   0  0  0  0  0  0  0  0  0  0  0  0
   60.9787   31.8358   46.5168 H   0  0  0  0  0  0  0  0  0  0  0  0
   63.1910   33.2940   47.1660 C   0  0  0  0  0  0  0  0  0  0  0  0
   63.9725   34.0581   47.0418 H   0  0  0  0  0  0  0  0  0  0  0  0
   62.8667   32.9373   46.1772 H   0  0  0  0  0  0  0  0  0  0  0  0
   63.7510   32.1160   47.9770 C   0  0  0  0  0  0  0  0  0  0  0  0
   64.7817   31.9149   47.6496 H   0  0  0  0  0  0  0  0  0  0  0  0
   63.1067   31.2414   47.8040 H   0  0  0  0  0  0  0  0  0  0  0  0
   62.7080   30.5310   50.6430 C   0  0  0  0  0  0  0  0  0  0  0  0
   61.7587   30.7380   50.1272 H   0  0  0  0  0  0  0  0  0  0  0  0
   62.7810   29.4890   51.5690 C   0  0  0  0  0  0  0  0  0  0  0  0
   61.8911   28.8775   51.7793 H   0  0  0  0  0  0  0  0  0  0  0  0
  1  2  1  0
  2  3  2  0
  3  4  1  0
  3  5  1  0
  5  6  1  0
  5  7  2  0
  7  8  1  0
  8  9  1  0
  9 10  1  0
  9 11  1  0
  9 12  1  0
 12 13  1  0
 12 14  1  0
 12 15  1  0
 15 16  1  0
 16 17  2  0
 17 18  1  0
 17 19  1  0
 19 20  1  0
 19 21  2  0
 21 22  1  0
 21 23  1  0
 23 24  1  0
 24 25  1  0
 24 26  1  0
 26 27  2  0
 26 28  1  0
 28 29  2  0
 29 30  1  0
 30 31  1  0
 31 32  1  0
 32 33  1  0
 33 34  1  0
 33 35  1  0
 33 36  1  0
 32 37  1  0
 37 38  1  0
 37 39  1  0
 37 40  1  0
 32 41  1  0
 41 42  1  0
 41 43  1  0
 41 44  1  0
 31 45  2  0
 45 46  1  0
 45 47  1  0
 23 48  2  0
 48 49  1  0
 15 50  1  0
 50 51  1  0
 50 52  1  0
 50 53  1  0
 53 54  1  0
 53 55  1  0
  7 56  1  0
 56 57  1  0
 56 58  2  0
 58 59  1  0
 58  2  1  0
 53  8  1  0
 48 16  1  0
 47 29  1  0
M  CHG  2  30  -1  46  -1
M  END
>  <UniqueID>  (89) 
80

>  <SMILES>  (89) 
CC(C)(C)c1[n-]/c(=N/C(=O)Nc2cccc(N3CCN(c4ccccc4)CC3)c2)oc1[O-]

>  <Energy>  (89) 
109.1832256223474

>  <Genealogy>  (89) 
CC(C)(C)c1[n-]c(=NC(=O)Nc2cccc(N3CCN(c4ccccc4)CC3)c2)oc1[O-] (protonated)
CC(C)(C)c1[n-]/c(=N/C(=O)Nc2cccc(N3CCN(c4ccccc4)CC3)c2)oc1[O-] (cis-trans isomerization)
CC(C)(C)c1[n-]/c(=N/C(=O)Nc2cccc(N3CCN(c4ccccc4)CC3)c2)oc1[O-] (3D coordinates assigned)
CC(C)(C)c1[n-]/c(=N/C(=O)Nc2cccc(N3CCN(c4ccccc4)CC3)c2)oc1[O-] (nonaromatic ring conformer: 109.1832256223474 kcal/mol)

>  <smiles>  (89) 
CC(C)(C)c1[nH]c(=NC(=O)Nc2cccc(N3CCN(c4ccccc4)CC3)c2)oc1O

>  <score_type>  (89) 
oracle

>  <origin>  (89) 
adg

>  <m_score__min__energy>  (89) 
-14.26

>  <m_primary>  (89) 
energy

$$$$
