0:0
     RDKit          3D

 48 50  0  0  0  0  0  0  0  0999 V2000
   54.8730   22.9720   48.2060 C   0  0  0  0  0  0  0  0  0  0  0  0
   55.9210   23.7970   47.7080 O   0  0  0  0  0  0  0  0  0  0  0  0
   56.4660   23.6950   46.4170 C   0  0  0  0  0  0  0  0  0  0  0  0
   57.5870   22.8840   46.1450 C   0  0  0  0  0  0  0  0  0  0  0  0
   58.1110   22.8120   44.8520 C   0  0  0  0  0  0  0  0  0  0  0  0
   57.5190   23.5340   43.8150 C   0  0  0  0  0  0  0  0  0  0  0  0
   56.4060   24.3360   44.0680 C   0  0  0  0  0  0  0  0  0  0  0  0
   55.8790   24.4360   45.3680 C   0  0  0  0  0  0  0  0  0  0  0  0
   54.7090   25.3560   45.6310 C   0  0  0  0  0  0  0  0  0  0  0  0
   55.1580   26.7080   45.9570 N   0  0  0  0  0  0  0  0  0  0  0  0
   56.5220   27.1500   45.9680 C   0  0  0  0  0  0  0  0  0  0  0  0
   57.3820   26.4640   46.5810 O   0  0  0  0  0  0  0  0  0  0  0  0
   56.9460   28.3700   45.2550 C   0  0  0  0  0  0  0  0  0  0  0  0
   55.9700   29.2660   44.7910 C   0  0  0  0  0  0  0  0  0  0  0  0
   56.3420   30.3980   44.0600 C   0  0  0  0  0  0  0  0  0  0  0  0
   57.6890   30.6370   43.7780 C   0  0  0  0  0  0  0  0  0  0  0  0
   58.6670   29.7520   44.2360 C   0  0  0  0  0  0  0  0  0  0  0  0
   58.3090   28.6260   44.9900 C   0  0  0  0  0  0  0  0  0  0  0  0
   59.6050   27.4950   45.5300 S   0  0  0  0  0  0  0  0  0  0  0  0
   59.7120   28.1620   47.2280 C   0  0  0  0  0  0  0  0  0  0  0  0
   59.6720   29.6650   47.2150 C   0  0  0  0  0  0  0  0  0  0  0  0
   60.7710   30.4100   46.7650 C   0  0  0  0  0  0  0  0  0  0  0  0
   60.7240   31.8050   46.7810 C   0  0  0  0  0  0  0  0  0  0  0  0
   59.5700   32.4480   47.2460 C   0  0  0  0  0  0  0  0  0  0  0  0
   59.5030   33.9420   47.2920 C   0  0  0  0  0  0  0  0  0  0  0  0
   58.5150   31.7090   47.6890 N   0  0  0  0  0  0  0  0  0  0  0  0
   58.5400   30.3500   47.6810 C   0  0  0  0  0  0  0  0  0  0  0  0
   54.8881   22.9839   49.3058 H   0  0  0  0  0  0  0  0  0  0  0  0
   53.9050   23.3530   47.8485 H   0  0  0  0  0  0  0  0  0  0  0  0
   55.0161   21.9416   47.8485 H   0  0  0  0  0  0  0  0  0  0  0  0
   58.0519   22.3043   46.9561 H   0  0  0  0  0  0  0  0  0  0  0  0
   58.9921   22.1849   44.6510 H   0  0  0  0  0  0  0  0  0  0  0  0
   57.9305   23.4707   42.7968 H   0  0  0  0  0  0  0  0  0  0  0  0
   55.9370   24.8944   43.2444 H   0  0  0  0  0  0  0  0  0  0  0  0
   54.0758   25.3959   44.7324 H   0  0  0  0  0  0  0  0  0  0  0  0
   54.1441   24.9620   46.4887 H   0  0  0  0  0  0  0  0  0  0  0  0
   54.9075   29.0764   45.0036 H   0  0  0  0  0  0  0  0  0  0  0  0
   55.5734   31.1011   43.7066 H   0  0  0  0  0  0  0  0  0  0  0  0
   57.9795   31.5232   43.1946 H   0  0  0  0  0  0  0  0  0  0  0  0
   59.7256   29.9397   44.0035 H   0  0  0  0  0  0  0  0  0  0  0  0
   58.8642   27.7838   47.8181 H   0  0  0  0  0  0  0  0  0  0  0  0
   60.6639   27.8386   47.6744 H   0  0  0  0  0  0  0  0  0  0  0  0
   61.6713   29.8947   46.3989 H   0  0  0  0  0  0  0  0  0  0  0  0
   61.5851   32.3936   46.4317 H   0  0  0  0  0  0  0  0  0  0  0  0
   59.4880   34.2763   48.3399 H   0  0  0  0  0  0  0  0  0  0  0  0
   60.3831   34.3643   46.7850 H   0  0  0  0  0  0  0  0  0  0  0  0
   58.5886   34.2838   46.7850 H   0  0  0  0  0  0  0  0  0  0  0  0
   57.6682   29.7845   48.0418 H   0  0  0  0  0  0  0  0  0  0  0  0
  1  2  1  0
  2  3  1  0
  3  4  2  0
  4  5  1  0
  5  6  2  0
  6  7  1  0
  7  8  2  0
  8  9  1  0
  9 10  1  0
 10 11  1  0
 11 12  2  0
 11 13  1  0
 13 14  2  0
 14 15  1  0
 15 16  2  0
 16 17  1  0
 17 18  2  0
 18 19  1  0
 19 20  1  0
 20 21  1  0
 21 22  2  0
 22 23  1  0
 23 24  2  0
 24 25  1  0
 24 26  1  0
 26 27  2  0
  8  3  1  0
 18 13  1  0
 27 21  1  0
  1 28  1  0
  1 29  1  0
  1 30  1  0
  4 31  1  0
  5 32  1  0
  6 33  1  0
  7 34  1  0
  9 35  1  0
  9 36  1  0
 14 37  1  0
 15 38  1  0
 16 39  1  0
 17 40  1  0
 20 41  1  0
 20 42  1  0
 22 43  1  0
 23 44  1  0
 25 45  1  0
 25 46  1  0
 25 47  1  0
 27 48  1  0
M  CHG  1  10  -1
M  END
>  <UniqueID>  (1) 
1

>  <SMILES>  (1) 
COc1ccccc1C[N-]C(=O)c1ccccc1SCc1ccc(C)nc1

>  <Energy>  (1) 
46.68351384244305

>  <Genealogy>  (1) 
COc1ccccc1C[N-]C(=O)c1ccccc1SCc1ccc(C)nc1 (protonated)
COc1ccccc1C[N-]C(=O)c1ccccc1SCc1ccc(C)nc1 (3D coordinates assigned)
COc1ccccc1C[N-]C(=O)c1ccccc1SCc1ccc(C)nc1 (optimized conformer: 46.68351384244305 kcal/mol)

>  <smiles>  (1) 
COc1ccccc1CNC(=O)c1ccccc1SCc1ccc(C)nc1

>  <score_type>  (1) 
oracle

>  <origin>  (1) 
adg

>  <m_score__min__energy>  (1) 
-10.289999999999999

>  <m_primary>  (1) 
energy

$$$$
1:0
     RDKit          3D

 43 44  0  0  0  0  0  0  0  0999 V2000
   58.7620   34.8210   44.8830 C   0  0  0  0  0  0  0  0  0  0  0  0
   57.3710   34.2370   45.1140 C   0  0  0  0  0  0  0  0  0  0  0  0
   57.4300   32.7740   45.4670 C   0  0  0  0  0  0  0  0  0  0  0  0
   56.9310   31.8020   44.6770 N   0  0  0  0  0  0  0  0  0  0  0  0
   57.2420   30.6440   45.2390 N   0  0  0  0  0  0  0  0  0  0  0  0
   57.9350   30.9200   46.3610 C   0  0  0  0  0  0  0  0  0  0  0  0
   58.5350   29.8480   47.2270 C   0  0  0  0  0  0  0  0  0  0  0  0
   59.7570   29.3160   46.6070 N   0  0  0  0  0  0  0  0  0  0  0  0
   61.0670   29.8840   46.9390 C   0  0  0  0  0  0  0  0  0  0  0  0
   59.6680   28.1700   45.7360 C   0  0  0  0  0  0  0  0  0  0  0  0
   59.6080   28.3370   44.4860 O   0  0  0  0  0  0  0  0  0  0  0  0
   59.7280   26.7670   46.2740 C   0  0  0  0  0  0  0  0  0  0  0  0
   58.4340   26.0390   46.0090 C   0  0  0  0  0  0  0  0  0  0  0  0
   58.4410   24.6850   45.6320 C   0  0  0  0  0  0  0  0  0  0  0  0
   57.2390   24.0170   45.3790 C   0  0  0  0  0  0  0  0  0  0  0  0
   56.0210   24.6900   45.5080 C   0  0  0  0  0  0  0  0  0  0  0  0
   56.0020   26.0310   45.9010 C   0  0  0  0  0  0  0  0  0  0  0  0
   54.7900   26.6970   46.0390 O   0  0  0  0  0  0  0  0  0  0  0  0
   57.2020   26.7020   46.1580 C   0  0  0  0  0  0  0  0  0  0  0  0
   58.0840   32.2550   46.5310 N   0  0  0  0  0  0  0  0  0  0  0  0
   58.8410   32.9680   47.5650 C   0  0  0  0  0  0  0  0  0  0  0  0
   60.3010   33.1200   47.1580 C   0  0  0  0  0  0  0  0  0  0  0  0
   59.2409   35.0221   45.8526 H   0  0  0  0  0  0  0  0  0  0  0  0
   59.3715   34.1028   44.3149 H   0  0  0  0  0  0  0  0  0  0  0  0
   58.6761   35.7590   44.3149 H   0  0  0  0  0  0  0  0  0  0  0  0
   56.8880   34.7828   45.9379 H   0  0  0  0  0  0  0  0  0  0  0  0
   56.7975   34.3407   44.1811 H   0  0  0  0  0  0  0  0  0  0  0  0
   58.7826   30.2727   48.2110 H   0  0  0  0  0  0  0  0  0  0  0  0
   57.8071   29.0313   47.3415 H   0  0  0  0  0  0  0  0  0  0  0  0
   61.1792   29.9326   48.0322 H   0  0  0  0  0  0  0  0  0  0  0  0
   61.8597   29.2488   46.5170 H   0  0  0  0  0  0  0  0  0  0  0  0
   61.1451   30.8968   46.5170 H   0  0  0  0  0  0  0  0  0  0  0  0
   60.5525   26.2276   45.7849 H   0  0  0  0  0  0  0  0  0  0  0  0
   59.8928   26.8115   47.3607 H   0  0  0  0  0  0  0  0  0  0  0  0
   59.3964   24.1484   45.5356 H   0  0  0  0  0  0  0  0  0  0  0  0
   57.2521   22.9592   45.0777 H   0  0  0  0  0  0  0  0  0  0  0  0
   55.0774   24.1643   45.3002 H   0  0  0  0  0  0  0  0  0  0  0  0
   57.1824   27.7541   46.4785 H   0  0  0  0  0  0  0  0  0  0  0  0
   58.4013   33.9658   47.7104 H   0  0  0  0  0  0  0  0  0  0  0  0
   58.7937   32.3891   48.4991 H   0  0  0  0  0  0  0  0  0  0  0  0
   60.9280   33.1853   48.0594 H   0  0  0  0  0  0  0  0  0  0  0  0
   60.6076   32.2489   46.5603 H   0  0  0  0  0  0  0  0  0  0  0  0
   60.4216   34.0356   46.5603 H   0  0  0  0  0  0  0  0  0  0  0  0
  1  2  1  0
  2  3  1  0
  3  4  2  0
  4  5  1  0
  5  6  2  0
  6  7  1  0
  7  8  1  0
  8  9  1  0
  8 10  1  0
 10 11  2  0
 10 12  1  0
 12 13  1  0
 13 14  2  0
 14 15  1  0
 15 16  2  0
 16 17  1  0
 17 18  1  0
 17 19  2  0
  6 20  1  0
 20 21  1  0
 21 22  1  0
 20  3  1  0
 19 13  1  0
  1 23  1  0
  1 24  1  0
  1 25  1  0
  2 26  1  0
  2 27  1  0
  7 28  1  0
  7 29  1  0
  9 30  1  0
  9 31  1  0
  9 32  1  0
 12 33  1  0
 12 34  1  0
 14 35  1  0
 15 36  1  0
 16 37  1  0
 19 38  1  0
 21 39  1  0
 21 40  1  0
 22 41  1  0
 22 42  1  0
 22 43  1  0
M  CHG  1  18  -1
M  END
>  <UniqueID>  (2) 
2

>  <SMILES>  (2) 
CCc1nnc(CN(C)C(=O)Cc2cccc([O-])c2)n1CC

>  <Energy>  (2) 
64.03779444228687

>  <Genealogy>  (2) 
CCc1nnc(CN(C)C(=O)Cc2cccc([O-])c2)n1CC (protonated)
CCc1nnc(CN(C)C(=O)Cc2cccc([O-])c2)n1CC (3D coordinates assigned)
CCc1nnc(CN(C)C(=O)Cc2cccc([O-])c2)n1CC (optimized conformer: 64.03779444228687 kcal/mol)

>  <smiles>  (2) 
CCc1nnc(CN(C)C(=O)Cc2cccc(O)c2)n1CC

>  <score_type>  (2) 
oracle

>  <origin>  (2) 
adg

>  <m_score__min__energy>  (2) 
-10.960000000000001

>  <m_primary>  (2) 
energy

$$$$
2:0
     RDKit          3D

 38 39  0  0  0  0  0  0  0  0999 V2000
   54.2688   29.5127   44.1980 H   0  0  0  0  0  0  0  0  0  0  0  0
   55.3190   29.6620   44.4890 C   0  0  0  0  0  0  0  0  0  0  0  0
   55.9600   28.7160   45.2110 N   0  0  0  0  0  0  0  0  0  0  0  0
   57.2470   28.8690   45.6160 C   0  0  0  0  0  0  0  0  0  0  0  0
   57.8260   27.8500   46.3810 C   0  0  0  0  0  0  0  0  0  0  0  0
   57.2508   26.9390   46.6027 H   0  0  0  0  0  0  0  0  0  0  0  0
   59.1250   27.9820   46.8630 C   0  0  0  0  0  0  0  0  0  0  0  0
   59.8420   26.7030   47.8250 Cl  0  0  0  0  0  0  0  0  0  0  0  0
   59.8440   29.1440   46.5990 C   0  0  0  0  0  0  0  0  0  0  0  0
   60.8641   29.2564   46.9948 H   0  0  0  0  0  0  0  0  0  0  0  0
   59.2800   30.1690   45.8350 C   0  0  0  0  0  0  0  0  0  0  0  0
   59.8574   31.0882   45.6569 H   0  0  0  0  0  0  0  0  0  0  0  0
   57.9800   30.0490   45.2850 C   0  0  0  0  0  0  0  0  0  0  0  0
   57.3260   31.0330   44.4610 C   0  0  0  0  0  0  0  0  0  0  0  0
   57.8610   32.1120   43.9450 N   0  0  0  0  0  0  0  0  0  0  0  0
   57.8940   33.5280   44.3070 C   0  0  0  0  0  0  0  0  0  0  0  0
   57.1354   33.7158   45.0811 H   0  0  0  0  0  0  0  0  0  0  0  0
   57.6881   34.1182   43.4018 H   0  0  0  0  0  0  0  0  0  0  0  0
   59.2720   33.9450   44.8480 C   0  0  0  0  0  0  0  0  0  0  0  0
   59.6535   34.7819   44.2447 H   0  0  0  0  0  0  0  0  0  0  0  0
   59.9427   33.0754   44.7846 H   0  0  0  0  0  0  0  0  0  0  0  0
   59.1960   34.3850   46.3180 C   0  0  0  0  0  0  0  0  0  0  0  0
   59.1652   35.4839   46.3550 H   0  0  0  0  0  0  0  0  0  0  0  0
   60.0833   33.9848   46.8304 H   0  0  0  0  0  0  0  0  0  0  0  0
   57.9560   33.8340   47.0400 C   0  0  0  0  0  0  0  0  0  0  0  0
   57.1638   33.6696   46.2948 H   0  0  0  0  0  0  0  0  0  0  0  0
   57.6677   34.5760   47.7992 H   0  0  0  0  0  0  0  0  0  0  0  0
   58.2140   32.5030   47.7810 C   0  0  0  0  0  0  0  0  0  0  0  0
   58.8740   31.8783   47.1612 H   0  0  0  0  0  0  0  0  0  0  0  0
   57.2381   32.0244   47.9501 H   0  0  0  0  0  0  0  0  0  0  0  0
   58.8740   32.7020   49.1530 C   0  0  0  0  0  0  0  0  0  0  0  0
   59.1465   33.7610   49.2725 H   0  0  0  0  0  0  0  0  0  0  0  0
   59.7714   32.0684   49.2091 H   0  0  0  0  0  0  0  0  0  0  0  0
   57.9600   32.3180   50.2260 N   0  0  0  0  0  0  0  0  0  0  0  0
   57.0120   32.6990   50.0020 H   0  0  0  0  0  0  0  0  0  0  0  0
   58.2740   32.8010   51.0990 H   0  0  0  0  0  0  0  0  0  0  0  0
   55.9840   30.8220   44.1140 C   0  0  0  0  0  0  0  0  0  0  0  0
   55.4486   31.5886   43.5347 H   0  0  0  0  0  0  0  0  0  0  0  0
  1  2  1  0
  2  3  1  0
  3  4  1  0
  4  5  2  0
  5  6  1  0
  5  7  1  0
  7  8  1  0
  7  9  2  0
  9 10  1  0
  9 11  1  0
 11 12  1  0
 11 13  2  0
 13 14  1  0
 14 15  2  0
 15 16  1  0
 16 17  1  0
 16 18  1  0
 16 19  1  0
 19 20  1  0
 19 21  1  0
 19 22  1  0
 22 23  1  0
 22 24  1  0
 22 25  1  0
 25 26  1  0
 25 27  1  0
 25 28  1  0
 28 29  1  0
 28 30  1  0
 28 31  1  0
 31 32  1  0
 31 33  1  0
 31 34  1  0
 34 35  1  0
 34 36  1  0
 14 37  1  0
 37 38  1  0
 37  2  2  0
 13  4  1  0
M  CHG  1   3  -1
M  END
>  <UniqueID>  (3) 
3

>  <SMILES>  (3) 
NCCCCCC/N=c1/cc[n-]c2cc(Cl)ccc12

>  <Energy>  (3) 
51.142271025243176

>  <Genealogy>  (3) 
NCCCCCCN=c1cc[n-]c2cc(Cl)ccc12 (protonated)
NCCCCCC/N=c1/cc[n-]c2cc(Cl)ccc12 (cis-trans isomerization)
NCCCCCC/N=c1/cc[n-]c2cc(Cl)ccc12 (3D coordinates assigned)
NCCCCCC/N=c1/cc[n-]c2cc(Cl)ccc12 (optimized conformer: 51.142271025243176 kcal/mol)

>  <smiles>  (3) 
NCCCCCCN=c1cc[nH]c2cc(Cl)ccc12

>  <score_type>  (3) 
oracle

>  <origin>  (3) 
adg

>  <m_score__min__energy>  (3) 
-8.6099999999999994

>  <m_primary>  (3) 
energy

$$$$
3:0
     RDKit          3D

 37 38  0  0  0  0  0  0  0  0999 V2000
   54.9750   26.3070   45.9730 N   0  0  0  0  0  0  0  0  0  0  0  0
   56.5270   25.6800   46.4050 S   0  0  0  0  0  0  0  0  0  0  0  0
   57.0700   24.8420   45.2830 O   0  0  0  0  0  0  0  0  0  0  0  0
   56.3790   24.8250   47.6330 O   0  0  0  0  0  0  0  0  0  0  0  0
   57.6340   27.0090   46.7380 C   0  0  0  0  0  0  0  0  0  0  0  0
   58.4640   27.0220   47.8690 C   0  0  0  0  0  0  0  0  0  0  0  0
   59.2250   28.1760   47.9690 C   0  0  0  0  0  0  0  0  0  0  0  0
   60.3450   28.5540   49.2630 S   0  0  0  0  0  0  0  0  0  0  0  0
   61.4170   29.8120   48.7600 N   0  0  0  0  0  0  0  0  0  0  0  0
   59.5770   28.9990   50.4750 O   0  0  0  0  0  0  0  0  0  0  0  0
   61.1370   27.3260   49.6150 O   0  0  0  0  0  0  0  0  0  0  0  0
   58.8940   29.1720   46.6620 S   0  0  0  0  0  0  0  0  0  0  0  0
   57.7390   28.1660   45.9570 C   0  0  0  0  0  0  0  0  0  0  0  0
   57.0460   28.4320   44.6800 C   0  0  0  0  0  0  0  0  0  0  0  0
   57.6140   28.1130   43.6020 O   0  0  0  0  0  0  0  0  0  0  0  0
   55.7620   29.0680   44.6100 N   0  0  0  0  0  0  0  0  0  0  0  0
   55.4730   30.4240   44.1480 C   0  0  0  0  0  0  0  0  0  0  0  0
   56.7350   31.2980   44.1570 C   0  0  0  0  0  0  0  0  0  0  0  0
   56.6570   32.3630   45.1580 N   0  0  0  0  0  0  0  0  0  0  0  0
   57.6450   33.0530   45.6620 C   0  0  0  0  0  0  0  0  0  0  0  0
   58.1640   32.6670   46.9050 C   0  0  0  0  0  0  0  0  0  0  0  0
   59.2430   33.3630   47.4520 C   0  0  0  0  0  0  0  0  0  0  0  0
   59.7830   34.4180   46.7890 N   0  0  0  0  0  0  0  0  0  0  0  0
   59.2940   34.8290   45.5900 C   0  0  0  0  0  0  0  0  0  0  0  0
   58.2130   34.1630   45.0050 C   0  0  0  0  0  0  0  0  0  0  0  0
   55.1370   27.0760   45.2860 H   0  0  0  0  0  0  0  0  0  0  0  0
   58.5064   26.2015   48.6004 H   0  0  0  0  0  0  0  0  0  0  0  0
   62.1420   29.9110   49.5040 H   0  0  0  0  0  0  0  0  0  0  0  0
   60.8660   30.6990   48.7550 H   0  0  0  0  0  0  0  0  0  0  0  0
   55.0776   30.3764   43.1226 H   0  0  0  0  0  0  0  0  0  0  0  0
   54.7354   30.8728   44.8295 H   0  0  0  0  0  0  0  0  0  0  0  0
   57.6051   30.6632   44.3808 H   0  0  0  0  0  0  0  0  0  0  0  0
   56.8298   31.7683   43.1671 H   0  0  0  0  0  0  0  0  0  0  0  0
   57.7225   31.8183   47.4479 H   0  0  0  0  0  0  0  0  0  0  0  0
   59.6575   33.0559   48.4236 H   0  0  0  0  0  0  0  0  0  0  0  0
   59.7503   35.6889   45.0777 H   0  0  0  0  0  0  0  0  0  0  0  0
   57.8090   34.5025   44.0398 H   0  0  0  0  0  0  0  0  0  0  0  0
  1  2  1  0
  2  3  2  0
  2  4  2  0
  2  5  1  0
  5  6  1  0
  6  7  2  0
  7  8  1  0
  8  9  1  0
  8 10  2  0
  8 11  2  0
  7 12  1  0
 12 13  1  0
 13 14  1  0
 14 15  2  0
 14 16  1  0
 16 17  1  0
 17 18  1  0
 18 19  1  0
 19 20  2  3
 20 21  1  0
 21 22  2  0
 22 23  1  0
 23 24  1  0
 24 25  2  0
 13  5  2  0
 25 20  1  0
  1 26  1  0
  6 27  1  0
  9 28  1  0
  9 29  1  0
 17 30  1  0
 17 31  1  0
 18 32  1  0
 18 33  1  0
 21 34  1  0
 22 35  1  0
 24 36  1  0
 25 37  1  0
M  CHG  3   1  -1  16  -1  23  -1
M  END
>  <UniqueID>  (4) 
4

>  <SMILES>  (4) 
[NH-]S(=O)(=O)c1cc(S(N)(=O)=O)sc1C(=O)[N-]CCN=c1cc[n-]cc1

>  <Energy>  (4) 
61.83086602539356

>  <Genealogy>  (4) 
[NH-]S(=O)(=O)c1cc(S(N)(=O)=O)sc1C(=O)[N-]CCN=c1cc[n-]cc1 (protonated)
[NH-]S(=O)(=O)c1cc(S(N)(=O)=O)sc1C(=O)[N-]CCN=c1cc[n-]cc1 (3D coordinates assigned)
[NH-]S(=O)(=O)c1cc(S(N)(=O)=O)sc1C(=O)[N-]CCN=c1cc[n-]cc1 (optimized conformer: 61.83086602539356 kcal/mol)

>  <smiles>  (4) 
NS(=O)(=O)c1cc(S(N)(=O)=O)c(C(=O)NCCN=c2cc[nH]cc2)s1

>  <score_type>  (4) 
oracle

>  <origin>  (4) 
adg

>  <m_score__min__energy>  (4) 
-12.93

>  <m_primary>  (4) 
energy

$$$$
4:0
     RDKit          3D

 47 49  0  0  0  0  0  0  0  0999 V2000
   59.2700   34.2190   44.1020 O   0  0  0  0  0  0  0  0  0  0  0  0
   58.5260   33.8240   45.0390 C   0  0  0  0  0  0  0  0  0  0  0  0
   57.3270   32.9740   44.7100 C   0  0  0  0  0  0  0  0  0  0  0  0
   57.3950   31.6170   45.4160 C   0  0  0  0  0  0  0  0  0  0  0  0
   57.0900   30.5640   44.5020 O   0  0  0  0  0  0  0  0  0  0  0  0
   56.4200   29.3900   44.8710 C   0  0  0  0  0  0  0  0  0  0  0  0
   55.1590   29.3440   44.8150 O   0  0  0  0  0  0  0  0  0  0  0  0
   57.1810   28.2030   45.3360 C   0  0  0  0  0  0  0  0  0  0  0  0
   58.5890   28.2020   45.2560 C   0  0  0  0  0  0  0  0  0  0  0  0
   59.3270   27.0970   45.6900 C   0  0  0  0  0  0  0  0  0  0  0  0
   58.6740   25.9800   46.2100 C   0  0  0  0  0  0  0  0  0  0  0  0
   57.2810   25.9630   46.2970 C   0  0  0  0  0  0  0  0  0  0  0  0
   56.5320   27.0630   45.8650 C   0  0  0  0  0  0  0  0  0  0  0  0
   55.1460   27.0070   45.9740 O   0  0  0  0  0  0  0  0  0  0  0  0
   58.7800   34.3010   46.3680 N   0  0  0  0  0  0  0  0  0  0  0  0
   59.9010   33.9660   47.1960 C   0  0  0  0  0  0  0  0  0  0  0  0
   61.0970   33.4750   46.6470 C   0  0  0  0  0  0  0  0  0  0  0  0
   62.1810   33.1730   47.4750 C   0  0  0  0  0  0  0  0  0  0  0  0
   62.0940   33.3750   48.8640 C   0  0  0  0  0  0  0  0  0  0  0  0
   63.2070   33.0670   49.7250 N   0  0  0  0  0  0  0  0  0  0  0  0
   62.9720   32.7470   51.1360 C   0  0  0  0  0  0  0  0  0  0  0  0
   64.2070   33.1210   51.9610 C   0  0  0  0  0  0  0  0  0  0  0  0
   65.3740   32.5340   51.4150 O   0  0  0  0  0  0  0  0  0  0  0  0
   65.6240   33.0760   50.1300 C   0  0  0  0  0  0  0  0  0  0  0  0
   64.5060   32.6990   49.1530 C   0  0  0  0  0  0  0  0  0  0  0  0
   60.9100   33.9060   49.4030 C   0  0  0  0  0  0  0  0  0  0  0  0
   59.8260   34.2060   48.5720 C   0  0  0  0  0  0  0  0  0  0  0  0
   56.4160   33.4999   45.0319 H   0  0  0  0  0  0  0  0  0  0  0  0
   57.3132   32.7995   43.6240 H   0  0  0  0  0  0  0  0  0  0  0  0
   58.4086   31.4672   45.8162 H   0  0  0  0  0  0  0  0  0  0  0  0
   56.6595   31.6034   46.2338 H   0  0  0  0  0  0  0  0  0  0  0  0
   59.1118   29.0796   44.8480 H   0  0  0  0  0  0  0  0  0  0  0  0
   60.4248   27.1086   45.6212 H   0  0  0  0  0  0  0  0  0  0  0  0
   59.2569   25.1120   46.5517 H   0  0  0  0  0  0  0  0  0  0  0  0
   56.7693   25.0800   46.7074 H   0  0  0  0  0  0  0  0  0  0  0  0
   61.1805   33.3276   45.5601 H   0  0  0  0  0  0  0  0  0  0  0  0
   63.1084   32.7747   47.0377 H   0  0  0  0  0  0  0  0  0  0  0  0
   62.1030   33.3146   51.5002 H   0  0  0  0  0  0  0  0  0  0  0  0
   62.7774   31.6692   51.2383 H   0  0  0  0  0  0  0  0  0  0  0  0
   64.3211   34.2151   51.9634 H   0  0  0  0  0  0  0  0  0  0  0  0
   64.0717   32.7474   52.9867 H   0  0  0  0  0  0  0  0  0  0  0  0
   65.6820   34.1718   50.2060 H   0  0  0  0  0  0  0  0  0  0  0  0
   66.5734   32.6671   49.7538 H   0  0  0  0  0  0  0  0  0  0  0  0
   64.6531   33.2353   48.2040 H   0  0  0  0  0  0  0  0  0  0  0  0
   64.5306   31.6144   48.9711 H   0  0  0  0  0  0  0  0  0  0  0  0
   60.8353   34.0869   50.4855 H   0  0  0  0  0  0  0  0  0  0  0  0
   58.9087   34.6334   49.0031 H   0  0  0  0  0  0  0  0  0  0  0  0
  1  2  2  0
  2  3  1  0
  3  4  1  0
  4  5  1  0
  5  6  1  0
  6  7  2  0
  6  8  1  0
  8  9  2  0
  9 10  1  0
 10 11  2  0
 11 12  1  0
 12 13  2  0
 13 14  1  0
  2 15  1  0
 15 16  1  0
 16 17  2  0
 17 18  1  0
 18 19  2  0
 19 20  1  0
 20 21  1  0
 21 22  1  0
 22 23  1  0
 23 24  1  0
 24 25  1  0
 19 26  1  0
 26 27  2  0
 13  8  1  0
 27 16  1  0
 25 20  1  0
  3 28  1  0
  3 29  1  0
  4 30  1  0
  4 31  1  0
  9 32  1  0
 10 33  1  0
 11 34  1  0
 12 35  1  0
 17 36  1  0
 18 37  1  0
 21 38  1  0
 21 39  1  0
 22 40  1  0
 22 41  1  0
 24 42  1  0
 24 43  1  0
 25 44  1  0
 25 45  1  0
 26 46  1  0
 27 47  1  0
M  CHG  2  14  -1  15  -1
M  END
>  <UniqueID>  (5) 
5

>  <SMILES>  (5) 
O=C(CCOC(=O)c1ccccc1[O-])[N-]c1ccc(N2CCOCC2)cc1

>  <Energy>  (5) 
56.71402419117628

>  <Genealogy>  (5) 
O=C(CCOC(=O)c1ccccc1[O-])[N-]c1ccc(N2CCOCC2)cc1 (protonated)
O=C(CCOC(=O)c1ccccc1[O-])[N-]c1ccc(N2CCOCC2)cc1 (3D coordinates assigned)
O=C(CCOC(=O)c1ccccc1[O-])[N-]c1ccc(N2CCOCC2)cc1 (nonaromatic ring conformer: 56.71402419117628 kcal/mol)

>  <smiles>  (5) 
O=C(CCOC(=O)c1ccccc1O)Nc1ccc(N2CCOCC2)cc1

>  <score_type>  (5) 
oracle

>  <origin>  (5) 
adg

>  <m_score__min__energy>  (5) 
-14.210000000000001

>  <m_primary>  (5) 
energy

$$$$
5:0
     RDKit          3D

 41 41  0  0  0  0  0  0  0  0999 V2000
   57.6960   33.6850   44.6710 C   0  0  0  0  0  0  0  0  0  0  0  0
   59.3050   34.3810   45.1640 S   0  0  0  0  0  0  0  0  0  0  0  0
   58.8610   34.6570   46.9160 C   0  0  0  0  0  0  0  0  0  0  0  0
   58.2120   33.4030   47.4990 C   0  0  0  0  0  0  0  0  0  0  0  0
   59.2300   32.7030   48.7890 S   0  0  0  0  0  0  0  0  0  0  0  0
   58.6930   31.3510   49.1650 O   0  0  0  0  0  0  0  0  0  0  0  0
   59.1920   33.5980   49.9970 O   0  0  0  0  0  0  0  0  0  0  0  0
   60.8630   32.5310   48.2170 N   0  0  0  0  0  0  0  0  0  0  0  0
   60.8890   31.7190   46.9970 C   0  0  0  0  0  0  0  0  0  0  0  0
   61.1310   30.2490   47.3480 C   0  0  0  0  0  0  0  0  0  0  0  0
   60.1040   29.3620   46.6910 C   0  0  0  0  0  0  0  0  0  0  0  0
   60.3910   28.0130   46.4550 C   0  0  0  0  0  0  0  0  0  0  0  0
   59.4640   27.2000   45.8050 C   0  0  0  0  0  0  0  0  0  0  0  0
   58.2340   27.7240   45.3610 C   0  0  0  0  0  0  0  0  0  0  0  0
   57.3030   26.9170   44.6860 O   0  0  0  0  0  0  0  0  0  0  0  0
   56.9240   25.6020   45.0830 C   0  0  0  0  0  0  0  0  0  0  0  0
   55.9040   25.6940   46.1670 C   0  0  0  0  0  0  0  0  0  0  0  0
   54.8330   26.3270   45.9760 O   0  0  0  0  0  0  0  0  0  0  0  0
   56.1080   25.0330   47.3710 O   0  0  0  0  0  0  0  0  0  0  0  0
   57.9390   29.0900   45.5880 C   0  0  0  0  0  0  0  0  0  0  0  0
   56.6650   29.7060   45.1320 C   0  0  0  0  0  0  0  0  0  0  0  0
   56.6150   30.9130   44.7780 O   0  0  0  0  0  0  0  0  0  0  0  0
   55.4990   28.9490   45.0840 O   0  0  0  0  0  0  0  0  0  0  0  0
   58.8860   29.8940   46.2500 C   0  0  0  0  0  0  0  0  0  0  0  0
   57.1144   33.4334   45.5701 H   0  0  0  0  0  0  0  0  0  0  0  0
   57.1443   34.4249   44.0726 H   0  0  0  0  0  0  0  0  0  0  0  0
   57.8575   32.7763   44.0726 H   0  0  0  0  0  0  0  0  0  0  0  0
   59.7698   34.8954   47.4881 H   0  0  0  0  0  0  0  0  0  0  0  0
   58.1483   35.4925   46.9786 H   0  0  0  0  0  0  0  0  0  0  0  0
   57.2298   33.6669   47.9180 H   0  0  0  0  0  0  0  0  0  0  0  0
   58.0988   32.6591   46.6966 H   0  0  0  0  0  0  0  0  0  0  0  0
   61.2100   33.4890   47.9790 H   0  0  0  0  0  0  0  0  0  0  0  0
   59.9250   31.8146   46.4758 H   0  0  0  0  0  0  0  0  0  0  0  0
   61.7029   32.0724   46.3469 H   0  0  0  0  0  0  0  0  0  0  0  0
   62.1334   29.9566   47.0020 H   0  0  0  0  0  0  0  0  0  0  0  0
   61.0509   30.1307   48.4387 H   0  0  0  0  0  0  0  0  0  0  0  0
   61.3526   27.5922   46.7840 H   0  0  0  0  0  0  0  0  0  0  0  0
   59.6953   26.1378   45.6369 H   0  0  0  0  0  0  0  0  0  0  0  0
   56.4989   25.0655   44.2219 H   0  0  0  0  0  0  0  0  0  0  0  0
   57.8063   25.0571   45.4499 H   0  0  0  0  0  0  0  0  0  0  0  0
   58.6657   30.9576   46.4238 H   0  0  0  0  0  0  0  0  0  0  0  0
  1  2  1  0
  2  3  1  0
  3  4  1  0
  4  5  1  0
  5  6  2  0
  5  7  2  0
  5  8  1  0
  8  9  1  0
  9 10  1  0
 10 11  1  0
 11 12  2  0
 12 13  1  0
 13 14  2  0
 14 15  1  0
 15 16  1  0
 16 17  1  0
 17 18  2  0
 17 19  1  0
 14 20  1  0
 20 21  1  0
 21 22  2  0
 21 23  1  0
 20 24  2  0
 24 11  1  0
  1 25  1  0
  1 26  1  0
  1 27  1  0
  3 28  1  0
  3 29  1  0
  4 30  1  0
  4 31  1  0
  8 32  1  0
  9 33  1  0
  9 34  1  0
 10 35  1  0
 10 36  1  0
 12 37  1  0
 13 38  1  0
 16 39  1  0
 16 40  1  0
 24 41  1  0
M  CHG  2  19  -1  23  -1
M  END
>  <UniqueID>  (6) 
6

>  <SMILES>  (6) 
CSCCS(=O)(=O)NCCc1ccc(OCC(=O)[O-])c(C(=O)[O-])c1

>  <Energy>  (6) 
21.067355079064388

>  <Genealogy>  (6) 
CSCCS(=O)(=O)NCCc1ccc(OCC(=O)[O-])c(C(=O)[O-])c1 (protonated)
CSCCS(=O)(=O)NCCc1ccc(OCC(=O)[O-])c(C(=O)[O-])c1 (3D coordinates assigned)
CSCCS(=O)(=O)NCCc1ccc(OCC(=O)[O-])c(C(=O)[O-])c1 (optimized conformer: 21.067355079064388 kcal/mol)

>  <smiles>  (6) 
CSCCS(=O)(=O)NCCc1ccc(OCC(=O)O)c(C(=O)O)c1

>  <score_type>  (6) 
oracle

>  <origin>  (6) 
adg

>  <m_score__min__energy>  (6) 
-11.890000000000001

>  <m_primary>  (6) 
energy

$$$$
6:0
     RDKit          3D

 43 45  0  0  0  0  0  0  0  0999 V2000
   61.7270   30.5730   48.7100 O   0  0  0  0  0  0  0  0  0  0  0  0
   60.7380   30.2070   48.0210 C   0  0  0  0  0  0  0  0  0  0  0  0
   60.7110   30.5420   46.5540 C   0  0  0  0  0  0  0  0  0  0  0  0
   59.5340   31.3580   46.2430 N   0  0  0  0  0  0  0  0  0  0  0  0
   58.3300   30.7410   45.7550 C   0  0  0  0  0  0  0  0  0  0  0  0
   58.0310   29.4090   46.0820 C   0  0  0  0  0  0  0  0  0  0  0  0
   56.8470   28.8220   45.6260 C   0  0  0  0  0  0  0  0  0  0  0  0
   55.9590   29.5580   44.8340 C   0  0  0  0  0  0  0  0  0  0  0  0
   54.7800   28.9730   44.3830 O   0  0  0  0  0  0  0  0  0  0  0  0
   56.2560   30.8820   44.4950 C   0  0  0  0  0  0  0  0  0  0  0  0
   57.4380   31.4720   44.9540 C   0  0  0  0  0  0  0  0  0  0  0  0
   59.5770   33.0760   46.5100 S   0  0  0  0  0  0  0  0  0  0  0  0
   58.3300   33.5090   47.2310 O   0  0  0  0  0  0  0  0  0  0  0  0
   59.6210   33.7910   45.1880 O   0  0  0  0  0  0  0  0  0  0  0  0
   60.9960   33.4970   47.4630 C   0  0  0  0  0  0  0  0  0  0  0  0
   60.8680   33.8520   48.8160 C   0  0  0  0  0  0  0  0  0  0  0  0
   62.0030   34.1640   49.5700 C   0  0  0  0  0  0  0  0  0  0  0  0
   63.2700   34.1210   48.9800 C   0  0  0  0  0  0  0  0  0  0  0  0
   63.4030   33.7700   47.6330 C   0  0  0  0  0  0  0  0  0  0  0  0
   62.2690   33.4600   46.8750 C   0  0  0  0  0  0  0  0  0  0  0  0
   59.6680   29.5120   48.6740 N   0  0  0  0  0  0  0  0  0  0  0  0
   59.5490   29.3180   50.1130 C   0  0  0  0  0  0  0  0  0  0  0  0
   58.6200   30.3450   50.6720 C   0  0  0  0  0  0  0  0  0  0  0  0
   58.8380   31.7080   50.6810 C   0  0  0  0  0  0  0  0  0  0  0  0
   57.7420   32.2520   51.3170 C   0  0  0  0  0  0  0  0  0  0  0  0
   56.9290   31.1900   51.6580 C   0  0  0  0  0  0  0  0  0  0  0  0
   57.4820   30.0650   51.2640 O   0  0  0  0  0  0  0  0  0  0  0  0
   61.6209   31.1020   46.2923 H   0  0  0  0  0  0  0  0  0  0  0  0
   60.6645   29.6088   45.9734 H   0  0  0  0  0  0  0  0  0  0  0  0
   58.7303   28.8255   46.6988 H   0  0  0  0  0  0  0  0  0  0  0  0
   56.6132   27.7801   45.8902 H   0  0  0  0  0  0  0  0  0  0  0  0
   55.5604   31.4589   43.8678 H   0  0  0  0  0  0  0  0  0  0  0  0
   57.6699   32.5134   44.6863 H   0  0  0  0  0  0  0  0  0  0  0  0
   59.8727   33.8846   49.2832 H   0  0  0  0  0  0  0  0  0  0  0  0
   61.8993   34.4437   50.6288 H   0  0  0  0  0  0  0  0  0  0  0  0
   64.1624   34.3634   49.5757 H   0  0  0  0  0  0  0  0  0  0  0  0
   64.3999   33.7377   47.1692 H   0  0  0  0  0  0  0  0  0  0  0  0
   62.3758   33.1865   45.8149 H   0  0  0  0  0  0  0  0  0  0  0  0
   59.1518   28.3127   50.3171 H   0  0  0  0  0  0  0  0  0  0  0  0
   60.5384   29.4201   50.5827 H   0  0  0  0  0  0  0  0  0  0  0  0
   59.7035   32.2467   50.2679 H   0  0  0  0  0  0  0  0  0  0  0  0
   57.5536   33.3179   51.5131 H   0  0  0  0  0  0  0  0  0  0  0  0
   55.9645   31.2728   52.1803 H   0  0  0  0  0  0  0  0  0  0  0  0
  1  2  2  0
  2  3  1  0
  3  4  1  0
  4  5  1  0
  5  6  2  0
  6  7  1  0
  7  8  2  0
  8  9  1  0
  8 10  1  0
 10 11  2  0
  4 12  1  0
 12 13  2  0
 12 14  2  0
 12 15  1  0
 15 16  2  0
 16 17  1  0
 17 18  2  0
 18 19  1  0
 19 20  2  0
  2 21  1  0
 21 22  1  0
 22 23  1  0
 23 24  2  0
 24 25  1  0
 25 26  2  0
 26 27  1  0
 11  5  1  0
 20 15  1  0
 27 23  1  0
  3 28  1  0
  3 29  1  0
  6 30  1  0
  7 31  1  0
 10 32  1  0
 11 33  1  0
 16 34  1  0
 17 35  1  0
 18 36  1  0
 19 37  1  0
 20 38  1  0
 22 39  1  0
 22 40  1  0
 24 41  1  0
 25 42  1  0
 26 43  1  0
M  CHG  2   9  -1  21  -1
M  END
>  <UniqueID>  (7) 
7

>  <SMILES>  (7) 
O=C(CN(c1ccc([O-])cc1)S(=O)(=O)c1ccccc1)[N-]Cc1ccco1

>  <Energy>  (7) 
71.58578994398295

>  <Genealogy>  (7) 
O=C(CN(c1ccc([O-])cc1)S(=O)(=O)c1ccccc1)[N-]Cc1ccco1 (protonated)
O=C(CN(c1ccc([O-])cc1)S(=O)(=O)c1ccccc1)[N-]Cc1ccco1 (3D coordinates assigned)
O=C(CN(c1ccc([O-])cc1)S(=O)(=O)c1ccccc1)[N-]Cc1ccco1 (optimized conformer: 71.58578994398295 kcal/mol)

>  <smiles>  (7) 
O=C(CN(c1ccc(O)cc1)S(=O)(=O)c1ccccc1)NCc1ccco1

>  <score_type>  (7) 
oracle

>  <origin>  (7) 
adg

>  <m_score__min__energy>  (7) 
-11.73

>  <m_primary>  (7) 
energy

$$$$
7:0
     RDKit          3D

 27 28  0  0  0  0  0  0  0  0999 V2000
   54.3440   27.1260   46.3770 H   0  0  0  0  0  0  0  0  0  0  0  0
   55.1890   26.5740   46.2910 O   0  0  0  0  0  0  0  0  0  0  0  0
   56.3790   27.1300   45.8280 C   0  0  0  0  0  0  0  0  0  0  0  0
   57.5910   26.4470   45.9920 C   0  0  0  0  0  0  0  0  0  0  0  0
   57.6063   25.4723   46.5016 H   0  0  0  0  0  0  0  0  0  0  0  0
   58.7790   26.9990   45.5110 C   0  0  0  0  0  0  0  0  0  0  0  0
   59.7266   26.4536   45.6314 H   0  0  0  0  0  0  0  0  0  0  0  0
   58.7660   28.2430   44.8770 C   0  0  0  0  0  0  0  0  0  0  0  0
   59.7040   28.6669   44.4892 H   0  0  0  0  0  0  0  0  0  0  0  0
   57.5660   28.9580   44.7300 C   0  0  0  0  0  0  0  0  0  0  0  0
   57.6130   30.2710   44.0510 C   0  0  0  0  0  0  0  0  0  0  0  0
   58.1657   30.3533   43.1035 H   0  0  0  0  0  0  0  0  0  0  0  0
   57.0120   31.3650   44.5390 C   0  0  0  0  0  0  0  0  0  0  0  0
   55.9461   31.3056   44.8043 H   0  0  0  0  0  0  0  0  0  0  0  0
   57.7180   32.6460   44.7360 C   0  0  0  0  0  0  0  0  0  0  0  0
   57.7710   33.4500   43.7670 O   0  0  0  0  0  0  0  0  0  0  0  0
   58.3360   33.0400   46.0190 C   0  0  0  0  0  0  0  0  0  0  0  0
   58.4250   32.2640   47.1620 C   0  0  0  0  0  0  0  0  0  0  0  0
   58.0891   31.2232   47.2801 H   0  0  0  0  0  0  0  0  0  0  0  0
   59.0190   33.0560   48.1240 C   0  0  0  0  0  0  0  0  0  0  0  0
   59.2577   32.7667   49.1581 H   0  0  0  0  0  0  0  0  0  0  0  0
   59.2550   34.2820   47.5350 C   0  0  0  0  0  0  0  0  0  0  0  0
   59.7209   35.1432   48.0362 H   0  0  0  0  0  0  0  0  0  0  0  0
   58.8320   34.2690   46.2590 N   0  0  0  0  0  0  0  0  0  0  0  0
   58.8790   35.0680   45.5880 H   0  0  0  0  0  0  0  0  0  0  0  0
   56.3610   28.3790   45.1880 C   0  0  0  0  0  0  0  0  0  0  0  0
   55.1400   29.0140   44.9850 O   0  0  0  0  0  0  0  0  0  0  0  0
  1  2  1  0
  2  3  1  0
  3  4  2  0
  4  5  1  0
  4  6  1  0
  6  7  1  0
  6  8  2  0
  8  9  1  0
  8 10  1  0
 10 11  1  0
 11 12  1  0
 11 13  2  0
 13 14  1  0
 13 15  1  0
 15 16  2  0
 15 17  1  0
 17 18  2  0
 18 19  1  0
 18 20  1  0
 20 21  1  0
 20 22  2  0
 22 23  1  0
 22 24  1  0
 24 25  1  0
 10 26  2  0
 26 27  1  0
 26  3  1  0
 24 17  1  0
M  CHG  1  27  -1
M  END
>  <UniqueID>  (8) 
8

>  <SMILES>  (8) 
O=C(/C=C/c1cccc(O)c1[O-])c1ccc[nH]1

>  <Energy>  (8) 
60.21895827137462

>  <Genealogy>  (8) 
O=C(C=Cc1cccc(O)c1[O-])c1ccc[nH]1 (protonated)
O=C(/C=C/c1cccc(O)c1[O-])c1ccc[nH]1 (cis-trans isomerization)
O=C(/C=C/c1cccc(O)c1[O-])c1ccc[nH]1 (3D coordinates assigned)
O=C(/C=C/c1cccc(O)c1[O-])c1ccc[nH]1 (optimized conformer: 60.21895827137462 kcal/mol)

>  <smiles>  (8) 
O=C(C=Cc1cccc(O)c1O)c1ccc[nH]1

>  <score_type>  (8) 
oracle

>  <origin>  (8) 
adg

>  <m_score__min__energy>  (8) 
-11.220000000000001

>  <m_primary>  (8) 
energy

$$$$
8:0
     RDKit          3D

 53 57  0  0  0  0  0  0  0  0999 V2000
   57.8730   25.4960   46.8960 O   0  0  0  0  0  0  0  0  0  0  0  0
   56.8780   26.1640   46.5130 C   0  0  0  0  0  0  0  0  0  0  0  0
   55.5670   25.5950   46.6520 N   0  0  0  0  0  0  0  0  0  0  0  0
   54.8590   24.8060   45.6440 C   0  0  0  0  0  0  0  0  0  0  0  0
   55.7710   23.7810   45.0180 C   0  0  0  0  0  0  0  0  0  0  0  0
   55.7390   23.5500   43.6320 C   0  0  0  0  0  0  0  0  0  0  0  0
   56.6100   22.6240   43.0490 C   0  0  0  0  0  0  0  0  0  0  0  0
   57.5140   21.9160   43.8470 C   0  0  0  0  0  0  0  0  0  0  0  0
   57.5460   22.1320   45.2290 C   0  0  0  0  0  0  0  0  0  0  0  0
   58.4250   21.4440   46.0010 F   0  0  0  0  0  0  0  0  0  0  0  0
   56.6750   23.0570   45.8140 C   0  0  0  0  0  0  0  0  0  0  0  0
   57.1020   27.4730   45.8770 C   0  0  0  0  0  0  0  0  0  0  0  0
   58.2860   28.2070   45.9240 C   0  0  0  0  0  0  0  0  0  0  0  0
   57.9860   29.3980   45.3030 C   0  0  0  0  0  0  0  0  0  0  0  0
   58.7580   30.5420   45.1340 C   0  0  0  0  0  0  0  0  0  0  0  0
   58.1540   31.6650   44.5330 C   0  0  0  0  0  0  0  0  0  0  0  0
   58.8760   32.8930   44.3970 N   0  0  0  0  0  0  0  0  0  0  0  0
   58.6900   34.1680   45.5600 S   0  0  0  0  0  0  0  0  0  0  0  0
   57.2680   34.1930   46.0450 O   0  0  0  0  0  0  0  0  0  0  0  0
   58.9910   35.4850   44.9010 O   0  0  0  0  0  0  0  0  0  0  0  0
   59.7900   33.9480   46.9170 C   0  0  0  0  0  0  0  0  0  0  0  0
   59.3450   34.2080   48.2180 C   0  0  0  0  0  0  0  0  0  0  0  0
   60.2240   34.1070   49.2990 C   0  0  0  0  0  0  0  0  0  0  0  0
   61.5640   33.7520   49.0890 C   0  0  0  0  0  0  0  0  0  0  0  0
   62.4610   33.6710   50.1660 C   0  0  0  0  0  0  0  0  0  0  0  0
   63.7980   33.3310   49.9410 C   0  0  0  0  0  0  0  0  0  0  0  0
   64.2460   33.0600   48.6440 C   0  0  0  0  0  0  0  0  0  0  0  0
   63.3620   33.1310   47.5650 C   0  0  0  0  0  0  0  0  0  0  0  0
   62.0180   33.4810   47.7750 C   0  0  0  0  0  0  0  0  0  0  0  0
   61.1250   33.5780   46.6980 C   0  0  0  0  0  0  0  0  0  0  0  0
   56.8180   31.5830   44.0680 C   0  0  0  0  0  0  0  0  0  0  0  0
   56.0660   30.4080   44.2530 C   0  0  0  0  0  0  0  0  0  0  0  0
   56.6830   29.3320   44.8870 C   0  0  0  0  0  0  0  0  0  0  0  0
   56.1330   28.1540   45.2200 N   0  0  0  0  0  0  0  0  0  0  0  0
   54.0125   24.2902   46.1209 H   0  0  0  0  0  0  0  0  0  0  0  0
   54.5031   25.4852   44.8553 H   0  0  0  0  0  0  0  0  0  0  0  0
   55.0248   24.1007   43.0022 H   0  0  0  0  0  0  0  0  0  0  0  0
   56.5839   22.4527   41.9627 H   0  0  0  0  0  0  0  0  0  0  0  0
   58.2002   21.1890   43.3881 H   0  0  0  0  0  0  0  0  0  0  0  0
   56.6977   23.2184   46.9018 H   0  0  0  0  0  0  0  0  0  0  0  0
   59.2481   27.9016   46.3611 H   0  0  0  0  0  0  0  0  0  0  0  0
   59.8084   30.5699   45.4595 H   0  0  0  0  0  0  0  0  0  0  0  0
   59.2100   33.1690   43.4460 H   0  0  0  0  0  0  0  0  0  0  0  0
   58.2968   34.4936   48.3905 H   0  0  0  0  0  0  0  0  0  0  0  0
   59.8635   34.3067   50.3189 H   0  0  0  0  0  0  0  0  0  0  0  0
   62.1110   33.8754   51.1886 H   0  0  0  0  0  0  0  0  0  0  0  0
   64.4998   33.2764   50.7863 H   0  0  0  0  0  0  0  0  0  0  0  0
   65.2986   32.7899   48.4731 H   0  0  0  0  0  0  0  0  0  0  0  0
   63.7193   32.9122   46.5479 H   0  0  0  0  0  0  0  0  0  0  0  0
   61.4732   33.3629   45.6770 H   0  0  0  0  0  0  0  0  0  0  0  0
   56.3646   32.4456   43.5578 H   0  0  0  0  0  0  0  0  0  0  0  0
   55.0237   30.3413   43.9078 H   0  0  0  0  0  0  0  0  0  0  0  0
   55.1460   27.8520   45.0600 H   0  0  0  0  0  0  0  0  0  0  0  0
  1  2  2  0
  2  3  1  0
  3  4  1  0
  4  5  1  0
  5  6  2  0
  6  7  1  0
  7  8  2  0
  8  9  1  0
  9 10  1  0
  9 11  2  0
  2 12  1  0
 12 13  2  0
 13 14  1  0
 14 15  2  0
 15 16  1  0
 16 17  1  0
 17 18  1  0
 18 19  2  0
 18 20  2  0
 18 21  1  0
 21 22  2  0
 22 23  1  0
 23 24  2  0
 24 25  1  0
 25 26  2  0
 26 27  1  0
 27 28  2  0
 28 29  1  0
 29 30  2  0
 16 31  2  0
 31 32  1  0
 32 33  2  0
 33 34  1  0
 11  5  1  0
 34 12  1  0
 33 14  1  0
 30 21  1  0
 29 24  1  0
  4 35  1  0
  4 36  1  0
  6 37  1  0
  7 38  1  0
  8 39  1  0
 11 40  1  0
 13 41  1  0
 15 42  1  0
 17 43  1  0
 22 44  1  0
 23 45  1  0
 25 46  1  0
 26 47  1  0
 27 48  1  0
 28 49  1  0
 30 50  1  0
 31 51  1  0
 32 52  1  0
 34 53  1  0
M  CHG  1   3  -1
M  END
>  <UniqueID>  (9) 
9

>  <SMILES>  (9) 
O=C([N-]Cc1cccc(F)c1)c1cc2cc(NS(=O)(=O)c3ccc4ccccc4c3)ccc2[nH]1

>  <Energy>  (9) 
99.7801897772012

>  <Genealogy>  (9) 
O=C([N-]Cc1cccc(F)c1)c1cc2cc(NS(=O)(=O)c3ccc4ccccc4c3)ccc2[nH]1 (protonated)
O=C([N-]Cc1cccc(F)c1)c1cc2cc(NS(=O)(=O)c3ccc4ccccc4c3)ccc2[nH]1 (3D coordinates assigned)
O=C([N-]Cc1cccc(F)c1)c1cc2cc(NS(=O)(=O)c3ccc4ccccc4c3)ccc2[nH]1 (optimized conformer: 99.7801897772012 kcal/mol)

>  <smiles>  (9) 
O=C(NCc1cccc(F)c1)c1cc2cc(NS(=O)(=O)c3ccc4ccccc4c3)ccc2[nH]1

>  <score_type>  (9) 
oracle

>  <origin>  (9) 
adg

>  <m_score__min__energy>  (9) 
-13.4

>  <m_primary>  (9) 
energy

$$$$
9:0
     RDKit          3D

 45 47  0  0  1  0  0  0  0  0999 V2000
   63.3860   33.7040   48.6420 N   0  0  0  0  0  0  0  0  0  0  0  0
   62.8640   33.6170   47.3210 C   0  0  0  0  0  0  0  0  0  0  0  0
   63.6400   33.1990   46.4230 O   0  0  0  0  0  0  0  0  0  0  0  0
   61.4680   34.0190   47.1040 C   0  0  1  0  0  0  0  0  0  0  0  0
   60.6560   32.9210   46.4540 C   0  0  0  0  0  0  0  0  0  0  0  0
   59.2280   33.3580   46.6990 C   0  0  0  0  0  0  0  0  0  0  0  0
   59.2880   34.2840   47.8810 C   0  0  0  0  0  0  0  0  0  0  0  0
   60.7180   34.2130   48.4190 C   0  0  1  0  0  0  0  0  0  0  0  0
   60.9190   33.1010   49.2290 O   0  0  0  0  0  0  0  0  0  0  0  0
   60.0190   32.0990   49.5230 C   0  0  0  0  0  0  0  0  0  0  0  0
   60.0170   30.8550   48.9290 C   0  0  0  0  0  0  0  0  0  0  0  0
   59.0690   29.9210   49.2970 C   0  0  0  0  0  0  0  0  0  0  0  0
   59.0790   28.7690   48.7360 N   0  0  0  0  0  0  0  0  0  0  0  0
   58.9670   28.5860   47.3300 C   0  0  0  0  0  0  0  0  0  0  0  0
   59.8490   27.8140   46.6030 C   0  0  0  0  0  0  0  0  0  0  0  0
   59.7400   27.6370   45.2410 C   0  0  0  0  0  0  0  0  0  0  0  0
   58.7130   28.2520   44.5720 C   0  0  0  0  0  0  0  0  0  0  0  0
   57.8020   29.0350   45.2460 C   0  0  0  0  0  0  0  0  0  0  0  0
   56.5080   29.7990   44.3370 S   0  0  0  0  0  0  0  0  0  0  0  0
   56.6960   29.2740   42.7000 N   0  0  0  0  0  0  0  0  0  0  0  0
   56.6770   31.2780   44.4940 O   0  0  0  0  0  0  0  0  0  0  0  0
   55.1750   29.3380   44.8430 O   0  0  0  0  0  0  0  0  0  0  0  0
   57.9420   29.1870   46.5980 C   0  0  0  0  0  0  0  0  0  0  0  0
   58.1290   30.2050   50.2400 N   0  0  0  0  0  0  0  0  0  0  0  0
   58.1540   31.4300   50.8060 C   0  0  0  0  0  0  0  0  0  0  0  0
   59.0830   32.3630   50.4550 N   0  0  0  0  0  0  0  0  0  0  0  0
   64.1240   34.3610   48.9420 H   0  0  0  0  0  0  0  0  0  0  0  0
   62.9940   33.0610   49.3460 H   0  0  0  0  0  0  0  0  0  0  0  0
   61.5496   34.9328   46.4971 H   0  0  0  0  0  0  0  0  0  0  0  0
   60.8699   32.8568   45.3769 H   0  0  0  0  0  0  0  0  0  0  0  0
   60.8777   31.9224   46.8586 H   0  0  0  0  0  0  0  0  0  0  0  0
   58.8306   33.8841   45.8185 H   0  0  0  0  0  0  0  0  0  0  0  0
   58.5654   32.5001   46.8862 H   0  0  0  0  0  0  0  0  0  0  0  0
   59.0499   35.3120   47.5704 H   0  0  0  0  0  0  0  0  0  0  0  0
   58.5592   33.9919   48.6514 H   0  0  0  0  0  0  0  0  0  0  0  0
   61.0107   35.0750   49.0365 H   0  0  0  0  0  0  0  0  0  0  0  0
   60.7681   30.6073   48.1645 H   0  0  0  0  0  0  0  0  0  0  0  0
   60.6752   27.3182   47.1336 H   0  0  0  0  0  0  0  0  0  0  0  0
   60.4652   27.0123   44.6989 H   0  0  0  0  0  0  0  0  0  0  0  0
   58.6156   28.1185   43.4845 H   0  0  0  0  0  0  0  0  0  0  0  0
   57.6710   29.4960   42.4130 H   0  0  0  0  0  0  0  0  0  0  0  0
   56.4840   28.2650   42.6190 H   0  0  0  0  0  0  0  0  0  0  0  0
   57.2125   29.8123   47.1335 H   0  0  0  0  0  0  0  0  0  0  0  0
   57.4170   29.4890   50.5090 H   0  0  0  0  0  0  0  0  0  0  0  0
   57.4046   31.6819   51.5709 H   0  0  0  0  0  0  0  0  0  0  0  0
  1  2  1  0
  2  3  2  0
  2  4  1  0
  4  5  1  0
  5  6  1  0
  6  7  1  0
  7  8  1  0
  8  9  1  0
  9 10  1  0
 10 11  2  0
 11 12  1  0
 12 13  2  0
 13 14  1  0
 14 15  2  0
 15 16  1  0
 16 17  2  0
 17 18  1  0
 18 19  1  0
 19 20  1  0
 19 21  2  0
 19 22  2  0
 18 23  2  0
 12 24  1  0
 24 25  1  0
 25 26  2  0
  8  4  1  0
 26 10  1  0
 23 14  1  0
  1 27  1  0
  1 28  1  0
  4 29  1  6
  5 30  1  0
  5 31  1  0
  6 32  1  0
  6 33  1  0
  7 34  1  0
  7 35  1  0
  8 36  1  1
 11 37  1  0
 15 38  1  0
 16 39  1  0
 17 40  1  0
 20 41  1  0
 20 42  1  0
 23 43  1  0
 24 44  1  0
 25 45  1  0
M  END
>  <smiles>  (10) 
NC(=O)C1CCCC1Oc1cc(=Nc2cccc(S(N)(=O)=O)c2)[nH]cn1

>  <score_type>  (10) 
oracle

>  <origin>  (10) 
adg

>  <m_score__min__energy>  (10) 
-9.3300000000000001

>  <m_primary>  (10) 
energy

$$$$
10:0
     RDKit          3D

 64 68  0  0  0  0  0  0  0  0999 V2000
   57.5875   25.7693   44.0392 H   0  0  0  0  0  0  0  0  0  0  0  0
   56.8660   24.9970   44.3440 C   0  0  0  0  0  0  0  0  0  0  0  0
   56.8550   23.7620   43.6900 C   0  0  0  0  0  0  0  0  0  0  0  0
   57.5548   23.5743   42.8623 H   0  0  0  0  0  0  0  0  0  0  0  0
   55.9520   22.7570   44.0860 C   0  0  0  0  0  0  0  0  0  0  0  0
   55.8980   21.5030   43.4610 O   0  0  0  0  0  0  0  0  0  0  0  0
   57.0370   20.7930   42.9850 C   0  0  0  0  0  0  0  0  0  0  0  0
   57.6244   20.4268   43.8399 H   0  0  0  0  0  0  0  0  0  0  0  0
   56.7081   19.9397   42.3737 H   0  0  0  0  0  0  0  0  0  0  0  0
   57.6583   21.4641   42.3737 H   0  0  0  0  0  0  0  0  0  0  0  0
   55.0740   23.0090   45.1470 C   0  0  0  0  0  0  0  0  0  0  0  0
   54.3684   22.2288   45.4684 H   0  0  0  0  0  0  0  0  0  0  0  0
   55.0870   24.2440   45.8010 C   0  0  0  0  0  0  0  0  0  0  0  0
   54.4062   24.4232   46.6462 H   0  0  0  0  0  0  0  0  0  0  0  0
   55.9670   25.2590   45.3830 C   0  0  0  0  0  0  0  0  0  0  0  0
   56.0270   26.5280   46.0530 N   0  0  0  0  0  0  0  0  0  0  0  0
   56.9360   27.4510   45.8910 C   0  0  0  0  0  0  0  0  0  0  0  0
   56.5870   28.6990   45.4790 N   0  0  0  0  0  0  0  0  0  0  0  0
   57.4760   29.6750   45.2800 N   0  0  0  0  0  0  0  0  0  0  0  0
   56.9750   30.9490   44.8330 C   0  0  0  0  0  0  0  0  0  0  0  0
   55.8650   31.0000   44.2380 O   0  0  0  0  0  0  0  0  0  0  0  0
   57.7190   32.2040   45.0370 C   0  0  0  0  0  0  0  0  0  0  0  0
   57.9700   33.0440   44.0590 O   0  0  0  0  0  0  0  0  0  0  0  0
   58.6830   34.0440   44.4820 N   0  0  0  0  0  0  0  0  0  0  0  0
   59.0250   34.8280   43.8830 H   0  0  0  0  0  0  0  0  0  0  0  0
   58.9120   33.8760   45.7970 C   0  0  0  0  0  0  0  0  0  0  0  0
   59.7700   34.8020   46.6030 C   0  0  0  0  0  0  0  0  0  0  0  0
   59.6007   34.6193   47.6744 H   0  0  0  0  0  0  0  0  0  0  0  0
   60.8285   34.6229   46.3633 H   0  0  0  0  0  0  0  0  0  0  0  0
   59.5109   35.8438   46.3633 H   0  0  0  0  0  0  0  0  0  0  0  0
   58.2870   32.7040   46.2110 C   0  0  0  0  0  0  0  0  0  0  0  0
   58.1920   32.1570   47.6230 C   0  0  0  0  0  0  0  0  0  0  0  0
   58.4039   32.9760   48.3261 H   0  0  0  0  0  0  0  0  0  0  0  0
   57.1763   31.7509   47.7392 H   0  0  0  0  0  0  0  0  0  0  0  0
   59.1320   31.0470   47.9040 N   0  0  0  0  0  0  0  0  0  0  0  0
   58.5590   29.9370   48.7000 C   0  0  0  0  0  0  0  0  0  0  0  0
   57.4743   30.0935   48.7951 H   0  0  0  0  0  0  0  0  0  0  0  0
   58.7857   28.9965   48.1765 H   0  0  0  0  0  0  0  0  0  0  0  0
   59.1700   29.8500   50.1060 C   0  0  0  0  0  0  0  0  0  0  0  0
   58.9146   30.7658   50.6593 H   0  0  0  0  0  0  0  0  0  0  0  0
   58.7585   28.9549   50.5954 H   0  0  0  0  0  0  0  0  0  0  0  0
   60.6470   29.7090   50.0740 N   0  0  0  0  0  0  0  0  0  0  0  0
   61.0560   28.3060   50.2420 C   0  0  0  0  0  0  0  0  0  0  0  0
   61.1248   28.0700   51.3142 H   0  0  0  0  0  0  0  0  0  0  0  0
   60.3123   27.6481   49.7687 H   0  0  0  0  0  0  0  0  0  0  0  0
   62.0368   28.1508   49.7687 H   0  0  0  0  0  0  0  0  0  0  0  0
   61.2800   30.2940   48.8670 C   0  0  0  0  0  0  0  0  0  0  0  0
   62.2951   30.6320   49.1225 H   0  0  0  0  0  0  0  0  0  0  0  0
   61.3133   29.5230   48.0831 H   0  0  0  0  0  0  0  0  0  0  0  0
   60.4750   31.4850   48.3410 C   0  0  0  0  0  0  0  0  0  0  0  0
   60.3699   32.2329   49.1407 H   0  0  0  0  0  0  0  0  0  0  0  0
   61.0048   31.9221   47.4818 H   0  0  0  0  0  0  0  0  0  0  0  0
   58.8170   29.4370   45.4370 C   0  0  0  0  0  0  0  0  0  0  0  0
   59.6610   30.3420   45.1850 O   0  0  0  0  0  0  0  0  0  0  0  0
   59.2530   28.1690   45.8640 C   0  0  0  0  0  0  0  0  0  0  0  0
   60.6190   27.8900   46.0570 C   0  0  0  0  0  0  0  0  0  0  0  0
   61.3682   28.6751   45.8768 H   0  0  0  0  0  0  0  0  0  0  0  0
   61.0290   26.6220   46.4760 C   0  0  0  0  0  0  0  0  0  0  0  0
   62.0984   26.4122   46.6257 H   0  0  0  0  0  0  0  0  0  0  0  0
   60.0840   25.6210   46.7050 C   0  0  0  0  0  0  0  0  0  0  0  0
   60.4109   24.6241   47.0357 H   0  0  0  0  0  0  0  0  0  0  0  0
   58.7260   25.8800   46.5160 C   0  0  0  0  0  0  0  0  0  0  0  0
   57.9873   25.0851   46.6962 H   0  0  0  0  0  0  0  0  0  0  0  0
   58.2950   27.1560   46.0950 C   0  0  0  0  0  0  0  0  0  0  0  0
  1  2  1  0
  2  3  2  0
  3  4  1  0
  3  5  1  0
  5  6  1  0
  6  7  1  0
  7  8  1  0
  7  9  1  0
  7 10  1  0
  5 11  2  0
 11 12  1  0
 11 13  1  0
 13 14  1  0
 13 15  2  0
 15 16  1  0
 16 17  2  0
 17 18  1  0
 18 19  1  0
 19 20  1  0
 20 21  2  0
 20 22  1  0
 22 23  1  0
 23 24  1  0
 24 25  1  0
 24 26  2  0
 26 27  1  0
 27 28  1  0
 27 29  1  0
 27 30  1  0
 26 31  1  0
 31 32  1  0
 32 33  1  0
 32 34  1  0
 32 35  1  0
 35 36  1  0
 36 37  1  0
 36 38  1  0
 36 39  1  0
 39 40  1  0
 39 41  1  0
 39 42  1  0
 42 43  1  0
 43 44  1  0
 43 45  1  0
 43 46  1  0
 42 47  1  0
 47 48  1  0
 47 49  1  0
 47 50  1  0
 50 51  1  0
 50 52  1  0
 19 53  1  0
 53 54  2  0
 53 55  1  0
 55 56  2  0
 56 57  1  0
 56 58  1  0
 58 59  1  0
 58 60  2  0
 60 61  1  0
 60 62  1  0
 62 63  1  0
 62 64  2  0
 15  2  1  0
 64 17  1  0
 31 22  2  0
 50 35  1  0
 64 55  1  0
M  CHG  2  18  -1  24   1
M  END
>  <UniqueID>  (11) 
10

>  <SMILES>  (11) 
COc1ccc(/N=c2\[n-]n(C(=O)c3o[nH+]c(C)c3CN3CCN(C)CC3)c(=O)c3ccccc23)cc1

>  <Energy>  (11) 
132.92543756878177

>  <Genealogy>  (11) 
COc1ccc(N=c2[n-]n(C(=O)c3o[nH+]c(C)c3CN3CCN(C)CC3)c(=O)c3ccccc23)cc1 (protonated)
COc1ccc(/N=c2\[n-]n(C(=O)c3o[nH+]c(C)c3CN3CCN(C)CC3)c(=O)c3ccccc23)cc1 (cis-trans isomerization)
COc1ccc(/N=c2\[n-]n(C(=O)c3o[nH+]c(C)c3CN3CCN(C)CC3)c(=O)c3ccccc23)cc1 (3D coordinates assigned)
COc1ccc(/N=c2\[n-]n(C(=O)c3o[nH+]c(C)c3CN3CCN(C)CC3)c(=O)c3ccccc23)cc1 (nonaromatic ring conformer: 132.92543756878177 kcal/mol)

>  <smiles>  (11) 
COc1ccc(N=c2[nH]n(C(=O)c3onc(C)c3CN3CCN(C)CC3)c(=O)c3ccccc23)cc1

>  <score_type>  (11) 
oracle

>  <origin>  (11) 
adg

>  <m_score__min__energy>  (11) 
-10.81

>  <m_primary>  (11) 
energy

$$$$
11:0
     RDKit          3D

 50 51  0  0  0  0  0  0  0  0999 V2000
   57.3910   31.0390   50.8490 N   0  0  0  0  0  0  0  0  0  0  0  0
   58.7020   31.4560   50.4700 C   0  0  0  0  0  0  0  0  0  0  0  0
   59.5370   30.5430   49.7430 N   0  0  0  0  0  0  0  0  0  0  0  0
   59.1050   32.6460   50.8140 N   0  0  0  0  0  0  0  0  0  0  0  0
   60.4060   33.0340   51.3650 C   0  0  0  0  0  0  0  0  0  0  0  0
   61.3900   33.4050   50.2510 C   0  0  0  0  0  0  0  0  0  0  0  0
   61.9800   32.2310   49.6160 N   0  0  0  0  0  0  0  0  0  0  0  0
   62.5290   32.2300   48.2930 C   0  0  0  0  0  0  0  0  0  0  0  0
   63.7800   32.2210   48.1320 O   0  0  0  0  0  0  0  0  0  0  0  0
   61.6230   32.2130   47.0830 C   0  0  2  0  0  0  0  0  0  0  0  0
   61.1100   33.6280   46.7430 C   0  0  0  0  0  0  0  0  0  0  0  0
   59.6530   33.6440   46.3430 C   0  0  0  0  0  0  0  0  0  0  0  0
   59.2900   33.8120   44.9950 C   0  0  0  0  0  0  0  0  0  0  0  0
   57.9430   33.7990   44.6200 C   0  0  0  0  0  0  0  0  0  0  0  0
   56.9500   33.6160   45.5850 C   0  0  0  0  0  0  0  0  0  0  0  0
   57.3010   33.4470   46.9270 C   0  0  0  0  0  0  0  0  0  0  0  0
   58.6470   33.4610   47.3070 C   0  0  0  0  0  0  0  0  0  0  0  0
   60.4760   31.3240   47.2840 N   0  0  0  0  0  0  0  0  0  0  0  0
   60.4360   29.9110   47.0470 C   0  0  0  0  0  0  0  0  0  0  0  0
   60.7030   29.1320   48.0000 O   0  0  0  0  0  0  0  0  0  0  0  0
   60.0120   29.3350   45.7200 C   0  0  0  0  0  0  0  0  0  0  0  0
   58.6970   28.6040   45.8180 C   0  0  0  0  0  0  0  0  0  0  0  0
   58.6390   27.3150   46.3770 C   0  0  0  0  0  0  0  0  0  0  0  0
   57.4250   26.6260   46.4400 C   0  0  0  0  0  0  0  0  0  0  0  0
   56.2600   27.2100   45.9380 C   0  0  0  0  0  0  0  0  0  0  0  0
   55.0560   26.5170   45.9990 O   0  0  0  0  0  0  0  0  0  0  0  0
   56.3070   28.4900   45.3740 C   0  0  0  0  0  0  0  0  0  0  0  0
   55.1510   29.0760   44.8710 O   0  0  0  0  0  0  0  0  0  0  0  0
   57.5210   29.1840   45.3120 C   0  0  0  0  0  0  0  0  0  0  0  0
   56.7670   31.6790   51.3890 H   0  0  0  0  0  0  0  0  0  0  0  0
   57.0320   30.0980   50.5740 H   0  0  0  0  0  0  0  0  0  0  0  0
   59.1800   29.5900   49.5160 H   0  0  0  0  0  0  0  0  0  0  0  0
   60.4790   30.7940   49.3790 H   0  0  0  0  0  0  0  0  0  0  0  0
   60.2708   33.9012   52.0281 H   0  0  0  0  0  0  0  0  0  0  0  0
   60.8170   32.1799   51.9232 H   0  0  0  0  0  0  0  0  0  0  0  0
   60.8552   33.9885   49.4871 H   0  0  0  0  0  0  0  0  0  0  0  0
   62.2061   33.9867   50.7044 H   0  0  0  0  0  0  0  0  0  0  0  0
   62.2267   31.8369   46.2439 H   0  0  0  0  0  0  0  0  0  0  0  0
   61.2385   34.2699   47.6270 H   0  0  0  0  0  0  0  0  0  0  0  0
   61.6925   33.9932   45.8843 H   0  0  0  0  0  0  0  0  0  0  0  0
   60.0693   33.9543   44.2319 H   0  0  0  0  0  0  0  0  0  0  0  0
   57.6652   33.9330   43.5641 H   0  0  0  0  0  0  0  0  0  0  0  0
   55.8908   33.6049   45.2884 H   0  0  0  0  0  0  0  0  0  0  0  0
   56.5176   33.3027   47.6856 H   0  0  0  0  0  0  0  0  0  0  0  0
   58.9192   33.3283   48.3645 H   0  0  0  0  0  0  0  0  0  0  0  0
   59.9100   30.1543   44.9931 H   0  0  0  0  0  0  0  0  0  0  0  0
   60.7793   28.6144   45.4007 H   0  0  0  0  0  0  0  0  0  0  0  0
   59.5546   26.8464   46.7669 H   0  0  0  0  0  0  0  0  0  0  0  0
   57.3869   25.6212   46.8861 H   0  0  0  0  0  0  0  0  0  0  0  0
   57.5548   30.1885   44.8650 H   0  0  0  0  0  0  0  0  0  0  0  0
  1  2  1  0
  2  3  1  0
  2  4  2  3
  4  5  1  0
  5  6  1  0
  6  7  1  0
  7  8  1  0
  8  9  2  0
  8 10  1  0
 10 11  1  0
 11 12  1  0
 12 13  2  0
 13 14  1  0
 14 15  2  0
 15 16  1  0
 16 17  2  0
 10 18  1  0
 18 19  1  0
 19 20  2  0
 19 21  1  0
 21 22  1  0
 22 23  2  0
 23 24  1  0
 24 25  2  0
 25 26  1  0
 25 27  1  0
 27 28  1  0
 27 29  2  0
 17 12  1  0
 29 22  1  0
  1 30  1  0
  1 31  1  0
  3 32  1  0
  3 33  1  0
  5 34  1  0
  5 35  1  0
  6 36  1  0
  6 37  1  0
 10 38  1  6
 11 39  1  0
 11 40  1  0
 13 41  1  0
 14 42  1  0
 15 43  1  0
 16 44  1  0
 17 45  1  0
 21 46  1  0
 21 47  1  0
 23 48  1  0
 24 49  1  0
 29 50  1  0
M  CHG  4   7  -1  18  -1  26  -1  28  -1
M  END
>  <UniqueID>  (12) 
11

>  <SMILES>  (12) 
NC(N)=NCC[N-]C(=O)[C@H](Cc1ccccc1)[N-]C(=O)Cc1ccc([O-])c([O-])c1

>  <Energy>  (12) 
41.37428721664526

>  <Genealogy>  (12) 
NC(N)=NCC[N-]C(=O)C(Cc1ccccc1)[N-]C(=O)Cc1ccc([O-])c([O-])c1 (protonated)
NC(N)=NCC[N-]C(=O)[C@H](Cc1ccccc1)[N-]C(=O)Cc1ccc([O-])c([O-])c1 (chirality)
NC(N)=NCC[N-]C(=O)[C@H](Cc1ccccc1)[N-]C(=O)Cc1ccc([O-])c([O-])c1 (3D coordinates assigned)
NC(N)=NCC[N-]C(=O)[C@H](Cc1ccccc1)[N-]C(=O)Cc1ccc([O-])c([O-])c1 (optimized conformer: 41.37428721664526 kcal/mol)

>  <smiles>  (12) 
NC(N)=NCCNC(=O)C(Cc1ccccc1)NC(=O)Cc1ccc(O)c(O)c1

>  <score_type>  (12) 
oracle

>  <origin>  (12) 
adg

>  <m_score__min__energy>  (12) 
-16.82

>  <m_primary>  (12) 
energy

$$$$
12:0
     RDKit          3D

 40 42  0  0  0  0  0  0  0  0999 V2000
   56.3840   24.0850   47.5700 C   0  0  0  0  0  0  0  0  0  0  0  0
   56.0910   25.2910   46.8730 O   0  0  0  0  0  0  0  0  0  0  0  0
   57.0410   26.0700   46.1900 C   0  0  0  0  0  0  0  0  0  0  0  0
   57.4410   27.3330   46.6700 C   0  0  0  0  0  0  0  0  0  0  0  0
   58.3750   28.1020   45.9640 C   0  0  0  0  0  0  0  0  0  0  0  0
   58.7880   29.4220   46.4770 C   0  0  0  0  0  0  0  0  0  0  0  0
   59.7440   29.4670   47.5060 C   0  0  0  0  0  0  0  0  0  0  0  0
   60.1930   30.6920   48.0010 C   0  0  0  0  0  0  0  0  0  0  0  0
   59.6950   31.8830   47.4760 C   0  0  0  0  0  0  0  0  0  0  0  0
   58.7370   31.8540   46.4600 C   0  0  0  0  0  0  0  0  0  0  0  0
   58.2640   30.6310   45.9560 C   0  0  0  0  0  0  0  0  0  0  0  0
   57.0080   30.6580   44.7050 S   0  0  0  0  0  0  0  0  0  0  0  0
   57.7140   30.4890   43.1340 N   0  0  0  0  0  0  0  0  0  0  0  0
   56.2690   31.9660   44.7630 O   0  0  0  0  0  0  0  0  0  0  0  0
   56.0170   29.5520   44.9390 O   0  0  0  0  0  0  0  0  0  0  0  0
   58.8900   27.6280   44.7540 C   0  0  0  0  0  0  0  0  0  0  0  0
   58.5040   26.3780   44.2680 C   0  0  0  0  0  0  0  0  0  0  0  0
   57.5900   25.5840   44.9830 C   0  0  0  0  0  0  0  0  0  0  0  0
   57.2150   24.2520   44.4520 C   0  0  0  0  0  0  0  0  0  0  0  0
   55.9710   24.0350   43.8410 C   0  0  0  0  0  0  0  0  0  0  0  0
   55.6470   22.8010   43.3740 N   0  0  0  0  0  0  0  0  0  0  0  0
   56.5120   21.7590   43.4890 C   0  0  0  0  0  0  0  0  0  0  0  0
   56.1900   20.5910   43.0370 N   0  0  0  0  0  0  0  0  0  0  0  0
   57.7190   21.9430   44.0830 N   0  0  0  0  0  0  0  0  0  0  0  0
   58.0840   23.1570   44.5670 C   0  0  0  0  0  0  0  0  0  0  0  0
   56.3396   24.2678   48.6538 H   0  0  0  0  0  0  0  0  0  0  0  0
   55.6467   23.3156   47.2974 H   0  0  0  0  0  0  0  0  0  0  0  0
   57.3922   23.7396   47.2974 H   0  0  0  0  0  0  0  0  0  0  0  0
   57.0157   27.7188   47.6082 H   0  0  0  0  0  0  0  0  0  0  0  0
   60.1411   28.5302   47.9241 H   0  0  0  0  0  0  0  0  0  0  0  0
   60.9412   30.7176   48.8069 H   0  0  0  0  0  0  0  0  0  0  0  0
   60.0569   32.8473   47.8623 H   0  0  0  0  0  0  0  0  0  0  0  0
   58.3490   32.7983   46.0504 H   0  0  0  0  0  0  0  0  0  0  0  0
   57.7780   29.4680   42.9250 H   0  0  0  0  0  0  0  0  0  0  0  0
   58.6930   30.8530   43.1900 H   0  0  0  0  0  0  0  0  0  0  0  0
   59.6018   28.2422   44.1830 H   0  0  0  0  0  0  0  0  0  0  0  0
   58.9183   26.0108   43.3175 H   0  0  0  0  0  0  0  0  0  0  0  0
   55.2567   24.8654   43.7398 H   0  0  0  0  0  0  0  0  0  0  0  0
   56.7130   19.7330   43.3200 H   0  0  0  0  0  0  0  0  0  0  0  0
   59.0639   23.2827   45.0508 H   0  0  0  0  0  0  0  0  0  0  0  0
  1  2  1  0
  2  3  1  0
  3  4  2  0
  4  5  1  0
  5  6  1  0
  6  7  2  0
  7  8  1  0
  8  9  2  0
  9 10  1  0
 10 11  2  0
 11 12  1  0
 12 13  1  0
 12 14  2  0
 12 15  2  0
  5 16  2  0
 16 17  1  0
 17 18  2  0
 18 19  1  0
 19 20  1  0
 20 21  2  0
 21 22  1  0
 22 23  2  3
 22 24  1  0
 24 25  1  0
 18  3  1  0
 25 19  2  0
 11  6  1  0
  1 26  1  0
  1 27  1  0
  1 28  1  0
  4 29  1  0
  7 30  1  0
  8 31  1  0
  9 32  1  0
 10 33  1  0
 13 34  1  0
 13 35  1  0
 16 36  1  0
 17 37  1  0
 20 38  1  0
 23 39  1  0
 25 40  1  0
M  CHG  1  24  -1
M  END
>  <UniqueID>  (13) 
12

>  <SMILES>  (13) 
COc1cc(-c2ccccc2S(N)(=O)=O)ccc1-c1cnc(=N)[n-]c1

>  <Energy>  (13) 
56.545467840963994

>  <Genealogy>  (13) 
COc1cc(-c2ccccc2S(N)(=O)=O)ccc1-c1cnc(=N)[n-]c1 (protonated)
COc1cc(-c2ccccc2S(N)(=O)=O)ccc1-c1cnc(=N)[n-]c1 (3D coordinates assigned)
COc1cc(-c2ccccc2S(N)(=O)=O)ccc1-c1cnc(=N)[n-]c1 (optimized conformer: 56.545467840963994 kcal/mol)

>  <smiles>  (13) 
COc1cc(-c2ccccc2S(N)(=O)=O)ccc1-c1cnc(=N)[nH]c1

>  <score_type>  (13) 
oracle

>  <origin>  (13) 
adg

>  <m_score__min__energy>  (13) 
-10.210000000000001

>  <m_primary>  (13) 
energy

$$$$
13:0
     RDKit          3D

 23 24  0  0  0  0  0  0  0  0999 V2000
   57.0730   24.4720   43.4210 C   0  0  0  0  0  0  0  0  0  0  0  0
   56.6150   23.9620   44.5880 C   0  0  0  0  0  0  0  0  0  0  0  0
   56.9010   24.5650   45.8640 C   0  0  0  0  0  0  0  0  0  0  0  0
   57.7650   25.6160   45.9890 C   0  0  0  0  0  0  0  0  0  0  0  0
   57.4800   27.0240   45.6280 C   0  0  0  0  0  0  0  0  0  0  0  0
   56.1670   27.5210   45.6230 C   0  0  0  0  0  0  0  0  0  0  0  0
   55.1000   26.7100   45.9940 O   0  0  0  0  0  0  0  0  0  0  0  0
   55.9290   28.8040   45.2460 N   0  0  0  0  0  0  0  0  0  0  0  0
   56.9430   29.6180   44.8550 C   0  0  0  0  0  0  0  0  0  0  0  0
   56.6270   31.1550   44.4080 S   0  0  0  0  0  0  0  0  0  0  0  0
   58.2170   29.1510   44.8250 N   0  0  0  0  0  0  0  0  0  0  0  0
   58.5070   27.8770   45.1940 C   0  0  0  0  0  0  0  0  0  0  0  0
   59.7000   27.4740   45.1490 O   0  0  0  0  0  0  0  0  0  0  0  0
   56.2810   23.9750   47.0010 C   0  0  0  0  0  0  0  0  0  0  0  0
   56.4890   24.3990   48.1690 O   0  0  0  0  0  0  0  0  0  0  0  0
   55.4720   22.9010   46.8590 N   0  0  0  0  0  0  0  0  0  0  0  0
   55.2360   22.3380   45.6570 C   0  0  0  0  0  0  0  0  0  0  0  0
   54.4810   21.3320   45.5840 O   0  0  0  0  0  0  0  0  0  0  0  0
   55.8050   22.8500   44.5360 N   0  0  0  0  0  0  0  0  0  0  0  0
   55.5270   22.2340   43.3320 O   0  0  0  0  0  0  0  0  0  0  0  0
   56.8282   23.9759   42.4702 H   0  0  0  0  0  0  0  0  0  0  0  0
   57.6901   25.3826   43.4233 H   0  0  0  0  0  0  0  0  0  0  0  0
   58.7636   25.3965   46.3948 H   0  0  0  0  0  0  0  0  0  0  0  0
  1  2  2  0
  2  3  1  0
  3  4  2  3
  4  5  1  0
  5  6  2  0
  6  7  1  0
  6  8  1  0
  8  9  1  0
  9 10  2  0
  9 11  1  0
 11 12  1  0
 12 13  2  0
  3 14  1  0
 14 15  2  0
 14 16  1  0
 16 17  1  0
 17 18  2  0
 17 19  1  0
 19 20  1  0
 19  2  1  0
 12  5  1  0
  1 21  1  0
  1 22  1  0
  4 23  1  0
M  CHG  5   7  -1   8  -1  11  -1  16  -1  20  -1
M  END
>  <UniqueID>  (14) 
13

>  <SMILES>  (14) 
C=c1c(=Cc2c([O-])[n-]c(=S)[n-]c2=O)c(=O)[n-]c(=O)n1[O-]

>  <Energy>  (14) 
51.983686027099495

>  <Genealogy>  (14) 
C=c1c(=Cc2c([O-])[n-]c(=S)[n-]c2=O)c(=O)[n-]c(=O)n1[O-] (protonated)
C=c1c(=Cc2c([O-])[n-]c(=S)[n-]c2=O)c(=O)[n-]c(=O)n1[O-] (3D coordinates assigned)
C=c1c(=Cc2c([O-])[n-]c(=S)[n-]c2=O)c(=O)[n-]c(=O)n1[O-] (optimized conformer: 51.983686027099495 kcal/mol)

>  <smiles>  (14) 
C=c1c(=Cc2c(O)[nH]c(=S)[nH]c2=O)c(=O)[nH]c(=O)n1O

>  <score_type>  (14) 
oracle

>  <origin>  (14) 
adg

>  <m_score__min__energy>  (14) 
-16.57

>  <m_primary>  (14) 
energy

$$$$
14:0
     RDKit          3D

 32 34  0  0  0  0  0  0  0  0999 V2000
   53.9690   25.3870   45.6840 N   0  0  0  0  0  0  0  0  0  0  0  0
   55.3590   24.3800   45.4810 S   0  0  0  0  0  0  0  0  0  0  0  0
   55.3290   23.7900   44.0990 O   0  0  0  0  0  0  0  0  0  0  0  0
   55.3070   23.2780   46.5010 O   0  0  0  0  0  0  0  0  0  0  0  0
   56.8500   25.3070   45.6960 C   0  0  0  0  0  0  0  0  0  0  0  0
   58.0860   24.6190   45.7960 C   0  0  0  0  0  0  0  0  0  0  0  0
   59.2900   25.3200   45.9720 C   0  0  0  0  0  0  0  0  0  0  0  0
   59.2400   26.7080   46.0400 C   0  0  0  0  0  0  0  0  0  0  0  0
   60.2860   27.5390   46.2250 N   0  0  0  0  0  0  0  0  0  0  0  0
   59.7300   28.7730   46.2340 C   0  0  0  0  0  0  0  0  0  0  0  0
   60.4640   29.9280   46.4700 O   0  0  0  0  0  0  0  0  0  0  0  0
   58.3570   28.7200   46.0310 C   0  0  0  0  0  0  0  0  0  0  0  0
   57.4160   29.8030   46.0900 N   0  0  0  0  0  0  0  0  0  0  0  0
   57.3550   30.7770   45.2650 N   0  0  0  0  0  0  0  0  0  0  0  0
   57.9600   32.0660   45.4530 C   0  0  0  0  0  0  0  0  0  0  0  0
   58.1760   32.5320   46.7570 C   0  0  0  0  0  0  0  0  0  0  0  0
   58.7420   33.7930   46.9710 C   0  0  0  0  0  0  0  0  0  0  0  0
   59.0710   34.6050   45.8830 C   0  0  0  0  0  0  0  0  0  0  0  0
   59.6170   35.8290   46.0920 F   0  0  0  0  0  0  0  0  0  0  0  0
   58.8230   34.1650   44.5800 C   0  0  0  0  0  0  0  0  0  0  0  0
   58.2570   32.9040   44.3610 C   0  0  0  0  0  0  0  0  0  0  0  0
   57.9640   32.5210   43.0920 F   0  0  0  0  0  0  0  0  0  0  0  0
   58.0500   27.3850   45.9390 C   0  0  0  0  0  0  0  0  0  0  0  0
   56.8300   26.7270   45.7630 C   0  0  0  0  0  0  0  0  0  0  0  0
   55.6560   27.4750   45.6560 O   0  0  0  0  0  0  0  0  0  0  0  0
   54.2000   26.3170   45.2680 H   0  0  0  0  0  0  0  0  0  0  0  0
   58.1018   23.5208   45.7348 H   0  0  0  0  0  0  0  0  0  0  0  0
   60.2477   24.7851   46.0539 H   0  0  0  0  0  0  0  0  0  0  0  0
   57.8991   31.9032   47.6160 H   0  0  0  0  0  0  0  0  0  0  0  0
   58.9281   34.1454   47.9963 H   0  0  0  0  0  0  0  0  0  0  0  0
   59.0730   34.8107   43.7253 H   0  0  0  0  0  0  0  0  0  0  0  0
   54.7620   27.1560   46.0010 H   0  0  0  0  0  0  0  0  0  0  0  0
  1  2  1  0
  2  3  2  0
  2  4  2  0
  2  5  1  0
  5  6  2  0
  6  7  1  0
  7  8  2  0
  8  9  1  0
  9 10  1  0
 10 11  1  0
 10 12  2  0
 12 13  1  0
 13 14  2  3
 14 15  1  0
 15 16  2  0
 16 17  1  0
 17 18  2  0
 18 19  1  0
 18 20  1  0
 20 21  2  0
 21 22  1  0
 12 23  1  0
 23 24  2  0
 24 25  1  0
 24  5  1  0
 23  8  1  0
 21 15  1  0
  1 26  1  0
  6 27  1  0
  7 28  1  0
 16 29  1  0
 17 30  1  0
 20 31  1  0
 25 32  1  0
M  CHG  3   1  -1   9  -1  11  -1
M  END
>  <UniqueID>  (15) 
14

>  <SMILES>  (15) 
[NH-]S(=O)(=O)c1ccc2[n-]c([O-])c(N=Nc3ccc(F)cc3F)c2c1O

>  <Energy>  (15) 
84.63305601123272

>  <Genealogy>  (15) 
[NH-]S(=O)(=O)c1ccc2[n-]c([O-])c(N=Nc3ccc(F)cc3F)c2c1O (protonated)
[NH-]S(=O)(=O)c1ccc2[n-]c([O-])c(N=Nc3ccc(F)cc3F)c2c1O (3D coordinates assigned)
[NH-]S(=O)(=O)c1ccc2[n-]c([O-])c(N=Nc3ccc(F)cc3F)c2c1O (optimized conformer: 84.63305601123272 kcal/mol)

>  <smiles>  (15) 
NS(=O)(=O)c1ccc2[nH]c(O)c(N=Nc3ccc(F)cc3F)c2c1O

>  <score_type>  (15) 
oracle

>  <origin>  (15) 
adg

>  <m_score__min__energy>  (15) 
-13.06

>  <m_primary>  (15) 
energy

$$$$
15:0
     RDKit          3D

 57 59  0  0  1  0  0  0  0  0999 V2000
   58.0080   32.6850   48.2450 N   0  0  0  0  0  0  0  0  0  0  0  0
   58.3140   33.3580   47.2500 N   0  0  0  0  0  0  0  0  0  0  0  0
   58.6290   34.0390   46.2750 N   0  0  0  0  0  0  0  0  0  0  0  0
   58.8800   33.4270   44.9910 C   0  0  0  0  0  0  0  0  0  0  0  0
   57.6080   33.3510   44.1790 C   0  0  0  0  0  0  0  0  0  0  0  0
   57.8360   32.4520   43.0080 C   0  0  0  0  0  0  0  0  0  0  0  0
   57.0190   31.2070   42.9830 C   0  0  0  0  0  0  0  0  0  0  0  0
   57.3460   30.3430   44.1480 C   0  0  0  0  0  0  0  0  0  0  0  0
   56.7180   30.5140   45.2200 O   0  0  0  0  0  0  0  0  0  0  0  0
   58.3310   29.3420   44.1030 N   0  0  0  0  0  0  0  0  0  0  0  0
   58.5600   28.5740   45.2800 C   0  0  0  0  0  0  0  0  0  0  0  0
   57.8340   27.4010   45.4880 C   0  0  0  0  0  0  0  0  0  0  0  0
   58.0310   26.6330   46.6170 C   0  0  0  0  0  0  0  0  0  0  0  0
   61.2410   31.4530   53.2290 C   0  0  0  0  0  0  0  0  0  0  0  0
   60.2130   31.4340   52.2740 C   0  0  0  0  0  0  0  0  0  0  0  0
   60.6750   28.6660   48.3000 N   0  0  0  0  0  0  0  0  0  0  0  0
   60.9110   29.9050   48.4730 C   0  0  0  0  0  0  0  0  0  0  0  0
   61.5070   30.6710   47.5400 N   0  0  0  0  0  0  0  0  0  0  0  0
   61.7090   31.9720   47.8250 C   0  0  0  0  0  0  0  0  0  0  0  0
   61.3340   32.5240   49.0100 C   0  0  0  0  0  0  0  0  0  0  0  0
   61.6240   34.2140   49.3360 Cl  0  0  0  0  0  0  0  0  0  0  0  0
   60.7290   31.7260   49.9460 C   0  0  0  0  0  0  0  0  0  0  0  0
   60.3470   32.1850   51.0800 N   0  0  0  0  0  0  0  0  0  0  0  0
   59.7080   28.2220   47.3580 C   0  0  0  0  0  0  0  0  0  0  0  0
   58.9740   27.0650   47.5350 C   0  0  0  0  0  0  0  0  0  0  0  0
   61.1290   30.7480   54.4170 C   0  0  0  0  0  0  0  0  0  0  0  0
   59.9640   30.0170   54.6360 C   0  0  0  0  0  0  0  0  0  0  0  0
   58.9360   29.9820   53.7100 C   0  0  0  0  0  0  0  0  0  0  0  0
   59.0490   30.6930   52.5140 C   0  0  0  0  0  0  0  0  0  0  0  0
   57.7350   30.6320   51.3720 S   0  0  0  0  0  0  0  0  0  0  0  0
   57.4400   32.1960   50.6760 N   0  0  0  0  0  0  0  0  0  0  0  0
   58.0900   29.7190   50.2110 O   0  0  0  0  0  0  0  0  0  0  0  0
   56.4630   30.1950   52.0340 O   0  0  0  0  0  0  0  0  0  0  0  0
   60.5260   30.4380   49.6690 N   0  0  0  0  0  0  0  0  0  0  0  0
   59.5020   28.9880   46.2200 C   0  0  0  0  0  0  0  0  0  0  0  0
   59.6225   34.0265   44.4440 H   0  0  0  0  0  0  0  0  0  0  0  0
   59.2583   32.4068   45.1528 H   0  0  0  0  0  0  0  0  0  0  0  0
   56.7957   32.9479   44.8016 H   0  0  0  0  0  0  0  0  0  0  0  0
   57.3278   34.3556   43.8293 H   0  0  0  0  0  0  0  0  0  0  0  0
   57.6113   33.0225   42.0947 H   0  0  0  0  0  0  0  0  0  0  0  0
   58.8831   32.1230   43.0810 H   0  0  0  0  0  0  0  0  0  0  0  0
   55.9524   31.4737   43.0188 H   0  0  0  0  0  0  0  0  0  0  0  0
   57.2423   30.6548   42.0582 H   0  0  0  0  0  0  0  0  0  0  0  0
   58.8500   29.2040   43.2110 H   0  0  0  0  0  0  0  0  0  0  0  0
   57.0927   27.0834   44.7399 H   0  0  0  0  0  0  0  0  0  0  0  0
   57.4584   25.7085   46.7826 H   0  0  0  0  0  0  0  0  0  0  0  0
   62.1516   32.0376   53.0313 H   0  0  0  0  0  0  0  0  0  0  0  0
   61.7860   30.2260   46.6370 H   0  0  0  0  0  0  0  0  0  0  0  0
   62.1946   32.6107   47.0724 H   0  0  0  0  0  0  0  0  0  0  0  0
   59.1451   26.4636   48.4400 H   0  0  0  0  0  0  0  0  0  0  0  0
   61.9359   30.7653   55.1644 H   0  0  0  0  0  0  0  0  0  0  0  0
   59.8577   29.4505   55.5729 H   0  0  0  0  0  0  0  0  0  0  0  0
   58.0297   29.3938   53.9165 H   0  0  0  0  0  0  0  0  0  0  0  0
   58.2930   32.6900   50.3980 H   0  0  0  0  0  0  0  0  0  0  0  0
   56.7140   32.1760   49.9500 H   0  0  0  0  0  0  0  0  0  0  0  0
   60.0670   29.8340   50.3820 H   0  0  0  0  0  0  0  0  0  0  0  0
   60.0762   29.9127   46.0611 H   0  0  0  0  0  0  0  0  0  0  0  0
  1  2  2  0
  2  3  2  0
  3  4  1  0
  4  5  1  0
  5  6  1  0
  6  7  1  0
  7  8  1  0
  8  9  2  0
  8 10  1  0
 10 11  1  0
 11 12  2  0
 12 13  1  0
 13 14  2  0
 14 15  1  0
 15 16  1  0
 16 17  2  0
 17 18  1  0
 18 19  1  0
 19 20  2  0
 20 21  1  0
 20 22  1  0
 22 23  2  0
 23 24  1  0
 24 25  2  0
 25 26  1  0
 26 27  2  0
 27 28  1  0
 28 29  2  0
 29 30  1  0
 30 31  1  0
 30 32  2  0
 30 33  2  0
 22 34  1  0
 15 35  2  0
 35 11  1  0
 34 17  1  0
 29 24  1  0
  4 36  1  0
  4 37  1  0
  5 38  1  0
  5 39  1  0
  6 40  1  0
  6 41  1  0
  7 42  1  0
  7 43  1  0
 10 44  1  0
 12 45  1  0
 13 46  1  0
 14 47  1  0
 18 48  1  0
 19 49  1  0
 25 50  1  0
 26 51  1  0
 27 52  1  0
 28 53  1  0
 31 54  1  0
 31 55  1  0
 34 56  1  0
 35 57  1  0
M  CHG  2   1  -1   2   1
M  END
>  <smiles>  (16) 
[N-]=[N+]=NCCCCC(=O)Nc1cccc(N=c2[nH]cc(Cl)c(=Nc3ccccc3S(N)(=O)=O)[nH]2)c1

>  <score_type>  (16) 
oracle

>  <origin>  (16) 
adg

>  <m_score__min__energy>  (16) 
-10.279999999999999

>  <m_primary>  (16) 
energy

$$$$
16:0
     RDKit          3D

 39 41  0  0  0  0  0  0  0  0999 V2000
   63.2290   32.0540   47.7360 N   0  0  0  0  0  0  0  0  0  0  0  0
   62.7960   33.6910   47.3840 S   0  0  0  0  0  0  0  0  0  0  0  0
   63.7610   34.2420   46.3710 O   0  0  0  0  0  0  0  0  0  0  0  0
   62.8670   34.5070   48.6460 O   0  0  0  0  0  0  0  0  0  0  0  0
   61.1660   33.7480   46.7370 C   0  0  0  0  0  0  0  0  0  0  0  0
   60.5620   34.9740   46.4460 C   0  0  0  0  0  0  0  0  0  0  0  0
   59.2580   34.9900   45.9500 C   0  0  0  0  0  0  0  0  0  0  0  0
   58.5730   33.7910   45.7480 C   0  0  0  0  0  0  0  0  0  0  0  0
   59.2090   32.5700   46.0420 C   0  0  0  0  0  0  0  0  0  0  0  0
   58.5240   31.2640   45.8600 C   0  0  0  0  0  0  0  0  0  0  0  0
   57.6040   31.1000   44.8070 C   0  0  0  0  0  0  0  0  0  0  0  0
   56.9470   29.8800   44.6220 C   0  0  0  0  0  0  0  0  0  0  0  0
   57.1860   28.8040   45.4830 C   0  0  0  0  0  0  0  0  0  0  0  0
   56.4810   27.5760   45.2590 N   0  0  0  0  0  0  0  0  0  0  0  0
   57.2210   26.0240   45.0310 S   0  0  0  0  0  0  0  0  0  0  0  0
   58.3560   25.8790   46.0060 O   0  0  0  0  0  0  0  0  0  0  0  0
   57.7610   25.9470   43.6310 O   0  0  0  0  0  0  0  0  0  0  0  0
   56.0360   24.7320   45.2550 C   0  0  0  0  0  0  0  0  0  0  0  0
   56.4040   23.4000   45.0110 C   0  0  0  0  0  0  0  0  0  0  0  0
   55.4760   22.3690   45.1820 C   0  0  0  0  0  0  0  0  0  0  0  0
   54.1770   22.6600   45.6060 C   0  0  0  0  0  0  0  0  0  0  0  0
   53.8060   23.9820   45.8640 C   0  0  0  0  0  0  0  0  0  0  0  0
   54.7300   25.0190   45.6940 C   0  0  0  0  0  0  0  0  0  0  0  0
   54.3430   26.3250   45.9700 O   0  0  0  0  0  0  0  0  0  0  0  0
   58.0960   28.9630   46.5430 C   0  0  0  0  0  0  0  0  0  0  0  0
   58.7550   30.1820   46.7310 C   0  0  0  0  0  0  0  0  0  0  0  0
   60.4810   32.5910   46.5330 N   0  0  0  0  0  0  0  0  0  0  0  0
   62.4240   31.4540   47.4440 H   0  0  0  0  0  0  0  0  0  0  0  0
   61.1081   35.9153   46.6061 H   0  0  0  0  0  0  0  0  0  0  0  0
   58.7697   35.9480   45.7181 H   0  0  0  0  0  0  0  0  0  0  0  0
   57.5431   33.8000   45.3617 H   0  0  0  0  0  0  0  0  0  0  0  0
   57.4006   31.9384   44.1245 H   0  0  0  0  0  0  0  0  0  0  0  0
   56.2352   29.7652   43.7913 H   0  0  0  0  0  0  0  0  0  0  0  0
   57.4278   23.1662   44.6836 H   0  0  0  0  0  0  0  0  0  0  0  0
   55.7686   21.3276   44.9826 H   0  0  0  0  0  0  0  0  0  0  0  0
   53.4463   21.8482   45.7367 H   0  0  0  0  0  0  0  0  0  0  0  0
   52.7840   24.2085   46.2019 H   0  0  0  0  0  0  0  0  0  0  0  0
   58.2905   28.1244   47.2278 H   0  0  0  0  0  0  0  0  0  0  0  0
   59.4605   30.2967   47.5672 H   0  0  0  0  0  0  0  0  0  0  0  0
  1  2  1  0
  2  3  2  0
  2  4  2  0
  2  5  1  0
  5  6  2  0
  6  7  1  0
  7  8  2  0
  8  9  1  0
  9 10  1  0
 10 11  2  0
 11 12  1  0
 12 13  2  0
 13 14  1  0
 14 15  1  0
 15 16  2  0
 15 17  2  0
 15 18  1  0
 18 19  2  0
 19 20  1  0
 20 21  2  0
 21 22  1  0
 22 23  2  0
 23 24  1  0
 13 25  1  0
 25 26  2  0
  9 27  2  0
 27  5  1  0
 26 10  1  0
 23 18  1  0
  1 28  1  0
  6 29  1  0
  7 30  1  0
  8 31  1  0
 11 32  1  0
 12 33  1  0
 19 34  1  0
 20 35  1  0
 21 36  1  0
 22 37  1  0
 25 38  1  0
 26 39  1  0
M  CHG  3   1  -1  14  -1  24  -1
M  END
>  <UniqueID>  (17) 
15

>  <SMILES>  (17) 
[NH-]S(=O)(=O)c1cccc(-c2ccc([N-]S(=O)(=O)c3ccccc3[O-])cc2)n1

>  <Energy>  (17) 
49.79808730739532

>  <Genealogy>  (17) 
[NH-]S(=O)(=O)c1cccc(-c2ccc([N-]S(=O)(=O)c3ccccc3[O-])cc2)n1 (protonated)
[NH-]S(=O)(=O)c1cccc(-c2ccc([N-]S(=O)(=O)c3ccccc3[O-])cc2)n1 (3D coordinates assigned)
[NH-]S(=O)(=O)c1cccc(-c2ccc([N-]S(=O)(=O)c3ccccc3[O-])cc2)n1 (optimized conformer: 49.79808730739532 kcal/mol)

>  <smiles>  (17) 
NS(=O)(=O)c1cccc(-c2ccc(NS(=O)(=O)c3ccccc3O)cc2)n1

>  <score_type>  (17) 
oracle

>  <origin>  (17) 
adg

>  <m_score__min__energy>  (17) 
-14.1

>  <m_primary>  (17) 
energy

$$$$
17:0
     RDKit          3D

 55 57  0  0  0  0  0  0  0  0999 V2000
   56.2840   23.5470   43.1060 C   0  0  0  0  0  0  0  0  0  0  0  0
   55.9350   22.2370   43.6830 N   0  0  0  0  0  0  0  0  0  0  0  0
   57.1580   21.4310   43.8360 C   0  0  0  0  0  0  0  0  0  0  0  0
   55.2640   22.3850   44.9950 C   0  0  0  0  0  0  0  0  0  0  0  0
   56.1900   23.0310   46.0350 C   0  0  0  0  0  0  0  0  0  0  0  0
   55.5680   24.2160   46.6090 N   0  0  0  0  0  0  0  0  0  0  0  0
   55.8280   25.5300   46.1170 C   0  0  0  0  0  0  0  0  0  0  0  0
   54.8720   26.3400   45.9970 O   0  0  0  0  0  0  0  0  0  0  0  0
   57.1450   25.9180   45.8290 O   0  0  0  0  0  0  0  0  0  0  0  0
   57.6150   27.2390   45.8040 C   0  0  0  0  0  0  0  0  0  0  0  0
   58.6400   27.6880   46.6560 C   0  0  0  0  0  0  0  0  0  0  0  0
   59.0630   29.0190   46.6110 C   0  0  0  0  0  0  0  0  0  0  0  0
   58.4670   29.9220   45.7170 C   0  0  0  0  0  0  0  0  0  0  0  0
   57.4350   29.4800   44.8650 C   0  0  0  0  0  0  0  0  0  0  0  0
   57.0030   28.1470   44.9320 C   0  0  0  0  0  0  0  0  0  0  0  0
   56.7270   30.4580   43.9570 C   0  0  0  0  0  0  0  0  0  0  0  0
   57.6830   31.5550   43.4760 C   0  0  0  0  0  0  0  0  0  0  0  0
   58.3620   32.1830   44.6170 N   0  0  0  0  0  0  0  0  0  0  0  0
   58.6180   33.6290   44.6180 C   0  0  0  0  0  0  0  0  0  0  0  0
   58.0690   34.2640   45.8910 C   0  0  0  0  0  0  0  0  0  0  0  0
   59.0850   35.0570   46.5010 O   0  0  0  0  0  0  0  0  0  0  0  0
   60.2020   34.5360   47.1690 C   0  0  0  0  0  0  0  0  0  0  0  0
   61.3310   34.1960   46.4130 C   0  0  0  0  0  0  0  0  0  0  0  0
   62.4700   33.6730   47.0340 C   0  0  0  0  0  0  0  0  0  0  0  0
   62.4880   33.4860   48.4190 C   0  0  0  0  0  0  0  0  0  0  0  0
   61.3680   33.8230   49.1830 C   0  0  0  0  0  0  0  0  0  0  0  0
   60.2270   34.3460   48.5660 C   0  0  0  0  0  0  0  0  0  0  0  0
   58.8970   31.3350   45.6500 C   0  0  0  0  0  0  0  0  0  0  0  0
   59.7130   31.7940   46.4950 O   0  0  0  0  0  0  0  0  0  0  0  0
   56.4754   24.2655   43.9167 H   0  0  0  0  0  0  0  0  0  0  0  0
   57.1865   23.4456   42.4853 H   0  0  0  0  0  0  0  0  0  0  0  0
   55.4507   23.9080   42.4853 H   0  0  0  0  0  0  0  0  0  0  0  0
   57.3725   21.2896   44.9056 H   0  0  0  0  0  0  0  0  0  0  0  0
   57.0133   20.4507   43.3584 H   0  0  0  0  0  0  0  0  0  0  0  0
   58.0017   21.9506   43.3584 H   0  0  0  0  0  0  0  0  0  0  0  0
   54.3721   23.0166   44.8703 H   0  0  0  0  0  0  0  0  0  0  0  0
   54.9891   21.3827   45.3553 H   0  0  0  0  0  0  0  0  0  0  0  0
   56.3949   22.3060   46.8365 H   0  0  0  0  0  0  0  0  0  0  0  0
   57.1271   23.3265   45.5406 H   0  0  0  0  0  0  0  0  0  0  0  0
   59.1111   26.9877   47.3615 H   0  0  0  0  0  0  0  0  0  0  0  0
   59.8670   29.3607   47.2795 H   0  0  0  0  0  0  0  0  0  0  0  0
   56.1737   27.8114   44.2919 H   0  0  0  0  0  0  0  0  0  0  0  0
   56.3325   29.9171   43.0842 H   0  0  0  0  0  0  0  0  0  0  0  0
   55.9091   30.9298   44.5213 H   0  0  0  0  0  0  0  0  0  0  0  0
   58.4350   31.1117   42.8066 H   0  0  0  0  0  0  0  0  0  0  0  0
   57.1037   32.3219   42.9410 H   0  0  0  0  0  0  0  0  0  0  0  0
   59.7024   33.8053   44.5633 H   0  0  0  0  0  0  0  0  0  0  0  0
   58.1178   34.0810   43.7488 H   0  0  0  0  0  0  0  0  0  0  0  0
   57.2071   34.9003   45.6415 H   0  0  0  0  0  0  0  0  0  0  0  0
   57.7512   33.4745   46.5879 H   0  0  0  0  0  0  0  0  0  0  0  0
   61.3219   34.3414   45.3227 H   0  0  0  0  0  0  0  0  0  0  0  0
   63.3520   33.4088   46.4321 H   0  0  0  0  0  0  0  0  0  0  0  0
   63.3834   33.0738   48.9071 H   0  0  0  0  0  0  0  0  0  0  0  0
   61.3836   33.6766   50.2731 H   0  0  0  0  0  0  0  0  0  0  0  0
   59.3474   34.6096   49.1717 H   0  0  0  0  0  0  0  0  0  0  0  0
  1  2  1  0
  2  3  1  0
  2  4  1  0
  4  5  1  0
  5  6  1  0
  6  7  1  0
  7  8  2  0
  7  9  1  0
  9 10  1  0
 10 11  2  0
 11 12  1  0
 12 13  2  0
 13 14  1  0
 14 15  2  0
 14 16  1  0
 16 17  1  0
 17 18  1  0
 18 19  1  0
 19 20  1  0
 20 21  1  0
 21 22  1  0
 22 23  2  0
 23 24  1  0
 24 25  2  0
 25 26  1  0
 26 27  2  0
 18 28  1  0
 28 29  2  0
 15 10  1  0
 27 22  1  0
 28 13  1  0
  1 30  1  0
  1 31  1  0
  1 32  1  0
  3 33  1  0
  3 34  1  0
  3 35  1  0
  4 36  1  0
  4 37  1  0
  5 38  1  0
  5 39  1  0
 11 40  1  0
 12 41  1  0
 15 42  1  0
 16 43  1  0
 16 44  1  0
 17 45  1  0
 17 46  1  0
 19 47  1  0
 19 48  1  0
 20 49  1  0
 20 50  1  0
 23 51  1  0
 24 52  1  0
 25 53  1  0
 26 54  1  0
 27 55  1  0
M  CHG  1   6  -1
M  END
>  <UniqueID>  (18) 
16

>  <SMILES>  (18) 
CN(C)CC[N-]C(=O)Oc1ccc2c(c1)CCN(CCOc1ccccc1)C2=O

>  <Energy>  (18) 
55.50822542455449

>  <Genealogy>  (18) 
CN(C)CC[N-]C(=O)Oc1ccc2c(c1)CCN(CCOc1ccccc1)C2=O (protonated)
CN(C)CC[N-]C(=O)Oc1ccc2c(c1)CCN(CCOc1ccccc1)C2=O (3D coordinates assigned)
CN(C)CC[N-]C(=O)Oc1ccc2c(c1)CCN(CCOc1ccccc1)C2=O (nonaromatic ring conformer: 55.50822542455449 kcal/mol)

>  <smiles>  (18) 
CN(C)CCNC(=O)Oc1ccc2c(c1)CCN(CCOc1ccccc1)C2=O

>  <score_type>  (18) 
oracle

>  <origin>  (18) 
adg

>  <m_score__min__energy>  (18) 
-9.8399999999999999

>  <m_primary>  (18) 
energy

$$$$
18:0
     RDKit          3D

 54 56  0  0  0  0  0  0  0  0999 V2000
   58.0970   24.7140   45.3940 C   0  0  0  0  0  0  0  0  0  0  0  0
   58.1830   25.6420   46.4710 O   0  0  0  0  0  0  0  0  0  0  0  0
   58.0800   27.0350   46.3320 C   0  0  0  0  0  0  0  0  0  0  0  0
   57.0240   27.6490   45.6450 C   0  0  0  0  0  0  0  0  0  0  0  0
   56.9590   29.0490   45.5170 C   0  0  0  0  0  0  0  0  0  0  0  0
   55.9010   29.6550   44.8190 O   0  0  0  0  0  0  0  0  0  0  0  0
   55.8110   29.7660   43.4020 C   0  0  0  0  0  0  0  0  0  0  0  0
   57.9790   29.8520   46.0950 C   0  0  0  0  0  0  0  0  0  0  0  0
   58.0030   31.2560   45.9850 O   0  0  0  0  0  0  0  0  0  0  0  0
   58.0910   32.0210   44.7900 C   0  0  0  0  0  0  0  0  0  0  0  0
   59.0380   29.2260   46.7970 C   0  0  0  0  0  0  0  0  0  0  0  0
   60.1540   30.0050   47.3940 C   0  0  0  0  0  0  0  0  0  0  0  0
   61.1060   29.3910   47.9480 O   0  0  0  0  0  0  0  0  0  0  0  0
   60.1520   31.4400   47.3990 N   0  0  0  0  0  0  0  0  0  0  0  0
   61.3580   32.1720   47.6580 C   0  0  0  0  0  0  0  0  0  0  0  0
   62.5860   31.6240   47.2620 C   0  0  0  0  0  0  0  0  0  0  0  0
   63.7640   32.3640   47.3950 C   0  0  0  0  0  0  0  0  0  0  0  0
   63.7240   33.6540   47.9270 C   0  0  0  0  0  0  0  0  0  0  0  0
   62.5110   34.2000   48.3510 C   0  0  0  0  0  0  0  0  0  0  0  0
   61.3200   33.4640   48.2340 C   0  0  0  0  0  0  0  0  0  0  0  0
   60.0810   34.0050   48.8280 C   0  0  0  0  0  0  0  0  0  0  0  0
   59.3500   34.7690   48.1440 O   0  0  0  0  0  0  0  0  0  0  0  0
   59.6430   33.6210   50.1330 N   0  0  0  0  0  0  0  0  0  0  0  0
   58.9730   32.0650   50.4920 S   0  0  0  0  0  0  0  0  0  0  0  0
   58.0790   32.1830   51.6910 O   0  0  0  0  0  0  0  0  0  0  0  0
   58.1660   31.5730   49.3230 O   0  0  0  0  0  0  0  0  0  0  0  0
   60.2750   30.9320   50.8470 C   0  0  0  0  0  0  0  0  0  0  0  0
   60.0140   29.5550   50.9040 C   0  0  0  0  0  0  0  0  0  0  0  0
   61.0480   28.6510   51.1660 C   0  0  0  0  0  0  0  0  0  0  0  0
   62.3490   29.1190   51.3740 C   0  0  0  0  0  0  0  0  0  0  0  0
   63.3530   28.2430   51.6240 F   0  0  0  0  0  0  0  0  0  0  0  0
   62.6150   30.4920   51.3210 C   0  0  0  0  0  0  0  0  0  0  0  0
   61.5810   31.3970   51.0600 C   0  0  0  0  0  0  0  0  0  0  0  0
   59.0730   27.8270   46.8990 C   0  0  0  0  0  0  0  0  0  0  0  0
   58.0025   23.6942   45.7954 H   0  0  0  0  0  0  0  0  0  0  0  0
   57.2167   24.9484   44.7774 H   0  0  0  0  0  0  0  0  0  0  0  0
   59.0054   24.7827   44.7774 H   0  0  0  0  0  0  0  0  0  0  0  0
   56.2338   27.0271   45.1990 H   0  0  0  0  0  0  0  0  0  0  0  0
   55.1380   30.5961   43.1412 H   0  0  0  0  0  0  0  0  0  0  0  0
   56.8104   29.9595   42.9852 H   0  0  0  0  0  0  0  0  0  0  0  0
   55.4151   28.8282   42.9852 H   0  0  0  0  0  0  0  0  0  0  0  0
   58.2133   33.0844   45.0435 H   0  0  0  0  0  0  0  0  0  0  0  0
   58.9561   31.6826   44.2009 H   0  0  0  0  0  0  0  0  0  0  0  0
   57.1716   31.8879   44.2009 H   0  0  0  0  0  0  0  0  0  0  0  0
   59.2390   31.9410   47.4720 H   0  0  0  0  0  0  0  0  0  0  0  0
   62.6225   30.6069   46.8447 H   0  0  0  0  0  0  0  0  0  0  0  0
   64.7241   31.9293   47.0800 H   0  0  0  0  0  0  0  0  0  0  0  0
   64.6500   34.2415   48.0123 H   0  0  0  0  0  0  0  0  0  0  0  0
   62.4877   35.2129   48.7794 H   0  0  0  0  0  0  0  0  0  0  0  0
   58.9910   29.1846   50.7418 H   0  0  0  0  0  0  0  0  0  0  0  0
   60.8380   27.5721   51.2085 H   0  0  0  0  0  0  0  0  0  0  0  0
   63.6386   30.8599   51.4848 H   0  0  0  0  0  0  0  0  0  0  0  0
   61.7925   32.4758   51.0217 H   0  0  0  0  0  0  0  0  0  0  0  0
   59.9027   27.3467   47.4384 H   0  0  0  0  0  0  0  0  0  0  0  0
  1  2  1  0
  2  3  1  0
  3  4  2  0
  4  5  1  0
  5  6  1  0
  6  7  1  0
  5  8  2  0
  8  9  1  0
  9 10  1  0
  8 11  1  0
 11 12  1  0
 12 13  2  0
 12 14  1  0
 14 15  1  0
 15 16  2  0
 16 17  1  0
 17 18  2  0
 18 19  1  0
 19 20  2  0
 20 21  1  0
 21 22  2  0
 21 23  1  0
 23 24  1  0
 24 25  2  0
 24 26  2  0
 24 27  1  0
 27 28  2  0
 28 29  1  0
 29 30  2  0
 30 31  1  0
 30 32  1  0
 32 33  2  0
 11 34  2  0
 34  3  1  0
 20 15  1  0
 33 27  1  0
  1 35  1  0
  1 36  1  0
  1 37  1  0
  4 38  1  0
  7 39  1  0
  7 40  1  0
  7 41  1  0
 10 42  1  0
 10 43  1  0
 10 44  1  0
 14 45  1  0
 16 46  1  0
 17 47  1  0
 18 48  1  0
 19 49  1  0
 28 50  1  0
 29 51  1  0
 32 52  1  0
 33 53  1  0
 34 54  1  0
M  CHG  1  23  -1
M  END
>  <UniqueID>  (19) 
17

>  <SMILES>  (19) 
COc1cc(OC)c(OC)c(C(=O)Nc2ccccc2C(=O)[N-]S(=O)(=O)c2ccc(F)cc2)c1

>  <Energy>  (19) 
74.53156637282933

>  <Genealogy>  (19) 
COc1cc(OC)c(OC)c(C(=O)Nc2ccccc2C(=O)[N-]S(=O)(=O)c2ccc(F)cc2)c1 (protonated)
COc1cc(OC)c(OC)c(C(=O)Nc2ccccc2C(=O)[N-]S(=O)(=O)c2ccc(F)cc2)c1 (3D coordinates assigned)
COc1cc(OC)c(OC)c(C(=O)Nc2ccccc2C(=O)[N-]S(=O)(=O)c2ccc(F)cc2)c1 (optimized conformer: 74.53156637282933 kcal/mol)

>  <smiles>  (19) 
COc1cc(OC)c(OC)c(C(=O)Nc2ccccc2C(=O)NS(=O)(=O)c2ccc(F)cc2)c1

>  <score_type>  (19) 
oracle

>  <origin>  (19) 
adg

>  <m_score__min__energy>  (19) 
-9.3699999999999992

>  <m_primary>  (19) 
energy

$$$$
19:0
     RDKit          3D

 40 41  0  0  0  0  0  0  0  0999 V2000
   56.4280   22.7240   42.9840 C   0  0  0  0  0  0  0  0  0  0  0  0
   55.5190   23.1580   44.1290 C   0  0  0  0  0  0  0  0  0  0  0  0
   55.8130   24.5340   44.5220 N   0  0  0  0  0  0  0  0  0  0  0  0
   55.3940   25.0830   45.7800 C   0  0  0  0  0  0  0  0  0  0  0  0
   54.9410   24.3270   46.6790 O   0  0  0  0  0  0  0  0  0  0  0  0
   55.5440   26.4790   46.0600 N   0  0  0  0  0  0  0  0  0  0  0  0
   56.6710   27.2920   45.7010 C   0  0  0  0  0  0  0  0  0  0  0  0
   57.9880   26.8350   45.8820 C   0  0  0  0  0  0  0  0  0  0  0  0
   59.0680   27.6280   45.4920 C   0  0  0  0  0  0  0  0  0  0  0  0
   58.8460   28.8770   44.9070 C   0  0  0  0  0  0  0  0  0  0  0  0
   57.5390   29.3410   44.7060 C   0  0  0  0  0  0  0  0  0  0  0  0
   57.2780   30.9210   43.9590 S   0  0  0  0  0  0  0  0  0  0  0  0
   56.1780   30.8490   42.9370 O   0  0  0  0  0  0  0  0  0  0  0  0
   58.5490   31.3540   43.2850 O   0  0  0  0  0  0  0  0  0  0  0  0
   56.8490   32.0990   45.1580 N   0  0  0  0  0  0  0  0  0  0  0  0
   57.7650   32.7230   46.0690 C   0  0  0  0  0  0  0  0  0  0  0  0
   58.1580   34.0670   45.9330 C   0  0  0  0  0  0  0  0  0  0  0  0
   59.0460   34.6370   46.8500 C   0  0  0  0  0  0  0  0  0  0  0  0
   59.5650   33.8700   47.9050 C   0  0  0  0  0  0  0  0  0  0  0  0
   60.4870   34.4940   48.9110 C   0  0  0  0  0  0  0  0  0  0  0  0
   59.1600   32.5350   48.0490 C   0  0  0  0  0  0  0  0  0  0  0  0
   58.2710   31.9660   47.1320 C   0  0  0  0  0  0  0  0  0  0  0  0
   56.4500   28.5360   45.0880 C   0  0  0  0  0  0  0  0  0  0  0  0
   55.1450   28.9660   44.8650 O   0  0  0  0  0  0  0  0  0  0  0  0
   57.3492   22.2842   43.3937 H   0  0  0  0  0  0  0  0  0  0  0  0
   55.9082   21.9769   42.3662 H   0  0  0  0  0  0  0  0  0  0  0  0
   56.6822   23.5979   42.3662 H   0  0  0  0  0  0  0  0  0  0  0  0
   54.4702   23.0905   43.8042 H   0  0  0  0  0  0  0  0  0  0  0  0
   55.6922   22.4970   44.9910 H   0  0  0  0  0  0  0  0  0  0  0  0
   56.4110   25.1120   43.8880 H   0  0  0  0  0  0  0  0  0  0  0  0
   58.1680   25.8480   46.3330 H   0  0  0  0  0  0  0  0  0  0  0  0
   60.0963   27.2688   45.6455 H   0  0  0  0  0  0  0  0  0  0  0  0
   59.7008   29.4990   44.6028 H   0  0  0  0  0  0  0  0  0  0  0  0
   57.7652   34.6715   45.1022 H   0  0  0  0  0  0  0  0  0  0  0  0
   59.3395   35.6918   46.7443 H   0  0  0  0  0  0  0  0  0  0  0  0
   60.1365   34.2568   49.9263 H   0  0  0  0  0  0  0  0  0  0  0  0
   61.5036   34.0975   48.7721 H   0  0  0  0  0  0  0  0  0  0  0  0
   60.4968   35.5851   48.7721 H   0  0  0  0  0  0  0  0  0  0  0  0
   59.5431   31.9334   48.8864 H   0  0  0  0  0  0  0  0  0  0  0  0
   57.9669   30.9151   47.2469 H   0  0  0  0  0  0  0  0  0  0  0  0
  1  2  1  0
  2  3  1  0
  3  4  1  0
  4  5  2  0
  4  6  1  0
  6  7  1  0
  7  8  2  0
  8  9  1  0
  9 10  2  0
 10 11  1  0
 11 12  1  0
 12 13  2  0
 12 14  2  0
 12 15  1  0
 15 16  1  0
 16 17  2  0
 17 18  1  0
 18 19  2  0
 19 20  1  0
 19 21  1  0
 21 22  2  0
 11 23  2  0
 23 24  1  0
 23  7  1  0
 22 16  1  0
  1 25  1  0
  1 26  1  0
  1 27  1  0
  2 28  1  0
  2 29  1  0
  3 30  1  0
  8 31  1  0
  9 32  1  0
 10 33  1  0
 17 34  1  0
 18 35  1  0
 20 36  1  0
 20 37  1  0
 20 38  1  0
 21 39  1  0
 22 40  1  0
M  CHG  3   6  -1  15  -1  24  -1
M  END
>  <UniqueID>  (20) 
18

>  <SMILES>  (20) 
CCNC(=O)[N-]c1cccc(S(=O)(=O)[N-]c2ccc(C)cc2)c1[O-]

>  <Energy>  (20) 
42.48386115999956

>  <Genealogy>  (20) 
CCNC(=O)[N-]c1cccc(S(=O)(=O)[N-]c2ccc(C)cc2)c1[O-] (protonated)
CCNC(=O)[N-]c1cccc(S(=O)(=O)[N-]c2ccc(C)cc2)c1[O-] (3D coordinates assigned)
CCNC(=O)[N-]c1cccc(S(=O)(=O)[N-]c2ccc(C)cc2)c1[O-] (optimized conformer: 42.48386115999956 kcal/mol)

>  <smiles>  (20) 
CCNC(=O)Nc1cccc(S(=O)(=O)Nc2ccc(C)cc2)c1O

>  <score_type>  (20) 
oracle

>  <origin>  (20) 
adg

>  <m_score__min__energy>  (20) 
-15.27

>  <m_primary>  (20) 
energy

$$$$
20:0
     RDKit          3D

 43 45  0  0  0  0  0  0  0  0999 V2000
   57.7590   27.1340   45.5440 C   0  0  0  0  0  0  0  0  0  0  0  0
   56.2920   27.4290   45.6170 C   0  0  0  0  0  0  0  0  0  0  0  0
   55.5120   26.5330   46.0320 O   0  0  0  0  0  0  0  0  0  0  0  0
   55.7440   28.6810   45.1850 N   0  0  0  0  0  0  0  0  0  0  0  0
   56.3850   29.6680   44.3640 C   0  0  0  0  0  0  0  0  0  0  0  0
   56.1190   29.6890   42.9920 C   0  0  0  0  0  0  0  0  0  0  0  0
   56.6730   30.6440   42.2010 N   0  0  0  0  0  0  0  0  0  0  0  0
   57.4760   31.6170   42.7060 C   0  0  0  0  0  0  0  0  0  0  0  0
   57.7430   31.6630   44.0860 C   0  0  0  0  0  0  0  0  0  0  0  0
   58.5230   32.6680   44.6790 O   0  0  0  0  0  0  0  0  0  0  0  0
   58.0380   33.9370   45.1250 C   0  0  2  0  0  0  0  0  0  0  0  0
   59.1370   34.9650   44.9680 C   0  0  0  0  0  0  0  0  0  0  0  0
   59.9420   34.8400   46.2480 C   0  0  0  0  0  0  0  0  0  0  0  0
   59.0210   34.3700   47.2920 N   0  0  0  0  0  0  0  0  0  0  0  0
   59.6200   33.4490   48.2920 C   0  0  0  0  0  0  0  0  0  0  0  0
   61.0750   33.0550   48.0380 C   0  0  0  0  0  0  0  0  0  0  0  0
   62.1240   33.8390   48.5670 C   0  0  0  0  0  0  0  0  0  0  0  0
   61.8690   34.8920   49.3840 F   0  0  0  0  0  0  0  0  0  0  0  0
   63.4590   33.4990   48.3260 C   0  0  0  0  0  0  0  0  0  0  0  0
   63.7710   32.3570   47.5930 C   0  0  0  0  0  0  0  0  0  0  0  0
   62.7530   31.5310   47.1230 C   0  0  0  0  0  0  0  0  0  0  0  0
   61.4110   31.8550   47.3560 C   0  0  0  0  0  0  0  0  0  0  0  0
   60.1980   30.6820   46.8400 Cl  0  0  0  0  0  0  0  0  0  0  0  0
   57.7860   33.9210   46.6300 C   0  0  0  0  0  0  0  0  0  0  0  0
   57.1970   30.6740   44.9080 C   0  0  0  0  0  0  0  0  0  0  0  0
   58.1676   27.0518   46.5620 H   0  0  0  0  0  0  0  0  0  0  0  0
   57.9162   26.1863   45.0082 H   0  0  0  0  0  0  0  0  0  0  0  0
   58.2703   27.9473   45.0082 H   0  0  0  0  0  0  0  0  0  0  0  0
   55.4579   28.9285   42.5508 H   0  0  0  0  0  0  0  0  0  0  0  0
   57.9173   32.3689   42.0352 H   0  0  0  0  0  0  0  0  0  0  0  0
   57.1278   34.1579   44.5482 H   0  0  0  0  0  0  0  0  0  0  0  0
   59.7606   34.7397   44.0903 H   0  0  0  0  0  0  0  0  0  0  0  0
   58.7468   35.9814   44.8108 H   0  0  0  0  0  0  0  0  0  0  0  0
   60.7587   34.1160   46.1112 H   0  0  0  0  0  0  0  0  0  0  0  0
   60.3894   35.8058   46.5257 H   0  0  0  0  0  0  0  0  0  0  0  0
   59.5685   33.9379   49.2760 H   0  0  0  0  0  0  0  0  0  0  0  0
   59.0399   32.5166   48.2281 H   0  0  0  0  0  0  0  0  0  0  0  0
   64.2658   34.1363   48.7171 H   0  0  0  0  0  0  0  0  0  0  0  0
   64.8219   32.1072   47.3851 H   0  0  0  0  0  0  0  0  0  0  0  0
   63.0051   30.6174   46.5647 H   0  0  0  0  0  0  0  0  0  0  0  0
   57.5341   32.9015   46.9574 H   0  0  0  0  0  0  0  0  0  0  0  0
   56.9462   34.5828   46.8884 H   0  0  0  0  0  0  0  0  0  0  0  0
   57.4051   30.6843   45.9881 H   0  0  0  0  0  0  0  0  0  0  0  0
  1  2  1  0
  2  3  2  0
  2  4  1  0
  4  5  1  0
  5  6  2  0
  6  7  1  0
  7  8  2  0
  8  9  1  0
  9 10  1  0
 10 11  1  0
 11 12  1  0
 12 13  1  0
 13 14  1  0
 14 15  1  0
 15 16  1  0
 16 17  2  0
 17 18  1  0
 17 19  1  0
 19 20  2  0
 20 21  1  0
 21 22  2  0
 22 23  1  0
 14 24  1  0
  9 25  2  0
 25  5  1  0
 24 11  1  0
 22 16  1  0
  1 26  1  0
  1 27  1  0
  1 28  1  0
  6 29  1  0
  8 30  1  0
 11 31  1  6
 12 32  1  0
 12 33  1  0
 13 34  1  0
 13 35  1  0
 15 36  1  0
 15 37  1  0
 19 38  1  0
 20 39  1  0
 21 40  1  0
 24 41  1  0
 24 42  1  0
 25 43  1  0
M  CHG  1   4  -1
M  END
>  <UniqueID>  (21) 
19

>  <SMILES>  (21) 
CC(=O)[N-]c1cncc(O[C@@H]2CCN(Cc3c(F)cccc3Cl)C2)c1

>  <Energy>  (21) 
57.08517230877244

>  <Genealogy>  (21) 
CC(=O)[N-]c1cncc(OC2CCN(Cc3c(F)cccc3Cl)C2)c1 (protonated)
CC(=O)[N-]c1cncc(O[C@@H]2CCN(Cc3c(F)cccc3Cl)C2)c1 (chirality)
CC(=O)[N-]c1cncc(O[C@@H]2CCN(Cc3c(F)cccc3Cl)C2)c1 (3D coordinates assigned)
CC(=O)[N-]c1cncc(O[C@@H]2CCN(Cc3c(F)cccc3Cl)C2)c1 (nonaromatic ring conformer: 57.08517230877244 kcal/mol)

>  <smiles>  (21) 
CC(=O)Nc1cncc(OC2CCN(Cc3c(F)cccc3Cl)C2)c1

>  <score_type>  (21) 
oracle

>  <origin>  (21) 
adg

>  <m_score__min__energy>  (21) 
-10.81

>  <m_primary>  (21) 
energy

$$$$
21:0
     RDKit          3D

 26 27  0  0  0  0  0  0  0  0999 V2000
   56.9620   33.8500   46.7870 N   0  0  0  0  0  0  0  0  0  0  0  0
   57.7190   32.7390   46.3080 C   0  0  0  0  0  0  0  0  0  0  0  0
   58.9220   32.3800   46.9230 C   0  0  0  0  0  0  0  0  0  0  0  0
   59.6280   31.2880   46.4170 C   0  0  0  0  0  0  0  0  0  0  0  0
   60.7160   30.9380   46.9430 O   0  0  0  0  0  0  0  0  0  0  0  0
   59.1380   30.5980   45.3540 N   0  0  0  0  0  0  0  0  0  0  0  0
   57.9620   30.9530   44.7740 C   0  0  0  0  0  0  0  0  0  0  0  0
   57.3250   30.0070   43.3940 S   0  0  0  0  0  0  0  0  0  0  0  0
   57.7280   28.3850   44.1300 C   0  0  0  0  0  0  0  0  0  0  0  0
   56.6990   28.0020   45.1580 C   0  0  0  0  0  0  0  0  0  0  0  0
   55.6500   28.6950   45.2500 O   0  0  0  0  0  0  0  0  0  0  0  0
   56.8450   26.7890   46.0010 C   0  0  0  0  0  0  0  0  0  0  0  0
   55.7230   25.9980   46.3060 C   0  0  0  0  0  0  0  0  0  0  0  0
   54.4610   26.3380   45.8300 O   0  0  0  0  0  0  0  0  0  0  0  0
   55.8650   24.8760   47.0570 N   0  0  0  0  0  0  0  0  0  0  0  0
   57.0760   24.4990   47.5340 C   0  0  0  0  0  0  0  0  0  0  0  0
   57.1840   23.4510   48.2220 O   0  0  0  0  0  0  0  0  0  0  0  0
   58.1720   25.2570   47.2770 N   0  0  0  0  0  0  0  0  0  0  0  0
   58.0860   26.3900   46.5350 C   0  0  0  0  0  0  0  0  0  0  0  0
   59.1210   27.0860   46.3590 O   0  0  0  0  0  0  0  0  0  0  0  0
   57.2640   32.0190   45.2470 N   0  0  0  0  0  0  0  0  0  0  0  0
   56.7790   34.6780   46.1770 H   0  0  0  0  0  0  0  0  0  0  0  0
   56.5820   33.8480   47.7590 H   0  0  0  0  0  0  0  0  0  0  0  0
   59.3033   32.9455   47.7861 H   0  0  0  0  0  0  0  0  0  0  0  0
   57.7485   27.6229   43.3371 H   0  0  0  0  0  0  0  0  0  0  0  0
   58.7113   28.4508   44.6187 H   0  0  0  0  0  0  0  0  0  0  0  0
  1  2  1  0
  2  3  2  0
  3  4  1  0
  4  5  2  0
  4  6  1  0
  6  7  2  0
  7  8  1  0
  8  9  1  0
  9 10  1  0
 10 11  2  0
 10 12  1  0
 12 13  2  0
 13 14  1  0
 13 15  1  0
 15 16  1  0
 16 17  2  0
 16 18  1  0
 18 19  1  0
 19 20  2  0
  7 21  1  0
 21  2  1  0
 19 12  1  0
  1 22  1  0
  1 23  1  0
  3 24  1  0
  9 25  1  0
  9 26  1  0
M  CHG  4  14  -1  15  -1  18  -1  21  -1
M  END
>  <UniqueID>  (22) 
20

>  <SMILES>  (22) 
Nc1cc(=O)nc(SCC(=O)c2c([O-])[n-]c(=O)[n-]c2=O)[n-]1

>  <Energy>  (22) 
28.71408287089666

>  <Genealogy>  (22) 
Nc1cc(=O)nc(SCC(=O)c2c([O-])[n-]c(=O)[n-]c2=O)[n-]1 (protonated)
Nc1cc(=O)nc(SCC(=O)c2c([O-])[n-]c(=O)[n-]c2=O)[n-]1 (3D coordinates assigned)
Nc1cc(=O)nc(SCC(=O)c2c([O-])[n-]c(=O)[n-]c2=O)[n-]1 (optimized conformer: 28.71408287089666 kcal/mol)

>  <smiles>  (22) 
Nc1cc(=O)nc(SCC(=O)c2c(O)[nH]c(=O)[nH]c2=O)[nH]1

>  <score_type>  (22) 
oracle

>  <origin>  (22) 
adg

>  <m_score__min__energy>  (22) 
-15.56

>  <m_primary>  (22) 
energy

$$$$
22:0
     RDKit          3D

 30 31  0  0  0  0  0  0  0  0999 V2000
   64.1400   32.5140   47.1360 N   0  0  0  0  0  0  0  0  0  0  0  0
   62.7170   32.6540   47.1770 C   0  0  0  0  0  0  0  0  0  0  0  0
   61.9170   31.5960   47.6220 C   0  0  0  0  0  0  0  0  0  0  0  0
   60.5270   31.7310   47.6620 C   0  0  0  0  0  0  0  0  0  0  0  0
   59.9090   32.9310   47.2590 C   0  0  0  0  0  0  0  0  0  0  0  0
   58.4250   33.0540   47.3090 C   0  0  0  0  0  0  0  0  0  0  0  0
   57.7860   32.4830   48.2340 O   0  0  0  0  0  0  0  0  0  0  0  0
   57.6440   33.8150   46.2770 C   0  0  0  0  0  0  0  0  0  0  0  0
   58.2220   33.3590   44.6090 S   0  0  0  0  0  0  0  0  0  0  0  0
   57.8310   31.6280   44.8240 C   0  0  0  0  0  0  0  0  0  0  0  0
   56.6470   31.1390   44.3710 N   0  0  0  0  0  0  0  0  0  0  0  0
   56.3250   29.8270   44.5260 C   0  0  0  0  0  0  0  0  0  0  0  0
   55.0740   29.3420   44.0410 N   0  0  0  0  0  0  0  0  0  0  0  0
   57.2260   28.9640   45.1580 C   0  0  0  0  0  0  0  0  0  0  0  0
   58.4380   29.4840   45.6140 C   0  0  0  0  0  0  0  0  0  0  0  0
   59.2730   28.7360   46.1870 O   0  0  0  0  0  0  0  0  0  0  0  0
   58.7180   30.8020   45.4400 N   0  0  0  0  0  0  0  0  0  0  0  0
   60.7240   33.9900   46.8100 C   0  0  0  0  0  0  0  0  0  0  0  0
   62.1150   33.8510   46.7710 C   0  0  0  0  0  0  0  0  0  0  0  0
   64.5870   31.7390   46.5970 H   0  0  0  0  0  0  0  0  0  0  0  0
   64.7580   33.1850   47.6460 H   0  0  0  0  0  0  0  0  0  0  0  0
   62.3847   30.6532   47.9420 H   0  0  0  0  0  0  0  0  0  0  0  0
   59.9086   30.8913   48.0119 H   0  0  0  0  0  0  0  0  0  0  0  0
   56.5758   33.5706   46.3733 H   0  0  0  0  0  0  0  0  0  0  0  0
   57.7915   34.8941   46.4312 H   0  0  0  0  0  0  0  0  0  0  0  0
   54.8500   29.3580   43.0200 H   0  0  0  0  0  0  0  0  0  0  0  0
   54.3630   28.9620   44.7060 H   0  0  0  0  0  0  0  0  0  0  0  0
   56.9847   27.8993   45.2926 H   0  0  0  0  0  0  0  0  0  0  0  0
   60.2615   34.9345   46.4873 H   0  0  0  0  0  0  0  0  0  0  0  0
   62.7390   34.6860   46.4197 H   0  0  0  0  0  0  0  0  0  0  0  0
  1  2  1  0
  2  3  2  0
  3  4  1  0
  4  5  2  0
  5  6  1  0
  6  7  2  0
  6  8  1  0
  8  9  1  0
  9 10  1  0
 10 11  2  0
 11 12  1  0
 12 13  1  0
 12 14  2  0
 14 15  1  0
 15 16  2  0
 15 17  1  0
  5 18  1  0
 18 19  2  0
 19  2  1  0
 17 10  1  0
  1 20  1  0
  1 21  1  0
  3 22  1  0
  4 23  1  0
  8 24  1  0
  8 25  1  0
 13 26  1  0
 13 27  1  0
 14 28  1  0
 18 29  1  0
 19 30  1  0
M  CHG  1  17  -1
M  END
>  <UniqueID>  (23) 
21

>  <SMILES>  (23) 
Nc1ccc(C(=O)CSc2nc(N)cc(=O)[n-]2)cc1

>  <Energy>  (23) 
26.529890641523075

>  <Genealogy>  (23) 
Nc1ccc(C(=O)CSc2nc(N)cc(=O)[n-]2)cc1 (protonated)
Nc1ccc(C(=O)CSc2nc(N)cc(=O)[n-]2)cc1 (3D coordinates assigned)
Nc1ccc(C(=O)CSc2nc(N)cc(=O)[n-]2)cc1 (optimized conformer: 26.529890641523075 kcal/mol)

>  <smiles>  (23) 
Nc1ccc(C(=O)CSc2nc(N)cc(=O)[nH]2)cc1

>  <score_type>  (23) 
oracle

>  <origin>  (23) 
adg

>  <m_score__min__energy>  (23) 
-8.6999999999999993

>  <m_primary>  (23) 
energy

$$$$
23:0
     RDKit          3D

 29 30  0  0  0  0  0  0  0  0999 V2000
   58.5090   22.1940   46.7420 H   0  0  0  0  0  0  0  0  0  0  0  0
   57.6150   22.6630   46.8120 O   0  0  0  0  0  0  0  0  0  0  0  0
   57.4610   23.9970   46.4370 C   0  0  0  0  0  0  0  0  0  0  0  0
   56.1910   24.5890   46.4220 C   0  0  0  0  0  0  0  0  0  0  0  0
   55.3089   23.9987   46.7107 H   0  0  0  0  0  0  0  0  0  0  0  0
   56.0390   25.9260   46.0420 C   0  0  0  0  0  0  0  0  0  0  0  0
   54.7700   26.4940   46.0710 O   0  0  0  0  0  0  0  0  0  0  0  0
   57.1630   26.6820   45.6480 C   0  0  0  0  0  0  0  0  0  0  0  0
   57.0360   28.0860   45.1870 C   0  0  0  0  0  0  0  0  0  0  0  0
   55.8860   28.5940   45.0970 O   0  0  0  0  0  0  0  0  0  0  0  0
   58.1970   28.9150   44.7930 C   0  0  0  0  0  0  0  0  0  0  0  0
   59.1985   28.5221   45.0225 H   0  0  0  0  0  0  0  0  0  0  0  0
   58.1290   30.1080   44.1780 C   0  0  0  0  0  0  0  0  0  0  0  0
   58.1421   30.1139   43.0781 H   0  0  0  0  0  0  0  0  0  0  0  0
   58.0380   31.4120   44.8660 C   0  0  0  0  0  0  0  0  0  0  0  0
   58.1600   31.4620   46.2630 C   0  0  0  0  0  0  0  0  0  0  0  0
   58.3263   30.5353   46.8318 H   0  0  0  0  0  0  0  0  0  0  0  0
   58.0710   32.6850   46.9350 C   0  0  0  0  0  0  0  0  0  0  0  0
   58.1507   32.7164   48.0317 H   0  0  0  0  0  0  0  0  0  0  0  0
   57.8810   33.8670   46.2150 C   0  0  0  0  0  0  0  0  0  0  0  0
   57.8022   34.8273   46.7457 H   0  0  0  0  0  0  0  0  0  0  0  0
   57.7910   33.8300   44.8210 C   0  0  0  0  0  0  0  0  0  0  0  0
   57.6492   34.7622   44.2546 H   0  0  0  0  0  0  0  0  0  0  0  0
   57.8810   32.6100   44.1460 C   0  0  0  0  0  0  0  0  0  0  0  0
   57.8289   32.5863   43.0475 H   0  0  0  0  0  0  0  0  0  0  0  0
   58.4360   26.0870   45.6930 C   0  0  0  0  0  0  0  0  0  0  0  0
   59.3242   26.6776   45.4239 H   0  0  0  0  0  0  0  0  0  0  0  0
   58.5820   24.7510   46.0770 C   0  0  0  0  0  0  0  0  0  0  0  0
   59.8470   24.1740   46.0930 O   0  0  0  0  0  0  0  0  0  0  0  0
  1  2  1  0
  2  3  1  0
  3  4  2  0
  4  5  1  0
  4  6  1  0
  6  7  1  0
  6  8  2  0
  8  9  1  0
  9 10  2  0
  9 11  1  0
 11 12  1  0
 11 13  2  0
 13 14  1  0
 13 15  1  0
 15 16  2  0
 16 17  1  0
 16 18  1  0
 18 19  1  0
 18 20  2  0
 20 21  1  0
 20 22  1  0
 22 23  1  0
 22 24  2  0
 24 25  1  0
  8 26  1  0
 26 27  1  0
 26 28  2  0
 28 29  1  0
 28  3  1  0
 24 15  1  0
M  CHG  2   7  -1  29  -1
M  END
>  <UniqueID>  (24) 
22

>  <SMILES>  (24) 
O=C(/C=C\c1ccccc1)c1cc([O-])c(O)cc1[O-]

>  <Energy>  (24) 
41.40174331822198

>  <Genealogy>  (24) 
O=C(C=Cc1ccccc1)c1cc([O-])c(O)cc1[O-] (protonated)
O=C(/C=C\c1ccccc1)c1cc([O-])c(O)cc1[O-] (cis-trans isomerization)
O=C(/C=C\c1ccccc1)c1cc([O-])c(O)cc1[O-] (3D coordinates assigned)
O=C(/C=C\c1ccccc1)c1cc([O-])c(O)cc1[O-] (optimized conformer: 41.40174331822198 kcal/mol)

>  <smiles>  (24) 
O=C(C=Cc1ccccc1)c1cc(O)c(O)cc1O

>  <score_type>  (24) 
oracle

>  <origin>  (24) 
adg

>  <m_score__min__energy>  (24) 
-12.449999999999999

>  <m_primary>  (24) 
energy

$$$$
24:0
     RDKit          3D

 58 61  0  0  0  0  0  0  0  0999 V2000
   55.7150   30.7390   44.4550 O   0  0  0  0  0  0  0  0  0  0  0  0
   56.5020   29.8280   44.8240 C   0  0  0  0  0  0  0  0  0  0  0  0
   57.9900   30.0730   44.7830 C   0  0  0  0  0  0  0  0  0  0  0  0
   58.4400   30.7850   46.0030 N   0  0  0  0  0  0  0  0  0  0  0  0
   58.7120   30.0410   47.1290 C   0  0  0  0  0  0  0  0  0  0  0  0
   58.6240   28.7800   47.0810 O   0  0  0  0  0  0  0  0  0  0  0  0
   59.0790   30.6420   48.3060 N   0  0  0  0  0  0  0  0  0  0  0  0
   59.3760   29.8070   49.4930 C   0  0  0  0  0  0  0  0  0  0  0  0
   60.8690   29.4530   49.5710 C   0  0  0  0  0  0  0  0  0  0  0  0
   61.6740   30.4850   50.3790 C   0  0  0  0  0  0  0  0  0  0  0  0
   62.4870   31.3460   49.4910 N   0  0  0  0  0  0  0  0  0  0  0  0
   62.3400   32.7620   49.8810 C   0  0  0  0  0  0  0  0  0  0  0  0
   63.3740   33.6360   49.1460 C   0  0  0  0  0  0  0  0  0  0  0  0
   63.7770   33.0490   47.7840 C   0  0  0  0  0  0  0  0  0  0  0  0
   62.6080   32.2950   47.1490 C   0  0  0  0  0  0  0  0  0  0  0  0
   62.1200   31.1490   48.0630 C   0  0  0  0  0  0  0  0  0  0  0  0
   59.1990   32.0040   48.3750 C   0  0  0  0  0  0  0  0  0  0  0  0
   59.5250   32.5580   49.4630 O   0  0  0  0  0  0  0  0  0  0  0  0
   58.9800   32.7900   47.2380 C   0  0  0  0  0  0  0  0  0  0  0  0
   59.1350   34.1910   47.2830 C   0  0  0  0  0  0  0  0  0  0  0  0
   58.9510   34.9600   46.1370 C   0  0  0  0  0  0  0  0  0  0  0  0
   58.6220   34.3460   44.9330 C   0  0  0  0  0  0  0  0  0  0  0  0
   58.4600   32.9610   44.8700 C   0  0  0  0  0  0  0  0  0  0  0  0
   58.6160   32.1540   46.0270 C   0  0  0  0  0  0  0  0  0  0  0  0
   55.9530   28.5670   45.2270 N   0  0  0  0  0  0  0  0  0  0  0  0
   56.6480   27.3140   45.2870 C   0  0  0  0  0  0  0  0  0  0  0  0
   56.2400   26.3570   46.2250 C   0  0  0  0  0  0  0  0  0  0  0  0
   56.9120   25.1360   46.3280 C   0  0  0  0  0  0  0  0  0  0  0  0
   58.0110   24.8700   45.5040 C   0  0  0  0  0  0  0  0  0  0  0  0
   58.8570   23.3380   45.6330 Cl  0  0  0  0  0  0  0  0  0  0  0  0
   58.4420   25.8320   44.5850 C   0  0  0  0  0  0  0  0  0  0  0  0
   57.7700   27.0530   44.4810 C   0  0  0  0  0  0  0  0  0  0  0  0
   58.5128   29.1075   44.7154 H   0  0  0  0  0  0  0  0  0  0  0  0
   58.2208   30.6956   43.9060 H   0  0  0  0  0  0  0  0  0  0  0  0
   59.0917   30.3606   50.4000 H   0  0  0  0  0  0  0  0  0  0  0  0
   58.8027   28.8719   49.4102 H   0  0  0  0  0  0  0  0  0  0  0  0
   60.9742   28.4687   50.0506 H   0  0  0  0  0  0  0  0  0  0  0  0
   61.2664   29.4457   48.5453 H   0  0  0  0  0  0  0  0  0  0  0  0
   60.9770   31.1159   50.9502 H   0  0  0  0  0  0  0  0  0  0  0  0
   62.3524   29.9444   51.0555 H   0  0  0  0  0  0  0  0  0  0  0  0
   61.3274   33.1051   49.6225 H   0  0  0  0  0  0  0  0  0  0  0  0
   62.5063   32.8509   50.9647 H   0  0  0  0  0  0  0  0  0  0  0  0
   62.9419   34.6348   48.9860 H   0  0  0  0  0  0  0  0  0  0  0  0
   64.2779   33.6825   49.7712 H   0  0  0  0  0  0  0  0  0  0  0  0
   64.0840   33.8669   47.1156 H   0  0  0  0  0  0  0  0  0  0  0  0
   64.6088   32.3454   47.9361 H   0  0  0  0  0  0  0  0  0  0  0  0
   61.7781   32.9968   46.9793 H   0  0  0  0  0  0  0  0  0  0  0  0
   62.9492   31.8606   46.1977 H   0  0  0  0  0  0  0  0  0  0  0  0
   61.0244   31.0841   47.9887 H   0  0  0  0  0  0  0  0  0  0  0  0
   62.6109   30.2255   47.7222 H   0  0  0  0  0  0  0  0  0  0  0  0
   59.4034   34.6801   48.2310 H   0  0  0  0  0  0  0  0  0  0  0  0
   59.0658   36.0530   46.1837 H   0  0  0  0  0  0  0  0  0  0  0  0
   58.4889   34.9546   44.0264 H   0  0  0  0  0  0  0  0  0  0  0  0
   58.2077   32.4881   43.9094 H   0  0  0  0  0  0  0  0  0  0  0  0
   55.3854   26.5679   46.8846 H   0  0  0  0  0  0  0  0  0  0  0  0
   56.5768   24.3838   47.0572 H   0  0  0  0  0  0  0  0  0  0  0  0
   59.3114   25.6273   43.9429 H   0  0  0  0  0  0  0  0  0  0  0  0
   58.1201   27.8123   43.7662 H   0  0  0  0  0  0  0  0  0  0  0  0
  1  2  2  0
  2  3  1  0
  3  4  1  0
  4  5  1  0
  5  6  2  0
  5  7  1  0
  7  8  1  0
  8  9  1  0
  9 10  1  0
 10 11  1  0
 11 12  1  0
 12 13  1  0
 13 14  1  0
 14 15  1  0
 15 16  1  0
  7 17  1  0
 17 18  2  0
 17 19  1  0
 19 20  2  0
 20 21  1  0
 21 22  2  0
 22 23  1  0
 23 24  2  0
  2 25  1  0
 25 26  1  0
 26 27  2  0
 27 28  1  0
 28 29  2  0
 29 30  1  0
 29 31  1  0
 31 32  2  0
 24  4  1  0
 32 26  1  0
 16 11  1  0
 24 19  1  0
  3 33  1  0
  3 34  1  0
  8 35  1  0
  8 36  1  0
  9 37  1  0
  9 38  1  0
 10 39  1  0
 10 40  1  0
 12 41  1  0
 12 42  1  0
 13 43  1  0
 13 44  1  0
 14 45  1  0
 14 46  1  0
 15 47  1  0
 15 48  1  0
 16 49  1  0
 16 50  1  0
 20 51  1  0
 21 52  1  0
 22 53  1  0
 23 54  1  0
 27 55  1  0
 28 56  1  0
 31 57  1  0
 32 58  1  0
M  CHG  1  25  -1
M  END
>  <UniqueID>  (25) 
23

>  <SMILES>  (25) 
O=C(Cn1c(=O)n(CCCN2CCCCC2)c(=O)c2ccccc21)[N-]c1ccc(Cl)cc1

>  <Energy>  (25) 
83.14726847360359

>  <Genealogy>  (25) 
O=C(Cn1c(=O)n(CCCN2CCCCC2)c(=O)c2ccccc21)[N-]c1ccc(Cl)cc1 (protonated)
O=C(Cn1c(=O)n(CCCN2CCCCC2)c(=O)c2ccccc21)[N-]c1ccc(Cl)cc1 (3D coordinates assigned)
O=C(Cn1c(=O)n(CCCN2CCCCC2)c(=O)c2ccccc21)[N-]c1ccc(Cl)cc1 (nonaromatic ring conformer: 83.14726847360359 kcal/mol)

>  <smiles>  (25) 
O=C(Cn1c(=O)n(CCCN2CCCCC2)c(=O)c2ccccc21)Nc1ccc(Cl)cc1

>  <score_type>  (25) 
oracle

>  <origin>  (25) 
adg

>  <m_score__min__energy>  (25) 
-11.07

>  <m_primary>  (25) 
energy

$$$$
25:0
     RDKit          3D

 51 54  0  0  0  0  0  0  0  0999 V2000
   55.0200   31.0480   52.2350 C   0  0  0  0  0  0  0  0  0  0  0  0
   56.3150   31.5630   52.5270 O   0  0  0  0  0  0  0  0  0  0  0  0
   57.4330   31.4260   51.6890 C   0  0  0  0  0  0  0  0  0  0  0  0
   58.0730   32.5400   51.1130 C   0  0  0  0  0  0  0  0  0  0  0  0
   59.1850   32.3690   50.2870 C   0  0  0  0  0  0  0  0  0  0  0  0
   59.6870   31.0870   50.0230 C   0  0  0  0  0  0  0  0  0  0  0  0
   60.8920   30.9340   49.1120 C   0  0  2  0  0  0  0  0  0  0  0  0
   61.6120   32.1660   48.8880 C   0  0  1  0  0  0  0  0  0  0  0  0
   63.3730   32.0160   49.1530 Cl  0  0  0  0  0  0  0  0  0  0  0  0
   61.2720   32.0520   47.4360 C   0  0  0  0  0  0  0  0  0  0  0  0
   61.5240   32.7340   46.4080 O   0  0  0  0  0  0  0  0  0  0  0  0
   60.5180   30.8060   47.7150 N   0  0  0  0  0  0  0  0  0  0  0  0
   59.7490   29.8770   46.9430 C   0  0  0  0  0  0  0  0  0  0  0  0
   60.1530   28.5390   46.8450 C   0  0  0  0  0  0  0  0  0  0  0  0
   59.3900   27.6260   46.1140 C   0  0  0  0  0  0  0  0  0  0  0  0
   58.2150   28.0400   45.4830 C   0  0  0  0  0  0  0  0  0  0  0  0
   57.7870   29.3760   45.5850 C   0  0  0  0  0  0  0  0  0  0  0  0
   56.5260   29.8170   44.9460 C   0  0  0  0  0  0  0  0  0  0  0  0
   55.5670   29.0080   44.8490 O   0  0  0  0  0  0  0  0  0  0  0  0
   56.3450   31.1590   44.4690 N   0  0  0  0  0  0  0  0  0  0  0  0
   57.1570   32.2930   44.8050 C   0  0  0  0  0  0  0  0  0  0  0  0
   58.1340   32.7190   43.8950 C   0  0  0  0  0  0  0  0  0  0  0  0
   58.9500   33.8140   44.1940 C   0  0  0  0  0  0  0  0  0  0  0  0
   58.8130   34.4850   45.4180 C   0  0  0  0  0  0  0  0  0  0  0  0
   59.6580   35.6890   45.7180 C   0  0  0  0  0  0  0  0  0  0  0  0
   57.8410   34.0570   46.3340 C   0  0  0  0  0  0  0  0  0  0  0  0
   57.0290   32.9580   46.0370 C   0  0  0  0  0  0  0  0  0  0  0  0
   58.5720   30.2950   46.3020 C   0  0  0  0  0  0  0  0  0  0  0  0
   59.0370   29.9710   50.5810 C   0  0  0  0  0  0  0  0  0  0  0  0
   57.9240   30.1370   51.4140 C   0  0  0  0  0  0  0  0  0  0  0  0
   57.3190   29.0050   51.9590 O   0  0  0  0  0  0  0  0  0  0  0  0
   54.4889   30.8368   53.1749 H   0  0  0  0  0  0  0  0  0  0  0  0
   54.4534   31.7893   51.6523 H   0  0  0  0  0  0  0  0  0  0  0  0
   55.1172   30.1201   51.6523 H   0  0  0  0  0  0  0  0  0  0  0  0
   57.6938   33.5525   51.3155 H   0  0  0  0  0  0  0  0  0  0  0  0
   59.6718   33.2479   49.8392 H   0  0  0  0  0  0  0  0  0  0  0  0
   61.4208   30.1060   49.6068 H   0  0  0  0  0  0  0  0  0  0  0  0
   61.3818   33.0642   49.4798 H   0  0  0  0  0  0  0  0  0  0  0  0
   61.0744   28.2066   47.3456 H   0  0  0  0  0  0  0  0  0  0  0  0
   59.7153   26.5782   46.0350 H   0  0  0  0  0  0  0  0  0  0  0  0
   57.6213   27.3178   44.9034 H   0  0  0  0  0  0  0  0  0  0  0  0
   58.2595   32.1885   42.9396 H   0  0  0  0  0  0  0  0  0  0  0  0
   59.7028   34.1508   43.4661 H   0  0  0  0  0  0  0  0  0  0  0  0
   59.7453   35.8134   46.8074 H   0  0  0  0  0  0  0  0  0  0  0  0
   60.6591   35.5519   45.2832 H   0  0  0  0  0  0  0  0  0  0  0  0
   59.1888   36.5838   45.2832 H   0  0  0  0  0  0  0  0  0  0  0  0
   57.7170   34.5877   47.2895 H   0  0  0  0  0  0  0  0  0  0  0  0
   56.2863   32.6121   46.7710 H   0  0  0  0  0  0  0  0  0  0  0  0
   58.2622   31.3488   46.3614 H   0  0  0  0  0  0  0  0  0  0  0  0
   59.4067   28.9586   50.3608 H   0  0  0  0  0  0  0  0  0  0  0  0
   56.5810   29.0670   52.6490 H   0  0  0  0  0  0  0  0  0  0  0  0
  1  2  1  0
  2  3  1  0
  3  4  2  0
  4  5  1  0
  5  6  2  0
  6  7  1  0
  7  8  1  0
  8  9  1  0
  8 10  1  0
 10 11  2  0
 10 12  1  0
 12 13  1  0
 13 14  2  0
 14 15  1  0
 15 16  2  0
 16 17  1  0
 17 18  1  0
 18 19  2  0
 18 20  1  0
 20 21  1  0
 21 22  2  0
 22 23  1  0
 23 24  2  0
 24 25  1  0
 24 26  1  0
 26 27  2  0
 17 28  2  0
  6 29  1  0
 29 30  2  0
 30 31  1  0
 30  3  1  0
 12  7  1  0
 28 13  1  0
 27 21  1  0
  1 32  1  0
  1 33  1  0
  1 34  1  0
  4 35  1  0
  5 36  1  0
  7 37  1  1
  8 38  1  1
 14 39  1  0
 15 40  1  0
 16 41  1  0
 22 42  1  0
 23 43  1  0
 25 44  1  0
 25 45  1  0
 25 46  1  0
 26 47  1  0
 27 48  1  0
 28 49  1  0
 29 50  1  0
 31 51  1  0
M  CHG  1  20  -1
M  END
>  <UniqueID>  (26) 
24

>  <SMILES>  (26) 
COc1ccc([C@@H]2[C@@H](Cl)C(=O)N2c2cccc(C(=O)[N-]c3ccc(C)cc3)c2)cc1O

>  <Energy>  (26) 
92.4669024009826

>  <Genealogy>  (26) 
COc1ccc(C2C(Cl)C(=O)N2c2cccc(C(=O)[N-]c3ccc(C)cc3)c2)cc1O (protonated)
COc1ccc([C@@H]2[C@@H](Cl)C(=O)N2c2cccc(C(=O)[N-]c3ccc(C)cc3)c2)cc1O (chirality)
COc1ccc([C@@H]2[C@@H](Cl)C(=O)N2c2cccc(C(=O)[N-]c3ccc(C)cc3)c2)cc1O (3D coordinates assigned)
COc1ccc([C@@H]2[C@@H](Cl)C(=O)N2c2cccc(C(=O)[N-]c3ccc(C)cc3)c2)cc1O (nonaromatic ring conformer: 92.4669024009826 kcal/mol)

>  <smiles>  (26) 
COc1ccc(C2C(Cl)C(=O)N2c2cccc(C(=O)Nc3ccc(C)cc3)c2)cc1O

>  <score_type>  (26) 
oracle

>  <origin>  (26) 
adg

>  <m_score__min__energy>  (26) 
-10.57

>  <m_primary>  (26) 
energy

$$$$
26:0
     RDKit          3D

 37 38  0  0  0  0  0  0  0  0999 V2000
   57.5300   21.5060   45.1810 C   0  0  0  0  0  0  0  0  0  0  0  0
   57.7850   22.9480   45.4840 C   0  0  0  0  0  0  0  0  0  0  0  0
   59.0110   23.4120   45.7970 N   0  0  0  0  0  0  0  0  0  0  0  0
   58.8650   24.7360   46.0010 C   0  0  0  0  0  0  0  0  0  0  0  0
   60.0150   25.6210   46.3580 C   0  0  0  0  0  0  0  0  0  0  0  0
   57.5460   25.1250   45.8170 C   0  0  0  0  0  0  0  0  0  0  0  0
   56.9010   26.7710   45.9340 S   0  0  0  0  0  0  0  0  0  0  0  0
   55.4010   26.6970   46.0000 O   0  0  0  0  0  0  0  0  0  0  0  0
   57.3930   27.4530   47.1790 O   0  0  0  0  0  0  0  0  0  0  0  0
   57.3660   27.7100   44.5440 N   0  0  0  0  0  0  0  0  0  0  0  0
   57.6390   29.1010   44.9100 C   0  0  0  0  0  0  0  0  0  0  0  0
   56.4080   29.9370   44.7630 C   0  0  0  0  0  0  0  0  0  0  0  0
   55.2750   29.4080   44.9160 O   0  0  0  0  0  0  0  0  0  0  0  0
   56.5360   31.3450   44.5200 N   0  0  0  0  0  0  0  0  0  0  0  0
   57.3950   32.2590   45.2160 C   0  0  0  0  0  0  0  0  0  0  0  0
   58.1150   31.7940   46.3240 C   0  0  0  0  0  0  0  0  0  0  0  0
   58.9770   32.6470   47.0180 C   0  0  0  0  0  0  0  0  0  0  0  0
   59.1390   33.9710   46.5990 C   0  0  0  0  0  0  0  0  0  0  0  0
   59.9950   34.8190   47.2900 O   0  0  0  0  0  0  0  0  0  0  0  0
   58.4420   34.4390   45.4810 C   0  0  0  0  0  0  0  0  0  0  0  0
   57.5790   33.5870   44.7850 C   0  0  0  0  0  0  0  0  0  0  0  0
   56.8440   23.9740   45.4810 C   0  0  0  0  0  0  0  0  0  0  0  0
   55.4000   23.8480   45.1760 C   0  0  0  0  0  0  0  0  0  0  0  0
   55.0150   23.2090   44.1620 O   0  0  0  0  0  0  0  0  0  0  0  0
   54.4440   24.4260   46.0010 O   0  0  0  0  0  0  0  0  0  0  0  0
   57.4309   20.9455   46.1223 H   0  0  0  0  0  0  0  0  0  0  0  0
   56.6013   21.4123   44.5989 H   0  0  0  0  0  0  0  0  0  0  0  0
   58.3702   21.0995   44.5989 H   0  0  0  0  0  0  0  0  0  0  0  0
   60.1008   25.6870   47.4527 H   0  0  0  0  0  0  0  0  0  0  0  0
   60.9431   25.2019   45.9421 H   0  0  0  0  0  0  0  0  0  0  0  0
   59.8476   26.6255   45.9421 H   0  0  0  0  0  0  0  0  0  0  0  0
   57.9789   29.1394   45.9555 H   0  0  0  0  0  0  0  0  0  0  0  0
   58.4174   29.4967   44.2411 H   0  0  0  0  0  0  0  0  0  0  0  0
   58.0009   30.7497   46.6501 H   0  0  0  0  0  0  0  0  0  0  0  0
   59.5286   32.2766   47.8947 H   0  0  0  0  0  0  0  0  0  0  0  0
   58.5728   35.4793   45.1483 H   0  0  0  0  0  0  0  0  0  0  0  0
   57.0422   33.9551   43.8982 H   0  0  0  0  0  0  0  0  0  0  0  0
  1  2  1  0
  2  3  1  0
  3  4  1  0
  4  5  1  0
  4  6  2  0
  6  7  1  0
  7  8  2  0
  7  9  2  0
  7 10  1  0
 10 11  1  0
 11 12  1  0
 12 13  2  0
 12 14  1  0
 14 15  1  0
 15 16  2  0
 16 17  1  0
 17 18  2  0
 18 19  1  0
 18 20  1  0
 20 21  2  0
  6 22  1  0
 22 23  1  0
 23 24  2  0
 23 25  1  0
 22  2  2  0
 21 15  1  0
  1 26  1  0
  1 27  1  0
  1 28  1  0
  5 29  1  0
  5 30  1  0
  5 31  1  0
 11 32  1  0
 11 33  1  0
 16 34  1  0
 17 35  1  0
 20 36  1  0
 21 37  1  0
M  CHG  5   3  -1  10  -1  14  -1  19  -1  25  -1
M  END
>  <UniqueID>  (27) 
25

>  <SMILES>  (27) 
Cc1[n-]c(C)c(S(=O)(=O)[N-]CC(=O)[N-]c2ccc([O-])cc2)c1C(=O)[O-]

>  <Energy>  (27) 
63.73357380741493

>  <Genealogy>  (27) 
Cc1[n-]c(C)c(S(=O)(=O)[N-]CC(=O)[N-]c2ccc([O-])cc2)c1C(=O)[O-] (protonated)
Cc1[n-]c(C)c(S(=O)(=O)[N-]CC(=O)[N-]c2ccc([O-])cc2)c1C(=O)[O-] (3D coordinates assigned)
Cc1[n-]c(C)c(S(=O)(=O)[N-]CC(=O)[N-]c2ccc([O-])cc2)c1C(=O)[O-] (optimized conformer: 63.73357380741493 kcal/mol)

>  <smiles>  (27) 
Cc1[nH]c(C)c(S(=O)(=O)NCC(=O)Nc2ccc(O)cc2)c1C(=O)O

>  <score_type>  (27) 
oracle

>  <origin>  (27) 
adg

>  <m_score__min__energy>  (27) 
-14.359999999999999

>  <m_primary>  (27) 
energy

$$$$
27:0
     RDKit          3D

 52 54  0  0  0  0  0  0  0  0999 V2000
   59.2640   29.1520   48.4200 C   0  0  0  0  0  0  0  0  0  0  0  0
   59.9000   30.4260   48.4100 O   0  0  0  0  0  0  0  0  0  0  0  0
   61.1300   30.6650   49.0360 C   0  0  0  0  0  0  0  0  0  0  0  0
   61.4910   29.9290   49.9930 O   0  0  0  0  0  0  0  0  0  0  0  0
   61.9990   31.7700   48.5450 C   0  0  0  0  0  0  0  0  0  0  0  0
   63.3290   31.8350   49.0110 C   0  0  0  0  0  0  0  0  0  0  0  0
   64.1760   32.8750   48.6250 C   0  0  0  0  0  0  0  0  0  0  0  0
   63.7170   33.8670   47.7630 C   0  0  0  0  0  0  0  0  0  0  0  0
   62.4080   33.8240   47.2830 C   0  0  0  0  0  0  0  0  0  0  0  0
   61.5370   32.7880   47.6640 C   0  0  0  0  0  0  0  0  0  0  0  0
   60.2050   32.7760   47.1300 N   0  0  0  0  0  0  0  0  0  0  0  0
   59.3610   33.9360   47.1660 C   0  0  0  0  0  0  0  0  0  0  0  0
   59.7890   35.0200   47.6430 O   0  0  0  0  0  0  0  0  0  0  0  0
   57.9380   33.8550   46.7020 C   0  0  0  0  0  0  0  0  0  0  0  0
   57.8180   33.5970   44.8930 S   0  0  0  0  0  0  0  0  0  0  0  0
   57.7750   31.8080   44.9720 C   0  0  0  0  0  0  0  0  0  0  0  0
   58.9160   31.1010   45.1740 N   0  0  0  0  0  0  0  0  0  0  0  0
   58.9070   29.7430   45.1600 C   0  0  0  0  0  0  0  0  0  0  0  0
   59.9830   29.1130   45.3390 O   0  0  0  0  0  0  0  0  0  0  0  0
   57.7120   29.0530   44.9210 C   0  0  0  0  0  0  0  0  0  0  0  0
   57.7190   27.6210   44.8430 N   0  0  0  0  0  0  0  0  0  0  0  0
   57.0030   26.7440   45.7240 C   0  0  0  0  0  0  0  0  0  0  0  0
   55.8110   27.0230   46.0200 O   0  0  0  0  0  0  0  0  0  0  0  0
   57.6600   25.5630   46.3880 C   0  0  0  0  0  0  0  0  0  0  0  0
   57.5640   24.3510   45.5030 C   0  0  0  0  0  0  0  0  0  0  0  0
   58.5240   23.3280   45.5950 C   0  0  0  0  0  0  0  0  0  0  0  0
   58.4480   22.2140   44.7540 C   0  0  0  0  0  0  0  0  0  0  0  0
   57.4210   22.1180   43.8090 C   0  0  0  0  0  0  0  0  0  0  0  0
   56.4690   23.1370   43.7040 C   0  0  0  0  0  0  0  0  0  0  0  0
   56.5410   24.2520   44.5440 C   0  0  0  0  0  0  0  0  0  0  0  0
   56.5290   29.8040   44.7780 C   0  0  0  0  0  0  0  0  0  0  0  0
   55.2510   29.1760   44.6470 N   0  0  0  0  0  0  0  0  0  0  0  0
   56.5980   31.1590   44.7890 N   0  0  0  0  0  0  0  0  0  0  0  0
   59.1035   28.8305   49.4596 H   0  0  0  0  0  0  0  0  0  0  0  0
   58.2950   29.2218   47.9040 H   0  0  0  0  0  0  0  0  0  0  0  0
   59.9022   28.4195   47.9040 H   0  0  0  0  0  0  0  0  0  0  0  0
   63.7042   31.0542   49.6889 H   0  0  0  0  0  0  0  0  0  0  0  0
   65.2085   32.9108   49.0028 H   0  0  0  0  0  0  0  0  0  0  0  0
   64.3869   34.6852   47.4602 H   0  0  0  0  0  0  0  0  0  0  0  0
   62.0533   34.6091   46.5990 H   0  0  0  0  0  0  0  0  0  0  0  0
   59.8140   31.8810   46.7600 H   0  0  0  0  0  0  0  0  0  0  0  0
   57.4452   33.0152   47.2137 H   0  0  0  0  0  0  0  0  0  0  0  0
   57.4483   34.8104   46.9415 H   0  0  0  0  0  0  0  0  0  0  0  0
   58.7192   25.7938   46.5748 H   0  0  0  0  0  0  0  0  0  0  0  0
   57.1481   25.3549   47.3391 H   0  0  0  0  0  0  0  0  0  0  0  0
   59.3377   23.4045   46.3313 H   0  0  0  0  0  0  0  0  0  0  0  0
   59.1965   21.4121   44.8354 H   0  0  0  0  0  0  0  0  0  0  0  0
   57.3622   21.2406   43.1482 H   0  0  0  0  0  0  0  0  0  0  0  0
   55.6627   23.0610   42.9596 H   0  0  0  0  0  0  0  0  0  0  0  0
   55.7944   25.0549   44.4542 H   0  0  0  0  0  0  0  0  0  0  0  0
   55.1120   28.1620   44.8470 H   0  0  0  0  0  0  0  0  0  0  0  0
   54.4120   29.7470   44.3990 H   0  0  0  0  0  0  0  0  0  0  0  0
  1  2  1  0
  2  3  1  0
  3  4  2  0
  3  5  1  0
  5  6  2  0
  6  7  1  0
  7  8  2  0
  8  9  1  0
  9 10  2  0
 10 11  1  0
 11 12  1  0
 12 13  2  0
 12 14  1  0
 14 15  1  0
 15 16  1  0
 16 17  2  0
 17 18  1  0
 18 19  2  0
 18 20  1  0
 20 21  1  0
 21 22  1  0
 22 23  2  0
 22 24  1  0
 24 25  1  0
 25 26  2  0
 26 27  1  0
 27 28  2  0
 28 29  1  0
 29 30  2  0
 20 31  2  0
 31 32  1  0
 31 33  1  0
 10  5  1  0
 33 16  1  0
 30 25  1  0
  1 34  1  0
  1 35  1  0
  1 36  1  0
  6 37  1  0
  7 38  1  0
  8 39  1  0
  9 40  1  0
 11 41  1  0
 14 42  1  0
 14 43  1  0
 24 44  1  0
 24 45  1  0
 26 46  1  0
 27 47  1  0
 28 48  1  0
 29 49  1  0
 30 50  1  0
 32 51  1  0
 32 52  1  0
M  CHG  2  21  -1  33  -1
M  END
>  <UniqueID>  (28) 
26

>  <SMILES>  (28) 
COC(=O)c1ccccc1NC(=O)CSc1nc(=O)c([N-]C(=O)Cc2ccccc2)c(N)[n-]1

>  <Energy>  (28) 
58.89130879754002

>  <Genealogy>  (28) 
COC(=O)c1ccccc1NC(=O)CSc1nc(=O)c([N-]C(=O)Cc2ccccc2)c(N)[n-]1 (protonated)
COC(=O)c1ccccc1NC(=O)CSc1nc(=O)c([N-]C(=O)Cc2ccccc2)c(N)[n-]1 (3D coordinates assigned)
COC(=O)c1ccccc1NC(=O)CSc1nc(=O)c([N-]C(=O)Cc2ccccc2)c(N)[n-]1 (optimized conformer: 58.89130879754002 kcal/mol)

>  <smiles>  (28) 
COC(=O)c1ccccc1NC(=O)CSc1nc(=O)c(NC(=O)Cc2ccccc2)c(N)[nH]1

>  <score_type>  (28) 
oracle

>  <origin>  (28) 
adg

>  <m_score__min__energy>  (28) 
-12.68

>  <m_primary>  (28) 
energy

$$$$
28:0
     RDKit          3D

 52 55  0  0  0  0  0  0  0  0999 V2000
   60.1668   29.5945   44.4025 H   0  0  0  0  0  0  0  0  0  0  0  0
   59.9620   29.3170   45.4470 C   0  0  0  0  0  0  0  0  0  0  0  0
   60.7610   29.9130   46.8030 S   0  0  0  0  0  0  0  0  0  0  0  0
   59.8400   28.9930   47.8740 C   0  0  0  0  0  0  0  0  0  0  0  0
   59.9460   28.9930   49.1680 N   0  0  0  0  0  0  0  0  0  0  0  0
   60.5910   30.3080   50.0970 S   0  0  0  0  0  0  0  0  0  0  0  0
   61.5360   29.7700   51.1340 O   0  0  0  0  0  0  0  0  0  0  0  0
   61.3420   31.2360   49.1840 O   0  0  0  0  0  0  0  0  0  0  0  0
   59.2860   31.1960   50.8590 C   0  0  0  0  0  0  0  0  0  0  0  0
   59.4610   32.6660   51.6520 S   0  0  0  0  0  0  0  0  0  0  0  0
   57.8400   32.8300   52.0750 C   0  0  0  0  0  0  0  0  0  0  0  0
   57.4029   33.6689   52.6365 H   0  0  0  0  0  0  0  0  0  0  0  0
   57.1480   31.7250   51.5940 C   0  0  0  0  0  0  0  0  0  0  0  0
   56.0662   31.5842   51.7352 H   0  0  0  0  0  0  0  0  0  0  0  0
   57.9570   30.8080   50.9130 C   0  0  0  0  0  0  0  0  0  0  0  0
   57.5774   29.8767   50.4673 H   0  0  0  0  0  0  0  0  0  0  0  0
   58.9300   28.2350   47.2280 N   0  0  0  0  0  0  0  0  0  0  0  0
   58.9950   28.4100   45.8790 C   0  0  0  0  0  0  0  0  0  0  0  0
   58.0670   27.6840   44.9490 C   0  0  0  0  0  0  0  0  0  0  0  0
   58.2163   26.6006   45.0674 H   0  0  0  0  0  0  0  0  0  0  0  0
   58.2923   27.9977   43.9190 H   0  0  0  0  0  0  0  0  0  0  0  0
   56.6270   28.0160   45.2430 C   0  0  0  0  0  0  0  0  0  0  0  0
   55.9210   27.1850   45.8720 O   0  0  0  0  0  0  0  0  0  0  0  0
   56.0720   29.3070   44.9520 N   0  0  0  0  0  0  0  0  0  0  0  0
   56.7380   30.3830   44.2780 C   0  0  0  0  0  0  0  0  0  0  0  0
   56.7520   30.4660   42.8780 C   0  0  0  0  0  0  0  0  0  0  0  0
   56.2632   29.6853   42.2766 H   0  0  0  0  0  0  0  0  0  0  0  0
   57.3860   31.5390   42.2460 C   0  0  0  0  0  0  0  0  0  0  0  0
   57.4154   31.5886   41.1475 H   0  0  0  0  0  0  0  0  0  0  0  0
   57.9820   32.5480   43.0040 C   0  0  0  0  0  0  0  0  0  0  0  0
   58.4823   33.3892   42.5020 H   0  0  0  0  0  0  0  0  0  0  0  0
   57.9440   32.4910   44.4040 C   0  0  0  0  0  0  0  0  0  0  0  0
   58.6470   33.7810   45.3780 S   0  0  0  0  0  0  0  0  0  0  0  0
   57.5640   34.5110   46.1240 O   0  0  0  0  0  0  0  0  0  0  0  0
   59.3390   34.7550   44.4670 O   0  0  0  0  0  0  0  0  0  0  0  0
   59.7990   33.1010   46.5050 N   0  0  0  0  0  0  0  0  0  0  0  0
   59.9180   32.0930   46.2410 H   0  0  0  0  0  0  0  0  0  0  0  0
   61.1060   33.7710   46.3500 C   0  0  0  0  0  0  0  0  0  0  0  0
   61.6323   33.3412   45.4850 H   0  0  0  0  0  0  0  0  0  0  0  0
   60.9370   34.8470   46.1962 H   0  0  0  0  0  0  0  0  0  0  0  0
   61.9660   33.5790   47.6120 C   0  0  0  0  0  0  0  0  0  0  0  0
   62.1391   32.5015   47.7502 H   0  0  0  0  0  0  0  0  0  0  0  0
   62.8955   34.1441   47.4485 H   0  0  0  0  0  0  0  0  0  0  0  0
   61.3810   34.0930   48.8040 O   0  0  0  0  0  0  0  0  0  0  0  0
   59.9700   34.2560   48.7240 C   0  0  0  0  0  0  0  0  0  0  0  0
   59.5565   34.2373   49.7432 H   0  0  0  0  0  0  0  0  0  0  0  0
   59.7773   35.2149   48.2206 H   0  0  0  0  0  0  0  0  0  0  0  0
   59.2840   33.1550   47.8960 C   0  0  0  0  0  0  0  0  0  0  0  0
   59.4643   32.1833   48.3791 H   0  0  0  0  0  0  0  0  0  0  0  0
   58.2092   33.3845   47.8510 H   0  0  0  0  0  0  0  0  0  0  0  0
   57.3100   31.4110   45.0360 C   0  0  0  0  0  0  0  0  0  0  0  0
   57.2621   31.3719   46.1343 H   0  0  0  0  0  0  0  0  0  0  0  0
  1  2  1  0
  2  3  1  0
  3  4  1  0
  4  5  2  0
  5  6  1  0
  6  7  2  0
  6  8  2  0
  6  9  1  0
  9 10  1  0
 10 11  1  0
 11 12  1  0
 11 13  2  0
 13 14  1  0
 13 15  1  0
 15 16  1  0
  4 17  1  0
 17 18  1  0
 18 19  1  0
 19 20  1  0
 19 21  1  0
 19 22  1  0
 22 23  2  0
 22 24  1  0
 24 25  1  0
 25 26  2  0
 26 27  1  0
 26 28  1  0
 28 29  1  0
 28 30  2  0
 30 31  1  0
 30 32  1  0
 32 33  1  0
 33 34  2  0
 33 35  2  0
 33 36  1  0
 36 37  1  0
 36 38  1  0
 38 39  1  0
 38 40  1  0
 38 41  1  0
 41 42  1  0
 41 43  1  0
 41 44  1  0
 44 45  1  0
 45 46  1  0
 45 47  1  0
 45 48  1  0
 48 49  1  0
 48 50  1  0
 32 51  2  0
 51 52  1  0
 18  2  2  0
 51 25  1  0
 15  9  2  0
 48 36  1  0
M  CHG  3  17  -1  24  -1  36   1
M  END
>  <UniqueID>  (29) 
27

>  <SMILES>  (29) 
O=C(Cc1cs/c(=N\S(=O)(=O)c2cccs2)[n-]1)[N-]c1cccc(S(=O)(=O)[NH+]2CCOCC2)c1

>  <Energy>  (29) 
130.20373264656013

>  <Genealogy>  (29) 
O=C(Cc1csc(=NS(=O)(=O)c2cccs2)[n-]1)[N-]c1cccc(S(=O)(=O)[NH+]2CCOCC2)c1 (protonated)
O=C(Cc1cs/c(=N\S(=O)(=O)c2cccs2)[n-]1)[N-]c1cccc(S(=O)(=O)[NH+]2CCOCC2)c1 (cis-trans isomerization)
O=C(Cc1cs/c(=N\S(=O)(=O)c2cccs2)[n-]1)[N-]c1cccc(S(=O)(=O)[NH+]2CCOCC2)c1 (3D coordinates assigned)
O=C(Cc1cs/c(=N\S(=O)(=O)c2cccs2)[n-]1)[N-]c1cccc(S(=O)(=O)[NH+]2CCOCC2)c1 (nonaromatic ring conformer: 130.20373264656013 kcal/mol)

>  <smiles>  (29) 
O=C(Cc1csc(=NS(=O)(=O)c2cccs2)[nH]1)Nc1cccc(S(=O)(=O)N2CCOCC2)c1

>  <score_type>  (29) 
oracle

>  <origin>  (29) 
adg

>  <m_score__min__energy>  (29) 
-12.279999999999999

>  <m_primary>  (29) 
energy

$$$$
29:0
     RDKit          3D

 57 59  0  0  0  0  0  0  0  0999 V2000
   62.7130   31.7220   49.2970 N   0  0  0  0  0  0  0  0  0  0  0  0
   62.7320   32.8900   50.1830 C   0  0  1  0  0  0  0  0  0  0  0  0
   62.5370   34.1910   49.3810 C   0  0  0  0  0  0  0  0  0  0  0  0
   61.4360   34.0610   48.3520 C   0  0  0  0  0  0  0  0  0  0  0  0
   60.1010   34.2220   48.7640 C   0  0  0  0  0  0  0  0  0  0  0  0
   59.0560   34.1340   47.8420 C   0  0  0  0  0  0  0  0  0  0  0  0
   59.3290   33.8880   46.4950 C   0  0  0  0  0  0  0  0  0  0  0  0
   58.0140   33.7800   45.3380 Cl  0  0  0  0  0  0  0  0  0  0  0  0
   60.6520   33.7340   46.0690 C   0  0  0  0  0  0  0  0  0  0  0  0
   61.7080   33.8210   46.9850 C   0  0  0  0  0  0  0  0  0  0  0  0
   63.3500   33.6360   46.3740 Cl  0  0  0  0  0  0  0  0  0  0  0  0
   61.6390   32.7730   51.2140 C   0  0  0  0  0  0  0  0  0  0  0  0
   61.7640   33.3530   52.3270 O   0  0  0  0  0  0  0  0  0  0  0  0
   60.4880   31.9590   50.9500 N   0  0  0  0  0  0  0  0  0  0  0  0
   59.3730   31.8470   51.8870 C   0  0  0  0  0  0  0  0  0  0  0  0
   58.1480   31.3310   51.1880 C   0  0  0  0  0  0  0  0  0  0  0  0
   57.0750   31.2130   51.8350 O   0  0  0  0  0  0  0  0  0  0  0  0
   58.1560   31.0030   49.7950 N   0  0  0  0  0  0  0  0  0  0  0  0
   58.5730   29.7160   49.2540 C   0  0  0  0  0  0  0  0  0  0  0  0
   59.7070   29.9240   48.2950 C   0  0  0  0  0  0  0  0  0  0  0  0
   60.3490   31.0090   48.3370 O   0  0  0  0  0  0  0  0  0  0  0  0
   60.0430   28.9310   47.3070 N   0  0  0  0  0  0  0  0  0  0  0  0
   60.3740   27.5490   47.6210 C   0  0  0  0  0  0  0  0  0  0  0  0
   60.5760   26.8560   46.2790 C   0  0  0  0  0  0  0  0  0  0  0  0
   60.7660   27.9720   45.2540 C   0  0  0  0  0  0  0  0  0  0  0  0
   60.1700   29.2320   45.8870 C   0  0  1  0  0  0  0  0  0  0  0  0
   58.8250   29.5790   45.2810 C   0  0  0  0  0  0  0  0  0  0  0  0
   57.6400   28.9720   45.7430 C   0  0  0  0  0  0  0  0  0  0  0  0
   56.4100   29.2900   45.1600 C   0  0  0  0  0  0  0  0  0  0  0  0
   56.3480   30.2060   44.1080 C   0  0  0  0  0  0  0  0  0  0  0  0
   57.5180   30.8060   43.6330 C   0  0  0  0  0  0  0  0  0  0  0  0
   57.4410   31.9520   42.3070 Cl  0  0  0  0  0  0  0  0  0  0  0  0
   58.7520   30.4900   44.2140 C   0  0  0  0  0  0  0  0  0  0  0  0
   62.0640   31.0090   49.7000 H   0  0  0  0  0  0  0  0  0  0  0  0
   62.2820   32.0080   48.3880 H   0  0  0  0  0  0  0  0  0  0  0  0
   63.7116   32.9238   50.6823 H   0  0  0  0  0  0  0  0  0  0  0  0
   62.2787   35.0024   50.0773 H   0  0  0  0  0  0  0  0  0  0  0  0
   63.4756   34.4073   48.8498 H   0  0  0  0  0  0  0  0  0  0  0  0
   59.8778   34.4192   49.8229 H   0  0  0  0  0  0  0  0  0  0  0  0
   58.0159   34.2587   48.1775 H   0  0  0  0  0  0  0  0  0  0  0  0
   60.8649   33.5432   45.0068 H   0  0  0  0  0  0  0  0  0  0  0  0
   60.4520   31.4030   50.0650 H   0  0  0  0  0  0  0  0  0  0  0  0
   59.6477   31.1533   52.6953 H   0  0  0  0  0  0  0  0  0  0  0  0
   59.1540   32.8428   52.2998 H   0  0  0  0  0  0  0  0  0  0  0  0
   58.9016   29.0617   50.0749 H   0  0  0  0  0  0  0  0  0  0  0  0
   57.7282   29.2466   48.7286 H   0  0  0  0  0  0  0  0  0  0  0  0
   61.2960   27.5022   48.2190 H   0  0  0  0  0  0  0  0  0  0  0  0
   59.5808   27.0664   48.2108 H   0  0  0  0  0  0  0  0  0  0  0  0
   61.4667   26.2114   46.3118 H   0  0  0  0  0  0  0  0  0  0  0  0
   59.7193   26.2152   46.0232 H   0  0  0  0  0  0  0  0  0  0  0  0
   61.8355   28.1194   45.0432 H   0  0  0  0  0  0  0  0  0  0  0  0
   60.2759   27.7301   44.2994 H   0  0  0  0  0  0  0  0  0  0  0  0
   60.8108   30.1085   45.7106 H   0  0  0  0  0  0  0  0  0  0  0  0
   57.6832   28.2442   46.5667 H   0  0  0  0  0  0  0  0  0  0  0  0
   55.4886   28.8174   45.5309 H   0  0  0  0  0  0  0  0  0  0  0  0
   55.3782   30.4556   43.6528 H   0  0  0  0  0  0  0  0  0  0  0  0
   59.6711   30.9585   43.8322 H   0  0  0  0  0  0  0  0  0  0  0  0
  1  2  1  0
  2  3  1  0
  3  4  1  0
  4  5  2  0
  5  6  1  0
  6  7  2  0
  7  8  1  0
  7  9  1  0
  9 10  2  0
 10 11  1  0
  2 12  1  0
 12 13  2  0
 12 14  1  0
 14 15  1  0
 15 16  1  0
 16 17  2  0
 16 18  1  0
 18 19  1  0
 19 20  1  0
 20 21  2  0
 20 22  1  0
 22 23  1  0
 23 24  1  0
 24 25  1  0
 25 26  1  0
 26 27  1  0
 27 28  2  0
 28 29  1  0
 29 30  2  0
 30 31  1  0
 31 32  1  0
 31 33  2  0
 10  4  1  0
 26 22  1  0
 33 27  1  0
  1 34  1  0
  1 35  1  0
  2 36  1  1
  3 37  1  0
  3 38  1  0
  5 39  1  0
  6 40  1  0
  9 41  1  0
 14 42  1  0
 15 43  1  0
 15 44  1  0
 19 45  1  0
 19 46  1  0
 23 47  1  0
 23 48  1  0
 24 49  1  0
 24 50  1  0
 25 51  1  0
 25 52  1  0
 26 53  1  1
 28 54  1  0
 29 55  1  0
 30 56  1  0
 33 57  1  0
M  CHG  1  18  -1
M  END
>  <UniqueID>  (30) 
28

>  <SMILES>  (30) 
N[C@@H](Cc1ccc(Cl)cc1Cl)C(=O)NCC(=O)[N-]CC(=O)N1CCC[C@H]1c1cccc(Cl)c1

>  <Energy>  (30) 
49.29165765531126

>  <Genealogy>  (30) 
NC(Cc1ccc(Cl)cc1Cl)C(=O)NCC(=O)[N-]CC(=O)N1CCCC1c1cccc(Cl)c1 (protonated)
N[C@@H](Cc1ccc(Cl)cc1Cl)C(=O)NCC(=O)[N-]CC(=O)N1CCC[C@H]1c1cccc(Cl)c1 (chirality)
N[C@@H](Cc1ccc(Cl)cc1Cl)C(=O)NCC(=O)[N-]CC(=O)N1CCC[C@H]1c1cccc(Cl)c1 (3D coordinates assigned)
N[C@@H](Cc1ccc(Cl)cc1Cl)C(=O)NCC(=O)[N-]CC(=O)N1CCC[C@H]1c1cccc(Cl)c1 (nonaromatic ring conformer: 49.29165765531126 kcal/mol)

>  <smiles>  (30) 
NC(Cc1ccc(Cl)cc1Cl)C(=O)NCC(=O)NCC(=O)N1CCCC1c1cccc(Cl)c1

>  <score_type>  (30) 
oracle

>  <origin>  (30) 
adg

>  <m_score__min__energy>  (30) 
-10.619999999999999

>  <m_primary>  (30) 
energy

$$$$
30:0
     RDKit          3D

 30 31  0  0  0  0  0  0  0  0999 V2000
   54.5770   26.1630   45.9930 N   0  0  0  0  0  0  0  0  0  0  0  0
   56.0800   25.3130   45.9470 S   0  0  0  0  0  0  0  0  0  0  0  0
   56.0910   24.3720   44.7750 O   0  0  0  0  0  0  0  0  0  0  0  0
   56.2400   24.5120   47.2100 O   0  0  0  0  0  0  0  0  0  0  0  0
   57.4030   26.4650   45.8000 C   0  0  0  0  0  0  0  0  0  0  0  0
   57.8450   26.8750   44.5350 C   0  0  0  0  0  0  0  0  0  0  0  0
   58.9050   27.7790   44.4190 C   0  0  0  0  0  0  0  0  0  0  0  0
   59.5350   28.2830   45.5680 C   0  0  0  0  0  0  0  0  0  0  0  0
   60.6910   29.2350   45.4340 C   0  0  0  0  0  0  0  0  0  0  0  0
   60.4550   30.4340   46.2300 N   0  0  0  0  0  0  0  0  0  0  0  0
   59.3880   31.3570   45.9800 C   0  0  0  0  0  0  0  0  0  0  0  0
   59.4710   32.5460   46.3930 O   0  0  0  0  0  0  0  0  0  0  0  0
   58.1850   30.9240   45.2450 C   0  0  0  0  0  0  0  0  0  0  0  0
   57.9830   31.2690   43.9030 C   0  0  0  0  0  0  0  0  0  0  0  0
   56.8270   30.8370   43.2540 C   0  0  0  0  0  0  0  0  0  0  0  0
   55.9000   30.0700   43.9580 C   0  0  0  0  0  0  0  0  0  0  0  0
   54.8490   29.6660   43.3960 O   0  0  0  0  0  0  0  0  0  0  0  0
   56.1380   29.7590   45.2580 N   0  0  0  0  0  0  0  0  0  0  0  0
   57.2440   30.1730   45.8810 N   0  0  0  0  0  0  0  0  0  0  0  0
   59.0990   27.8610   46.8330 C   0  0  0  0  0  0  0  0  0  0  0  0
   58.0380   26.9570   46.9480 C   0  0  0  0  0  0  0  0  0  0  0  0
   54.7670   27.0960   46.4220 H   0  0  0  0  0  0  0  0  0  0  0  0
   57.3563   26.4842   43.6303 H   0  0  0  0  0  0  0  0  0  0  0  0
   59.2470   28.0969   43.4230 H   0  0  0  0  0  0  0  0  0  0  0  0
   61.6096   28.7418   45.7846 H   0  0  0  0  0  0  0  0  0  0  0  0
   60.7969   29.5224   44.3775 H   0  0  0  0  0  0  0  0  0  0  0  0
   58.7284   31.8744   43.3665 H   0  0  0  0  0  0  0  0  0  0  0  0
   56.6489   31.0980   42.2004 H   0  0  0  0  0  0  0  0  0  0  0  0
   59.5937   28.2428   47.7383 H   0  0  0  0  0  0  0  0  0  0  0  0
   57.7009   26.6312   47.9431 H   0  0  0  0  0  0  0  0  0  0  0  0
  1  2  1  0
  2  3  2  0
  2  4  2  0
  2  5  1  0
  5  6  2  0
  6  7  1  0
  7  8  2  0
  8  9  1  0
  9 10  1  0
 10 11  1  0
 11 12  2  0
 11 13  1  0
 13 14  1  0
 14 15  2  0
 15 16  1  0
 16 17  2  0
 16 18  1  0
 18 19  1  0
  8 20  1  0
 20 21  2  0
 21  5  1  0
 19 13  2  0
  1 22  1  0
  6 23  1  0
  7 24  1  0
  9 25  1  0
  9 26  1  0
 14 27  1  0
 15 28  1  0
 20 29  1  0
 21 30  1  0
M  CHG  3   1  -1  10  -1  18  -1
M  END
>  <UniqueID>  (31) 
29

>  <SMILES>  (31) 
[NH-]S(=O)(=O)c1ccc(C[N-]C(=O)c2ccc(=O)[n-]n2)cc1

>  <Energy>  (31) 
29.24655029355194

>  <Genealogy>  (31) 
[NH-]S(=O)(=O)c1ccc(C[N-]C(=O)c2ccc(=O)[n-]n2)cc1 (protonated)
[NH-]S(=O)(=O)c1ccc(C[N-]C(=O)c2ccc(=O)[n-]n2)cc1 (3D coordinates assigned)
[NH-]S(=O)(=O)c1ccc(C[N-]C(=O)c2ccc(=O)[n-]n2)cc1 (optimized conformer: 29.24655029355194 kcal/mol)

>  <smiles>  (31) 
NS(=O)(=O)c1ccc(CNC(=O)c2ccc(=O)[nH]n2)cc1

>  <score_type>  (31) 
oracle

>  <origin>  (31) 
adg

>  <m_score__min__energy>  (31) 
-12.91

>  <m_primary>  (31) 
energy

$$$$
31:0
     RDKit          3D

 39 41  0  0  0  0  0  0  0  0999 V2000
   54.3940   29.3600   43.3770 O   0  0  0  0  0  0  0  0  0  0  0  0
   55.5120   29.6640   43.8750 C   0  0  0  0  0  0  0  0  0  0  0  0
   56.5060   30.4280   43.0620 C   0  0  0  0  0  0  0  0  0  0  0  0
   57.1350   31.4540   43.8870 N   0  0  0  0  0  0  0  0  0  0  0  0
   57.8900   32.4820   43.4370 C   0  0  0  0  0  0  0  0  0  0  0  0
   58.3670   33.1620   44.5400 C   0  0  0  0  0  0  0  0  0  0  0  0
   57.8440   32.5110   45.6310 C   0  0  0  0  0  0  0  0  0  0  0  0
   57.1210   31.4570   45.2120 N   0  0  0  0  0  0  0  0  0  0  0  0
   58.1730   32.8610   47.0490 C   0  0  0  0  0  0  0  0  0  0  0  0
   58.7280   34.2990   47.1270 C   0  0  0  0  0  0  0  0  0  0  0  0
   59.7810   34.5720   46.0290 C   0  0  0  0  0  0  0  0  0  0  0  0
   59.1890   34.4100   44.6140 C   0  0  0  0  0  0  0  0  0  0  0  0
   55.8170   29.3270   45.2290 N   0  0  0  0  0  0  0  0  0  0  0  0
   56.6110   28.1630   45.5930 C   0  0  0  0  0  0  0  0  0  0  0  0
   58.0710   28.5320   45.6000 C   0  0  0  0  0  0  0  0  0  0  0  0
   58.5850   29.3060   46.6540 C   0  0  0  0  0  0  0  0  0  0  0  0
   59.9330   29.6750   46.6690 C   0  0  0  0  0  0  0  0  0  0  0  0
   60.7770   29.2870   45.6270 C   0  0  0  0  0  0  0  0  0  0  0  0
   60.2750   28.5330   44.5640 C   0  0  0  0  0  0  0  0  0  0  0  0
   58.9270   28.1560   44.5400 C   0  0  0  0  0  0  0  0  0  0  0  0
   58.3440   27.2220   43.1640 Cl  0  0  0  0  0  0  0  0  0  0  0  0
   57.2765   29.7391   42.6854 H   0  0  0  0  0  0  0  0  0  0  0  0
   55.9917   30.9071   42.2159 H   0  0  0  0  0  0  0  0  0  0  0  0
   58.0880   32.7310   42.3840 H   0  0  0  0  0  0  0  0  0  0  0  0
   56.6430   30.7490   45.8130 H   0  0  0  0  0  0  0  0  0  0  0  0
   57.2624   32.7891   47.6619 H   0  0  0  0  0  0  0  0  0  0  0  0
   58.9341   32.1612   47.4245 H   0  0  0  0  0  0  0  0  0  0  0  0
   57.8959   35.0082   47.0056 H   0  0  0  0  0  0  0  0  0  0  0  0
   59.2160   34.4229   48.1050 H   0  0  0  0  0  0  0  0  0  0  0  0
   60.1555   35.6000   46.1426 H   0  0  0  0  0  0  0  0  0  0  0  0
   60.5936   33.8398   46.1453 H   0  0  0  0  0  0  0  0  0  0  0  0
   58.5538   35.2781   44.3838 H   0  0  0  0  0  0  0  0  0  0  0  0
   60.0106   34.3435   43.8856 H   0  0  0  0  0  0  0  0  0  0  0  0
   56.3158   27.8166   46.5944 H   0  0  0  0  0  0  0  0  0  0  0  0
   56.4399   27.3597   44.8613 H   0  0  0  0  0  0  0  0  0  0  0  0
   57.9223   29.6236   47.4725 H   0  0  0  0  0  0  0  0  0  0  0  0
   60.3295   30.2722   47.5033 H   0  0  0  0  0  0  0  0  0  0  0  0
   61.8384   29.5754   45.6432 H   0  0  0  0  0  0  0  0  0  0  0  0
   60.9418   28.2340   43.7419 H   0  0  0  0  0  0  0  0  0  0  0  0
  1  2  2  0
  2  3  1  0
  3  4  1  0
  4  5  1  0
  5  6  2  0
  6  7  1  0
  7  8  2  0
  7  9  1  0
  9 10  1  0
 10 11  1  0
 11 12  1  0
  2 13  1  0
 13 14  1  0
 14 15  1  0
 15 16  2  0
 16 17  1  0
 17 18  2  0
 18 19  1  0
 19 20  2  0
 20 21  1  0
  8  4  1  0
 20 15  1  0
 12  6  1  0
  3 22  1  0
  3 23  1  0
  5 24  1  0
  8 25  1  0
  9 26  1  0
  9 27  1  0
 10 28  1  0
 10 29  1  0
 11 30  1  0
 11 31  1  0
 12 32  1  0
 12 33  1  0
 14 34  1  0
 14 35  1  0
 16 36  1  0
 17 37  1  0
 18 38  1  0
 19 39  1  0
M  CHG  2   8   1  13  -1
M  END
>  <UniqueID>  (32) 
30

>  <SMILES>  (32) 
O=C(Cn1cc2c([nH+]1)CCCC2)[N-]Cc1ccccc1Cl

>  <Energy>  (32) 
66.56009117245075

>  <Genealogy>  (32) 
O=C(Cn1cc2c([nH+]1)CCCC2)[N-]Cc1ccccc1Cl (protonated)
O=C(Cn1cc2c([nH+]1)CCCC2)[N-]Cc1ccccc1Cl (3D coordinates assigned)
O=C(Cn1cc2c([nH+]1)CCCC2)[N-]Cc1ccccc1Cl (nonaromatic ring conformer: 66.56009117245075 kcal/mol)

>  <smiles>  (32) 
O=C(Cn1cc2c(n1)CCCC2)NCc1ccccc1Cl

>  <score_type>  (32) 
oracle

>  <origin>  (32) 
adg

>  <m_score__min__energy>  (32) 
-8.6799999999999997

>  <m_primary>  (32) 
energy

$$$$
32:0
     RDKit          3D

 51 53  0  0  0  0  0  0  0  0999 V2000
   55.8900   28.2200   42.5720 H   0  0  0  0  0  0  0  0  0  0  0  0
   56.2850   29.1260   42.3500 O   0  0  0  0  0  0  0  0  0  0  0  0
   56.7890   29.9630   43.3430 C   0  0  0  0  0  0  0  0  0  0  0  0
   57.5260   31.1040   43.0000 C   0  0  0  0  0  0  0  0  0  0  0  0
   57.7060   31.3463   41.9422 H   0  0  0  0  0  0  0  0  0  0  0  0
   58.0310   31.9320   44.0020 C   0  0  0  0  0  0  0  0  0  0  0  0
   58.6079   32.8314   43.7407 H   0  0  0  0  0  0  0  0  0  0  0  0
   57.7970   31.6080   45.3430 C   0  0  0  0  0  0  0  0  0  0  0  0
   58.1932   32.2510   46.1428 H   0  0  0  0  0  0  0  0  0  0  0  0
   57.0790   30.4970   45.6550 N   0  0  0  0  0  0  0  0  0  0  0  0
   56.5660   29.6690   44.6960 C   0  0  0  0  0  0  0  0  0  0  0  0
   55.8850   28.6080   45.0170 N   0  0  0  0  0  0  0  0  0  0  0  0
   56.4020   27.3770   45.5460 C   0  0  0  0  0  0  0  0  0  0  0  0
   55.7340   26.6840   46.3570 O   0  0  0  0  0  0  0  0  0  0  0  0
   57.7700   26.9210   45.1450 C   0  0  0  0  0  0  0  0  0  0  0  0
   57.8383   26.8931   44.0475 H   0  0  0  0  0  0  0  0  0  0  0  0
   57.9517   25.9161   45.5539 H   0  0  0  0  0  0  0  0  0  0  0  0
   58.8030   27.8700   45.6850 C   0  0  0  0  0  0  0  0  0  0  0  0
   59.8030   28.3820   44.8420 C   0  0  0  0  0  0  0  0  0  0  0  0
   59.8685   28.0380   43.7992 H   0  0  0  0  0  0  0  0  0  0  0  0
   60.7150   29.3260   45.3210 C   0  0  0  0  0  0  0  0  0  0  0  0
   61.5014   29.7126   44.6561 H   0  0  0  0  0  0  0  0  0  0  0  0
   60.6340   29.7840   46.6450 C   0  0  0  0  0  0  0  0  0  0  0  0
   61.5930   30.8280   47.1630 C   0  0  0  0  0  0  0  0  0  0  0  0
   61.9203   31.4524   46.3186 H   0  0  0  0  0  0  0  0  0  0  0  0
   62.4340   30.2967   47.6326 H   0  0  0  0  0  0  0  0  0  0  0  0
   60.9950   31.7050   48.1930 N   0  0  0  0  0  0  0  0  0  0  0  0
   59.7350   32.4010   47.8410 C   0  0  0  0  0  0  0  0  0  0  0  0
   59.3651   31.9840   46.8927 H   0  0  0  0  0  0  0  0  0  0  0  0
   59.0423   32.2393   48.6801 H   0  0  0  0  0  0  0  0  0  0  0  0
   59.8770   33.9490   47.6720 C   0  0  2  0  0  0  0  0  0  0  0  0
   59.0773   34.3700   48.2991 H   0  0  0  0  0  0  0  0  0  0  0  0
   59.6510   34.4030   46.2230 C   0  0  0  0  0  0  0  0  0  0  0  0
   59.1608   35.3877   46.2195 H   0  0  0  0  0  0  0  0  0  0  0  0
   60.6192   34.4735   45.7056 H   0  0  0  0  0  0  0  0  0  0  0  0
   59.0111   33.6730   45.7056 H   0  0  0  0  0  0  0  0  0  0  0  0
   61.1530   34.4850   48.1780 N   0  0  0  0  0  0  0  0  0  0  0  0
   61.9110   34.3440   47.4650 H   0  0  0  0  0  0  0  0  0  0  0  0
   61.5380   33.8180   49.4230 C   0  0  2  0  0  0  0  0  0  0  0  0
   60.6868   33.8089   50.1197 H   0  0  0  0  0  0  0  0  0  0  0  0
   62.6850   34.5810   50.0910 C   0  0  0  0  0  0  0  0  0  0  0  0
   62.5829   34.5131   51.1841 H   0  0  0  0  0  0  0  0  0  0  0  0
   63.6455   34.1412   49.7844 H   0  0  0  0  0  0  0  0  0  0  0  0
   62.6506   35.6368   49.7844 H   0  0  0  0  0  0  0  0  0  0  0  0
   61.9350   32.3650   49.1230 C   0  0  0  0  0  0  0  0  0  0  0  0
   62.9392   32.3586   48.6740 H   0  0  0  0  0  0  0  0  0  0  0  0
   61.9143   31.8088   50.0718 H   0  0  0  0  0  0  0  0  0  0  0  0
   59.6440   29.2570   47.4920 C   0  0  0  0  0  0  0  0  0  0  0  0
   59.5868   29.5899   48.5389 H   0  0  0  0  0  0  0  0  0  0  0  0
   58.7320   28.3130   47.0130 C   0  0  0  0  0  0  0  0  0  0  0  0
   57.9542   27.9154   47.6815 H   0  0  0  0  0  0  0  0  0  0  0  0
  1  2  1  0
  2  3  1  0
  3  4  2  0
  4  5  1  0
  4  6  1  0
  6  7  1  0
  6  8  2  0
  8  9  1  0
  8 10  1  0
 10 11  1  0
 11 12  2  0
 12 13  1  0
 13 14  2  0
 13 15  1  0
 15 16  1  0
 15 17  1  0
 15 18  1  0
 18 19  2  0
 19 20  1  0
 19 21  1  0
 21 22  1  0
 21 23  2  0
 23 24  1  0
 24 25  1  0
 24 26  1  0
 24 27  1  0
 27 28  1  0
 28 29  1  0
 28 30  1  0
 28 31  1  0
 31 32  1  1
 31 33  1  0
 33 34  1  0
 33 35  1  0
 33 36  1  0
 31 37  1  0
 37 38  1  0
 37 39  1  0
 39 40  1  1
 39 41  1  0
 41 42  1  0
 41 43  1  0
 41 44  1  0
 39 45  1  0
 45 46  1  0
 45 47  1  0
 23 48  1  0
 48 49  1  0
 48 50  2  0
 50 51  1  0
 11  3  1  0
 50 18  1  0
 45 27  1  0
M  CHG  1  10  -1
M  END
>  <UniqueID>  (33) 
31

>  <SMILES>  (33) 
C[C@@H]1CN(Cc2ccc(CC(=O)/N=c3\[n-]cccc3O)cc2)C[C@H](C)N1

>  <Energy>  (33) 
66.84537773652053

>  <Genealogy>  (33) 
CC1CN(Cc2ccc(CC(=O)N=c3[n-]cccc3O)cc2)CC(C)N1 (protonated)
C[C@@H]1CN(Cc2ccc(CC(=O)N=c3[n-]cccc3O)cc2)C[C@H](C)N1 (chirality)
C[C@@H]1CN(Cc2ccc(CC(=O)/N=c3\[n-]cccc3O)cc2)C[C@H](C)N1 (cis-trans isomerization)
C[C@@H]1CN(Cc2ccc(CC(=O)/N=c3\[n-]cccc3O)cc2)C[C@H](C)N1 (3D coordinates assigned)
C[C@@H]1CN(Cc2ccc(CC(=O)/N=c3\[n-]cccc3O)cc2)C[C@H](C)N1 (nonaromatic ring conformer: 66.84537773652053 kcal/mol)

>  <smiles>  (33) 
CC1CN(Cc2ccc(CC(=O)N=c3[nH]cccc3O)cc2)CC(C)N1

>  <score_type>  (33) 
oracle

>  <origin>  (33) 
adg

>  <m_score__min__energy>  (33) 
-10.92

>  <m_primary>  (33) 
energy

$$$$
33:0
     RDKit          3D

 74 77  0  0  0  0  0  0  0  0999 V2000
   65.3050   31.9590   50.4080 C   0  0  0  0  0  0  0  0  0  0  0  0
   64.9390   33.1210   49.4800 C   0  0  0  0  0  0  0  0  0  0  0  0
   63.5900   32.9520   48.8630 N   0  0  0  0  0  0  0  0  0  0  0  0
   63.6890   32.7530   47.3900 C   0  0  0  0  0  0  0  0  0  0  0  0
   63.0370   33.8580   46.5380 C   0  0  0  0  0  0  0  0  0  0  0  0
   62.6610   34.0640   49.2150 C   0  0  0  0  0  0  0  0  0  0  0  0
   61.3950   33.6000   49.9800 C   0  0  0  0  0  0  0  0  0  0  0  0
   61.6330   32.4670   50.9900 C   0  0  0  0  0  0  0  0  0  0  0  0
   62.1690   31.3050   50.3520 O   0  0  0  0  0  0  0  0  0  0  0  0
   61.4800   30.4850   49.4460 C   0  0  0  0  0  0  0  0  0  0  0  0
   61.2330   29.1590   49.8140 C   0  0  0  0  0  0  0  0  0  0  0  0
   60.5180   28.3090   48.9680 C   0  0  0  0  0  0  0  0  0  0  0  0
   60.0600   28.7650   47.7220 C   0  0  0  0  0  0  0  0  0  0  0  0
   59.3210   27.8830   46.8530 N   0  0  0  0  0  0  0  0  0  0  0  0
   60.0300   26.7600   46.2220 C   0  0  0  0  0  0  0  0  0  0  0  0
   59.0690   25.7160   45.6280 C   0  0  0  0  0  0  0  0  0  0  0  0
   57.9530   26.3230   44.8700 N   0  0  0  0  0  0  0  0  0  0  0  0
   58.3800   27.0250   43.6370 C   0  0  0  0  0  0  0  0  0  0  0  0
   58.1180   28.5020   43.7630 C   0  0  0  0  0  0  0  0  0  0  0  0
   56.8390   29.0250   43.5120 C   0  0  0  0  0  0  0  0  0  0  0  0
   56.5830   30.3860   43.7090 C   0  0  0  0  0  0  0  0  0  0  0  0
   57.6120   31.2490   44.1320 C   0  0  0  0  0  0  0  0  0  0  0  0
   57.3940   32.6170   44.3650 O   0  0  0  0  0  0  0  0  0  0  0  0
   58.1140   33.4200   45.2620 C   0  0  0  0  0  0  0  0  0  0  0  0
   58.0850   33.0980   46.6230 C   0  0  0  0  0  0  0  0  0  0  0  0
   58.7880   33.8750   47.5520 C   0  0  0  0  0  0  0  0  0  0  0  0
   59.5340   34.9730   47.1200 C   0  0  0  0  0  0  0  0  0  0  0  0
   59.5950   35.2860   45.7580 C   0  0  0  0  0  0  0  0  0  0  0  0
   58.8970   34.5070   44.8280 C   0  0  0  0  0  0  0  0  0  0  0  0
   58.8840   30.7220   44.3900 C   0  0  0  0  0  0  0  0  0  0  0  0
   59.1340   29.3580   44.2110 C   0  0  0  0  0  0  0  0  0  0  0  0
   57.1310   27.1730   45.7490 C   0  0  0  0  0  0  0  0  0  0  0  0
   57.9570   28.1820   46.4900 C   0  0  0  0  0  0  0  0  0  0  0  0
   57.4120   29.2500   46.8740 O   0  0  0  0  0  0  0  0  0  0  0  0
   60.3380   30.0880   47.3370 C   0  0  0  0  0  0  0  0  0  0  0  0
   61.0330   30.9460   48.1950 C   0  0  0  0  0  0  0  0  0  0  0  0
   65.2038   32.2802   51.4552 H   0  0  0  0  0  0  0  0  0  0  0  0
   64.6304   31.1113   50.2177 H   0  0  0  0  0  0  0  0  0  0  0  0
   66.3437   31.6509   50.2177 H   0  0  0  0  0  0  0  0  0  0  0  0
   64.9470   34.0543   50.0621 H   0  0  0  0  0  0  0  0  0  0  0  0
   65.6793   33.1475   48.6669 H   0  0  0  0  0  0  0  0  0  0  0  0
   63.1740   32.0650   49.2330 H   0  0  0  0  0  0  0  0  0  0  0  0
   64.7550   32.7012   47.1237 H   0  0  0  0  0  0  0  0  0  0  0  0
   63.1374   31.8277   47.1673 H   0  0  0  0  0  0  0  0  0  0  0  0
   62.5902   34.6152   47.1991 H   0  0  0  0  0  0  0  0  0  0  0  0
   63.8011   34.3304   45.9032 H   0  0  0  0  0  0  0  0  0  0  0  0
   62.2540   33.4176   45.9032 H   0  0  0  0  0  0  0  0  0  0  0  0
   63.2037   34.7834   49.8458 H   0  0  0  0  0  0  0  0  0  0  0  0
   62.3196   34.5093   48.2689 H   0  0  0  0  0  0  0  0  0  0  0  0
   60.9881   34.4646   50.5249 H   0  0  0  0  0  0  0  0  0  0  0  0
   60.7041   33.2006   49.2229 H   0  0  0  0  0  0  0  0  0  0  0  0
   62.3416   32.8136   51.7566 H   0  0  0  0  0  0  0  0  0  0  0  0
   60.6677   32.1990   51.4443 H   0  0  0  0  0  0  0  0  0  0  0  0
   61.6051   28.7822   50.7781 H   0  0  0  0  0  0  0  0  0  0  0  0
   60.3121   27.2745   49.2802 H   0  0  0  0  0  0  0  0  0  0  0  0
   60.6663   27.1530   45.4154 H   0  0  0  0  0  0  0  0  0  0  0  0
   60.6259   26.2611   47.0004 H   0  0  0  0  0  0  0  0  0  0  0  0
   59.6375   25.0614   44.9510 H   0  0  0  0  0  0  0  0  0  0  0  0
   58.6307   25.1568   46.4677 H   0  0  0  0  0  0  0  0  0  0  0  0
   59.4558   26.8590   43.4783 H   0  0  0  0  0  0  0  0  0  0  0  0
   57.8094   26.6306   42.7833 H   0  0  0  0  0  0  0  0  0  0  0  0
   56.0355   28.3618   43.1591 H   0  0  0  0  0  0  0  0  0  0  0  0
   55.5728   30.7840   43.5326 H   0  0  0  0  0  0  0  0  0  0  0  0
   57.5057   32.2281   46.9660 H   0  0  0  0  0  0  0  0  0  0  0  0
   58.7524   33.6203   48.6215 H   0  0  0  0  0  0  0  0  0  0  0  0
   60.0742   35.5924   47.8511 H   0  0  0  0  0  0  0  0  0  0  0  0
   60.1920   36.1450   45.4176 H   0  0  0  0  0  0  0  0  0  0  0  0
   58.9602   34.7444   43.7558 H   0  0  0  0  0  0  0  0  0  0  0  0
   59.6908   31.3851   44.7354 H   0  0  0  0  0  0  0  0  0  0  0  0
   60.1348   28.9537   44.4231 H   0  0  0  0  0  0  0  0  0  0  0  0
   56.3882   27.7041   45.1356 H   0  0  0  0  0  0  0  0  0  0  0  0
   56.6441   26.5228   46.4907 H   0  0  0  0  0  0  0  0  0  0  0  0
   60.0063   30.4512   46.3531 H   0  0  0  0  0  0  0  0  0  0  0  0
   61.2306   31.9844   47.8905 H   0  0  0  0  0  0  0  0  0  0  0  0
  1  2  1  0
  2  3  1  0
  3  4  1  0
  4  5  1  0
  3  6  1  0
  6  7  1  0
  7  8  1  0
  8  9  1  0
  9 10  1  0
 10 11  2  0
 11 12  1  0
 12 13  2  0
 13 14  1  0
 14 15  1  0
 15 16  1  0
 16 17  1  0
 17 18  1  0
 18 19  1  0
 19 20  2  0
 20 21  1  0
 21 22  2  0
 22 23  1  0
 23 24  1  0
 24 25  2  0
 25 26  1  0
 26 27  2  0
 27 28  1  0
 28 29  2  0
 22 30  1  0
 30 31  2  0
 17 32  1  0
 32 33  1  0
 33 34  2  0
 13 35  1  0
 35 36  2  0
 36 10  1  0
 33 14  1  0
 31 19  1  0
 29 24  1  0
  1 37  1  0
  1 38  1  0
  1 39  1  0
  2 40  1  0
  2 41  1  0
  3 42  1  0
  4 43  1  0
  4 44  1  0
  5 45  1  0
  5 46  1  0
  5 47  1  0
  6 48  1  0
  6 49  1  0
  7 50  1  0
  7 51  1  0
  8 52  1  0
  8 53  1  0
 11 54  1  0
 12 55  1  0
 15 56  1  0
 15 57  1  0
 16 58  1  0
 16 59  1  0
 18 60  1  0
 18 61  1  0
 20 62  1  0
 21 63  1  0
 25 64  1  0
 26 65  1  0
 27 66  1  0
 28 67  1  0
 29 68  1  0
 30 69  1  0
 31 70  1  0
 32 71  1  0
 32 72  1  0
 35 73  1  0
 36 74  1  0
M  CHG  1   3   1
M  END
>  <UniqueID>  (34) 
32

>  <SMILES>  (34) 
CC[NH+](CC)CCCOc1ccc(N2CCN(Cc3ccc(Oc4ccccc4)cc3)CC2=O)cc1

>  <Energy>  (34) 
100.43600635152258

>  <Genealogy>  (34) 
CC[NH+](CC)CCCOc1ccc(N2CCN(Cc3ccc(Oc4ccccc4)cc3)CC2=O)cc1 (protonated)
CC[NH+](CC)CCCOc1ccc(N2CCN(Cc3ccc(Oc4ccccc4)cc3)CC2=O)cc1 (3D coordinates assigned)
CC[NH+](CC)CCCOc1ccc(N2CCN(Cc3ccc(Oc4ccccc4)cc3)CC2=O)cc1 (nonaromatic ring conformer: 100.43600635152258 kcal/mol)

>  <smiles>  (34) 
CCN(CC)CCCOc1ccc(N2CCN(Cc3ccc(Oc4ccccc4)cc3)CC2=O)cc1

>  <score_type>  (34) 
oracle

>  <origin>  (34) 
adg

>  <m_score__min__energy>  (34) 
-7.3799999999999999

>  <m_primary>  (34) 
energy

$$$$
34:0
     RDKit          3D

 46 48  0  0  0  0  0  0  0  0999 V2000
   55.5000   29.5840   44.9860 N   0  0  0  0  0  0  0  0  0  0  0  0
   56.1300   30.1720   43.8490 C   0  0  0  0  0  0  0  0  0  0  0  0
   55.9610   29.6480   42.7140 O   0  0  0  0  0  0  0  0  0  0  0  0
   56.9750   31.3800   43.9960 C   0  0  0  0  0  0  0  0  0  0  0  0
   57.7520   31.8480   42.9250 C   0  0  0  0  0  0  0  0  0  0  0  0
   58.5230   32.9570   43.0700 N   0  0  0  0  0  0  0  0  0  0  0  0
   58.5740   33.6500   44.2370 C   0  0  0  0  0  0  0  0  0  0  0  0
   57.8170   33.2270   45.3420 C   0  0  0  0  0  0  0  0  0  0  0  0
   57.8280   33.9000   46.5710 O   0  0  0  0  0  0  0  0  0  0  0  0
   59.0090   34.3120   47.2540 C   0  0  0  0  0  0  0  0  0  0  0  0
   60.0060   33.1900   47.2330 C   0  0  0  0  0  0  0  0  0  0  0  0
   61.3820   33.4640   47.2590 C   0  0  0  0  0  0  0  0  0  0  0  0
   62.3060   32.4180   47.2220 C   0  0  0  0  0  0  0  0  0  0  0  0
   61.8660   31.0950   47.1350 C   0  0  0  0  0  0  0  0  0  0  0  0
   60.4960   30.8060   47.0640 C   0  0  0  0  0  0  0  0  0  0  0  0
   60.0680   29.4350   46.9870 N   0  0  0  0  0  0  0  0  0  0  0  0
   59.2900   28.9010   45.9020 C   0  0  0  0  0  0  0  0  0  0  0  0
   59.1490   29.5610   44.8380 O   0  0  0  0  0  0  0  0  0  0  0  0
   58.6910   27.5510   46.0070 C   0  0  0  0  0  0  0  0  0  0  0  0
   58.3330   27.0660   47.2770 C   0  0  0  0  0  0  0  0  0  0  0  0
   57.7720   25.7960   47.4230 C   0  0  0  0  0  0  0  0  0  0  0  0
   57.5590   24.9930   46.3030 C   0  0  0  0  0  0  0  0  0  0  0  0
   57.9050   25.4570   45.0340 C   0  0  0  0  0  0  0  0  0  0  0  0
   58.4720   26.7350   44.8640 C   0  0  0  0  0  0  0  0  0  0  0  0
   58.7920   27.2110   43.4680 C   0  0  0  0  0  0  0  0  0  0  0  0
   57.7280   27.9750   42.9730 O   0  0  0  0  0  0  0  0  0  0  0  0
   59.5670   31.8610   47.1290 C   0  0  0  0  0  0  0  0  0  0  0  0
   57.0180   32.0860   45.2100 C   0  0  0  0  0  0  0  0  0  0  0  0
   54.4840   29.3450   44.9730 H   0  0  0  0  0  0  0  0  0  0  0  0
   57.7366   31.3141   41.9634 H   0  0  0  0  0  0  0  0  0  0  0  0
   59.2094   34.5443   44.3170 H   0  0  0  0  0  0  0  0  0  0  0  0
   59.4358   35.1933   46.7528 H   0  0  0  0  0  0  0  0  0  0  0  0
   58.7639   34.5702   48.2948 H   0  0  0  0  0  0  0  0  0  0  0  0
   61.7334   34.5052   47.3086 H   0  0  0  0  0  0  0  0  0  0  0  0
   63.3834   32.6362   47.2615 H   0  0  0  0  0  0  0  0  0  0  0  0
   62.5990   30.2749   47.1221 H   0  0  0  0  0  0  0  0  0  0  0  0
   60.3780   28.7890   47.7470 H   0  0  0  0  0  0  0  0  0  0  0  0
   58.4967   27.6939   48.1652 H   0  0  0  0  0  0  0  0  0  0  0  0
   57.4976   25.4283   48.4228 H   0  0  0  0  0  0  0  0  0  0  0  0
   57.1175   23.9923   46.4205 H   0  0  0  0  0  0  0  0  0  0  0  0
   57.7330   24.8174   44.1558 H   0  0  0  0  0  0  0  0  0  0  0  0
   59.7036   27.8262   43.4917 H   0  0  0  0  0  0  0  0  0  0  0  0
   58.9498   26.3406   42.8142 H   0  0  0  0  0  0  0  0  0  0  0  0
   58.0050   28.9240   43.0590 H   0  0  0  0  0  0  0  0  0  0  0  0
   58.4894   31.6426   47.0981 H   0  0  0  0  0  0  0  0  0  0  0  0
   56.4182   31.7386   46.0642 H   0  0  0  0  0  0  0  0  0  0  0  0
  1  2  1  0
  2  3  2  0
  2  4  1  0
  4  5  2  0
  5  6  1  0
  6  7  2  0
  7  8  1  0
  8  9  1  0
  9 10  1  0
 10 11  1  0
 11 12  2  0
 12 13  1  0
 13 14  2  0
 14 15  1  0
 15 16  1  0
 16 17  1  0
 17 18  2  0
 17 19  1  0
 19 20  2  0
 20 21  1  0
 21 22  2  0
 22 23  1  0
 23 24  2  0
 24 25  1  0
 25 26  1  0
 15 27  2  0
  8 28  2  0
 28  4  1  0
 27 11  1  0
 24 19  1  0
  1 29  1  0
  5 30  1  0
  7 31  1  0
 10 32  1  0
 10 33  1  0
 12 34  1  0
 13 35  1  0
 14 36  1  0
 16 37  1  0
 20 38  1  0
 21 39  1  0
 22 40  1  0
 23 41  1  0
 25 42  1  0
 25 43  1  0
 26 44  1  0
 27 45  1  0
 28 46  1  0
M  CHG  1   1  -1
M  END
>  <UniqueID>  (35) 
33

>  <SMILES>  (35) 
[NH-]C(=O)c1cncc(OCc2cccc(NC(=O)c3ccccc3CO)c2)c1

>  <Energy>  (35) 
57.979066207168955

>  <Genealogy>  (35) 
[NH-]C(=O)c1cncc(OCc2cccc(NC(=O)c3ccccc3CO)c2)c1 (protonated)
[NH-]C(=O)c1cncc(OCc2cccc(NC(=O)c3ccccc3CO)c2)c1 (3D coordinates assigned)
[NH-]C(=O)c1cncc(OCc2cccc(NC(=O)c3ccccc3CO)c2)c1 (optimized conformer: 57.979066207168955 kcal/mol)

>  <smiles>  (35) 
NC(=O)c1cncc(OCc2cccc(NC(=O)c3ccccc3CO)c2)c1

>  <score_type>  (35) 
oracle

>  <origin>  (35) 
adg

>  <m_score__min__energy>  (35) 
-12.69

>  <m_primary>  (35) 
energy

$$$$
35:0
     RDKit          3D

 46 49  0  0  0  0  0  0  0  0999 V2000
   57.8233   27.5024   42.0168 H   0  0  0  0  0  0  0  0  0  0  0  0
   57.7680   27.8500   43.0590 C   0  0  0  0  0  0  0  0  0  0  0  0
   57.2760   29.0840   43.3390 N   0  0  0  0  0  0  0  0  0  0  0  0
   57.1940   29.5370   44.6190 C   0  0  0  0  0  0  0  0  0  0  0  0
   56.7360   30.7280   44.8830 N   0  0  0  0  0  0  0  0  0  0  0  0
   57.5040   31.9270   45.1010 C   0  0  0  0  0  0  0  0  0  0  0  0
   57.7940   32.3830   46.4010 C   0  0  0  0  0  0  0  0  0  0  0  0
   57.4175   31.8261   47.2717 H   0  0  0  0  0  0  0  0  0  0  0  0
   58.5560   33.5370   46.5930 C   0  0  0  0  0  0  0  0  0  0  0  0
   58.7647   33.8946   47.6121 H   0  0  0  0  0  0  0  0  0  0  0  0
   59.0530   34.2370   45.4930 C   0  0  0  0  0  0  0  0  0  0  0  0
   59.6416   35.1536   45.6460 H   0  0  0  0  0  0  0  0  0  0  0  0
   58.8050   33.7770   44.2000 C   0  0  0  0  0  0  0  0  0  0  0  0
   59.2042   34.3300   43.3370 H   0  0  0  0  0  0  0  0  0  0  0  0
   58.0480   32.6110   43.9930 C   0  0  0  0  0  0  0  0  0  0  0  0
   57.7770   32.1390   42.5920 C   0  0  0  0  0  0  0  0  0  0  0  0
   57.2295   31.1855   42.6258 H   0  0  0  0  0  0  0  0  0  0  0  0
   57.1727   32.8902   42.0624 H   0  0  0  0  0  0  0  0  0  0  0  0
   58.7305   31.9958   42.0624 H   0  0  0  0  0  0  0  0  0  0  0  0
   57.6330   28.7500   45.6410 N   0  0  0  0  0  0  0  0  0  0  0  0
   57.5670   29.1010   46.6230 H   0  0  0  0  0  0  0  0  0  0  0  0
   58.1310   27.5030   45.4070 C   0  0  0  0  0  0  0  0  0  0  0  0
   58.5980   26.6950   46.5010 N   0  0  0  0  0  0  0  0  0  0  0  0
   59.9090   26.9610   47.0960 C   0  0  0  0  0  0  0  0  0  0  0  0
   59.8243   26.9438   48.1926 H   0  0  0  0  0  0  0  0  0  0  0  0
   60.6225   26.1893   46.7712 H   0  0  0  0  0  0  0  0  0  0  0  0
   60.2653   27.9497   46.7712 H   0  0  0  0  0  0  0  0  0  0  0  0
   57.7100   25.6920   47.0990 C   0  0  0  0  0  0  0  0  0  0  0  0
   58.2618   25.1235   47.8621 H   0  0  0  0  0  0  0  0  0  0  0  0
   56.8508   26.1972   47.5644 H   0  0  0  0  0  0  0  0  0  0  0  0
   57.2180   24.7520   46.0340 C   0  0  0  0  0  0  0  0  0  0  0  0
   55.8610   24.7930   45.6230 C   0  0  0  0  0  0  0  0  0  0  0  0
   55.1815   25.5401   46.0591 H   0  0  0  0  0  0  0  0  0  0  0  0
   55.3770   23.8870   44.6630 C   0  0  0  0  0  0  0  0  0  0  0  0
   54.3283   23.9160   44.3322 H   0  0  0  0  0  0  0  0  0  0  0  0
   56.2690   22.9520   44.1450 C   0  0  0  0  0  0  0  0  0  0  0  0
   57.5660   22.8990   44.5420 C   0  0  0  0  0  0  0  0  0  0  0  0
   58.0840   23.7770   45.4900 C   0  0  0  0  0  0  0  0  0  0  0  0
   59.1357   23.7137   45.8060 H   0  0  0  0  0  0  0  0  0  0  0  0
   58.2100   21.8770   43.8730 O   0  0  0  0  0  0  0  0  0  0  0  0
   57.2590   21.2500   43.0010 C   0  0  0  0  0  0  0  0  0  0  0  0
   57.5831   21.3324   41.9531 H   0  0  0  0  0  0  0  0  0  0  0  0
   57.1494   20.1765   43.2146 H   0  0  0  0  0  0  0  0  0  0  0  0
   56.0330   21.9670   43.2070 O   0  0  0  0  0  0  0  0  0  0  0  0
   58.2020   27.0260   44.0920 C   0  0  0  0  0  0  0  0  0  0  0  0
   58.5932   26.0199   43.8805 H   0  0  0  0  0  0  0  0  0  0  0  0
  1  2  1  0
  2  3  2  0
  3  4  1  0
  4  5  2  0
  5  6  1  0
  6  7  2  0
  7  8  1  0
  7  9  1  0
  9 10  1  0
  9 11  2  0
 11 12  1  0
 11 13  1  0
 13 14  1  0
 13 15  2  0
 15 16  1  0
 16 17  1  0
 16 18  1  0
 16 19  1  0
  4 20  1  0
 20 21  1  0
 20 22  1  0
 22 23  1  0
 23 24  1  0
 24 25  1  0
 24 26  1  0
 24 27  1  0
 23 28  1  0
 28 29  1  0
 28 30  1  0
 28 31  1  0
 31 32  2  0
 32 33  1  0
 32 34  1  0
 34 35  1  0
 34 36  2  0
 36 37  1  0
 37 38  2  0
 38 39  1  0
 37 40  1  0
 40 41  1  0
 41 42  1  0
 41 43  1  0
 41 44  1  0
 22 45  2  0
 45 46  1  0
 45  2  1  0
 15  6  1  0
 38 31  1  0
 44 36  1  0
M  END
>  <UniqueID>  (36) 
34

>  <SMILES>  (36) 
Cc1ccccc1/N=c1\nccc(N(C)Cc2ccc3c(c2)OCO3)[nH]1

>  <Energy>  (36) 
86.3355893846956

>  <Genealogy>  (36) 
Cc1ccccc1/N=c1\nccc(N(C)Cc2ccc3c(c2)OCO3)[nH]1 (cis-trans isomerization)
Cc1ccccc1/N=c1\nccc(N(C)Cc2ccc3c(c2)OCO3)[nH]1 (3D coordinates assigned)
Cc1ccccc1/N=c1\nccc(N(C)Cc2ccc3c(c2)OCO3)[nH]1 (nonaromatic ring conformer: 86.3355893846956 kcal/mol)

>  <smiles>  (36) 
Cc1ccccc1N=c1nccc(N(C)Cc2ccc3c(c2)OCO3)[nH]1

>  <score_type>  (36) 
oracle

>  <origin>  (36) 
adg

>  <m_score__min__energy>  (36) 
-8.5199999999999996

>  <m_primary>  (36) 
energy

$$$$
36:0
     RDKit          3D

 56 59  0  0  0  0  0  0  0  0999 V2000
   57.1802   27.3048   44.1418 H   0  0  0  0  0  0  0  0  0  0  0  0
   57.4890   28.1350   44.7940 C   0  0  0  0  0  0  0  0  0  0  0  0
   58.2400   27.8880   45.8980 N   0  0  0  0  0  0  0  0  0  0  0  0
   58.6460   28.8980   46.7150 C   0  0  0  0  0  0  0  0  0  0  0  0
   59.3510   28.6620   47.7820 N   0  0  0  0  0  0  0  0  0  0  0  0
   60.3780   29.5010   48.3410 C   0  0  0  0  0  0  0  0  0  0  0  0
   61.1950   30.3000   47.5290 C   0  0  0  0  0  0  0  0  0  0  0  0
   61.0716   30.2701   46.4363 H   0  0  0  0  0  0  0  0  0  0  0  0
   62.1620   31.1320   48.0910 C   0  0  0  0  0  0  0  0  0  0  0  0
   62.7991   31.7415   47.4332 H   0  0  0  0  0  0  0  0  0  0  0  0
   62.3380   31.2060   49.4910 C   0  0  0  0  0  0  0  0  0  0  0  0
   63.3560   32.0750   50.0810 N   0  0  0  0  0  0  0  0  0  0  0  0
   64.7610   31.6120   50.1300 C   0  0  0  0  0  0  0  0  0  0  0  0
   64.7904   30.6455   50.6543 H   0  0  0  0  0  0  0  0  0  0  0  0
   65.1115   31.5351   49.0902 H   0  0  0  0  0  0  0  0  0  0  0  0
   65.7020   32.5820   50.8500 C   0  0  0  0  0  0  0  0  0  0  0  0
   65.6225   32.4213   51.9353 H   0  0  0  0  0  0  0  0  0  0  0  0
   66.7298   32.3930   50.5066 H   0  0  0  0  0  0  0  0  0  0  0  0
   65.3700   33.9180   50.5570 O   0  0  0  0  0  0  0  0  0  0  0  0
   64.1360   34.2110   51.1660 C   0  0  0  0  0  0  0  0  0  0  0  0
   64.1807   33.9221   52.2264 H   0  0  0  0  0  0  0  0  0  0  0  0
   63.9443   35.2897   51.0681 H   0  0  0  0  0  0  0  0  0  0  0  0
   62.9940   33.4490   50.4870 C   0  0  0  0  0  0  0  0  0  0  0  0
   62.1487   33.3926   51.1886 H   0  0  0  0  0  0  0  0  0  0  0  0
   62.7411   33.9996   49.5689 H   0  0  0  0  0  0  0  0  0  0  0  0
   61.4780   30.4260   50.3000 C   0  0  0  0  0  0  0  0  0  0  0  0
   61.5750   30.4781   51.3945 H   0  0  0  0  0  0  0  0  0  0  0  0
   60.5000   29.5840   49.7340 C   0  0  0  0  0  0  0  0  0  0  0  0
   59.6340   28.8090   50.5240 O   0  0  0  0  0  0  0  0  0  0  0  0
   58.9230   29.2910   51.6600 C   0  0  0  0  0  0  0  0  0  0  0  0
   59.4247   28.9509   52.5780 H   0  0  0  0  0  0  0  0  0  0  0  0
   58.9016   30.3906   51.6397 H   0  0  0  0  0  0  0  0  0  0  0  0
   57.8936   28.9038   51.6397 H   0  0  0  0  0  0  0  0  0  0  0  0
   58.2730   30.1740   46.4370 N   0  0  0  0  0  0  0  0  0  0  0  0
   57.5070   30.4730   45.3550 C   0  0  0  0  0  0  0  0  0  0  0  0
   57.1620   31.8090   45.1200 O   0  0  0  0  0  0  0  0  0  0  0  0
   57.9300   32.9130   45.5200 C   0  0  0  0  0  0  0  0  0  0  0  0
   58.4190   33.7780   44.5350 C   0  0  0  0  0  0  0  0  0  0  0  0
   58.1873   33.5887   43.4765 H   0  0  0  0  0  0  0  0  0  0  0  0
   59.2000   34.8810   44.8890 C   0  0  0  0  0  0  0  0  0  0  0  0
   59.5821   35.5558   44.1089 H   0  0  0  0  0  0  0  0  0  0  0  0
   59.4970   35.1290   46.2320 C   0  0  0  0  0  0  0  0  0  0  0  0
   60.1171   35.9957   46.5045 H   0  0  0  0  0  0  0  0  0  0  0  0
   59.0070   34.2760   47.2360 C   0  0  0  0  0  0  0  0  0  0  0  0
   59.3240   34.4900   48.6230 N   0  0  0  0  0  0  0  0  0  0  0  0
   59.6240   35.4470   48.9160 H   0  0  0  0  0  0  0  0  0  0  0  0
   59.3710   33.4480   49.6090 C   0  0  0  0  0  0  0  0  0  0  0  0
   59.3630   32.2350   49.2650 O   0  0  0  0  0  0  0  0  0  0  0  0
   59.5290   33.7970   51.0530 C   0  0  0  0  0  0  0  0  0  0  0  0
   59.1544   32.9695   51.6733 H   0  0  0  0  0  0  0  0  0  0  0  0
   60.5927   33.9688   51.2744 H   0  0  0  0  0  0  0  0  0  0  0  0
   58.9563   34.7097   51.2744 H   0  0  0  0  0  0  0  0  0  0  0  0
   58.2460   33.1560   46.8710 C   0  0  0  0  0  0  0  0  0  0  0  0
   57.8926   32.4609   47.6469 H   0  0  0  0  0  0  0  0  0  0  0  0
   57.1090   29.4420   44.4870 C   0  0  0  0  0  0  0  0  0  0  0  0
   56.2150   29.7570   43.0060 Cl  0  0  0  0  0  0  0  0  0  0  0  0
  1  2  1  0
  2  3  2  0
  3  4  1  0
  4  5  2  0
  5  6  1  0
  6  7  2  0
  7  8  1  0
  7  9  1  0
  9 10  1  0
  9 11  2  0
 11 12  1  0
 12 13  1  0
 13 14  1  0
 13 15  1  0
 13 16  1  0
 16 17  1  0
 16 18  1  0
 16 19  1  0
 19 20  1  0
 20 21  1  0
 20 22  1  0
 20 23  1  0
 23 24  1  0
 23 25  1  0
 11 26  1  0
 26 27  1  0
 26 28  2  0
 28 29  1  0
 29 30  1  0
 30 31  1  0
 30 32  1  0
 30 33  1  0
  4 34  1  0
 34 35  1  0
 35 36  1  0
 36 37  1  0
 37 38  2  0
 38 39  1  0
 38 40  1  0
 40 41  1  0
 40 42  2  0
 42 43  1  0
 42 44  1  0
 44 45  1  0
 45 46  1  0
 45 47  1  0
 47 48  2  0
 47 49  1  0
 49 50  1  0
 49 51  1  0
 49 52  1  0
 44 53  2  0
 53 54  1  0
 35 55  2  0
 55 56  1  0
 55  2  1  0
 28  6  1  0
 53 37  1  0
 23 12  1  0
M  CHG  1  34  -1
M  END
>  <UniqueID>  (37) 
35

>  <SMILES>  (37) 
COc1cc(N2CCOCC2)ccc1/N=c1\ncc(Cl)c(Oc2cccc(NC(C)=O)c2)[n-]1

>  <Energy>  (37) 
84.65299982193015

>  <Genealogy>  (37) 
COc1cc(N2CCOCC2)ccc1N=c1ncc(Cl)c(Oc2cccc(NC(C)=O)c2)[n-]1 (protonated)
COc1cc(N2CCOCC2)ccc1/N=c1\ncc(Cl)c(Oc2cccc(NC(C)=O)c2)[n-]1 (cis-trans isomerization)
COc1cc(N2CCOCC2)ccc1/N=c1\ncc(Cl)c(Oc2cccc(NC(C)=O)c2)[n-]1 (3D coordinates assigned)
COc1cc(N2CCOCC2)ccc1/N=c1\ncc(Cl)c(Oc2cccc(NC(C)=O)c2)[n-]1 (nonaromatic ring conformer: 84.65299982193015 kcal/mol)

>  <smiles>  (37) 
COc1cc(N2CCOCC2)ccc1N=c1ncc(Cl)c(Oc2cccc(NC(C)=O)c2)[nH]1

>  <score_type>  (37) 
oracle

>  <origin>  (37) 
adg

>  <m_score__min__energy>  (37) 
-10.300000000000001

>  <m_primary>  (37) 
energy

$$$$
37:0
     RDKit          3D

 61 63  0  0  0  0  0  0  0  0999 V2000
   51.9360   22.3810   47.3940 C   0  0  0  0  0  0  0  0  0  0  0  0
   53.2170   22.3370   46.6880 N   0  0  0  0  0  0  0  0  0  0  0  0
   54.2690   21.4110   47.1280 C   0  0  0  0  0  0  0  0  0  0  0  0
   53.3680   23.0830   45.4620 C   0  0  0  0  0  0  0  0  0  0  0  0
   52.3500   23.3310   44.7580 O   0  0  0  0  0  0  0  0  0  0  0  0
   54.6870   23.5640   45.0030 C   0  0  0  0  0  0  0  0  0  0  0  0
   55.1170   23.3320   43.6870 C   0  0  0  0  0  0  0  0  0  0  0  0
   56.3570   23.8090   43.2580 C   0  0  0  0  0  0  0  0  0  0  0  0
   57.1920   24.4940   44.1450 C   0  0  0  0  0  0  0  0  0  0  0  0
   56.8060   24.6830   45.4760 C   0  0  0  0  0  0  0  0  0  0  0  0
   57.6900   25.3900   46.3580 N   0  0  0  0  0  0  0  0  0  0  0  0
   57.7880   26.8150   46.4830 C   0  0  0  0  0  0  0  0  0  0  0  0
   58.1420   27.3360   47.5750 O   0  0  0  0  0  0  0  0  0  0  0  0
   57.4920   27.6400   45.3480 N   0  0  0  0  0  0  0  0  0  0  0  0
   57.6650   29.0670   45.3270 C   0  0  0  0  0  0  0  0  0  0  0  0
   56.8000   29.8540   44.5560 C   0  0  0  0  0  0  0  0  0  0  0  0
   56.9360   31.2450   44.5350 C   0  0  0  0  0  0  0  0  0  0  0  0
   57.9520   31.8650   45.2720 C   0  0  0  0  0  0  0  0  0  0  0  0
   58.0270   33.6220   45.3390 S   0  0  0  0  0  0  0  0  0  0  0  0
   57.3980   34.0840   46.6230 O   0  0  0  0  0  0  0  0  0  0  0  0
   57.2630   34.2240   44.1910 O   0  0  0  0  0  0  0  0  0  0  0  0
   59.6860   34.1480   45.2970 N   0  0  0  0  0  0  0  0  0  0  0  0
   60.1400   34.6080   46.6120 C   0  0  0  0  0  0  0  0  0  0  0  0
   61.3220   33.8050   47.1140 C   0  0  0  0  0  0  0  0  0  0  0  0
   62.5370   33.8380   46.4070 C   0  0  0  0  0  0  0  0  0  0  0  0
   63.6540   33.1600   46.8920 C   0  0  0  0  0  0  0  0  0  0  0  0
   63.5500   32.4280   48.0700 C   0  0  0  0  0  0  0  0  0  0  0  0
   62.3620   32.3580   48.7230 N   0  0  0  0  0  0  0  0  0  0  0  0
   61.2450   32.9990   48.2780 C   0  0  0  0  0  0  0  0  0  0  0  0
   60.0150   32.8380   49.0040 N   0  0  0  0  0  0  0  0  0  0  0  0
   59.6420   33.8460   49.9950 C   0  0  0  0  0  0  0  0  0  0  0  0
   59.4440   31.5000   49.1560 C   0  0  0  0  0  0  0  0  0  0  0  0
   58.8540   31.0810   46.0030 C   0  0  0  0  0  0  0  0  0  0  0  0
   58.7130   29.6890   46.0310 C   0  0  0  0  0  0  0  0  0  0  0  0
   55.5440   24.2270   45.8980 C   0  0  0  0  0  0  0  0  0  0  0  0
   52.1151   22.3748   48.4793 H   0  0  0  0  0  0  0  0  0  0  0  0
   51.3958   23.2982   47.1167 H   0  0  0  0  0  0  0  0  0  0  0  0
   51.3342   21.5030   47.1167 H   0  0  0  0  0  0  0  0  0  0  0  0
   54.2984   21.3851   48.2273 H   0  0  0  0  0  0  0  0  0  0  0  0
   54.0548   20.4031   46.7431 H   0  0  0  0  0  0  0  0  0  0  0  0
   55.2416   21.7514   46.7431 H   0  0  0  0  0  0  0  0  0  0  0  0
   54.4746   22.7723   42.9912 H   0  0  0  0  0  0  0  0  0  0  0  0
   56.6778   23.6452   42.2186 H   0  0  0  0  0  0  0  0  0  0  0  0
   58.1579   24.8866   43.7945 H   0  0  0  0  0  0  0  0  0  0  0  0
   56.9990   27.1910   44.5440 H   0  0  0  0  0  0  0  0  0  0  0  0
   56.0079   29.3739   43.9627 H   0  0  0  0  0  0  0  0  0  0  0  0
   56.2423   31.8546   43.9373 H   0  0  0  0  0  0  0  0  0  0  0  0
   60.4344   35.6652   46.5368 H   0  0  0  0  0  0  0  0  0  0  0  0
   59.3117   34.4768   47.3238 H   0  0  0  0  0  0  0  0  0  0  0  0
   62.6064   34.4024   45.4654 H   0  0  0  0  0  0  0  0  0  0  0  0
   64.6091   33.2035   46.3480 H   0  0  0  0  0  0  0  0  0  0  0  0
   64.4305   31.9058   48.4726 H   0  0  0  0  0  0  0  0  0  0  0  0
   59.7924   33.4395   51.0060 H   0  0  0  0  0  0  0  0  0  0  0  0
   60.2688   34.7402   49.8623 H   0  0  0  0  0  0  0  0  0  0  0  0
   58.5841   34.1168   49.8623 H   0  0  0  0  0  0  0  0  0  0  0  0
   59.3432   31.2637   50.2256 H   0  0  0  0  0  0  0  0  0  0  0  0
   58.4536   31.4676   48.6784 H   0  0  0  0  0  0  0  0  0  0  0  0
   60.1058   30.7625   48.6784 H   0  0  0  0  0  0  0  0  0  0  0  0
   59.6749   31.5607   46.5562 H   0  0  0  0  0  0  0  0  0  0  0  0
   59.4246   29.0781   46.6059 H   0  0  0  0  0  0  0  0  0  0  0  0
   55.2250   24.3908   46.9379 H   0  0  0  0  0  0  0  0  0  0  0  0
  1  2  1  0
  2  3  1  0
  2  4  1  0
  4  5  2  0
  4  6  1  0
  6  7  2  0
  7  8  1  0
  8  9  2  0
  9 10  1  0
 10 11  1  0
 11 12  1  0
 12 13  2  0
 12 14  1  0
 14 15  1  0
 15 16  2  0
 16 17  1  0
 17 18  2  0
 18 19  1  0
 19 20  2  0
 19 21  2  0
 19 22  1  0
 22 23  1  0
 23 24  1  0
 24 25  2  0
 25 26  1  0
 26 27  2  0
 27 28  1  0
 28 29  2  0
 29 30  1  0
 30 31  1  0
 30 32  1  0
 18 33  1  0
 33 34  2  0
 10 35  2  0
 35  6  1  0
 34 15  1  0
 29 24  1  0
  1 36  1  0
  1 37  1  0
  1 38  1  0
  3 39  1  0
  3 40  1  0
  3 41  1  0
  7 42  1  0
  8 43  1  0
  9 44  1  0
 14 45  1  0
 16 46  1  0
 17 47  1  0
 23 48  1  0
 23 49  1  0
 25 50  1  0
 26 51  1  0
 27 52  1  0
 31 53  1  0
 31 54  1  0
 31 55  1  0
 32 56  1  0
 32 57  1  0
 32 58  1  0
 33 59  1  0
 34 60  1  0
 35 61  1  0
M  CHG  2  11  -1  22  -1
M  END
>  <UniqueID>  (38) 
36

>  <SMILES>  (38) 
CN(C)C(=O)c1cccc([N-]C(=O)Nc2ccc(S(=O)(=O)[N-]Cc3cccnc3N(C)C)cc2)c1

>  <Energy>  (38) 
72.44928369757295

>  <Genealogy>  (38) 
CN(C)C(=O)c1cccc([N-]C(=O)Nc2ccc(S(=O)(=O)[N-]Cc3cccnc3N(C)C)cc2)c1 (protonated)
CN(C)C(=O)c1cccc([N-]C(=O)Nc2ccc(S(=O)(=O)[N-]Cc3cccnc3N(C)C)cc2)c1 (3D coordinates assigned)
CN(C)C(=O)c1cccc([N-]C(=O)Nc2ccc(S(=O)(=O)[N-]Cc3cccnc3N(C)C)cc2)c1 (optimized conformer: 72.44928369757295 kcal/mol)

>  <smiles>  (38) 
CN(C)C(=O)c1cccc(NC(=O)Nc2ccc(S(=O)(=O)NCc3cccnc3N(C)C)cc2)c1

>  <score_type>  (38) 
oracle

>  <origin>  (38) 
adg

>  <m_score__min__energy>  (38) 
-11.48

>  <m_primary>  (38) 
energy

$$$$
38:0
     RDKit          3D

 45 46  0  0  0  0  0  0  0  0999 V2000
   59.0045   32.4543   47.9139 H   0  0  0  0  0  0  0  0  0  0  0  0
   58.6640   32.6820   46.8930 C   0  0  0  0  0  0  0  0  0  0  0  0
   57.6790   31.9380   46.3240 N   0  0  0  0  0  0  0  0  0  0  0  0
   57.2270   32.1860   45.0600 C   0  0  0  0  0  0  0  0  0  0  0  0
   56.2820   31.4670   44.5240 N   0  0  0  0  0  0  0  0  0  0  0  0
   56.1950   30.0320   44.4830 C   0  0  0  0  0  0  0  0  0  0  0  0
   55.1130   29.4680   44.1580 O   0  0  0  0  0  0  0  0  0  0  0  0
   57.3870   29.1990   44.7920 C   0  0  0  0  0  0  0  0  0  0  0  0
   58.6680   29.7050   44.4980 C   0  0  0  0  0  0  0  0  0  0  0  0
   58.7668   30.6968   44.0327 H   0  0  0  0  0  0  0  0  0  0  0  0
   59.8140   28.9630   44.7900 C   0  0  0  0  0  0  0  0  0  0  0  0
   60.8079   29.3773   44.5652 H   0  0  0  0  0  0  0  0  0  0  0  0
   59.7020   27.7000   45.3650 C   0  0  0  0  0  0  0  0  0  0  0  0
   60.6066   27.1162   45.5906 H   0  0  0  0  0  0  0  0  0  0  0  0
   58.4430   27.1750   45.6550 C   0  0  0  0  0  0  0  0  0  0  0  0
   58.3602   26.1691   46.0925 H   0  0  0  0  0  0  0  0  0  0  0  0
   57.2790   27.9180   45.3940 C   0  0  0  0  0  0  0  0  0  0  0  0
   55.9880   27.3340   45.6340 N   0  0  0  0  0  0  0  0  0  0  0  0
   55.7320   26.0280   46.1690 C   0  0  0  0  0  0  0  0  0  0  0  0
   56.4840   25.5850   47.0760 O   0  0  0  0  0  0  0  0  0  0  0  0
   54.6380   25.1480   45.6370 C   0  0  0  0  0  0  0  0  0  0  0  0
   54.8282   24.9285   44.5760 H   0  0  0  0  0  0  0  0  0  0  0  0
   53.6721   25.6643   45.7390 H   0  0  0  0  0  0  0  0  0  0  0  0
   54.6020   23.8920   46.3970 N   0  0  0  0  0  0  0  0  0  0  0  0
   55.5660   23.6700   46.7410 H   0  0  0  0  0  0  0  0  0  0  0  0
   54.0990   22.7650   45.5960 C   0  0  0  0  0  0  0  0  0  0  0  0
   53.8534   23.1307   44.5881 H   0  0  0  0  0  0  0  0  0  0  0  0
   53.2128   22.3613   46.1075 H   0  0  0  0  0  0  0  0  0  0  0  0
   55.1220   21.6290   45.4710 C   0  0  0  0  0  0  0  0  0  0  0  0
   54.9627   21.0936   44.5234 H   0  0  0  0  0  0  0  0  0  0  0  0
   54.9996   20.9286   46.3103 H   0  0  0  0  0  0  0  0  0  0  0  0
   56.4710   22.1900   45.4940 N   0  0  0  0  0  0  0  0  0  0  0  0
   57.0280   22.4380   43.8680 S   0  0  0  0  0  0  0  0  0  0  0  0
   58.4070   21.8620   43.7050 O   0  0  0  0  0  0  0  0  0  0  0  0
   56.0900   21.7800   42.8940 O   0  0  0  0  0  0  0  0  0  0  0  0
   57.0830   24.1840   43.5360 C   0  0  0  0  0  0  0  0  0  0  0  0
   57.1004   24.7376   44.4864 H   0  0  0  0  0  0  0  0  0  0  0  0
   57.9890   24.4190   42.9581 H   0  0  0  0  0  0  0  0  0  0  0  0
   56.1936   24.4755   42.9581 H   0  0  0  0  0  0  0  0  0  0  0  0
   57.7880   33.2350   44.3210 C   0  0  0  0  0  0  0  0  0  0  0  0
   57.4339   33.4463   43.3012 H   0  0  0  0  0  0  0  0  0  0  0  0
   58.8000   34.0100   44.8890 C   0  0  0  0  0  0  0  0  0  0  0  0
   59.2471   34.8366   44.3174 H   0  0  0  0  0  0  0  0  0  0  0  0
   59.2440   33.7350   46.1830 C   0  0  0  0  0  0  0  0  0  0  0  0
   60.0415   34.3406   46.6382 H   0  0  0  0  0  0  0  0  0  0  0  0
  1  2  1  0
  2  3  1  0
  3  4  1  0
  4  5  2  0
  5  6  1  0
  6  7  2  0
  6  8  1  0
  8  9  2  0
  9 10  1  0
  9 11  1  0
 11 12  1  0
 11 13  2  0
 13 14  1  0
 13 15  1  0
 15 16  1  0
 15 17  2  0
 17 18  1  0
 18 19  1  0
 19 20  2  0
 19 21  1  0
 21 22  1  0
 21 23  1  0
 21 24  1  0
 24 25  1  0
 24 26  1  0
 26 27  1  0
 26 28  1  0
 26 29  1  0
 29 30  1  0
 29 31  1  0
 29 32  1  0
 32 33  1  0
 33 34  2  0
 33 35  2  0
 33 36  1  0
 36 37  1  0
 36 38  1  0
 36 39  1  0
  4 40  1  0
 40 41  1  0
 40 42  2  0
 42 43  1  0
 42 44  1  0
 44 45  1  0
 44  2  2  0
 17  8  1  0
M  CHG  3   3  -1  18  -1  32  -1
M  END
>  <UniqueID>  (39) 
37

>  <SMILES>  (39) 
CS(=O)(=O)[N-]CCNCC(=O)[N-]c1ccccc1C(=O)/N=c1/cccc[n-]1

>  <Energy>  (39) 
47.47999615081865

>  <Genealogy>  (39) 
CS(=O)(=O)[N-]CCNCC(=O)[N-]c1ccccc1C(=O)N=c1cccc[n-]1 (protonated)
CS(=O)(=O)[N-]CCNCC(=O)[N-]c1ccccc1C(=O)/N=c1/cccc[n-]1 (cis-trans isomerization)
CS(=O)(=O)[N-]CCNCC(=O)[N-]c1ccccc1C(=O)/N=c1/cccc[n-]1 (3D coordinates assigned)
CS(=O)(=O)[N-]CCNCC(=O)[N-]c1ccccc1C(=O)/N=c1/cccc[n-]1 (optimized conformer: 47.47999615081865 kcal/mol)

>  <smiles>  (39) 
CS(=O)(=O)NCCNCC(=O)Nc1ccccc1C(=O)N=c1cccc[nH]1

>  <score_type>  (39) 
oracle

>  <origin>  (39) 
adg

>  <m_score__min__energy>  (39) 
-13.16

>  <m_primary>  (39) 
energy

$$$$
39:0
     RDKit          3D

 43 44  0  0  0  0  0  0  0  0999 V2000
   56.6380   20.8410   43.0340 C   0  0  0  0  0  0  0  0  0  0  0  0
   57.5610   21.9140   43.4330 N   0  0  0  0  0  0  0  0  0  0  0  0
   58.0670   21.6470   44.7910 C   0  0  0  0  0  0  0  0  0  0  0  0
   56.8840   23.2280   43.3650 C   0  0  0  0  0  0  0  0  0  0  0  0
   55.3660   23.0830   43.5340 C   0  0  0  0  0  0  0  0  0  0  0  0
   55.0240   22.7740   44.9200 N   0  0  0  0  0  0  0  0  0  0  0  0
   55.2840   23.6500   46.0210 C   0  0  0  0  0  0  0  0  0  0  0  0
   54.8670   24.8390   45.9970 O   0  0  0  0  0  0  0  0  0  0  0  0
   56.0180   23.1390   47.1910 C   0  0  0  0  0  0  0  0  0  0  0  0
   55.7050   21.9830   47.8030 N   0  0  0  0  0  0  0  0  0  0  0  0
   56.5220   21.9420   48.8770 C   0  0  0  0  0  0  0  0  0  0  0  0
   57.3370   23.0140   48.9850 N   0  0  0  0  0  0  0  0  0  0  0  0
   57.0230   23.7580   47.9110 C   0  0  0  0  0  0  0  0  0  0  0  0
   57.6610   25.0050   47.6150 N   0  0  0  0  0  0  0  0  0  0  0  0
   58.1410   25.3330   46.3020 C   0  0  0  0  0  0  0  0  0  0  0  0
   58.2620   24.4200   45.4370 O   0  0  0  0  0  0  0  0  0  0  0  0
   58.5150   26.7240   45.9540 C   0  0  0  0  0  0  0  0  0  0  0  0
   59.8370   27.1690   46.1400 C   0  0  0  0  0  0  0  0  0  0  0  0
   60.1970   28.4780   45.8090 C   0  0  0  0  0  0  0  0  0  0  0  0
   59.2480   29.3540   45.2800 C   0  0  0  0  0  0  0  0  0  0  0  0
   57.9320   28.9220   45.0700 C   0  0  0  0  0  0  0  0  0  0  0  0
   56.7310   30.0220   44.4010 S   0  0  0  0  0  0  0  0  0  0  0  0
   55.1470   29.4120   44.7230 N   0  0  0  0  0  0  0  0  0  0  0  0
   56.9300   30.1470   42.9170 O   0  0  0  0  0  0  0  0  0  0  0  0
   56.8750   31.3820   45.0240 O   0  0  0  0  0  0  0  0  0  0  0  0
   57.5690   27.6120   45.4110 C   0  0  0  0  0  0  0  0  0  0  0  0
   56.2244   20.3601   43.9327 H   0  0  0  0  0  0  0  0  0  0  0  0
   55.8187   21.2658   42.4354 H   0  0  0  0  0  0  0  0  0  0  0  0
   57.1805   20.0944   42.4354 H   0  0  0  0  0  0  0  0  0  0  0  0
   57.3476   22.0266   45.5315 H   0  0  0  0  0  0  0  0  0  0  0  0
   58.1964   20.5632   44.9276 H   0  0  0  0  0  0  0  0  0  0  0  0
   59.0347   22.1519   44.9276 H   0  0  0  0  0  0  0  0  0  0  0  0
   57.2736   23.8736   44.1659 H   0  0  0  0  0  0  0  0  0  0  0  0
   57.0825   23.6699   42.3774 H   0  0  0  0  0  0  0  0  0  0  0  0
   54.8795   24.0261   43.2445 H   0  0  0  0  0  0  0  0  0  0  0  0
   55.0177   22.2592   42.8936 H   0  0  0  0  0  0  0  0  0  0  0  0
   56.5239   21.1115   49.5983 H   0  0  0  0  0  0  0  0  0  0  0  0
   57.9910   25.5800   48.4220 H   0  0  0  0  0  0  0  0  0  0  0  0
   60.5922   26.4816   46.5488 H   0  0  0  0  0  0  0  0  0  0  0  0
   61.2310   28.8189   45.9658 H   0  0  0  0  0  0  0  0  0  0  0  0
   59.5339   30.3857   45.0274 H   0  0  0  0  0  0  0  0  0  0  0  0
   55.2010   28.8810   45.6200 H   0  0  0  0  0  0  0  0  0  0  0  0
   56.5340   27.2749   45.2524 H   0  0  0  0  0  0  0  0  0  0  0  0
  1  2  1  0
  2  3  1  0
  2  4  1  0
  4  5  1  0
  5  6  1  0
  6  7  1  0
  7  8  2  0
  7  9  1  0
  9 10  1  0
 10 11  1  0
 11 12  2  0
 12 13  1  0
 13 14  1  0
 14 15  1  0
 15 16  2  0
 15 17  1  0
 17 18  2  0
 18 19  1  0
 19 20  2  0
 20 21  1  0
 21 22  1  0
 22 23  1  0
 22 24  2  0
 22 25  2  0
 21 26  2  0
 13  9  2  0
 26 17  1  0
  1 27  1  0
  1 28  1  0
  1 29  1  0
  3 30  1  0
  3 31  1  0
  3 32  1  0
  4 33  1  0
  4 34  1  0
  5 35  1  0
  5 36  1  0
 11 37  1  0
 14 38  1  0
 18 39  1  0
 19 40  1  0
 20 41  1  0
 23 42  1  0
 26 43  1  0
M  CHG  3   6  -1  10  -1  23  -1
M  END
>  <UniqueID>  (40) 
38

>  <SMILES>  (40) 
CN(C)CC[N-]C(=O)c1[n-]cnc1NC(=O)c1cccc(S([NH-])(=O)=O)c1

>  <Energy>  (40) 
74.9764613126738

>  <Genealogy>  (40) 
CN(C)CC[N-]C(=O)c1[n-]cnc1NC(=O)c1cccc(S([NH-])(=O)=O)c1 (protonated)
CN(C)CC[N-]C(=O)c1[n-]cnc1NC(=O)c1cccc(S([NH-])(=O)=O)c1 (3D coordinates assigned)
CN(C)CC[N-]C(=O)c1[n-]cnc1NC(=O)c1cccc(S([NH-])(=O)=O)c1 (optimized conformer: 74.9764613126738 kcal/mol)

>  <smiles>  (40) 
CN(C)CCNC(=O)c1[nH]cnc1NC(=O)c1cccc(S(N)(=O)=O)c1

>  <score_type>  (40) 
oracle

>  <origin>  (40) 
adg

>  <m_score__min__energy>  (40) 
-12.82

>  <m_primary>  (40) 
energy

$$$$
40:0
     RDKit          3D

 30 31  0  0  0  0  0  0  0  0999 V2000
   57.5510   34.4650   44.8840 C   0  0  0  0  0  0  0  0  0  0  0  0
   58.5130   33.8070   45.8380 C   0  0  0  0  0  0  0  0  0  0  0  0
   59.5070   34.5700   46.4820 C   0  0  0  0  0  0  0  0  0  0  0  0
   59.6270   35.9010   46.2440 F   0  0  0  0  0  0  0  0  0  0  0  0
   60.3900   33.9630   47.3790 C   0  0  0  0  0  0  0  0  0  0  0  0
   60.2920   32.5980   47.6430 C   0  0  0  0  0  0  0  0  0  0  0  0
   59.3010   31.8340   47.0260 C   0  0  0  0  0  0  0  0  0  0  0  0
   58.3870   32.4340   46.1400 C   0  0  0  0  0  0  0  0  0  0  0  0
   57.3630   31.6610   45.4900 N   0  0  0  0  0  0  0  0  0  0  0  0
   57.5590   30.5550   44.5980 C   0  0  0  0  0  0  0  0  0  0  0  0
   57.7810   30.7670   43.3750 O   0  0  0  0  0  0  0  0  0  0  0  0
   57.5630   29.1610   45.1240 C   0  0  0  0  0  0  0  0  0  0  0  0
   56.3690   28.4300   45.2450 C   0  0  0  0  0  0  0  0  0  0  0  0
   55.1490   28.9740   44.8580 O   0  0  0  0  0  0  0  0  0  0  0  0
   56.3930   27.1700   45.7380 N   0  0  0  0  0  0  0  0  0  0  0  0
   57.5490   26.5710   46.1120 C   0  0  0  0  0  0  0  0  0  0  0  0
   57.5040   25.4000   46.5790 O   0  0  0  0  0  0  0  0  0  0  0  0
   58.7430   27.2330   45.9870 N   0  0  0  0  0  0  0  0  0  0  0  0
   59.9930   26.5880   46.4240 C   0  0  0  0  0  0  0  0  0  0  0  0
   58.7600   28.5260   45.5270 C   0  0  0  0  0  0  0  0  0  0  0  0
   59.8510   29.1610   45.4830 O   0  0  0  0  0  0  0  0  0  0  0  0
   56.7746   34.9960   45.4543 H   0  0  0  0  0  0  0  0  0  0  0  0
   58.0950   35.1811   44.2505 H   0  0  0  0  0  0  0  0  0  0  0  0
   57.0808   33.6984   44.2505 H   0  0  0  0  0  0  0  0  0  0  0  0
   61.1644   34.5641   47.8780 H   0  0  0  0  0  0  0  0  0  0  0  0
   60.9978   32.1219   48.3396 H   0  0  0  0  0  0  0  0  0  0  0  0
   59.2337   30.7558   47.2334 H   0  0  0  0  0  0  0  0  0  0  0  0
   60.0307   26.5685   47.5232 H   0  0  0  0  0  0  0  0  0  0  0  0
   60.0290   25.5587   46.0376 H   0  0  0  0  0  0  0  0  0  0  0  0
   60.8527   27.1550   46.0376 H   0  0  0  0  0  0  0  0  0  0  0  0
  1  2  1  0
  2  3  2  0
  3  4  1  0
  3  5  1  0
  5  6  2  0
  6  7  1  0
  7  8  2  0
  8  9  1  0
  9 10  1  0
 10 11  2  0
 10 12  1  0
 12 13  2  0
 13 14  1  0
 13 15  1  0
 15 16  1  0
 16 17  2  0
 16 18  1  0
 18 19  1  0
 18 20  1  0
 20 21  2  0
  8  2  1  0
 20 12  1  0
  1 22  1  0
  1 23  1  0
  1 24  1  0
  5 25  1  0
  6 26  1  0
  7 27  1  0
 19 28  1  0
 19 29  1  0
 19 30  1  0
M  CHG  3   9  -1  14  -1  15  -1
M  END
>  <UniqueID>  (41) 
39

>  <SMILES>  (41) 
Cc1c(F)cccc1[N-]C(=O)c1c([O-])[n-]c(=O)n(C)c1=O

>  <Energy>  (41) 
44.00355704249933

>  <Genealogy>  (41) 
Cc1c(F)cccc1[N-]C(=O)c1c([O-])[n-]c(=O)n(C)c1=O (protonated)
Cc1c(F)cccc1[N-]C(=O)c1c([O-])[n-]c(=O)n(C)c1=O (3D coordinates assigned)
Cc1c(F)cccc1[N-]C(=O)c1c([O-])[n-]c(=O)n(C)c1=O (optimized conformer: 44.00355704249933 kcal/mol)

>  <smiles>  (41) 
Cc1c(F)cccc1NC(=O)c1c(O)[nH]c(=O)n(C)c1=O

>  <score_type>  (41) 
oracle

>  <origin>  (41) 
adg

>  <m_score__min__energy>  (41) 
-13.699999999999999

>  <m_primary>  (41) 
energy

$$$$
41:0
     RDKit          3D

 43 47  0  0  0  0  0  0  0  0999 V2000
   58.9510   25.3420   47.1510 H   0  0  0  0  0  0  0  0  0  0  0  0
   58.1160   24.7700   47.1270 O   0  0  0  0  0  0  0  0  0  0  0  0
   56.9090   25.2920   46.6740 C   0  0  0  0  0  0  0  0  0  0  0  0
   55.8110   24.5480   46.4530 N   0  0  0  0  0  0  0  0  0  0  0  0
   54.9350   25.4500   45.9640 C   0  0  0  0  0  0  0  0  0  0  0  0
   53.7640   25.1410   45.6210 O   0  0  0  0  0  0  0  0  0  0  0  0
   55.4140   26.7090   45.8610 N   0  0  0  0  0  0  0  0  0  0  0  0
   56.6680   26.6060   46.3380 C   0  0  0  0  0  0  0  0  0  0  0  0
   57.6170   27.7300   46.3590 C   0  0  0  0  0  0  0  0  0  0  0  0
   58.5827   27.5855   46.8655 H   0  0  0  0  0  0  0  0  0  0  0  0
   57.3700   28.9180   45.7960 C   0  0  0  0  0  0  0  0  0  0  0  0
   56.3500   29.3040   44.8120 C   0  0  0  0  0  0  0  0  0  0  0  0
   55.5851   28.6368   44.3881 H   0  0  0  0  0  0  0  0  0  0  0  0
   56.4990   30.5630   44.5240 N   0  0  0  0  0  0  0  0  0  0  0  0
   57.6160   31.0350   45.2310 N   0  0  0  0  0  0  0  0  0  0  0  0
   57.7740   32.2120   45.8860 C   0  0  0  0  0  0  0  0  0  0  0  0
   57.4620   33.4110   45.4630 N   0  0  0  0  0  0  0  0  0  0  0  0
   58.1870   34.6400   45.0890 C   0  0  0  0  0  0  0  0  0  0  0  0
   57.2697   35.1602   44.7760 H   0  0  0  0  0  0  0  0  0  0  0  0
   59.3920   35.0580   45.9070 C   0  0  0  0  0  0  0  0  0  0  0  0
   59.6071   36.1250   46.0658 H   0  0  0  0  0  0  0  0  0  0  0  0
   59.7648   34.8342   46.9174 H   0  0  0  0  0  0  0  0  0  0  0  0
   59.5750   34.4360   44.5180 C   0  0  0  0  0  0  0  0  0  0  0  0
   59.9219   35.0558   43.6780 H   0  0  0  0  0  0  0  0  0  0  0  0
   60.1343   33.5790   44.1147 H   0  0  0  0  0  0  0  0  0  0  0  0
   58.3840   32.0300   47.0850 N   0  0  0  0  0  0  0  0  0  0  0  0
   58.5580   30.6880   47.1190 C   0  0  0  0  0  0  0  0  0  0  0  0
   58.9880   30.0300   48.1540 N   0  0  0  0  0  0  0  0  0  0  0  0
   59.8590   30.5970   49.1820 C   0  0  0  0  0  0  0  0  0  0  0  0
   59.2453   31.1300   49.9231 H   0  0  0  0  0  0  0  0  0  0  0  0
   60.4152   29.7815   49.6674 H   0  0  0  0  0  0  0  0  0  0  0  0
   60.8410   31.5590   48.5670 C   0  0  0  0  0  0  0  0  0  0  0  0
   60.7250   32.9410   48.7960 C   0  0  0  0  0  0  0  0  0  0  0  0
   59.9230   33.3244   49.4439 H   0  0  0  0  0  0  0  0  0  0  0  0
   61.6270   33.8300   48.2020 C   0  0  0  0  0  0  0  0  0  0  0  0
   61.5348   34.9105   48.3863 H   0  0  0  0  0  0  0  0  0  0  0  0
   62.6450   33.3480   47.3750 C   0  0  0  0  0  0  0  0  0  0  0  0
   63.5180   34.2120   46.8000 F   0  0  0  0  0  0  0  0  0  0  0  0
   62.7630   31.9750   47.1400 C   0  0  0  0  0  0  0  0  0  0  0  0
   63.5649   31.5959   46.4894 H   0  0  0  0  0  0  0  0  0  0  0  0
   61.8630   31.0830   47.7310 C   0  0  0  0  0  0  0  0  0  0  0  0
   61.9563   30.0037   47.5400 H   0  0  0  0  0  0  0  0  0  0  0  0
   58.1290   30.1000   45.9900 N   0  0  0  0  0  0  0  0  0  0  0  0
  1  2  1  0
  2  3  1  0
  3  4  1  0
  4  5  1  0
  5  6  2  0
  5  7  1  0
  7  8  1  0
  8  9  1  0
  9 10  1  0
  9 11  2  0
 11 12  1  0
 12 13  1  0
 12 14  2  0
 14 15  1  0
 15 16  1  0
 16 17  2  3
 17 18  1  0
 18 19  1  0
 18 20  1  0
 20 21  1  0
 20 22  1  0
 20 23  1  0
 23 24  1  0
 23 25  1  0
 16 26  1  0
 26 27  1  0
 27 28  2  3
 28 29  1  0
 29 30  1  0
 29 31  1  0
 29 32  1  0
 32 33  2  0
 33 34  1  0
 33 35  1  0
 35 36  1  0
 35 37  2  0
 37 38  1  0
 37 39  1  0
 39 40  1  0
 39 41  2  0
 41 42  1  0
 27 43  1  0
  8  3  2  0
 43 11  1  0
 43 15  1  0
 23 18  1  0
 41 32  1  0
M  CHG  3   4  -1   7  -1  26  -1
M  END
>  <UniqueID>  (42) 
40

>  <SMILES>  (42) 
O=c1[n-]c(O)c(/C=C2\C=Nn3c(=NC4CC4)[n-]c(=NCc4ccc(F)cc4)n32)[n-]1

>  <Energy>  (42) 
456.9006251918136

>  <Genealogy>  (42) 
O=c1[n-]c(O)c(C=C2C=Nn3c(=NC4CC4)[n-]c(=NCc4ccc(F)cc4)n32)[n-]1 (protonated)
O=c1[n-]c(O)c(/C=C2\C=Nn3c(=NC4CC4)[n-]c(=NCc4ccc(F)cc4)n32)[n-]1 (cis-trans isomerization)
O=c1[n-]c(O)c(/C=C2\C=Nn3c(=NC4CC4)[n-]c(=NCc4ccc(F)cc4)n32)[n-]1 (3D coordinates assigned)
O=c1[n-]c(O)c(/C=C2\C=Nn3c(=NC4CC4)[n-]c(=NCc4ccc(F)cc4)n32)[n-]1 (nonaromatic ring conformer: 456.9006251918136 kcal/mol)

>  <smiles>  (42) 
O=c1[nH]c(O)c(C=C2C=Nn3c(=NC4CC4)[nH]c(=NCc4ccc(F)cc4)n32)[nH]1

>  <score_type>  (42) 
oracle

>  <origin>  (42) 
adg

>  <m_score__min__energy>  (42) 
-13.699999999999999

>  <m_primary>  (42) 
energy

$$$$
42:0
     RDKit          3D

 42 44  0  0  0  0  0  0  0  0999 V2000
   55.5490   24.2390   44.8500 C   0  0  0  0  0  0  0  0  0  0  0  0
   54.5890   25.1580   45.6000 C   0  0  0  0  0  0  0  0  0  0  0  0
   55.2470   26.3590   46.0020 O   0  0  0  0  0  0  0  0  0  0  0  0
   56.6080   26.4840   46.3410 C   0  0  0  0  0  0  0  0  0  0  0  0
   57.2450   25.5600   47.1950 C   0  0  0  0  0  0  0  0  0  0  0  0
   58.5930   25.7090   47.5250 C   0  0  0  0  0  0  0  0  0  0  0  0
   59.3240   26.7800   47.0130 C   0  0  0  0  0  0  0  0  0  0  0  0
   58.7090   27.7060   46.1700 C   0  0  0  0  0  0  0  0  0  0  0  0
   57.3540   27.5730   45.8230 C   0  0  0  0  0  0  0  0  0  0  0  0
   56.7530   28.5670   44.9020 C   0  0  0  0  0  0  0  0  0  0  0  0
   57.4270   29.1920   43.9130 N   0  0  0  0  0  0  0  0  0  0  0  0
   56.5070   30.0190   43.3860 C   0  0  0  0  0  0  0  0  0  0  0  0
   56.8080   31.0440   42.3360 C   0  0  0  0  0  0  0  0  0  0  0  0
   58.1470   31.6190   42.5420 N   0  0  0  0  0  0  0  0  0  0  0  0
   58.1150   32.8790   43.3040 C   0  0  0  0  0  0  0  0  0  0  0  0
   58.2010   32.6160   44.7820 C   0  0  0  0  0  0  0  0  0  0  0  0
   57.7880   33.5840   45.7120 C   0  0  0  0  0  0  0  0  0  0  0  0
   57.9200   33.3230   47.0770 C   0  0  0  0  0  0  0  0  0  0  0  0
   58.4470   32.1030   47.5030 C   0  0  0  0  0  0  0  0  0  0  0  0
   58.8280   31.1540   46.5530 C   0  0  0  0  0  0  0  0  0  0  0  0
   58.6970   31.4280   45.2270 N   0  0  0  0  0  0  0  0  0  0  0  0
   55.3180   29.8770   44.0620 C   0  0  0  0  0  0  0  0  0  0  0  0
   55.5020   28.9710   44.9880 O   0  0  0  0  0  0  0  0  0  0  0  0
   56.1479   23.6657   45.5730 H   0  0  0  0  0  0  0  0  0  0  0  0
   54.9745   23.5456   44.2182 H   0  0  0  0  0  0  0  0  0  0  0  0
   56.2167   24.8432   44.2182 H   0  0  0  0  0  0  0  0  0  0  0  0
   53.7450   25.4121   44.9420 H   0  0  0  0  0  0  0  0  0  0  0  0
   54.2300   24.6350   46.4986 H   0  0  0  0  0  0  0  0  0  0  0  0
   56.6741   24.7138   47.6049 H   0  0  0  0  0  0  0  0  0  0  0  0
   59.0793   24.9802   48.1901 H   0  0  0  0  0  0  0  0  0  0  0  0
   60.3864   26.8950   47.2739 H   0  0  0  0  0  0  0  0  0  0  0  0
   59.2917   28.5500   45.7724 H   0  0  0  0  0  0  0  0  0  0  0  0
   56.7672   30.5688   41.3448 H   0  0  0  0  0  0  0  0  0  0  0  0
   56.0620   31.8497   42.4028 H   0  0  0  0  0  0  0  0  0  0  0  0
   58.6940   30.9300   43.1110 H   0  0  0  0  0  0  0  0  0  0  0  0
   58.9665   33.5053   42.9997 H   0  0  0  0  0  0  0  0  0  0  0  0
   57.1651   33.3923   43.0936 H   0  0  0  0  0  0  0  0  0  0  0  0
   57.3644   34.5391   45.3680 H   0  0  0  0  0  0  0  0  0  0  0  0
   57.6094   34.0772   47.8151 H   0  0  0  0  0  0  0  0  0  0  0  0
   58.5610   31.8914   48.5764 H   0  0  0  0  0  0  0  0  0  0  0  0
   59.2343   30.1844   46.8766 H   0  0  0  0  0  0  0  0  0  0  0  0
   54.3849   30.4238   43.8614 H   0  0  0  0  0  0  0  0  0  0  0  0
  1  2  1  0
  2  3  1  0
  3  4  1  0
  4  5  2  0
  5  6  1  0
  6  7  2  0
  7  8  1  0
  8  9  2  0
  9 10  1  0
 10 11  2  0
 11 12  1  0
 12 13  1  0
 13 14  1  0
 14 15  1  0
 15 16  1  0
 16 17  2  0
 17 18  1  0
 18 19  2  0
 19 20  1  0
 20 21  2  0
 12 22  2  0
 22 23  1  0
  9  4  1  0
 23 10  1  0
 21 16  1  0
  1 24  1  0
  1 25  1  0
  1 26  1  0
  2 27  1  0
  2 28  1  0
  5 29  1  0
  6 30  1  0
  7 31  1  0
  8 32  1  0
 13 33  1  0
 13 34  1  0
 14 35  1  0
 15 36  1  0
 15 37  1  0
 17 38  1  0
 18 39  1  0
 19 40  1  0
 20 41  1  0
 22 42  1  0
M  END
>  <UniqueID>  (43) 
41

>  <SMILES>  (43) 
CCOc1ccccc1-c1nc(CNCc2ccccn2)co1

>  <Energy>  (43) 
68.58577810732776

>  <Genealogy>  (43) 
CCOc1ccccc1-c1nc(CNCc2ccccn2)co1 (3D coordinates assigned)
CCOc1ccccc1-c1nc(CNCc2ccccn2)co1 (optimized conformer: 68.58577810732776 kcal/mol)

>  <smiles>  (43) 
CCOc1ccccc1-c1nc(CNCc2ccccn2)co1

>  <score_type>  (43) 
oracle

>  <origin>  (43) 
adg

>  <m_score__min__energy>  (43) 
-7.71

>  <m_primary>  (43) 
energy

$$$$
43:0
     RDKit          3D

 42 45  0  0  0  0  0  0  0  0999 V2000
   61.4828   33.8587   47.0407 H   0  0  0  0  0  0  0  0  0  0  0  0
   60.9700   33.0140   47.5240 C   0  0  0  0  0  0  0  0  0  0  0  0
   60.0510   33.2560   48.5660 C   0  0  0  0  0  0  0  0  0  0  0  0
   59.8512   34.2876   48.8913 H   0  0  0  0  0  0  0  0  0  0  0  0
   59.3900   32.1860   49.1900 C   0  0  0  0  0  0  0  0  0  0  0  0
   58.6708   32.3629   50.0033 H   0  0  0  0  0  0  0  0  0  0  0  0
   59.6700   30.8950   48.7510 C   0  0  0  0  0  0  0  0  0  0  0  0
   59.0410   29.4390   49.3020 S   0  0  0  0  0  0  0  0  0  0  0  0
   59.9620   28.5490   48.1960 C   0  0  0  0  0  0  0  0  0  0  0  0
   59.9120   27.2510   48.1190 N   0  0  0  0  0  0  0  0  0  0  0  0
   59.8960   26.4250   46.9420 C   0  0  0  0  0  0  0  0  0  0  0  0
   60.9980   26.1850   46.3760 O   0  0  0  0  0  0  0  0  0  0  0  0
   58.6220   25.8440   46.3720 C   0  0  0  0  0  0  0  0  0  0  0  0
   58.7233   24.7494   46.3334 H   0  0  0  0  0  0  0  0  0  0  0  0
   57.7965   26.1590   47.0273 H   0  0  0  0  0  0  0  0  0  0  0  0
   58.3050   26.3550   44.9600 C   0  0  0  0  0  0  0  0  0  0  0  0
   59.2080   26.2796   44.3364 H   0  0  0  0  0  0  0  0  0  0  0  0
   57.4972   25.7426   44.5328 H   0  0  0  0  0  0  0  0  0  0  0  0
   57.8570   27.7830   45.0080 C   0  0  0  0  0  0  0  0  0  0  0  0
   58.8590   29.1230   44.7960 S   0  0  0  0  0  0  0  0  0  0  0  0
   57.6210   30.2250   45.1120 C   0  0  0  0  0  0  0  0  0  0  0  0
   57.7740   31.6530   45.1030 N   0  0  0  0  0  0  0  0  0  0  0  0
   57.7550   32.4710   46.3030 C   0  0  0  0  0  0  0  0  0  0  0  0
   56.7564   32.4537   46.7640 H   0  0  0  0  0  0  0  0  0  0  0  0
   58.4640   32.1022   47.0588 H   0  0  0  0  0  0  0  0  0  0  0  0
   58.1040   33.8810   45.8420 C   0  0  0  0  0  0  0  0  0  0  0  0
   57.4344   34.6144   46.3150 H   0  0  0  0  0  0  0  0  0  0  0  0
   59.1332   34.1524   46.1195 H   0  0  0  0  0  0  0  0  0  0  0  0
   57.9130   33.8880   44.3270 C   0  0  0  0  0  0  0  0  0  0  0  0
   56.9405   34.3311   44.0663 H   0  0  0  0  0  0  0  0  0  0  0  0
   58.6884   34.4858   43.8257 H   0  0  0  0  0  0  0  0  0  0  0  0
   57.9640   32.4290   43.8910 C   0  0  0  0  0  0  0  0  0  0  0  0
   57.1622   32.2157   43.1688 H   0  0  0  0  0  0  0  0  0  0  0  0
   58.9156   32.1849   43.3962 H   0  0  0  0  0  0  0  0  0  0  0  0
   56.4580   29.5920   45.3920 N   0  0  0  0  0  0  0  0  0  0  0  0
   55.5620   30.0760   45.6230 H   0  0  0  0  0  0  0  0  0  0  0  0
   56.5860   28.2410   45.3440 C   0  0  0  0  0  0  0  0  0  0  0  0
   55.5220   27.3910   45.6190 O   0  0  0  0  0  0  0  0  0  0  0  0
   60.7400   29.3370   47.4130 N   0  0  0  0  0  0  0  0  0  0  0  0
   60.5720   30.6460   47.7290 C   0  0  0  0  0  0  0  0  0  0  0  0
   61.2350   31.7010   47.0990 C   0  0  0  0  0  0  0  0  0  0  0  0
   61.9506   31.5082   46.2861 H   0  0  0  0  0  0  0  0  0  0  0  0
  1  2  1  0
  2  3  2  0
  3  4  1  0
  3  5  1  0
  5  6  1  0
  5  7  2  0
  7  8  1  0
  8  9  1  0
  9 10  2  0
 10 11  1  0
 11 12  2  0
 11 13  1  0
 13 14  1  0
 13 15  1  0
 13 16  1  0
 16 17  1  0
 16 18  1  0
 16 19  1  0
 19 20  1  0
 20 21  1  0
 21 22  1  0
 22 23  1  0
 23 24  1  0
 23 25  1  0
 23 26  1  0
 26 27  1  0
 26 28  1  0
 26 29  1  0
 29 30  1  0
 29 31  1  0
 29 32  1  0
 32 33  1  0
 32 34  1  0
 21 35  2  0
 35 36  1  0
 35 37  1  0
 37 38  1  0
  9 39  1  0
 39 40  1  0
 40 41  2  0
 41 42  1  0
 41  2  1  0
 40  7  1  0
 37 19  2  0
 32 22  1  0
M  CHG  3  35   1  38  -1  39  -1
M  END
>  <UniqueID>  (44) 
42

>  <SMILES>  (44) 
O=C(CCc1sc(N2CCCC2)[nH+]c1[O-])/N=c1\[n-]c2ccccc2s1

>  <Energy>  (44) 
109.3691226683634

>  <Genealogy>  (44) 
O=C(CCc1sc(N2CCCC2)[nH+]c1[O-])N=c1[n-]c2ccccc2s1 (protonated)
O=C(CCc1sc(N2CCCC2)[nH+]c1[O-])/N=c1\[n-]c2ccccc2s1 (cis-trans isomerization)
O=C(CCc1sc(N2CCCC2)[nH+]c1[O-])/N=c1\[n-]c2ccccc2s1 (3D coordinates assigned)
O=C(CCc1sc(N2CCCC2)[nH+]c1[O-])/N=c1\[n-]c2ccccc2s1 (nonaromatic ring conformer: 109.3691226683634 kcal/mol)

>  <smiles>  (44) 
O=C(CCc1sc(N2CCCC2)nc1O)N=c1[nH]c2ccccc2s1

>  <score_type>  (44) 
oracle

>  <origin>  (44) 
adg

>  <m_score__min__energy>  (44) 
-11.82

>  <m_primary>  (44) 
energy

$$$$
44:0
     RDKit          3D

 39 41  0  0  0  0  0  0  0  0999 V2000
   55.5140   29.7600   44.9490 O   0  0  0  0  0  0  0  0  0  0  0  0
   56.6330   29.2470   45.2130 C   0  0  0  0  0  0  0  0  0  0  0  0
   57.8020   30.0740   45.1360 N   0  0  0  0  0  0  0  0  0  0  0  0
   57.9530   31.4000   45.6700 C   0  0  0  0  0  0  0  0  0  0  0  0
   57.6300   32.4810   44.8390 C   0  0  0  0  0  0  0  0  0  0  0  0
   57.6990   33.7900   45.3180 C   0  0  0  0  0  0  0  0  0  0  0  0
   58.1020   34.0340   46.6310 C   0  0  0  0  0  0  0  0  0  0  0  0
   58.4620   32.9710   47.4610 C   0  0  0  0  0  0  0  0  0  0  0  0
   58.4190   31.6490   46.9870 C   0  0  0  0  0  0  0  0  0  0  0  0
   58.8920   30.5740   47.8800 C   0  0  0  0  0  0  0  0  0  0  0  0
   59.1400   29.4380   47.3960 O   0  0  0  0  0  0  0  0  0  0  0  0
   59.0410   30.7710   49.2910 N   0  0  0  0  0  0  0  0  0  0  0  0
   60.3180   30.9800   49.9620 C   0  0  0  0  0  0  0  0  0  0  0  0
   61.2140   31.7990   49.0810 C   0  0  0  0  0  0  0  0  0  0  0  0
   62.0820   31.1680   48.1760 C   0  0  0  0  0  0  0  0  0  0  0  0
   62.9440   31.9270   47.3790 C   0  0  0  0  0  0  0  0  0  0  0  0
   62.9510   33.3210   47.4870 C   0  0  0  0  0  0  0  0  0  0  0  0
   63.7870   34.0570   46.7140 F   0  0  0  0  0  0  0  0  0  0  0  0
   62.1000   33.9560   48.3970 C   0  0  0  0  0  0  0  0  0  0  0  0
   61.2380   33.1980   49.1960 C   0  0  0  0  0  0  0  0  0  0  0  0
   56.6920   27.8270   45.6170 C   0  0  0  0  0  0  0  0  0  0  0  0
   57.8940   27.2210   46.0110 C   0  0  0  0  0  0  0  0  0  0  0  0
   57.8750   25.8740   46.3800 C   0  0  0  0  0  0  0  0  0  0  0  0
   58.9380   25.2980   46.7310 O   0  0  0  0  0  0  0  0  0  0  0  0
   56.7060   25.1840   46.3640 N   0  0  0  0  0  0  0  0  0  0  0  0
   55.5450   25.7870   45.9980 C   0  0  0  0  0  0  0  0  0  0  0  0
   54.4700   25.1330   45.9940 O   0  0  0  0  0  0  0  0  0  0  0  0
   55.5440   27.0950   45.6330 N   0  0  0  0  0  0  0  0  0  0  0  0
   57.3194   32.2963   43.8001 H   0  0  0  0  0  0  0  0  0  0  0  0
   57.4352   34.6305   44.6593 H   0  0  0  0  0  0  0  0  0  0  0  0
   58.1361   35.0651   47.0127 H   0  0  0  0  0  0  0  0  0  0  0  0
   58.7819   33.1699   48.4945 H   0  0  0  0  0  0  0  0  0  0  0  0
   60.1516   31.5105   50.9112 H   0  0  0  0  0  0  0  0  0  0  0  0
   60.7905   30.0076   50.1651 H   0  0  0  0  0  0  0  0  0  0  0  0
   62.0839   30.0711   48.0936 H   0  0  0  0  0  0  0  0  0  0  0  0
   63.6170   31.4273   46.6667 H   0  0  0  0  0  0  0  0  0  0  0  0
   62.1086   35.0525   48.4845 H   0  0  0  0  0  0  0  0  0  0  0  0
   60.5763   33.6999   49.9173 H   0  0  0  0  0  0  0  0  0  0  0  0
   58.8323   27.7948   46.0290 H   0  0  0  0  0  0  0  0  0  0  0  0
  1  2  2  0
  2  3  1  0
  3  4  1  0
  4  5  2  0
  5  6  1  0
  6  7  2  0
  7  8  1  0
  8  9  2  0
  9 10  1  0
 10 11  2  0
 10 12  1  0
 12 13  1  0
 13 14  1  0
 14 15  2  0
 15 16  1  0
 16 17  2  0
 17 18  1  0
 17 19  1  0
 19 20  2  0
  2 21  1  0
 21 22  2  0
 22 23  1  0
 23 24  2  0
 23 25  1  0
 25 26  1  0
 26 27  2  0
 26 28  1  0
  9  4  1  0
 20 14  1  0
 28 21  1  0
  5 29  1  0
  6 30  1  0
  7 31  1  0
  8 32  1  0
 13 33  1  0
 13 34  1  0
 15 35  1  0
 16 36  1  0
 19 37  1  0
 20 38  1  0
 22 39  1  0
M  CHG  4   3  -1  12  -1  25  -1  28  -1
M  END
>  <UniqueID>  (45) 
43

>  <SMILES>  (45) 
O=C([N-]c1ccccc1C(=O)[N-]Cc1ccc(F)cc1)c1cc(=O)[n-]c(=O)[n-]1

>  <Energy>  (45) 
55.10331887067

>  <Genealogy>  (45) 
O=C([N-]c1ccccc1C(=O)[N-]Cc1ccc(F)cc1)c1cc(=O)[n-]c(=O)[n-]1 (protonated)
O=C([N-]c1ccccc1C(=O)[N-]Cc1ccc(F)cc1)c1cc(=O)[n-]c(=O)[n-]1 (3D coordinates assigned)
O=C([N-]c1ccccc1C(=O)[N-]Cc1ccc(F)cc1)c1cc(=O)[n-]c(=O)[n-]1 (optimized conformer: 55.10331887067 kcal/mol)

>  <smiles>  (45) 
O=C(Nc1ccccc1C(=O)NCc1ccc(F)cc1)c1cc(=O)[nH]c(=O)[nH]1

>  <score_type>  (45) 
oracle

>  <origin>  (45) 
adg

>  <m_score__min__energy>  (45) 
-16.16

>  <m_primary>  (45) 
energy

$$$$
45:0
     RDKit          3D

 50 52  0  0  1  0  0  0  0  0999 V2000
   60.0080   27.6500   48.3780 C   0  0  0  0  0  0  0  0  0  0  0  0
   59.9130   29.2540   49.1050 S   0  0  0  0  0  0  0  0  0  0  0  0
   59.2100   29.1110   50.4480 O   0  0  0  0  0  0  0  0  0  0  0  0
   59.0420   30.1430   48.2800 O   0  0  0  0  0  0  0  0  0  0  0  0
   61.4600   29.9900   49.3210 N   0  0  0  0  0  0  0  0  0  0  0  0
   61.8320   31.2180   48.7440 C   0  0  0  0  0  0  0  0  0  0  0  0
   63.1210   31.5920   48.4490 C   0  0  0  0  0  0  0  0  0  0  0  0
   63.4390   32.8160   47.8800 C   0  0  0  0  0  0  0  0  0  0  0  0
   62.4020   33.6870   47.6040 C   0  0  0  0  0  0  0  0  0  0  0  0
   61.0840   33.3500   47.8850 C   0  0  0  0  0  0  0  0  0  0  0  0
   60.0820   34.3150   47.5640 N   0  0  0  0  0  0  0  0  0  0  0  0
   59.2910   34.0510   46.5810 C   0  0  0  0  0  0  0  0  0  0  0  0
   59.0020   34.9480   45.5740 C   0  0  0  0  0  0  0  0  0  0  0  0
   58.1320   34.5400   44.5680 C   0  0  0  0  0  0  0  0  0  0  0  0
   57.5720   33.3180   44.5490 N   0  0  0  0  0  0  0  0  0  0  0  0
   57.8950   32.4890   45.5600 C   0  0  0  0  0  0  0  0  0  0  0  0
   57.3900   31.3070   45.5940 N   0  0  0  0  0  0  0  0  0  0  0  0
   58.1380   30.1200   45.3560 C   0  0  0  0  0  0  0  0  0  0  0  0
   59.5170   30.0910   45.3130 C   0  0  0  0  0  0  0  0  0  0  0  0
   60.1690   28.8800   45.0730 C   0  0  0  0  0  0  0  0  0  0  0  0
   59.4120   27.7320   44.8850 C   0  0  0  0  0  0  0  0  0  0  0  0
   58.0450   27.7400   44.9250 C   0  0  0  0  0  0  0  0  0  0  0  0
   57.2210   26.6010   44.7390 N   0  0  0  0  0  0  0  0  0  0  0  0
   56.5650   25.6700   46.0290 S   0  0  0  0  0  0  0  0  0  0  0  0
   56.5820   23.9370   45.7300 C   0  0  0  0  0  0  0  0  0  0  0  0
   57.3270   25.9950   47.2970 O   0  0  0  0  0  0  0  0  0  0  0  0
   55.1440   26.0780   46.2670 O   0  0  0  0  0  0  0  0  0  0  0  0
   57.4060   28.9420   45.1620 C   0  0  0  0  0  0  0  0  0  0  0  0
   58.7300   32.8300   46.5570 N   0  0  0  0  0  0  0  0  0  0  0  0
   60.8170   32.1330   48.4470 C   0  0  0  0  0  0  0  0  0  0  0  0
   60.0530   26.8898   49.1717 H   0  0  0  0  0  0  0  0  0  0  0  0
   59.1185   27.4768   47.7544 H   0  0  0  0  0  0  0  0  0  0  0  0
   60.9117   27.5830   47.7544 H   0  0  0  0  0  0  0  0  0  0  0  0
   62.1880   29.5080   49.9180 H   0  0  0  0  0  0  0  0  0  0  0  0
   63.9368   30.8893   48.6742 H   0  0  0  0  0  0  0  0  0  0  0  0
   64.4818   33.0847   47.6558 H   0  0  0  0  0  0  0  0  0  0  0  0
   62.6245   34.6655   47.1534 H   0  0  0  0  0  0  0  0  0  0  0  0
   59.4455   35.9546   45.5665 H   0  0  0  0  0  0  0  0  0  0  0  0
   57.8932   35.2441   43.7573 H   0  0  0  0  0  0  0  0  0  0  0  0
   56.9290   33.0090   43.8110 H   0  0  0  0  0  0  0  0  0  0  0  0
   60.0969   31.0131   45.4663 H   0  0  0  0  0  0  0  0  0  0  0  0
   61.2674   28.8363   45.0335 H   0  0  0  0  0  0  0  0  0  0  0  0
   59.9308   26.7804   44.6968 H   0  0  0  0  0  0  0  0  0  0  0  0
   57.0140   26.3350   43.7500 H   0  0  0  0  0  0  0  0  0  0  0  0
   56.5873   23.3994   46.6897 H   0  0  0  0  0  0  0  0  0  0  0  0
   55.6866   23.6550   45.1567 H   0  0  0  0  0  0  0  0  0  0  0  0
   57.4828   23.6727   45.1567 H   0  0  0  0  0  0  0  0  0  0  0  0
   56.3071   28.9740   45.1988 H   0  0  0  0  0  0  0  0  0  0  0  0
   58.9420   32.1440   47.3130 H   0  0  0  0  0  0  0  0  0  0  0  0
   59.7740   31.8657   48.6721 H   0  0  0  0  0  0  0  0  0  0  0  0
  1  2  1  0
  2  3  2  0
  2  4  2  0
  2  5  1  0
  5  6  1  0
  6  7  2  0
  7  8  1  0
  8  9  2  0
  9 10  1  0
 10 11  1  0
 11 12  2  0
 12 13  1  0
 13 14  2  0
 14 15  1  0
 15 16  1  0
 16 17  2  0
 17 18  1  0
 18 19  2  0
 19 20  1  0
 20 21  2  0
 21 22  1  0
 22 23  1  0
 23 24  1  0
 24 25  1  0
 24 26  2  0
 24 27  2  0
 22 28  2  0
 16 29  1  0
 10 30  2  0
 30  6  1  0
 29 12  1  0
 28 18  1  0
  1 31  1  0
  1 32  1  0
  1 33  1  0
  5 34  1  0
  7 35  1  0
  8 36  1  0
  9 37  1  0
 13 38  1  0
 14 39  1  0
 15 40  1  0
 19 41  1  0
 20 42  1  0
 21 43  1  0
 23 44  1  0
 25 45  1  0
 25 46  1  0
 25 47  1  0
 28 48  1  0
 29 49  1  0
 30 50  1  0
M  END
>  <smiles>  (46) 
CS(=O)(=O)Nc1cccc(N=c2cc[nH]c(=Nc3cccc(NS(C)(=O)=O)c3)[nH]2)c1

>  <score_type>  (46) 
oracle

>  <origin>  (46) 
adg

>  <m_score__min__energy>  (46) 
-9.8599999999999994

>  <m_primary>  (46) 
energy

$$$$
46:0
     RDKit          3D

 62 65  0  0  0  0  0  0  0  0999 V2000
   57.4210   31.2890   43.0540 C   0  0  0  0  0  0  0  0  0  0  0  0
   57.3110   31.7010   44.5220 C   0  0  0  0  0  0  0  0  0  0  0  0
   57.4720   33.1660   44.6780 N   0  0  0  0  0  0  0  0  0  0  0  0
   57.0250   33.6260   46.0170 C   0  0  0  0  0  0  0  0  0  0  0  0
   58.1970   33.7610   46.9990 C   0  0  0  0  0  0  0  0  0  0  0  0
   59.1750   34.7740   46.5380 N   0  0  0  0  0  0  0  0  0  0  0  0
   60.5030   34.5260   47.1410 C   0  0  0  0  0  0  0  0  0  0  0  0
   60.5910   33.1060   47.6660 C   0  0  0  0  0  0  0  0  0  0  0  0
   60.7760   32.0780   46.7270 C   0  0  0  0  0  0  0  0  0  0  0  0
   60.7450   30.7420   47.1150 C   0  0  0  0  0  0  0  0  0  0  0  0
   60.5190   30.4030   48.4540 C   0  0  0  0  0  0  0  0  0  0  0  0
   60.3540   29.0370   48.8590 N   0  0  0  0  0  0  0  0  0  0  0  0
   60.2340   27.9120   47.9750 C   0  0  0  0  0  0  0  0  0  0  0  0
   61.1690   27.0690   47.9420 O   0  0  0  0  0  0  0  0  0  0  0  0
   59.0340   27.6980   47.1300 C   0  0  0  0  0  0  0  0  0  0  0  0
   58.5440   28.7410   46.3310 C   0  0  0  0  0  0  0  0  0  0  0  0
   57.3760   28.5680   45.5860 C   0  0  0  0  0  0  0  0  0  0  0  0
   56.6810   27.3570   45.6340 C   0  0  0  0  0  0  0  0  0  0  0  0
   57.1650   26.2910   46.4110 C   0  0  0  0  0  0  0  0  0  0  0  0
   56.4150   25.0140   46.4920 C   0  0  0  0  0  0  0  0  0  0  0  0
   55.1540   24.9220   45.9990 N   0  0  0  0  0  0  0  0  0  0  0  0
   54.4400   23.7670   46.0780 C   0  0  0  0  0  0  0  0  0  0  0  0
   53.0410   23.7210   45.5540 C   0  0  0  0  0  0  0  0  0  0  0  0
   55.0060   22.6480   46.6930 C   0  0  0  0  0  0  0  0  0  0  0  0
   56.3110   22.7450   47.1810 C   0  0  0  0  0  0  0  0  0  0  0  0
   56.8620   21.7500   47.7240 O   0  0  0  0  0  0  0  0  0  0  0  0
   56.9840   23.9190   47.0760 N   0  0  0  0  0  0  0  0  0  0  0  0
   58.3600   26.4630   47.1310 C   0  0  0  0  0  0  0  0  0  0  0  0
   60.4340   31.4150   49.4150 C   0  0  0  0  0  0  0  0  0  0  0  0
   60.4750   32.7750   49.0470 C   0  0  0  0  0  0  0  0  0  0  0  0
   60.3520   33.8370   50.1200 C   0  0  0  0  0  0  0  0  0  0  0  0
   59.3180   34.7190   49.8540 F   0  0  0  0  0  0  0  0  0  0  0  0
   60.0920   33.2410   51.3400 F   0  0  0  0  0  0  0  0  0  0  0  0
   61.5250   34.5600   50.1960 F   0  0  0  0  0  0  0  0  0  0  0  0
   59.2420   34.8970   45.0610 C   0  0  0  0  0  0  0  0  0  0  0  0
   58.8540   33.5950   44.3480 C   0  0  0  0  0  0  0  0  0  0  0  0
   57.7043   30.2280   42.9912 H   0  0  0  0  0  0  0  0  0  0  0  0
   56.4512   31.4396   42.5572 H   0  0  0  0  0  0  0  0  0  0  0  0
   58.1867   31.9030   42.5572 H   0  0  0  0  0  0  0  0  0  0  0  0
   56.3232   31.4052   44.9052 H   0  0  0  0  0  0  0  0  0  0  0  0
   58.1106   31.1993   45.0868 H   0  0  0  0  0  0  0  0  0  0  0  0
   56.5357   34.6055   45.9110 H   0  0  0  0  0  0  0  0  0  0  0  0
   56.3290   32.8753   46.4195 H   0  0  0  0  0  0  0  0  0  0  0  0
   57.8069   34.0618   47.9825 H   0  0  0  0  0  0  0  0  0  0  0  0
   58.7090   32.7895   47.0625 H   0  0  0  0  0  0  0  0  0  0  0  0
   61.2810   34.6790   46.3786 H   0  0  0  0  0  0  0  0  0  0  0  0
   60.6498   35.2245   47.9780 H   0  0  0  0  0  0  0  0  0  0  0  0
   60.9477   32.3324   45.6707 H   0  0  0  0  0  0  0  0  0  0  0  0
   60.8986   29.9500   46.3672 H   0  0  0  0  0  0  0  0  0  0  0  0
   59.0822   29.6995   46.2910 H   0  0  0  0  0  0  0  0  0  0  0  0
   57.0010   29.3895   44.9579 H   0  0  0  0  0  0  0  0  0  0  0  0
   55.7500   27.2374   45.0605 H   0  0  0  0  0  0  0  0  0  0  0  0
   52.3344   23.6978   46.3967 H   0  0  0  0  0  0  0  0  0  0  0  0
   52.8500   24.6134   44.9398 H   0  0  0  0  0  0  0  0  0  0  0  0
   52.9090   22.8180   44.9398 H   0  0  0  0  0  0  0  0  0  0  0  0
   54.4370   21.7117   46.7908 H   0  0  0  0  0  0  0  0  0  0  0  0
   58.7741   25.6199   47.7034 H   0  0  0  0  0  0  0  0  0  0  0  0
   60.3334   31.1451   50.4766 H   0  0  0  0  0  0  0  0  0  0  0  0
   58.5541   35.6935   44.7412 H   0  0  0  0  0  0  0  0  0  0  0  0
   60.2823   35.1306   44.7905 H   0  0  0  0  0  0  0  0  0  0  0  0
   58.9268   33.7507   43.2615 H   0  0  0  0  0  0  0  0  0  0  0  0
   59.5424   32.8065   44.6861 H   0  0  0  0  0  0  0  0  0  0  0  0
  1  2  1  0
  2  3  1  0
  3  4  1  0
  4  5  1  0
  5  6  1  0
  6  7  1  0
  7  8  1  0
  8  9  2  0
  9 10  1  0
 10 11  2  0
 11 12  1  0
 12 13  1  0
 13 14  2  0
 13 15  1  0
 15 16  2  0
 16 17  1  0
 17 18  2  0
 18 19  1  0
 19 20  1  0
 20 21  2  0
 21 22  1  0
 22 23  1  0
 22 24  2  0
 24 25  1  0
 25 26  2  0
 25 27  1  0
 19 28  2  0
 11 29  1  0
 29 30  2  0
 30 31  1  0
 31 32  1  0
 31 33  1  0
 31 34  1  0
  6 35  1  0
 35 36  1  0
 36  3  1  0
 30  8  1  0
 28 15  1  0
 27 20  1  0
  1 37  1  0
  1 38  1  0
  1 39  1  0
  2 40  1  0
  2 41  1  0
  4 42  1  0
  4 43  1  0
  5 44  1  0
  5 45  1  0
  7 46  1  0
  7 47  1  0
  9 48  1  0
 10 49  1  0
 16 50  1  0
 17 51  1  0
 18 52  1  0
 23 53  1  0
 23 54  1  0
 23 55  1  0
 24 56  1  0
 28 57  1  0
 29 58  1  0
 35 59  1  0
 35 60  1  0
 36 61  1  0
 36 62  1  0
M  CHG  2  12  -1  27  -1
M  END
>  <UniqueID>  (47) 
44

>  <SMILES>  (47) 
CCN1CCN(Cc2ccc([N-]C(=O)c3cccc(-c4nc(C)cc(=O)[n-]4)c3)cc2C(F)(F)F)CC1

>  <Energy>  (47) 
85.56132268706921

>  <Genealogy>  (47) 
CCN1CCN(Cc2ccc([N-]C(=O)c3cccc(-c4nc(C)cc(=O)[n-]4)c3)cc2C(F)(F)F)CC1 (protonated)
CCN1CCN(Cc2ccc([N-]C(=O)c3cccc(-c4nc(C)cc(=O)[n-]4)c3)cc2C(F)(F)F)CC1 (3D coordinates assigned)
CCN1CCN(Cc2ccc([N-]C(=O)c3cccc(-c4nc(C)cc(=O)[n-]4)c3)cc2C(F)(F)F)CC1 (nonaromatic ring conformer: 85.56132268706921 kcal/mol)

>  <smiles>  (47) 
CCN1CCN(Cc2ccc(NC(=O)c3cccc(-c4nc(C)cc(=O)[nH]4)c3)cc2C(F)(F)F)CC1

>  <score_type>  (47) 
oracle

>  <origin>  (47) 
adg

>  <m_score__min__energy>  (47) 
-12.93

>  <m_primary>  (47) 
energy

$$$$
47:0
     RDKit          3D

 55 58  0  0  0  0  0  0  0  0999 V2000
   58.0190   32.3260   42.2250 C   0  0  0  0  0  0  0  0  0  0  0  0
   58.0280   32.7140   43.6810 C   0  0  0  0  0  0  0  0  0  0  0  0
   58.8920   33.7370   44.1140 C   0  0  0  0  0  0  0  0  0  0  0  0
   58.9950   34.0500   45.4730 C   0  0  0  0  0  0  0  0  0  0  0  0
   58.2500   33.3380   46.4130 C   0  0  0  0  0  0  0  0  0  0  0  0
   57.4000   32.3090   45.9990 C   0  0  0  0  0  0  0  0  0  0  0  0
   57.2700   31.9990   44.6370 C   0  0  0  0  0  0  0  0  0  0  0  0
   56.1560   30.6620   44.1510 S   0  0  0  0  0  0  0  0  0  0  0  0
   57.3750   29.3160   44.3840 C   0  0  0  0  0  0  0  0  0  0  0  0
   57.0340   28.4570   45.5730 C   0  0  0  0  0  0  0  0  0  0  0  0
   55.9480   27.8150   45.5720 O   0  0  0  0  0  0  0  0  0  0  0  0
   57.9550   28.2580   46.6570 N   0  0  0  0  0  0  0  0  0  0  0  0
   58.9440   29.1890   47.1100 C   0  0  0  0  0  0  0  0  0  0  0  0
   58.8810   29.6640   48.4250 C   0  0  0  0  0  0  0  0  0  0  0  0
   59.7830   30.6340   48.8690 C   0  0  0  0  0  0  0  0  0  0  0  0
   60.7470   31.1620   47.9930 C   0  0  0  0  0  0  0  0  0  0  0  0
   61.6230   32.2150   48.4250 N   0  0  0  0  0  0  0  0  0  0  0  0
   61.6390   32.5960   49.8440 C   0  0  0  0  0  0  0  0  0  0  0  0
   62.7460   33.6110   50.1500 C   0  0  0  0  0  0  0  0  0  0  0  0
   64.0020   33.2130   49.4950 N   0  0  0  0  0  0  0  0  0  0  0  0
   65.2510   33.2000   50.2190 C   0  0  0  0  0  0  0  0  0  0  0  0
   66.1020   32.3000   49.9730 O   0  0  0  0  0  0  0  0  0  0  0  0
   65.5820   34.2140   51.2360 C   0  0  0  0  0  0  0  0  0  0  0  0
   66.8410   34.5450   51.7050 C   0  0  0  0  0  0  0  0  0  0  0  0
   66.6370   35.5300   52.6470 C   0  0  0  0  0  0  0  0  0  0  0  0
   65.2720   35.7320   52.7050 C   0  0  0  0  0  0  0  0  0  0  0  0
   64.6710   34.9310   51.8560 O   0  0  0  0  0  0  0  0  0  0  0  0
   63.9920   32.7450   48.1000 C   0  0  0  0  0  0  0  0  0  0  0  0
   62.5870   32.8160   47.4960 C   0  0  0  0  0  0  0  0  0  0  0  0
   60.7960   30.6950   46.6700 C   0  0  0  0  0  0  0  0  0  0  0  0
   59.9000   29.7190   46.2300 C   0  0  0  0  0  0  0  0  0  0  0  0
   57.9936   31.2298   42.1378 H   0  0  0  0  0  0  0  0  0  0  0  0
   57.1305   32.7533   41.7371 H   0  0  0  0  0  0  0  0  0  0  0  0
   58.9263   32.7117   41.7371 H   0  0  0  0  0  0  0  0  0  0  0  0
   59.4905   34.2943   43.3783 H   0  0  0  0  0  0  0  0  0  0  0  0
   59.6644   34.8588   45.8012 H   0  0  0  0  0  0  0  0  0  0  0  0
   58.3317   33.5868   47.4814 H   0  0  0  0  0  0  0  0  0  0  0  0
   56.8290   31.7382   46.7461 H   0  0  0  0  0  0  0  0  0  0  0  0
   57.3887   28.6870   43.4817 H   0  0  0  0  0  0  0  0  0  0  0  0
   58.3603   29.7719   44.5610 H   0  0  0  0  0  0  0  0  0  0  0  0
   58.1173   29.2715   49.1125 H   0  0  0  0  0  0  0  0  0  0  0  0
   59.7385   30.9865   49.9100 H   0  0  0  0  0  0  0  0  0  0  0  0
   60.6670   33.0405   50.1040 H   0  0  0  0  0  0  0  0  0  0  0  0
   61.8323   31.6907   50.4382 H   0  0  0  0  0  0  0  0  0  0  0  0
   62.4422   34.6013   49.7799 H   0  0  0  0  0  0  0  0  0  0  0  0
   62.9065   33.6469   51.2376 H   0  0  0  0  0  0  0  0  0  0  0  0
   67.8028   34.1127   51.3917 H   0  0  0  0  0  0  0  0  0  0  0  0
   67.4071   36.0509   53.2349 H   0  0  0  0  0  0  0  0  0  0  0  0
   64.7655   36.4540   53.3624 H   0  0  0  0  0  0  0  0  0  0  0  0
   64.6691   33.3765   47.5060 H   0  0  0  0  0  0  0  0  0  0  0  0
   64.3222   31.6959   48.0849 H   0  0  0  0  0  0  0  0  0  0  0  0
   62.3175   33.8675   47.3177 H   0  0  0  0  0  0  0  0  0  0  0  0
   62.5696   32.2658   46.5436 H   0  0  0  0  0  0  0  0  0  0  0  0
   61.5458   31.1010   45.9750 H   0  0  0  0  0  0  0  0  0  0  0  0
   59.9436   29.3641   45.1897 H   0  0  0  0  0  0  0  0  0  0  0  0
  1  2  1  0
  2  3  2  0
  3  4  1  0
  4  5  2  0
  5  6  1  0
  6  7  2  0
  7  8  1  0
  8  9  1  0
  9 10  1  0
 10 11  2  0
 10 12  1  0
 12 13  1  0
 13 14  2  0
 14 15  1  0
 15 16  2  0
 16 17  1  0
 17 18  1  0
 18 19  1  0
 19 20  1  0
 20 21  1  0
 21 22  2  0
 21 23  1  0
 23 24  2  0
 24 25  1  0
 25 26  2  0
 26 27  1  0
 20 28  1  0
 28 29  1  0
 16 30  1  0
 30 31  2  0
  7  2  1  0
 31 13  1  0
 29 17  1  0
 27 23  1  0
  1 32  1  0
  1 33  1  0
  1 34  1  0
  3 35  1  0
  4 36  1  0
  5 37  1  0
  6 38  1  0
  9 39  1  0
  9 40  1  0
 14 41  1  0
 15 42  1  0
 18 43  1  0
 18 44  1  0
 19 45  1  0
 19 46  1  0
 24 47  1  0
 25 48  1  0
 26 49  1  0
 28 50  1  0
 28 51  1  0
 29 52  1  0
 29 53  1  0
 30 54  1  0
 31 55  1  0
M  CHG  1  12  -1
M  END
>  <UniqueID>  (48) 
45

>  <SMILES>  (48) 
Cc1ccccc1SCC(=O)[N-]c1ccc(N2CCN(C(=O)c3ccco3)CC2)cc1

>  <Energy>  (48) 
93.4985587398036

>  <Genealogy>  (48) 
Cc1ccccc1SCC(=O)[N-]c1ccc(N2CCN(C(=O)c3ccco3)CC2)cc1 (protonated)
Cc1ccccc1SCC(=O)[N-]c1ccc(N2CCN(C(=O)c3ccco3)CC2)cc1 (3D coordinates assigned)
Cc1ccccc1SCC(=O)[N-]c1ccc(N2CCN(C(=O)c3ccco3)CC2)cc1 (nonaromatic ring conformer: 93.4985587398036 kcal/mol)

>  <smiles>  (48) 
Cc1ccccc1SCC(=O)Nc1ccc(N2CCN(C(=O)c3ccco3)CC2)cc1

>  <score_type>  (48) 
oracle

>  <origin>  (48) 
adg

>  <m_score__min__energy>  (48) 
-10.65

>  <m_primary>  (48) 
energy

$$$$
48:0
     RDKit          3D

 45 48  0  0  0  0  0  0  0  0999 V2000
   55.5390   24.5610   46.4620 O   0  0  0  0  0  0  0  0  0  0  0  0
   56.1470   25.6240   46.1690 C   0  0  0  0  0  0  0  0  0  0  0  0
   55.5130   26.7780   45.8810 N   0  0  0  0  0  0  0  0  0  0  0  0
   56.4030   27.7660   45.5960 C   0  0  0  0  0  0  0  0  0  0  0  0
   55.9930   29.0550   45.2710 O   0  0  0  0  0  0  0  0  0  0  0  0
   57.7420   27.3900   45.6520 C   0  0  0  0  0  0  0  0  0  0  0  0
   58.9250   28.2900   45.4820 C   0  0  0  0  0  0  0  0  0  0  0  0
   59.1390   29.1020   46.7290 C   0  0  0  0  0  0  0  0  0  0  0  0
   58.6460   30.4120   46.8160 C   0  0  0  0  0  0  0  0  0  0  0  0
   58.8180   31.1520   47.9900 C   0  0  0  0  0  0  0  0  0  0  0  0
   59.4730   30.5970   49.0960 C   0  0  0  0  0  0  0  0  0  0  0  0
   59.6180   31.3870   50.2470 O   0  0  0  0  0  0  0  0  0  0  0  0
   58.8240   32.5280   50.5710 C   0  0  0  0  0  0  0  0  0  0  0  0
   59.6300   33.8180   50.3930 C   0  0  0  0  0  0  0  0  0  0  0  0
   60.0710   33.9550   49.0070 N   0  0  0  0  0  0  0  0  0  0  0  0
   59.2320   34.4580   47.9200 C   0  0  0  0  0  0  0  0  0  0  0  0
   60.1220   34.4360   46.6510 C   0  0  0  0  0  0  0  0  0  0  0  0
   61.4110   33.8760   47.1420 C   0  0  0  0  0  0  0  0  0  0  0  0
   62.5650   33.6040   46.4060 C   0  0  0  0  0  0  0  0  0  0  0  0
   63.6680   33.0440   47.0730 C   0  0  0  0  0  0  0  0  0  0  0  0
   63.5950   32.7640   48.4510 C   0  0  0  0  0  0  0  0  0  0  0  0
   62.4220   33.0490   49.1710 C   0  0  0  0  0  0  0  0  0  0  0  0
   61.3420   33.6130   48.4840 C   0  0  0  0  0  0  0  0  0  0  0  0
   59.9600   29.2770   49.0090 C   0  0  0  0  0  0  0  0  0  0  0  0
   59.7850   28.5360   47.8370 C   0  0  0  0  0  0  0  0  0  0  0  0
   57.8180   25.7670   46.0940 S   0  0  0  0  0  0  0  0  0  0  0  0
   55.7350   29.7150   45.9960 H   0  0  0  0  0  0  0  0  0  0  0  0
   59.8201   27.6814   45.2859 H   0  0  0  0  0  0  0  0  0  0  0  0
   58.7422   28.9695   44.6365 H   0  0  0  0  0  0  0  0  0  0  0  0
   58.1223   30.8588   45.9580 H   0  0  0  0  0  0  0  0  0  0  0  0
   58.4345   32.1815   48.0452 H   0  0  0  0  0  0  0  0  0  0  0  0
   57.9462   32.5566   49.9087 H   0  0  0  0  0  0  0  0  0  0  0  0
   58.5077   32.4513   51.6218 H   0  0  0  0  0  0  0  0  0  0  0  0
   58.9996   34.6791   50.6597 H   0  0  0  0  0  0  0  0  0  0  0  0
   60.5138   33.7800   51.0469 H   0  0  0  0  0  0  0  0  0  0  0  0
   58.3541   33.8096   47.7829 H   0  0  0  0  0  0  0  0  0  0  0  0
   58.8584   35.4703   48.1336 H   0  0  0  0  0  0  0  0  0  0  0  0
   59.6838   33.7921   45.8742 H   0  0  0  0  0  0  0  0  0  0  0  0
   60.2337   35.4276   46.1881 H   0  0  0  0  0  0  0  0  0  0  0  0
   62.6103   33.8228   45.3289 H   0  0  0  0  0  0  0  0  0  0  0  0
   64.5911   32.8238   46.5169 H   0  0  0  0  0  0  0  0  0  0  0  0
   64.4597   32.3203   48.9662 H   0  0  0  0  0  0  0  0  0  0  0  0
   62.3550   32.8339   50.2477 H   0  0  0  0  0  0  0  0  0  0  0  0
   60.4803   28.8279   49.8678 H   0  0  0  0  0  0  0  0  0  0  0  0
   60.1565   27.5020   47.7836 H   0  0  0  0  0  0  0  0  0  0  0  0
  1  2  2  0
  2  3  1  0
  3  4  1  0
  4  5  1  0
  4  6  2  0
  6  7  1  0
  7  8  1  0
  8  9  2  0
  9 10  1  0
 10 11  2  0
 11 12  1  0
 12 13  1  0
 13 14  1  0
 14 15  1  0
 15 16  1  0
 16 17  1  0
 17 18  1  0
 18 19  2  0
 19 20  1  0
 20 21  2  0
 21 22  1  0
 22 23  2  0
 11 24  1  0
 24 25  2  0
  6 26  1  0
 26  2  1  0
 25  8  1  0
 23 15  1  0
 23 18  1  0
  5 27  1  0
  7 28  1  0
  7 29  1  0
  9 30  1  0
 10 31  1  0
 13 32  1  0
 13 33  1  0
 14 34  1  0
 14 35  1  0
 16 36  1  0
 16 37  1  0
 17 38  1  0
 17 39  1  0
 19 40  1  0
 20 41  1  0
 21 42  1  0
 22 43  1  0
 24 44  1  0
 25 45  1  0
M  CHG  1   3  -1
M  END
>  <UniqueID>  (49) 
46

>  <SMILES>  (49) 
O=c1[n-]c(O)c(Cc2ccc(OCCN3CCc4ccccc43)cc2)s1

>  <Energy>  (49) 
88.17366388568504

>  <Genealogy>  (49) 
O=c1[n-]c(O)c(Cc2ccc(OCCN3CCc4ccccc43)cc2)s1 (protonated)
O=c1[n-]c(O)c(Cc2ccc(OCCN3CCc4ccccc43)cc2)s1 (3D coordinates assigned)
O=c1[n-]c(O)c(Cc2ccc(OCCN3CCc4ccccc43)cc2)s1 (nonaromatic ring conformer: 88.17366388568504 kcal/mol)

>  <smiles>  (49) 
O=c1[nH]c(O)c(Cc2ccc(OCCN3CCc4ccccc43)cc2)s1

>  <score_type>  (49) 
oracle

>  <origin>  (49) 
adg

>  <m_score__min__energy>  (49) 
-11.49

>  <m_primary>  (49) 
energy

$$$$
49:0
     RDKit          3D

 35 37  0  0  0  0  0  0  0  0999 V2000
   60.2387   25.2126   46.2335 H   0  0  0  0  0  0  0  0  0  0  0  0
   59.7700   26.2060   46.1750 C   0  0  0  0  0  0  0  0  0  0  0  0
   60.5710   27.2810   46.1640 C   0  0  0  0  0  0  0  0  0  0  0  0
   61.4054   27.3117   45.4478 H   0  0  0  0  0  0  0  0  0  0  0  0
   60.3750   28.4310   47.0810 C   0  0  0  0  0  0  0  0  0  0  0  0
   60.3280   28.2080   48.4630 C   0  0  0  0  0  0  0  0  0  0  0  0
   60.4410   26.9220   48.9800 O   0  0  0  0  0  0  0  0  0  0  0  0
   60.1560   29.2480   49.3120 N   0  0  0  0  0  0  0  0  0  0  0  0
   60.0360   30.5220   48.8620 C   0  0  0  0  0  0  0  0  0  0  0  0
   59.8550   31.4500   49.6970 O   0  0  0  0  0  0  0  0  0  0  0  0
   60.1030   30.7880   47.5200 N   0  0  0  0  0  0  0  0  0  0  0  0
   59.9890   32.1470   47.0470 C   0  0  0  0  0  0  0  0  0  0  0  0
   61.1250   32.9710   46.9750 C   0  0  0  0  0  0  0  0  0  0  0  0
   62.1062   32.5794   47.2816 H   0  0  0  0  0  0  0  0  0  0  0  0
   61.0130   34.2870   46.5150 C   0  0  0  0  0  0  0  0  0  0  0  0
   61.9053   34.9279   46.4606 H   0  0  0  0  0  0  0  0  0  0  0  0
   59.7670   34.7890   46.1240 C   0  0  0  0  0  0  0  0  0  0  0  0
   59.6570   36.0960   45.6670 O   0  0  0  0  0  0  0  0  0  0  0  0
   58.6330   33.9750   46.1930 C   0  0  0  0  0  0  0  0  0  0  0  0
   57.6536   34.3700   45.8851 H   0  0  0  0  0  0  0  0  0  0  0  0
   58.7420   32.6590   46.6530 C   0  0  0  0  0  0  0  0  0  0  0  0
   57.8469   32.0219   46.7065 H   0  0  0  0  0  0  0  0  0  0  0  0
   60.2870   29.7640   46.6260 C   0  0  0  0  0  0  0  0  0  0  0  0
   60.4160   30.0170   45.3950 O   0  0  0  0  0  0  0  0  0  0  0  0
   58.2880   26.2760   46.1130 C   0  0  0  0  0  0  0  0  0  0  0  0
   57.5490   25.1310   46.4550 C   0  0  0  0  0  0  0  0  0  0  0  0
   58.0742   24.2157   46.7656 H   0  0  0  0  0  0  0  0  0  0  0  0
   56.1520   25.1450   46.4040 C   0  0  0  0  0  0  0  0  0  0  0  0
   55.5839   24.2453   46.6829 H   0  0  0  0  0  0  0  0  0  0  0  0
   55.4760   26.2980   46.0000 C   0  0  0  0  0  0  0  0  0  0  0  0
   54.0860   26.3060   45.9530 O   0  0  0  0  0  0  0  0  0  0  0  0
   56.1990   27.4400   45.6400 C   0  0  0  0  0  0  0  0  0  0  0  0
   55.5310   28.5870   45.2250 O   0  0  0  0  0  0  0  0  0  0  0  0
   57.5980   27.4310   45.6910 C   0  0  0  0  0  0  0  0  0  0  0  0
   58.1619   28.3296   45.4004 H   0  0  0  0  0  0  0  0  0  0  0  0
  1  2  1  0
  2  3  2  0
  3  4  1  0
  3  5  1  0
  5  6  2  0
  6  7  1  0
  6  8  1  0
  8  9  1  0
  9 10  2  0
  9 11  1  0
 11 12  1  0
 12 13  2  0
 13 14  1  0
 13 15  1  0
 15 16  1  0
 15 17  2  0
 17 18  1  0
 17 19  1  0
 19 20  1  0
 19 21  2  0
 21 22  1  0
 11 23  1  0
 23 24  2  0
  2 25  1  0
 25 26  2  0
 26 27  1  0
 26 28  1  0
 28 29  1  0
 28 30  2  0
 30 31  1  0
 30 32  1  0
 32 33  1  0
 32 34  2  0
 34 35  1  0
 23  5  1  0
 34 25  1  0
 21 12  1  0
M  CHG  5   7  -1   8  -1  18  -1  31  -1  33  -1
M  END
>  <UniqueID>  (50) 
47

>  <SMILES>  (50) 
O=c1[n-]c([O-])c(/C=C/c2ccc([O-])c([O-])c2)c(=O)n1-c1ccc([O-])cc1

>  <Energy>  (50) 
57.81655413300355

>  <Genealogy>  (50) 
O=c1[n-]c([O-])c(C=Cc2ccc([O-])c([O-])c2)c(=O)n1-c1ccc([O-])cc1 (protonated)
O=c1[n-]c([O-])c(/C=C/c2ccc([O-])c([O-])c2)c(=O)n1-c1ccc([O-])cc1 (cis-trans isomerization)
O=c1[n-]c([O-])c(/C=C/c2ccc([O-])c([O-])c2)c(=O)n1-c1ccc([O-])cc1 (3D coordinates assigned)
O=c1[n-]c([O-])c(/C=C/c2ccc([O-])c([O-])c2)c(=O)n1-c1ccc([O-])cc1 (optimized conformer: 57.81655413300355 kcal/mol)

>  <smiles>  (50) 
O=c1[nH]c(O)c(C=Cc2ccc(O)c(O)c2)c(=O)n1-c1ccc(O)cc1

>  <score_type>  (50) 
oracle

>  <origin>  (50) 
adg

>  <m_score__min__energy>  (50) 
-18.489999999999998

>  <m_primary>  (50) 
energy

$$$$
50:0
     RDKit          3D

 44 46  0  0  0  0  0  0  0  0999 V2000
   55.5770   29.3570   45.2410 O   0  0  0  0  0  0  0  0  0  0  0  0
   56.5990   29.5440   44.5300 C   0  0  0  0  0  0  0  0  0  0  0  0
   56.9580   30.9440   44.1130 C   0  0  0  0  0  0  0  0  0  0  0  0
   56.7260   31.8670   45.2260 N   0  0  0  0  0  0  0  0  0  0  0  0
   57.5970   33.3470   44.9570 S   0  0  0  0  0  0  0  0  0  0  0  0
   56.6430   34.5040   45.0370 O   0  0  0  0  0  0  0  0  0  0  0  0
   58.2090   33.3310   43.5820 O   0  0  0  0  0  0  0  0  0  0  0  0
   58.8580   33.5480   46.1720 C   0  0  0  0  0  0  0  0  0  0  0  0
   60.1720   33.8280   45.7770 C   0  0  0  0  0  0  0  0  0  0  0  0
   61.1710   34.0120   46.7380 C   0  0  0  0  0  0  0  0  0  0  0  0
   60.8600   33.9240   48.1000 C   0  0  0  0  0  0  0  0  0  0  0  0
   62.2350   34.1830   49.4020 Br  0  0  0  0  0  0  0  0  0  0  0  0
   59.5460   33.6510   48.4990 C   0  0  0  0  0  0  0  0  0  0  0  0
   59.2320   33.5710   49.8160 F   0  0  0  0  0  0  0  0  0  0  0  0
   58.5460   33.4660   47.5370 C   0  0  0  0  0  0  0  0  0  0  0  0
   57.3510   28.4090   44.0850 N   0  0  0  0  0  0  0  0  0  0  0  0
   58.1300   27.5510   44.9280 C   0  0  0  0  0  0  0  0  0  0  0  0
   57.7250   26.2270   45.1710 C   0  0  0  0  0  0  0  0  0  0  0  0
   58.4990   25.3910   45.9810 C   0  0  0  0  0  0  0  0  0  0  0  0
   59.6850   25.8660   46.5450 C   0  0  0  0  0  0  0  0  0  0  0  0
   60.1010   27.1760   46.2990 C   0  0  0  0  0  0  0  0  0  0  0  0
   59.3300   28.0210   45.4900 C   0  0  0  0  0  0  0  0  0  0  0  0
   59.8730   29.7150   45.2270 S   0  0  0  0  0  0  0  0  0  0  0  0
   59.9950   30.0530   46.9850 C   0  0  0  0  0  0  0  0  0  0  0  0
   61.2150   30.4620   47.5400 C   0  0  0  0  0  0  0  0  0  0  0  0
   61.3100   30.7090   48.9130 C   0  0  0  0  0  0  0  0  0  0  0  0
   60.1880   30.5540   49.7330 C   0  0  0  0  0  0  0  0  0  0  0  0
   58.9670   30.1580   49.1790 C   0  0  0  0  0  0  0  0  0  0  0  0
   58.8690   29.9090   47.8070 C   0  0  0  0  0  0  0  0  0  0  0  0
   58.0190   30.9786   43.8247 H   0  0  0  0  0  0  0  0  0  0  0  0
   56.3323   31.2405   43.2583 H   0  0  0  0  0  0  0  0  0  0  0  0
   57.1220   31.4390   46.0950 H   0  0  0  0  0  0  0  0  0  0  0  0
   60.4190   33.9034   44.7077 H   0  0  0  0  0  0  0  0  0  0  0  0
   62.2030   34.2263   46.4232 H   0  0  0  0  0  0  0  0  0  0  0  0
   57.5133   33.2559   47.8523 H   0  0  0  0  0  0  0  0  0  0  0  0
   56.7954   25.8473   44.7220 H   0  0  0  0  0  0  0  0  0  0  0  0
   58.1736   24.3582   46.1743 H   0  0  0  0  0  0  0  0  0  0  0  0
   60.2920   25.2075   47.1837 H   0  0  0  0  0  0  0  0  0  0  0  0
   61.0374   27.5459   46.7420 H   0  0  0  0  0  0  0  0  0  0  0  0
   62.0976   30.5887   46.8958 H   0  0  0  0  0  0  0  0  0  0  0  0
   62.2690   31.0258   49.3488 H   0  0  0  0  0  0  0  0  0  0  0  0
   60.2660   30.7436   50.8137 H   0  0  0  0  0  0  0  0  0  0  0  0
   58.0829   30.0423   49.8232 H   0  0  0  0  0  0  0  0  0  0  0  0
   57.9071   29.5997   47.3720 H   0  0  0  0  0  0  0  0  0  0  0  0
  1  2  2  0
  2  3  1  0
  3  4  1  0
  4  5  1  0
  5  6  2  0
  5  7  2  0
  5  8  1  0
  8  9  2  0
  9 10  1  0
 10 11  2  0
 11 12  1  0
 11 13  1  0
 13 14  1  0
 13 15  2  0
  2 16  1  0
 16 17  1  0
 17 18  2  0
 18 19  1  0
 19 20  2  0
 20 21  1  0
 21 22  2  0
 22 23  1  0
 23 24  1  0
 24 25  2  0
 25 26  1  0
 26 27  2  0
 27 28  1  0
 28 29  2  0
 15  8  1  0
 22 17  1  0
 29 24  1  0
  3 30  1  0
  3 31  1  0
  4 32  1  0
  9 33  1  0
 10 34  1  0
 15 35  1  0
 18 36  1  0
 19 37  1  0
 20 38  1  0
 21 39  1  0
 25 40  1  0
 26 41  1  0
 27 42  1  0
 28 43  1  0
 29 44  1  0
M  CHG  1  16  -1
M  END
>  <UniqueID>  (51) 
48

>  <SMILES>  (51) 
O=C(CNS(=O)(=O)c1ccc(Br)c(F)c1)[N-]c1ccccc1Sc1ccccc1

>  <Energy>  (51) 
42.0998925467668

>  <Genealogy>  (51) 
O=C(CNS(=O)(=O)c1ccc(Br)c(F)c1)[N-]c1ccccc1Sc1ccccc1 (protonated)
O=C(CNS(=O)(=O)c1ccc(Br)c(F)c1)[N-]c1ccccc1Sc1ccccc1 (3D coordinates assigned)
O=C(CNS(=O)(=O)c1ccc(Br)c(F)c1)[N-]c1ccccc1Sc1ccccc1 (optimized conformer: 42.0998925467668 kcal/mol)

>  <smiles>  (51) 
O=C(CNS(=O)(=O)c1ccc(Br)c(F)c1)Nc1ccccc1Sc1ccccc1

>  <score_type>  (51) 
oracle

>  <origin>  (51) 
adg

>  <m_score__min__energy>  (51) 
-10.99

>  <m_primary>  (51) 
energy

$$$$
51:0
     RDKit          3D

 26 27  0  0  0  0  0  0  0  0999 V2000
   58.1630   30.6220   53.5630 N   0  0  0  0  0  0  0  0  0  0  0  0
   56.7040   30.3380   52.6770 S   0  0  0  0  0  0  0  0  0  0  0  0
   55.7750   31.5090   52.8260 O   0  0  0  0  0  0  0  0  0  0  0  0
   57.0610   30.1850   51.2250 O   0  0  0  0  0  0  0  0  0  0  0  0
   55.9110   28.8650   53.2630 C   0  0  0  0  0  0  0  0  0  0  0  0
   56.7050   27.8180   53.7580 C   0  0  0  0  0  0  0  0  0  0  0  0
   56.1180   26.6560   54.2630 C   0  0  0  0  0  0  0  0  0  0  0  0
   54.7300   26.5250   54.2820 C   0  0  0  0  0  0  0  0  0  0  0  0
   53.9250   27.5520   53.7870 C   0  0  0  0  0  0  0  0  0  0  0  0
   54.5010   28.7220   53.2670 C   0  0  0  0  0  0  0  0  0  0  0  0
   53.6040   29.7670   52.7340 C   0  0  0  0  0  0  0  0  0  0  0  0
   53.6170   30.0730   51.3650 C   0  0  0  0  0  0  0  0  0  0  0  0
   52.7630   31.0560   50.8570 C   0  0  0  0  0  0  0  0  0  0  0  0
   51.8840   31.7320   51.7090 C   0  0  0  0  0  0  0  0  0  0  0  0
   51.0380   32.7100   51.2020 O   0  0  0  0  0  0  0  0  0  0  0  0
   51.8570   31.4210   53.0720 C   0  0  0  0  0  0  0  0  0  0  0  0
   52.7090   30.4380   53.5860 C   0  0  0  0  0  0  0  0  0  0  0  0
   52.6750   30.1520   54.9120 F   0  0  0  0  0  0  0  0  0  0  0  0
   58.9590   30.5190   52.8950 H   0  0  0  0  0  0  0  0  0  0  0  0
   57.8007   27.9142   53.7479 H   0  0  0  0  0  0  0  0  0  0  0  0
   56.7516   25.8427   54.6464 H   0  0  0  0  0  0  0  0  0  0  0  0
   54.2693   25.6120   54.6872 H   0  0  0  0  0  0  0  0  0  0  0  0
   52.8305   27.4439   53.8044 H   0  0  0  0  0  0  0  0  0  0  0  0
   54.3009   29.5380   50.6897 H   0  0  0  0  0  0  0  0  0  0  0  0
   52.7824   31.2985   49.7842 H   0  0  0  0  0  0  0  0  0  0  0  0
   51.1638   31.9509   53.7419 H   0  0  0  0  0  0  0  0  0  0  0  0
  1  2  1  0
  2  3  2  0
  2  4  2  0
  2  5  1  0
  5  6  2  0
  6  7  1  0
  7  8  2  0
  8  9  1  0
  9 10  2  0
 10 11  1  0
 11 12  2  0
 12 13  1  0
 13 14  2  0
 14 15  1  0
 14 16  1  0
 16 17  2  0
 17 18  1  0
 10  5  1  0
 17 11  1  0
  1 19  1  0
  6 20  1  0
  7 21  1  0
  8 22  1  0
  9 23  1  0
 12 24  1  0
 13 25  1  0
 16 26  1  0
M  CHG  2   1  -1  15  -1
M  END
>  <UniqueID>  (52) 
49

>  <SMILES>  (52) 
[NH-]S(=O)(=O)c1ccccc1-c1ccc([O-])cc1F

>  <Energy>  (52) 
35.871467610411536

>  <Genealogy>  (52) 
[NH-]S(=O)(=O)c1ccccc1-c1ccc([O-])cc1F (protonated)
[NH-]S(=O)(=O)c1ccccc1-c1ccc([O-])cc1F (3D coordinates assigned)
[NH-]S(=O)(=O)c1ccccc1-c1ccc([O-])cc1F (optimized conformer: 35.871467610411536 kcal/mol)

>  <smiles>  (52) 
NS(=O)(=O)c1ccccc1-c1ccc(O)cc1F

>  <score_type>  (52) 
oracle

>  <origin>  (52) 
adg

>  <m_score__min__energy>  (52) 
-10.289999999999999

>  <m_primary>  (52) 
energy

$$$$
52:0
     RDKit          3D

 26 26  0  0  0  0  0  0  0  0999 V2000
   56.9370   19.7190   43.2140 H   0  0  0  0  0  0  0  0  0  0  0  0
   56.3770   20.5350   42.9990 O   0  0  0  0  0  0  0  0  0  0  0  0
   56.7320   21.8020   43.4590 C   0  0  0  0  0  0  0  0  0  0  0  0
   57.7840   21.9360   44.3700 C   0  0  0  0  0  0  0  0  0  0  0  0
   58.3235   21.0432   44.7191 H   0  0  0  0  0  0  0  0  0  0  0  0
   58.1530   23.2000   44.8390 C   0  0  0  0  0  0  0  0  0  0  0  0
   58.9737   23.2964   45.5651 H   0  0  0  0  0  0  0  0  0  0  0  0
   57.4800   24.3490   44.3870 C   0  0  0  0  0  0  0  0  0  0  0  0
   57.8240   25.7020   44.8800 C   0  0  0  0  0  0  0  0  0  0  0  0
   57.9194   25.8530   45.9654 H   0  0  0  0  0  0  0  0  0  0  0  0
   58.0190   26.7200   44.0970 N   0  0  0  0  0  0  0  0  0  0  0  0
   57.8930   28.0230   44.5210 O   0  0  0  0  0  0  0  0  0  0  0  0
   57.2850   28.9960   43.6890 C   0  0  0  0  0  0  0  0  0  0  0  0
   56.7311   28.4952   42.8813 H   0  0  0  0  0  0  0  0  0  0  0  0
   58.0588   29.6438   43.2513 H   0  0  0  0  0  0  0  0  0  0  0  0
   56.3450   29.8180   44.5030 C   0  0  0  0  0  0  0  0  0  0  0  0
   55.2280   29.3410   44.8460 O   0  0  0  0  0  0  0  0  0  0  0  0
   56.6920   31.1300   44.8370 O   0  0  0  0  0  0  0  0  0  0  0  0
   57.7220   31.8440   44.1660 C   0  0  0  0  0  0  0  0  0  0  0  0
   58.3900   32.3070   44.9072 H   0  0  0  0  0  0  0  0  0  0  0  0
   58.2982   31.1506   43.5358 H   0  0  0  0  0  0  0  0  0  0  0  0
   57.2748   32.6269   43.5358 H   0  0  0  0  0  0  0  0  0  0  0  0
   56.4070   24.2050   43.4930 C   0  0  0  0  0  0  0  0  0  0  0  0
   55.8510   25.0934   43.1589 H   0  0  0  0  0  0  0  0  0  0  0  0
   56.0410   22.9400   43.0250 C   0  0  0  0  0  0  0  0  0  0  0  0
   55.2080   22.8380   42.3139 H   0  0  0  0  0  0  0  0  0  0  0  0
  1  2  1  0
  2  3  1  0
  3  4  2  0
  4  5  1  0
  4  6  1  0
  6  7  1  0
  6  8  2  0
  8  9  1  0
  9 10  1  0
  9 11  2  0
 11 12  1  0
 12 13  1  0
 13 14  1  0
 13 15  1  0
 13 16  1  0
 16 17  2  0
 16 18  1  0
 18 19  1  0
 19 20  1  0
 19 21  1  0
 19 22  1  0
  8 23  1  0
 23 24  1  0
 23 25  2  0
 25 26  1  0
 25  3  1  0
M  END
>  <UniqueID>  (53) 
50

>  <SMILES>  (53) 
COC(=O)CO/N=C\c1ccc(O)cc1

>  <Energy>  (53) 
21.054646048014742

>  <Genealogy>  (53) 
COC(=O)CO/N=C\c1ccc(O)cc1 (cis-trans isomerization)
COC(=O)CO/N=C\c1ccc(O)cc1 (3D coordinates assigned)
COC(=O)CO/N=C\c1ccc(O)cc1 (optimized conformer: 21.054646048014742 kcal/mol)

>  <smiles>  (53) 
COC(=O)CON=Cc1ccc(O)cc1

>  <score_type>  (53) 
oracle

>  <origin>  (53) 
adg

>  <m_score__min__energy>  (53) 
-5.7800000000000002

>  <m_primary>  (53) 
energy

$$$$
53:0
     RDKit          3D

 44 46  0  0  0  0  0  0  0  0999 V2000
   56.6460   31.7440   44.9240 O   0  0  0  0  0  0  0  0  0  0  0  0
   57.7060   32.3930   45.1380 C   0  0  0  0  0  0  0  0  0  0  0  0
   57.7180   33.8740   44.8970 C   0  0  0  0  0  0  0  0  0  0  0  0
   59.1500   34.4270   44.8640 C   0  0  0  0  0  0  0  0  0  0  0  0
   59.8040   34.3710   46.2220 C   0  0  0  0  0  0  0  0  0  0  0  0
   59.0610   34.6650   47.3780 C   0  0  0  0  0  0  0  0  0  0  0  0
   59.6500   34.5530   48.6410 C   0  0  0  0  0  0  0  0  0  0  0  0
   60.9790   34.1380   48.7600 C   0  0  0  0  0  0  0  0  0  0  0  0
   61.7230   33.8360   47.6160 C   0  0  0  0  0  0  0  0  0  0  0  0
   61.1390   33.9500   46.3510 C   0  0  0  0  0  0  0  0  0  0  0  0
   58.9190   31.7180   45.5070 N   0  0  0  0  0  0  0  0  0  0  0  0
   59.0350   30.2920   45.6410 C   0  0  0  0  0  0  0  0  0  0  0  0
   58.9050   29.4830   44.5040 C   0  0  0  0  0  0  0  0  0  0  0  0
   59.0240   28.0940   44.6050 C   0  0  0  0  0  0  0  0  0  0  0  0
   59.2990   27.4960   45.8440 C   0  0  0  0  0  0  0  0  0  0  0  0
   59.3860   25.9980   45.9610 C   0  0  0  0  0  0  0  0  0  0  0  0
   58.0150   25.4150   46.1670 C   0  0  0  0  0  0  0  0  0  0  0  0
   57.8600   24.0580   46.4880 C   0  0  0  0  0  0  0  0  0  0  0  0
   56.5770   23.5280   46.6390 C   0  0  0  0  0  0  0  0  0  0  0  0
   55.4870   24.3210   46.4660 N   0  0  0  0  0  0  0  0  0  0  0  0
   55.6050   25.6370   46.1420 C   0  0  0  0  0  0  0  0  0  0  0  0
   54.5710   26.3380   45.9860 O   0  0  0  0  0  0  0  0  0  0  0  0
   56.8710   26.2080   45.9830 C   0  0  0  0  0  0  0  0  0  0  0  0
   59.4420   28.3050   46.9820 C   0  0  0  0  0  0  0  0  0  0  0  0
   59.3210   29.6940   46.8800 C   0  0  0  0  0  0  0  0  0  0  0  0
   57.2317   34.0832   43.9328 H   0  0  0  0  0  0  0  0  0  0  0  0
   57.1783   34.3623   45.7218 H   0  0  0  0  0  0  0  0  0  0  0  0
   59.7457   33.8307   44.1572 H   0  0  0  0  0  0  0  0  0  0  0  0
   59.1024   35.4804   44.5508 H   0  0  0  0  0  0  0  0  0  0  0  0
   58.0122   34.9844   47.2888 H   0  0  0  0  0  0  0  0  0  0  0  0
   59.0664   34.7919   49.5423 H   0  0  0  0  0  0  0  0  0  0  0  0
   61.4400   34.0489   49.7548 H   0  0  0  0  0  0  0  0  0  0  0  0
   62.7688   33.5084   47.7111 H   0  0  0  0  0  0  0  0  0  0  0  0
   61.7266   33.7093   45.4528 H   0  0  0  0  0  0  0  0  0  0  0  0
   59.8030   32.2770   45.5160 H   0  0  0  0  0  0  0  0  0  0  0  0
   58.7079   29.9444   43.5251 H   0  0  0  0  0  0  0  0  0  0  0  0
   58.9015   27.4672   43.7094 H   0  0  0  0  0  0  0  0  0  0  0  0
   59.8218   25.5858   45.0390 H   0  0  0  0  0  0  0  0  0  0  0  0
   60.0198   25.7404   46.8224 H   0  0  0  0  0  0  0  0  0  0  0  0
   58.7433   23.4159   46.6198 H   0  0  0  0  0  0  0  0  0  0  0  0
   56.4483   22.4668   46.8984 H   0  0  0  0  0  0  0  0  0  0  0  0
   56.9702   27.2704   45.7158 H   0  0  0  0  0  0  0  0  0  0  0  0
   59.6503   27.8439   47.9587 H   0  0  0  0  0  0  0  0  0  0  0  0
   59.4503   30.3218   47.7739 H   0  0  0  0  0  0  0  0  0  0  0  0
  1  2  2  0
  2  3  1  0
  3  4  1  0
  4  5  1  0
  5  6  2  0
  6  7  1  0
  7  8  2  0
  8  9  1  0
  9 10  2  0
  2 11  1  0
 11 12  1  0
 12 13  2  0
 13 14  1  0
 14 15  2  0
 15 16  1  0
 16 17  1  0
 17 18  1  0
 18 19  2  0
 19 20  1  0
 20 21  1  0
 21 22  2  0
 21 23  1  0
 15 24  1  0
 24 25  2  0
 10  5  1  0
 25 12  1  0
 23 17  2  0
  3 26  1  0
  3 27  1  0
  4 28  1  0
  4 29  1  0
  6 30  1  0
  7 31  1  0
  8 32  1  0
  9 33  1  0
 10 34  1  0
 11 35  1  0
 13 36  1  0
 14 37  1  0
 16 38  1  0
 16 39  1  0
 18 40  1  0
 19 41  1  0
 23 42  1  0
 24 43  1  0
 25 44  1  0
M  CHG  1  20  -1
M  END
>  <UniqueID>  (54) 
51

>  <SMILES>  (54) 
O=C(CCc1ccccc1)Nc1ccc(Cc2cc[n-]c(=O)c2)cc1

>  <Energy>  (54) 
44.22837464146416

>  <Genealogy>  (54) 
O=C(CCc1ccccc1)Nc1ccc(Cc2cc[n-]c(=O)c2)cc1 (protonated)
O=C(CCc1ccccc1)Nc1ccc(Cc2cc[n-]c(=O)c2)cc1 (3D coordinates assigned)
O=C(CCc1ccccc1)Nc1ccc(Cc2cc[n-]c(=O)c2)cc1 (optimized conformer: 44.22837464146416 kcal/mol)

>  <smiles>  (54) 
O=C(CCc1ccccc1)Nc1ccc(Cc2cc[nH]c(=O)c2)cc1

>  <score_type>  (54) 
oracle

>  <origin>  (54) 
adg

>  <m_score__min__energy>  (54) 
-10.74

>  <m_primary>  (54) 
energy

$$$$
54:0
     RDKit          3D

 59 62  0  0  0  0  0  0  0  0999 V2000
   56.6900   30.2330   45.0410 O   0  0  0  0  0  0  0  0  0  0  0  0
   58.1880   30.3500   45.0680 S   0  0  0  0  0  0  0  0  0  0  0  0
   58.6390   30.8430   43.7200 O   0  0  0  0  0  0  0  0  0  0  0  0
   58.6560   31.5240   46.2980 C   0  0  0  0  0  0  0  0  0  0  0  0
   58.8130   32.8750   45.9630 C   0  0  0  0  0  0  0  0  0  0  0  0
   59.1750   33.8060   46.9390 C   0  0  0  0  0  0  0  0  0  0  0  0
   59.3660   33.3990   48.2690 C   0  0  0  0  0  0  0  0  0  0  0  0
   59.6600   34.4210   49.3370 C   0  0  0  0  0  0  0  0  0  0  0  0
   60.1450   33.7750   50.5680 N   0  0  0  0  0  0  0  0  0  0  0  0
   61.6100   33.8460   50.7080 C   0  0  0  0  0  0  0  0  0  0  0  0
   62.2970   33.3350   49.4670 C   0  0  0  0  0  0  0  0  0  0  0  0
   62.8760   34.2290   48.5500 C   0  0  0  0  0  0  0  0  0  0  0  0
   63.4580   33.7530   47.3720 C   0  0  0  0  0  0  0  0  0  0  0  0
   63.4770   32.3810   47.1050 C   0  0  0  0  0  0  0  0  0  0  0  0
   62.9260   31.4830   48.0220 C   0  0  0  0  0  0  0  0  0  0  0  0
   62.3420   31.9550   49.2020 C   0  0  0  0  0  0  0  0  0  0  0  0
   59.2320   32.0410   48.5990 C   0  0  0  0  0  0  0  0  0  0  0  0
   58.8720   31.1110   47.6200 C   0  0  0  0  0  0  0  0  0  0  0  0
   58.8810   28.7750   45.3780 N   0  0  0  0  0  0  0  0  0  0  0  0
   58.2450   28.1390   46.5520 C   0  0  0  0  0  0  0  0  0  0  0  0
   58.3920   26.6160   46.5050 C   0  0  0  0  0  0  0  0  0  0  0  0
   57.5600   26.0390   45.3220 C   0  0  0  0  0  0  0  0  0  0  0  0
   56.1960   26.0950   45.6800 O   0  0  0  0  0  0  0  0  0  0  0  0
   57.9000   24.5750   44.9810 C   0  0  0  0  0  0  0  0  0  0  0  0
   57.0650   23.8840   44.0760 C   0  0  0  0  0  0  0  0  0  0  0  0
   57.3090   22.5480   43.7450 C   0  0  0  0  0  0  0  0  0  0  0  0
   58.3800   21.8700   44.3250 C   0  0  0  0  0  0  0  0  0  0  0  0
   59.2010   22.5220   45.2440 C   0  0  0  0  0  0  0  0  0  0  0  0
   58.9640   23.8580   45.5800 C   0  0  0  0  0  0  0  0  0  0  0  0
   57.7470   26.9440   44.0560 C   0  0  0  0  0  0  0  0  0  0  0  0
   58.9230   27.9350   44.1590 C   0  0  0  0  0  0  0  0  0  0  0  0
   58.6504   33.2042   44.9261 H   0  0  0  0  0  0  0  0  0  0  0  0
   59.3110   34.8625   46.6646 H   0  0  0  0  0  0  0  0  0  0  0  0
   60.4294   35.1152   48.9682 H   0  0  0  0  0  0  0  0  0  0  0  0
   58.7308   34.9623   49.5686 H   0  0  0  0  0  0  0  0  0  0  0  0
   59.7310   34.2990   51.3740 H   0  0  0  0  0  0  0  0  0  0  0  0
   61.9048   34.8921   50.8774 H   0  0  0  0  0  0  0  0  0  0  0  0
   61.9115   33.2178   51.5592 H   0  0  0  0  0  0  0  0  0  0  0  0
   62.8710   35.3086   48.7606 H   0  0  0  0  0  0  0  0  0  0  0  0
   63.9016   34.4587   46.6542 H   0  0  0  0  0  0  0  0  0  0  0  0
   63.9260   32.0085   46.1725 H   0  0  0  0  0  0  0  0  0  0  0  0
   62.9514   30.4028   47.8158 H   0  0  0  0  0  0  0  0  0  0  0  0
   61.9164   31.2439   49.9253 H   0  0  0  0  0  0  0  0  0  0  0  0
   59.4110   31.7078   49.6319 H   0  0  0  0  0  0  0  0  0  0  0  0
   58.7576   30.0503   47.8880 H   0  0  0  0  0  0  0  0  0  0  0  0
   58.7229   28.5174   47.4677 H   0  0  0  0  0  0  0  0  0  0  0  0
   57.1730   28.3855   46.5432 H   0  0  0  0  0  0  0  0  0  0  0  0
   59.4518   26.3561   46.3664 H   0  0  0  0  0  0  0  0  0  0  0  0
   58.0242   26.1876   47.4490 H   0  0  0  0  0  0  0  0  0  0  0  0
   55.6800   26.3930   44.8850 H   0  0  0  0  0  0  0  0  0  0  0  0
   56.2084   24.4056   43.6240 H   0  0  0  0  0  0  0  0  0  0  0  0
   56.6556   22.0315   43.0265 H   0  0  0  0  0  0  0  0  0  0  0  0
   58.5772   20.8213   44.0578 H   0  0  0  0  0  0  0  0  0  0  0  0
   60.0400   21.9821   45.7073 H   0  0  0  0  0  0  0  0  0  0  0  0
   59.6104   24.3572   46.3169 H   0  0  0  0  0  0  0  0  0  0  0  0
   57.9201   26.2915   43.1875 H   0  0  0  0  0  0  0  0  0  0  0  0
   56.8319   27.5467   43.9589 H   0  0  0  0  0  0  0  0  0  0  0  0
   59.8621   27.3621   44.1628 H   0  0  0  0  0  0  0  0  0  0  0  0
   58.8522   28.6129   43.2956 H   0  0  0  0  0  0  0  0  0  0  0  0
  1  2  2  0
  2  3  2  0
  2  4  1  0
  4  5  2  0
  5  6  1  0
  6  7  2  0
  7  8  1  0
  8  9  1  0
  9 10  1  0
 10 11  1  0
 11 12  2  0
 12 13  1  0
 13 14  2  0
 14 15  1  0
 15 16  2  0
  7 17  1  0
 17 18  2  0
  2 19  1  0
 19 20  1  0
 20 21  1  0
 21 22  1  0
 22 23  1  0
 22 24  1  0
 24 25  2  0
 25 26  1  0
 26 27  2  0
 27 28  1  0
 28 29  2  0
 22 30  1  0
 30 31  1  0
 18  4  1  0
 31 19  1  0
 16 11  1  0
 29 24  1  0
  5 32  1  0
  6 33  1  0
  8 34  1  0
  8 35  1  0
  9 36  1  0
 10 37  1  0
 10 38  1  0
 12 39  1  0
 13 40  1  0
 14 41  1  0
 15 42  1  0
 16 43  1  0
 17 44  1  0
 18 45  1  0
 20 46  1  0
 20 47  1  0
 21 48  1  0
 21 49  1  0
 23 50  1  0
 25 51  1  0
 26 52  1  0
 27 53  1  0
 28 54  1  0
 29 55  1  0
 30 56  1  0
 30 57  1  0
 31 58  1  0
 31 59  1  0
M  END
>  <UniqueID>  (55) 
52

>  <SMILES>  (55) 
O=S(=O)(c1ccc(CNCc2ccccc2)cc1)N1CCC(O)(c2ccccc2)CC1

>  <Energy>  (55) 
74.24324562221368

>  <Genealogy>  (55) 
O=S(=O)(c1ccc(CNCc2ccccc2)cc1)N1CCC(O)(c2ccccc2)CC1 (3D coordinates assigned)
O=S(=O)(c1ccc(CNCc2ccccc2)cc1)N1CCC(O)(c2ccccc2)CC1 (nonaromatic ring conformer: 74.24324562221368 kcal/mol)

>  <smiles>  (55) 
O=S(=O)(c1ccc(CNCc2ccccc2)cc1)N1CCC(O)(c2ccccc2)CC1

>  <score_type>  (55) 
oracle

>  <origin>  (55) 
adg

>  <m_score__min__energy>  (55) 
-9.3900000000000006

>  <m_primary>  (55) 
energy

$$$$
55:0
     RDKit          3D

 35 37  0  0  0  0  0  0  0  0999 V2000
   59.2020   29.9510   48.2760 O   0  0  0  0  0  0  0  0  0  0  0  0
   59.4970   29.3780   47.1930 C   0  0  0  0  0  0  0  0  0  0  0  0
   59.6450   30.1860   45.9440 C   0  0  0  0  0  0  0  0  0  0  0  0
   58.4650   29.9540   45.0370 C   0  0  0  0  0  0  0  0  0  0  0  0
   58.4660   28.8500   44.1680 C   0  0  0  0  0  0  0  0  0  0  0  0
   57.3970   28.6350   43.2960 C   0  0  0  0  0  0  0  0  0  0  0  0
   56.3230   29.5240   43.2750 C   0  0  0  0  0  0  0  0  0  0  0  0
   56.3150   30.6350   44.1210 C   0  0  0  0  0  0  0  0  0  0  0  0
   57.3870   30.8660   45.0070 C   0  0  0  0  0  0  0  0  0  0  0  0
   57.4200   31.9820   45.8630 O   0  0  0  0  0  0  0  0  0  0  0  0
   57.8470   33.2920   45.5000 C   0  0  0  0  0  0  0  0  0  0  0  0
   57.8150   34.1270   46.6030 F   0  0  0  0  0  0  0  0  0  0  0  0
   59.1440   33.2260   45.0300 F   0  0  0  0  0  0  0  0  0  0  0  0
   57.0370   33.7980   44.5000 F   0  0  0  0  0  0  0  0  0  0  0  0
   59.6780   27.9580   47.1380 N   0  0  0  0  0  0  0  0  0  0  0  0
   58.7230   26.9960   46.6670 C   0  0  0  0  0  0  0  0  0  0  0  0
   59.1850   25.7080   46.3020 C   0  0  0  0  0  0  0  0  0  0  0  0
   58.2890   24.7190   45.8580 C   0  0  0  0  0  0  0  0  0  0  0  0
   56.9380   25.0520   45.8050 C   0  0  0  0  0  0  0  0  0  0  0  0
   55.9070   24.2850   45.4320 N   0  0  0  0  0  0  0  0  0  0  0  0
   54.8370   25.0980   45.5950 C   0  0  0  0  0  0  0  0  0  0  0  0
   53.6580   24.7340   45.3450 O   0  0  0  0  0  0  0  0  0  0  0  0
   55.1390   26.3410   46.0510 N   0  0  0  0  0  0  0  0  0  0  0  0
   56.4790   26.2820   46.1720 C   0  0  0  0  0  0  0  0  0  0  0  0
   57.3370   27.2850   46.6170 C   0  0  0  0  0  0  0  0  0  0  0  0
   59.6995   31.2532   46.2050 H   0  0  0  0  0  0  0  0  0  0  0  0
   60.5652   29.8814   45.4240 H   0  0  0  0  0  0  0  0  0  0  0  0
   59.3147   28.1503   44.1747 H   0  0  0  0  0  0  0  0  0  0  0  0
   57.4021   27.7634   42.6249 H   0  0  0  0  0  0  0  0  0  0  0  0
   55.4799   29.3497   42.5903 H   0  0  0  0  0  0  0  0  0  0  0  0
   55.4665   31.3346   44.0959 H   0  0  0  0  0  0  0  0  0  0  0  0
   60.2588   25.4781   46.3666 H   0  0  0  0  0  0  0  0  0  0  0  0
   58.6423   23.7197   45.5636 H   0  0  0  0  0  0  0  0  0  0  0  0
   55.9230   23.2940   45.1030 H   0  0  0  0  0  0  0  0  0  0  0  0
   56.9509   28.2695   46.9198 H   0  0  0  0  0  0  0  0  0  0  0  0
  1  2  2  0
  2  3  1  0
  3  4  1  0
  4  5  2  0
  5  6  1  0
  6  7  2  0
  7  8  1  0
  8  9  2  0
  9 10  1  0
 10 11  1  0
 11 12  1  0
 11 13  1  0
 11 14  1  0
  2 15  1  0
 15 16  1  0
 16 17  2  0
 17 18  1  0
 18 19  2  0
 19 20  1  0
 20 21  1  0
 21 22  2  0
 21 23  1  0
 23 24  1  0
 24 25  2  0
  9  4  1  0
 25 16  1  0
 24 19  1  0
  3 26  1  0
  3 27  1  0
  5 28  1  0
  6 29  1  0
  7 30  1  0
  8 31  1  0
 17 32  1  0
 18 33  1  0
 20 34  1  0
 25 35  1  0
M  CHG  2  15  -1  23  -1
M  END
>  <UniqueID>  (56) 
53

>  <SMILES>  (56) 
O=C(Cc1ccccc1OC(F)(F)F)[N-]c1ccc2[nH]c(=O)[n-]c2c1

>  <Energy>  (56) 
76.69236407520917

>  <Genealogy>  (56) 
O=C(Cc1ccccc1OC(F)(F)F)[N-]c1ccc2[nH]c(=O)[n-]c2c1 (protonated)
O=C(Cc1ccccc1OC(F)(F)F)[N-]c1ccc2[nH]c(=O)[n-]c2c1 (3D coordinates assigned)
O=C(Cc1ccccc1OC(F)(F)F)[N-]c1ccc2[nH]c(=O)[n-]c2c1 (optimized conformer: 76.69236407520917 kcal/mol)

>  <smiles>  (56) 
O=C(Cc1ccccc1OC(F)(F)F)Nc1ccc2[nH]c(=O)[nH]c2c1

>  <score_type>  (56) 
oracle

>  <origin>  (56) 
adg

>  <m_score__min__energy>  (56) 
-10.16

>  <m_primary>  (56) 
energy

$$$$
56:0
     RDKit          3D

 51 54  0  0  0  0  0  0  0  0999 V2000
   55.9050   30.5410   44.7300 O   0  0  0  0  0  0  0  0  0  0  0  0
   57.1560   30.6850   44.6800 C   0  0  0  0  0  0  0  0  0  0  0  0
   57.9520   29.5960   44.1930 N   0  0  0  0  0  0  0  0  0  0  0  0
   58.2370   28.3740   44.8930 C   0  0  0  0  0  0  0  0  0  0  0  0
   59.0110   28.3580   46.0660 C   0  0  0  0  0  0  0  0  0  0  0  0
   59.2810   27.1500   46.7140 C   0  0  0  0  0  0  0  0  0  0  0  0
   58.7980   25.9490   46.1880 C   0  0  0  0  0  0  0  0  0  0  0  0
   58.0410   25.9480   45.0060 C   0  0  0  0  0  0  0  0  0  0  0  0
   57.5640   24.6510   44.4100 C   0  0  0  0  0  0  0  0  0  0  0  0
   56.1150   24.4160   44.7570 C   0  0  0  0  0  0  0  0  0  0  0  0
   55.4560   25.2730   45.6480 C   0  0  0  0  0  0  0  0  0  0  0  0
   54.1410   25.0850   45.9310 N   0  0  0  0  0  0  0  0  0  0  0  0
   53.4400   24.0760   45.3530 C   0  0  0  0  0  0  0  0  0  0  0  0
   52.2220   23.9220   45.6240 O   0  0  0  0  0  0  0  0  0  0  0  0
   54.0510   23.2370   44.4770 N   0  0  0  0  0  0  0  0  0  0  0  0
   55.3650   23.3840   44.1650 C   0  0  0  0  0  0  0  0  0  0  0  0
   55.8960   22.5880   43.3450 O   0  0  0  0  0  0  0  0  0  0  0  0
   57.7760   27.1650   44.3570 C   0  0  0  0  0  0  0  0  0  0  0  0
   57.7610   31.9410   45.1820 C   0  0  0  0  0  0  0  0  0  0  0  0
   57.7600   33.1050   44.3930 C   0  0  0  0  0  0  0  0  0  0  0  0
   58.3320   34.2850   44.8760 C   0  0  0  0  0  0  0  0  0  0  0  0
   58.9240   34.3110   46.1410 C   0  0  0  0  0  0  0  0  0  0  0  0
   58.9480   33.1540   46.9300 C   0  0  0  0  0  0  0  0  0  0  0  0
   59.6860   33.1700   48.5310 S   0  0  0  0  0  0  0  0  0  0  0  0
   59.9420   34.6000   48.9190 O   0  0  0  0  0  0  0  0  0  0  0  0
   58.7520   32.5570   49.5380 O   0  0  0  0  0  0  0  0  0  0  0  0
   61.1980   32.2860   48.4900 N   0  0  0  0  0  0  0  0  0  0  0  0
   62.2340   33.0040   49.2400 C   0  0  0  0  0  0  0  0  0  0  0  0
   63.0270   33.8590   48.2610 C   0  0  0  0  0  0  0  0  0  0  0  0
   62.6410   33.3650   46.8790 C   0  0  0  0  0  0  0  0  0  0  0  0
   61.7000   32.1950   47.1160 C   0  0  0  0  0  0  0  0  0  0  0  0
   58.3660   31.9730   46.4490 C   0  0  0  0  0  0  0  0  0  0  0  0
   59.4055   29.2997   46.4753 H   0  0  0  0  0  0  0  0  0  0  0  0
   59.8749   27.1444   47.6399 H   0  0  0  0  0  0  0  0  0  0  0  0
   59.0119   25.0004   46.7023 H   0  0  0  0  0  0  0  0  0  0  0  0
   57.6729   24.6927   43.3162 H   0  0  0  0  0  0  0  0  0  0  0  0
   58.1675   23.8268   44.8180 H   0  0  0  0  0  0  0  0  0  0  0  0
   56.0054   26.1009   46.1200 H   0  0  0  0  0  0  0  0  0  0  0  0
   57.2011   27.1686   43.4192 H   0  0  0  0  0  0  0  0  0  0  0  0
   57.3068   33.0866   43.3909 H   0  0  0  0  0  0  0  0  0  0  0  0
   58.3160   35.1953   44.2587 H   0  0  0  0  0  0  0  0  0  0  0  0
   59.3722   35.2420   46.5182 H   0  0  0  0  0  0  0  0  0  0  0  0
   61.7652   33.6465   49.9999 H   0  0  0  0  0  0  0  0  0  0  0  0
   62.9004   32.2892   49.7450 H   0  0  0  0  0  0  0  0  0  0  0  0
   62.7622   34.9204   48.3768 H   0  0  0  0  0  0  0  0  0  0  0  0
   64.1101   33.7760   48.4342 H   0  0  0  0  0  0  0  0  0  0  0  0
   62.1318   34.1601   46.3146 H   0  0  0  0  0  0  0  0  0  0  0  0
   63.5216   33.0686   46.2901 H   0  0  0  0  0  0  0  0  0  0  0  0
   60.8595   32.2430   46.4080 H   0  0  0  0  0  0  0  0  0  0  0  0
   62.2302   31.2429   46.9661 H   0  0  0  0  0  0  0  0  0  0  0  0
   58.3833   31.0643   47.0687 H   0  0  0  0  0  0  0  0  0  0  0  0
  1  2  2  0
  2  3  1  0
  3  4  1  0
  4  5  2  0
  5  6  1  0
  6  7  2  0
  7  8  1  0
  8  9  1  0
  9 10  1  0
 10 11  2  0
 11 12  1  0
 12 13  1  0
 13 14  2  0
 13 15  1  0
 15 16  1  0
 16 17  2  0
  8 18  2  0
  2 19  1  0
 19 20  2  0
 20 21  1  0
 21 22  2  0
 22 23  1  0
 23 24  1  0
 24 25  2  0
 24 26  2  0
 24 27  1  0
 27 28  1  0
 28 29  1  0
 29 30  1  0
 30 31  1  0
 23 32  2  0
 18  4  1  0
 32 19  1  0
 16 10  1  0
 31 27  1  0
  5 33  1  0
  6 34  1  0
  7 35  1  0
  9 36  1  0
  9 37  1  0
 11 38  1  0
 18 39  1  0
 20 40  1  0
 21 41  1  0
 22 42  1  0
 28 43  1  0
 28 44  1  0
 29 45  1  0
 29 46  1  0
 30 47  1  0
 30 48  1  0
 31 49  1  0
 31 50  1  0
 32 51  1  0
M  CHG  3   3  -1  12  -1  15  -1
M  END
>  <UniqueID>  (57) 
54

>  <SMILES>  (57) 
O=C([N-]c1cccc(Cc2c[n-]c(=O)[n-]c2=O)c1)c1cccc(S(=O)(=O)N2CCCC2)c1

>  <Energy>  (57) 
63.037062020501544

>  <Genealogy>  (57) 
O=C([N-]c1cccc(Cc2c[n-]c(=O)[n-]c2=O)c1)c1cccc(S(=O)(=O)N2CCCC2)c1 (protonated)
O=C([N-]c1cccc(Cc2c[n-]c(=O)[n-]c2=O)c1)c1cccc(S(=O)(=O)N2CCCC2)c1 (3D coordinates assigned)
O=C([N-]c1cccc(Cc2c[n-]c(=O)[n-]c2=O)c1)c1cccc(S(=O)(=O)N2CCCC2)c1 (nonaromatic ring conformer: 63.037062020501544 kcal/mol)

>  <smiles>  (57) 
O=C(Nc1cccc(Cc2c[nH]c(=O)[nH]c2=O)c1)c1cccc(S(=O)(=O)N2CCCC2)c1

>  <score_type>  (57) 
oracle

>  <origin>  (57) 
adg

>  <m_score__min__energy>  (57) 
-16.300000000000001

>  <m_primary>  (57) 
energy

$$$$
57:0
     RDKit          3D

 45 47  0  0  0  0  0  0  0  0999 V2000
   58.0730   29.8960   46.2810 C   0  0  0  0  0  0  0  0  0  0  0  0
   57.9490   30.9010   45.1760 C   0  0  0  0  0  0  0  0  0  0  0  0
   57.5390   30.5310   43.8840 C   0  0  0  0  0  0  0  0  0  0  0  0
   57.4160   31.5980   43.0050 C   0  0  0  0  0  0  0  0  0  0  0  0
   57.8230   33.0030   43.8280 S   0  0  0  0  0  0  0  0  0  0  0  0
   58.1800   32.2780   45.3050 C   0  0  0  0  0  0  0  0  0  0  0  0
   58.6230   33.0380   46.4930 C   0  0  0  0  0  0  0  0  0  0  0  0
   57.7980   33.1990   47.4350 O   0  0  0  0  0  0  0  0  0  0  0  0
   59.9010   33.7240   46.5280 N   0  0  2  0  0  0  0  0  0  0  0  0
   60.9940   32.7520   46.7870 C   0  0  0  0  0  0  0  0  0  0  0  0
   60.5920   31.6190   47.7470 C   0  0  0  0  0  0  0  0  0  0  0  0
   60.2390   32.1450   49.1480 C   0  0  0  0  0  0  0  0  0  0  0  0
   60.6830   33.5390   49.3560 N   0  0  0  0  0  0  0  0  0  0  0  0
   61.0560   33.7410   50.7720 C   0  0  0  0  0  0  0  0  0  0  0  0
   59.9050   33.3960   51.6690 C   0  0  0  0  0  0  0  0  0  0  0  0
   58.8420   34.2060   52.0170 C   0  0  0  0  0  0  0  0  0  0  0  0
   58.0090   33.5160   52.8240 N   0  0  0  0  0  0  0  0  0  0  0  0
   58.5290   32.3100   52.9970 N   0  0  0  0  0  0  0  0  0  0  0  0
   57.8830   31.2500   53.7590 C   0  0  0  0  0  0  0  0  0  0  0  0
   59.6730   32.1940   52.3000 C   0  0  0  0  0  0  0  0  0  0  0  0
   59.6450   34.5110   48.9430 C   0  0  0  0  0  0  0  0  0  0  0  0
   59.8280   34.8830   47.4580 C   0  0  0  0  0  0  0  0  0  0  0  0
   58.0097   30.4090   47.2520 H   0  0  0  0  0  0  0  0  0  0  0  0
   57.2588   29.1607   46.2010 H   0  0  0  0  0  0  0  0  0  0  0  0
   59.0415   29.3807   46.2010 H   0  0  0  0  0  0  0  0  0  0  0  0
   57.3340   29.4896   43.5952 H   0  0  0  0  0  0  0  0  0  0  0  0
   57.1056   31.5340   41.9516 H   0  0  0  0  0  0  0  0  0  0  0  0
   60.0800   34.1300   45.5820 H   0  0  0  0  0  0  0  0  0  0  0  0
   61.2972   32.3053   45.8286 H   0  0  0  0  0  0  0  0  0  0  0  0
   61.8140   33.3069   47.2662 H   0  0  0  0  0  0  0  0  0  0  0  0
   59.7164   31.0975   47.3331 H   0  0  0  0  0  0  0  0  0  0  0  0
   61.4512   30.9395   47.8472 H   0  0  0  0  0  0  0  0  0  0  0  0
   59.1476   32.0990   49.2777 H   0  0  0  0  0  0  0  0  0  0  0  0
   60.7599   31.5144   49.8835 H   0  0  0  0  0  0  0  0  0  0  0  0
   61.9127   33.0959   51.0169 H   0  0  0  0  0  0  0  0  0  0  0  0
   61.3232   34.7972   50.9239 H   0  0  0  0  0  0  0  0  0  0  0  0
   58.6975   35.2460   51.6892 H   0  0  0  0  0  0  0  0  0  0  0  0
   58.0027   31.4465   54.8347 H   0  0  0  0  0  0  0  0  0  0  0  0
   56.8123   31.2189   53.5089 H   0  0  0  0  0  0  0  0  0  0  0  0
   58.3461   30.2841   53.5089 H   0  0  0  0  0  0  0  0  0  0  0  0
   60.3099   31.2989   52.2438 H   0  0  0  0  0  0  0  0  0  0  0  0
   58.6503   34.0637   49.0861 H   0  0  0  0  0  0  0  0  0  0  0  0
   59.7386   35.4197   49.5558 H   0  0  0  0  0  0  0  0  0  0  0  0
   58.9773   35.5112   47.1554 H   0  0  0  0  0  0  0  0  0  0  0  0
   60.7967   35.3991   47.3856 H   0  0  0  0  0  0  0  0  0  0  0  0
  1  2  1  0
  2  3  1  0
  3  4  2  0
  4  5  1  0
  5  6  1  0
  6  7  1  0
  7  8  2  0
  7  9  1  0
  9 10  1  0
 10 11  1  0
 11 12  1  0
 12 13  1  0
 13 14  1  0
 14 15  1  0
 15 16  1  0
 16 17  2  0
 17 18  1  0
 18 19  1  0
 18 20  1  0
 13 21  1  0
 21 22  1  0
  6  2  2  0
 22  9  1  0
 20 15  2  0
  1 23  1  0
  1 24  1  0
  1 25  1  0
  3 26  1  0
  4 27  1  0
  9 28  1  6
 10 29  1  0
 10 30  1  0
 11 31  1  0
 11 32  1  0
 12 33  1  0
 12 34  1  0
 14 35  1  0
 14 36  1  0
 16 37  1  0
 19 38  1  0
 19 39  1  0
 19 40  1  0
 20 41  1  0
 21 42  1  0
 21 43  1  0
 22 44  1  0
 22 45  1  0
M  CHG  1   9   1
M  END
>  <UniqueID>  (58) 
55

>  <SMILES>  (58) 
Cc1ccsc1C(=O)[N@@H+]1CCCN(Cc2cnn(C)c2)CC1

>  <Energy>  (58) 
117.49361233668925

>  <Genealogy>  (58) 
Cc1ccsc1C(=O)[NH+]1CCCN(Cc2cnn(C)c2)CC1 (protonated)
Cc1ccsc1C(=O)[N@@H+]1CCCN(Cc2cnn(C)c2)CC1 (chirality)
Cc1ccsc1C(=O)[N@@H+]1CCCN(Cc2cnn(C)c2)CC1 (3D coordinates assigned)
Cc1ccsc1C(=O)[N@@H+]1CCCN(Cc2cnn(C)c2)CC1 (nonaromatic ring conformer: 117.49361233668925 kcal/mol)

>  <smiles>  (58) 
Cc1ccsc1C(=O)N1CCCN(Cc2cnn(C)c2)CC1

>  <score_type>  (58) 
oracle

>  <origin>  (58) 
adg

>  <m_score__min__energy>  (58) 
-3.5

>  <m_primary>  (58) 
energy

$$$$
58:0
     RDKit          3D

 45 47  0  0  0  0  0  0  0  0999 V2000
   60.4690   30.4000   50.6490 O   0  0  0  0  0  0  0  0  0  0  0  0
   59.7310   30.5270   49.6380 C   0  0  0  0  0  0  0  0  0  0  0  0
   58.8880   31.7670   49.4930 C   0  0  0  0  0  0  0  0  0  0  0  0
   59.7980   33.2720   49.9950 S   0  0  0  0  0  0  0  0  0  0  0  0
   61.1610   33.0180   48.8550 C   0  0  0  0  0  0  0  0  0  0  0  0
   61.2520   33.7900   47.6910 C   0  0  0  0  0  0  0  0  0  0  0  0
   62.3250   33.5900   46.8210 C   0  0  0  0  0  0  0  0  0  0  0  0
   63.2880   32.6240   47.1170 C   0  0  0  0  0  0  0  0  0  0  0  0
   63.1590   31.8650   48.2840 C   0  0  0  0  0  0  0  0  0  0  0  0
   62.1070   32.0730   49.1220 N   0  0  0  0  0  0  0  0  0  0  0  0
   59.5770   29.4060   48.7570 N   0  0  0  0  0  0  0  0  0  0  0  0
   59.5520   29.4480   47.3250 C   0  0  0  0  0  0  0  0  0  0  0  0
   60.5060   28.7630   46.5570 C   0  0  0  0  0  0  0  0  0  0  0  0
   60.4360   28.7840   45.1630 C   0  0  0  0  0  0  0  0  0  0  0  0
   59.4020   29.4720   44.5240 C   0  0  0  0  0  0  0  0  0  0  0  0
   58.4290   30.1390   45.2810 C   0  0  0  0  0  0  0  0  0  0  0  0
   57.1020   30.9660   44.4670 S   0  0  0  0  0  0  0  0  0  0  0  0
   55.8080   30.3080   44.8600 O   0  0  0  0  0  0  0  0  0  0  0  0
   57.2640   30.8530   42.9760 O   0  0  0  0  0  0  0  0  0  0  0  0
   57.0710   32.6480   44.9400 N   0  0  0  0  0  0  0  0  0  0  0  0
   57.3970   32.7740   46.3730 C   0  0  0  0  0  0  0  0  0  0  0  0
   57.8810   34.1980   46.6960 C   0  0  0  0  0  0  0  0  0  0  0  0
   59.0430   34.5960   45.9800 O   0  0  0  0  0  0  0  0  0  0  0  0
   59.2600   33.8590   44.7850 C   0  0  0  0  0  0  0  0  0  0  0  0
   57.9540   33.4610   44.0730 C   0  0  0  0  0  0  0  0  0  0  0  0
   58.4980   30.1100   46.6810 C   0  0  0  0  0  0  0  0  0  0  0  0
   58.5840   31.8695   48.4408 H   0  0  0  0  0  0  0  0  0  0  0  0
   58.0121   31.6628   50.1502 H   0  0  0  0  0  0  0  0  0  0  0  0
   60.4861   34.5463   47.4643 H   0  0  0  0  0  0  0  0  0  0  0  0
   62.4114   34.1921   45.9045 H   0  0  0  0  0  0  0  0  0  0  0  0
   64.1392   32.4616   46.4394 H   0  0  0  0  0  0  0  0  0  0  0  0
   63.9095   31.0979   48.5254 H   0  0  0  0  0  0  0  0  0  0  0  0
   62.0310   31.4980   49.9910 H   0  0  0  0  0  0  0  0  0  0  0  0
   61.3131   28.2066   47.0560 H   0  0  0  0  0  0  0  0  0  0  0  0
   61.1962   28.2580   44.5669 H   0  0  0  0  0  0  0  0  0  0  0  0
   59.3512   29.4904   43.4253 H   0  0  0  0  0  0  0  0  0  0  0  0
   56.4988   32.5539   46.9686 H   0  0  0  0  0  0  0  0  0  0  0  0
   58.1999   32.0630   46.6174 H   0  0  0  0  0  0  0  0  0  0  0  0
   57.0699   34.9008   46.4549 H   0  0  0  0  0  0  0  0  0  0  0  0
   58.1494   34.2058   47.7627 H   0  0  0  0  0  0  0  0  0  0  0  0
   59.8591   34.4749   44.0982 H   0  0  0  0  0  0  0  0  0  0  0  0
   59.7773   32.9290   45.0635 H   0  0  0  0  0  0  0  0  0  0  0  0
   57.4178   34.3753   43.7789 H   0  0  0  0  0  0  0  0  0  0  0  0
   58.2190   32.8532   43.1953 H   0  0  0  0  0  0  0  0  0  0  0  0
   57.7204   30.6097   47.2773 H   0  0  0  0  0  0  0  0  0  0  0  0
  1  2  2  0
  2  3  1  0
  3  4  1  0
  4  5  1  0
  5  6  2  0
  6  7  1  0
  7  8  2  0
  8  9  1  0
  9 10  2  0
  2 11  1  0
 11 12  1  0
 12 13  2  0
 13 14  1  0
 14 15  2  0
 15 16  1  0
 16 17  1  0
 17 18  2  0
 17 19  2  0
 17 20  1  0
 20 21  1  0
 21 22  1  0
 22 23  1  0
 23 24  1  0
 24 25  1  0
 16 26  2  0
 10  5  1  0
 26 12  1  0
 25 20  1  0
  3 27  1  0
  3 28  1  0
  6 29  1  0
  7 30  1  0
  8 31  1  0
  9 32  1  0
 10 33  1  0
 13 34  1  0
 14 35  1  0
 15 36  1  0
 21 37  1  0
 21 38  1  0
 22 39  1  0
 22 40  1  0
 24 41  1  0
 24 42  1  0
 25 43  1  0
 25 44  1  0
 26 45  1  0
M  CHG  2  10   1  11  -1
M  END
>  <UniqueID>  (59) 
56

>  <SMILES>  (59) 
O=C(CSc1cccc[nH+]1)[N-]c1cccc(S(=O)(=O)N2CCOCC2)c1

>  <Energy>  (59) 
58.69963717902391

>  <Genealogy>  (59) 
O=C(CSc1cccc[nH+]1)[N-]c1cccc(S(=O)(=O)N2CCOCC2)c1 (protonated)
O=C(CSc1cccc[nH+]1)[N-]c1cccc(S(=O)(=O)N2CCOCC2)c1 (3D coordinates assigned)
O=C(CSc1cccc[nH+]1)[N-]c1cccc(S(=O)(=O)N2CCOCC2)c1 (nonaromatic ring conformer: 58.69963717902391 kcal/mol)

>  <smiles>  (59) 
O=C(CSc1ccccn1)Nc1cccc(S(=O)(=O)N2CCOCC2)c1

>  <score_type>  (59) 
oracle

>  <origin>  (59) 
adg

>  <m_score__min__energy>  (59) 
-10.17

>  <m_primary>  (59) 
energy

$$$$
59:0
     RDKit          3D

 33 34  0  0  0  0  0  0  0  0999 V2000
   58.5220   31.2000   47.2000 C   0  0  0  0  0  0  0  0  0  0  0  0
   58.2820   31.6000   45.7700 C   0  0  0  0  0  0  0  0  0  0  0  0
   58.3620   32.9590   45.4190 C   0  0  0  0  0  0  0  0  0  0  0  0
   58.0940   33.3730   44.1120 C   0  0  0  0  0  0  0  0  0  0  0  0
   57.7430   32.4350   43.1400 C   0  0  0  0  0  0  0  0  0  0  0  0
   57.6780   31.0790   43.4670 C   0  0  0  0  0  0  0  0  0  0  0  0
   57.9760   30.6460   44.7670 C   0  0  0  0  0  0  0  0  0  0  0  0
   57.9100   29.2440   45.0500 N   0  0  0  0  0  0  0  0  0  0  0  0
   56.6900   28.5330   45.2790 C   0  0  0  0  0  0  0  0  0  0  0  0
   55.5880   29.0140   44.9020 O   0  0  0  0  0  0  0  0  0  0  0  0
   56.7300   27.1970   45.9400 C   0  0  0  0  0  0  0  0  0  0  0  0
   55.4180   26.6470   45.9470 O   0  0  0  0  0  0  0  0  0  0  0  0
   55.1680   25.2790   45.8100 C   0  0  0  0  0  0  0  0  0  0  0  0
   53.9910   24.8610   45.6420 O   0  0  0  0  0  0  0  0  0  0  0  0
   56.3000   24.3370   45.8630 C   0  0  0  0  0  0  0  0  0  0  0  0
   57.4260   24.1540   44.6230 S   0  0  0  0  0  0  0  0  0  0  0  0
   58.2930   22.9790   45.4490 C   0  0  0  0  0  0  0  0  0  0  0  0
   59.6300   22.2420   44.8720 S   0  0  0  0  0  0  0  0  0  0  0  0
   57.7580   22.7080   46.6570 N   0  0  0  0  0  0  0  0  0  0  0  0
   56.6480   23.4580   46.8990 C   0  0  0  0  0  0  0  0  0  0  0  0
   55.8920   23.3190   48.1830 C   0  0  0  0  0  0  0  0  0  0  0  0
   58.0732   31.9479   47.8702 H   0  0  0  0  0  0  0  0  0  0  0  0
   58.0640   30.2177   47.3878 H   0  0  0  0  0  0  0  0  0  0  0  0
   59.6043   31.1419   47.3878 H   0  0  0  0  0  0  0  0  0  0  0  0
   58.6382   33.7032   46.1805 H   0  0  0  0  0  0  0  0  0  0  0  0
   58.1597   34.4390   43.8487 H   0  0  0  0  0  0  0  0  0  0  0  0
   57.5173   32.7643   42.1150 H   0  0  0  0  0  0  0  0  0  0  0  0
   57.3910   30.3453   42.6994 H   0  0  0  0  0  0  0  0  0  0  0  0
   57.4068   26.5306   45.3852 H   0  0  0  0  0  0  0  0  0  0  0  0
   57.0954   27.3026   46.9721 H   0  0  0  0  0  0  0  0  0  0  0  0
   56.5819   23.4459   49.0303 H   0  0  0  0  0  0  0  0  0  0  0  0
   55.1068   24.0878   48.2313 H   0  0  0  0  0  0  0  0  0  0  0  0
   55.4316   22.3212   48.2313 H   0  0  0  0  0  0  0  0  0  0  0  0
  1  2  1  0
  2  3  2  0
  3  4  1  0
  4  5  2  0
  5  6  1  0
  6  7  2  0
  7  8  1  0
  8  9  1  0
  9 10  2  0
  9 11  1  0
 11 12  1  0
 12 13  1  0
 13 14  2  0
 13 15  1  0
 15 16  1  0
 16 17  1  0
 17 18  2  0
 17 19  1  0
 19 20  1  0
 20 21  1  0
  7  2  1  0
 20 15  2  0
  1 22  1  0
  1 23  1  0
  1 24  1  0
  3 25  1  0
  4 26  1  0
  5 27  1  0
  6 28  1  0
 11 29  1  0
 11 30  1  0
 21 31  1  0
 21 32  1  0
 21 33  1  0
M  CHG  2   8  -1  19  -1
M  END
>  <UniqueID>  (60) 
57

>  <SMILES>  (60) 
Cc1ccccc1[N-]C(=O)COC(=O)c1sc(=S)[n-]c1C

>  <Energy>  (60) 
65.37138501790243

>  <Genealogy>  (60) 
Cc1ccccc1[N-]C(=O)COC(=O)c1sc(=S)[n-]c1C (protonated)
Cc1ccccc1[N-]C(=O)COC(=O)c1sc(=S)[n-]c1C (3D coordinates assigned)
Cc1ccccc1[N-]C(=O)COC(=O)c1sc(=S)[n-]c1C (optimized conformer: 65.37138501790243 kcal/mol)

>  <smiles>  (60) 
Cc1ccccc1NC(=O)COC(=O)c1sc(=S)[nH]c1C

>  <score_type>  (60) 
oracle

>  <origin>  (60) 
adg

>  <m_score__min__energy>  (60) 
-9.8499999999999996

>  <m_primary>  (60) 
energy

$$$$
60:0
     RDKit          3D

 63 66  0  0  0  0  0  0  0  0999 V2000
   60.1380   32.2000   50.8680 O   0  0  0  0  0  0  0  0  0  0  0  0
   59.1670   31.8130   50.1630 C   0  0  0  0  0  0  0  0  0  0  0  0
   58.1250   31.0220   50.7520 N   0  0  0  0  0  0  0  0  0  0  0  0
   56.8660   31.5650   51.2520 C   0  0  0  0  0  0  0  0  0  0  0  0
   56.0720   30.5130   52.0380 C   0  0  0  0  0  0  0  0  0  0  0  0
   54.7960   31.0350   52.5170 N   0  0  0  0  0  0  0  0  0  0  0  0
   53.6070   31.0970   51.7170 C   0  0  0  0  0  0  0  0  0  0  0  0
   53.6390   30.7100   50.5170 O   0  0  0  0  0  0  0  0  0  0  0  0
   52.3390   31.5980   52.3020 C   0  0  0  0  0  0  0  0  0  0  0  0
   52.0340   31.3310   53.6470 C   0  0  0  0  0  0  0  0  0  0  0  0
   50.8240   31.7610   54.1930 C   0  0  0  0  0  0  0  0  0  0  0  0
   49.9300   32.4730   53.3980 C   0  0  0  0  0  0  0  0  0  0  0  0
   50.2360   32.7380   52.1020 N   0  0  0  0  0  0  0  0  0  0  0  0
   51.4010   32.3260   51.5360 C   0  0  0  0  0  0  0  0  0  0  0  0
   51.6300   32.6100   50.3290 O   0  0  0  0  0  0  0  0  0  0  0  0
   59.0980   32.1960   48.7350 C   0  0  0  0  0  0  0  0  0  0  0  0
   59.6490   33.4070   48.2890 C   0  0  0  0  0  0  0  0  0  0  0  0
   59.5990   33.7510   46.9360 C   0  0  0  0  0  0  0  0  0  0  0  0
   58.9870   32.9020   46.0170 C   0  0  0  0  0  0  0  0  0  0  0  0
   58.4030   31.6980   46.4400 C   0  0  0  0  0  0  0  0  0  0  0  0
   57.6760   30.8320   45.4840 C   0  0  0  0  0  0  0  0  0  0  0  0
   56.6510   31.2650   44.8940 O   0  0  0  0  0  0  0  0  0  0  0  0
   58.1580   29.5060   45.2280 N   0  0  0  0  0  0  0  0  0  0  0  0
   57.8000   28.2660   45.8630 C   0  0  0  0  0  0  0  0  0  0  0  0
   58.7460   27.4260   46.4790 C   0  0  0  0  0  0  0  0  0  0  0  0
   58.3480   26.1960   47.0070 C   0  0  0  0  0  0  0  0  0  0  0  0
   57.0260   25.7660   46.8730 C   0  0  0  0  0  0  0  0  0  0  0  0
   56.0890   26.5620   46.2090 C   0  0  0  0  0  0  0  0  0  0  0  0
   54.7740   26.0340   45.9880 N   0  0  0  0  0  0  0  0  0  0  0  0
   54.4350   24.4070   45.4820 S   0  0  0  0  0  0  0  0  0  0  0  0
   52.9550   24.1540   45.4590 O   0  0  0  0  0  0  0  0  0  0  0  0
   55.0590   23.4730   46.4820 O   0  0  0  0  0  0  0  0  0  0  0  0
   55.1690   24.0490   43.8860 C   0  0  0  0  0  0  0  0  0  0  0  0
   56.4500   23.2630   43.9990 C   0  0  0  0  0  0  0  0  0  0  0  0
   57.5170   23.7560   44.7680 C   0  0  0  0  0  0  0  0  0  0  0  0
   58.7210   23.0530   44.8460 C   0  0  0  0  0  0  0  0  0  0  0  0
   58.8730   21.8510   44.1510 C   0  0  0  0  0  0  0  0  0  0  0  0
   57.8210   21.3500   43.3820 C   0  0  0  0  0  0  0  0  0  0  0  0
   56.6130   22.0520   43.3010 C   0  0  0  0  0  0  0  0  0  0  0  0
   56.4680   27.8370   45.7530 C   0  0  0  0  0  0  0  0  0  0  0  0
   55.5280   28.6910   45.1910 O   0  0  0  0  0  0  0  0  0  0  0  0
   58.4780   31.3460   47.8030 C   0  0  0  0  0  0  0  0  0  0  0  0
   57.0819   32.4173   51.9131 H   0  0  0  0  0  0  0  0  0  0  0  0
   56.2603   31.8813   50.3900 H   0  0  0  0  0  0  0  0  0  0  0  0
   55.8792   29.6509   51.3825 H   0  0  0  0  0  0  0  0  0  0  0  0
   56.6698   30.2215   52.9142 H   0  0  0  0  0  0  0  0  0  0  0  0
   52.7522   30.7806   54.2725 H   0  0  0  0  0  0  0  0  0  0  0  0
   50.5787   31.5394   55.2422 H   0  0  0  0  0  0  0  0  0  0  0  0
   48.9756   32.8209   53.8199 H   0  0  0  0  0  0  0  0  0  0  0  0
   60.1233   34.0898   49.0093 H   0  0  0  0  0  0  0  0  0  0  0  0
   60.0451   34.6968   46.5948 H   0  0  0  0  0  0  0  0  0  0  0  0
   58.9612   33.1771   44.9523 H   0  0  0  0  0  0  0  0  0  0  0  0
   59.7987   27.7381   46.5446 H   0  0  0  0  0  0  0  0  0  0  0  0
   59.0792   25.5628   47.5309 H   0  0  0  0  0  0  0  0  0  0  0  0
   56.7209   24.7959   47.2923 H   0  0  0  0  0  0  0  0  0  0  0  0
   54.4502   23.4670   43.2905 H   0  0  0  0  0  0  0  0  0  0  0  0
   55.4094   25.0098   43.4074 H   0  0  0  0  0  0  0  0  0  0  0  0
   57.4032   24.7043   45.3137 H   0  0  0  0  0  0  0  0  0  0  0  0
   59.5491   23.4456   45.4543 H   0  0  0  0  0  0  0  0  0  0  0  0
   59.8224   21.2986   44.2096 H   0  0  0  0  0  0  0  0  0  0  0  0
   57.9419   20.4013   42.8385 H   0  0  0  0  0  0  0  0  0  0  0  0
   55.7885   21.6560   42.6899 H   0  0  0  0  0  0  0  0  0  0  0  0
   58.0454   30.3931   48.1418 H   0  0  0  0  0  0  0  0  0  0  0  0
  1  2  2  0
  2  3  1  0
  3  4  1  0
  4  5  1  0
  5  6  1  0
  6  7  1  0
  7  8  2  0
  7  9  1  0
  9 10  2  0
 10 11  1  0
 11 12  2  0
 12 13  1  0
 13 14  1  0
 14 15  2  0
  2 16  1  0
 16 17  2  0
 17 18  1  0
 18 19  2  0
 19 20  1  0
 20 21  1  0
 21 22  2  0
 21 23  1  0
 23 24  1  0
 24 25  2  0
 25 26  1  0
 26 27  2  0
 27 28  1  0
 28 29  1  0
 29 30  1  0
 30 31  2  0
 30 32  2  0
 30 33  1  0
 33 34  1  0
 34 35  2  0
 35 36  1  0
 36 37  2  0
 37 38  1  0
 38 39  2  0
 28 40  2  0
 40 41  1  0
 20 42  2  0
 14  9  1  0
 42 16  1  0
 40 24  1  0
 39 34  1  0
  4 43  1  0
  4 44  1  0
  5 45  1  0
  5 46  1  0
 10 47  1  0
 11 48  1  0
 12 49  1  0
 17 50  1  0
 18 51  1  0
 19 52  1  0
 25 53  1  0
 26 54  1  0
 27 55  1  0
 33 56  1  0
 33 57  1  0
 35 58  1  0
 36 59  1  0
 37 60  1  0
 38 61  1  0
 39 62  1  0
 42 63  1  0
M  CHG  6   3  -1   6  -1  13  -1  23  -1  29  -1  41  -1
M  END
>  <UniqueID>  (61) 
58

>  <SMILES>  (61) 
O=C([N-]CC[N-]C(=O)c1ccc[n-]c1=O)c1cccc(C(=O)[N-]c2cccc([N-]S(=O)(=O)Cc3ccccc3)c2[O-])c1

>  <Energy>  (61) 
71.03921443383335

>  <Genealogy>  (61) 
O=C([N-]CC[N-]C(=O)c1ccc[n-]c1=O)c1cccc(C(=O)[N-]c2cccc([N-]S(=O)(=O)Cc3ccccc3)c2[O-])c1 (protonated)
O=C([N-]CC[N-]C(=O)c1ccc[n-]c1=O)c1cccc(C(=O)[N-]c2cccc([N-]S(=O)(=O)Cc3ccccc3)c2[O-])c1 (3D coordinates assigned)
O=C([N-]CC[N-]C(=O)c1ccc[n-]c1=O)c1cccc(C(=O)[N-]c2cccc([N-]S(=O)(=O)Cc3ccccc3)c2[O-])c1 (optimized conformer: 71.03921443383335 kcal/mol)

>  <smiles>  (61) 
O=C(NCCNC(=O)c1ccc[nH]c1=O)c1cccc(C(=O)Nc2cccc(NS(=O)(=O)Cc3ccccc3)c2O)c1

>  <score_type>  (61) 
oracle

>  <origin>  (61) 
adg

>  <m_score__min__energy>  (61) 
-23.010000000000002

>  <m_primary>  (61) 
energy

$$$$
61:0
     RDKit          3D

 60 63  0  0  0  0  0  0  0  0999 V2000
   55.5880   29.7270   44.9010 O   0  0  0  0  0  0  0  0  0  0  0  0
   56.7330   29.8910   44.4070 C   0  0  0  0  0  0  0  0  0  0  0  0
   57.3340   28.8070   43.6860 N   0  0  0  0  0  0  0  0  0  0  0  0
   58.4310   27.9840   44.1810 C   0  0  0  0  0  0  0  0  0  0  0  0
   58.8750   28.5030   45.5190 C   0  0  0  0  0  0  0  0  0  0  0  0
   58.1510   28.1810   46.6790 C   0  0  0  0  0  0  0  0  0  0  0  0
   58.5450   28.6920   47.9190 C   0  0  0  0  0  0  0  0  0  0  0  0
   59.6580   29.5390   48.0110 C   0  0  0  0  0  0  0  0  0  0  0  0
   60.1440   30.2050   49.5680 S   0  0  0  0  0  0  0  0  0  0  0  0
   61.4680   29.6150   49.9630 O   0  0  0  0  0  0  0  0  0  0  0  0
   59.1310   29.8460   50.6200 O   0  0  0  0  0  0  0  0  0  0  0  0
   60.2990   31.9320   49.4510 N   0  0  0  0  0  0  0  0  0  0  0  0
   60.4840   32.5030   50.7890 C   0  0  0  0  0  0  0  0  0  0  0  0
   61.7950   33.2910   50.8410 C   0  0  0  0  0  0  0  0  0  0  0  0
   62.0670   34.0310   49.5240 C   0  0  0  0  0  0  0  0  0  0  0  0
   63.3590   33.5980   48.9380 N   0  0  0  0  0  0  0  0  0  0  0  0
   63.4860   32.1220   48.8730 C   0  0  0  0  0  0  0  0  0  0  0  0
   62.9830   31.5460   47.5320 C   0  0  0  0  0  0  0  0  0  0  0  0
   62.0340   32.4090   46.9400 O   0  0  0  0  0  0  0  0  0  0  0  0
   62.6560   33.6180   46.5370 C   0  0  0  0  0  0  0  0  0  0  0  0
   63.6000   34.2030   47.6130 C   0  0  0  0  0  0  0  0  0  0  0  0
   60.3650   29.8810   46.8520 C   0  0  0  0  0  0  0  0  0  0  0  0
   59.9750   29.3680   45.6110 C   0  0  0  0  0  0  0  0  0  0  0  0
   57.4190   31.1840   44.6030 C   0  0  0  0  0  0  0  0  0  0  0  0
   57.7290   32.0110   43.5130 C   0  0  0  0  0  0  0  0  0  0  0  0
   58.3380   33.2100   43.7110 N   0  0  0  0  0  0  0  0  0  0  0  0
   58.6590   33.6530   44.9540 C   0  0  0  0  0  0  0  0  0  0  0  0
   59.2890   34.8930   45.1170 C   0  0  0  0  0  0  0  0  0  0  0  0
   59.6060   35.3530   46.4000 C   0  0  0  0  0  0  0  0  0  0  0  0
   59.2930   34.5790   47.5220 C   0  0  0  0  0  0  0  0  0  0  0  0
   58.6640   33.3390   47.3680 C   0  0  0  0  0  0  0  0  0  0  0  0
   58.3450   32.8690   46.0850 C   0  0  0  0  0  0  0  0  0  0  0  0
   57.7150   31.6320   45.8990 C   0  0  0  0  0  0  0  0  0  0  0  0
   58.0917   26.9428   44.2847 H   0  0  0  0  0  0  0  0  0  0  0  0
   59.2713   28.0242   43.4723 H   0  0  0  0  0  0  0  0  0  0  0  0
   57.2710   27.5245   46.6113 H   0  0  0  0  0  0  0  0  0  0  0  0
   57.9799   28.4286   48.8253 H   0  0  0  0  0  0  0  0  0  0  0  0
   61.1680   32.1190   48.8960 H   0  0  0  0  0  0  0  0  0  0  0  0
   59.6444   33.1758   51.0179 H   0  0  0  0  0  0  0  0  0  0  0  0
   60.5202   31.6896   51.5286 H   0  0  0  0  0  0  0  0  0  0  0  0
   61.7366   34.0262   51.6572 H   0  0  0  0  0  0  0  0  0  0  0  0
   62.6161   32.5786   51.0092 H   0  0  0  0  0  0  0  0  0  0  0  0
   61.2566   33.8129   48.8129 H   0  0  0  0  0  0  0  0  0  0  0  0
   62.1147   35.1109   49.7278 H   0  0  0  0  0  0  0  0  0  0  0  0
   64.5452   31.8528   48.9978 H   0  0  0  0  0  0  0  0  0  0  0  0
   62.8645   31.6965   49.6747 H   0  0  0  0  0  0  0  0  0  0  0  0
   63.8364   31.4252   46.8486 H   0  0  0  0  0  0  0  0  0  0  0  0
   62.5049   30.5739   47.7229 H   0  0  0  0  0  0  0  0  0  0  0  0
   63.2413   33.4238   45.6261 H   0  0  0  0  0  0  0  0  0  0  0  0
   61.8582   34.3555   46.3648 H   0  0  0  0  0  0  0  0  0  0  0  0
   64.6415   34.0094   47.3168 H   0  0  0  0  0  0  0  0  0  0  0  0
   63.4060   35.2831   47.6888 H   0  0  0  0  0  0  0  0  0  0  0  0
   61.2310   30.5561   46.9179 H   0  0  0  0  0  0  0  0  0  0  0  0
   60.5328   29.6438   44.7040 H   0  0  0  0  0  0  0  0  0  0  0  0
   57.4778   31.6873   42.4922 H   0  0  0  0  0  0  0  0  0  0  0  0
   59.5346   35.5052   44.2368 H   0  0  0  0  0  0  0  0  0  0  0  0
   60.1028   36.3262   46.5264 H   0  0  0  0  0  0  0  0  0  0  0  0
   59.5421   34.9463   48.5285 H   0  0  0  0  0  0  0  0  0  0  0  0
   58.4195   32.7325   48.2526 H   0  0  0  0  0  0  0  0  0  0  0  0
   57.4524   31.0120   46.7688 H   0  0  0  0  0  0  0  0  0  0  0  0
  1  2  2  0
  2  3  1  0
  3  4  1  0
  4  5  1  0
  5  6  2  0
  6  7  1  0
  7  8  2  0
  8  9  1  0
  9 10  2  0
  9 11  2  0
  9 12  1  0
 12 13  1  0
 13 14  1  0
 14 15  1  0
 15 16  1  0
 16 17  1  0
 17 18  1  0
 18 19  1  0
 19 20  1  0
 20 21  1  0
  8 22  1  0
 22 23  2  0
  2 24  1  0
 24 25  2  0
 25 26  1  0
 26 27  2  0
 27 28  1  0
 28 29  2  0
 29 30  1  0
 30 31  2  0
 31 32  1  0
 32 33  2  0
 23  5  1  0
 33 24  1  0
 21 16  1  0
 32 27  1  0
  4 34  1  0
  4 35  1  0
  6 36  1  0
  7 37  1  0
 12 38  1  0
 13 39  1  0
 13 40  1  0
 14 41  1  0
 14 42  1  0
 15 43  1  0
 15 44  1  0
 17 45  1  0
 17 46  1  0
 18 47  1  0
 18 48  1  0
 20 49  1  0
 20 50  1  0
 21 51  1  0
 21 52  1  0
 22 53  1  0
 23 54  1  0
 25 55  1  0
 28 56  1  0
 29 57  1  0
 30 58  1  0
 31 59  1  0
 33 60  1  0
M  CHG  1   3  -1
M  END
>  <UniqueID>  (62) 
59

>  <SMILES>  (62) 
O=C([N-]Cc1ccc(S(=O)(=O)NCCCN2CCOCC2)cc1)c1cnc2ccccc2c1

>  <Energy>  (62) 
75.798384604929

>  <Genealogy>  (62) 
O=C([N-]Cc1ccc(S(=O)(=O)NCCCN2CCOCC2)cc1)c1cnc2ccccc2c1 (protonated)
O=C([N-]Cc1ccc(S(=O)(=O)NCCCN2CCOCC2)cc1)c1cnc2ccccc2c1 (3D coordinates assigned)
O=C([N-]Cc1ccc(S(=O)(=O)NCCCN2CCOCC2)cc1)c1cnc2ccccc2c1 (nonaromatic ring conformer: 75.798384604929 kcal/mol)

>  <smiles>  (62) 
O=C(NCc1ccc(S(=O)(=O)NCCCN2CCOCC2)cc1)c1cnc2ccccc2c1

>  <score_type>  (62) 
oracle

>  <origin>  (62) 
adg

>  <m_score__min__energy>  (62) 
-10.58

>  <m_primary>  (62) 
energy

$$$$
62:0
     RDKit          3D

 32 33  0  0  0  0  0  0  0  0999 V2000
   58.1420   31.9540   47.4660 N   0  0  0  0  0  0  0  0  0  0  0  0
   57.9270   31.8960   46.3290 C   0  0  0  0  0  0  0  0  0  0  0  0
   57.6630   31.8230   44.9100 C   0  0  0  0  0  0  0  0  0  0  0  0
   58.2280   32.7840   44.0470 C   0  0  0  0  0  0  0  0  0  0  0  0
   59.1700   34.1380   44.6650 Cl  0  0  0  0  0  0  0  0  0  0  0  0
   58.0560   32.6670   42.6630 C   0  0  0  0  0  0  0  0  0  0  0  0
   57.3400   31.5930   42.1310 C   0  0  0  0  0  0  0  0  0  0  0  0
   56.7800   30.6370   42.9800 C   0  0  0  0  0  0  0  0  0  0  0  0
   56.9090   30.7550   44.3690 C   0  0  0  0  0  0  0  0  0  0  0  0
   56.3070   29.7470   45.1930 N   0  0  0  0  0  0  0  0  0  0  0  0
   56.7220   28.3770   45.2410 C   0  0  0  0  0  0  0  0  0  0  0  0
   55.9250   27.4790   45.6270 O   0  0  0  0  0  0  0  0  0  0  0  0
   58.0880   27.9990   44.7600 C   0  0  0  0  0  0  0  0  0  0  0  0
   59.1000   28.3060   45.7910 N   0  0  0  0  0  0  0  0  0  0  0  0
   59.8920   29.4970   45.4280 C   0  0  0  0  0  0  0  0  0  0  0  0
   60.9300   29.8070   46.5270 C   0  0  0  0  0  0  0  0  0  0  0  0
   60.7820   28.9640   47.6550 O   0  0  0  0  0  0  0  0  0  0  0  0
   59.4560   29.0490   48.1400 C   0  0  0  0  0  0  0  0  0  0  0  0
   58.4490   28.5180   47.1000 C   0  0  0  0  0  0  0  0  0  0  0  0
   58.4867   33.4244   41.9916 H   0  0  0  0  0  0  0  0  0  0  0  0
   57.2171   31.5001   41.0418 H   0  0  0  0  0  0  0  0  0  0  0  0
   56.2325   29.7834   42.5539 H   0  0  0  0  0  0  0  0  0  0  0  0
   58.1096   26.9214   44.5404 H   0  0  0  0  0  0  0  0  0  0  0  0
   58.3183   28.5746   43.8513 H   0  0  0  0  0  0  0  0  0  0  0  0
   60.4144   29.3094   44.4783 H   0  0  0  0  0  0  0  0  0  0  0  0
   59.2151   30.3577   45.3229 H   0  0  0  0  0  0  0  0  0  0  0  0
   61.9388   29.6683   46.1109 H   0  0  0  0  0  0  0  0  0  0  0  0
   60.7727   30.8443   46.8574 H   0  0  0  0  0  0  0  0  0  0  0  0
   59.3710   28.4517   49.0598 H   0  0  0  0  0  0  0  0  0  0  0  0
   59.2251   30.1054   48.3420 H   0  0  0  0  0  0  0  0  0  0  0  0
   58.0359   27.5623   47.4550 H   0  0  0  0  0  0  0  0  0  0  0  0
   57.6486   29.2624   46.9762 H   0  0  0  0  0  0  0  0  0  0  0  0
  1  2  3  0
  2  3  1  0
  3  4  2  0
  4  5  1  0
  4  6  1  0
  6  7  2  0
  7  8  1  0
  8  9  2  0
  9 10  1  0
 10 11  1  0
 11 12  2  0
 11 13  1  0
 13 14  1  0
 14 15  1  0
 15 16  1  0
 16 17  1  0
 17 18  1  0
 18 19  1  0
  9  3  1  0
 19 14  1  0
  6 20  1  0
  7 21  1  0
  8 22  1  0
 13 23  1  0
 13 24  1  0
 15 25  1  0
 15 26  1  0
 16 27  1  0
 16 28  1  0
 18 29  1  0
 18 30  1  0
 19 31  1  0
 19 32  1  0
M  CHG  1  10  -1
M  END
>  <UniqueID>  (63) 
60

>  <SMILES>  (63) 
N#Cc1c(Cl)cccc1[N-]C(=O)CN1CCOCC1

>  <Energy>  (63) 
46.77751774972263

>  <Genealogy>  (63) 
N#Cc1c(Cl)cccc1[N-]C(=O)CN1CCOCC1 (protonated)
N#Cc1c(Cl)cccc1[N-]C(=O)CN1CCOCC1 (3D coordinates assigned)
N#Cc1c(Cl)cccc1[N-]C(=O)CN1CCOCC1 (nonaromatic ring conformer: 46.77751774972263 kcal/mol)

>  <smiles>  (63) 
N#Cc1c(Cl)cccc1NC(=O)CN1CCOCC1

>  <score_type>  (63) 
oracle

>  <origin>  (63) 
adg

>  <m_score__min__energy>  (63) 
-8.9199999999999999

>  <m_primary>  (63) 
energy

$$$$
63:0
     RDKit          3D

 37 39  0  0  0  0  0  0  0  0999 V2000
   55.0720   26.3500   46.8740 H   0  0  0  0  0  0  0  0  0  0  0  0
   54.8790   25.9250   45.9760 O   0  0  0  0  0  0  0  0  0  0  0  0
   55.5830   24.8070   45.5270 C   0  0  0  0  0  0  0  0  0  0  0  0
   55.0310   24.0140   44.5130 C   0  0  0  0  0  0  0  0  0  0  0  0
   54.0549   24.2800   44.0811 H   0  0  0  0  0  0  0  0  0  0  0  0
   55.7110   22.8900   44.0480 C   0  0  0  0  0  0  0  0  0  0  0  0
   55.2794   22.2694   43.2489 H   0  0  0  0  0  0  0  0  0  0  0  0
   56.9430   22.5620   44.6070 C   0  0  0  0  0  0  0  0  0  0  0  0
   57.4924   21.6797   44.2469 H   0  0  0  0  0  0  0  0  0  0  0  0
   57.4670   23.3300   45.5960 N   0  0  0  0  0  0  0  0  0  0  0  0
   56.8390   24.4390   46.0770 C   0  0  0  0  0  0  0  0  0  0  0  0
   57.4260   25.0990   47.0370 N   0  0  0  0  0  0  0  0  0  0  0  0
   58.0160   26.4030   46.9640 C   0  0  0  0  0  0  0  0  0  0  0  0
   58.7370   26.7980   47.9190 O   0  0  0  0  0  0  0  0  0  0  0  0
   57.8320   27.2580   45.7650 C   0  0  0  0  0  0  0  0  0  0  0  0
   58.1150   26.7530   44.4830 C   0  0  0  0  0  0  0  0  0  0  0  0
   58.5002   25.7287   44.3719 H   0  0  0  0  0  0  0  0  0  0  0  0
   57.9100   27.5440   43.3500 C   0  0  0  0  0  0  0  0  0  0  0  0
   58.1318   27.1398   42.3513 H   0  0  0  0  0  0  0  0  0  0  0  0
   57.4240   28.8470   43.4820 C   0  0  0  0  0  0  0  0  0  0  0  0
   57.2491   29.4600   42.5855 H   0  0  0  0  0  0  0  0  0  0  0  0
   57.1590   29.3750   44.7490 C   0  0  0  0  0  0  0  0  0  0  0  0
   56.6280   30.7050   44.8490 N   0  0  0  0  0  0  0  0  0  0  0  0
   57.3270   31.9090   44.5080 C   0  0  0  0  0  0  0  0  0  0  0  0
   57.4360   32.2170   43.2920 O   0  0  0  0  0  0  0  0  0  0  0  0
   57.9760   32.7550   45.5360 C   0  0  0  0  0  0  0  0  0  0  0  0
   58.1390   32.3010   46.8570 C   0  0  0  0  0  0  0  0  0  0  0  0
   57.7318   31.3230   47.1533 H   0  0  0  0  0  0  0  0  0  0  0  0
   58.7970   33.0640   47.7700 N   0  0  0  0  0  0  0  0  0  0  0  0
   59.3120   34.2790   47.4490 C   0  0  0  0  0  0  0  0  0  0  0  0
   59.9210   34.9520   48.3220 O   0  0  0  0  0  0  0  0  0  0  0  0
   59.1640   34.7800   46.1540 C   0  0  0  0  0  0  0  0  0  0  0  0
   59.5668   35.7694   45.8917 H   0  0  0  0  0  0  0  0  0  0  0  0
   58.5000   34.0130   45.1960 C   0  0  0  0  0  0  0  0  0  0  0  0
   58.3865   34.3950   44.1707 H   0  0  0  0  0  0  0  0  0  0  0  0
   57.3540   28.5750   45.8880 C   0  0  0  0  0  0  0  0  0  0  0  0
   57.1307   28.9827   46.8849 H   0  0  0  0  0  0  0  0  0  0  0  0
  1  2  1  0
  2  3  1  0
  3  4  2  0
  4  5  1  0
  4  6  1  0
  6  7  1  0
  6  8  2  0
  8  9  1  0
  8 10  1  0
 10 11  1  0
 11 12  2  0
 12 13  1  0
 13 14  2  0
 13 15  1  0
 15 16  2  0
 16 17  1  0
 16 18  1  0
 18 19  1  0
 18 20  2  0
 20 21  1  0
 20 22  1  0
 22 23  1  0
 23 24  1  0
 24 25  2  0
 24 26  1  0
 26 27  2  0
 27 28  1  0
 27 29  1  0
 29 30  1  0
 30 31  2  0
 30 32  1  0
 32 33  1  0
 32 34  2  0
 34 35  1  0
 22 36  2  0
 36 37  1  0
 11  3  1  0
 36 15  1  0
 34 26  1  0
M  CHG  3  10  -1  23  -1  29  -1
M  END
>  <UniqueID>  (64) 
61

>  <SMILES>  (64) 
O=C(/N=c1/[n-]cccc1O)c1cccc([N-]C(=O)c2ccc(=O)[n-]c2)c1

>  <Energy>  (64) 
58.777648041487595

>  <Genealogy>  (64) 
O=C(N=c1[n-]cccc1O)c1cccc([N-]C(=O)c2ccc(=O)[n-]c2)c1 (protonated)
O=C(/N=c1/[n-]cccc1O)c1cccc([N-]C(=O)c2ccc(=O)[n-]c2)c1 (cis-trans isomerization)
O=C(/N=c1/[n-]cccc1O)c1cccc([N-]C(=O)c2ccc(=O)[n-]c2)c1 (3D coordinates assigned)
O=C(/N=c1/[n-]cccc1O)c1cccc([N-]C(=O)c2ccc(=O)[n-]c2)c1 (optimized conformer: 58.777648041487595 kcal/mol)

>  <smiles>  (64) 
O=C(N=c1[nH]cccc1O)c1cccc(NC(=O)c2ccc(=O)[nH]c2)c1

>  <score_type>  (64) 
oracle

>  <origin>  (64) 
adg

>  <m_score__min__energy>  (64) 
-13.49

>  <m_primary>  (64) 
energy

$$$$
64:0
     RDKit          3D

 74 78  0  0  0  0  0  0  0  0999 V2000
   58.7190   33.1350   52.0890 C   0  0  0  0  0  0  0  0  0  0  0  0
   60.1670   32.7150   51.8920 C   0  0  0  0  0  0  0  0  0  0  0  0
   60.9270   33.8270   51.4300 O   0  0  0  0  0  0  0  0  0  0  0  0
   62.2630   33.7170   51.0320 C   0  0  0  0  0  0  0  0  0  0  0  0
   63.1830   34.1310   51.7880 O   0  0  0  0  0  0  0  0  0  0  0  0
   62.5790   33.1600   49.7040 C   0  0  0  0  0  0  0  0  0  0  0  0
   62.6930   33.9790   48.5680 C   0  0  0  0  0  0  0  0  0  0  0  0
   63.1020   33.2930   47.4310 C   0  0  0  0  0  0  0  0  0  0  0  0
   63.3890   33.9130   46.1030 C   0  0  0  0  0  0  0  0  0  0  0  0
   63.3560   31.6780   47.8200 S   0  0  0  0  0  0  0  0  0  0  0  0
   62.8980   31.8230   49.4290 C   0  0  0  0  0  0  0  0  0  0  0  0
   62.8330   30.7110   50.3270 N   0  0  0  0  0  0  0  0  0  0  0  0
   61.6890   29.8660   50.4840 C   0  0  0  0  0  0  0  0  0  0  0  0
   61.2430   29.5990   51.6340 O   0  0  0  0  0  0  0  0  0  0  0  0
   61.0100   29.3020   49.2790 C   0  0  0  0  0  0  0  0  0  0  0  0
   59.2180   29.6330   49.3640 S   0  0  0  0  0  0  0  0  0  0  0  0
   59.2970   31.1670   48.4330 C   0  0  0  0  0  0  0  0  0  0  0  0
   59.1110   32.3770   49.0200 N   0  0  0  0  0  0  0  0  0  0  0  0
   59.3030   33.2380   48.0080 C   0  0  0  0  0  0  0  0  0  0  0  0
   59.2680   34.6290   48.0630 C   0  0  0  0  0  0  0  0  0  0  0  0
   59.5690   35.3410   46.8870 C   0  0  0  0  0  0  0  0  0  0  0  0
   59.9060   34.6520   45.7000 C   0  0  0  0  0  0  0  0  0  0  0  0
   59.9370   33.2450   45.6790 C   0  0  0  0  0  0  0  0  0  0  0  0
   59.6110   32.5680   46.8580 C   0  0  0  0  0  0  0  0  0  0  0  0
   59.6010   31.2460   47.1070 N   0  0  0  0  0  0  0  0  0  0  0  0
   60.0100   30.1610   46.2070 C   0  0  0  0  0  0  0  0  0  0  0  0
   59.0050   29.0380   46.2110 C   0  0  0  0  0  0  0  0  0  0  0  0
   57.7690   29.1910   45.5660 C   0  0  0  0  0  0  0  0  0  0  0  0
   56.8210   28.1660   45.5970 C   0  0  0  0  0  0  0  0  0  0  0  0
   57.0900   26.9630   46.2750 C   0  0  0  0  0  0  0  0  0  0  0  0
   56.0660   25.8930   46.3280 C   0  0  0  0  0  0  0  0  0  0  0  0
   54.9230   26.1050   45.8400 O   0  0  0  0  0  0  0  0  0  0  0  0
   56.3620   24.6160   46.9190 N   0  0  0  0  0  0  0  0  0  0  0  0
   55.3340   23.6120   47.1900 C   0  0  0  0  0  0  0  0  0  0  0  0
   54.5700   23.2550   45.9130 C   0  0  0  0  0  0  0  0  0  0  0  0
   55.4770   22.6380   44.8800 C   0  0  0  0  0  0  0  0  0  0  0  0
   55.7020   23.2910   43.6570 C   0  0  0  0  0  0  0  0  0  0  0  0
   56.5650   22.7330   42.7090 C   0  0  0  0  0  0  0  0  0  0  0  0
   57.2150   21.5270   42.9780 C   0  0  0  0  0  0  0  0  0  0  0  0
   57.0070   20.8760   44.1990 C   0  0  0  0  0  0  0  0  0  0  0  0
   56.1430   21.4290   45.1490 C   0  0  0  0  0  0  0  0  0  0  0  0
   58.3230   26.8180   46.9350 C   0  0  0  0  0  0  0  0  0  0  0  0
   59.2710   27.8460   46.9030 C   0  0  0  0  0  0  0  0  0  0  0  0
   58.4989   33.1988   53.1649 H   0  0  0  0  0  0  0  0  0  0  0  0
   58.5555   34.1176   51.6223 H   0  0  0  0  0  0  0  0  0  0  0  0
   58.0551   32.3924   51.6223 H   0  0  0  0  0  0  0  0  0  0  0  0
   60.5793   32.3616   52.8486 H   0  0  0  0  0  0  0  0  0  0  0  0
   60.2152   31.9050   51.1493 H   0  0  0  0  0  0  0  0  0  0  0  0
   62.4793   35.0580   48.5778 H   0  0  0  0  0  0  0  0  0  0  0  0
   63.8469   34.9021   46.2514 H   0  0  0  0  0  0  0  0  0  0  0  0
   64.0808   33.2695   45.5397 H   0  0  0  0  0  0  0  0  0  0  0  0
   62.4507   34.0241   45.5397 H   0  0  0  0  0  0  0  0  0  0  0  0
   61.4248   29.7701   48.3741 H   0  0  0  0  0  0  0  0  0  0  0  0
   61.1763   28.2152   49.2451 H   0  0  0  0  0  0  0  0  0  0  0  0
   59.0134   35.1542   48.9954 H   0  0  0  0  0  0  0  0  0  0  0  0
   59.5418   36.4407   46.8917 H   0  0  0  0  0  0  0  0  0  0  0  0
   60.1453   35.2182   44.7878 H   0  0  0  0  0  0  0  0  0  0  0  0
   60.2087   32.6962   44.7652 H   0  0  0  0  0  0  0  0  0  0  0  0
   60.0998   30.5578   45.1850 H   0  0  0  0  0  0  0  0  0  0  0  0
   60.9747   29.7648   46.5568 H   0  0  0  0  0  0  0  0  0  0  0  0
   57.5445   30.1258   45.0315 H   0  0  0  0  0  0  0  0  0  0  0  0
   55.8557   28.3004   45.0869 H   0  0  0  0  0  0  0  0  0  0  0  0
   57.3570   24.3410   47.0710 H   0  0  0  0  0  0  0  0  0  0  0  0
   55.8123   22.7053   47.5890 H   0  0  0  0  0  0  0  0  0  0  0  0
   54.6234   24.0248   47.9212 H   0  0  0  0  0  0  0  0  0  0  0  0
   53.7729   22.5390   46.1619 H   0  0  0  0  0  0  0  0  0  0  0  0
   54.1487   24.1804   45.4932 H   0  0  0  0  0  0  0  0  0  0  0  0
   55.1974   24.2450   43.4442 H   0  0  0  0  0  0  0  0  0  0  0  0
   56.7321   23.2449   41.7498 H   0  0  0  0  0  0  0  0  0  0  0  0
   57.8912   21.0883   42.2295 H   0  0  0  0  0  0  0  0  0  0  0  0
   57.5236   19.9284   44.4116 H   0  0  0  0  0  0  0  0  0  0  0  0
   55.9838   20.9170   46.1095 H   0  0  0  0  0  0  0  0  0  0  0  0
   58.5438   25.8888   47.4808 H   0  0  0  0  0  0  0  0  0  0  0  0
   60.2316   27.7195   47.4237 H   0  0  0  0  0  0  0  0  0  0  0  0
  1  2  1  0
  2  3  1  0
  3  4  1  0
  4  5  2  0
  4  6  1  0
  6  7  1  0
  7  8  2  0
  8  9  1  0
  8 10  1  0
 10 11  1  0
 11 12  1  0
 12 13  1  0
 13 14  2  0
 13 15  1  0
 15 16  1  0
 16 17  1  0
 17 18  2  0
 18 19  1  0
 19 20  2  0
 20 21  1  0
 21 22  2  0
 22 23  1  0
 23 24  2  0
 24 25  1  0
 25 26  1  0
 26 27  1  0
 27 28  2  0
 28 29  1  0
 29 30  2  0
 30 31  1  0
 31 32  2  0
 31 33  1  0
 33 34  1  0
 34 35  1  0
 35 36  1  0
 36 37  2  0
 37 38  1  0
 38 39  2  0
 39 40  1  0
 40 41  2  0
 30 42  1  0
 42 43  2  0
 11  6  2  0
 25 17  1  0
 43 27  1  0
 24 19  1  0
 41 36  1  0
  1 44  1  0
  1 45  1  0
  1 46  1  0
  2 47  1  0
  2 48  1  0
  7 49  1  0
  9 50  1  0
  9 51  1  0
  9 52  1  0
 15 53  1  0
 15 54  1  0
 20 55  1  0
 21 56  1  0
 22 57  1  0
 23 58  1  0
 26 59  1  0
 26 60  1  0
 28 61  1  0
 29 62  1  0
 33 63  1  0
 34 64  1  0
 34 65  1  0
 35 66  1  0
 35 67  1  0
 37 68  1  0
 38 69  1  0
 39 70  1  0
 40 71  1  0
 41 72  1  0
 42 73  1  0
 43 74  1  0
M  CHG  1  12  -1
M  END
>  <UniqueID>  (65) 
62

>  <SMILES>  (65) 
CCOC(=O)c1cc(C)sc1[N-]C(=O)CSc1nc2ccccc2n1Cc1ccc(C(=O)NCCc2ccccc2)cc1

>  <Energy>  (65) 
136.095416702559

>  <Genealogy>  (65) 
CCOC(=O)c1cc(C)sc1[N-]C(=O)CSc1nc2ccccc2n1Cc1ccc(C(=O)NCCc2ccccc2)cc1 (protonated)
CCOC(=O)c1cc(C)sc1[N-]C(=O)CSc1nc2ccccc2n1Cc1ccc(C(=O)NCCc2ccccc2)cc1 (3D coordinates assigned)
CCOC(=O)c1cc(C)sc1[N-]C(=O)CSc1nc2ccccc2n1Cc1ccc(C(=O)NCCc2ccccc2)cc1 (optimized conformer: 136.095416702559 kcal/mol)

>  <smiles>  (65) 
CCOC(=O)c1cc(C)sc1NC(=O)CSc1nc2ccccc2n1Cc1ccc(C(=O)NCCc2ccccc2)cc1

>  <score_type>  (65) 
oracle

>  <origin>  (65) 
adg

>  <m_score__min__energy>  (65) 
-11.44

>  <m_primary>  (65) 
energy

$$$$
65:0
     RDKit          3D

 55 58  0  0  0  0  0  0  0  0999 V2000
   58.3170   33.7380   44.1850 O   0  0  0  0  0  0  0  0  0  0  0  0
   57.6840   32.7490   44.6460 C   0  0  0  0  0  0  0  0  0  0  0  0
   57.2970   31.6260   43.7310 C   0  0  0  0  0  0  0  0  0  0  0  0
   56.6780   30.5700   44.4680 O   0  0  0  0  0  0  0  0  0  0  0  0
   57.3640   29.5530   45.1530 C   0  0  0  0  0  0  0  0  0  0  0  0
   57.4340   28.2720   44.5530 C   0  0  0  0  0  0  0  0  0  0  0  0
   58.1020   27.2100   45.1910 C   0  0  0  0  0  0  0  0  0  0  0  0
   58.6880   27.4650   46.4270 C   0  0  0  0  0  0  0  0  0  0  0  0
   59.3700   26.6100   47.2040 N   0  0  0  0  0  0  0  0  0  0  0  0
   59.6920   27.3860   48.2720 C   0  0  0  0  0  0  0  0  0  0  0  0
   60.3960   26.9270   49.2650 N   0  0  0  0  0  0  0  0  0  0  0  0
   60.9790   27.7340   50.2970 C   0  0  0  0  0  0  0  0  0  0  0  0
   61.2080   27.2180   51.4220 O   0  0  0  0  0  0  0  0  0  0  0  0
   61.2290   29.1310   50.0810 N   0  0  0  0  0  0  0  0  0  0  0  0
   62.2300   29.8770   50.7880 C   0  0  0  0  0  0  0  0  0  0  0  0
   63.0170   29.2950   51.5810 O   0  0  0  0  0  0  0  0  0  0  0  0
   62.3480   31.3350   50.5670 C   0  0  0  0  0  0  0  0  0  0  0  0
   63.6080   31.8490   50.2200 C   0  0  0  0  0  0  0  0  0  0  0  0
   63.7830   33.2140   49.9920 C   0  0  0  0  0  0  0  0  0  0  0  0
   62.7020   34.0840   50.1040 C   0  0  0  0  0  0  0  0  0  0  0  0
   61.4420   33.5950   50.4550 C   0  0  0  0  0  0  0  0  0  0  0  0
   61.2460   32.2220   50.7150 C   0  0  0  0  0  0  0  0  0  0  0  0
   59.8720   31.7300   51.1310 C   0  0  0  0  0  0  0  0  0  0  0  0
   59.9870   30.9450   52.2640 F   0  0  0  0  0  0  0  0  0  0  0  0
   59.2790   30.9740   50.1310 F   0  0  0  0  0  0  0  0  0  0  0  0
   59.0370   32.8030   51.3960 F   0  0  0  0  0  0  0  0  0  0  0  0
   59.2600   28.6740   48.1940 N   0  0  0  0  0  0  0  0  0  0  0  0
   58.6260   28.6910   47.0130 C   0  0  0  0  0  0  0  0  0  0  0  0
   57.9790   29.7680   46.4130 C   0  0  0  0  0  0  0  0  0  0  0  0
   57.3380   32.6950   46.0350 N   0  0  0  0  0  0  0  0  0  0  0  0
   58.0300   33.5020   47.0370 C   0  0  0  0  0  0  0  0  0  0  0  0
   59.4960   33.1630   47.0430 C   0  0  0  0  0  0  0  0  0  0  0  0
   60.4460   34.1490   46.7270 C   0  0  0  0  0  0  0  0  0  0  0  0
   61.8110   33.8480   46.7550 C   0  0  0  0  0  0  0  0  0  0  0  0
   62.2370   32.5630   47.1010 C   0  0  0  0  0  0  0  0  0  0  0  0
   61.2990   31.5790   47.4230 C   0  0  0  0  0  0  0  0  0  0  0  0
   59.9330   31.8770   47.4010 C   0  0  0  0  0  0  0  0  0  0  0  0
   56.5915   32.0017   42.9752 H   0  0  0  0  0  0  0  0  0  0  0  0
   58.2029   31.2360   43.2439 H   0  0  0  0  0  0  0  0  0  0  0  0
   56.9597   28.1047   43.5747 H   0  0  0  0  0  0  0  0  0  0  0  0
   58.1588   26.2135   44.7287 H   0  0  0  0  0  0  0  0  0  0  0  0
   60.6790   29.6210   49.3400 H   0  0  0  0  0  0  0  0  0  0  0  0
   64.4665   31.1676   50.1270 H   0  0  0  0  0  0  0  0  0  0  0  0
   64.7761   33.6033   49.7234 H   0  0  0  0  0  0  0  0  0  0  0  0
   62.8407   35.1588   49.9156 H   0  0  0  0  0  0  0  0  0  0  0  0
   60.5916   34.2888   50.5298 H   0  0  0  0  0  0  0  0  0  0  0  0
   57.9458   30.7536   46.9003 H   0  0  0  0  0  0  0  0  0  0  0  0
   56.6590   31.9710   46.3620 H   0  0  0  0  0  0  0  0  0  0  0  0
   57.9030   34.5682   46.7980 H   0  0  0  0  0  0  0  0  0  0  0  0
   57.6050   33.2906   48.0293 H   0  0  0  0  0  0  0  0  0  0  0  0
   60.1142   35.1622   46.4564 H   0  0  0  0  0  0  0  0  0  0  0  0
   62.5501   34.6233   46.5045 H   0  0  0  0  0  0  0  0  0  0  0  0
   63.3110   32.3261   47.1199 H   0  0  0  0  0  0  0  0  0  0  0  0
   61.6358   30.5676   47.6944 H   0  0  0  0  0  0  0  0  0  0  0  0
   59.1984   31.1019   47.6649 H   0  0  0  0  0  0  0  0  0  0  0  0
  1  2  2  0
  2  3  1  0
  3  4  1  0
  4  5  1  0
  5  6  2  0
  6  7  1  0
  7  8  2  0
  8  9  1  0
  9 10  1  0
 10 11  2  3
 11 12  1  0
 12 13  2  0
 12 14  1  0
 14 15  1  0
 15 16  2  0
 15 17  1  0
 17 18  2  0
 18 19  1  0
 19 20  2  0
 20 21  1  0
 21 22  2  0
 22 23  1  0
 23 24  1  0
 23 25  1  0
 23 26  1  0
 10 27  1  0
 27 28  1  0
 28 29  2  0
  2 30  1  0
 30 31  1  0
 31 32  1  0
 32 33  2  0
 33 34  1  0
 34 35  2  0
 35 36  1  0
 36 37  2  0
 29  5  1  0
 37 32  1  0
 28  8  1  0
 22 17  1  0
  3 38  1  0
  3 39  1  0
  6 40  1  0
  7 41  1  0
 14 42  1  0
 18 43  1  0
 19 44  1  0
 20 45  1  0
 21 46  1  0
 29 47  1  0
 30 48  1  0
 31 49  1  0
 31 50  1  0
 33 51  1  0
 34 52  1  0
 35 53  1  0
 36 54  1  0
 37 55  1  0
M  CHG  2   9  -1  27  -1
M  END
>  <UniqueID>  (66) 
63

>  <SMILES>  (66) 
O=C(COc1ccc2[n-]c(=NC(=O)NC(=O)c3ccccc3C(F)(F)F)[n-]c2c1)NCc1ccccc1

>  <Energy>  (66) 
96.20054447816203

>  <Genealogy>  (66) 
O=C(COc1ccc2[n-]c(=NC(=O)NC(=O)c3ccccc3C(F)(F)F)[n-]c2c1)NCc1ccccc1 (protonated)
O=C(COc1ccc2[n-]c(=NC(=O)NC(=O)c3ccccc3C(F)(F)F)[n-]c2c1)NCc1ccccc1 (3D coordinates assigned)
O=C(COc1ccc2[n-]c(=NC(=O)NC(=O)c3ccccc3C(F)(F)F)[n-]c2c1)NCc1ccccc1 (optimized conformer: 96.20054447816203 kcal/mol)

>  <smiles>  (66) 
O=C(COc1ccc2[nH]c(=NC(=O)NC(=O)c3ccccc3C(F)(F)F)[nH]c2c1)NCc1ccccc1

>  <score_type>  (66) 
oracle

>  <origin>  (66) 
adg

>  <m_score__min__energy>  (66) 
-10.81

>  <m_primary>  (66) 
energy

$$$$
66:0
     RDKit          3D

 59 62  0  0  0  0  0  0  0  0999 V2000
   63.6273   35.0017   46.8570 H   0  0  0  0  0  0  0  0  0  0  0  0
   63.4400   34.0760   47.4210 C   0  0  0  0  0  0  0  0  0  0  0  0
   63.3630   32.8530   46.7510 C   0  0  0  0  0  0  0  0  0  0  0  0
   63.4904   32.8159   45.6590 H   0  0  0  0  0  0  0  0  0  0  0  0
   63.1240   31.6750   47.4670 C   0  0  0  0  0  0  0  0  0  0  0  0
   63.0675   30.7143   46.9343 H   0  0  0  0  0  0  0  0  0  0  0  0
   62.9560   31.7100   48.8580 C   0  0  0  0  0  0  0  0  0  0  0  0
   62.7140   30.5000   49.5270 O   0  0  0  0  0  0  0  0  0  0  0  0
   61.4530   30.0850   50.0550 C   0  0  0  0  0  0  0  0  0  0  0  0
   60.9256   30.9611   50.4603 H   0  0  0  0  0  0  0  0  0  0  0  0
   61.6293   29.3438   50.8485 H   0  0  0  0  0  0  0  0  0  0  0  0
   60.6070   29.4520   48.9820 C   0  0  0  0  0  0  0  0  0  0  0  0
   59.9780   28.2200   49.2190 C   0  0  0  0  0  0  0  0  0  0  0  0
   60.1097   27.7155   50.1876 H   0  0  0  0  0  0  0  0  0  0  0  0
   59.1850   27.6310   48.2300 C   0  0  0  0  0  0  0  0  0  0  0  0
   58.7110   26.6563   48.4177 H   0  0  0  0  0  0  0  0  0  0  0  0
   58.9900   28.2760   46.9990 C   0  0  0  0  0  0  0  0  0  0  0  0
   58.1500   27.6460   45.9580 C   0  0  0  0  0  0  0  0  0  0  0  0
   57.2770   26.8090   46.3160 O   0  0  0  0  0  0  0  0  0  0  0  0
   58.3000   27.9690   44.5580 N   0  0  0  0  0  0  0  0  0  0  0  0
   58.2060   26.8850   43.5740 C   0  0  0  0  0  0  0  0  0  0  0  0
   58.1224   25.9210   44.0973 H   0  0  0  0  0  0  0  0  0  0  0  0
   57.3178   27.0382   42.9435 H   0  0  0  0  0  0  0  0  0  0  0  0
   59.1073   26.8830   42.9435 H   0  0  0  0  0  0  0  0  0  0  0  0
   58.2850   29.3670   44.0960 C   0  0  0  0  0  0  0  0  0  0  0  0
   59.0920   29.9189   44.6001 H   0  0  0  0  0  0  0  0  0  0  0  0
   58.4295   29.3722   43.0055 H   0  0  0  0  0  0  0  0  0  0  0  0
   56.9450   30.0470   44.4080 C   0  0  0  0  0  0  0  0  0  0  0  0
   56.1493   29.5589   43.8260 H   0  0  0  0  0  0  0  0  0  0  0  0
   56.7456   29.9529   45.4857 H   0  0  0  0  0  0  0  0  0  0  0  0
   56.9900   31.5380   44.0460 C   0  0  0  0  0  0  0  0  0  0  0  0
   57.8678   31.7270   43.4106 H   0  0  0  0  0  0  0  0  0  0  0  0
   56.0633   31.7958   43.5123 H   0  0  0  0  0  0  0  0  0  0  0  0
   57.0810   32.3680   45.2440 N   0  0  0  0  0  0  0  0  0  0  0  0
   57.9710   33.2000   45.7310 C   0  0  0  0  0  0  0  0  0  0  0  0
   58.4190   34.1670   44.8220 C   0  0  0  0  0  0  0  0  0  0  0  0
   58.0512   34.1449   43.7856 H   0  0  0  0  0  0  0  0  0  0  0  0
   59.3170   35.1510   45.2040 C   0  0  0  0  0  0  0  0  0  0  0  0
   59.6525   35.9000   44.4715 H   0  0  0  0  0  0  0  0  0  0  0  0
   59.7830   35.1950   46.4730 N   0  0  0  0  0  0  0  0  0  0  0  0
   60.4540   35.9580   46.7230 H   0  0  0  0  0  0  0  0  0  0  0  0
   59.4110   34.2750   47.4070 C   0  0  0  0  0  0  0  0  0  0  0  0
   59.9440   34.3710   48.7030 C   0  0  0  0  0  0  0  0  0  0  0  0
   60.6343   35.1917   48.9478 H   0  0  0  0  0  0  0  0  0  0  0  0
   59.6090   33.4410   49.6790 C   0  0  0  0  0  0  0  0  0  0  0  0
   60.2830   33.5740   51.2930 Cl  0  0  0  0  0  0  0  0  0  0  0  0
   58.7440   32.3970   49.3700 C   0  0  0  0  0  0  0  0  0  0  0  0
   58.4845   31.6564   50.1409 H   0  0  0  0  0  0  0  0  0  0  0  0
   58.2020   32.2820   48.0870 C   0  0  0  0  0  0  0  0  0  0  0  0
   57.5312   31.4402   47.8602 H   0  0  0  0  0  0  0  0  0  0  0  0
   58.4970   33.2250   47.0720 C   0  0  0  0  0  0  0  0  0  0  0  0
   59.6260   29.5030   46.7600 C   0  0  0  0  0  0  0  0  0  0  0  0
   59.4995   30.0040   45.7889 H   0  0  0  0  0  0  0  0  0  0  0  0
   60.4190   30.0930   47.7470 C   0  0  0  0  0  0  0  0  0  0  0  0
   60.8985   31.0644   47.5558 H   0  0  0  0  0  0  0  0  0  0  0  0
   63.0400   32.9480   49.5280 C   0  0  0  0  0  0  0  0  0  0  0  0
   62.9172   32.9897   50.6203 H   0  0  0  0  0  0  0  0  0  0  0  0
   63.2790   34.1230   48.8080 C   0  0  0  0  0  0  0  0  0  0  0  0
   63.3404   35.0865   49.3351 H   0  0  0  0  0  0  0  0  0  0  0  0
  1  2  1  0
  2  3  2  0
  3  4  1  0
  3  5  1  0
  5  6  1  0
  5  7  2  0
  7  8  1  0
  8  9  1  0
  9 10  1  0
  9 11  1  0
  9 12  1  0
 12 13  2  0
 13 14  1  0
 13 15  1  0
 15 16  1  0
 15 17  2  0
 17 18  1  0
 18 19  2  0
 18 20  1  0
 20 21  1  0
 21 22  1  0
 21 23  1  0
 21 24  1  0
 20 25  1  0
 25 26  1  0
 25 27  1  0
 25 28  1  0
 28 29  1  0
 28 30  1  0
 28 31  1  0
 31 32  1  0
 31 33  1  0
 31 34  1  0
 34 35  2  0
 35 36  1  0
 36 37  1  0
 36 38  2  0
 38 39  1  0
 38 40  1  0
 40 41  1  0
 40 42  1  0
 42 43  2  0
 43 44  1  0
 43 45  1  0
 45 46  1  0
 45 47  2  0
 47 48  1  0
 47 49  1  0
 49 50  1  0
 49 51  2  0
 17 52  1  0
 52 53  1  0
 52 54  2  0
 54 55  1  0
  7 56  1  0
 56 57  1  0
 56 58  2  0
 58 59  1  0
 58  2  1  0
 54 12  1  0
 51 35  1  0
 51 42  1  0
M  END
>  <UniqueID>  (67) 
64

>  <SMILES>  (67) 
CN(CCC/N=c1/cc[nH]c2cc(Cl)ccc12)C(=O)c1ccc(COc2ccccc2)cc1

>  <Energy>  (67) 
84.2583537760575

>  <Genealogy>  (67) 
CN(CCC/N=c1/cc[nH]c2cc(Cl)ccc12)C(=O)c1ccc(COc2ccccc2)cc1 (cis-trans isomerization)
CN(CCC/N=c1/cc[nH]c2cc(Cl)ccc12)C(=O)c1ccc(COc2ccccc2)cc1 (3D coordinates assigned)
CN(CCC/N=c1/cc[nH]c2cc(Cl)ccc12)C(=O)c1ccc(COc2ccccc2)cc1 (optimized conformer: 84.2583537760575 kcal/mol)

>  <smiles>  (67) 
CN(CCCN=c1cc[nH]c2cc(Cl)ccc12)C(=O)c1ccc(COc2ccccc2)cc1

>  <score_type>  (67) 
oracle

>  <origin>  (67) 
adg

>  <m_score__min__energy>  (67) 
-8.8200000000000003

>  <m_primary>  (67) 
energy

$$$$
67:0
     RDKit          3D

 42 44  0  0  0  0  0  0  0  0999 V2000
   55.1360   26.3110   46.9380 H   0  0  0  0  0  0  0  0  0  0  0  0
   55.1730   26.7220   46.0120 O   0  0  0  0  0  0  0  0  0  0  0  0
   56.2690   27.4800   45.6160 C   0  0  0  0  0  0  0  0  0  0  0  0
   56.1870   28.5480   44.8020 N   0  0  0  0  0  0  0  0  0  0  0  0
   57.4180   29.0060   44.6350 N   0  0  0  0  0  0  0  0  0  0  0  0
   57.7460   30.2240   43.8900 C   0  0  0  0  0  0  0  0  0  0  0  0
   58.7325   30.1013   43.4190 H   0  0  0  0  0  0  0  0  0  0  0  0
   56.9687   30.3853   43.1285 H   0  0  0  0  0  0  0  0  0  0  0  0
   57.7810   31.4280   44.7970 C   0  0  0  0  0  0  0  0  0  0  0  0
   57.8940   31.2610   46.1880 C   0  0  0  0  0  0  0  0  0  0  0  0
   57.9582   30.2495   46.6155 H   0  0  0  0  0  0  0  0  0  0  0  0
   57.9250   32.3770   47.0300 C   0  0  0  0  0  0  0  0  0  0  0  0
   58.0172   32.2420   48.1178 H   0  0  0  0  0  0  0  0  0  0  0  0
   57.8390   33.6640   46.4910 C   0  0  0  0  0  0  0  0  0  0  0  0
   57.8557   34.5399   47.1562 H   0  0  0  0  0  0  0  0  0  0  0  0
   57.7320   33.8400   45.1100 C   0  0  0  0  0  0  0  0  0  0  0  0
   57.6697   34.8539   44.6880 H   0  0  0  0  0  0  0  0  0  0  0  0
   57.7040   32.7270   44.2630 C   0  0  0  0  0  0  0  0  0  0  0  0
   57.6215   32.8682   43.1752 H   0  0  0  0  0  0  0  0  0  0  0  0
   58.2740   28.2620   45.3700 C   0  0  0  0  0  0  0  0  0  0  0  0
   59.5560   28.4980   45.4260 N   0  0  0  0  0  0  0  0  0  0  0  0
   60.2590   29.3160   46.3740 C   0  0  0  0  0  0  0  0  0  0  0  0
   60.8760   30.3430   46.0000 O   0  0  0  0  0  0  0  0  0  0  0  0
   60.3790   28.9130   47.7460 N   0  0  0  0  0  0  0  0  0  0  0  0
   60.8790   29.5840   48.7430 C   0  0  0  0  0  0  0  0  0  0  0  0
   61.5686   29.0567   49.4186 H   0  0  0  0  0  0  0  0  0  0  0  0
   60.5810   31.0310   49.0380 C   0  0  0  0  0  0  0  0  0  0  0  0
   59.5487   31.2519   48.7290 H   0  0  0  0  0  0  0  0  0  0  0  0
   60.7145   31.1940   50.1176 H   0  0  0  0  0  0  0  0  0  0  0  0
   61.5200   31.9590   48.3040 C   0  0  0  0  0  0  0  0  0  0  0  0
   61.0150   32.9260   47.4180 C   0  0  0  0  0  0  0  0  0  0  0  0
   59.9301   33.0034   47.2538 H   0  0  0  0  0  0  0  0  0  0  0  0
   61.8820   33.7890   46.7450 C   0  0  0  0  0  0  0  0  0  0  0  0
   61.4807   34.5300   46.0380 H   0  0  0  0  0  0  0  0  0  0  0  0
   63.2590   33.7120   46.9690 C   0  0  0  0  0  0  0  0  0  0  0  0
   63.9416   34.3908   46.4367 H   0  0  0  0  0  0  0  0  0  0  0  0
   63.7690   32.7730   47.8690 C   0  0  0  0  0  0  0  0  0  0  0  0
   64.8525   32.7192   48.0513 H   0  0  0  0  0  0  0  0  0  0  0  0
   62.9050   31.9020   48.5380 C   0  0  0  0  0  0  0  0  0  0  0  0
   63.3103   31.1687   49.2507 H   0  0  0  0  0  0  0  0  0  0  0  0
   57.5730   27.2500   46.0040 C   0  0  0  0  0  0  0  0  0  0  0  0
   57.9614   26.4555   46.6582 H   0  0  0  0  0  0  0  0  0  0  0  0
  1  2  1  0
  2  3  1  0
  3  4  1  0
  4  5  1  0
  5  6  1  0
  6  7  1  0
  6  8  1  0
  6  9  1  0
  9 10  2  0
 10 11  1  0
 10 12  1  0
 12 13  1  0
 12 14  2  0
 14 15  1  0
 14 16  1  0
 16 17  1  0
 16 18  2  0
 18 19  1  0
  5 20  1  0
 20 21  2  0
 21 22  1  0
 22 23  2  0
 22 24  1  0
 24 25  2  0
 25 26  1  0
 25 27  1  0
 27 28  1  0
 27 29  1  0
 27 30  1  0
 30 31  2  0
 31 32  1  0
 31 33  1  0
 33 34  1  0
 33 35  2  0
 35 36  1  0
 35 37  1  0
 37 38  1  0
 37 39  2  0
 39 40  1  0
 20 41  1  0
 41 42  1  0
 41  3  2  0
 18  9  1  0
 39 30  1  0
M  CHG  1   4  -1
M  END
>  <UniqueID>  (68) 
65

>  <SMILES>  (68) 
O=C(/N=C\Cc1ccccc1)/N=c1\cc(O)[n-]n1Cc1ccccc1

>  <Energy>  (68) 
81.12228100327697

>  <Genealogy>  (68) 
O=C(N=CCc1ccccc1)N=c1cc(O)[n-]n1Cc1ccccc1 (protonated)
O=C(/N=C\Cc1ccccc1)/N=c1\cc(O)[n-]n1Cc1ccccc1 (cis-trans isomerization)
O=C(/N=C\Cc1ccccc1)/N=c1\cc(O)[n-]n1Cc1ccccc1 (3D coordinates assigned)
O=C(/N=C\Cc1ccccc1)/N=c1\cc(O)[n-]n1Cc1ccccc1 (optimized conformer: 81.12228100327697 kcal/mol)

>  <smiles>  (68) 
O=C(N=CCc1ccccc1)N=c1cc(O)[nH]n1Cc1ccccc1

>  <score_type>  (68) 
oracle

>  <origin>  (68) 
adg

>  <m_score__min__energy>  (68) 
-10.050000000000001

>  <m_primary>  (68) 
energy

$$$$
68:0
     RDKit          3D

 48 50  0  0  0  0  0  0  0  0999 V2000
   57.1570   32.2330   41.2850 O   0  0  0  0  0  0  0  0  0  0  0  0
   57.2220   31.6290   42.3890 C   0  0  0  0  0  0  0  0  0  0  0  0
   56.5970   30.2780   42.5350 C   0  0  0  0  0  0  0  0  0  0  0  0
   57.3390   29.4760   43.5020 N   0  0  0  0  0  0  0  0  0  0  0  0
   56.7310   28.9600   44.6970 C   0  0  0  0  0  0  0  0  0  0  0  0
   55.5380   29.2660   44.9720 O   0  0  0  0  0  0  0  0  0  0  0  0
   57.4910   28.0710   45.6090 C   0  0  0  0  0  0  0  0  0  0  0  0
   58.8440   28.3480   45.8790 C   0  0  0  0  0  0  0  0  0  0  0  0
   59.5820   27.5280   46.7330 C   0  0  0  0  0  0  0  0  0  0  0  0
   58.9860   26.4130   47.3200 C   0  0  0  0  0  0  0  0  0  0  0  0
   57.6460   26.1200   47.0620 C   0  0  0  0  0  0  0  0  0  0  0  0
   56.8810   26.9500   46.2220 C   0  0  0  0  0  0  0  0  0  0  0  0
   55.4980   26.6540   45.9680 N   0  0  0  0  0  0  0  0  0  0  0  0
   54.9570   25.3700   45.6260 C   0  0  0  0  0  0  0  0  0  0  0  0
   53.7200   25.1770   45.7760 O   0  0  0  0  0  0  0  0  0  0  0  0
   55.8280   24.2470   45.2000 C   0  0  0  0  0  0  0  0  0  0  0  0
   56.1930   24.1340   43.8470 C   0  0  0  0  0  0  0  0  0  0  0  0
   57.0240   23.0970   43.4170 C   0  0  0  0  0  0  0  0  0  0  0  0
   57.5040   22.1630   44.3320 C   0  0  0  0  0  0  0  0  0  0  0  0
   57.1540   22.2610   45.6800 C   0  0  0  0  0  0  0  0  0  0  0  0
   56.3190   23.2950   46.1220 C   0  0  0  0  0  0  0  0  0  0  0  0
   55.8650   23.3240   47.8220 Cl  0  0  0  0  0  0  0  0  0  0  0  0
   57.9010   32.2200   43.4980 N   0  0  0  0  0  0  0  0  0  0  0  0
   57.3310   32.2690   44.8370 C   0  0  0  0  0  0  0  0  0  0  0  0
   58.1540   33.1880   45.6910 C   0  0  0  0  0  0  0  0  0  0  0  0
   58.8360   34.2700   45.1100 C   0  0  0  0  0  0  0  0  0  0  0  0
   59.5760   35.1480   45.9100 C   0  0  0  0  0  0  0  0  0  0  0  0
   59.6310   34.9550   47.2950 C   0  0  0  0  0  0  0  0  0  0  0  0
   58.9410   33.8900   47.8810 C   0  0  0  0  0  0  0  0  0  0  0  0
   58.2010   33.0110   47.0840 C   0  0  0  0  0  0  0  0  0  0  0  0
   55.5593   30.3942   42.8808 H   0  0  0  0  0  0  0  0  0  0  0  0
   56.6158   29.7690   41.5601 H   0  0  0  0  0  0  0  0  0  0  0  0
   58.3610   29.3390   43.3440 H   0  0  0  0  0  0  0  0  0  0  0  0
   59.3247   29.2202   45.4118 H   0  0  0  0  0  0  0  0  0  0  0  0
   60.6361   27.7618   46.9435 H   0  0  0  0  0  0  0  0  0  0  0  0
   59.5721   25.7636   47.9870 H   0  0  0  0  0  0  0  0  0  0  0  0
   57.1840   25.2326   47.5193 H   0  0  0  0  0  0  0  0  0  0  0  0
   55.8202   24.8700   43.1194 H   0  0  0  0  0  0  0  0  0  0  0  0
   57.2996   23.0179   42.3550 H   0  0  0  0  0  0  0  0  0  0  0  0
   58.1594   21.3475   43.9923 H   0  0  0  0  0  0  0  0  0  0  0  0
   57.5363   21.5217   46.3992 H   0  0  0  0  0  0  0  0  0  0  0  0
   56.2980   32.6433   44.7835 H   0  0  0  0  0  0  0  0  0  0  0  0
   57.3300   31.2600   45.2750 H   0  0  0  0  0  0  0  0  0  0  0  0
   58.7882   34.4277   44.0224 H   0  0  0  0  0  0  0  0  0  0  0  0
   60.1144   35.9898   45.4502 H   0  0  0  0  0  0  0  0  0  0  0  0
   60.2176   35.6418   47.9228 H   0  0  0  0  0  0  0  0  0  0  0  0
   58.9801   33.7431   48.9704 H   0  0  0  0  0  0  0  0  0  0  0  0
   57.6537   32.1780   47.5494 H   0  0  0  0  0  0  0  0  0  0  0  0
  1  2  2  0
  2  3  1  0
  3  4  1  0
  4  5  1  0
  5  6  2  0
  5  7  1  0
  7  8  2  0
  8  9  1  0
  9 10  2  0
 10 11  1  0
 11 12  2  0
 12 13  1  0
 13 14  1  0
 14 15  2  0
 14 16  1  0
 16 17  2  0
 17 18  1  0
 18 19  2  0
 19 20  1  0
 20 21  2  0
 21 22  1  0
  2 23  1  0
 23 24  1  0
 24 25  1  0
 25 26  2  0
 26 27  1  0
 27 28  2  0
 28 29  1  0
 29 30  2  0
 12  7  1  0
 21 16  1  0
 30 25  1  0
  3 31  1  0
  3 32  1  0
  4 33  1  0
  8 34  1  0
  9 35  1  0
 10 36  1  0
 11 37  1  0
 17 38  1  0
 18 39  1  0
 19 40  1  0
 20 41  1  0
 24 42  1  0
 24 43  1  0
 26 44  1  0
 27 45  1  0
 28 46  1  0
 29 47  1  0
 30 48  1  0
M  CHG  2  13  -1  23  -1
M  END
>  <UniqueID>  (69) 
66

>  <SMILES>  (69) 
O=C(CNC(=O)c1ccccc1[N-]C(=O)c1ccccc1Cl)[N-]Cc1ccccc1

>  <Energy>  (69) 
58.03220914692348

>  <Genealogy>  (69) 
O=C(CNC(=O)c1ccccc1[N-]C(=O)c1ccccc1Cl)[N-]Cc1ccccc1 (protonated)
O=C(CNC(=O)c1ccccc1[N-]C(=O)c1ccccc1Cl)[N-]Cc1ccccc1 (3D coordinates assigned)
O=C(CNC(=O)c1ccccc1[N-]C(=O)c1ccccc1Cl)[N-]Cc1ccccc1 (optimized conformer: 58.03220914692348 kcal/mol)

>  <smiles>  (69) 
O=C(CNC(=O)c1ccccc1NC(=O)c1ccccc1Cl)NCc1ccccc1

>  <score_type>  (69) 
oracle

>  <origin>  (69) 
adg

>  <m_score__min__energy>  (69) 
-13.32

>  <m_primary>  (69) 
energy

$$$$
69:0
     RDKit          3D

 48 50  0  0  0  0  0  0  0  0999 V2000
   51.4120   32.5650   50.6640 N   0  0  0  0  0  0  0  0  0  0  0  0
   50.9850   32.5290   52.0220 C   0  0  0  0  0  0  0  0  0  0  0  0
   50.2560   33.4650   52.4540 O   0  0  0  0  0  0  0  0  0  0  0  0
   51.3600   31.4010   52.9180 C   0  0  0  0  0  0  0  0  0  0  0  0
   50.3970   30.8890   53.8120 C   0  0  0  0  0  0  0  0  0  0  0  0
   50.7010   29.8210   54.6580 C   0  0  0  0  0  0  0  0  0  0  0  0
   51.9720   29.2500   54.6320 C   0  0  0  0  0  0  0  0  0  0  0  0
   52.9450   29.7480   53.7650 C   0  0  0  0  0  0  0  0  0  0  0  0
   52.6560   30.8270   52.9030 C   0  0  0  0  0  0  0  0  0  0  0  0
   53.6360   31.3490   52.0390 O   0  0  0  0  0  0  0  0  0  0  0  0
   54.5640   30.5650   51.2950 C   0  0  0  0  0  0  0  0  0  0  0  0
   55.8800   30.4900   52.0030 C   0  0  0  0  0  0  0  0  0  0  0  0
   56.3380   29.3800   52.3890 O   0  0  0  0  0  0  0  0  0  0  0  0
   56.5950   31.7000   52.2690 N   0  0  0  0  0  0  0  0  0  0  0  0
   57.9910   31.9150   51.9050 C   0  0  0  0  0  0  0  0  0  0  0  0
   58.2620   31.4320   50.5030 C   0  0  0  0  0  0  0  0  0  0  0  0
   58.3830   32.3510   49.4490 C   0  0  0  0  0  0  0  0  0  0  0  0
   58.6600   31.9090   48.1530 C   0  0  0  0  0  0  0  0  0  0  0  0
   58.8120   30.5380   47.8850 C   0  0  0  0  0  0  0  0  0  0  0  0
   59.1040   30.0590   46.5120 C   0  0  0  0  0  0  0  0  0  0  0  0
   60.1880   30.3830   45.9610 O   0  0  0  0  0  0  0  0  0  0  0  0
   58.1590   29.2850   45.7620 N   0  0  0  0  0  0  0  0  0  0  0  0
   57.7770   27.9280   46.0350 C   0  0  0  0  0  0  0  0  0  0  0  0
   58.7020   26.9910   46.5320 C   0  0  0  0  0  0  0  0  0  0  0  0
   58.3070   25.6720   46.7740 C   0  0  0  0  0  0  0  0  0  0  0  0
   56.9940   25.2740   46.5110 C   0  0  0  0  0  0  0  0  0  0  0  0
   56.0760   26.1920   45.9960 C   0  0  0  0  0  0  0  0  0  0  0  0
   54.8050   25.7980   45.7340 F   0  0  0  0  0  0  0  0  0  0  0  0
   56.4660   27.5140   45.7520 C   0  0  0  0  0  0  0  0  0  0  0  0
   55.5430   28.4210   45.2400 O   0  0  0  0  0  0  0  0  0  0  0  0
   58.7170   29.6210   48.9460 C   0  0  0  0  0  0  0  0  0  0  0  0
   58.4480   30.0640   50.2440 C   0  0  0  0  0  0  0  0  0  0  0  0
   52.3620   32.2260   50.3910 H   0  0  0  0  0  0  0  0  0  0  0  0
   49.3929   31.3372   53.8431 H   0  0  0  0  0  0  0  0  0  0  0  0
   49.9367   29.4298   55.3457 H   0  0  0  0  0  0  0  0  0  0  0  0
   52.2084   28.4055   55.2960 H   0  0  0  0  0  0  0  0  0  0  0  0
   53.9473   29.2950   53.7533 H   0  0  0  0  0  0  0  0  0  0  0  0
   54.1614   29.5487   51.1724 H   0  0  0  0  0  0  0  0  0  0  0  0
   54.7172   31.0358   50.3127 H   0  0  0  0  0  0  0  0  0  0  0  0
   58.2176   32.9897   51.9658 H   0  0  0  0  0  0  0  0  0  0  0  0
   58.6269   31.3482   52.6010 H   0  0  0  0  0  0  0  0  0  0  0  0
   58.2589   33.4263   49.6447 H   0  0  0  0  0  0  0  0  0  0  0  0
   58.7598   32.6394   47.3366 H   0  0  0  0  0  0  0  0  0  0  0  0
   59.7395   27.2976   46.7308 H   0  0  0  0  0  0  0  0  0  0  0  0
   59.0314   24.9462   47.1722 H   0  0  0  0  0  0  0  0  0  0  0  0
   56.6832   24.2377   46.7095 H   0  0  0  0  0  0  0  0  0  0  0  0
   58.8554   28.5469   48.7534 H   0  0  0  0  0  0  0  0  0  0  0  0
   58.3816   29.3374   51.0672 H   0  0  0  0  0  0  0  0  0  0  0  0
  1  2  1  0
  2  3  2  0
  2  4  1  0
  4  5  2  0
  5  6  1  0
  6  7  2  0
  7  8  1  0
  8  9  2  0
  9 10  1  0
 10 11  1  0
 11 12  1  0
 12 13  2  0
 12 14  1  0
 14 15  1  0
 15 16  1  0
 16 17  2  0
 17 18  1  0
 18 19  2  0
 19 20  1  0
 20 21  2  0
 20 22  1  0
 22 23  1  0
 23 24  2  0
 24 25  1  0
 25 26  2  0
 26 27  1  0
 27 28  1  0
 27 29  2  0
 29 30  1  0
 19 31  1  0
 31 32  2  0
  9  4  1  0
 32 16  1  0
 29 23  1  0
  1 33  1  0
  5 34  1  0
  6 35  1  0
  7 36  1  0
  8 37  1  0
 11 38  1  0
 11 39  1  0
 15 40  1  0
 15 41  1  0
 17 42  1  0
 18 43  1  0
 24 44  1  0
 25 45  1  0
 26 46  1  0
 31 47  1  0
 32 48  1  0
M  CHG  4   1  -1  14  -1  22  -1  30  -1
M  END
>  <UniqueID>  (70) 
67

>  <SMILES>  (70) 
[NH-]C(=O)c1ccccc1OCC(=O)[N-]Cc1ccc(C(=O)[N-]c2cccc(F)c2[O-])cc1

>  <Energy>  (70) 
57.4025736979417

>  <Genealogy>  (70) 
[NH-]C(=O)c1ccccc1OCC(=O)[N-]Cc1ccc(C(=O)[N-]c2cccc(F)c2[O-])cc1 (protonated)
[NH-]C(=O)c1ccccc1OCC(=O)[N-]Cc1ccc(C(=O)[N-]c2cccc(F)c2[O-])cc1 (3D coordinates assigned)
[NH-]C(=O)c1ccccc1OCC(=O)[N-]Cc1ccc(C(=O)[N-]c2cccc(F)c2[O-])cc1 (optimized conformer: 57.4025736979417 kcal/mol)

>  <smiles>  (70) 
NC(=O)c1ccccc1OCC(=O)NCc1ccc(C(=O)Nc2cccc(F)c2O)cc1

>  <score_type>  (70) 
oracle

>  <origin>  (70) 
adg

>  <m_score__min__energy>  (70) 
-17.079999999999998

>  <m_primary>  (70) 
energy

$$$$
70:0
     RDKit          3D

 49 51  0  0  0  0  0  0  0  0999 V2000
   63.2980   33.8520   46.5740 C   0  0  0  0  0  0  0  0  0  0  0  0
   63.4190   32.1230   47.1300 S   0  0  0  0  0  0  0  0  0  0  0  0
   62.4850   32.4160   48.6330 C   0  0  0  0  0  0  0  0  0  0  0  0
   62.6210   33.6300   49.3160 C   0  0  0  0  0  0  0  0  0  0  0  0
   61.8900   33.8580   50.4860 C   0  0  0  0  0  0  0  0  0  0  0  0
   61.0350   32.8720   50.9820 C   0  0  0  0  0  0  0  0  0  0  0  0
   60.9170   31.6380   50.3180 C   0  0  0  0  0  0  0  0  0  0  0  0
   60.0520   30.6010   50.8040 N   0  0  0  0  0  0  0  0  0  0  0  0
   58.9710   29.9920   50.0830 C   0  0  0  0  0  0  0  0  0  0  0  0
   57.8040   30.1030   50.5430 O   0  0  0  0  0  0  0  0  0  0  0  0
   59.1800   29.2880   48.7930 C   0  0  0  0  0  0  0  0  0  0  0  0
   60.0280   28.1680   48.7310 C   0  0  0  0  0  0  0  0  0  0  0  0
   60.2260   27.5000   47.5200 C   0  0  0  0  0  0  0  0  0  0  0  0
   59.5830   27.9390   46.3600 C   0  0  0  0  0  0  0  0  0  0  0  0
   58.7300   29.0480   46.4080 C   0  0  0  0  0  0  0  0  0  0  0  0
   57.9170   29.6010   44.9450 S   0  0  0  0  0  0  0  0  0  0  0  0
   58.0360   28.5590   43.8680 O   0  0  0  0  0  0  0  0  0  0  0  0
   56.4570   29.7930   45.2490 O   0  0  0  0  0  0  0  0  0  0  0  0
   58.5760   31.1160   44.3910 N   0  0  0  0  0  0  0  0  0  0  0  0
   57.5310   32.0390   43.9400 C   0  0  0  0  0  0  0  0  0  0  0  0
   56.9520   32.8580   45.1010 C   0  0  0  0  0  0  0  0  0  0  0  0
   58.0380   33.4780   45.9420 C   0  0  0  0  0  0  0  0  0  0  0  0
   58.1900   33.1070   47.2880 C   0  0  0  0  0  0  0  0  0  0  0  0
   59.1780   33.7050   48.0780 C   0  0  0  0  0  0  0  0  0  0  0  0
   60.0150   34.6800   47.5310 C   0  0  0  0  0  0  0  0  0  0  0  0
   59.8660   35.0600   46.1940 C   0  0  0  0  0  0  0  0  0  0  0  0
   58.8800   34.4660   45.4020 C   0  0  0  0  0  0  0  0  0  0  0  0
   58.5180   29.7090   47.6270 C   0  0  0  0  0  0  0  0  0  0  0  0
   61.6300   31.4250   49.1320 C   0  0  0  0  0  0  0  0  0  0  0  0
   63.2515   34.5163   47.4495 H   0  0  0  0  0  0  0  0  0  0  0  0
   64.1806   34.1050   45.9682 H   0  0  0  0  0  0  0  0  0  0  0  0
   62.3887   33.9796   45.9682 H   0  0  0  0  0  0  0  0  0  0  0  0
   63.3022   34.4040   48.9328 H   0  0  0  0  0  0  0  0  0  0  0  0
   61.9888   34.8164   51.0168 H   0  0  0  0  0  0  0  0  0  0  0  0
   60.4517   33.0610   51.8952 H   0  0  0  0  0  0  0  0  0  0  0  0
   60.5378   27.8162   49.6401 H   0  0  0  0  0  0  0  0  0  0  0  0
   60.8910   26.6247   47.4797 H   0  0  0  0  0  0  0  0  0  0  0  0
   59.7471   27.4128   45.4081 H   0  0  0  0  0  0  0  0  0  0  0  0
   57.9609   32.7281   43.1982 H   0  0  0  0  0  0  0  0  0  0  0  0
   56.7159   31.4440   43.5024 H   0  0  0  0  0  0  0  0  0  0  0  0
   56.3178   33.6580   44.6914 H   0  0  0  0  0  0  0  0  0  0  0  0
   56.3677   32.1803   45.7408 H   0  0  0  0  0  0  0  0  0  0  0  0
   57.5293   32.3428   47.7232 H   0  0  0  0  0  0  0  0  0  0  0  0
   59.2955   33.4070   49.1303 H   0  0  0  0  0  0  0  0  0  0  0  0
   60.7919   35.1492   48.1525 H   0  0  0  0  0  0  0  0  0  0  0  0
   60.5262   35.8280   45.7647 H   0  0  0  0  0  0  0  0  0  0  0  0
   58.7621   34.7725   44.3522 H   0  0  0  0  0  0  0  0  0  0  0  0
   57.8276   30.5643   47.6706 H   0  0  0  0  0  0  0  0  0  0  0  0
   61.5182   30.4747   48.5894 H   0  0  0  0  0  0  0  0  0  0  0  0
  1  2  1  0
  2  3  1  0
  3  4  2  0
  4  5  1  0
  5  6  2  0
  6  7  1  0
  7  8  1  0
  8  9  1  0
  9 10  2  0
  9 11  1  0
 11 12  2  0
 12 13  1  0
 13 14  2  0
 14 15  1  0
 15 16  1  0
 16 17  2  0
 16 18  2  0
 16 19  1  0
 19 20  1  0
 20 21  1  0
 21 22  1  0
 22 23  2  0
 23 24  1  0
 24 25  2  0
 25 26  1  0
 26 27  2  0
 15 28  2  0
  7 29  2  0
 29  3  1  0
 28 11  1  0
 27 22  1  0
  1 30  1  0
  1 31  1  0
  1 32  1  0
  4 33  1  0
  5 34  1  0
  6 35  1  0
 12 36  1  0
 13 37  1  0
 14 38  1  0
 20 39  1  0
 20 40  1  0
 21 41  1  0
 21 42  1  0
 23 43  1  0
 24 44  1  0
 25 45  1  0
 26 46  1  0
 27 47  1  0
 28 48  1  0
 29 49  1  0
M  CHG  2   8  -1  19  -1
M  END
>  <UniqueID>  (71) 
68

>  <SMILES>  (71) 
CSc1cccc([N-]C(=O)c2cccc(S(=O)(=O)[N-]CCc3ccccc3)c2)c1

>  <Energy>  (71) 
50.871786465722316

>  <Genealogy>  (71) 
CSc1cccc([N-]C(=O)c2cccc(S(=O)(=O)[N-]CCc3ccccc3)c2)c1 (protonated)
CSc1cccc([N-]C(=O)c2cccc(S(=O)(=O)[N-]CCc3ccccc3)c2)c1 (3D coordinates assigned)
CSc1cccc([N-]C(=O)c2cccc(S(=O)(=O)[N-]CCc3ccccc3)c2)c1 (optimized conformer: 50.871786465722316 kcal/mol)

>  <smiles>  (71) 
CSc1cccc(NC(=O)c2cccc(S(=O)(=O)NCCc3ccccc3)c2)c1

>  <score_type>  (71) 
oracle

>  <origin>  (71) 
adg

>  <m_score__min__energy>  (71) 
-12.16

>  <m_primary>  (71) 
energy

$$$$
71:0
     RDKit          3D

 52 54  0  0  0  0  0  0  0  0999 V2000
   54.7560   26.3310   45.9870 N   0  0  0  0  0  0  0  0  0  0  0  0
   56.1200   25.3160   46.2990 S   0  0  0  0  0  0  0  0  0  0  0  0
   55.8910   24.4880   47.5330 O   0  0  0  0  0  0  0  0  0  0  0  0
   56.3180   24.3980   45.1250 O   0  0  0  0  0  0  0  0  0  0  0  0
   57.5420   26.2830   46.4990 N   0  0  0  0  0  0  0  0  0  0  0  0
   57.6900   27.6430   46.0680 C   0  0  0  0  0  0  0  0  0  0  0  0
   58.4530   28.5140   46.8530 C   0  0  0  0  0  0  0  0  0  0  0  0
   58.6380   29.8430   46.4650 C   0  0  0  0  0  0  0  0  0  0  0  0
   58.0700   30.3180   45.2680 C   0  0  0  0  0  0  0  0  0  0  0  0
   58.2480   31.6400   44.8260 O   0  0  0  0  0  0  0  0  0  0  0  0
   57.6510   32.7920   45.4210 C   0  0  0  0  0  0  0  0  0  0  0  0
   58.4070   33.2860   46.6360 C   0  0  0  0  0  0  0  0  0  0  0  0
   58.1870   32.7130   47.9020 C   0  0  0  0  0  0  0  0  0  0  0  0
   58.8670   33.1910   49.0320 C   0  0  0  0  0  0  0  0  0  0  0  0
   58.6450   32.5640   50.3820 C   0  0  0  0  0  0  0  0  0  0  0  0
   59.6890   31.5860   50.6720 N   0  0  0  0  0  0  0  0  0  0  0  0
   59.8400   30.3550   49.9610 C   0  0  0  0  0  0  0  0  0  0  0  0
   58.8140   29.7080   49.6250 O   0  0  0  0  0  0  0  0  0  0  0  0
   61.1440   29.8570   49.6490 N   0  0  0  0  0  0  0  0  0  0  0  0
   62.3790   30.5770   49.9390 C   0  0  0  0  0  0  0  0  0  0  0  0
   62.6440   31.6090   48.8720 C   0  0  0  0  0  0  0  0  0  0  0  0
   61.8040   31.6760   47.7470 C   0  0  0  0  0  0  0  0  0  0  0  0
   62.0330   32.6260   46.7490 C   0  0  0  0  0  0  0  0  0  0  0  0
   63.1050   33.5120   46.8590 C   0  0  0  0  0  0  0  0  0  0  0  0
   63.9540   33.4480   47.9660 C   0  0  0  0  0  0  0  0  0  0  0  0
   63.7330   32.5030   48.9740 C   0  0  0  0  0  0  0  0  0  0  0  0
   64.8330   32.4650   50.3500 Cl  0  0  0  0  0  0  0  0  0  0  0  0
   59.7430   34.2770   48.9020 C   0  0  0  0  0  0  0  0  0  0  0  0
   59.9510   34.8660   47.6550 C   0  0  0  0  0  0  0  0  0  0  0  0
   59.2840   34.3830   46.5210 C   0  0  0  0  0  0  0  0  0  0  0  0
   59.4880   34.9950   45.2850 O   0  0  0  0  0  0  0  0  0  0  0  0
   57.3120   29.4460   44.4810 C   0  0  0  0  0  0  0  0  0  0  0  0
   57.1100   28.1210   44.8790 C   0  0  0  0  0  0  0  0  0  0  0  0
   54.7310   27.0650   46.7300 H   0  0  0  0  0  0  0  0  0  0  0  0
   58.9113   28.1490   47.7840 H   0  0  0  0  0  0  0  0  0  0  0  0
   59.2299   30.5210   47.0974 H   0  0  0  0  0  0  0  0  0  0  0  0
   57.6227   33.5984   44.6734 H   0  0  0  0  0  0  0  0  0  0  0  0
   56.6421   32.5065   45.7535 H   0  0  0  0  0  0  0  0  0  0  0  0
   57.4744   31.8816   48.0068 H   0  0  0  0  0  0  0  0  0  0  0  0
   58.6610   33.3491   51.1523 H   0  0  0  0  0  0  0  0  0  0  0  0
   57.6709   32.0529   50.3799 H   0  0  0  0  0  0  0  0  0  0  0  0
   62.2870   31.0780   50.9140 H   0  0  0  0  0  0  0  0  0  0  0  0
   63.2143   29.8616   49.9612 H   0  0  0  0  0  0  0  0  0  0  0  0
   60.9609   30.9758   47.6520 H   0  0  0  0  0  0  0  0  0  0  0  0
   61.3670   32.6756   45.8749 H   0  0  0  0  0  0  0  0  0  0  0  0
   63.2816   34.2614   46.0734 H   0  0  0  0  0  0  0  0  0  0  0  0
   64.8015   34.1446   48.0460 H   0  0  0  0  0  0  0  0  0  0  0  0
   60.2684   34.6663   49.7865 H   0  0  0  0  0  0  0  0  0  0  0  0
   60.6434   35.7156   47.5609 H   0  0  0  0  0  0  0  0  0  0  0  0
   59.5150   34.4590   44.4240 H   0  0  0  0  0  0  0  0  0  0  0  0
   56.8704   29.8056   43.5399 H   0  0  0  0  0  0  0  0  0  0  0  0
   56.4956   27.4503   44.2604 H   0  0  0  0  0  0  0  0  0  0  0  0
  1  2  1  0
  2  3  2  0
  2  4  2  0
  2  5  1  0
  5  6  1  0
  6  7  2  0
  7  8  1  0
  8  9  2  0
  9 10  1  0
 10 11  1  0
 11 12  1  0
 12 13  2  0
 13 14  1  0
 14 15  1  0
 15 16  1  0
 16 17  1  0
 17 18  2  0
 17 19  1  0
 19 20  1  0
 20 21  1  0
 21 22  2  0
 22 23  1  0
 23 24  2  0
 24 25  1  0
 25 26  2  0
 26 27  1  0
 14 28  2  0
 28 29  1  0
 29 30  2  0
 30 31  1  0
  9 32  1  0
 32 33  2  0
 33  6  1  0
 30 12  1  0
 26 21  1  0
  1 34  1  0
  7 35  1  0
  8 36  1  0
 11 37  1  0
 11 38  1  0
 13 39  1  0
 15 40  1  0
 15 41  1  0
 20 42  1  0
 20 43  1  0
 22 44  1  0
 23 45  1  0
 24 46  1  0
 25 47  1  0
 28 48  1  0
 29 49  1  0
 31 50  1  0
 32 51  1  0
 33 52  1  0
M  CHG  4   1  -1   5  -1  16  -1  19  -1
M  END
>  <UniqueID>  (72) 
69

>  <SMILES>  (72) 
[NH-]S(=O)(=O)[N-]c1ccc(OCc2cc(C[N-]C(=O)[N-]Cc3ccccc3Cl)ccc2O)cc1

>  <Energy>  (72) 
52.34893328200944

>  <Genealogy>  (72) 
[NH-]S(=O)(=O)[N-]c1ccc(OCc2cc(C[N-]C(=O)[N-]Cc3ccccc3Cl)ccc2O)cc1 (protonated)
[NH-]S(=O)(=O)[N-]c1ccc(OCc2cc(C[N-]C(=O)[N-]Cc3ccccc3Cl)ccc2O)cc1 (3D coordinates assigned)
[NH-]S(=O)(=O)[N-]c1ccc(OCc2cc(C[N-]C(=O)[N-]Cc3ccccc3Cl)ccc2O)cc1 (optimized conformer: 52.34893328200944 kcal/mol)

>  <smiles>  (72) 
NS(=O)(=O)Nc1ccc(OCc2cc(CNC(=O)NCc3ccccc3Cl)ccc2O)cc1

>  <score_type>  (72) 
oracle

>  <origin>  (72) 
adg

>  <m_score__min__energy>  (72) 
-14.279999999999999

>  <m_primary>  (72) 
energy

$$$$
72:0
     RDKit          3D

 40 42  0  0  0  0  0  0  0  0999 V2000
   52.2590   28.2290   53.3330 O   0  0  0  0  0  0  0  0  0  0  0  0
   52.8430   29.3010   53.0220 C   0  0  0  0  0  0  0  0  0  0  0  0
   54.0950   29.6080   53.6520 N   0  0  0  0  0  0  0  0  0  0  0  0
   55.3070   29.9860   52.9830 C   0  0  0  0  0  0  0  0  0  0  0  0
   55.4100   31.1930   52.2680 C   0  0  0  0  0  0  0  0  0  0  0  0
   56.6050   31.5310   51.6290 C   0  0  0  0  0  0  0  0  0  0  0  0
   57.7040   30.6650   51.6840 C   0  0  0  0  0  0  0  0  0  0  0  0
   59.2110   31.1090   50.8890 S   0  0  0  0  0  0  0  0  0  0  0  0
   60.1460   29.9320   50.8690 O   0  0  0  0  0  0  0  0  0  0  0  0
   58.9080   31.5250   49.4770 O   0  0  0  0  0  0  0  0  0  0  0  0
   59.9610   32.4320   51.7500 N   0  0  0  0  0  0  0  0  0  0  0  0
   59.3870   33.7340   51.3400 C   0  0  0  0  0  0  0  0  0  0  0  0
   58.4700   34.3330   52.4200 C   0  0  0  0  0  0  0  0  0  0  0  0
   59.1280   34.5260   53.6630 O   0  0  0  0  0  0  0  0  0  0  0  0
   60.0760   33.5110   53.9750 C   0  0  0  0  0  0  0  0  0  0  0  0
   59.8760   32.1960   53.2040 C   0  0  0  0  0  0  0  0  0  0  0  0
   57.5910   29.4470   52.3650 C   0  0  0  0  0  0  0  0  0  0  0  0
   56.3960   29.1080   53.0060 C   0  0  0  0  0  0  0  0  0  0  0  0
   52.1950   30.2280   52.0620 C   0  0  0  0  0  0  0  0  0  0  0  0
   51.7280   31.4790   52.4950 C   0  0  0  0  0  0  0  0  0  0  0  0
   51.1200   32.3430   51.5810 C   0  0  0  0  0  0  0  0  0  0  0  0
   50.6440   33.5780   52.0020 O   0  0  0  0  0  0  0  0  0  0  0  0
   50.9910   31.9780   50.2790 N   0  0  0  0  0  0  0  0  0  0  0  0
   51.4460   30.7800   49.8250 C   0  0  0  0  0  0  0  0  0  0  0  0
   51.3130   30.4800   48.6100 O   0  0  0  0  0  0  0  0  0  0  0  0
   52.0620   29.8860   50.7060 C   0  0  0  0  0  0  0  0  0  0  0  0
   54.5469   31.8726   52.2120 H   0  0  0  0  0  0  0  0  0  0  0  0
   56.6832   32.4812   51.0804 H   0  0  0  0  0  0  0  0  0  0  0  0
   60.2097   34.4375   51.1443 H   0  0  0  0  0  0  0  0  0  0  0  0
   58.7799   33.5655   50.4383 H   0  0  0  0  0  0  0  0  0  0  0  0
   58.0996   35.3060   52.0649 H   0  0  0  0  0  0  0  0  0  0  0  0
   57.6512   33.6182   52.5892 H   0  0  0  0  0  0  0  0  0  0  0  0
   61.0804   33.8957   53.7442 H   0  0  0  0  0  0  0  0  0  0  0  0
   59.9420   33.2734   55.0406 H   0  0  0  0  0  0  0  0  0  0  0  0
   60.6565   31.4799   53.5008 H   0  0  0  0  0  0  0  0  0  0  0  0
   58.8808   31.7919   53.4415 H   0  0  0  0  0  0  0  0  0  0  0  0
   58.4452   28.7547   52.3957 H   0  0  0  0  0  0  0  0  0  0  0  0
   56.3113   28.1454   53.5315 H   0  0  0  0  0  0  0  0  0  0  0  0
   51.8402   31.7772   53.5478 H   0  0  0  0  0  0  0  0  0  0  0  0
   52.4403   28.9204   50.3394 H   0  0  0  0  0  0  0  0  0  0  0  0
  1  2  2  0
  2  3  1  0
  3  4  1  0
  4  5  2  0
  5  6  1  0
  6  7  2  0
  7  8  1  0
  8  9  2  0
  8 10  2  0
  8 11  1  0
 11 12  1  0
 12 13  1  0
 13 14  1  0
 14 15  1  0
 15 16  1  0
  7 17  1  0
 17 18  2  0
  2 19  1  0
 19 20  1  0
 20 21  2  0
 21 22  1  0
 21 23  1  0
 23 24  1  0
 24 25  2  0
 24 26  1  0
 18  4  1  0
 26 19  2  0
 16 11  1  0
  5 27  1  0
  6 28  1  0
 12 29  1  0
 12 30  1  0
 13 31  1  0
 13 32  1  0
 15 33  1  0
 15 34  1  0
 16 35  1  0
 16 36  1  0
 17 37  1  0
 18 38  1  0
 20 39  1  0
 26 40  1  0
M  CHG  3   3  -1  22  -1  23  -1
M  END
>  <UniqueID>  (73) 
70

>  <SMILES>  (73) 
O=C([N-]c1ccc(S(=O)(=O)N2CCOCC2)cc1)c1cc([O-])[n-]c(=O)c1

>  <Energy>  (73) 
61.5112724487991

>  <Genealogy>  (73) 
O=C([N-]c1ccc(S(=O)(=O)N2CCOCC2)cc1)c1cc([O-])[n-]c(=O)c1 (protonated)
O=C([N-]c1ccc(S(=O)(=O)N2CCOCC2)cc1)c1cc([O-])[n-]c(=O)c1 (3D coordinates assigned)
O=C([N-]c1ccc(S(=O)(=O)N2CCOCC2)cc1)c1cc([O-])[n-]c(=O)c1 (nonaromatic ring conformer: 61.5112724487991 kcal/mol)

>  <smiles>  (73) 
O=C(Nc1ccc(S(=O)(=O)N2CCOCC2)cc1)c1cc(O)[nH]c(=O)c1

>  <score_type>  (73) 
oracle

>  <origin>  (73) 
adg

>  <m_score__min__energy>  (73) 
-16.129999999999999

>  <m_primary>  (73) 
energy

$$$$
73:0
     RDKit          3D

 28 29  0  0  0  0  0  0  0  0999 V2000
   56.7750   34.2120   45.1480 N   0  0  0  0  0  0  0  0  0  0  0  0
   57.6340   33.3620   45.9170 C   0  0  0  0  0  0  0  0  0  0  0  0
   58.0820   33.8020   47.1720 C   0  0  0  0  0  0  0  0  0  0  0  0
   58.9820   33.0320   47.9130 C   0  0  0  0  0  0  0  0  0  0  0  0
   59.4480   31.8200   47.4040 C   0  0  0  0  0  0  0  0  0  0  0  0
   59.0000   31.3650   46.1630 C   0  0  0  0  0  0  0  0  0  0  0  0
   58.0730   32.1130   45.4220 C   0  0  0  0  0  0  0  0  0  0  0  0
   57.4680   31.4360   43.8650 S   0  0  0  0  0  0  0  0  0  0  0  0
   57.6150   29.7240   44.4120 C   0  0  0  0  0  0  0  0  0  0  0  0
   58.8610   29.0940   44.3020 C   0  0  0  0  0  0  0  0  0  0  0  0
   59.0380   27.7900   44.7640 C   0  0  0  0  0  0  0  0  0  0  0  0
   57.9680   27.1000   45.3360 C   0  0  0  0  0  0  0  0  0  0  0  0
   56.7050   27.7010   45.4280 C   0  0  0  0  0  0  0  0  0  0  0  0
   55.6150   26.9690   45.9970 N   0  0  0  0  0  0  0  0  0  0  0  0
   56.5170   29.0120   44.9450 C   0  0  0  0  0  0  0  0  0  0  0  0
   55.2390   29.5700   44.9870 O   0  0  0  0  0  0  0  0  0  0  0  0
   56.8080   34.2220   44.1060 H   0  0  0  0  0  0  0  0  0  0  0  0
   56.1810   34.9300   45.6190 H   0  0  0  0  0  0  0  0  0  0  0  0
   57.7220   34.7600   47.5752 H   0  0  0  0  0  0  0  0  0  0  0  0
   59.3233   33.3819   48.8985 H   0  0  0  0  0  0  0  0  0  0  0  0
   60.1691   31.2224   47.9810 H   0  0  0  0  0  0  0  0  0  0  0  0
   59.3768   30.4122   45.7627 H   0  0  0  0  0  0  0  0  0  0  0  0
   59.7064   29.6317   43.8478 H   0  0  0  0  0  0  0  0  0  0  0  0
   60.0215   27.3050   44.6775 H   0  0  0  0  0  0  0  0  0  0  0  0
   58.1167   26.0788   45.7168 H   0  0  0  0  0  0  0  0  0  0  0  0
   54.7650   27.4660   46.3460 H   0  0  0  0  0  0  0  0  0  0  0  0
   55.6370   25.9280   46.0720 H   0  0  0  0  0  0  0  0  0  0  0  0
   55.0670   30.5280   45.2570 H   0  0  0  0  0  0  0  0  0  0  0  0
  1  2  1  0
  2  3  2  0
  3  4  1  0
  4  5  2  0
  5  6  1  0
  6  7  2  0
  7  8  1  0
  8  9  1  0
  9 10  2  0
 10 11  1  0
 11 12  2  0
 12 13  1  0
 13 14  1  0
 13 15  2  0
 15 16  1  0
  7  2  1  0
 15  9  1  0
  1 17  1  0
  1 18  1  0
  3 19  1  0
  4 20  1  0
  5 21  1  0
  6 22  1  0
 10 23  1  0
 11 24  1  0
 12 25  1  0
 14 26  1  0
 14 27  1  0
 16 28  1  0
M  END
>  <UniqueID>  (74) 
71

>  <SMILES>  (74) 
Nc1ccccc1Sc1cccc(N)c1O

>  <Energy>  (74) 
26.895791478755324

>  <Genealogy>  (74) 
Nc1ccccc1Sc1cccc(N)c1O (3D coordinates assigned)
Nc1ccccc1Sc1cccc(N)c1O (optimized conformer: 26.895791478755324 kcal/mol)

>  <smiles>  (74) 
Nc1ccccc1Sc1cccc(N)c1O

>  <score_type>  (74) 
oracle

>  <origin>  (74) 
adg

>  <m_score__min__energy>  (74) 
-7.5800000000000001

>  <m_primary>  (74) 
energy

$$$$
74:0
     RDKit          3D

 34 35  0  0  0  0  0  0  0  0999 V2000
   63.0190   31.8580   47.5210 C   0  0  0  0  0  0  0  0  0  0  0  0
   62.8410   33.6290   47.5670 S   0  0  0  0  0  0  0  0  0  0  0  0
   63.5600   34.2000   48.7570 O   0  0  0  0  0  0  0  0  0  0  0  0
   63.4480   34.2030   46.3170 O   0  0  0  0  0  0  0  0  0  0  0  0
   61.1610   34.0620   47.6220 N   0  0  0  0  0  0  0  0  0  0  0  0
   60.1250   33.4200   46.8560 C   0  0  0  0  0  0  0  0  0  0  0  0
   59.5370   32.2060   47.2610 C   0  0  0  0  0  0  0  0  0  0  0  0
   58.5320   31.6150   46.4910 C   0  0  0  0  0  0  0  0  0  0  0  0
   58.0930   32.2240   45.3060 C   0  0  0  0  0  0  0  0  0  0  0  0
   56.9930   31.5930   44.4970 C   0  0  0  0  0  0  0  0  0  0  0  0
   56.6720   30.2710   45.0240 N   0  0  0  0  0  0  0  0  0  0  0  0
   57.5180   29.1270   44.8660 C   0  0  0  0  0  0  0  0  0  0  0  0
   58.5450   29.1960   44.1380 O   0  0  0  0  0  0  0  0  0  0  0  0
   57.1800   27.8710   45.5590 C   0  0  0  0  0  0  0  0  0  0  0  0
   58.1660   27.0760   46.1580 C   0  0  0  0  0  0  0  0  0  0  0  0
   57.7950   25.8960   46.8000 C   0  0  0  0  0  0  0  0  0  0  0  0
   56.4480   25.5350   46.8320 C   0  0  0  0  0  0  0  0  0  0  0  0
   56.0860   24.4760   47.4050 O   0  0  0  0  0  0  0  0  0  0  0  0
   55.5270   26.3370   46.2380 N   0  0  0  0  0  0  0  0  0  0  0  0
   55.8810   27.4660   45.6230 N   0  0  0  0  0  0  0  0  0  0  0  0
   58.6680   33.4390   44.9060 C   0  0  0  0  0  0  0  0  0  0  0  0
   59.6740   34.0310   45.6760 C   0  0  0  0  0  0  0  0  0  0  0  0
   63.0583   31.4666   48.5483 H   0  0  0  0  0  0  0  0  0  0  0  0
   62.1607   31.4168   46.9932 H   0  0  0  0  0  0  0  0  0  0  0  0
   63.9480   31.5964   46.9932 H   0  0  0  0  0  0  0  0  0  0  0  0
   60.9110   34.8870   48.2130 H   0  0  0  0  0  0  0  0  0  0  0  0
   59.8711   31.7200   48.1895 H   0  0  0  0  0  0  0  0  0  0  0  0
   58.0819   30.6655   46.8163 H   0  0  0  0  0  0  0  0  0  0  0  0
   56.0972   32.2297   44.5436 H   0  0  0  0  0  0  0  0  0  0  0  0
   57.3287   31.4910   43.4545 H   0  0  0  0  0  0  0  0  0  0  0  0
   59.2225   27.3802   46.1219 H   0  0  0  0  0  0  0  0  0  0  0  0
   58.5544   25.2577   47.2752 H   0  0  0  0  0  0  0  0  0  0  0  0
   58.3260   33.9286   43.9822 H   0  0  0  0  0  0  0  0  0  0  0  0
   60.1162   34.9852   45.3535 H   0  0  0  0  0  0  0  0  0  0  0  0
  1  2  1  0
  2  3  2  0
  2  4  2  0
  2  5  1  0
  5  6  1  0
  6  7  2  0
  7  8  1  0
  8  9  2  0
  9 10  1  0
 10 11  1  0
 11 12  1  0
 12 13  2  0
 12 14  1  0
 14 15  1  0
 15 16  2  0
 16 17  1  0
 17 18  2  0
 17 19  1  0
 19 20  1  0
  9 21  1  0
 21 22  2  0
 22  6  1  0
 20 14  2  0
  1 23  1  0
  1 24  1  0
  1 25  1  0
  5 26  1  0
  7 27  1  0
  8 28  1  0
 10 29  1  0
 10 30  1  0
 15 31  1  0
 16 32  1  0
 21 33  1  0
 22 34  1  0
M  CHG  2  11  -1  19  -1
M  END
>  <UniqueID>  (75) 
72

>  <SMILES>  (75) 
CS(=O)(=O)Nc1ccc(C[N-]C(=O)c2ccc(=O)[n-]n2)cc1

>  <Energy>  (75) 
32.073310034003306

>  <Genealogy>  (75) 
CS(=O)(=O)Nc1ccc(C[N-]C(=O)c2ccc(=O)[n-]n2)cc1 (protonated)
CS(=O)(=O)Nc1ccc(C[N-]C(=O)c2ccc(=O)[n-]n2)cc1 (3D coordinates assigned)
CS(=O)(=O)Nc1ccc(C[N-]C(=O)c2ccc(=O)[n-]n2)cc1 (optimized conformer: 32.073310034003306 kcal/mol)

>  <smiles>  (75) 
CS(=O)(=O)Nc1ccc(CNC(=O)c2ccc(=O)[nH]n2)cc1

>  <score_type>  (75) 
oracle

>  <origin>  (75) 
adg

>  <m_score__min__energy>  (75) 
-11.24

>  <m_primary>  (75) 
energy

$$$$
75:0
     RDKit          3D

 45 47  0  0  1  0  0  0  0  0999 V2000
   61.0900   31.1960   49.9020 C   0  0  0  0  0  0  0  0  0  0  0  0
   61.1350   30.0950   49.1770 C   0  0  0  0  0  0  0  0  0  0  0  0
   59.9400   29.5090   48.5680 C   0  0  0  0  0  0  0  0  0  0  0  0
   58.8510   30.0830   48.7520 O   0  0  0  0  0  0  0  0  0  0  0  0
   60.1030   28.3190   47.8040 N   0  0  0  0  0  0  0  0  0  0  0  0
   59.0200   27.6550   47.1650 C   0  0  0  0  0  0  0  0  0  0  0  0
   58.8670   26.2820   47.2060 C   0  0  0  0  0  0  0  0  0  0  0  0
   57.7980   25.6880   46.5690 C   0  0  0  0  0  0  0  0  0  0  0  0
   56.8430   26.4100   45.8700 C   0  0  0  0  0  0  0  0  0  0  0  0
   57.0210   27.7950   45.8430 C   0  0  0  0  0  0  0  0  0  0  0  0
   56.0770   28.5480   45.1470 O   0  0  0  0  0  0  0  0  0  0  0  0
   56.4630   29.7170   44.4760 C   0  0  0  0  0  0  0  0  0  0  0  0
   56.6240   29.7010   43.0980 C   0  0  0  0  0  0  0  0  0  0  0  0
   57.0050   30.8470   42.4230 C   0  0  0  0  0  0  0  0  0  0  0  0
   57.2000   31.9500   43.1930 N   0  0  0  0  0  0  0  0  0  0  0  0
   57.0360   31.9330   44.5290 C   0  0  0  0  0  0  0  0  0  0  0  0
   57.2350   33.0050   45.2070 N   0  0  0  0  0  0  0  0  0  0  0  0
   58.4790   33.3040   45.8330 C   0  0  0  0  0  0  0  0  0  0  0  0
   58.8870   34.5900   46.1220 C   0  0  0  0  0  0  0  0  0  0  0  0
   60.1270   34.7910   46.7390 C   0  0  0  0  0  0  0  0  0  0  0  0
   60.9500   33.7140   47.0630 C   0  0  0  0  0  0  0  0  0  0  0  0
   62.1790   33.9160   47.6750 O   0  0  0  0  0  0  0  0  0  0  0  0
   63.3300   33.2620   47.1190 C   0  0  0  0  0  0  0  0  0  0  0  0
   60.5010   32.4390   46.7540 C   0  0  0  0  0  0  0  0  0  0  0  0
   59.2850   32.2050   46.1460 C   0  0  0  0  0  0  0  0  0  0  0  0
   56.6660   30.8310   45.2070 N   0  0  0  0  0  0  0  0  0  0  0  0
   58.0870   28.3970   46.4780 C   0  0  0  0  0  0  0  0  0  0  0  0
   62.0124   31.6030   50.3419 H   0  0  0  0  0  0  0  0  0  0  0  0
   60.1300   31.7072   50.0667 H   0  0  0  0  0  0  0  0  0  0  0  0
   62.1052   29.5996   49.0246 H   0  0  0  0  0  0  0  0  0  0  0  0
   61.0490   27.8940   47.6950 H   0  0  0  0  0  0  0  0  0  0  0  0
   59.5981   25.6631   47.7468 H   0  0  0  0  0  0  0  0  0  0  0  0
   57.6986   24.5936   46.6176 H   0  0  0  0  0  0  0  0  0  0  0  0
   55.9957   25.9213   45.3667 H   0  0  0  0  0  0  0  0  0  0  0  0
   56.4475   28.7707   42.5383 H   0  0  0  0  0  0  0  0  0  0  0  0
   57.1416   30.8644   41.3316 H   0  0  0  0  0  0  0  0  0  0  0  0
   57.4930   32.8510   42.7290 H   0  0  0  0  0  0  0  0  0  0  0  0
   58.2452   35.4472   45.8704 H   0  0  0  0  0  0  0  0  0  0  0  0
   60.4569   35.8142   46.9717 H   0  0  0  0  0  0  0  0  0  0  0  0
   63.9731   32.8966   47.9332 H   0  0  0  0  0  0  0  0  0  0  0  0
   63.0056   32.4133   46.4989 H   0  0  0  0  0  0  0  0  0  0  0  0
   63.8931   33.9751   46.4989 H   0  0  0  0  0  0  0  0  0  0  0  0
   61.1403   31.5794   47.0038 H   0  0  0  0  0  0  0  0  0  0  0  0
   58.9580   31.1808   45.9135 H   0  0  0  0  0  0  0  0  0  0  0  0
   58.1933   29.4910   46.4344 H   0  0  0  0  0  0  0  0  0  0  0  0
  1  2  2  0
  2  3  1  0
  3  4  2  0
  3  5  1  0
  5  6  1  0
  6  7  2  0
  7  8  1  0
  8  9  2  0
  9 10  1  0
 10 11  1  0
 11 12  1  0
 12 13  1  0
 13 14  2  0
 14 15  1  0
 15 16  1  0
 16 17  2  0
 17 18  1  0
 18 19  2  0
 19 20  1  0
 20 21  2  0
 21 22  1  0
 22 23  1  0
 21 24  1  0
 24 25  2  0
 16 26  1  0
 10 27  2  0
 27  6  1  0
 26 12  2  0
 25 18  1  0
  1 28  1  0
  1 29  1  0
  2 30  1  0
  5 31  1  0
  7 32  1  0
  8 33  1  0
  9 34  1  0
 13 35  1  0
 14 36  1  0
 15 37  1  0
 19 38  1  0
 20 39  1  0
 23 40  1  0
 23 41  1  0
 23 42  1  0
 24 43  1  0
 25 44  1  0
 27 45  1  0
M  END
>  <smiles>  (76) 
C=CC(=O)Nc1cccc(Oc2cc[nH]c(=Nc3ccc(OC)cc3)n2)c1

>  <score_type>  (76) 
oracle

>  <origin>  (76) 
adg

>  <m_score__min__energy>  (76) 
-8.4800000000000004

>  <m_primary>  (76) 
energy

$$$$
76:0
     RDKit          3D

 34 35  0  0  0  0  0  0  0  0999 V2000
   55.2820   24.7690   45.6160 C   0  0  0  0  0  0  0  0  0  0  0  0
   55.8370   25.8360   46.3760 O   0  0  0  0  0  0  0  0  0  0  0  0
   57.1580   26.2690   46.2180 C   0  0  0  0  0  0  0  0  0  0  0  0
   58.1110   25.4510   46.3270 O   0  0  0  0  0  0  0  0  0  0  0  0
   57.4180   27.6890   45.9230 C   0  0  0  0  0  0  0  0  0  0  0  0
   56.2890   28.7210   45.2170 S   0  0  0  0  0  0  0  0  0  0  0  0
   57.3140   30.0490   45.2500 C   0  0  0  0  0  0  0  0  0  0  0  0
   56.9640   31.2180   44.7970 N   0  0  0  0  0  0  0  0  0  0  0  0
   57.6610   32.0770   43.8810 C   0  0  0  0  0  0  0  0  0  0  0  0
   58.1930   31.6300   42.8320 O   0  0  0  0  0  0  0  0  0  0  0  0
   57.8580   33.5150   44.2450 C   0  0  0  0  0  0  0  0  0  0  0  0
   57.4670   33.7980   46.0080 S   0  0  0  0  0  0  0  0  0  0  0  0
   59.1240   33.4510   46.5930 C   0  0  0  0  0  0  0  0  0  0  0  0
   59.5570   32.2130   46.9100 N   0  0  0  0  0  0  0  0  0  0  0  0
   60.8460   32.2270   47.3450 C   0  0  0  0  0  0  0  0  0  0  0  0
   61.5270   30.9880   47.8250 C   0  0  0  0  0  0  0  0  0  0  0  0
   61.4420   33.4860   47.3910 C   0  0  0  0  0  0  0  0  0  0  0  0
   60.3130   34.6100   46.8470 S   0  0  0  0  0  0  0  0  0  0  0  0
   58.5220   29.7310   45.7790 N   0  0  0  0  0  0  0  0  0  0  0  0
   58.5920   28.4230   46.1580 C   0  0  0  0  0  0  0  0  0  0  0  0
   59.8370   27.8500   46.7700 C   0  0  0  0  0  0  0  0  0  0  0  0
   54.8833   24.0025   46.2969 H   0  0  0  0  0  0  0  0  0  0  0  0
   54.4700   25.1542   44.9818 H   0  0  0  0  0  0  0  0  0  0  0  0
   56.0636   24.3253   44.9818 H   0  0  0  0  0  0  0  0  0  0  0  0
   58.9056   33.7939   44.0587 H   0  0  0  0  0  0  0  0  0  0  0  0
   57.1831   34.1296   43.6312 H   0  0  0  0  0  0  0  0  0  0  0  0
   61.5336   30.9759   48.9249 H   0  0  0  0  0  0  0  0  0  0  0  0
   60.9874   30.1050   47.4519 H   0  0  0  0  0  0  0  0  0  0  0  0
   62.5616   30.9703   47.4519 H   0  0  0  0  0  0  0  0  0  0  0  0
   62.4672   33.7060   47.7235 H   0  0  0  0  0  0  0  0  0  0  0  0
   59.3350   30.3770   45.8670 H   0  0  0  0  0  0  0  0  0  0  0  0
   59.7570   27.8868   47.8665 H   0  0  0  0  0  0  0  0  0  0  0  0
   59.9577   26.8057   46.4460 H   0  0  0  0  0  0  0  0  0  0  0  0
   60.7087   28.4375   46.4460 H   0  0  0  0  0  0  0  0  0  0  0  0
  1  2  1  0
  2  3  1  0
  3  4  2  0
  3  5  1  0
  5  6  1  0
  6  7  1  0
  7  8  2  3
  8  9  1  0
  9 10  2  0
  9 11  1  0
 11 12  1  0
 12 13  1  0
 13 14  2  0
 14 15  1  0
 15 16  1  0
 15 17  2  0
 17 18  1  0
  7 19  1  0
 19 20  1  0
 20 21  1  0
 20  5  2  0
 18 13  1  0
  1 22  1  0
  1 23  1  0
  1 24  1  0
 11 25  1  0
 11 26  1  0
 16 27  1  0
 16 28  1  0
 16 29  1  0
 17 30  1  0
 19 31  1  0
 21 32  1  0
 21 33  1  0
 21 34  1  0
M  END
>  <UniqueID>  (77) 
73

>  <SMILES>  (77) 
COC(=O)c1sc(=NC(=O)CSc2nc(C)cs2)[nH]c1C

>  <Energy>  (77) 
87.78816997363421

>  <Genealogy>  (77) 
COC(=O)c1sc(=NC(=O)CSc2nc(C)cs2)[nH]c1C (3D coordinates assigned)
COC(=O)c1sc(=NC(=O)CSc2nc(C)cs2)[nH]c1C (optimized conformer: 87.78816997363421 kcal/mol)

>  <smiles>  (77) 
COC(=O)c1sc(=NC(=O)CSc2nc(C)cs2)[nH]c1C

>  <score_type>  (77) 
oracle

>  <origin>  (77) 
adg

>  <m_score__min__energy>  (77) 
-7.2000000000000002

>  <m_primary>  (77) 
energy

$$$$
77:0
     RDKit          3D

 44 46  0  0  0  0  0  0  0  0999 V2000
   51.7040   23.6340   44.7390 C   0  0  0  0  0  0  0  0  0  0  0  0
   52.9610   22.9710   44.6700 O   0  0  0  0  0  0  0  0  0  0  0  0
   54.2010   23.6260   44.6460 C   0  0  0  0  0  0  0  0  0  0  0  0
   54.4570   24.5980   45.6200 C   0  0  0  0  0  0  0  0  0  0  0  0
   55.6770   25.2820   45.6380 C   0  0  0  0  0  0  0  0  0  0  0  0
   56.6570   25.0080   44.6670 C   0  0  0  0  0  0  0  0  0  0  0  0
   57.8950   25.6690   44.6530 O   0  0  0  0  0  0  0  0  0  0  0  0
   58.3760   26.4940   45.6780 C   0  0  0  0  0  0  0  0  0  0  0  0
   59.5250   26.0920   46.3700 C   0  0  0  0  0  0  0  0  0  0  0  0
   60.0400   26.8760   47.4040 C   0  0  0  0  0  0  0  0  0  0  0  0
   59.4170   28.0780   47.7470 C   0  0  0  0  0  0  0  0  0  0  0  0
   60.1220   29.1490   49.1630 Br  0  0  0  0  0  0  0  0  0  0  0  0
   58.2850   28.5040   47.0460 C   0  0  0  0  0  0  0  0  0  0  0  0
   57.7600   27.7250   45.9970 C   0  0  0  0  0  0  0  0  0  0  0  0
   56.6420   28.1710   45.2160 N   0  0  0  0  0  0  0  0  0  0  0  0
   56.6330   29.5190   44.1260 S   0  0  0  0  0  0  0  0  0  0  0  0
   56.3890   29.0100   42.7340 O   0  0  0  0  0  0  0  0  0  0  0  0
   55.5220   30.4630   44.4960 O   0  0  0  0  0  0  0  0  0  0  0  0
   58.2140   30.3470   44.1740 C   0  0  0  0  0  0  0  0  0  0  0  0
   58.0970   31.6600   44.8930 C   0  0  0  0  0  0  0  0  0  0  0  0
   57.7750   32.8300   44.1860 C   0  0  0  0  0  0  0  0  0  0  0  0
   57.6330   34.0450   44.8640 C   0  0  0  0  0  0  0  0  0  0  0  0
   57.8030   34.0990   46.2500 C   0  0  0  0  0  0  0  0  0  0  0  0
   58.1110   32.9360   46.9610 C   0  0  0  0  0  0  0  0  0  0  0  0
   58.2530   31.7190   46.2880 C   0  0  0  0  0  0  0  0  0  0  0  0
   56.4090   24.0240   43.7040 C   0  0  0  0  0  0  0  0  0  0  0  0
   55.1890   23.3400   43.6860 C   0  0  0  0  0  0  0  0  0  0  0  0
   51.4246   23.7814   45.7927 H   0  0  0  0  0  0  0  0  0  0  0  0
   51.7768   24.6110   44.2388 H   0  0  0  0  0  0  0  0  0  0  0  0
   50.9388   23.0222   44.2388 H   0  0  0  0  0  0  0  0  0  0  0  0
   53.6926   24.8259   46.3775 H   0  0  0  0  0  0  0  0  0  0  0  0
   55.8707   26.0369   46.4143 H   0  0  0  0  0  0  0  0  0  0  0  0
   60.0256   25.1514   46.0969 H   0  0  0  0  0  0  0  0  0  0  0  0
   60.9371   26.5468   47.9489 H   0  0  0  0  0  0  0  0  0  0  0  0
   57.8011   29.4543   47.3157 H   0  0  0  0  0  0  0  0  0  0  0  0
   58.9408   29.7099   44.6993 H   0  0  0  0  0  0  0  0  0  0  0  0
   58.5498   30.5339   43.1433 H   0  0  0  0  0  0  0  0  0  0  0  0
   57.6341   32.7907   43.0958 H   0  0  0  0  0  0  0  0  0  0  0  0
   57.3870   34.9599   44.3051 H   0  0  0  0  0  0  0  0  0  0  0  0
   57.6945   35.0562   46.7810 H   0  0  0  0  0  0  0  0  0  0  0  0
   58.2420   32.9783   48.0524 H   0  0  0  0  0  0  0  0  0  0  0  0
   58.4877   30.8045   46.8525 H   0  0  0  0  0  0  0  0  0  0  0  0
   57.1791   23.7864   42.9554 H   0  0  0  0  0  0  0  0  0  0  0  0
   55.0012   22.5752   42.9180 H   0  0  0  0  0  0  0  0  0  0  0  0
  1  2  1  0
  2  3  1  0
  3  4  2  0
  4  5  1  0
  5  6  2  0
  6  7  1  0
  7  8  1  0
  8  9  2  0
  9 10  1  0
 10 11  2  0
 11 12  1  0
 11 13  1  0
 13 14  2  0
 14 15  1  0
 15 16  1  0
 16 17  2  0
 16 18  2  0
 16 19  1  0
 19 20  1  0
 20 21  2  0
 21 22  1  0
 22 23  2  0
 23 24  1  0
 24 25  2  0
  6 26  1  0
 26 27  2  0
 27  3  1  0
 14  8  1  0
 25 20  1  0
  1 28  1  0
  1 29  1  0
  1 30  1  0
  4 31  1  0
  5 32  1  0
  9 33  1  0
 10 34  1  0
 13 35  1  0
 19 36  1  0
 19 37  1  0
 21 38  1  0
 22 39  1  0
 23 40  1  0
 24 41  1  0
 25 42  1  0
 26 43  1  0
 27 44  1  0
M  CHG  1  15  -1
M  END
>  <UniqueID>  (78) 
74

>  <SMILES>  (78) 
COc1ccc(Oc2ccc(Br)cc2[N-]S(=O)(=O)Cc2ccccc2)cc1

>  <Energy>  (78) 
51.5161653156735

>  <Genealogy>  (78) 
COc1ccc(Oc2ccc(Br)cc2[N-]S(=O)(=O)Cc2ccccc2)cc1 (protonated)
COc1ccc(Oc2ccc(Br)cc2[N-]S(=O)(=O)Cc2ccccc2)cc1 (3D coordinates assigned)
COc1ccc(Oc2ccc(Br)cc2[N-]S(=O)(=O)Cc2ccccc2)cc1 (optimized conformer: 51.5161653156735 kcal/mol)

>  <smiles>  (78) 
COc1ccc(Oc2ccc(Br)cc2NS(=O)(=O)Cc2ccccc2)cc1

>  <score_type>  (78) 
oracle

>  <origin>  (78) 
adg

>  <m_score__min__energy>  (78) 
-11.119999999999999

>  <m_primary>  (78) 
energy

$$$$
78:0
     RDKit          3D

 27 28  0  0  0  0  0  0  0  0999 V2000
   55.1400   27.5210   45.5910 H   0  0  0  0  0  0  0  0  0  0  0  0
   54.9190   26.6110   45.9740 O   0  0  0  0  0  0  0  0  0  0  0  0
   55.9180   25.7290   46.3770 C   0  0  0  0  0  0  0  0  0  0  0  0
   55.6680   24.5670   47.0030 N   0  0  0  0  0  0  0  0  0  0  0  0
   56.9030   24.0500   47.1800 C   0  0  0  0  0  0  0  0  0  0  0  0
   57.1010   22.9410   47.7410 O   0  0  0  0  0  0  0  0  0  0  0  0
   57.9100   24.8140   46.7030 N   0  0  0  0  0  0  0  0  0  0  0  0
   57.2760   25.8890   46.2020 C   0  0  0  0  0  0  0  0  0  0  0  0
   57.9720   27.0150   45.5020 C   0  0  0  0  0  0  0  0  0  0  0  0
   57.6299   27.0604   44.4575 H   0  0  0  0  0  0  0  0  0  0  0  0
   59.0577   26.8414   45.5343 H   0  0  0  0  0  0  0  0  0  0  0  0
   57.6650   28.3120   46.1790 C   0  0  0  0  0  0  0  0  0  0  0  0
   58.0620   28.5090   47.3580 O   0  0  0  0  0  0  0  0  0  0  0  0
   56.7750   29.2410   45.5510 N   0  0  0  0  0  0  0  0  0  0  0  0
   57.0310   30.3210   44.8620 C   0  0  0  0  0  0  0  0  0  0  0  0
   57.3930   31.4260   45.5720 N   0  0  0  0  0  0  0  0  0  0  0  0
   57.7420   32.6010   44.9900 C   0  0  0  0  0  0  0  0  0  0  0  0
   58.0223   33.4625   45.6139 H   0  0  0  0  0  0  0  0  0  0  0  0
   57.7450   32.7150   43.6050 C   0  0  0  0  0  0  0  0  0  0  0  0
   58.0640   33.6518   43.1246 H   0  0  0  0  0  0  0  0  0  0  0  0
   57.3400   31.6310   42.8330 C   0  0  0  0  0  0  0  0  0  0  0  0
   57.3340   31.7173   41.7364 H   0  0  0  0  0  0  0  0  0  0  0  0
   56.9380   30.4260   43.4370 C   0  0  0  0  0  0  0  0  0  0  0  0
   56.3450   29.3710   42.5370 C   0  0  0  0  0  0  0  0  0  0  0  0
   55.8976   28.5750   43.1504 H   0  0  0  0  0  0  0  0  0  0  0  0
   55.5695   29.8243   41.9021 H   0  0  0  0  0  0  0  0  0  0  0  0
   57.1354   28.9442   41.9021 H   0  0  0  0  0  0  0  0  0  0  0  0
  1  2  1  0
  2  3  1  0
  3  4  1  0
  4  5  1  0
  5  6  2  0
  5  7  1  0
  7  8  1  0
  8  9  1  0
  9 10  1  0
  9 11  1  0
  9 12  1  0
 12 13  2  0
 12 14  1  0
 14 15  2  0
 15 16  1  0
 16 17  1  0
 17 18  1  0
 17 19  2  0
 19 20  1  0
 19 21  1  0
 21 22  1  0
 21 23  2  0
 23 24  1  0
 24 25  1  0
 24 26  1  0
 24 27  1  0
  8  3  2  0
 23 15  1  0
M  CHG  3   4  -1   7  -1  16  -1
M  END
>  <UniqueID>  (79) 
75

>  <SMILES>  (79) 
Cc1ccc[n-]/c1=N/C(=O)Cc1[n-]c(=O)[n-]c1O

>  <Energy>  (79) 
70.92498362726236

>  <Genealogy>  (79) 
Cc1ccc[n-]c1=NC(=O)Cc1[n-]c(=O)[n-]c1O (protonated)
Cc1ccc[n-]/c1=N/C(=O)Cc1[n-]c(=O)[n-]c1O (cis-trans isomerization)
Cc1ccc[n-]/c1=N/C(=O)Cc1[n-]c(=O)[n-]c1O (3D coordinates assigned)
Cc1ccc[n-]/c1=N/C(=O)Cc1[n-]c(=O)[n-]c1O (optimized conformer: 70.92498362726236 kcal/mol)

>  <smiles>  (79) 
Cc1ccc[nH]c1=NC(=O)Cc1[nH]c(=O)[nH]c1O

>  <score_type>  (79) 
oracle

>  <origin>  (79) 
adg

>  <m_score__min__energy>  (79) 
-12.49

>  <m_primary>  (79) 
energy

$$$$
79:0
     RDKit          3D

 38 40  0  0  0  0  0  0  0  0999 V2000
   57.0400   33.3600   45.6540 C   0  0  0  0  0  0  0  0  0  0  0  0
   58.4430   33.0120   45.1700 C   0  0  0  0  0  0  0  0  0  0  0  0
   59.3950   32.9190   46.3280 C   0  0  0  0  0  0  0  0  0  0  0  0
   59.9990   31.7810   46.7990 C   0  0  0  0  0  0  0  0  0  0  0  0
   59.9490   30.5020   46.3570 N   0  0  0  0  0  0  0  0  0  0  0  0
   60.6530   29.5540   47.0520 C   0  0  0  0  0  0  0  0  0  0  0  0
   60.5840   28.1220   46.6290 C   0  0  0  0  0  0  0  0  0  0  0  0
   59.1530   27.7330   46.3770 C   0  0  0  0  0  0  0  0  0  0  0  0
   58.6400   26.5390   46.9080 C   0  0  0  0  0  0  0  0  0  0  0  0
   57.2970   26.1970   46.7130 C   0  0  0  0  0  0  0  0  0  0  0  0
   56.6310   24.5600   47.4430 Br  0  0  0  0  0  0  0  0  0  0  0  0
   56.4540   27.0560   45.9940 C   0  0  0  0  0  0  0  0  0  0  0  0
   55.1190   26.7190   45.8010 O   0  0  0  0  0  0  0  0  0  0  0  0
   56.9570   28.2570   45.4740 C   0  0  0  0  0  0  0  0  0  0  0  0
   55.8220   29.4520   44.5040 Br  0  0  0  0  0  0  0  0  0  0  0  0
   58.3000   28.5940   45.6700 C   0  0  0  0  0  0  0  0  0  0  0  0
   61.3650   29.9050   48.1740 N   0  0  0  0  0  0  0  0  0  0  0  0
   61.4060   31.1970   48.6170 C   0  0  0  0  0  0  0  0  0  0  0  0
   62.0620   31.5020   49.6470 O   0  0  0  0  0  0  0  0  0  0  0  0
   60.6990   32.1490   47.9000 C   0  0  0  0  0  0  0  0  0  0  0  0
   60.5460   33.4650   48.1350 N   0  0  0  0  0  0  0  0  0  0  0  0
   59.7390   33.9250   47.1800 N   0  0  0  0  0  0  0  0  0  0  0  0
   59.3540   35.3310   47.0780 C   0  0  0  0  0  0  0  0  0  0  0  0
   59.6580   35.8620   45.6830 C   0  0  0  0  0  0  0  0  0  0  0  0
   57.0221   33.3644   46.7538 H   0  0  0  0  0  0  0  0  0  0  0  0
   56.7590   34.3551   45.2787 H   0  0  0  0  0  0  0  0  0  0  0  0
   56.3265   32.6116   45.2787 H   0  0  0  0  0  0  0  0  0  0  0  0
   58.4151   32.0449   44.6466 H   0  0  0  0  0  0  0  0  0  0  0  0
   58.7894   33.8038   44.4895 H   0  0  0  0  0  0  0  0  0  0  0  0
   61.1674   27.9853   45.7065 H   0  0  0  0  0  0  0  0  0  0  0  0
   60.9975   27.4875   47.4268 H   0  0  0  0  0  0  0  0  0  0  0  0
   59.2974   25.8683   47.4807 H   0  0  0  0  0  0  0  0  0  0  0  0
   58.6902   29.5403   45.2673 H   0  0  0  0  0  0  0  0  0  0  0  0
   58.2763   35.4275   47.2762 H   0  0  0  0  0  0  0  0  0  0  0  0
   59.9262   35.9133   47.8153 H   0  0  0  0  0  0  0  0  0  0  0  0
   60.2031   36.8140   45.7638 H   0  0  0  0  0  0  0  0  0  0  0  0
   60.2747   35.1315   45.1389 H   0  0  0  0  0  0  0  0  0  0  0  0
   58.7158   36.0239   45.1389 H   0  0  0  0  0  0  0  0  0  0  0  0
  1  2  1  0
  2  3  1  0
  3  4  2  0
  4  5  1  0
  5  6  1  0
  6  7  1  0
  7  8  1  0
  8  9  2  0
  9 10  1  0
 10 11  1  0
 10 12  2  0
 12 13  1  0
 12 14  1  0
 14 15  1  0
 14 16  2  0
  6 17  2  0
 17 18  1  0
 18 19  2  0
 18 20  1  0
 20 21  2  0
 21 22  1  0
 22 23  1  0
 23 24  1  0
 22  3  1  0
 20  4  1  0
 16  8  1  0
  1 25  1  0
  1 26  1  0
  1 27  1  0
  2 28  1  0
  2 29  1  0
  7 30  1  0
  7 31  1  0
  9 32  1  0
 16 33  1  0
 23 34  1  0
 23 35  1  0
 24 36  1  0
 24 37  1  0
 24 38  1  0
M  CHG  2   5  -1  13  -1
M  END
>  <UniqueID>  (80) 
76

>  <SMILES>  (80) 
CCc1c2[n-]c(Cc3cc(Br)c([O-])c(Br)c3)nc(=O)c2nn1CC

>  <Energy>  (80) 
74.04723155062277

>  <Genealogy>  (80) 
CCc1c2[n-]c(Cc3cc(Br)c([O-])c(Br)c3)nc(=O)c2nn1CC (protonated)
CCc1c2[n-]c(Cc3cc(Br)c([O-])c(Br)c3)nc(=O)c2nn1CC (3D coordinates assigned)
CCc1c2[n-]c(Cc3cc(Br)c([O-])c(Br)c3)nc(=O)c2nn1CC (optimized conformer: 74.04723155062277 kcal/mol)

>  <smiles>  (80) 
CCc1c2[nH]c(Cc3cc(Br)c(O)c(Br)c3)nc(=O)c2nn1CC

>  <score_type>  (80) 
oracle

>  <origin>  (80) 
adg

>  <m_score__min__energy>  (80) 
-11.69

>  <m_primary>  (80) 
energy

$$$$
80:0
     RDKit          3D

 35 37  0  0  0  0  0  0  0  0999 V2000
   54.9870   23.3550   46.2380 H   0  0  0  0  0  0  0  0  0  0  0  0
   55.0390   22.7000   45.4660 O   0  0  0  0  0  0  0  0  0  0  0  0
   56.2570   22.3460   44.8850 C   0  0  0  0  0  0  0  0  0  0  0  0
   56.2680   21.8330   43.5800 C   0  0  0  0  0  0  0  0  0  0  0  0
   55.3290   21.7613   43.0115 H   0  0  0  0  0  0  0  0  0  0  0  0
   57.4630   21.4140   43.0010 C   0  0  0  0  0  0  0  0  0  0  0  0
   57.4737   21.0143   41.9762 H   0  0  0  0  0  0  0  0  0  0  0  0
   58.6440   21.5060   43.7320 C   0  0  0  0  0  0  0  0  0  0  0  0
   59.5920   21.1647   43.2906 H   0  0  0  0  0  0  0  0  0  0  0  0
   58.6260   22.0170   44.9900 N   0  0  0  0  0  0  0  0  0  0  0  0
   57.4860   22.4580   45.5890 C   0  0  0  0  0  0  0  0  0  0  0  0
   57.5850   22.9460   46.7960 N   0  0  0  0  0  0  0  0  0  0  0  0
   56.7550   23.9300   47.4250 C   0  0  0  0  0  0  0  0  0  0  0  0
   56.3940   23.7580   48.6190 O   0  0  0  0  0  0  0  0  0  0  0  0
   56.4000   25.1820   46.7330 C   0  0  0  0  0  0  0  0  0  0  0  0
   55.1450   25.5060   46.3700 N   0  0  0  0  0  0  0  0  0  0  0  0
   55.1790   26.6890   45.7760 N   0  0  0  0  0  0  0  0  0  0  0  0
   56.4550   27.1280   45.7580 C   0  0  0  0  0  0  0  0  0  0  0  0
   56.8730   28.4220   45.1650 C   0  0  0  0  0  0  0  0  0  0  0  0
   55.9030   29.3090   44.6630 C   0  0  0  0  0  0  0  0  0  0  0  0
   54.8383   29.0374   44.7141 H   0  0  0  0  0  0  0  0  0  0  0  0
   56.2790   30.5320   44.1000 C   0  0  0  0  0  0  0  0  0  0  0  0
   55.5098   31.2157   43.7116 H   0  0  0  0  0  0  0  0  0  0  0  0
   57.6370   30.8920   44.0280 C   0  0  0  0  0  0  0  0  0  0  0  0
   58.0640   32.1070   43.4710 O   0  0  0  0  0  0  0  0  0  0  0  0
   58.0980   32.3850   42.0760 C   0  0  0  0  0  0  0  0  0  0  0  0
   58.2302   33.4659   41.9207 H   0  0  0  0  0  0  0  0  0  0  0  0
   58.9365   31.8430   41.6144 H   0  0  0  0  0  0  0  0  0  0  0  0
   57.1535   32.0610   41.6144 H   0  0  0  0  0  0  0  0  0  0  0  0
   58.6020   30.0120   44.5250 C   0  0  0  0  0  0  0  0  0  0  0  0
   59.6664   30.2844   44.4719 H   0  0  0  0  0  0  0  0  0  0  0  0
   58.2280   28.7890   45.0890 C   0  0  0  0  0  0  0  0  0  0  0  0
   59.0002   28.1081   45.4765 H   0  0  0  0  0  0  0  0  0  0  0  0
   57.2680   26.1890   46.3670 C   0  0  0  0  0  0  0  0  0  0  0  0
   58.3559   26.2350   46.5232 H   0  0  0  0  0  0  0  0  0  0  0  0
  1  2  1  0
  2  3  1  0
  3  4  2  0
  4  5  1  0
  4  6  1  0
  6  7  1  0
  6  8  2  0
  8  9  1  0
  8 10  1  0
 10 11  1  0
 11 12  2  0
 12 13  1  0
 13 14  2  0
 13 15  1  0
 15 16  2  0
 16 17  1  0
 17 18  1  0
 18 19  1  0
 19 20  2  0
 20 21  1  0
 20 22  1  0
 22 23  1  0
 22 24  2  0
 24 25  1  0
 25 26  1  0
 26 27  1  0
 26 28  1  0
 26 29  1  0
 24 30  1  0
 30 31  1  0
 30 32  2  0
 32 33  1  0
 18 34  2  0
 34 35  1  0
 11  3  1  0
 34 15  1  0
 32 19  1  0
M  CHG  2  10  -1  17  -1
M  END
>  <UniqueID>  (81) 
77

>  <SMILES>  (81) 
COc1ccc(-c2cc(C(=O)/N=c3/[n-]cccc3O)n[n-]2)cc1

>  <Energy>  (81) 
79.98227444383016

>  <Genealogy>  (81) 
COc1ccc(-c2cc(C(=O)N=c3[n-]cccc3O)n[n-]2)cc1 (protonated)
COc1ccc(-c2cc(C(=O)/N=c3/[n-]cccc3O)n[n-]2)cc1 (cis-trans isomerization)
COc1ccc(-c2cc(C(=O)/N=c3/[n-]cccc3O)n[n-]2)cc1 (3D coordinates assigned)
COc1ccc(-c2cc(C(=O)/N=c3/[n-]cccc3O)n[n-]2)cc1 (optimized conformer: 79.98227444383016 kcal/mol)

>  <smiles>  (81) 
COc1ccc(-c2cc(C(=O)N=c3[nH]cccc3O)n[nH]2)cc1

>  <score_type>  (81) 
oracle

>  <origin>  (81) 
adg

>  <m_score__min__energy>  (81) 
-11.02

>  <m_primary>  (81) 
energy

$$$$
81:0
     RDKit          3D

 59 62  0  0  0  0  0  0  0  0999 V2000
   64.6294   31.4617   47.2642 H   0  0  0  0  0  0  0  0  0  0  0  0
   63.7640   32.0570   47.5910 C   0  0  0  0  0  0  0  0  0  0  0  0
   63.2670   33.0770   46.7720 C   0  0  0  0  0  0  0  0  0  0  0  0
   63.7415   33.2812   45.8009 H   0  0  0  0  0  0  0  0  0  0  0  0
   62.1690   33.8370   47.1850 C   0  0  0  0  0  0  0  0  0  0  0  0
   61.7794   34.6358   46.5368 H   0  0  0  0  0  0  0  0  0  0  0  0
   61.5620   33.5830   48.4260 C   0  0  0  0  0  0  0  0  0  0  0  0
   60.3550   34.3720   48.8620 C   0  0  0  0  0  0  0  0  0  0  0  0
   60.6516   35.4151   49.0461 H   0  0  0  0  0  0  0  0  0  0  0  0
   59.9509   33.9246   49.7821 H   0  0  0  0  0  0  0  0  0  0  0  0
   59.2910   34.3400   47.7970 C   0  0  0  0  0  0  0  0  0  0  0  0
   59.0870   35.3890   47.1270 O   0  0  0  0  0  0  0  0  0  0  0  0
   58.5080   33.1560   47.5160 N   0  0  0  0  0  0  0  0  0  0  0  0
   58.8890   31.9080   48.1300 C   0  0  0  0  0  0  0  0  0  0  0  0
   59.5340   30.8920   47.3960 C   0  0  0  0  0  0  0  0  0  0  0  0
   59.8030   31.1020   45.9940 N   0  0  0  0  0  0  0  0  0  0  0  0
   60.7770   31.0950   45.6210 H   0  0  0  0  0  0  0  0  0  0  0  0
   59.0600   31.2980   45.2910 H   0  0  0  0  0  0  0  0  0  0  0  0
   59.8920   29.7150   48.0280 N   0  0  0  0  0  0  0  0  0  0  0  0
   60.5810   28.6350   47.2810 C   0  0  0  0  0  0  0  0  0  0  0  0
   61.0259   29.0584   46.3684 H   0  0  0  0  0  0  0  0  0  0  0  0
   61.3580   28.2055   47.9305 H   0  0  0  0  0  0  0  0  0  0  0  0
   59.6210   27.5340   46.8950 C   0  0  0  0  0  0  0  0  0  0  0  0
   58.2460   27.6760   47.1430 C   0  0  0  0  0  0  0  0  0  0  0  0
   57.8640   28.6020   47.5976 H   0  0  0  0  0  0  0  0  0  0  0  0
   57.3600   26.6440   46.8140 C   0  0  0  0  0  0  0  0  0  0  0  0
   56.2824   26.7672   46.9974 H   0  0  0  0  0  0  0  0  0  0  0  0
   57.8400   25.4570   46.2530 C   0  0  0  0  0  0  0  0  0  0  0  0
   57.1411   24.6478   45.9948 H   0  0  0  0  0  0  0  0  0  0  0  0
   59.2070   25.3000   46.0210 C   0  0  0  0  0  0  0  0  0  0  0  0
   59.5856   24.3660   45.5802 H   0  0  0  0  0  0  0  0  0  0  0  0
   60.0960   26.3280   46.3480 C   0  0  0  0  0  0  0  0  0  0  0  0
   61.1741   26.1931   46.1765 H   0  0  0  0  0  0  0  0  0  0  0  0
   59.6310   29.5540   49.3700 C   0  0  0  0  0  0  0  0  0  0  0  0
   59.9580   28.4910   49.9680 O   0  0  0  0  0  0  0  0  0  0  0  0
   59.0230   30.5400   50.0780 N   0  0  0  0  0  0  0  0  0  0  0  0
   58.8420   30.4000   51.1000 H   0  0  0  0  0  0  0  0  0  0  0  0
   58.6510   31.7040   49.4920 C   0  0  0  0  0  0  0  0  0  0  0  0
   58.1050   32.6050   50.1860 O   0  0  0  0  0  0  0  0  0  0  0  0
   57.2770   33.2010   46.7130 C   0  0  0  0  0  0  0  0  0  0  0  0
   56.8626   34.2194   46.7455 H   0  0  0  0  0  0  0  0  0  0  0  0
   56.5580   32.4807   47.1304 H   0  0  0  0  0  0  0  0  0  0  0  0
   57.5550   32.8300   45.2900 C   0  0  0  0  0  0  0  0  0  0  0  0
   58.5630   33.3140   44.7080 O   0  0  0  0  0  0  0  0  0  0  0  0
   56.6510   31.9520   44.6020 N   0  0  0  0  0  0  0  0  0  0  0  0
   56.7390   30.6570   44.5380 C   0  0  0  0  0  0  0  0  0  0  0  0
   55.8960   29.7960   45.1370 N   0  0  0  0  0  0  0  0  0  0  0  0
   56.3220   28.6030   44.8310 O   0  0  0  0  0  0  0  0  0  0  0  0
   57.3860   28.6590   44.0660 C   0  0  0  0  0  0  0  0  0  0  0  0
   58.1210   27.4710   43.5380 C   0  0  0  0  0  0  0  0  0  0  0  0
   58.4944   26.8675   44.3785 H   0  0  0  0  0  0  0  0  0  0  0  0
   57.4412   26.8627   42.9233 H   0  0  0  0  0  0  0  0  0  0  0  0
   58.9688   27.8078   42.9233 H   0  0  0  0  0  0  0  0  0  0  0  0
   57.7090   29.9780   43.8390 C   0  0  0  0  0  0  0  0  0  0  0  0
   58.5389   30.3878   43.2446 H   0  0  0  0  0  0  0  0  0  0  0  0
   62.0610   32.5500   49.2390 C   0  0  0  0  0  0  0  0  0  0  0  0
   61.5837   32.3349   50.2064 H   0  0  0  0  0  0  0  0  0  0  0  0
   63.1620   31.7950   48.8220 C   0  0  0  0  0  0  0  0  0  0  0  0
   63.5538   30.9935   49.4655 H   0  0  0  0  0  0  0  0  0  0  0  0
  1  2  1  0
  2  3  2  0
  3  4  1  0
  3  5  1  0
  5  6  1  0
  5  7  2  0
  7  8  1  0
  8  9  1  0
  8 10  1  0
  8 11  1  0
 11 12  2  0
 11 13  1  0
 13 14  1  0
 14 15  2  0
 15 16  1  0
 16 17  1  0
 16 18  1  0
 15 19  1  0
 19 20  1  0
 20 21  1  0
 20 22  1  0
 20 23  1  0
 23 24  2  0
 24 25  1  0
 24 26  1  0
 26 27  1  0
 26 28  2  0
 28 29  1  0
 28 30  1  0
 30 31  1  0
 30 32  2  0
 32 33  1  0
 19 34  1  0
 34 35  2  0
 34 36  1  0
 36 37  1  0
 36 38  1  0
 38 39  2  0
 13 40  1  0
 40 41  1  0
 40 42  1  0
 40 43  1  0
 43 44  2  0
 43 45  1  0
 45 46  2  0
 46 47  1  0
 47 48  1  0
 48 49  1  0
 49 50  1  0
 50 51  1  0
 50 52  1  0
 50 53  1  0
 49 54  2  0
 54 55  1  0
  7 56  1  0
 56 57  1  0
 56 58  2  0
 58 59  1  0
 58  2  1  0
 38 14  1  0
 54 46  1  0
 32 23  1  0
M  CHG  1  47  -1
M  END
>  <UniqueID>  (82) 
78

>  <SMILES>  (82) 
Cc1c/c(=N/C(=O)CN(C(=O)Cc2ccccc2)c2c(N)n(Cc3ccccc3)c(=O)[nH]c2=O)[n-]o1

>  <Energy>  (82) 
105.1126235323064

>  <Genealogy>  (82) 
Cc1cc(=NC(=O)CN(C(=O)Cc2ccccc2)c2c(N)n(Cc3ccccc3)c(=O)[nH]c2=O)[n-]o1 (protonated)
Cc1c/c(=N/C(=O)CN(C(=O)Cc2ccccc2)c2c(N)n(Cc3ccccc3)c(=O)[nH]c2=O)[n-]o1 (cis-trans isomerization)
Cc1c/c(=N/C(=O)CN(C(=O)Cc2ccccc2)c2c(N)n(Cc3ccccc3)c(=O)[nH]c2=O)[n-]o1 (3D coordinates assigned)
Cc1c/c(=N/C(=O)CN(C(=O)Cc2ccccc2)c2c(N)n(Cc3ccccc3)c(=O)[nH]c2=O)[n-]o1 (optimized conformer: 105.1126235323064 kcal/mol)

>  <smiles>  (82) 
Cc1cc(=NC(=O)CN(C(=O)Cc2ccccc2)c2c(N)n(Cc3ccccc3)c(=O)[nH]c2=O)[nH]o1

>  <score_type>  (82) 
oracle

>  <origin>  (82) 
adg

>  <m_score__min__energy>  (82) 
-10.279999999999999

>  <m_primary>  (82) 
energy

$$$$
82:0
     RDKit          3D

 49 53  0  0  0  0  0  0  0  0999 V2000
   51.8990   30.2280   49.6920 C   0  0  0  0  0  0  0  0  0  0  0  0
   51.6030   31.0970   50.8730 C   0  0  0  0  0  0  0  0  0  0  0  0
   51.0290   32.3100   50.7760 N   0  0  0  0  0  0  0  0  0  0  0  0
   50.9540   32.7220   52.0590 C   0  0  0  0  0  0  0  0  0  0  0  0
   50.4610   33.8310   52.3870 O   0  0  0  0  0  0  0  0  0  0  0  0
   51.4480   31.8490   52.9600 N   0  0  0  0  0  0  0  0  0  0  0  0
   51.8660   30.8180   52.2020 C   0  0  0  0  0  0  0  0  0  0  0  0
   52.5140   29.6070   52.7530 C   0  0  0  0  0  0  0  0  0  0  0  0
   51.7100   28.6060   53.3260 C   0  0  0  0  0  0  0  0  0  0  0  0
   52.2770   27.4230   53.7990 C   0  0  0  0  0  0  0  0  0  0  0  0
   53.6540   27.2180   53.7040 C   0  0  0  0  0  0  0  0  0  0  0  0
   54.4690   28.2000   53.1380 C   0  0  0  0  0  0  0  0  0  0  0  0
   53.9150   29.4000   52.6520 C   0  0  0  0  0  0  0  0  0  0  0  0
   54.8270   30.4320   52.1020 C   0  0  0  0  0  0  0  0  0  0  0  0
   54.4330   31.1760   51.1650 O   0  0  0  0  0  0  0  0  0  0  0  0
   56.1220   30.6640   52.6680 N   0  0  0  0  0  0  0  0  0  0  0  0
   57.1300   31.5110   52.0990 C   0  0  0  0  0  0  0  0  0  0  0  0
   57.5610   32.6770   52.7530 C   0  0  0  0  0  0  0  0  0  0  0  0
   58.5460   33.4820   52.1740 C   0  0  0  0  0  0  0  0  0  0  0  0
   59.0960   33.1360   50.9370 C   0  0  0  0  0  0  0  0  0  0  0  0
   58.6650   31.9860   50.2690 C   0  0  0  0  0  0  0  0  0  0  0  0
   59.2150   31.6830   49.0150 O   0  0  0  0  0  0  0  0  0  0  0  0
   59.5750   32.6370   48.0530 C   0  0  0  0  0  0  0  0  0  0  0  0
   58.5710   33.3880   47.4100 C   0  0  0  0  0  0  0  0  0  0  0  0
   58.9080   34.3590   46.4440 C   0  0  0  0  0  0  0  0  0  0  0  0
   60.2500   34.5840   46.0960 C   0  0  0  0  0  0  0  0  0  0  0  0
   61.2250   33.8140   46.7240 C   0  0  0  0  0  0  0  0  0  0  0  0
   62.5490   33.8430   46.5010 N   0  0  0  0  0  0  0  0  0  0  0  0
   63.0830   32.8930   47.3000 C   0  0  0  0  0  0  0  0  0  0  0  0
   62.0900   32.2560   48.0350 C   0  0  0  0  0  0  0  0  0  0  0  0
   60.9060   32.8670   47.6640 C   0  0  0  0  0  0  0  0  0  0  0  0
   57.7070   31.1530   50.8760 C   0  0  0  0  0  0  0  0  0  0  0  0
   52.2356   29.2399   50.0390 H   0  0  0  0  0  0  0  0  0  0  0  0
   50.9894   30.1129   49.0843 H   0  0  0  0  0  0  0  0  0  0  0  0
   52.6897   30.6921   49.0843 H   0  0  0  0  0  0  0  0  0  0  0  0
   50.6231   28.7575   53.4019 H   0  0  0  0  0  0  0  0  0  0  0  0
   51.6370   26.6493   54.2482 H   0  0  0  0  0  0  0  0  0  0  0  0
   54.0975   26.2823   54.0752 H   0  0  0  0  0  0  0  0  0  0  0  0
   55.5545   28.0348   53.0710 H   0  0  0  0  0  0  0  0  0  0  0  0
   57.1227   32.9570   53.7223 H   0  0  0  0  0  0  0  0  0  0  0  0
   58.8888   34.3893   52.6929 H   0  0  0  0  0  0  0  0  0  0  0  0
   59.8723   33.7719   50.4864 H   0  0  0  0  0  0  0  0  0  0  0  0
   57.5147   33.2154   47.6637 H   0  0  0  0  0  0  0  0  0  0  0  0
   58.1132   34.9449   45.9592 H   0  0  0  0  0  0  0  0  0  0  0  0
   60.5222   35.3453   45.3501 H   0  0  0  0  0  0  0  0  0  0  0  0
   63.0640   34.4610   45.8350 H   0  0  0  0  0  0  0  0  0  0  0  0
   64.1556   32.6564   47.3604 H   0  0  0  0  0  0  0  0  0  0  0  0
   62.2187   31.4381   48.7592 H   0  0  0  0  0  0  0  0  0  0  0  0
   57.4099   30.2142   50.3856 H   0  0  0  0  0  0  0  0  0  0  0  0
  1  2  1  0
  2  3  1  0
  3  4  1  0
  4  5  2  0
  4  6  1  0
  6  7  1  0
  7  8  1  0
  8  9  2  0
  9 10  1  0
 10 11  2  0
 11 12  1  0
 12 13  2  0
 13 14  1  0
 14 15  2  0
 14 16  1  0
 16 17  1  0
 17 18  2  0
 18 19  1  0
 19 20  2  0
 20 21  1  0
 21 22  1  0
 22 23  1  0
 23 24  2  0
 24 25  1  0
 25 26  2  0
 26 27  1  0
 27 28  1  0
 28 29  1  0
 29 30  2  0
 30 31  1  0
 21 32  2  0
  7  2  2  0
 13  8  1  0
 32 17  1  0
 31 23  1  0
 31 27  2  0
  1 33  1  0
  1 34  1  0
  1 35  1  0
  9 36  1  0
 10 37  1  0
 11 38  1  0
 12 39  1  0
 18 40  1  0
 19 41  1  0
 20 42  1  0
 24 43  1  0
 25 44  1  0
 26 45  1  0
 28 46  1  0
 29 47  1  0
 30 48  1  0
 32 49  1  0
M  CHG  3   3  -1   6  -1  16  -1
M  END
>  <UniqueID>  (83) 
79

>  <SMILES>  (83) 
Cc1[n-]c(=O)[n-]c1-c1ccccc1C(=O)[N-]c1cccc(Oc2cccc3[nH]ccc23)c1

>  <Energy>  (83) 
135.91311330015188

>  <Genealogy>  (83) 
Cc1[n-]c(=O)[n-]c1-c1ccccc1C(=O)[N-]c1cccc(Oc2cccc3[nH]ccc23)c1 (protonated)
Cc1[n-]c(=O)[n-]c1-c1ccccc1C(=O)[N-]c1cccc(Oc2cccc3[nH]ccc23)c1 (3D coordinates assigned)
Cc1[n-]c(=O)[n-]c1-c1ccccc1C(=O)[N-]c1cccc(Oc2cccc3[nH]ccc23)c1 (optimized conformer: 135.91311330015188 kcal/mol)

>  <smiles>  (83) 
Cc1[nH]c(=O)[nH]c1-c1ccccc1C(=O)Nc1cccc(Oc2cccc3[nH]ccc23)c1

>  <score_type>  (83) 
oracle

>  <origin>  (83) 
adg

>  <m_score__min__energy>  (83) 
-15.640000000000001

>  <m_primary>  (83) 
energy

$$$$
83:0
     RDKit          3D

 46 49  0  0  0  0  0  0  0  0999 V2000
   60.0560   27.6330   49.9190 O   0  0  0  0  0  0  0  0  0  0  0  0
   59.9050   28.8160   49.5060 C   0  0  0  0  0  0  0  0  0  0  0  0
   59.4670   29.7770   50.4140 C   0  0  0  0  0  0  0  0  0  0  0  0
   59.2930   31.0800   49.9740 C   0  0  0  0  0  0  0  0  0  0  0  0
   58.8510   32.0990   50.8670 N   0  0  0  0  0  0  0  0  0  0  0  0
   59.2560   33.4570   51.2730 C   0  0  0  0  0  0  0  0  0  0  0  0
   58.1540   33.6630   52.2580 C   0  0  0  0  0  0  0  0  0  0  0  0
   57.7580   32.2860   51.8360 C   0  0  0  0  0  0  0  0  0  0  0  0
   59.5380   31.3810   48.6810 N   0  0  0  0  0  0  0  0  0  0  0  0
   59.9550   30.4520   47.7790 C   0  0  0  0  0  0  0  0  0  0  0  0
   60.1660   30.9650   46.3650 C   0  0  0  0  0  0  0  0  0  0  0  0
   59.2530   32.1450   46.0880 C   0  0  0  0  0  0  0  0  0  0  0  0
   59.6370   33.4630   46.4450 C   0  0  0  0  0  0  0  0  0  0  0  0
   61.1840   33.8240   47.2100 Cl  0  0  0  0  0  0  0  0  0  0  0  0
   58.7690   34.5350   46.2070 C   0  0  0  0  0  0  0  0  0  0  0  0
   57.5200   34.3180   45.6290 C   0  0  0  0  0  0  0  0  0  0  0  0
   57.1220   33.0250   45.2900 C   0  0  0  0  0  0  0  0  0  0  0  0
   57.9740   31.9390   45.5190 C   0  0  0  0  0  0  0  0  0  0  0  0
   57.3880   30.3360   45.0890 Cl  0  0  0  0  0  0  0  0  0  0  0  0
   60.1660   29.1450   48.1930 N   0  0  0  0  0  0  0  0  0  0  0  0
   60.6730   28.0690   47.3060 C   0  0  0  0  0  0  0  0  0  0  0  0
   59.6540   27.7080   46.2440 C   0  0  0  0  0  0  0  0  0  0  0  0
   59.8670   28.0650   44.8970 C   0  0  0  0  0  0  0  0  0  0  0  0
   60.9760   28.7510   44.5280 F   0  0  0  0  0  0  0  0  0  0  0  0
   58.9300   27.7230   43.9180 C   0  0  0  0  0  0  0  0  0  0  0  0
   57.7710   27.0280   44.2680 C   0  0  0  0  0  0  0  0  0  0  0  0
   57.5440   26.6750   45.5990 C   0  0  0  0  0  0  0  0  0  0  0  0
   58.4750   27.0120   46.5850 C   0  0  0  0  0  0  0  0  0  0  0  0
   58.2200   26.6610   47.8720 F   0  0  0  0  0  0  0  0  0  0  0  0
   59.2630   29.5071   51.4607 H   0  0  0  0  0  0  0  0  0  0  0  0
   60.2521   33.4815   51.7390 H   0  0  0  0  0  0  0  0  0  0  0  0
   59.3622   34.2075   50.4758 H   0  0  0  0  0  0  0  0  0  0  0  0
   58.4680   33.7662   53.3072 H   0  0  0  0  0  0  0  0  0  0  0  0
   57.4746   34.5280   52.2480 H   0  0  0  0  0  0  0  0  0  0  0  0
   57.7950   31.5614   52.6628 H   0  0  0  0  0  0  0  0  0  0  0  0
   56.7312   32.1517   51.4650 H   0  0  0  0  0  0  0  0  0  0  0  0
   61.2129   31.2813   46.2467 H   0  0  0  0  0  0  0  0  0  0  0  0
   59.9319   30.1586   45.6545 H   0  0  0  0  0  0  0  0  0  0  0  0
   59.0752   35.5561   46.4783 H   0  0  0  0  0  0  0  0  0  0  0  0
   56.8471   35.1674   45.4398 H   0  0  0  0  0  0  0  0  0  0  0  0
   56.1323   32.8580   44.8399 H   0  0  0  0  0  0  0  0  0  0  0  0
   61.5955   28.4132   46.8157 H   0  0  0  0  0  0  0  0  0  0  0  0
   60.8688   27.1764   47.9183 H   0  0  0  0  0  0  0  0  0  0  0  0
   59.1063   28.0023   42.8687 H   0  0  0  0  0  0  0  0  0  0  0  0
   57.0366   26.7586   43.4946 H   0  0  0  0  0  0  0  0  0  0  0  0
   56.6289   26.1295   45.8729 H   0  0  0  0  0  0  0  0  0  0  0  0
  1  2  2  0
  2  3  1  0
  3  4  2  0
  4  5  1  0
  5  6  1  0
  6  7  1  0
  7  8  1  0
  4  9  1  0
  9 10  2  0
 10 11  1  0
 11 12  1  0
 12 13  2  0
 13 14  1  0
 13 15  1  0
 15 16  2  0
 16 17  1  0
 17 18  2  0
 18 19  1  0
 10 20  1  0
 20 21  1  0
 21 22  1  0
 22 23  2  0
 23 24  1  0
 23 25  1  0
 25 26  2  0
 26 27  1  0
 27 28  2  0
 28 29  1  0
 20  2  1  0
 28 22  1  0
  8  5  1  0
 18 12  1  0
  3 30  1  0
  6 31  1  0
  6 32  1  0
  7 33  1  0
  7 34  1  0
  8 35  1  0
  8 36  1  0
 11 37  1  0
 11 38  1  0
 15 39  1  0
 16 40  1  0
 17 41  1  0
 21 42  1  0
 21 43  1  0
 25 44  1  0
 26 45  1  0
 27 46  1  0
M  END
>  <UniqueID>  (84) 
80

>  <SMILES>  (84) 
O=c1cc(N2CCC2)nc(Cc2c(Cl)cccc2Cl)n1Cc1c(F)cccc1F

>  <Energy>  (84) 
105.3023408795926

>  <Genealogy>  (84) 
O=c1cc(N2CCC2)nc(Cc2c(Cl)cccc2Cl)n1Cc1c(F)cccc1F (3D coordinates assigned)
O=c1cc(N2CCC2)nc(Cc2c(Cl)cccc2Cl)n1Cc1c(F)cccc1F (nonaromatic ring conformer: 105.3023408795926 kcal/mol)

>  <smiles>  (84) 
O=c1cc(N2CCC2)nc(Cc2c(Cl)cccc2Cl)n1Cc1c(F)cccc1F

>  <score_type>  (84) 
oracle

>  <origin>  (84) 
adg

>  <m_score__min__energy>  (84) 
-7.5899999999999999

>  <m_primary>  (84) 
energy

$$$$
84:0
     RDKit          3D

 47 50  0  0  0  0  0  0  0  0999 V2000
   56.3020   24.7650   47.2470 O   0  0  0  0  0  0  0  0  0  0  0  0
   55.8840   25.5670   46.3720 C   0  0  0  0  0  0  0  0  0  0  0  0
   54.7080   25.2320   45.6200 N   0  0  0  0  0  0  0  0  0  0  0  0
   54.2840   23.8750   45.2750 C   0  0  0  0  0  0  0  0  0  0  0  0
   55.4130   23.0870   44.6720 C   0  0  0  0  0  0  0  0  0  0  0  0
   56.3540   22.4390   45.4840 C   0  0  0  0  0  0  0  0  0  0  0  0
   57.3520   21.6620   44.8910 C   0  0  0  0  0  0  0  0  0  0  0  0
   57.4060   21.5430   43.5010 C   0  0  0  0  0  0  0  0  0  0  0  0
   56.4620   22.2130   42.7220 C   0  0  0  0  0  0  0  0  0  0  0  0
   55.4960   22.9620   43.3180 N   0  0  0  0  0  0  0  0  0  0  0  0
   56.5650   26.8540   46.1960 C   0  0  0  0  0  0  0  0  0  0  0  0
   57.8950   27.0220   46.6030 C   0  0  0  0  0  0  0  0  0  0  0  0
   58.5560   28.2210   46.3240 C   0  0  0  0  0  0  0  0  0  0  0  0
   59.7540   28.3670   46.6900 O   0  0  0  0  0  0  0  0  0  0  0  0
   57.8810   29.2450   45.6300 C   0  0  0  0  0  0  0  0  0  0  0  0
   58.5130   30.4530   45.2840 C   0  0  0  0  0  0  0  0  0  0  0  0
   57.8270   31.4300   44.5470 C   0  0  0  0  0  0  0  0  0  0  0  0
   58.5150   32.6300   44.1580 N   0  0  0  0  0  0  0  0  0  0  0  0
   58.4210   34.1010   45.0730 S   0  0  0  0  0  0  0  0  0  0  0  0
   57.0090   34.6140   45.0490 O   0  0  0  0  0  0  0  0  0  0  0  0
   59.3260   35.1280   44.4490 O   0  0  0  0  0  0  0  0  0  0  0  0
   58.8820   33.7910   46.7440 C   0  0  0  0  0  0  0  0  0  0  0  0
   59.9570   34.4780   47.3300 C   0  0  0  0  0  0  0  0  0  0  0  0
   60.3290   34.2040   48.6500 C   0  0  0  0  0  0  0  0  0  0  0  0
   59.6290   33.2470   49.3910 C   0  0  0  0  0  0  0  0  0  0  0  0
   58.5560   32.5620   48.8130 C   0  0  0  0  0  0  0  0  0  0  0  0
   58.1830   32.8330   47.4930 C   0  0  0  0  0  0  0  0  0  0  0  0
   56.4850   31.2100   44.1920 C   0  0  0  0  0  0  0  0  0  0  0  0
   55.8450   30.0210   44.5450 C   0  0  0  0  0  0  0  0  0  0  0  0
   56.5360   29.0340   45.2520 C   0  0  0  0  0  0  0  0  0  0  0  0
   55.9210   27.8590   45.5470 N   0  0  0  0  0  0  0  0  0  0  0  0
   53.9377   23.3652   46.1862 H   0  0  0  0  0  0  0  0  0  0  0  0
   53.4731   23.9422   44.5347 H   0  0  0  0  0  0  0  0  0  0  0  0
   56.3070   22.5414   46.5782 H   0  0  0  0  0  0  0  0  0  0  0  0
   58.0936   21.1451   45.5178 H   0  0  0  0  0  0  0  0  0  0  0  0
   58.1840   20.9279   43.0253 H   0  0  0  0  0  0  0  0  0  0  0  0
   56.4992   22.1353   41.6254 H   0  0  0  0  0  0  0  0  0  0  0  0
   58.4158   26.2148   47.1390 H   0  0  0  0  0  0  0  0  0  0  0  0
   59.5531   30.6331   45.5936 H   0  0  0  0  0  0  0  0  0  0  0  0
   58.9260   32.6910   43.1990 H   0  0  0  0  0  0  0  0  0  0  0  0
   60.5077   35.2331   46.7499 H   0  0  0  0  0  0  0  0  0  0  0  0
   61.1733   34.7420   49.1058 H   0  0  0  0  0  0  0  0  0  0  0  0
   59.9227   33.0329   50.4292 H   0  0  0  0  0  0  0  0  0  0  0  0
   58.0052   31.8098   49.3968 H   0  0  0  0  0  0  0  0  0  0  0  0
   57.3383   32.2930   47.0403 H   0  0  0  0  0  0  0  0  0  0  0  0
   55.9351   31.9806   43.6318 H   0  0  0  0  0  0  0  0  0  0  0  0
   54.7932   29.8606   44.2656 H   0  0  0  0  0  0  0  0  0  0  0  0
  1  2  2  0
  2  3  1  0
  3  4  1  0
  4  5  1  0
  5  6  2  0
  6  7  1  0
  7  8  2  0
  8  9  1  0
  9 10  2  0
  2 11  1  0
 11 12  2  0
 12 13  1  0
 13 14  2  0
 13 15  1  0
 15 16  2  0
 16 17  1  0
 17 18  1  0
 18 19  1  0
 19 20  2  0
 19 21  2  0
 19 22  1  0
 22 23  2  0
 23 24  1  0
 24 25  2  0
 25 26  1  0
 26 27  2  0
 17 28  2  0
 28 29  1  0
 29 30  2  0
 30 31  1  0
 10  5  1  0
 31 11  1  0
 30 15  1  0
 27 22  1  0
  4 32  1  0
  4 33  1  0
  6 34  1  0
  7 35  1  0
  8 36  1  0
  9 37  1  0
 12 38  1  0
 16 39  1  0
 18 40  1  0
 23 41  1  0
 24 42  1  0
 25 43  1  0
 26 44  1  0
 27 45  1  0
 28 46  1  0
 29 47  1  0
M  CHG  2   3  -1  31  -1
M  END
>  <UniqueID>  (85) 
81

>  <SMILES>  (85) 
O=C([N-]Cc1ccccn1)c1cc(=O)c2cc(NS(=O)(=O)c3ccccc3)ccc2[n-]1

>  <Energy>  (85) 
59.964799727732554

>  <Genealogy>  (85) 
O=C([N-]Cc1ccccn1)c1cc(=O)c2cc(NS(=O)(=O)c3ccccc3)ccc2[n-]1 (protonated)
O=C([N-]Cc1ccccn1)c1cc(=O)c2cc(NS(=O)(=O)c3ccccc3)ccc2[n-]1 (3D coordinates assigned)
O=C([N-]Cc1ccccn1)c1cc(=O)c2cc(NS(=O)(=O)c3ccccc3)ccc2[n-]1 (optimized conformer: 59.964799727732554 kcal/mol)

>  <smiles>  (85) 
O=C(NCc1ccccn1)c1cc(=O)c2cc(NS(=O)(=O)c3ccccc3)ccc2[nH]1

>  <score_type>  (85) 
oracle

>  <origin>  (85) 
adg

>  <m_score__min__energy>  (85) 
-13.710000000000001

>  <m_primary>  (85) 
energy

$$$$
85:0
     RDKit          3D

 55 58  0  0  0  0  0  0  0  0999 V2000
   55.0500   24.9980   45.7100 C   0  0  0  0  0  0  0  0  0  0  0  0
   55.3660   26.3470   46.0390 O   0  0  0  0  0  0  0  0  0  0  0  0
   56.5320   27.0110   45.6280 C   0  0  0  0  0  0  0  0  0  0  0  0
   57.7220   26.2790   45.5590 C   0  0  0  0  0  0  0  0  0  0  0  0
   58.9090   26.8930   45.1540 C   0  0  0  0  0  0  0  0  0  0  0  0
   58.9180   28.2480   44.8160 C   0  0  0  0  0  0  0  0  0  0  0  0
   57.7360   29.0020   44.8790 C   0  0  0  0  0  0  0  0  0  0  0  0
   57.7390   30.4360   44.5200 C   0  0  0  0  0  0  0  0  0  0  0  0
   57.1580   31.3970   45.2720 N   0  0  0  0  0  0  0  0  0  0  0  0
   57.4030   32.5200   44.5710 C   0  0  0  0  0  0  0  0  0  0  0  0
   57.0070   33.8950   45.0180 C   0  0  0  0  0  0  0  0  0  0  0  0
   57.8570   34.3510   46.1370 N   0  0  0  0  0  0  0  0  0  0  0  0
   57.9560   33.3200   47.2010 C   0  0  0  0  0  0  0  0  0  0  0  0
   59.2440   32.4850   47.0880 C   0  0  0  0  0  0  0  0  0  0  0  0
   60.4680   33.3200   47.1360 N   0  0  0  0  0  0  0  0  0  0  0  0
   61.2510   33.2300   48.6960 S   0  0  0  0  0  0  0  0  0  0  0  0
   62.3320   32.1860   48.6500 O   0  0  0  0  0  0  0  0  0  0  0  0
   61.8950   34.5530   49.0100 O   0  0  0  0  0  0  0  0  0  0  0  0
   60.1050   32.8230   49.9770 C   0  0  0  0  0  0  0  0  0  0  0  0
   59.6560   31.5040   50.1300 C   0  0  0  0  0  0  0  0  0  0  0  0
   58.7340   31.1850   51.1320 C   0  0  0  0  0  0  0  0  0  0  0  0
   58.2450   32.1830   51.9860 C   0  0  0  0  0  0  0  0  0  0  0  0
   57.2850   31.8340   53.0850 C   0  0  0  0  0  0  0  0  0  0  0  0
   58.7150   33.4990   51.8500 C   0  0  0  0  0  0  0  0  0  0  0  0
   59.6370   33.8170   50.8480 C   0  0  0  0  0  0  0  0  0  0  0  0
   60.2470   34.7270   46.7490 C   0  0  0  0  0  0  0  0  0  0  0  0
   59.1790   34.8300   45.6560 C   0  0  0  0  0  0  0  0  0  0  0  0
   58.1250   32.2130   43.4400 C   0  0  0  0  0  0  0  0  0  0  0  0
   58.3100   30.9160   43.4370 O   0  0  0  0  0  0  0  0  0  0  0  0
   56.5430   28.3780   45.2860 C   0  0  0  0  0  0  0  0  0  0  0  0
   54.9140   24.4174   46.6343 H   0  0  0  0  0  0  0  0  0  0  0  0
   54.1215   24.9721   45.1208 H   0  0  0  0  0  0  0  0  0  0  0  0
   55.8704   24.5625   45.1208 H   0  0  0  0  0  0  0  0  0  0  0  0
   57.7228   25.2118   45.8257 H   0  0  0  0  0  0  0  0  0  0  0  0
   59.8391   26.3081   45.1011 H   0  0  0  0  0  0  0  0  0  0  0  0
   59.8562   28.7267   44.4988 H   0  0  0  0  0  0  0  0  0  0  0  0
   57.1163   34.5931   44.1750 H   0  0  0  0  0  0  0  0  0  0  0  0
   55.9619   33.8659   45.3599 H   0  0  0  0  0  0  0  0  0  0  0  0
   57.9437   33.8204   48.1805 H   0  0  0  0  0  0  0  0  0  0  0  0
   57.1013   32.6368   47.0878 H   0  0  0  0  0  0  0  0  0  0  0  0
   59.2735   31.7676   47.9213 H   0  0  0  0  0  0  0  0  0  0  0  0
   59.2263   31.9735   46.1143 H   0  0  0  0  0  0  0  0  0  0  0  0
   60.0303   30.7166   49.4592 H   0  0  0  0  0  0  0  0  0  0  0  0
   58.3912   30.1465   51.2504 H   0  0  0  0  0  0  0  0  0  0  0  0
   57.7643   32.0083   54.0596 H   0  0  0  0  0  0  0  0  0  0  0  0
   56.3866   32.4630   53.0005 H   0  0  0  0  0  0  0  0  0  0  0  0
   57.0003   30.7748   53.0005 H   0  0  0  0  0  0  0  0  0  0  0  0
   58.3567   34.2825   52.5340 H   0  0  0  0  0  0  0  0  0  0  0  0
   59.9966   34.8512   50.7427 H   0  0  0  0  0  0  0  0  0  0  0  0
   59.9165   35.2957   47.6307 H   0  0  0  0  0  0  0  0  0  0  0  0
   61.1903   35.1375   46.3596 H   0  0  0  0  0  0  0  0  0  0  0  0
   59.0865   35.8811   45.3451 H   0  0  0  0  0  0  0  0  0  0  0  0
   59.4883   34.1966   44.8115 H   0  0  0  0  0  0  0  0  0  0  0  0
   58.4805   32.9244   42.6800 H   0  0  0  0  0  0  0  0  0  0  0  0
   55.6118   28.9613   45.3377 H   0  0  0  0  0  0  0  0  0  0  0  0
  1  2  1  0
  2  3  1  0
  3  4  2  0
  4  5  1  0
  5  6  2  0
  6  7  1  0
  7  8  1  0
  8  9  2  0
  9 10  1  0
 10 11  1  0
 11 12  1  0
 12 13  1  0
 13 14  1  0
 14 15  1  0
 15 16  1  0
 16 17  2  0
 16 18  2  0
 16 19  1  0
 19 20  2  0
 20 21  1  0
 21 22  2  0
 22 23  1  0
 22 24  1  0
 24 25  2  0
 15 26  1  0
 26 27  1  0
 10 28  2  0
 28 29  1  0
  7 30  2  0
 30  3  1  0
 29  8  1  0
 27 12  1  0
 25 19  1  0
  1 31  1  0
  1 32  1  0
  1 33  1  0
  4 34  1  0
  5 35  1  0
  6 36  1  0
 11 37  1  0
 11 38  1  0
 13 39  1  0
 13 40  1  0
 14 41  1  0
 14 42  1  0
 20 43  1  0
 21 44  1  0
 23 45  1  0
 23 46  1  0
 23 47  1  0
 24 48  1  0
 25 49  1  0
 26 50  1  0
 26 51  1  0
 27 52  1  0
 27 53  1  0
 28 54  1  0
 30 55  1  0
M  END
>  <UniqueID>  (86) 
82

>  <SMILES>  (86) 
COc1cccc(-c2nc(CN3CCN(S(=O)(=O)c4ccc(C)cc4)CC3)co2)c1

>  <Energy>  (86) 
96.38518106063498

>  <Genealogy>  (86) 
COc1cccc(-c2nc(CN3CCN(S(=O)(=O)c4ccc(C)cc4)CC3)co2)c1 (3D coordinates assigned)
COc1cccc(-c2nc(CN3CCN(S(=O)(=O)c4ccc(C)cc4)CC3)co2)c1 (nonaromatic ring conformer: 96.38518106063498 kcal/mol)

>  <smiles>  (86) 
COc1cccc(-c2nc(CN3CCN(S(=O)(=O)c4ccc(C)cc4)CC3)co2)c1

>  <score_type>  (86) 
oracle

>  <origin>  (86) 
adg

>  <m_score__min__energy>  (86) 
-9.7899999999999991

>  <m_primary>  (86) 
energy

$$$$
86:0
     RDKit          3D

 47 50  0  0  1  0  0  0  0  0999 V2000
   55.9580   30.5120   44.6190 O   0  0  0  0  0  0  0  0  0  0  0  0
   57.0550   30.7850   44.0600 C   0  0  0  0  0  0  0  0  0  0  0  0
   57.3980   32.0850   43.6460 N   0  0  0  0  0  0  0  0  0  0  0  0
   57.8980   32.9250   44.4930 C   0  0  0  0  0  0  0  0  0  0  0  0
   57.4180   32.8400   45.7950 C   0  0  0  0  0  0  0  0  0  0  0  0
   57.9210   33.7200   46.7500 C   0  0  0  0  0  0  0  0  0  0  0  0
   58.8760   34.6450   46.3780 C   0  0  0  0  0  0  0  0  0  0  0  0
   59.3120   34.6780   45.0670 C   0  0  0  0  0  0  0  0  0  0  0  0
   58.8330   33.8310   44.1340 N   0  0  0  0  0  0  0  0  0  0  0  0
   58.0290   29.7510   43.8180 N   0  0  0  0  0  0  0  0  0  0  0  0
   57.7710   28.3910   44.2050 C   0  0  0  0  0  0  0  0  0  0  0  0
   58.0280   27.4330   43.2470 C   0  0  0  0  0  0  0  0  0  0  0  0
   57.8030   26.0960   43.5490 C   0  0  0  0  0  0  0  0  0  0  0  0
   57.3240   25.7540   44.8070 C   0  0  0  0  0  0  0  0  0  0  0  0
   57.1170   24.4100   45.0560 O   0  0  0  0  0  0  0  0  0  0  0  0
   55.8830   23.9930   45.5030 C   0  0  0  0  0  0  0  0  0  0  0  0
   54.7620   23.8700   44.7150 C   0  0  0  0  0  0  0  0  0  0  0  0
   53.5660   23.4410   45.2730 C   0  0  0  0  0  0  0  0  0  0  0  0
   52.5160   23.3300   44.5190 N   0  0  0  0  0  0  0  0  0  0  0  0
   51.2040   23.6840   44.9410 C   0  0  0  0  0  0  0  0  0  0  0  0
   50.9250   23.5800   46.1630 O   0  0  0  0  0  0  0  0  0  0  0  0
   50.2210   24.1600   43.9370 C   0  0  0  0  0  0  0  0  0  0  0  0
   50.7690   24.5700   42.6080 C   0  0  0  0  0  0  0  0  0  0  0  0
   50.1800   25.5920   43.5420 C   0  0  0  0  0  0  0  0  0  0  0  0
   53.4560   23.1310   46.5820 N   0  0  0  0  0  0  0  0  0  0  0  0
   54.5750   23.2600   47.3360 C   0  0  0  0  0  0  0  0  0  0  0  0
   55.7500   23.6760   46.8170 N   0  0  0  0  0  0  0  0  0  0  0  0
   57.0660   26.7280   45.7720 C   0  0  0  0  0  0  0  0  0  0  0  0
   56.5810   26.3800   47.0100 F   0  0  0  0  0  0  0  0  0  0  0  0
   57.2960   28.0600   45.4580 C   0  0  0  0  0  0  0  0  0  0  0  0
   56.6568   32.0933   46.0652 H   0  0  0  0  0  0  0  0  0  0  0  0
   57.5615   33.6786   47.7888 H   0  0  0  0  0  0  0  0  0  0  0  0
   59.2857   35.3486   47.1176 H   0  0  0  0  0  0  0  0  0  0  0  0
   60.0726   35.4175   44.7761 H   0  0  0  0  0  0  0  0  0  0  0  0
   59.1810   33.8740   43.1320 H   0  0  0  0  0  0  0  0  0  0  0  0
   58.9450   29.9500   43.3580 H   0  0  0  0  0  0  0  0  0  0  0  0
   58.4065   27.7240   42.2560 H   0  0  0  0  0  0  0  0  0  0  0  0
   58.0022   25.3160   42.7994 H   0  0  0  0  0  0  0  0  0  0  0  0
   54.8137   24.1116   43.6431 H   0  0  0  0  0  0  0  0  0  0  0  0
   49.4557   23.4593   44.3023 H   0  0  0  0  0  0  0  0  0  0  0  0
   51.8539   24.5477   42.4280 H   0  0  0  0  0  0  0  0  0  0  0  0
   50.5920   24.2717   41.5641 H   0  0  0  0  0  0  0  0  0  0  0  0
   50.8342   26.3200   44.0440 H   0  0  0  0  0  0  0  0  0  0  0  0
   49.3916   26.3550   43.4631 H   0  0  0  0  0  0  0  0  0  0  0  0
   52.5550   22.8090   46.9900 H   0  0  0  0  0  0  0  0  0  0  0  0
   54.5241   23.0174   48.4077 H   0  0  0  0  0  0  0  0  0  0  0  0
   57.1012   28.8463   46.2022 H   0  0  0  0  0  0  0  0  0  0  0  0
  1  2  2  0
  2  3  1  0
  3  4  2  0
  4  5  1  0
  5  6  2  0
  6  7  1  0
  7  8  2  0
  8  9  1  0
  2 10  1  0
 10 11  1  0
 11 12  2  0
 12 13  1  0
 13 14  2  0
 14 15  1  0
 15 16  1  0
 16 17  2  0
 17 18  1  0
 18 19  2  0
 19 20  1  0
 20 21  2  0
 20 22  1  0
 22 23  1  0
 23 24  1  0
 18 25  1  0
 25 26  1  0
 26 27  2  0
 14 28  1  0
 28 29  1  0
 28 30  2  0
  9  4  1  0
 30 11  1  0
 27 16  1  0
 24 22  1  0
  5 31  1  0
  6 32  1  0
  7 33  1  0
  8 34  1  0
  9 35  1  0
 10 36  1  0
 12 37  1  0
 13 38  1  0
 17 39  1  0
 22 40  1  0
 23 41  1  0
 23 42  1  0
 24 43  1  0
 24 44  1  0
 25 45  1  0
 26 46  1  0
 30 47  1  0
M  END
>  <smiles>  (87) 
O=C(N=c1cccc[nH]1)Nc1ccc(Oc2cc(=NC(=O)C3CC3)[nH]cn2)c(F)c1

>  <score_type>  (87) 
oracle

>  <origin>  (87) 
adg

>  <m_score__min__energy>  (87) 
-8.1099999999999994

>  <m_primary>  (87) 
energy

$$$$
87:0
     RDKit          3D

 60 62  0  0  0  0  0  0  0  0999 V2000
   58.0719   33.2758   44.6243 H   0  0  0  0  0  0  0  0  0  0  0  0
   57.3580   32.4390   44.6380 C   0  0  0  0  0  0  0  0  0  0  0  0
   56.6111   32.3663   45.4423 H   0  0  0  0  0  0  0  0  0  0  0  0
   57.3980   31.5140   43.6810 C   0  0  0  0  0  0  0  0  0  0  0  0
   58.1542   31.6089   42.8878 H   0  0  0  0  0  0  0  0  0  0  0  0
   56.4730   30.3700   43.6400 C   0  0  0  0  0  0  0  0  0  0  0  0
   55.9070   30.0540   42.5590 O   0  0  0  0  0  0  0  0  0  0  0  0
   56.1690   29.6920   44.8740 N   0  0  0  0  0  0  0  0  0  0  0  0
   56.7700   28.6950   45.4660 C   0  0  0  0  0  0  0  0  0  0  0  0
   56.0730   27.5350   45.6210 N   0  0  0  0  0  0  0  0  0  0  0  0
   56.6160   26.4260   46.1910 C   0  0  0  0  0  0  0  0  0  0  0  0
   56.0133   25.5120   46.2973 H   0  0  0  0  0  0  0  0  0  0  0  0
   57.9360   26.4460   46.6410 C   0  0  0  0  0  0  0  0  0  0  0  0
   58.3868   25.5419   47.0762 H   0  0  0  0  0  0  0  0  0  0  0  0
   58.6810   27.6220   46.5350 C   0  0  0  0  0  0  0  0  0  0  0  0
   60.0110   27.6280   46.9850 O   0  0  0  0  0  0  0  0  0  0  0  0
   60.4250   28.2570   48.1670 C   0  0  0  0  0  0  0  0  0  0  0  0
   60.9460   29.5600   48.1540 C   0  0  0  0  0  0  0  0  0  0  0  0
   60.9930   30.2720   46.9500 O   0  0  0  0  0  0  0  0  0  0  0  0
   60.0090   31.2240   46.5540 C   0  0  0  0  0  0  0  0  0  0  0  0
   60.0796   31.3887   45.4687 H   0  0  0  0  0  0  0  0  0  0  0  0
   59.0124   30.8369   46.8126 H   0  0  0  0  0  0  0  0  0  0  0  0
   60.2310   32.5510   47.2810 C   0  0  0  0  0  0  0  0  0  0  0  0
   60.7076   32.3543   48.2527 H   0  0  0  0  0  0  0  0  0  0  0  0
   60.8763   33.1892   46.6595 H   0  0  0  0  0  0  0  0  0  0  0  0
   58.9000   33.2760   47.5120 C   0  0  0  0  0  0  0  0  0  0  0  0
   59.0850   34.2114   48.0604 H   0  0  0  0  0  0  0  0  0  0  0  0
   58.4367   33.4993   46.5396 H   0  0  0  0  0  0  0  0  0  0  0  0
   58.0250   32.4540   48.2670 O   0  0  0  0  0  0  0  0  0  0  0  0
   58.7130   31.6730   49.2300 C   0  0  0  0  0  0  0  0  0  0  0  0
   58.1730   30.7264   49.3793 H   0  0  0  0  0  0  0  0  0  0  0  0
   59.7319   31.4785   48.8639 H   0  0  0  0  0  0  0  0  0  0  0  0
   58.8030   32.4040   50.5460 C   0  0  0  0  0  0  0  0  0  0  0  0
   57.7140   32.3600   51.4300 C   0  0  0  0  0  0  0  0  0  0  0  0
   56.8119   31.7932   51.1563 H   0  0  0  0  0  0  0  0  0  0  0  0
   57.7660   33.0280   52.6510 C   0  0  0  0  0  0  0  0  0  0  0  0
   56.8989   33.0053   53.3275 H   0  0  0  0  0  0  0  0  0  0  0  0
   58.9160   33.7250   53.0160 C   0  0  0  0  0  0  0  0  0  0  0  0
   58.9558   34.2505   53.9815 H   0  0  0  0  0  0  0  0  0  0  0  0
   60.0170   33.7580   52.1600 C   0  0  0  0  0  0  0  0  0  0  0  0
   60.9256   34.3011   52.4592 H   0  0  0  0  0  0  0  0  0  0  0  0
   59.9730   33.1010   50.9160 C   0  0  0  0  0  0  0  0  0  0  0  0
   61.0660   33.1140   50.0360 O   0  0  0  0  0  0  0  0  0  0  0  0
   61.9720   34.2010   49.8820 C   0  0  0  0  0  0  0  0  0  0  0  0
   62.2772   34.5672   50.8733 H   0  0  0  0  0  0  0  0  0  0  0  0
   62.8594   33.8629   49.3268 H   0  0  0  0  0  0  0  0  0  0  0  0
   61.4795   35.0130   49.3268 H   0  0  0  0  0  0  0  0  0  0  0  0
   61.3700   30.1290   49.3160 N   0  0  0  0  0  0  0  0  0  0  0  0
   61.3010   29.4860   50.5120 C   0  0  0  0  0  0  0  0  0  0  0  0
   61.7910   30.1600   51.7320 C   0  0  0  0  0  0  0  0  0  0  0  0
   61.6130   29.6340   52.8630 O   0  0  0  0  0  0  0  0  0  0  0  0
   62.4870   31.4070   51.6460 N   0  0  0  0  0  0  0  0  0  0  0  0
   62.6700   31.8630   50.7260 H   0  0  0  0  0  0  0  0  0  0  0  0
   62.7990   31.8940   52.5130 H   0  0  0  0  0  0  0  0  0  0  0  0
   60.7600   28.1930   50.5630 C   0  0  0  0  0  0  0  0  0  0  0  0
   60.6895   27.6595   51.5224 H   0  0  0  0  0  0  0  0  0  0  0  0
   60.3110   27.5870   49.3860 C   0  0  0  0  0  0  0  0  0  0  0  0
   59.8674   26.5810   49.4206 H   0  0  0  0  0  0  0  0  0  0  0  0
   58.0950   28.7590   45.9540 C   0  0  0  0  0  0  0  0  0  0  0  0
   58.6657   29.6964   45.8791 H   0  0  0  0  0  0  0  0  0  0  0  0
  1  2  1  0
  2  3  1  0
  2  4  2  0
  4  5  1  0
  4  6  1  0
  6  7  2  0
  6  8  1  0
  8  9  2  0
  9 10  1  0
 10 11  1  0
 11 12  1  0
 11 13  2  0
 13 14  1  0
 13 15  1  0
 15 16  1  0
 16 17  1  0
 17 18  1  0
 18 19  1  0
 19 20  1  0
 20 21  1  0
 20 22  1  0
 20 23  1  0
 23 24  1  0
 23 25  1  0
 23 26  1  0
 26 27  1  0
 26 28  1  0
 26 29  1  0
 29 30  1  0
 30 31  1  0
 30 32  1  0
 30 33  1  0
 33 34  2  0
 34 35  1  0
 34 36  1  0
 36 37  1  0
 36 38  2  0
 38 39  1  0
 38 40  1  0
 40 41  1  0
 40 42  2  0
 42 43  1  0
 43 44  1  0
 44 45  1  0
 44 46  1  0
 44 47  1  0
 18 48  2  0
 48 49  1  0
 49 50  1  0
 50 51  2  0
 50 52  1  0
 52 53  1  0
 52 54  1  0
 49 55  2  0
 55 56  1  0
 55 57  1  0
 57 58  1  0
 15 59  2  0
 59 60  1  0
 59  9  1  0
 57 17  2  0
 42 33  1  0
M  CHG  1  10  -1
M  END
>  <UniqueID>  (88) 
83

>  <SMILES>  (88) 
C=CC(=O)/N=c1\cc(Oc2ccc(C(N)=O)nc2OCCCOCc2ccccc2OC)cc[n-]1

>  <Energy>  (88) 
68.38984568356295

>  <Genealogy>  (88) 
C=CC(=O)N=c1cc(Oc2ccc(C(N)=O)nc2OCCCOCc2ccccc2OC)cc[n-]1 (protonated)
C=CC(=O)/N=c1\cc(Oc2ccc(C(N)=O)nc2OCCCOCc2ccccc2OC)cc[n-]1 (cis-trans isomerization)
C=CC(=O)/N=c1\cc(Oc2ccc(C(N)=O)nc2OCCCOCc2ccccc2OC)cc[n-]1 (3D coordinates assigned)
C=CC(=O)/N=c1\cc(Oc2ccc(C(N)=O)nc2OCCCOCc2ccccc2OC)cc[n-]1 (optimized conformer: 68.38984568356295 kcal/mol)

>  <smiles>  (88) 
C=CC(=O)N=c1cc(Oc2ccc(C(N)=O)nc2OCCCOCc2ccccc2OC)cc[nH]1

>  <score_type>  (88) 
oracle

>  <origin>  (88) 
adg

>  <m_score__min__energy>  (88) 
-8.6300000000000008

>  <m_primary>  (88) 
energy

$$$$
88:0
     RDKit          3D

 33 34  0  0  0  0  0  0  0  0999 V2000
   57.5380   31.5160   43.3050 C   0  0  0  0  0  0  0  0  0  0  0  0
   57.0780   30.9020   44.5950 C   0  0  0  0  0  0  0  0  0  0  0  0
   55.9290   30.3820   44.6290 O   0  0  0  0  0  0  0  0  0  0  0  0
   57.9270   30.8450   45.7650 N   0  0  0  0  0  0  0  0  0  0  0  0
   58.1900   29.5740   46.4670 C   0  0  0  0  0  0  0  0  0  0  0  0
   58.2910   28.3970   45.4840 C   0  0  0  0  0  0  0  0  0  0  0  0
   57.4780   27.2150   45.9390 C   0  0  0  0  0  0  0  0  0  0  0  0
   58.0400   26.2280   46.7590 C   0  0  0  0  0  0  0  0  0  0  0  0
   57.2260   25.1770   47.1880 C   0  0  0  0  0  0  0  0  0  0  0  0
   57.6960   24.2800   47.9360 O   0  0  0  0  0  0  0  0  0  0  0  0
   55.9260   25.1260   46.8030 N   0  0  0  0  0  0  0  0  0  0  0  0
   55.3980   26.0860   46.0010 C   0  0  0  0  0  0  0  0  0  0  0  0
   54.1900   26.0200   45.6550 O   0  0  0  0  0  0  0  0  0  0  0  0
   56.1710   27.1180   45.5750 N   0  0  0  0  0  0  0  0  0  0  0  0
   58.5880   32.0450   46.2190 C   0  0  0  0  0  0  0  0  0  0  0  0
   57.9090   33.2760   46.2310 C   0  0  0  0  0  0  0  0  0  0  0  0
   58.5400   34.4240   46.7190 C   0  0  0  0  0  0  0  0  0  0  0  0
   59.8520   34.3560   47.1950 C   0  0  0  0  0  0  0  0  0  0  0  0
   60.5390   33.1390   47.1770 C   0  0  0  0  0  0  0  0  0  0  0  0
   59.9130   31.9890   46.6880 C   0  0  0  0  0  0  0  0  0  0  0  0
   58.1848   32.3794   43.5200 H   0  0  0  0  0  0  0  0  0  0  0  0
   58.1020   30.7708   42.7248 H   0  0  0  0  0  0  0  0  0  0  0  0
   56.6644   31.8478   42.7248 H   0  0  0  0  0  0  0  0  0  0  0  0
   59.1373   29.6604   47.0195 H   0  0  0  0  0  0  0  0  0  0  0  0
   57.3524   29.3793   47.1530 H   0  0  0  0  0  0  0  0  0  0  0  0
   57.9242   28.7232   44.4996 H   0  0  0  0  0  0  0  0  0  0  0  0
   59.3448   28.0861   45.4312 H   0  0  0  0  0  0  0  0  0  0  0  0
   59.0973   26.2794   47.0580 H   0  0  0  0  0  0  0  0  0  0  0  0
   56.8771   33.3361   45.8549 H   0  0  0  0  0  0  0  0  0  0  0  0
   58.0022   35.3835   46.7283 H   0  0  0  0  0  0  0  0  0  0  0  0
   60.3439   35.2599   47.5837 H   0  0  0  0  0  0  0  0  0  0  0  0
   61.5732   33.0862   47.5480 H   0  0  0  0  0  0  0  0  0  0  0  0
   60.4596   31.0346   46.6698 H   0  0  0  0  0  0  0  0  0  0  0  0
  1  2  1  0
  2  3  2  0
  2  4  1  0
  4  5  1  0
  5  6  1  0
  6  7  1  0
  7  8  2  0
  8  9  1  0
  9 10  2  0
  9 11  1  0
 11 12  1  0
 12 13  2  0
 12 14  1  0
  4 15  1  0
 15 16  2  0
 16 17  1  0
 17 18  2  0
 18 19  1  0
 19 20  2  0
 14  7  1  0
 20 15  1  0
  1 21  1  0
  1 22  1  0
  1 23  1  0
  5 24  1  0
  5 25  1  0
  6 26  1  0
  6 27  1  0
  8 28  1  0
 16 29  1  0
 17 30  1  0
 18 31  1  0
 19 32  1  0
 20 33  1  0
M  CHG  2  11  -1  14  -1
M  END
>  <UniqueID>  (89) 
84

>  <SMILES>  (89) 
CC(=O)N(CCc1cc(=O)[n-]c(=O)[n-]1)c1ccccc1

>  <Energy>  (89) 
35.30942810487515

>  <Genealogy>  (89) 
CC(=O)N(CCc1cc(=O)[n-]c(=O)[n-]1)c1ccccc1 (protonated)
CC(=O)N(CCc1cc(=O)[n-]c(=O)[n-]1)c1ccccc1 (3D coordinates assigned)
CC(=O)N(CCc1cc(=O)[n-]c(=O)[n-]1)c1ccccc1 (optimized conformer: 35.30942810487515 kcal/mol)

>  <smiles>  (89) 
CC(=O)N(CCc1cc(=O)[nH]c(=O)[nH]1)c1ccccc1

>  <score_type>  (89) 
oracle

>  <origin>  (89) 
adg

>  <m_score__min__energy>  (89) 
-11.84

>  <m_primary>  (89) 
energy

$$$$
89:0
     RDKit          3D

 26 27  0  0  0  0  0  0  0  0999 V2000
   58.3624   35.2970   44.5122 H   0  0  0  0  0  0  0  0  0  0  0  0
   58.1130   34.2960   44.8940 C   0  0  0  0  0  0  0  0  0  0  0  0
   57.6690   33.2970   44.0850 N   0  0  0  0  0  0  0  0  0  0  0  0
   57.4300   32.1660   44.7840 C   0  0  0  0  0  0  0  0  0  0  0  0
   56.9970   31.0560   44.2630 N   0  0  0  0  0  0  0  0  0  0  0  0
   56.7200   29.8400   44.9730 C   0  0  0  0  0  0  0  0  0  0  0  0
   55.5570   29.3520   45.0060 O   0  0  0  0  0  0  0  0  0  0  0  0
   57.8400   29.1150   45.6420 C   0  0  0  0  0  0  0  0  0  0  0  0
   58.7743   29.6808   45.5118 H   0  0  0  0  0  0  0  0  0  0  0  0
   57.6243   29.0118   46.7157 H   0  0  0  0  0  0  0  0  0  0  0  0
   58.0180   27.4620   44.8910 S   0  0  0  0  0  0  0  0  0  0  0  0
   57.7530   26.5270   46.4380 C   0  0  0  0  0  0  0  0  0  0  0  0
   58.7178   26.1368   46.7941 H   0  0  0  0  0  0  0  0  0  0  0  0
   57.3141   27.2010   47.1884 H   0  0  0  0  0  0  0  0  0  0  0  0
   56.8360   25.4100   46.2150 N   0  0  0  0  0  0  0  0  0  0  0  0
   55.5050   25.4720   46.0140 C   0  0  0  0  0  0  0  0  0  0  0  0
   54.7730   26.6540   46.0010 O   0  0  0  0  0  0  0  0  0  0  0  0
   54.9740   24.2120   45.8200 C   0  0  0  0  0  0  0  0  0  0  0  0
   53.9194   23.9600   45.6346 H   0  0  0  0  0  0  0  0  0  0  0  0
   56.0370   23.3310   45.9060 C   0  0  0  0  0  0  0  0  0  0  0  0
   55.9983   22.2365   45.8032 H   0  0  0  0  0  0  0  0  0  0  0  0
   57.1570   24.1030   46.1470 C   0  0  0  0  0  0  0  0  0  0  0  0
   58.4460   23.6080   46.3010 O   0  0  0  0  0  0  0  0  0  0  0  0
   57.7560   32.3550   46.4190 S   0  0  0  0  0  0  0  0  0  0  0  0
   58.2290   33.9610   46.2380 C   0  0  0  0  0  0  0  0  0  0  0  0
   58.5702   34.6285   47.0430 H   0  0  0  0  0  0  0  0  0  0  0  0
  1  2  1  0
  2  3  1  0
  3  4  1  0
  4  5  2  0
  5  6  1  0
  6  7  2  0
  6  8  1  0
  8  9  1  0
  8 10  1  0
  8 11  1  0
 11 12  1  0
 12 13  1  0
 12 14  1  0
 12 15  1  0
 15 16  1  0
 16 17  1  0
 16 18  2  0
 18 19  1  0
 18 20  1  0
 20 21  1  0
 20 22  2  0
 22 23  1  0
  4 24  1  0
 24 25  1  0
 25 26  1  0
 25  2  2  0
 22 15  1  0
M  CHG  3   3  -1  17  -1  23  -1
M  END
>  <UniqueID>  (90) 
85

>  <SMILES>  (90) 
O=C(CSCn1c([O-])ccc1[O-])/N=c1\[n-]ccs1

>  <Energy>  (90) 
80.66264160658736

>  <Genealogy>  (90) 
O=C(CSCn1c([O-])ccc1[O-])N=c1[n-]ccs1 (protonated)
O=C(CSCn1c([O-])ccc1[O-])/N=c1\[n-]ccs1 (cis-trans isomerization)
O=C(CSCn1c([O-])ccc1[O-])/N=c1\[n-]ccs1 (3D coordinates assigned)
O=C(CSCn1c([O-])ccc1[O-])/N=c1\[n-]ccs1 (optimized conformer: 80.66264160658736 kcal/mol)

>  <smiles>  (90) 
O=C(CSCn1c(O)ccc1O)N=c1[nH]ccs1

>  <score_type>  (90) 
oracle

>  <origin>  (90) 
adg

>  <m_score__min__energy>  (90) 
-12.880000000000001

>  <m_primary>  (90) 
energy

$$$$
90:0
     RDKit          3D

 15 15  0  0  0  0  0  0  0  0999 V2000
   51.7040   31.3920   54.8030 C   0  0  0  0  0  0  0  0  0  0  0  0
   51.7060   31.0370   53.3380 C   0  0  0  0  0  0  0  0  0  0  0  0
   52.2680   29.8260   52.9190 C   0  0  0  0  0  0  0  0  0  0  0  0
   52.2770   29.4930   51.6040 N   0  0  0  0  0  0  0  0  0  0  0  0
   51.7450   30.3230   50.6680 C   0  0  0  0  0  0  0  0  0  0  0  0
   51.7670   29.9900   49.4520 O   0  0  0  0  0  0  0  0  0  0  0  0
   51.1890   31.5110   51.0410 N   0  0  0  0  0  0  0  0  0  0  0  0
   50.6560   32.3340   50.0710 O   0  0  0  0  0  0  0  0  0  0  0  0
   51.1570   31.8880   52.3560 C   0  0  0  0  0  0  0  0  0  0  0  0
   50.4790   33.3290   52.7750 S   0  0  0  0  0  0  0  0  0  0  0  0
   51.7092   30.4704   55.4036 H   0  0  0  0  0  0  0  0  0  0  0  0
   52.5988   31.9874   55.0372 H   0  0  0  0  0  0  0  0  0  0  0  0
   50.8025   31.9772   55.0372 H   0  0  0  0  0  0  0  0  0  0  0  0
   52.7049   29.1403   53.6599 H   0  0  0  0  0  0  0  0  0  0  0  0
   52.7020   28.5840   51.3110 H   0  0  0  0  0  0  0  0  0  0  0  0
  1  2  1  0
  2  3  2  0
  3  4  1  0
  4  5  1  0
  5  6  2  0
  5  7  1  0
  7  8  1  0
  7  9  1  0
  9 10  2  0
  9  2  1  0
  1 11  1  0
  1 12  1  0
  1 13  1  0
  3 14  1  0
  4 15  1  0
M  CHG  1   8  -1
M  END
>  <UniqueID>  (91) 
86

>  <SMILES>  (91) 
Cc1c[nH]c(=O)n([O-])c1=S

>  <Energy>  (91) 
17.093648606199928

>  <Genealogy>  (91) 
Cc1c[nH]c(=O)n([O-])c1=S (protonated)
Cc1c[nH]c(=O)n([O-])c1=S (3D coordinates assigned)
Cc1c[nH]c(=O)n([O-])c1=S (optimized conformer: 17.093648606199928 kcal/mol)

>  <smiles>  (91) 
Cc1c[nH]c(=O)n(O)c1=S

>  <score_type>  (91) 
oracle

>  <origin>  (91) 
adg

>  <m_score__min__energy>  (91) 
-9.3800000000000008

>  <m_primary>  (91) 
energy

$$$$
91:0
     RDKit          3D

 62 65  0  0  0  0  0  0  0  0999 V2000
   57.1806   30.5734   47.0684 H   0  0  0  0  0  0  0  0  0  0  0  0
   57.8120   30.4960   46.1710 C   0  0  0  0  0  0  0  0  0  0  0  0
   57.3060   29.7510   45.0080 C   0  0  0  0  0  0  0  0  0  0  0  0
   57.6340   30.0840   43.8360 O   0  0  0  0  0  0  0  0  0  0  0  0
   56.4160   28.6530   45.2200 N   0  0  0  0  0  0  0  0  0  0  0  0
   56.9780   27.0940   45.7220 S   0  0  0  0  0  0  0  0  0  0  0  0
   55.8870   26.3970   46.4850 O   0  0  0  0  0  0  0  0  0  0  0  0
   57.3290   26.2770   44.5100 O   0  0  0  0  0  0  0  0  0  0  0  0
   58.4160   27.2900   46.7200 C   0  0  0  0  0  0  0  0  0  0  0  0
   58.3890   28.1030   47.8620 C   0  0  0  0  0  0  0  0  0  0  0  0
   57.4551   28.6033   48.1578 H   0  0  0  0  0  0  0  0  0  0  0  0
   59.5480   28.2790   48.6260 C   0  0  0  0  0  0  0  0  0  0  0  0
   59.5241   28.9168   49.5219 H   0  0  0  0  0  0  0  0  0  0  0  0
   60.7380   27.6440   48.2510 C   0  0  0  0  0  0  0  0  0  0  0  0
   61.6496   27.7850   48.8503 H   0  0  0  0  0  0  0  0  0  0  0  0
   60.7670   26.8310   47.1150 C   0  0  0  0  0  0  0  0  0  0  0  0
   61.7017   26.3312   46.8209 H   0  0  0  0  0  0  0  0  0  0  0  0
   59.6100   26.6520   46.3520 C   0  0  0  0  0  0  0  0  0  0  0  0
   59.6356   26.0088   45.4600 H   0  0  0  0  0  0  0  0  0  0  0  0
   59.0130   31.0820   46.1740 C   0  0  0  0  0  0  0  0  0  0  0  0
   59.9048   30.4390   46.2096 H   0  0  0  0  0  0  0  0  0  0  0  0
   59.2100   32.5510   46.1320 C   0  0  0  0  0  0  0  0  0  0  0  0
   58.6130   33.2380   45.0610 C   0  0  0  0  0  0  0  0  0  0  0  0
   58.0433   32.6753   44.3068 H   0  0  0  0  0  0  0  0  0  0  0  0
   58.7320   34.6230   44.9400 C   0  0  0  0  0  0  0  0  0  0  0  0
   58.2696   35.1425   44.0878 H   0  0  0  0  0  0  0  0  0  0  0  0
   59.4360   35.3470   45.8980 C   0  0  0  0  0  0  0  0  0  0  0  0
   59.5377   36.4376   45.7962 H   0  0  0  0  0  0  0  0  0  0  0  0
   60.0130   34.6930   46.9870 C   0  0  0  0  0  0  0  0  0  0  0  0
   60.5616   35.2755   47.7419 H   0  0  0  0  0  0  0  0  0  0  0  0
   59.9020   33.2970   47.1320 C   0  0  0  0  0  0  0  0  0  0  0  0
   60.5320   32.6860   48.3380 C   0  0  0  0  0  0  0  0  0  0  0  0
   61.7920   32.1570   48.3240 C   0  0  0  0  0  0  0  0  0  0  0  0
   62.3890   31.6300   49.5780 C   0  0  0  0  0  0  0  0  0  0  0  0
   63.4330   32.3190   50.2230 C   0  0  0  0  0  0  0  0  0  0  0  0
   63.8009   33.2689   49.8078 H   0  0  0  0  0  0  0  0  0  0  0  0
   64.0050   31.8010   51.3900 C   0  0  0  0  0  0  0  0  0  0  0  0
   64.8212   32.3431   51.8899 H   0  0  0  0  0  0  0  0  0  0  0  0
   63.5390   30.5940   51.9210 C   0  0  0  0  0  0  0  0  0  0  0  0
   63.9899   30.1863   52.8378 H   0  0  0  0  0  0  0  0  0  0  0  0
   62.5000   29.9050   51.2870 C   0  0  0  0  0  0  0  0  0  0  0  0
   62.1317   28.9580   51.7083 H   0  0  0  0  0  0  0  0  0  0  0  0
   61.9290   30.4180   50.1190 C   0  0  0  0  0  0  0  0  0  0  0  0
   61.1155   29.8700   49.6210 H   0  0  0  0  0  0  0  0  0  0  0  0
   62.7020   32.2640   47.1060 C   0  0  0  0  0  0  0  0  0  0  0  0
   62.0971   32.0959   46.2027 H   0  0  0  0  0  0  0  0  0  0  0  0
   63.4923   31.5079   47.2232 H   0  0  0  0  0  0  0  0  0  0  0  0
   63.3910   33.6220   46.9820 C   0  0  0  0  0  0  0  0  0  0  0  0
   63.5944   34.0230   47.9859 H   0  0  0  0  0  0  0  0  0  0  0  0
   64.3383   33.5040   46.4354 H   0  0  0  0  0  0  0  0  0  0  0  0
   62.7364   34.3168   46.4354 H   0  0  0  0  0  0  0  0  0  0  0  0
   59.6610   32.5930   49.5470 C   0  0  0  0  0  0  0  0  0  0  0  0
   58.7430   31.5350   49.6970 C   0  0  0  0  0  0  0  0  0  0  0  0
   58.6784   30.7541   48.9250 H   0  0  0  0  0  0  0  0  0  0  0  0
   57.9140   31.4710   50.8200 C   0  0  0  0  0  0  0  0  0  0  0  0
   57.2143   30.6305   50.9387 H   0  0  0  0  0  0  0  0  0  0  0  0
   57.9720   32.4710   51.7910 C   0  0  0  0  0  0  0  0  0  0  0  0
   57.3300   32.4101   52.6821 H   0  0  0  0  0  0  0  0  0  0  0  0
   58.8440   33.5480   51.6320 C   0  0  0  0  0  0  0  0  0  0  0  0
   58.8770   34.3444   52.3901 H   0  0  0  0  0  0  0  0  0  0  0  0
   59.6760   33.6170   50.5110 C   0  0  0  0  0  0  0  0  0  0  0  0
   60.3475   34.4786   50.3818 H   0  0  0  0  0  0  0  0  0  0  0  0
  1  2  1  0
  2  3  1  0
  3  4  2  0
  3  5  1  0
  5  6  1  0
  6  7  2  0
  6  8  2  0
  6  9  1  0
  9 10  2  0
 10 11  1  0
 10 12  1  0
 12 13  1  0
 12 14  2  0
 14 15  1  0
 14 16  1  0
 16 17  1  0
 16 18  2  0
 18 19  1  0
  2 20  2  3
 20 21  1  0
 20 22  1  0
 22 23  2  0
 23 24  1  0
 23 25  1  0
 25 26  1  0
 25 27  2  0
 27 28  1  0
 27 29  1  0
 29 30  1  0
 29 31  2  0
 31 32  1  0
 32 33  2  0
 33 34  1  0
 34 35  2  0
 35 36  1  0
 35 37  1  0
 37 38  1  0
 37 39  2  0
 39 40  1  0
 39 41  1  0
 41 42  1  0
 41 43  2  0
 43 44  1  0
 33 45  1  0
 45 46  1  0
 45 47  1  0
 45 48  1  0
 48 49  1  0
 48 50  1  0
 48 51  1  0
 32 52  1  0
 52 53  2  0
 53 54  1  0
 53 55  1  0
 55 56  1  0
 55 57  2  0
 57 58  1  0
 57 59  1  0
 59 60  1  0
 59 61  2  0
 61 62  1  0
 18  9  1  0
 31 22  1  0
 43 34  1  0
 61 52  1  0
M  CHG  1   5  -1
M  END
>  <UniqueID>  (92) 
87

>  <SMILES>  (92) 
CC/C(=C(/c1ccccc1)c1ccccc1C=CC(=O)[N-]S(=O)(=O)c1ccccc1)c1ccccc1

>  <Energy>  (92) 
90.7508317673583

>  <Genealogy>  (92) 
CCC(=C(c1ccccc1)c1ccccc1C=CC(=O)[N-]S(=O)(=O)c1ccccc1)c1ccccc1 (protonated)
CC/C(=C(/c1ccccc1)c1ccccc1C=CC(=O)[N-]S(=O)(=O)c1ccccc1)c1ccccc1 (cis-trans isomerization)
CC/C(=C(/c1ccccc1)c1ccccc1C=CC(=O)[N-]S(=O)(=O)c1ccccc1)c1ccccc1 (3D coordinates assigned)
CC/C(=C(/c1ccccc1)c1ccccc1C=CC(=O)[N-]S(=O)(=O)c1ccccc1)c1ccccc1 (optimized conformer: 90.7508317673583 kcal/mol)

>  <smiles>  (92) 
CCC(=C(c1ccccc1)c1ccccc1C=CC(=O)NS(=O)(=O)c1ccccc1)c1ccccc1

>  <score_type>  (92) 
oracle

>  <origin>  (92) 
adg

>  <m_score__min__energy>  (92) 
-13.48

>  <m_primary>  (92) 
energy

$$$$
92:0
     RDKit          3D

 50 53  0  0  0  0  0  0  0  0999 V2000
   58.9610   25.7460   45.3150 H   0  0  0  0  0  0  0  0  0  0  0  0
   58.3840   24.9780   44.9910 O   0  0  0  0  0  0  0  0  0  0  0  0
   57.0050   24.9650   45.1950 C   0  0  0  0  0  0  0  0  0  0  0  0
   56.2400   23.8550   44.8160 C   0  0  0  0  0  0  0  0  0  0  0  0
   56.7263   22.9846   44.3513 H   0  0  0  0  0  0  0  0  0  0  0  0
   54.8600   23.8530   45.0280 C   0  0  0  0  0  0  0  0  0  0  0  0
   54.2531   22.9854   44.7298 H   0  0  0  0  0  0  0  0  0  0  0  0
   54.2590   24.9630   45.6220 C   0  0  0  0  0  0  0  0  0  0  0  0
   53.1731   24.9727   45.7975 H   0  0  0  0  0  0  0  0  0  0  0  0
   55.0160   26.0330   45.9840 N   0  0  0  0  0  0  0  0  0  0  0  0
   56.3660   26.0700   45.7800 C   0  0  0  0  0  0  0  0  0  0  0  0
   57.0710   27.0990   46.1540 N   0  0  0  0  0  0  0  0  0  0  0  0
   58.1500   27.0800   47.1020 C   0  0  0  0  0  0  0  0  0  0  0  0
   58.6560   25.9700   47.4150 O   0  0  0  0  0  0  0  0  0  0  0  0
   58.7160   28.3240   47.6770 C   0  0  0  0  0  0  0  0  0  0  0  0
   58.4120   29.5770   47.1170 C   0  0  0  0  0  0  0  0  0  0  0  0
   57.7392   29.6392   46.2490 H   0  0  0  0  0  0  0  0  0  0  0  0
   58.9590   30.7430   47.6560 C   0  0  0  0  0  0  0  0  0  0  0  0
   58.7114   31.7197   47.2147 H   0  0  0  0  0  0  0  0  0  0  0  0
   59.8190   30.6730   48.7530 C   0  0  0  0  0  0  0  0  0  0  0  0
   60.2469   31.5952   49.1731 H   0  0  0  0  0  0  0  0  0  0  0  0
   60.1400   29.4320   49.3220 C   0  0  0  0  0  0  0  0  0  0  0  0
   61.0870   29.3630   50.4900 C   0  0  0  0  0  0  0  0  0  0  0  0
   61.6801   28.4390   50.4227 H   0  0  0  0  0  0  0  0  0  0  0  0
   61.7519   30.2389   50.4650 H   0  0  0  0  0  0  0  0  0  0  0  0
   60.3420   29.3670   51.7440 N   0  0  0  0  0  0  0  0  0  0  0  0
   59.5850   30.4890   52.2170 C   0  0  0  0  0  0  0  0  0  0  0  0
   60.1790   31.5600   52.5200 O   0  0  0  0  0  0  0  0  0  0  0  0
   58.1130   30.3910   52.3520 C   0  0  0  0  0  0  0  0  0  0  0  0
   57.5360   29.4480   53.2210 C   0  0  0  0  0  0  0  0  0  0  0  0
   58.1825   28.7779   53.8066 H   0  0  0  0  0  0  0  0  0  0  0  0
   56.1480   29.3560   53.3460 C   0  0  0  0  0  0  0  0  0  0  0  0
   55.7113   28.6095   54.0257 H   0  0  0  0  0  0  0  0  0  0  0  0
   55.3070   30.2030   52.6160 C   0  0  0  0  0  0  0  0  0  0  0  0
   53.9190   30.0660   52.7830 O   0  0  0  0  0  0  0  0  0  0  0  0
   53.0080   29.6150   51.7810 C   0  0  0  0  0  0  0  0  0  0  0  0
   53.5712   29.1223   50.9748 H   0  0  0  0  0  0  0  0  0  0  0  0
   52.3001   28.9066   52.2360 H   0  0  0  0  0  0  0  0  0  0  0  0
   52.2430   30.7670   51.2140 C   0  0  0  0  0  0  0  0  0  0  0  0
   52.1330   31.9650   51.8220 N   0  0  0  0  0  0  0  0  0  0  0  0
   51.3920   32.7240   51.0340 N   0  0  0  0  0  0  0  0  0  0  0  0
   51.0780   31.9620   49.9720 C   0  0  0  0  0  0  0  0  0  0  0  0
   50.3730   32.3700   49.0140 O   0  0  0  0  0  0  0  0  0  0  0  0
   51.5900   30.7190   50.0350 N   0  0  0  0  0  0  0  0  0  0  0  0
   55.8790   31.1480   51.7450 C   0  0  0  0  0  0  0  0  0  0  0  0
   55.2297   31.8184   51.1628 H   0  0  0  0  0  0  0  0  0  0  0  0
   57.2680   31.2400   51.6150 C   0  0  0  0  0  0  0  0  0  0  0  0
   57.7036   31.9827   50.9305 H   0  0  0  0  0  0  0  0  0  0  0  0
   59.5950   28.2590   48.7740 C   0  0  0  0  0  0  0  0  0  0  0  0
   59.8574   27.2819   49.2058 H   0  0  0  0  0  0  0  0  0  0  0  0
  1  2  1  0
  2  3  1  0
  3  4  2  0
  4  5  1  0
  4  6  1  0
  6  7  1  0
  6  8  2  0
  8  9  1  0
  8 10  1  0
 10 11  1  0
 11 12  2  0
 12 13  1  0
 13 14  2  0
 13 15  1  0
 15 16  2  0
 16 17  1  0
 16 18  1  0
 18 19  1  0
 18 20  2  0
 20 21  1  0
 20 22  1  0
 22 23  1  0
 23 24  1  0
 23 25  1  0
 23 26  1  0
 26 27  1  0
 27 28  2  0
 27 29  1  0
 29 30  2  0
 30 31  1  0
 30 32  1  0
 32 33  1  0
 32 34  2  0
 34 35  1  0
 35 36  1  0
 36 37  1  0
 36 38  1  0
 36 39  1  0
 39 40  2  0
 40 41  1  0
 41 42  1  0
 42 43  2  0
 42 44  1  0
 34 45  1  0
 45 46  1  0
 45 47  2  0
 47 48  1  0
 22 49  2  0
 49 50  1  0
 11  3  1  0
 49 15  1  0
 47 29  1  0
 44 39  1  0
M  CHG  4  10  -1  26  -1  41  -1  44  -1
M  END
>  <UniqueID>  (93) 
88

>  <SMILES>  (93) 
O=C(/N=c1\[n-]cccc1O)c1cccc(C[N-]C(=O)c2ccc(OCc3n[n-]c(=O)[n-]3)cc2)c1

>  <Energy>  (93) 
93.71709864243279

>  <Genealogy>  (93) 
O=C(N=c1[n-]cccc1O)c1cccc(C[N-]C(=O)c2ccc(OCc3n[n-]c(=O)[n-]3)cc2)c1 (protonated)
O=C(/N=c1\[n-]cccc1O)c1cccc(C[N-]C(=O)c2ccc(OCc3n[n-]c(=O)[n-]3)cc2)c1 (cis-trans isomerization)
O=C(/N=c1\[n-]cccc1O)c1cccc(C[N-]C(=O)c2ccc(OCc3n[n-]c(=O)[n-]3)cc2)c1 (3D coordinates assigned)
O=C(/N=c1\[n-]cccc1O)c1cccc(C[N-]C(=O)c2ccc(OCc3n[n-]c(=O)[n-]3)cc2)c1 (optimized conformer: 93.71709864243279 kcal/mol)

>  <smiles>  (93) 
O=C(N=c1[nH]cccc1O)c1cccc(CNC(=O)c2ccc(OCc3n[nH]c(=O)[nH]3)cc2)c1

>  <score_type>  (93) 
oracle

>  <origin>  (93) 
adg

>  <m_score__min__energy>  (93) 
-16.989999999999998

>  <m_primary>  (93) 
energy

$$$$
93:0
     RDKit          3D

 45 47  0  0  0  0  0  0  0  0999 V2000
   56.5060   30.9650   53.5170 O   0  0  0  0  0  0  0  0  0  0  0  0
   56.1620   30.4340   52.4270 C   0  0  0  0  0  0  0  0  0  0  0  0
   54.8750   29.6530   52.3730 C   0  0  0  0  0  0  0  0  0  0  0  0
   53.6580   30.5410   52.2780 C   0  0  0  0  0  0  0  0  0  0  0  0
   53.2510   31.0790   51.0430 C   0  0  0  0  0  0  0  0  0  0  0  0
   52.0830   31.8410   50.9550 C   0  0  0  0  0  0  0  0  0  0  0  0
   51.2970   32.0550   52.0910 C   0  0  0  0  0  0  0  0  0  0  0  0
   50.1380   32.8160   52.0030 O   0  0  0  0  0  0  0  0  0  0  0  0
   51.6800   31.5050   53.3180 C   0  0  0  0  0  0  0  0  0  0  0  0
   52.8520   30.7480   53.4120 C   0  0  0  0  0  0  0  0  0  0  0  0
   56.9990   30.6220   51.2780 N   0  0  0  0  0  0  0  0  0  0  0  0
   57.3550   31.9030   50.6790 C   0  0  0  0  0  0  0  0  0  0  0  0
   58.7120   31.8190   50.0600 C   0  0  0  0  0  0  0  0  0  0  0  0
   59.7350   31.9740   50.7770 O   0  0  0  0  0  0  0  0  0  0  0  0
   58.8260   31.6590   48.6410 N   0  0  0  0  0  0  0  0  0  0  0  0
   58.8000   32.6850   47.6380 C   0  0  0  0  0  0  0  0  0  0  0  0
   59.5460   33.8650   47.8090 C   0  0  0  0  0  0  0  0  0  0  0  0
   59.6110   34.8140   46.7910 C   0  0  0  0  0  0  0  0  0  0  0  0
   58.9460   34.5750   45.5940 C   0  0  0  0  0  0  0  0  0  0  0  0
   58.2410   33.4270   45.4260 N   0  0  0  0  0  0  0  0  0  0  0  0
   58.1350   32.4770   46.3950 C   0  0  0  0  0  0  0  0  0  0  0  0
   57.4330   31.4110   46.1140 N   0  0  0  0  0  0  0  0  0  0  0  0
   57.8600   30.2170   45.4440 C   0  0  0  0  0  0  0  0  0  0  0  0
   59.2180   29.8690   45.4580 C   0  0  0  0  0  0  0  0  0  0  0  0
   59.6510   28.7030   44.8200 C   0  0  0  0  0  0  0  0  0  0  0  0
   58.7350   27.8930   44.1450 C   0  0  0  0  0  0  0  0  0  0  0  0
   57.3850   28.2520   44.0980 C   0  0  0  0  0  0  0  0  0  0  0  0
   56.9430   29.4190   44.7370 C   0  0  0  0  0  0  0  0  0  0  0  0
   55.5990   29.7850   44.6820 O   0  0  0  0  0  0  0  0  0  0  0  0
   54.8997   28.9945   51.4922 H   0  0  0  0  0  0  0  0  0  0  0  0
   54.7953   29.0791   53.3080 H   0  0  0  0  0  0  0  0  0  0  0  0
   53.8556   30.8987   50.1419 H   0  0  0  0  0  0  0  0  0  0  0  0
   51.7814   32.2734   49.9896 H   0  0  0  0  0  0  0  0  0  0  0  0
   51.0585   31.6680   54.2108 H   0  0  0  0  0  0  0  0  0  0  0  0
   53.1453   30.3119   54.3783 H   0  0  0  0  0  0  0  0  0  0  0  0
   56.6171   32.1607   49.9050 H   0  0  0  0  0  0  0  0  0  0  0  0
   57.3623   32.6770   51.4605 H   0  0  0  0  0  0  0  0  0  0  0  0
   60.0821   34.0399   48.7535 H   0  0  0  0  0  0  0  0  0  0  0  0
   60.1828   35.7429   46.9331 H   0  0  0  0  0  0  0  0  0  0  0  0
   58.9910   35.3163   44.7826 H   0  0  0  0  0  0  0  0  0  0  0  0
   59.9446   30.5151   45.9723 H   0  0  0  0  0  0  0  0  0  0  0  0
   60.7144   28.4231   44.8496 H   0  0  0  0  0  0  0  0  0  0  0  0
   59.0763   26.9719   43.6500 H   0  0  0  0  0  0  0  0  0  0  0  0
   56.6672   27.6170   43.5580 H   0  0  0  0  0  0  0  0  0  0  0  0
   55.2250   30.5210   45.2700 H   0  0  0  0  0  0  0  0  0  0  0  0
  1  2  2  0
  2  3  1  0
  3  4  1  0
  4  5  2  0
  5  6  1  0
  6  7  2  0
  7  8  1  0
  7  9  1  0
  9 10  2  0
  2 11  1  0
 11 12  1  0
 12 13  1  0
 13 14  2  0
 13 15  1  0
 15 16  1  0
 16 17  2  0
 17 18  1  0
 18 19  2  0
 19 20  1  0
 20 21  1  0
 21 22  2  3
 22 23  1  0
 23 24  2  0
 24 25  1  0
 25 26  2  0
 26 27  1  0
 27 28  2  0
 28 29  1  0
 10  4  1  0
 21 16  1  0
 28 23  1  0
  3 30  1  0
  3 31  1  0
  5 32  1  0
  6 33  1  0
  9 34  1  0
 10 35  1  0
 12 36  1  0
 12 37  1  0
 17 38  1  0
 18 39  1  0
 19 40  1  0
 24 41  1  0
 25 42  1  0
 26 43  1  0
 27 44  1  0
 29 45  1  0
M  CHG  4   8  -1  11  -1  15  -1  20  -1
M  END
>  <UniqueID>  (94) 
89

>  <SMILES>  (94) 
O=C(Cc1ccc([O-])cc1)[N-]CC(=O)[N-]c1ccc[n-]c1=Nc1ccccc1O

>  <Energy>  (94) 
56.37317515838606

>  <Genealogy>  (94) 
O=C(Cc1ccc([O-])cc1)[N-]CC(=O)[N-]c1ccc[n-]c1=Nc1ccccc1O (protonated)
O=C(Cc1ccc([O-])cc1)[N-]CC(=O)[N-]c1ccc[n-]c1=Nc1ccccc1O (3D coordinates assigned)
O=C(Cc1ccc([O-])cc1)[N-]CC(=O)[N-]c1ccc[n-]c1=Nc1ccccc1O (optimized conformer: 56.37317515838606 kcal/mol)

>  <smiles>  (94) 
O=C(Cc1ccc(O)cc1)NCC(=O)Nc1ccc[nH]c1=Nc1ccccc1O

>  <score_type>  (94) 
oracle

>  <origin>  (94) 
adg

>  <m_score__min__energy>  (94) 
-16.260000000000002

>  <m_primary>  (94) 
energy

$$$$
94:0
     RDKit          3D

 20 21  0  0  0  0  0  0  0  0999 V2000
   56.5990   29.1410   43.1730 O   0  0  0  0  0  0  0  0  0  0  0  0
   56.3960   29.9490   44.1330 C   0  0  0  0  0  0  0  0  0  0  0  0
   55.4090   29.5800   45.0350 O   0  0  0  0  0  0  0  0  0  0  0  0
   57.1620   31.1900   44.2710 C   0  0  0  0  0  0  0  0  0  0  0  0
   57.6500   31.8660   43.1500 C   0  0  0  0  0  0  0  0  0  0  0  0
   58.3750   33.0430   43.3280 C   0  0  0  0  0  0  0  0  0  0  0  0
   58.5880   33.5040   44.6140 C   0  0  0  0  0  0  0  0  0  0  0  0
   59.2820   34.6340   44.8300 N   0  0  0  0  0  0  0  0  0  0  0  0
   59.5250   35.1380   46.0510 C   0  0  0  0  0  0  0  0  0  0  0  0
   59.0430   34.4660   47.1180 N   0  0  0  0  0  0  0  0  0  0  0  0
   58.3400   33.3290   47.0040 C   0  0  0  0  0  0  0  0  0  0  0  0
   57.8870   32.6980   48.0140 O   0  0  0  0  0  0  0  0  0  0  0  0
   58.1110   32.8440   45.7280 C   0  0  0  0  0  0  0  0  0  0  0  0
   57.3870   31.6680   45.5410 C   0  0  0  0  0  0  0  0  0  0  0  0
   55.5560   29.7290   46.0140 H   0  0  0  0  0  0  0  0  0  0  0  0
   57.4643   31.4741   42.1391 H   0  0  0  0  0  0  0  0  0  0  0  0
   58.7701   33.5945   42.4621 H   0  0  0  0  0  0  0  0  0  0  0  0
   59.6510   35.1490   43.9970 H   0  0  0  0  0  0  0  0  0  0  0  0
   60.0982   36.0683   46.1775 H   0  0  0  0  0  0  0  0  0  0  0  0
   56.9946   31.1209   46.4109 H   0  0  0  0  0  0  0  0  0  0  0  0
  1  2  2  0
  2  3  1  0
  2  4  1  0
  4  5  2  0
  5  6  1  0
  6  7  2  0
  7  8  1  0
  8  9  1  0
  9 10  2  0
 10 11  1  0
 11 12  2  0
 11 13  1  0
 13 14  2  0
 14  4  1  0
 13  7  1  0
  3 15  1  0
  5 16  1  0
  6 17  1  0
  8 18  1  0
  9 19  1  0
 14 20  1  0
M  END
>  <smiles>  (95) 
O=C(O)c1ccc2[nH]cnc(=O)c2c1

>  <score_type>  (95) 
oracle

>  <origin>  (95) 
adg

>  <m_score__min__energy>  (95) 
-6.5300000000000002

>  <m_primary>  (95) 
energy

$$$$
95:0
     RDKit          3D

 83 88  0  0  0  0  0  0  0  0999 V2000
   60.8230   25.8410   51.5630 C   0  0  0  0  0  0  0  0  0  0  0  0
   61.3820   26.4950   50.4310 O   0  0  0  0  0  0  0  0  0  0  0  0
   60.8810   27.6770   49.8640 C   0  0  0  0  0  0  0  0  0  0  0  0
   60.5600   27.7730   48.4950 C   0  0  0  0  0  0  0  0  0  0  0  0
   60.0590   28.9700   47.9570 C   0  0  0  0  0  0  0  0  0  0  0  0
   59.7240   29.0580   46.4800 C   0  0  2  0  0  0  0  0  0  0  0  0
   58.5070   29.9680   46.2110 C   0  0  0  0  0  0  0  0  0  0  0  0
   57.8380   29.6160   44.9350 N   0  0  2  0  0  0  0  0  0  0  0  0
   57.3470   30.8220   44.2120 C   0  0  0  0  0  0  0  0  0  0  0  0
   57.9830   32.1270   44.6590 C   0  0  0  0  0  0  0  0  0  0  0  0
   58.5810   32.9940   43.7300 C   0  0  0  0  0  0  0  0  0  0  0  0
   59.1700   34.1860   44.1570 C   0  0  0  0  0  0  0  0  0  0  0  0
   59.1510   34.5350   45.5090 C   0  0  0  0  0  0  0  0  0  0  0  0
   58.5350   33.7000   46.4480 C   0  0  0  0  0  0  0  0  0  0  0  0
   58.5080   34.1120   47.7890 O   0  0  0  0  0  0  0  0  0  0  0  0
   59.2670   33.5080   48.8340 C   0  0  0  0  0  0  0  0  0  0  0  0
   60.4750   34.4020   49.1550 C   0  0  0  0  0  0  0  0  0  0  0  0
   61.7900   33.8190   48.8040 N   0  0  0  0  0  0  0  0  0  0  0  0
   62.1620   32.6410   49.6020 C   0  0  0  0  0  0  0  0  0  0  0  0
   63.6360   32.2780   49.3260 C   0  0  0  0  0  0  0  0  0  0  0  0
   64.1650   32.9600   48.2000 O   0  0  0  0  0  0  0  0  0  0  0  0
   63.2890   32.8270   47.0980 C   0  0  0  0  0  0  0  0  0  0  0  0
   61.9640   33.5690   47.3610 C   0  0  0  0  0  0  0  0  0  0  0  0
   57.9590   32.4890   46.0180 C   0  0  0  0  0  0  0  0  0  0  0  0
   56.7480   28.6350   45.1520 C   0  0  0  0  0  0  0  0  0  0  0  0
   57.1570   27.3030   45.7660 C   0  0  0  0  0  0  0  0  0  0  0  0
   56.1180   26.3820   45.9940 C   0  0  0  0  0  0  0  0  0  0  0  0
   56.3830   25.1050   46.4890 C   0  0  0  0  0  0  0  0  0  0  0  0
   57.6950   24.7190   46.7550 C   0  0  0  0  0  0  0  0  0  0  0  0
   58.7400   25.6150   46.5400 C   0  0  0  0  0  0  0  0  0  0  0  0
   58.4870   26.9120   46.0730 C   0  0  0  0  0  0  0  0  0  0  0  0
   59.5900   27.7530   45.9130 O   0  0  0  0  0  0  0  0  0  0  0  0
   59.8590   30.0680   48.8100 C   0  0  0  0  0  0  0  0  0  0  0  0
   60.1750   29.9800   50.1660 C   0  0  0  0  0  0  0  0  0  0  0  0
   60.7060   28.7920   50.6970 C   0  0  0  0  0  0  0  0  0  0  0  0
   61.0330   28.6690   52.0550 O   0  0  0  0  0  0  0  0  0  0  0  0
   60.3690   29.3120   53.1130 C   0  0  0  0  0  0  0  0  0  0  0  0
   60.0800   28.6760   54.1640 O   0  0  0  0  0  0  0  0  0  0  0  0
   59.9540   30.7230   52.9660 C   0  0  0  0  0  0  0  0  0  0  0  0
   60.9130   31.7500   52.9000 C   0  0  0  0  0  0  0  0  0  0  0  0
   60.5130   33.0830   52.7570 C   0  0  0  0  0  0  0  0  0  0  0  0
   59.1550   33.4040   52.6830 C   0  0  0  0  0  0  0  0  0  0  0  0
   58.1950   32.3930   52.7500 C   0  0  0  0  0  0  0  0  0  0  0  0
   58.5890   31.0580   52.8900 C   0  0  0  0  0  0  0  0  0  0  0  0
   61.2153   26.3000   52.4825 H   0  0  0  0  0  0  0  0  0  0  0  0
   59.7279   25.9421   51.5412 H   0  0  0  0  0  0  0  0  0  0  0  0
   61.0933   24.7750   51.5412 H   0  0  0  0  0  0  0  0  0  0  0  0
   60.7034   26.9007   47.8404 H   0  0  0  0  0  0  0  0  0  0  0  0
   60.5670   29.5441   45.9671 H   0  0  0  0  0  0  0  0  0  0  0  0
   57.7872   29.8555   47.0351 H   0  0  0  0  0  0  0  0  0  0  0  0
   58.8612   31.0070   46.1404 H   0  0  0  0  0  0  0  0  0  0  0  0
   58.5310   29.1790   44.2800 H   0  0  0  0  0  0  0  0  0  0  0  0
   57.5545   30.6881   43.1401 H   0  0  0  0  0  0  0  0  0  0  0  0
   56.2731   30.9049   44.4352 H   0  0  0  0  0  0  0  0  0  0  0  0
   58.5855   32.7330   42.6614 H   0  0  0  0  0  0  0  0  0  0  0  0
   59.6507   34.8525   43.4257 H   0  0  0  0  0  0  0  0  0  0  0  0
   59.6233   35.4724   45.8380 H   0  0  0  0  0  0  0  0  0  0  0  0
   58.6393   33.4000   49.7308 H   0  0  0  0  0  0  0  0  0  0  0  0
   59.6141   32.5142   48.5149 H   0  0  0  0  0  0  0  0  0  0  0  0
   60.3598   35.3449   48.6004 H   0  0  0  0  0  0  0  0  0  0  0  0
   60.4781   34.5379   50.2466 H   0  0  0  0  0  0  0  0  0  0  0  0
   62.0339   32.8668   50.6709 H   0  0  0  0  0  0  0  0  0  0  0  0
   61.5176   31.7930   49.3268 H   0  0  0  0  0  0  0  0  0  0  0  0
   64.2350   32.5409   50.2104 H   0  0  0  0  0  0  0  0  0  0  0  0
   63.6788   31.1998   49.1124 H   0  0  0  0  0  0  0  0  0  0  0  0
   63.7682   33.2504   46.2030 H   0  0  0  0  0  0  0  0  0  0  0  0
   63.0718   31.7594   46.9465 H   0  0  0  0  0  0  0  0  0  0  0  0
   61.9748   34.5300   46.8258 H   0  0  0  0  0  0  0  0  0  0  0  0
   61.1304   32.9460   47.0047 H   0  0  0  0  0  0  0  0  0  0  0  0
   57.4859   31.8199   46.7518 H   0  0  0  0  0  0  0  0  0  0  0  0
   56.0065   29.0988   45.8191 H   0  0  0  0  0  0  0  0  0  0  0  0
   56.3651   28.3928   44.1497 H   0  0  0  0  0  0  0  0  0  0  0  0
   55.0796   26.6738   45.7783 H   0  0  0  0  0  0  0  0  0  0  0  0
   55.5559   24.4026   46.6694 H   0  0  0  0  0  0  0  0  0  0  0  0
   57.9055   23.7081   47.1343 H   0  0  0  0  0  0  0  0  0  0  0  0
   59.7753   25.3009   46.7390 H   0  0  0  0  0  0  0  0  0  0  0  0
   59.4497   31.0054   48.4053 H   0  0  0  0  0  0  0  0  0  0  0  0
   60.0075   30.8457   50.8236 H   0  0  0  0  0  0  0  0  0  0  0  0
   61.9833   31.5037   52.9612 H   0  0  0  0  0  0  0  0  0  0  0  0
   61.2691   33.8801   52.7027 H   0  0  0  0  0  0  0  0  0  0  0  0
   58.8427   34.4529   52.5720 H   0  0  0  0  0  0  0  0  0  0  0  0
   57.1262   32.6465   52.6926 H   0  0  0  0  0  0  0  0  0  0  0  0
   57.8278   30.2656   52.9410 H   0  0  0  0  0  0  0  0  0  0  0  0
  1  2  1  0
  2  3  1  0
  3  4  2  0
  4  5  1  0
  5  6  1  0
  6  7  1  0
  7  8  1  0
  8  9  1  0
  9 10  1  0
 10 11  2  0
 11 12  1  0
 12 13  2  0
 13 14  1  0
 14 15  1  0
 15 16  1  0
 16 17  1  0
 17 18  1  0
 18 19  1  0
 19 20  1  0
 20 21  1  0
 21 22  1  0
 22 23  1  0
 14 24  2  0
  8 25  1  0
 25 26  1  0
 26 27  2  0
 27 28  1  0
 28 29  2  0
 29 30  1  0
 30 31  2  0
 31 32  1  0
  5 33  2  0
 33 34  1  0
 34 35  2  0
 35 36  1  0
 36 37  1  0
 37 38  2  0
 37 39  1  0
 39 40  2  0
 40 41  1  0
 41 42  2  0
 42 43  1  0
 43 44  2  0
 35  3  1  0
 44 39  1  0
 32  6  1  0
 24 10  1  0
 31 26  1  0
 23 18  1  0
  1 45  1  0
  1 46  1  0
  1 47  1  0
  4 48  1  0
  6 49  1  6
  7 50  1  0
  7 51  1  0
  8 52  1  6
  9 53  1  0
  9 54  1  0
 11 55  1  0
 12 56  1  0
 13 57  1  0
 16 58  1  0
 16 59  1  0
 17 60  1  0
 17 61  1  0
 19 62  1  0
 19 63  1  0
 20 64  1  0
 20 65  1  0
 22 66  1  0
 22 67  1  0
 23 68  1  0
 23 69  1  0
 24 70  1  0
 25 71  1  0
 25 72  1  0
 27 73  1  0
 28 74  1  0
 29 75  1  0
 30 76  1  0
 33 77  1  0
 34 78  1  0
 40 79  1  0
 41 80  1  0
 42 81  1  0
 43 82  1  0
 44 83  1  0
M  CHG  1   8   1
M  END
>  <UniqueID>  (96) 
90

>  <SMILES>  (96) 
COc1cc([C@@H]2C[N@H+](Cc3cccc(OCCN4CCOCC4)c3)Cc3ccccc3O2)ccc1OC(=O)c1ccccc1

>  <Energy>  (96) 
127.09282388276124

>  <Genealogy>  (96) 
COc1cc(C2C[NH+](Cc3cccc(OCCN4CCOCC4)c3)Cc3ccccc3O2)ccc1OC(=O)c1ccccc1 (protonated)
COc1cc([C@@H]2C[N@H+](Cc3cccc(OCCN4CCOCC4)c3)Cc3ccccc3O2)ccc1OC(=O)c1ccccc1 (chirality)
COc1cc([C@@H]2C[N@H+](Cc3cccc(OCCN4CCOCC4)c3)Cc3ccccc3O2)ccc1OC(=O)c1ccccc1 (3D coordinates assigned)
COc1cc([C@@H]2C[N@H+](Cc3cccc(OCCN4CCOCC4)c3)Cc3ccccc3O2)ccc1OC(=O)c1ccccc1 (nonaromatic ring conformer: 127.09282388276124 kcal/mol)

>  <smiles>  (96) 
COc1cc(C2CN(Cc3cccc(OCCN4CCOCC4)c3)Cc3ccccc3O2)ccc1OC(=O)c1ccccc1

>  <score_type>  (96) 
oracle

>  <origin>  (96) 
adg

>  <m_score__min__energy>  (96) 
-6.0099999999999998

>  <m_primary>  (96) 
energy

$$$$
96:0
     RDKit          3D

 44 45  0  0  0  0  0  0  0  0999 V2000
   63.0800   33.4470   47.0340 C   0  0  0  0  0  0  0  0  0  0  0  0
   63.3970   32.0760   47.6230 C   0  0  0  0  0  0  0  0  0  0  0  0
   62.1360   31.2060   47.7070 C   0  0  0  0  0  0  0  0  0  0  0  0
   61.5040   31.2030   49.1100 C   0  0  0  0  0  0  0  0  0  0  0  0
   60.7930   29.8810   49.4650 C   0  0  0  0  0  0  0  0  0  0  0  0
   60.7670   28.8960   48.2830 C   0  0  0  0  0  0  0  0  0  0  0  0
   59.5440   27.9620   48.3320 C   0  0  0  0  0  0  0  0  0  0  0  0
   59.3470   26.9860   46.7930 S   0  0  0  0  0  0  0  0  0  0  0  0
   58.4010   28.2310   45.8950 C   0  0  0  0  0  0  0  0  0  0  0  0
   57.0890   28.0670   45.6290 C   0  0  0  0  0  0  0  0  0  0  0  0
   56.4140   26.8300   45.9480 C   0  0  0  0  0  0  0  0  0  0  0  0
   55.8730   25.8400   46.2060 N   0  0  0  0  0  0  0  0  0  0  0  0
   56.2810   29.1880   45.1010 C   0  0  0  0  0  0  0  0  0  0  0  0
   55.1700   28.9670   44.5510 O   0  0  0  0  0  0  0  0  0  0  0  0
   56.7370   30.5360   45.2370 N   0  0  0  0  0  0  0  0  0  0  0  0
   57.9620   30.8480   45.9630 C   0  0  2  0  0  0  0  0  0  0  0  0
   58.3620   32.2800   45.7140 C   0  0  0  0  0  0  0  0  0  0  0  0
   57.4700   33.1660   45.0860 C   0  0  0  0  0  0  0  0  0  0  0  0
   57.8330   34.4990   44.8710 C   0  0  0  0  0  0  0  0  0  0  0  0
   59.0850   34.9600   45.2860 C   0  0  0  0  0  0  0  0  0  0  0  0
   59.9750   34.0900   45.9190 C   0  0  0  0  0  0  0  0  0  0  0  0
   59.6170   32.7570   46.1370 C   0  0  0  0  0  0  0  0  0  0  0  0
   59.2780   29.7270   45.3930 S   0  0  0  0  0  0  0  0  0  0  0  0
   62.9136   34.1667   47.8491 H   0  0  0  0  0  0  0  0  0  0  0  0
   63.9240   33.7838   46.4141 H   0  0  0  0  0  0  0  0  0  0  0  0
   62.1739   33.3791   46.4141 H   0  0  0  0  0  0  0  0  0  0  0  0
   64.1384   31.5734   46.9845 H   0  0  0  0  0  0  0  0  0  0  0  0
   63.7935   32.2156   48.6395 H   0  0  0  0  0  0  0  0  0  0  0  0
   61.3960   31.5900   46.9894 H   0  0  0  0  0  0  0  0  0  0  0  0
   62.4318   30.1721   47.4756 H   0  0  0  0  0  0  0  0  0  0  0  0
   62.2988   31.3797   49.8497 H   0  0  0  0  0  0  0  0  0  0  0  0
   60.7389   31.9933   49.1205 H   0  0  0  0  0  0  0  0  0  0  0  0
   61.3219   29.4098   50.3065 H   0  0  0  0  0  0  0  0  0  0  0  0
   59.7517   30.1190   49.7276 H   0  0  0  0  0  0  0  0  0  0  0  0
   60.7378   29.4692   47.3446 H   0  0  0  0  0  0  0  0  0  0  0  0
   61.6712   28.2724   48.3428 H   0  0  0  0  0  0  0  0  0  0  0  0
   59.6631   27.2683   49.1773 H   0  0  0  0  0  0  0  0  0  0  0  0
   58.6478   28.5892   48.4481 H   0  0  0  0  0  0  0  0  0  0  0  0
   57.7984   30.7153   47.0426 H   0  0  0  0  0  0  0  0  0  0  0  0
   56.4813   32.8090   44.7620 H   0  0  0  0  0  0  0  0  0  0  0  0
   57.1319   35.1858   44.3744 H   0  0  0  0  0  0  0  0  0  0  0  0
   59.3696   36.0085   45.1140 H   0  0  0  0  0  0  0  0  0  0  0  0
   60.9597   34.4546   46.2466 H   0  0  0  0  0  0  0  0  0  0  0  0
   60.3193   32.0771   46.6416 H   0  0  0  0  0  0  0  0  0  0  0  0
  1  2  1  0
  2  3  1  0
  3  4  1  0
  4  5  1  0
  5  6  1  0
  6  7  1  0
  7  8  1  0
  8  9  1  0
  9 10  2  0
 10 11  1  0
 11 12  3  0
 10 13  1  0
 13 14  2  0
 13 15  1  0
 15 16  1  0
 16 17  1  0
 17 18  2  0
 18 19  1  0
 19 20  2  0
 20 21  1  0
 21 22  2  0
 16 23  1  0
 23  9  1  0
 22 17  1  0
  1 24  1  0
  1 25  1  0
  1 26  1  0
  2 27  1  0
  2 28  1  0
  3 29  1  0
  3 30  1  0
  4 31  1  0
  4 32  1  0
  5 33  1  0
  5 34  1  0
  6 35  1  0
  6 36  1  0
  7 37  1  0
  7 38  1  0
 16 39  1  1
 18 40  1  0
 19 41  1  0
 20 42  1  0
 21 43  1  0
 22 44  1  0
M  CHG  1  15  -1
M  END
>  <UniqueID>  (97) 
91

>  <SMILES>  (97) 
CCCCCCCSC1=C(C#N)C(=O)[N-][C@H](c2ccccc2)S1

>  <Energy>  (97) 
36.82193972916931

>  <Genealogy>  (97) 
CCCCCCCSC1=C(C#N)C(=O)[N-]C(c2ccccc2)S1 (protonated)
CCCCCCCSC1=C(C#N)C(=O)[N-][C@H](c2ccccc2)S1 (chirality)
CCCCCCCSC1=C(C#N)C(=O)[N-][C@H](c2ccccc2)S1 (3D coordinates assigned)
CCCCCCCSC1=C(C#N)C(=O)[N-][C@H](c2ccccc2)S1 (nonaromatic ring conformer: 36.82193972916931 kcal/mol)

>  <smiles>  (97) 
CCCCCCCSC1=C(C#N)C(=O)NC(c2ccccc2)S1

>  <score_type>  (97) 
oracle

>  <origin>  (97) 
adg

>  <m_score__min__energy>  (97) 
-9.5999999999999996

>  <m_primary>  (97) 
energy

$$$$
