0:0
     RDKit          3D

 39 41  0  0  0  0  0  0  0  0999 V2000
   60.5990   27.5490   49.6890 C   0  0  0  0  0  0  0  0  0  0  0  0
   59.9840   27.8950   48.5590 C   0  0  0  0  0  0  0  0  0  0  0  0
   59.4650   27.0270   47.7190 O   0  0  0  0  0  0  0  0  0  0  0  0
   58.9140   27.6660   46.7030 C   0  0  0  0  0  0  0  0  0  0  0  0
   58.2520   26.9910   45.7480 C   0  0  0  0  0  0  0  0  0  0  0  0
   57.1340   26.0520   45.9630 C   0  0  0  0  0  0  0  0  0  0  0  0
   55.8090   26.4980   45.8440 C   0  0  0  0  0  0  0  0  0  0  0  0
   55.5330   27.8390   45.6010 O   0  0  0  0  0  0  0  0  0  0  0  0
   54.7820   25.6200   45.9750 N   0  0  0  0  0  0  0  0  0  0  0  0
   55.0120   24.3020   46.2050 C   0  0  0  0  0  0  0  0  0  0  0  0
   53.7570   23.2730   46.3710 S   0  0  0  0  0  0  0  0  0  0  0  0
   56.2850   23.8380   46.2930 N   0  0  0  0  0  0  0  0  0  0  0  0
   57.3470   24.6750   46.1650 C   0  0  0  0  0  0  0  0  0  0  0  0
   58.5140   24.2030   46.2200 O   0  0  0  0  0  0  0  0  0  0  0  0
   59.1310   29.0450   46.8640 C   0  0  0  0  0  0  0  0  0  0  0  0
   58.9520   30.1690   46.0320 C   0  0  0  0  0  0  0  0  0  0  0  0
   58.4880   30.0260   44.7190 O   0  0  0  0  0  0  0  0  0  0  0  0
   57.1540   30.1990   44.3330 C   0  0  0  0  0  0  0  0  0  0  0  0
   56.6050   29.3880   43.2110 C   0  0  0  0  0  0  0  0  0  0  0  0
   56.4360   31.0880   44.8690 O   0  0  0  0  0  0  0  0  0  0  0  0
   59.2750   31.4480   46.5560 C   0  0  0  0  0  0  0  0  0  0  0  0
   58.9910   32.5870   45.7860 O   0  0  0  0  0  0  0  0  0  0  0  0
   57.9320   33.4750   46.0110 C   0  0  0  0  0  0  0  0  0  0  0  0
   57.3900   34.2650   44.8690 C   0  0  0  0  0  0  0  0  0  0  0  0
   57.3670   33.5430   47.1370 O   0  0  0  0  0  0  0  0  0  0  0  0
   59.9020   31.5520   47.8220 C   0  0  0  0  0  0  0  0  0  0  0  0
   60.1820   30.4080   48.5790 C   0  0  0  0  0  0  0  0  0  0  0  0
   59.7860   29.1710   48.0710 C   0  0  0  0  0  0  0  0  0  0  0  0
   61.0125   28.3250   50.3500 H   0  0  0  0  0  0  0  0  0  0  0  0
   60.6933   26.4873   49.9610 H   0  0  0  0  0  0  0  0  0  0  0  0
   58.5736   27.1536   44.7087 H   0  0  0  0  0  0  0  0  0  0  0  0
   56.0318   28.5413   43.6167 H   0  0  0  0  0  0  0  0  0  0  0  0
   55.9451   30.0153   42.5938 H   0  0  0  0  0  0  0  0  0  0  0  0
   57.4326   29.0084   42.5938 H   0  0  0  0  0  0  0  0  0  0  0  0
   56.8072   35.1145   45.2546 H   0  0  0  0  0  0  0  0  0  0  0  0
   58.2220   34.6399   44.2548 H   0  0  0  0  0  0  0  0  0  0  0  0
   56.7408   33.6236   44.2548 H   0  0  0  0  0  0  0  0  0  0  0  0
   60.1721   32.5433   48.2150 H   0  0  0  0  0  0  0  0  0  0  0  0
   60.6995   30.4827   49.5468 H   0  0  0  0  0  0  0  0  0  0  0  0
  1  2  2  0
  2  3  1  0
  3  4  1  0
  4  5  2  3
  5  6  1  0
  6  7  2  0
  7  8  1  0
  7  9  1  0
  9 10  1  0
 10 11  2  0
 10 12  1  0
 12 13  1  0
 13 14  2  0
  4 15  1  0
 15 16  2  0
 16 17  1  0
 17 18  1  0
 18 19  1  0
 18 20  2  0
 16 21  1  0
 21 22  1  0
 22 23  1  0
 23 24  1  0
 23 25  2  0
 21 26  2  0
 26 27  1  0
 27 28  2  0
 28  2  1  0
 13  6  1  0
 28 15  1  0
  1 29  1  0
  1 30  1  0
  5 31  1  0
 19 32  1  0
 19 33  1  0
 19 34  1  0
 24 35  1  0
 24 36  1  0
 24 37  1  0
 26 38  1  0
 27 39  1  0
M  CHG  3   8  -1   9  -1  12  -1
M  END
>  <UniqueID>  (1) 
1

>  <SMILES>  (1) 
C=c1oc(=Cc2c([O-])[n-]c(=S)[n-]c2=O)c2c(OC(C)=O)c(OC(C)=O)ccc12

>  <Energy>  (1) 
98.26575831801605

>  <Genealogy>  (1) 
C=c1oc(=Cc2c([O-])[n-]c(=S)[n-]c2=O)c2c(OC(C)=O)c(OC(C)=O)ccc12 (protonated)
C=c1oc(=Cc2c([O-])[n-]c(=S)[n-]c2=O)c2c(OC(C)=O)c(OC(C)=O)ccc12 (3D coordinates assigned)
C=c1oc(=Cc2c([O-])[n-]c(=S)[n-]c2=O)c2c(OC(C)=O)c(OC(C)=O)ccc12 (optimized conformer: 98.26575831801605 kcal/mol)

>  <smiles>  (1) 
C=c1oc(=Cc2c(O)[nH]c(=S)[nH]c2=O)c2c(OC(C)=O)c(OC(C)=O)ccc12

>  <score_type>  (1) 
oracle

>  <origin>  (1) 
adg

>  <m_score__min__energy>  (1) 
-15.050000000000001

>  <m_primary>  (1) 
energy

$$$$
1:0
     RDKit          3D

 50 52  0  0  0  0  0  0  0  0999 V2000
   61.0260   33.6470   51.7180 O   0  0  0  0  0  0  0  0  0  0  0  0
   60.4400   33.1150   50.7360 C   0  0  0  0  0  0  0  0  0  0  0  0
   59.4890   33.9320   49.9100 C   0  0  0  0  0  0  0  0  0  0  0  0
   60.2730   34.5330   48.3700 S   0  0  0  0  0  0  0  0  0  0  0  0
   59.1620   33.6570   47.2640 C   0  0  0  0  0  0  0  0  0  0  0  0
   58.5380   34.3290   46.2080 C   0  0  0  0  0  0  0  0  0  0  0  0
   57.7150   33.6290   45.3200 C   0  0  0  0  0  0  0  0  0  0  0  0
   57.5100   32.2520   45.4790 C   0  0  0  0  0  0  0  0  0  0  0  0
   56.7000   31.5600   44.5190 N   0  0  0  0  0  0  0  0  0  0  0  0
   56.5860   29.8360   44.3700 S   0  0  0  0  0  0  0  0  0  0  0  0
   55.3680   29.3580   45.1070 O   0  0  0  0  0  0  0  0  0  0  0  0
   56.4460   29.4780   42.9160 O   0  0  0  0  0  0  0  0  0  0  0  0
   58.0120   29.0700   45.0620 C   0  0  0  0  0  0  0  0  0  0  0  0
   59.2900   29.3690   44.5670 C   0  0  0  0  0  0  0  0  0  0  0  0
   60.4180   28.7640   45.1290 C   0  0  0  0  0  0  0  0  0  0  0  0
   60.2750   27.8580   46.1850 C   0  0  0  0  0  0  0  0  0  0  0  0
   59.0030   27.5570   46.6790 C   0  0  0  0  0  0  0  0  0  0  0  0
   57.8730   28.1600   46.1200 C   0  0  0  0  0  0  0  0  0  0  0  0
   58.1130   31.5870   46.5630 C   0  0  0  0  0  0  0  0  0  0  0  0
   58.9280   32.2920   47.4530 C   0  0  0  0  0  0  0  0  0  0  0  0
   60.6890   31.7410   50.4030 N   0  0  0  0  0  0  0  0  0  0  0  0
   61.5220   30.8660   51.2260 C   0  0  0  0  0  0  0  0  0  0  0  0
   62.9130   30.7230   50.6050 C   0  0  0  0  0  0  0  0  0  0  0  0
   63.0760   31.6490   49.4300 C   0  0  0  0  0  0  0  0  0  0  0  0
   62.5410   31.3060   48.1770 C   0  0  0  0  0  0  0  0  0  0  0  0
   62.6830   32.1740   47.0890 C   0  0  0  0  0  0  0  0  0  0  0  0
   63.3490   33.3920   47.2470 C   0  0  0  0  0  0  0  0  0  0  0  0
   63.8700   33.7480   48.4940 C   0  0  0  0  0  0  0  0  0  0  0  0
   63.7310   32.8820   49.5850 C   0  0  0  0  0  0  0  0  0  0  0  0
   58.6199   33.3106   49.6484 H   0  0  0  0  0  0  0  0  0  0  0  0
   59.1844   34.8068   50.5033 H   0  0  0  0  0  0  0  0  0  0  0  0
   58.6948   35.4097   46.0757 H   0  0  0  0  0  0  0  0  0  0  0  0
   57.2257   34.1626   44.4918 H   0  0  0  0  0  0  0  0  0  0  0  0
   59.4047   30.0803   43.7358 H   0  0  0  0  0  0  0  0  0  0  0  0
   61.4194   29.0008   44.7402 H   0  0  0  0  0  0  0  0  0  0  0  0
   61.1634   27.3827   46.6264 H   0  0  0  0  0  0  0  0  0  0  0  0
   58.8909   26.8442   47.5093 H   0  0  0  0  0  0  0  0  0  0  0  0
   56.8729   27.9205   46.5105 H   0  0  0  0  0  0  0  0  0  0  0  0
   57.9425   30.5103   46.7100 H   0  0  0  0  0  0  0  0  0  0  0  0
   59.3872   31.7705   48.3057 H   0  0  0  0  0  0  0  0  0  0  0  0
   60.2790   31.3480   49.5250 H   0  0  0  0  0  0  0  0  0  0  0  0
   61.6165   31.2969   52.2337 H   0  0  0  0  0  0  0  0  0  0  0  0
   61.0514   29.8735   51.2845 H   0  0  0  0  0  0  0  0  0  0  0  0
   63.6722   30.9663   51.3629 H   0  0  0  0  0  0  0  0  0  0  0  0
   63.0362   29.6874   50.2552 H   0  0  0  0  0  0  0  0  0  0  0  0
   62.0086   30.3517   48.0510 H   0  0  0  0  0  0  0  0  0  0  0  0
   62.2698   31.8972   46.1079 H   0  0  0  0  0  0  0  0  0  0  0  0
   63.4634   34.0712   46.3893 H   0  0  0  0  0  0  0  0  0  0  0  0
   64.3897   34.7095   48.6183 H   0  0  0  0  0  0  0  0  0  0  0  0
   64.1360   33.1679   50.5669 H   0  0  0  0  0  0  0  0  0  0  0  0
  1  2  2  0
  2  3  1  0
  3  4  1  0
  4  5  1  0
  5  6  2  0
  6  7  1  0
  7  8  2  0
  8  9  1  0
  9 10  1  0
 10 11  2  0
 10 12  2  0
 10 13  1  0
 13 14  2  0
 14 15  1  0
 15 16  2  0
 16 17  1  0
 17 18  2  0
  8 19  1  0
 19 20  2  0
  2 21  1  0
 21 22  1  0
 22 23  1  0
 23 24  1  0
 24 25  2  0
 25 26  1  0
 26 27  2  0
 27 28  1  0
 28 29  2  0
 20  5  1  0
 29 24  1  0
 18 13  1  0
  3 30  1  0
  3 31  1  0
  6 32  1  0
  7 33  1  0
 14 34  1  0
 15 35  1  0
 16 36  1  0
 17 37  1  0
 18 38  1  0
 19 39  1  0
 20 40  1  0
 21 41  1  0
 22 42  1  0
 22 43  1  0
 23 44  1  0
 23 45  1  0
 25 46  1  0
 26 47  1  0
 27 48  1  0
 28 49  1  0
 29 50  1  0
M  CHG  1   9  -1
M  END
>  <UniqueID>  (2) 
2

>  <SMILES>  (2) 
O=C(CSc1ccc([N-]S(=O)(=O)c2ccccc2)cc1)NCCc1ccccc1

>  <Energy>  (2) 
42.63253874901118

>  <Genealogy>  (2) 
O=C(CSc1ccc([N-]S(=O)(=O)c2ccccc2)cc1)NCCc1ccccc1 (protonated)
O=C(CSc1ccc([N-]S(=O)(=O)c2ccccc2)cc1)NCCc1ccccc1 (3D coordinates assigned)
O=C(CSc1ccc([N-]S(=O)(=O)c2ccccc2)cc1)NCCc1ccccc1 (optimized conformer: 42.63253874901118 kcal/mol)

>  <smiles>  (2) 
O=C(CSc1ccc(NS(=O)(=O)c2ccccc2)cc1)NCCc1ccccc1

>  <score_type>  (2) 
oracle

>  <origin>  (2) 
adg

>  <m_score__min__energy>  (2) 
-10.33

>  <m_primary>  (2) 
energy

$$$$
2:0
     RDKit          3D

 48 50  0  0  0  0  0  0  0  0999 V2000
   56.6070   30.2670   42.6500 C   0  0  0  0  0  0  0  0  0  0  0  0
   56.6050   29.6910   44.3370 S   0  0  0  0  0  0  0  0  0  0  0  0
   57.0850   30.8190   45.2070 O   0  0  0  0  0  0  0  0  0  0  0  0
   55.1840   29.3740   44.7150 O   0  0  0  0  0  0  0  0  0  0  0  0
   57.6300   28.2980   44.6300 N   0  0  0  0  0  0  0  0  0  0  0  0
   59.0700   28.5590   44.4600 C   0  0  0  0  0  0  0  0  0  0  0  0
   59.6680   29.2650   45.6740 C   0  0  0  0  0  0  0  0  0  0  0  0
   59.3620   28.5000   46.8820 N   0  0  0  0  0  0  0  0  0  0  0  0
   60.2820   28.5120   47.9860 C   0  0  0  0  0  0  0  0  0  0  0  0
   60.7550   27.0850   48.6510 S   0  0  0  0  0  0  0  0  0  0  0  0
   60.7420   29.7600   48.5440 N   0  0  0  0  0  0  0  0  0  0  0  0
   59.6940   30.3600   49.3350 C   0  0  0  0  0  0  0  0  0  0  0  0
   59.0850   29.6220   50.3690 C   0  0  0  0  0  0  0  0  0  0  0  0
   58.1340   30.2160   51.2000 C   0  0  0  0  0  0  0  0  0  0  0  0
   57.7750   31.5520   51.0090 C   0  0  0  0  0  0  0  0  0  0  0  0
   58.3620   32.2970   49.9850 C   0  0  0  0  0  0  0  0  0  0  0  0
   59.3120   31.7110   49.1400 C   0  0  0  0  0  0  0  0  0  0  0  0
   59.8900   32.4930   48.1350 O   0  0  0  0  0  0  0  0  0  0  0  0
   59.1750   33.0580   47.0690 C   0  0  0  0  0  0  0  0  0  0  0  0
   59.8900   33.6630   46.0270 C   0  0  0  0  0  0  0  0  0  0  0  0
   59.2170   34.2310   44.9410 C   0  0  0  0  0  0  0  0  0  0  0  0
   57.8220   34.2090   44.8950 C   0  0  0  0  0  0  0  0  0  0  0  0
   57.0970   33.6230   45.9370 C   0  0  0  0  0  0  0  0  0  0  0  0
   57.7660   33.0470   47.0210 C   0  0  0  0  0  0  0  0  0  0  0  0
   57.9720   28.1080   47.1300 C   0  0  0  0  0  0  0  0  0  0  0  0
   57.3070   27.5450   45.8580 C   0  0  0  0  0  0  0  0  0  0  0  0
   56.6108   31.3669   42.6381 H   0  0  0  0  0  0  0  0  0  0  0  0
   57.5038   29.8916   42.1354 H   0  0  0  0  0  0  0  0  0  0  0  0
   55.7076   29.8979   42.1354 H   0  0  0  0  0  0  0  0  0  0  0  0
   59.5902   27.6009   44.3139 H   0  0  0  0  0  0  0  0  0  0  0  0
   59.1965   29.2162   43.5870 H   0  0  0  0  0  0  0  0  0  0  0  0
   60.7588   29.3402   45.5540 H   0  0  0  0  0  0  0  0  0  0  0  0
   59.2384   30.2740   45.7601 H   0  0  0  0  0  0  0  0  0  0  0  0
   61.0240   30.3960   47.7630 H   0  0  0  0  0  0  0  0  0  0  0  0
   61.5950   29.6120   49.1320 H   0  0  0  0  0  0  0  0  0  0  0  0
   59.3614   28.5685   50.5227 H   0  0  0  0  0  0  0  0  0  0  0  0
   57.6668   29.6313   52.0061 H   0  0  0  0  0  0  0  0  0  0  0  0
   57.0275   32.0185   51.6674 H   0  0  0  0  0  0  0  0  0  0  0  0
   58.0768   33.3496   49.8412 H   0  0  0  0  0  0  0  0  0  0  0  0
   60.9890   33.6913   46.0636 H   0  0  0  0  0  0  0  0  0  0  0  0
   59.7869   34.6953   44.1227 H   0  0  0  0  0  0  0  0  0  0  0  0
   57.2930   34.6528   44.0387 H   0  0  0  0  0  0  0  0  0  0  0  0
   55.9975   33.6152   45.9038 H   0  0  0  0  0  0  0  0  0  0  0  0
   57.1922   32.5845   47.8377 H   0  0  0  0  0  0  0  0  0  0  0  0
   57.9528   27.3370   47.9143 H   0  0  0  0  0  0  0  0  0  0  0  0
   57.4128   29.0015   47.4447 H   0  0  0  0  0  0  0  0  0  0  0  0
   57.6403   26.5053   45.7243 H   0  0  0  0  0  0  0  0  0  0  0  0
   56.2197   27.6248   46.0044 H   0  0  0  0  0  0  0  0  0  0  0  0
  1  2  1  0
  2  3  2  0
  2  4  2  0
  2  5  1  0
  5  6  1  0
  6  7  1  0
  7  8  1  0
  8  9  1  0
  9 10  2  0
  9 11  1  0
 11 12  1  0
 12 13  2  0
 13 14  1  0
 14 15  2  0
 15 16  1  0
 16 17  2  0
 17 18  1  0
 18 19  1  0
 19 20  2  0
 20 21  1  0
 21 22  2  0
 22 23  1  0
 23 24  2  0
  8 25  1  0
 25 26  1  0
 26  5  1  0
 17 12  1  0
 24 19  1  0
  1 27  1  0
  1 28  1  0
  1 29  1  0
  6 30  1  0
  6 31  1  0
  7 32  1  0
  7 33  1  0
 11 34  1  0
 11 35  1  0
 13 36  1  0
 14 37  1  0
 15 38  1  0
 16 39  1  0
 20 40  1  0
 21 41  1  0
 22 42  1  0
 23 43  1  0
 24 44  1  0
 25 45  1  0
 25 46  1  0
 26 47  1  0
 26 48  1  0
M  CHG  1  11   1
M  END
>  <UniqueID>  (3) 
3

>  <SMILES>  (3) 
CS(=O)(=O)N1CCN(C(=S)[NH2+]c2ccccc2Oc2ccccc2)CC1

>  <Energy>  (3) 
62.26532770972921

>  <Genealogy>  (3) 
CS(=O)(=O)N1CCN(C(=S)[NH2+]c2ccccc2Oc2ccccc2)CC1 (protonated)
CS(=O)(=O)N1CCN(C(=S)[NH2+]c2ccccc2Oc2ccccc2)CC1 (3D coordinates assigned)
CS(=O)(=O)N1CCN(C(=S)[NH2+]c2ccccc2Oc2ccccc2)CC1 (nonaromatic ring conformer: 62.26532770972921 kcal/mol)

>  <smiles>  (3) 
CS(=O)(=O)N1CCN(C(=S)Nc2ccccc2Oc2ccccc2)CC1

>  <score_type>  (3) 
oracle

>  <origin>  (3) 
adg

>  <m_score__min__energy>  (3) 
-7.6200000000000001

>  <m_primary>  (3) 
energy

$$$$
3:0
     RDKit          3D

 42 45  0  0  0  0  0  0  0  0999 V2000
   59.0041   35.3544   44.5464 H   0  0  0  0  0  0  0  0  0  0  0  0
   58.6700   34.6000   45.2740 C   0  0  0  0  0  0  0  0  0  0  0  0
   57.3910   34.3890   45.6430 N   0  0  0  0  0  0  0  0  0  0  0  0
   57.4630   33.3820   46.5390 C   0  0  0  0  0  0  0  0  0  0  0  0
   56.5864   32.9534   47.0468 H   0  0  0  0  0  0  0  0  0  0  0  0
   58.7290   32.9580   46.7440 N   0  0  0  0  0  0  0  0  0  0  0  0
   59.1660   31.9140   47.6360 C   0  0  0  0  0  0  0  0  0  0  0  0
   59.3250   32.1710   49.0250 C   0  0  0  0  0  0  0  0  0  0  0  0
   59.1333   33.1814   49.4152 H   0  0  0  0  0  0  0  0  0  0  0  0
   59.7240   31.1510   49.9070 C   0  0  0  0  0  0  0  0  0  0  0  0
   59.8468   31.3477   50.9823 H   0  0  0  0  0  0  0  0  0  0  0  0
   59.9590   29.8840   49.3780 C   0  0  0  0  0  0  0  0  0  0  0  0
   59.8160   29.6260   48.0420 C   0  0  0  0  0  0  0  0  0  0  0  0
   59.4290   30.6160   47.1390 C   0  0  0  0  0  0  0  0  0  0  0  0
   59.3307   30.3929   46.0664 H   0  0  0  0  0  0  0  0  0  0  0  0
   60.0890   28.2830   47.8620 C   0  0  0  0  0  0  0  0  0  0  0  0
   59.9440   27.4780   46.6050 C   0  0  0  0  0  0  0  0  0  0  0  0
   60.4420   26.5060   46.7358 H   0  0  0  0  0  0  0  0  0  0  0  0
   60.4066   28.0259   45.7708 H   0  0  0  0  0  0  0  0  0  0  0  0
   58.4860   27.2540   46.3000 C   0  0  0  0  0  0  0  0  0  0  0  0
   57.8510   26.0800   46.7250 C   0  0  0  0  0  0  0  0  0  0  0  0
   58.4258   25.2904   47.2311 H   0  0  0  0  0  0  0  0  0  0  0  0
   56.4840   25.9210   46.5010 C   0  0  0  0  0  0  0  0  0  0  0  0
   55.9784   24.9996   46.8256 H   0  0  0  0  0  0  0  0  0  0  0  0
   55.7750   26.9010   45.8830 N   0  0  0  0  0  0  0  0  0  0  0  0
   56.3520   28.0560   45.4490 C   0  0  0  0  0  0  0  0  0  0  0  0
   55.5850   28.9550   44.8940 N   0  0  0  0  0  0  0  0  0  0  0  0
   55.9480   30.0130   43.9930 C   0  0  0  0  0  0  0  0  0  0  0  0
   55.5840   29.9900   42.7860 O   0  0  0  0  0  0  0  0  0  0  0  0
   56.6460   31.1140   44.4960 O   0  0  0  0  0  0  0  0  0  0  0  0
   57.7710   31.6770   43.8310 C   0  0  0  0  0  0  0  0  0  0  0  0
   58.4943   32.0390   44.5765 H   0  0  0  0  0  0  0  0  0  0  0  0
   58.2461   30.9104   43.2012 H   0  0  0  0  0  0  0  0  0  0  0  0
   57.4422   32.5168   43.2012 H   0  0  0  0  0  0  0  0  0  0  0  0
   57.7320   28.2510   45.6630 C   0  0  0  0  0  0  0  0  0  0  0  0
   58.2157   29.1817   45.3316 H   0  0  0  0  0  0  0  0  0  0  0  0
   60.3770   27.7860   49.1300 C   0  0  0  0  0  0  0  0  0  0  0  0
   60.6278   26.7381   49.3513 H   0  0  0  0  0  0  0  0  0  0  0  0
   60.3050   28.7730   50.0510 N   0  0  0  0  0  0  0  0  0  0  0  0
   60.4600   28.6800   51.0790 H   0  0  0  0  0  0  0  0  0  0  0  0
   59.4940   33.7270   45.9470 C   0  0  0  0  0  0  0  0  0  0  0  0
   60.5882   33.6679   45.8503 H   0  0  0  0  0  0  0  0  0  0  0  0
  1  2  1  0
  2  3  1  0
  3  4  2  0
  4  5  1  0
  4  6  1  0
  6  7  1  0
  7  8  2  0
  8  9  1  0
  8 10  1  0
 10 11  1  0
 10 12  2  0
 12 13  1  0
 13 14  2  0
 14 15  1  0
 13 16  1  0
 16 17  1  0
 17 18  1  0
 17 19  1  0
 17 20  1  0
 20 21  1  0
 21 22  1  0
 21 23  2  0
 23 24  1  0
 23 25  1  0
 25 26  1  0
 26 27  2  0
 27 28  1  0
 28 29  2  0
 28 30  1  0
 30 31  1  0
 31 32  1  0
 31 33  1  0
 31 34  1  0
 26 35  1  0
 35 36  1  0
 16 37  2  0
 37 38  1  0
 37 39  1  0
 39 40  1  0
  6 41  1  0
 41 42  1  0
 41  2  2  0
 14  7  1  0
 35 20  2  0
 39 12  1  0
M  CHG  1  25  -1
M  END
>  <UniqueID>  (4) 
4

>  <SMILES>  (4) 
COC(=O)/N=c1\cc(Cc2c[nH]c3ccc(-n4ccnc4)cc23)cc[n-]1

>  <Energy>  (4) 
114.42615365449423

>  <Genealogy>  (4) 
COC(=O)N=c1cc(Cc2c[nH]c3ccc(-n4ccnc4)cc23)cc[n-]1 (protonated)
COC(=O)/N=c1\cc(Cc2c[nH]c3ccc(-n4ccnc4)cc23)cc[n-]1 (cis-trans isomerization)
COC(=O)/N=c1\cc(Cc2c[nH]c3ccc(-n4ccnc4)cc23)cc[n-]1 (3D coordinates assigned)
COC(=O)/N=c1\cc(Cc2c[nH]c3ccc(-n4ccnc4)cc23)cc[n-]1 (optimized conformer: 114.42615365449423 kcal/mol)

>  <smiles>  (4) 
COC(=O)N=c1cc(Cc2c[nH]c3ccc(-n4ccnc4)cc23)cc[nH]1

>  <score_type>  (4) 
oracle

>  <origin>  (4) 
adg

>  <m_score__min__energy>  (4) 
-9.3800000000000008

>  <m_primary>  (4) 
energy

$$$$
4:0
     RDKit          3D

 55 58  0  0  0  0  0  0  0  0999 V2000
   55.1410   29.3440   44.8290 N   0  0  0  0  0  0  0  0  0  0  0  0
   56.7590   29.8730   44.5210 S   0  0  0  0  0  0  0  0  0  0  0  0
   57.0160   29.8730   43.0400 O   0  0  0  0  0  0  0  0  0  0  0  0
   56.9310   31.2740   45.0400 O   0  0  0  0  0  0  0  0  0  0  0  0
   57.8960   28.7890   45.3200 C   0  0  0  0  0  0  0  0  0  0  0  0
   58.1120   27.4960   44.8260 C   0  0  0  0  0  0  0  0  0  0  0  0
   59.0080   26.6390   45.4710 C   0  0  0  0  0  0  0  0  0  0  0  0
   59.7010   27.0740   46.6050 C   0  0  0  0  0  0  0  0  0  0  0  0
   59.5180   28.3810   47.0900 C   0  0  0  0  0  0  0  0  0  0  0  0
   60.2060   28.8550   48.2630 N   0  0  0  0  0  0  0  0  0  0  0  0
   60.6480   28.0100   49.3370 C   0  0  0  0  0  0  0  0  0  0  0  0
   60.6710   26.7570   49.2020 O   0  0  0  0  0  0  0  0  0  0  0  0
   61.1630   28.6210   50.6120 C   0  0  0  0  0  0  0  0  0  0  0  0
   61.1970   30.0930   50.5550 N   0  0  0  0  0  0  0  0  0  0  0  0
   60.9010   30.7200   51.8500 C   0  0  0  0  0  0  0  0  0  0  0  0
   61.0400   32.2220   51.7610 C   0  0  0  0  0  0  0  0  0  0  0  0
   62.1160   32.7260   52.0380 O   0  0  0  0  0  0  0  0  0  0  0  0
   59.9050   33.1290   51.3350 C   0  0  2  0  0  0  0  0  0  0  0  0
   59.2760   33.7370   52.4460 O   0  0  0  0  0  0  0  0  0  0  0  0
   58.0090   33.1330   52.6040 C   0  0  0  0  0  0  0  0  0  0  0  0
   57.6640   32.3780   51.3370 C   0  0  0  0  0  0  0  0  0  0  0  0
   58.9060   32.3610   50.6190 N   0  0  0  0  0  0  0  0  0  0  0  0
   59.0410   31.9280   49.2560 C   0  0  0  0  0  0  0  0  0  0  0  0
   58.5750   30.8090   48.9110 O   0  0  0  0  0  0  0  0  0  0  0  0
   59.6580   32.8050   48.2380 C   0  0  0  0  0  0  0  0  0  0  0  0
   58.8980   33.6450   47.4200 C   0  0  0  0  0  0  0  0  0  0  0  0
   59.9090   34.4090   46.3060 S   0  0  0  0  0  0  0  0  0  0  0  0
   61.3180   33.6830   46.8510 C   0  0  0  0  0  0  0  0  0  0  0  0
   62.6110   33.8650   46.3700 C   0  0  0  0  0  0  0  0  0  0  0  0
   63.6550   33.1640   46.9930 C   0  0  0  0  0  0  0  0  0  0  0  0
   63.3870   32.3030   48.0730 C   0  0  0  0  0  0  0  0  0  0  0  0
   62.0720   32.1340   48.5410 C   0  0  0  0  0  0  0  0  0  0  0  0
   61.0310   32.8300   47.9100 C   0  0  0  0  0  0  0  0  0  0  0  0
   58.5980   29.2250   46.4500 C   0  0  0  0  0  0  0  0  0  0  0  0
   55.1850   28.6830   45.6370 H   0  0  0  0  0  0  0  0  0  0  0  0
   57.5753   27.1545   43.9286 H   0  0  0  0  0  0  0  0  0  0  0  0
   59.1683   25.6211   45.0861 H   0  0  0  0  0  0  0  0  0  0  0  0
   60.3923   26.3907   47.1199 H   0  0  0  0  0  0  0  0  0  0  0  0
   60.4650   29.8670   48.3040 H   0  0  0  0  0  0  0  0  0  0  0  0
   60.5077   28.3145   51.4406 H   0  0  0  0  0  0  0  0  0  0  0  0
   62.1937   28.2670   50.7615 H   0  0  0  0  0  0  0  0  0  0  0  0
   60.4950   30.4280   49.8530 H   0  0  0  0  0  0  0  0  0  0  0  0
   59.8714   30.4696   52.1454 H   0  0  0  0  0  0  0  0  0  0  0  0
   61.6151   30.3426   52.5968 H   0  0  0  0  0  0  0  0  0  0  0  0
   60.3356   33.9118   50.6933 H   0  0  0  0  0  0  0  0  0  0  0  0
   58.0360   32.4352   53.4539 H   0  0  0  0  0  0  0  0  0  0  0  0
   57.2494   33.9051   52.7963 H   0  0  0  0  0  0  0  0  0  0  0  0
   57.3263   31.3564   51.5658 H   0  0  0  0  0  0  0  0  0  0  0  0
   56.8429   32.8396   50.7690 H   0  0  0  0  0  0  0  0  0  0  0  0
   57.8094   33.7863   47.4912 H   0  0  0  0  0  0  0  0  0  0  0  0
   62.8094   34.5400   45.5244 H   0  0  0  0  0  0  0  0  0  0  0  0
   64.6877   33.2883   46.6352 H   0  0  0  0  0  0  0  0  0  0  0  0
   64.2123   31.7581   48.5547 H   0  0  0  0  0  0  0  0  0  0  0  0
   61.8629   31.4658   49.3894 H   0  0  0  0  0  0  0  0  0  0  0  0
   58.4266   30.2392   46.8399 H   0  0  0  0  0  0  0  0  0  0  0  0
  1  2  1  0
  2  3  2  0
  2  4  2  0
  2  5  1  0
  5  6  2  0
  6  7  1  0
  7  8  2  0
  8  9  1  0
  9 10  1  0
 10 11  1  0
 11 12  2  0
 11 13  1  0
 13 14  1  0
 14 15  1  0
 15 16  1  0
 16 17  2  0
 16 18  1  0
 18 19  1  0
 19 20  1  0
 20 21  1  0
 21 22  1  0
 22 23  1  0
 23 24  2  0
 23 25  1  0
 25 26  2  0
 26 27  1  0
 27 28  1  0
 28 29  2  0
 29 30  1  0
 30 31  2  0
 31 32  1  0
 32 33  2  0
  9 34  2  0
 34  5  1  0
 22 18  1  0
 33 25  1  0
 33 28  1  0
  1 35  1  0
  6 36  1  0
  7 37  1  0
  8 38  1  0
 10 39  1  0
 13 40  1  0
 13 41  1  0
 14 42  1  0
 15 43  1  0
 15 44  1  0
 18 45  1  6
 20 46  1  0
 20 47  1  0
 21 48  1  0
 21 49  1  0
 26 50  1  0
 29 51  1  0
 30 52  1  0
 31 53  1  0
 32 54  1  0
 34 55  1  0
M  CHG  1   1  -1
M  END
>  <UniqueID>  (5) 
5

>  <SMILES>  (5) 
[NH-]S(=O)(=O)c1cccc(NC(=O)CNCC(=O)[C@@H]2OCCN2C(=O)c2csc3ccccc23)c1

>  <Energy>  (5) 
96.4789258900284

>  <Genealogy>  (5) 
[NH-]S(=O)(=O)c1cccc(NC(=O)CNCC(=O)C2OCCN2C(=O)c2csc3ccccc23)c1 (protonated)
[NH-]S(=O)(=O)c1cccc(NC(=O)CNCC(=O)[C@@H]2OCCN2C(=O)c2csc3ccccc23)c1 (chirality)
[NH-]S(=O)(=O)c1cccc(NC(=O)CNCC(=O)[C@@H]2OCCN2C(=O)c2csc3ccccc23)c1 (3D coordinates assigned)
[NH-]S(=O)(=O)c1cccc(NC(=O)CNCC(=O)[C@@H]2OCCN2C(=O)c2csc3ccccc23)c1 (nonaromatic ring conformer: 96.4789258900284 kcal/mol)

>  <smiles>  (5) 
NS(=O)(=O)c1cccc(NC(=O)CNCC(=O)C2OCCN2C(=O)c2csc3ccccc23)c1

>  <score_type>  (5) 
oracle

>  <origin>  (5) 
adg

>  <m_score__min__energy>  (5) 
-12.59

>  <m_primary>  (5) 
energy

$$$$
5:0
     RDKit          3D

 38 39  0  0  0  0  0  0  0  0999 V2000
   55.1210   27.0600   45.3290 H   0  0  0  0  0  0  0  0  0  0  0  0
   54.7370   26.3390   45.9780 N   0  0  0  0  0  0  0  0  0  0  0  0
   55.1310   24.9730   45.8710 C   0  0  0  0  0  0  0  0  0  0  0  0
   54.8520   24.1730   46.8030 O   0  0  0  0  0  0  0  0  0  0  0  0
   55.7810   24.4560   44.6520 C   0  0  0  0  0  0  0  0  0  0  0  0
   55.2261   23.7228   44.0482 H   0  0  0  0  0  0  0  0  0  0  0  0
   56.9670   24.8070   44.2400 N   0  0  0  0  0  0  0  0  0  0  0  0
   58.1940   24.7930   44.9860 C   0  0  0  0  0  0  0  0  0  0  0  0
   58.6430   23.6850   45.3810 O   0  0  0  0  0  0  0  0  0  0  0  0
   58.8430   26.0490   45.4370 C   0  0  0  0  0  0  0  0  0  0  0  0
   60.0650   25.9640   46.1260 C   0  0  0  0  0  0  0  0  0  0  0  0
   60.4947   24.9774   46.3539 H   0  0  0  0  0  0  0  0  0  0  0  0
   60.7370   27.1180   46.5230 C   0  0  0  0  0  0  0  0  0  0  0  0
   61.6868   27.0379   47.0720 H   0  0  0  0  0  0  0  0  0  0  0  0
   60.2100   28.3730   46.2270 C   0  0  0  0  0  0  0  0  0  0  0  0
   60.7533   29.2789   46.5337 H   0  0  0  0  0  0  0  0  0  0  0  0
   58.9920   28.4910   45.5410 C   0  0  0  0  0  0  0  0  0  0  0  0
   58.4510   29.8400   45.2440 C   0  0  0  0  0  0  0  0  0  0  0  0
   57.7690   30.0810   44.0420 C   0  0  0  0  0  0  0  0  0  0  0  0
   57.6385   29.2670   43.3137 H   0  0  0  0  0  0  0  0  0  0  0  0
   57.2550   31.3500   43.7660 C   0  0  0  0  0  0  0  0  0  0  0  0
   56.7257   31.5322   42.8191 H   0  0  0  0  0  0  0  0  0  0  0  0
   57.4100   32.3890   44.6870 C   0  0  0  0  0  0  0  0  0  0  0  0
   57.0057   33.3869   44.4617 H   0  0  0  0  0  0  0  0  0  0  0  0
   58.0820   32.1620   45.9020 C   0  0  0  0  0  0  0  0  0  0  0  0
   58.2570   33.1920   46.8840 N   0  0  0  0  0  0  0  0  0  0  0  0
   59.6590   34.1970   47.0650 S   0  0  0  0  0  0  0  0  0  0  0  0
   60.6820   33.7850   46.0440 O   0  0  0  0  0  0  0  0  0  0  0  0
   59.2950   35.6360   46.8310 O   0  0  0  0  0  0  0  0  0  0  0  0
   60.3570   33.9870   48.6890 C   0  0  0  0  0  0  0  0  0  0  0  0
   59.5947   34.2163   49.4482 H   0  0  0  0  0  0  0  0  0  0  0  0
   60.6950   32.9474   48.8112 H   0  0  0  0  0  0  0  0  0  0  0  0
   61.2126   34.6675   48.8112 H   0  0  0  0  0  0  0  0  0  0  0  0
   58.5980   30.8880   46.1710 C   0  0  0  0  0  0  0  0  0  0  0  0
   59.1248   30.7045   47.1190 H   0  0  0  0  0  0  0  0  0  0  0  0
   58.2880   27.3250   45.1650 C   0  0  0  0  0  0  0  0  0  0  0  0
   57.0260   27.4620   44.5770 O   0  0  0  0  0  0  0  0  0  0  0  0
   56.3020   26.7580   44.6400 H   0  0  0  0  0  0  0  0  0  0  0  0
  1  2  1  0
  2  3  1  0
  3  4  2  0
  3  5  1  0
  5  6  1  0
  5  7  2  0
  7  8  1  0
  8  9  2  0
  8 10  1  0
 10 11  2  0
 11 12  1  0
 11 13  1  0
 13 14  1  0
 13 15  2  0
 15 16  1  0
 15 17  1  0
 17 18  1  0
 18 19  2  0
 19 20  1  0
 19 21  1  0
 21 22  1  0
 21 23  2  0
 23 24  1  0
 23 25  1  0
 25 26  1  0
 26 27  1  0
 27 28  2  0
 27 29  2  0
 27 30  1  0
 30 31  1  0
 30 32  1  0
 30 33  1  0
 25 34  2  0
 34 35  1  0
 17 36  2  0
 36 37  1  0
 37 38  1  0
 36 10  1  0
 34 18  1  0
M  CHG  2   2  -1  26  -1
M  END
>  <UniqueID>  (6) 
6

>  <SMILES>  (6) 
CS(=O)(=O)[N-]c1cccc(-c2cccc(C(=O)/N=C\C([NH-])=O)c2O)c1

>  <Energy>  (6) 
57.34101835105574

>  <Genealogy>  (6) 
CS(=O)(=O)[N-]c1cccc(-c2cccc(C(=O)N=CC([NH-])=O)c2O)c1 (protonated)
CS(=O)(=O)[N-]c1cccc(-c2cccc(C(=O)/N=C\C([NH-])=O)c2O)c1 (cis-trans isomerization)
CS(=O)(=O)[N-]c1cccc(-c2cccc(C(=O)/N=C\C([NH-])=O)c2O)c1 (3D coordinates assigned)
CS(=O)(=O)[N-]c1cccc(-c2cccc(C(=O)/N=C\C([NH-])=O)c2O)c1 (optimized conformer: 57.34101835105574 kcal/mol)

>  <smiles>  (6) 
CS(=O)(=O)Nc1cccc(-c2cccc(C(=O)N=CC(N)=O)c2O)c1

>  <score_type>  (6) 
oracle

>  <origin>  (6) 
adg

>  <m_score__min__energy>  (6) 
-11.949999999999999

>  <m_primary>  (6) 
energy

$$$$
6:0
     RDKit          3D

 36 38  0  0  1  0  0  0  0  0999 V2000
   58.8840   35.5270   47.4870 O   0  0  0  0  0  0  0  0  0  0  0  0
   59.1610   34.5980   46.3170 S   0  0  0  0  0  0  0  0  0  0  0  0
   59.5370   35.3660   45.0760 O   0  0  0  0  0  0  0  0  0  0  0  0
   57.7190   33.6450   46.0670 N   0  0  0  0  0  0  0  0  0  0  0  0
   57.7420   32.7340   45.1540 C   0  0  0  0  0  0  0  0  0  0  0  0
   58.1210   33.0260   43.8380 C   0  0  0  0  0  0  0  0  0  0  0  0
   58.1350   32.0200   42.8830 C   0  0  0  0  0  0  0  0  0  0  0  0
   57.7700   30.7750   43.2840 N   0  0  0  0  0  0  0  0  0  0  0  0
   57.4080   30.5040   44.5520 C   0  0  0  0  0  0  0  0  0  0  0  0
   57.3850   31.4660   45.5030 N   0  0  0  0  0  0  0  0  0  0  0  0
   60.5110   33.5480   46.6860 C   0  0  0  0  0  0  0  0  0  0  0  0
   61.7760   34.0770   46.5500 C   0  0  0  0  0  0  0  0  0  0  0  0
   62.8580   33.2700   46.8350 C   0  0  0  0  0  0  0  0  0  0  0  0
   62.6620   31.9650   47.2460 C   0  0  0  0  0  0  0  0  0  0  0  0
   63.7550   31.2240   47.5110 F   0  0  0  0  0  0  0  0  0  0  0  0
   61.4170   31.4080   47.3920 C   0  0  0  0  0  0  0  0  0  0  0  0
   61.1380   30.1340   47.7910 O   0  0  0  0  0  0  0  0  0  0  0  0
   60.4760   29.2730   46.9380 C   0  0  0  0  0  0  0  0  0  0  0  0
   60.7580   29.3910   45.5810 C   0  0  0  0  0  0  0  0  0  0  0  0
   60.1370   28.5680   44.6670 C   0  0  0  0  0  0  0  0  0  0  0  0
   59.2230   27.6130   45.0780 C   0  0  0  0  0  0  0  0  0  0  0  0
   58.9340   27.4840   46.4130 C   0  0  0  0  0  0  0  0  0  0  0  0
   57.7830   26.2940   47.0210 Cl  0  0  0  0  0  0  0  0  0  0  0  0
   59.5670   28.3230   47.3350 C   0  0  0  0  0  0  0  0  0  0  0  0
   60.3290   32.2370   47.1000 C   0  0  0  0  0  0  0  0  0  0  0  0
   58.4072   34.0516   43.5619 H   0  0  0  0  0  0  0  0  0  0  0  0
   58.4299   32.2226   41.8428 H   0  0  0  0  0  0  0  0  0  0  0  0
   57.7770   30.0130   42.5770 H   0  0  0  0  0  0  0  0  0  0  0  0
   57.1242   29.4759   44.8213 H   0  0  0  0  0  0  0  0  0  0  0  0
   61.9196   35.1172   46.2222 H   0  0  0  0  0  0  0  0  0  0  0  0
   63.8793   33.6661   46.7349 H   0  0  0  0  0  0  0  0  0  0  0  0
   61.4805   30.1452   45.2358 H   0  0  0  0  0  0  0  0  0  0  0  0
   60.3705   28.6711   43.5970 H   0  0  0  0  0  0  0  0  0  0  0  0
   58.7319   26.9622   44.3395 H   0  0  0  0  0  0  0  0  0  0  0  0
   59.3313   28.2197   48.4045 H   0  0  0  0  0  0  0  0  0  0  0  0
   59.3078   31.8409   47.2008 H   0  0  0  0  0  0  0  0  0  0  0  0
  1  2  2  0
  2  3  2  0
  2  4  1  0
  4  5  2  0
  5  6  1  0
  6  7  2  0
  7  8  1  0
  8  9  1  0
  9 10  2  0
  2 11  1  0
 11 12  2  0
 12 13  1  0
 13 14  2  0
 14 15  1  0
 14 16  1  0
 16 17  1  0
 17 18  1  0
 18 19  2  0
 19 20  1  0
 20 21  2  0
 21 22  1  0
 22 23  1  0
 22 24  2  0
 16 25  2  0
 10  5  1  0
 25 11  1  0
 24 18  1  0
  6 26  1  0
  7 27  1  0
  8 28  1  0
  9 29  1  0
 12 30  1  0
 13 31  1  0
 19 32  1  0
 20 33  1  0
 21 34  1  0
 24 35  1  0
 25 36  1  0
M  END
>  <smiles>  (7) 
O=S(=O)(N=c1cc[nH]cn1)c1ccc(F)c(Oc2cccc(Cl)c2)c1

>  <score_type>  (7) 
oracle

>  <origin>  (7) 
adg

>  <m_score__min__energy>  (7) 
-8.5600000000000005

>  <m_primary>  (7) 
energy

$$$$
7:0
     RDKit          3D

 35 36  0  0  0  0  0  0  0  0999 V2000
   59.2000   34.6770   45.5600 C   0  0  0  0  0  0  0  0  0  0  0  0
   57.6250   33.8690   45.4080 S   0  0  0  0  0  0  0  0  0  0  0  0
   56.6390   34.8250   44.7970 O   0  0  0  0  0  0  0  0  0  0  0  0
   57.1530   33.4490   46.7720 O   0  0  0  0  0  0  0  0  0  0  0  0
   57.8040   32.4770   44.3920 N   0  0  0  0  0  0  0  0  0  0  0  0
   57.6140   31.1190   44.8100 C   0  0  0  0  0  0  0  0  0  0  0  0
   56.4800   30.4310   44.3610 C   0  0  0  0  0  0  0  0  0  0  0  0
   56.2550   29.1070   44.7470 C   0  0  0  0  0  0  0  0  0  0  0  0
   57.1630   28.4510   45.5920 C   0  0  0  0  0  0  0  0  0  0  0  0
   56.9120   27.0340   46.0340 C   0  0  0  0  0  0  0  0  0  0  0  0
   55.4850   26.7320   45.9980 N   0  0  0  0  0  0  0  0  0  0  0  0
   54.9580   25.4050   45.9230 C   0  0  0  0  0  0  0  0  0  0  0  0
   53.7460   25.2440   45.6250 O   0  0  0  0  0  0  0  0  0  0  0  0
   55.8170   24.2770   46.1330 N   0  0  0  0  0  0  0  0  0  0  0  0
   56.2830   23.3470   45.1460 C   0  0  0  0  0  0  0  0  0  0  0  0
   57.5470   22.7360   45.2200 C   0  0  0  0  0  0  0  0  0  0  0  0
   57.9540   21.8560   44.2170 C   0  0  0  0  0  0  0  0  0  0  0  0
   57.1030   21.6030   43.1410 C   0  0  0  0  0  0  0  0  0  0  0  0
   55.8930   22.2180   43.0700 N   0  0  0  0  0  0  0  0  0  0  0  0
   55.4740   23.0800   44.0360 C   0  0  0  0  0  0  0  0  0  0  0  0
   58.2980   29.1380   46.0450 C   0  0  0  0  0  0  0  0  0  0  0  0
   58.5260   30.4630   45.6570 C   0  0  0  0  0  0  0  0  0  0  0  0
   59.4461   34.8032   46.6247 H   0  0  0  0  0  0  0  0  0  0  0  0
   59.9745   34.0649   45.0747 H   0  0  0  0  0  0  0  0  0  0  0  0
   59.1546   35.6631   45.0747 H   0  0  0  0  0  0  0  0  0  0  0  0
   55.7610   30.9365   43.6996 H   0  0  0  0  0  0  0  0  0  0  0  0
   55.3615   28.5763   44.3866 H   0  0  0  0  0  0  0  0  0  0  0  0
   57.4447   26.3454   45.3616 H   0  0  0  0  0  0  0  0  0  0  0  0
   57.2749   26.9138   47.0654 H   0  0  0  0  0  0  0  0  0  0  0  0
   58.2141   22.9515   46.0676 H   0  0  0  0  0  0  0  0  0  0  0  0
   58.9372   21.3660   44.2741 H   0  0  0  0  0  0  0  0  0  0  0  0
   57.4116   20.9049   42.3490 H   0  0  0  0  0  0  0  0  0  0  0  0
   54.4934   23.5698   43.9437 H   0  0  0  0  0  0  0  0  0  0  0  0
   59.0139   28.6323   46.7097 H   0  0  0  0  0  0  0  0  0  0  0  0
   59.4208   30.9932   46.0152 H   0  0  0  0  0  0  0  0  0  0  0  0
  1  2  1  0
  2  3  2  0
  2  4  2  0
  2  5  1  0
  5  6  1  0
  6  7  2  0
  7  8  1  0
  8  9  2  0
  9 10  1  0
 10 11  1  0
 11 12  1  0
 12 13  2  0
 12 14  1  0
 14 15  1  0
 15 16  2  0
 16 17  1  0
 17 18  2  0
 18 19  1  0
 19 20  2  0
  9 21  1  0
 21 22  2  0
 22  6  1  0
 20 15  1  0
  1 23  1  0
  1 24  1  0
  1 25  1  0
  7 26  1  0
  8 27  1  0
 10 28  1  0
 10 29  1  0
 16 30  1  0
 17 31  1  0
 18 32  1  0
 20 33  1  0
 21 34  1  0
 22 35  1  0
M  CHG  3   5  -1  11  -1  14  -1
M  END
>  <UniqueID>  (8) 
7

>  <SMILES>  (8) 
CS(=O)(=O)[N-]c1ccc(C[N-]C(=O)[N-]c2cccnc2)cc1

>  <Energy>  (8) 
35.282977596849236

>  <Genealogy>  (8) 
CS(=O)(=O)[N-]c1ccc(C[N-]C(=O)[N-]c2cccnc2)cc1 (protonated)
CS(=O)(=O)[N-]c1ccc(C[N-]C(=O)[N-]c2cccnc2)cc1 (3D coordinates assigned)
CS(=O)(=O)[N-]c1ccc(C[N-]C(=O)[N-]c2cccnc2)cc1 (optimized conformer: 35.282977596849236 kcal/mol)

>  <smiles>  (8) 
CS(=O)(=O)Nc1ccc(CNC(=O)Nc2cccnc2)cc1

>  <score_type>  (8) 
oracle

>  <origin>  (8) 
adg

>  <m_score__min__energy>  (8) 
-12.17

>  <m_primary>  (8) 
energy

$$$$
8:0
     RDKit          3D

 47 49  0  0  0  0  0  0  0  0999 V2000
   56.6230   28.1530   44.9820 N   0  0  0  0  0  0  0  0  0  0  0  0
   56.3550   29.4100   43.8250 S   0  0  0  0  0  0  0  0  0  0  0  0
   54.8830   29.7070   43.7540 O   0  0  0  0  0  0  0  0  0  0  0  0
   56.8260   28.9600   42.4700 O   0  0  0  0  0  0  0  0  0  0  0  0
   57.2460   30.8510   44.3080 C   0  0  0  0  0  0  0  0  0  0  0  0
   57.5120   31.8490   43.3640 C   0  0  0  0  0  0  0  0  0  0  0  0
   58.2230   32.9950   43.7330 C   0  0  0  0  0  0  0  0  0  0  0  0
   58.6910   33.1500   45.0450 C   0  0  0  0  0  0  0  0  0  0  0  0
   59.4000   34.3540   45.3750 N   0  0  0  0  0  0  0  0  0  0  0  0
   60.0380   34.6810   46.6160 C   0  0  0  0  0  0  0  0  0  0  0  0
   59.4620   35.3970   47.4760 O   0  0  0  0  0  0  0  0  0  0  0  0
   61.4010   34.1440   46.8960 C   0  0  0  0  0  0  0  0  0  0  0  0
   61.4440   32.7670   46.5410 O   0  0  0  0  0  0  0  0  0  0  0  0
   61.5360   31.7440   47.4930 C   0  0  0  0  0  0  0  0  0  0  0  0
   62.3240   31.8610   48.4740 O   0  0  0  0  0  0  0  0  0  0  0  0
   60.7090   30.5260   47.3440 C   0  0  0  0  0  0  0  0  0  0  0  0
   59.7920   30.1530   48.3440 C   0  0  0  0  0  0  0  0  0  0  0  0
   59.0170   28.9980   48.2020 C   0  0  0  0  0  0  0  0  0  0  0  0
   59.1500   28.1930   47.0590 C   0  0  0  0  0  0  0  0  0  0  0  0
   58.3830   26.9940   46.8750 N   0  0  0  0  0  0  0  0  0  0  0  0
   58.5250   25.9130   45.5270 S   0  0  0  0  0  0  0  0  0  0  0  0
   58.7100   26.7110   44.2690 O   0  0  0  0  0  0  0  0  0  0  0  0
   59.7230   25.0270   45.7240 O   0  0  0  0  0  0  0  0  0  0  0  0
   57.0660   24.9500   45.3830 C   0  0  0  0  0  0  0  0  0  0  0  0
   56.6130   24.3240   44.2310 C   0  0  0  0  0  0  0  0  0  0  0  0
   55.4260   23.6100   44.4310 C   0  0  0  0  0  0  0  0  0  0  0  0
   54.9500   23.6740   45.7360 C   0  0  0  0  0  0  0  0  0  0  0  0
   56.0070   24.6210   46.6420 S   0  0  0  0  0  0  0  0  0  0  0  0
   60.0570   28.5640   46.0610 C   0  0  0  0  0  0  0  0  0  0  0  0
   60.8300   29.7210   46.1990 C   0  0  0  0  0  0  0  0  0  0  0  0
   58.4030   32.1570   45.9980 C   0  0  0  0  0  0  0  0  0  0  0  0
   57.6920   31.0100   45.6270 C   0  0  0  0  0  0  0  0  0  0  0  0
   56.6100   27.2480   44.4600 H   0  0  0  0  0  0  0  0  0  0  0  0
   57.5950   28.2750   45.3450 H   0  0  0  0  0  0  0  0  0  0  0  0
   57.1606   31.7316   42.3283 H   0  0  0  0  0  0  0  0  0  0  0  0
   58.4165   33.7808   42.9880 H   0  0  0  0  0  0  0  0  0  0  0  0
   62.1438   34.6996   46.3048 H   0  0  0  0  0  0  0  0  0  0  0  0
   61.6297   34.2568   47.9660 H   0  0  0  0  0  0  0  0  0  0  0  0
   59.6840   30.7751   49.2447 H   0  0  0  0  0  0  0  0  0  0  0  0
   58.3004   28.7188   48.9885 H   0  0  0  0  0  0  0  0  0  0  0  0
   57.1318   24.3826   43.2628 H   0  0  0  0  0  0  0  0  0  0  0  0
   54.9177   23.0511   43.6315 H   0  0  0  0  0  0  0  0  0  0  0  0
   54.0377   23.1883   46.1125 H   0  0  0  0  0  0  0  0  0  0  0  0
   60.1630   27.9409   45.1607 H   0  0  0  0  0  0  0  0  0  0  0  0
   61.5378   30.0028   45.4055 H   0  0  0  0  0  0  0  0  0  0  0  0
   58.7376   32.2821   47.0384 H   0  0  0  0  0  0  0  0  0  0  0  0
   57.4824   30.2301   46.3738 H   0  0  0  0  0  0  0  0  0  0  0  0
  1  2  1  0
  2  3  2  0
  2  4  2  0
  2  5  1  0
  5  6  2  0
  6  7  1  0
  7  8  2  0
  8  9  1  0
  9 10  1  0
 10 11  2  0
 10 12  1  0
 12 13  1  0
 13 14  1  0
 14 15  2  0
 14 16  1  0
 16 17  2  0
 17 18  1  0
 18 19  2  0
 19 20  1  0
 20 21  1  0
 21 22  2  0
 21 23  2  0
 21 24  1  0
 24 25  2  0
 25 26  1  0
 26 27  2  0
 27 28  1  0
 19 29  1  0
 29 30  2  0
  8 31  1  0
 31 32  2  0
 32  5  1  0
 30 16  1  0
 28 24  1  0
  1 33  1  0
  1 34  1  0
  6 35  1  0
  7 36  1  0
 12 37  1  0
 12 38  1  0
 17 39  1  0
 18 40  1  0
 25 41  1  0
 26 42  1  0
 27 43  1  0
 29 44  1  0
 30 45  1  0
 31 46  1  0
 32 47  1  0
M  CHG  2   9  -1  20  -1
M  END
>  <UniqueID>  (9) 
8

>  <SMILES>  (9) 
NS(=O)(=O)c1ccc([N-]C(=O)COC(=O)c2ccc([N-]S(=O)(=O)c3cccs3)cc2)cc1

>  <Energy>  (9) 
78.21329683535234

>  <Genealogy>  (9) 
NS(=O)(=O)c1ccc([N-]C(=O)COC(=O)c2ccc([N-]S(=O)(=O)c3cccs3)cc2)cc1 (protonated)
NS(=O)(=O)c1ccc([N-]C(=O)COC(=O)c2ccc([N-]S(=O)(=O)c3cccs3)cc2)cc1 (3D coordinates assigned)
NS(=O)(=O)c1ccc([N-]C(=O)COC(=O)c2ccc([N-]S(=O)(=O)c3cccs3)cc2)cc1 (optimized conformer: 78.21329683535234 kcal/mol)

>  <smiles>  (9) 
NS(=O)(=O)c1ccc(NC(=O)COC(=O)c2ccc(NS(=O)(=O)c3cccs3)cc2)cc1

>  <score_type>  (9) 
oracle

>  <origin>  (9) 
adg

>  <m_score__min__energy>  (9) 
-10.869999999999999

>  <m_primary>  (9) 
energy

$$$$
9:0
     RDKit          3D

 47 49  0  0  0  0  0  0  0  0999 V2000
   60.5890   26.8040   46.4290 C   0  0  0  0  0  0  0  0  0  0  0  0
   59.7940   25.5400   46.1020 C   0  0  0  0  0  0  0  0  0  0  0  0
   58.3950   25.8450   45.7600 N   0  0  0  0  0  0  0  0  0  0  0  0
   57.6300   26.7800   46.5980 C   0  0  0  0  0  0  0  0  0  0  0  0
   56.2760   27.0330   45.9940 C   0  0  0  0  0  0  0  0  0  0  0  0
   55.3770   26.1600   46.1160 O   0  0  0  0  0  0  0  0  0  0  0  0
   55.9900   28.2180   45.2410 N   0  0  0  0  0  0  0  0  0  0  0  0
   56.7540   29.4320   45.2410 C   0  0  0  0  0  0  0  0  0  0  0  0
   57.7840   29.5850   46.1750 C   0  0  0  0  0  0  0  0  0  0  0  0
   58.5650   30.7440   46.1830 C   0  0  0  0  0  0  0  0  0  0  0  0
   58.3300   31.7650   45.2540 C   0  0  0  0  0  0  0  0  0  0  0  0
   59.1700   32.9290   45.2840 N   0  0  0  0  0  0  0  0  0  0  0  0
   59.7530   33.5310   46.4460 C   0  0  0  0  0  0  0  0  0  0  0  0
   59.0590   34.2440   47.2200 O   0  0  0  0  0  0  0  0  0  0  0  0
   61.1620   33.2690   46.7600 C   0  0  0  0  0  0  0  0  0  0  0  0
   61.6530   32.1690   47.4350 C   0  0  0  0  0  0  0  0  0  0  0  0
   63.0190   32.3500   47.4950 C   0  0  0  0  0  0  0  0  0  0  0  0
   63.2740   33.5460   46.8530 C   0  0  0  0  0  0  0  0  0  0  0  0
   62.1470   34.0690   46.4260 O   0  0  0  0  0  0  0  0  0  0  0  0
   57.3310   31.5900   44.2800 C   0  0  0  0  0  0  0  0  0  0  0  0
   56.5500   30.4310   44.2730 C   0  0  0  0  0  0  0  0  0  0  0  0
   57.8770   25.4930   44.4600 C   0  0  0  0  0  0  0  0  0  0  0  0
   57.7620   26.3840   43.5740 O   0  0  0  0  0  0  0  0  0  0  0  0
   57.4710   24.1080   44.1360 C   0  0  0  0  0  0  0  0  0  0  0  0
   58.2590   23.0160   44.5240 C   0  0  0  0  0  0  0  0  0  0  0  0
   57.8550   21.7150   44.2170 C   0  0  0  0  0  0  0  0  0  0  0  0
   56.6540   21.5170   43.5310 C   0  0  0  0  0  0  0  0  0  0  0  0
   56.2740   20.3510   43.2450 O   0  0  0  0  0  0  0  0  0  0  0  0
   55.8910   22.5830   43.1770 N   0  0  0  0  0  0  0  0  0  0  0  0
   56.2630   23.8590   43.4650 C   0  0  0  0  0  0  0  0  0  0  0  0
   60.6616   26.9194   47.5205 H   0  0  0  0  0  0  0  0  0  0  0  0
   61.5990   26.7229   46.0009 H   0  0  0  0  0  0  0  0  0  0  0  0
   60.0785   27.6793   46.0009 H   0  0  0  0  0  0  0  0  0  0  0  0
   60.2667   25.0335   45.2476 H   0  0  0  0  0  0  0  0  0  0  0  0
   59.7945   24.8964   46.9941 H   0  0  0  0  0  0  0  0  0  0  0  0
   57.5047   26.3485   47.6020 H   0  0  0  0  0  0  0  0  0  0  0  0
   58.1768   27.7323   46.6631 H   0  0  0  0  0  0  0  0  0  0  0  0
   57.9805   28.7883   46.9076 H   0  0  0  0  0  0  0  0  0  0  0  0
   59.3700   30.8549   46.9244 H   0  0  0  0  0  0  0  0  0  0  0  0
   61.0755   31.3250   47.8401 H   0  0  0  0  0  0  0  0  0  0  0  0
   63.7557   31.6783   47.9598 H   0  0  0  0  0  0  0  0  0  0  0  0
   64.2701   33.9931   46.7194 H   0  0  0  0  0  0  0  0  0  0  0  0
   57.1636   32.3682   43.5208 H   0  0  0  0  0  0  0  0  0  0  0  0
   55.7720   30.2998   43.5065 H   0  0  0  0  0  0  0  0  0  0  0  0
   59.1980   23.1841   45.0717 H   0  0  0  0  0  0  0  0  0  0  0  0
   58.4753   20.8558   44.5119 H   0  0  0  0  0  0  0  0  0  0  0  0
   55.6156   24.6985   43.1714 H   0  0  0  0  0  0  0  0  0  0  0  0
  1  2  1  0
  2  3  1  0
  3  4  1  0
  4  5  1  0
  5  6  2  0
  5  7  1  0
  7  8  1  0
  8  9  2  0
  9 10  1  0
 10 11  2  0
 11 12  1  0
 12 13  1  0
 13 14  2  0
 13 15  1  0
 15 16  2  0
 16 17  1  0
 17 18  2  0
 18 19  1  0
 11 20  1  0
 20 21  2  0
  3 22  1  0
 22 23  2  0
 22 24  1  0
 24 25  1  0
 25 26  2  0
 26 27  1  0
 27 28  2  0
 27 29  1  0
 29 30  1  0
 21  8  1  0
 30 24  2  0
 19 15  1  0
  1 31  1  0
  1 32  1  0
  1 33  1  0
  2 34  1  0
  2 35  1  0
  4 36  1  0
  4 37  1  0
  9 38  1  0
 10 39  1  0
 16 40  1  0
 17 41  1  0
 18 42  1  0
 20 43  1  0
 21 44  1  0
 25 45  1  0
 26 46  1  0
 30 47  1  0
M  CHG  3   7  -1  12  -1  29  -1
M  END
>  <UniqueID>  (10) 
9

>  <SMILES>  (10) 
CCN(CC(=O)[N-]c1ccc([N-]C(=O)c2ccco2)cc1)C(=O)c1ccc(=O)[n-]c1

>  <Energy>  (10) 
84.85814700637343

>  <Genealogy>  (10) 
CCN(CC(=O)[N-]c1ccc([N-]C(=O)c2ccco2)cc1)C(=O)c1ccc(=O)[n-]c1 (protonated)
CCN(CC(=O)[N-]c1ccc([N-]C(=O)c2ccco2)cc1)C(=O)c1ccc(=O)[n-]c1 (3D coordinates assigned)
CCN(CC(=O)[N-]c1ccc([N-]C(=O)c2ccco2)cc1)C(=O)c1ccc(=O)[n-]c1 (optimized conformer: 84.85814700637343 kcal/mol)

>  <smiles>  (10) 
CCN(CC(=O)Nc1ccc(NC(=O)c2ccco2)cc1)C(=O)c1ccc(=O)[nH]c1

>  <score_type>  (10) 
oracle

>  <origin>  (10) 
adg

>  <m_score__min__energy>  (10) 
-13.06

>  <m_primary>  (10) 
energy

$$$$
10:0
     RDKit          3D

 61 64  0  0  1  0  0  0  0  0999 V2000
   57.8380   27.0250   47.5110 N   0  0  0  0  0  0  0  0  0  0  0  0
   58.5410   27.9390   47.4880 C   0  0  0  0  0  0  0  0  0  0  0  0
   59.3890   29.0810   47.4540 C   0  0  0  0  0  0  0  0  0  0  0  0
   59.3890   29.9440   46.3930 C   0  0  0  0  0  0  0  0  0  0  0  0
   58.5240   29.7460   45.2370 C   0  0  0  0  0  0  0  0  0  0  0  0
   58.5610   28.5690   44.4980 C   0  0  0  0  0  0  0  0  0  0  0  0
   57.7370   28.3750   43.3940 C   0  0  0  0  0  0  0  0  0  0  0  0
   56.8540   29.3380   42.9900 C   0  0  0  0  0  0  0  0  0  0  0  0
   56.8130   30.5100   43.7230 C   0  0  0  0  0  0  0  0  0  0  0  0
   57.6300   30.7030   44.8190 C   0  0  0  0  0  0  0  0  0  0  0  0
   60.2460   31.0010   46.4740 N   0  0  0  0  0  0  0  0  0  0  0  0
   61.0540   31.2060   47.5270 C   0  0  0  0  0  0  0  0  0  0  0  0
   62.1190   32.6380   47.4870 S   0  0  0  0  0  0  0  0  0  0  0  0
   61.0930   34.1180   47.7740 C   0  0  0  0  0  0  0  0  0  0  0  0
   59.8390   34.0650   46.9910 C   0  0  0  0  0  0  0  0  0  0  0  0
   59.7230   34.4970   45.6930 C   0  0  0  0  0  0  0  0  0  0  0  0
   58.5140   34.4240   44.9960 C   0  0  0  0  0  0  0  0  0  0  0  0
   57.4070   33.8910   45.6650 C   0  0  0  0  0  0  0  0  0  0  0  0
   57.5120   33.4530   46.9700 C   0  0  0  0  0  0  0  0  0  0  0  0
   58.7250   33.5340   47.6460 C   0  0  0  0  0  0  0  0  0  0  0  0
   61.0690   30.3720   48.5810 N   0  0  0  0  0  0  0  0  0  0  0  0
   60.2340   29.3180   48.5290 C   0  0  0  0  0  0  0  0  0  0  0  0
   60.2290   28.5120   49.5150 N   0  0  0  0  0  0  0  0  0  0  0  0
   61.3800   28.0460   50.2230 C   0  0  0  0  0  0  0  0  0  0  0  0
   61.9620   29.1790   51.0150 C   0  0  0  0  0  0  0  0  0  0  0  0
   60.9380   29.8970   51.8620 C   0  0  0  0  0  0  0  0  0  0  0  0
   60.3800   30.9400   51.0860 O   0  0  0  0  0  0  0  0  0  0  0  0
   59.6540   31.9880   51.6070 C   0  0  0  0  0  0  0  0  0  0  0  0
   60.3100   33.1440   52.0000 C   0  0  0  0  0  0  0  0  0  0  0  0
   59.5960   34.2170   52.5300 C   0  0  0  0  0  0  0  0  0  0  0  0
   58.2130   34.0710   52.6440 C   0  0  0  0  0  0  0  0  0  0  0  0
   57.5710   32.9220   52.2520 C   0  0  0  0  0  0  0  0  0  0  0  0
   58.2850   31.8640   51.7280 C   0  0  0  0  0  0  0  0  0  0  0  0
   57.5510   30.6700   51.3290 C   0  0  0  0  0  0  0  0  0  0  0  0
   58.1450   29.6460   50.5400 N   0  0  0  0  0  0  0  0  0  0  0  0
   56.3450   30.4840   51.6660 O   0  0  0  0  0  0  0  0  0  0  0  0
   59.2588   27.7717   44.7934 H   0  0  0  0  0  0  0  0  0  0  0  0
   57.7968   27.4292   42.8355 H   0  0  0  0  0  0  0  0  0  0  0  0
   56.2024   29.1864   42.1168 H   0  0  0  0  0  0  0  0  0  0  0  0
   56.1141   31.3059   43.4262 H   0  0  0  0  0  0  0  0  0  0  0  0
   57.5637   31.6504   45.3741 H   0  0  0  0  0  0  0  0  0  0  0  0
   60.8447   34.1795   48.8438 H   0  0  0  0  0  0  0  0  0  0  0  0
   61.6637   35.0024   47.4545 H   0  0  0  0  0  0  0  0  0  0  0  0
   60.6070   34.9125   45.1872 H   0  0  0  0  0  0  0  0  0  0  0  0
   58.4354   34.7739   43.9561 H   0  0  0  0  0  0  0  0  0  0  0  0
   56.4405   33.8200   45.1446 H   0  0  0  0  0  0  0  0  0  0  0  0
   56.6300   33.0369   47.4789 H   0  0  0  0  0  0  0  0  0  0  0  0
   58.8063   33.1836   48.6855 H   0  0  0  0  0  0  0  0  0  0  0  0
   61.6820   30.5150   49.3950 H   0  0  0  0  0  0  0  0  0  0  0  0
   61.0892   27.2322   50.9036 H   0  0  0  0  0  0  0  0  0  0  0  0
   62.1277   27.6713   49.5084 H   0  0  0  0  0  0  0  0  0  0  0  0
   62.7445   28.7784   51.6762 H   0  0  0  0  0  0  0  0  0  0  0  0
   62.3638   29.9090   50.2969 H   0  0  0  0  0  0  0  0  0  0  0  0
   60.1478   29.1951   52.1667 H   0  0  0  0  0  0  0  0  0  0  0  0
   61.4109   30.3061   52.7670 H   0  0  0  0  0  0  0  0  0  0  0  0
   61.4025   33.2150   51.8927 H   0  0  0  0  0  0  0  0  0  0  0  0
   60.1020   35.1413   52.8456 H   0  0  0  0  0  0  0  0  0  0  0  0
   57.6204   34.8994   53.0595 H   0  0  0  0  0  0  0  0  0  0  0  0
   56.4787   32.8445   52.3566 H   0  0  0  0  0  0  0  0  0  0  0  0
   57.6670   29.3670   49.6400 H   0  0  0  0  0  0  0  0  0  0  0  0
   59.0440   29.1850   50.8550 H   0  0  0  0  0  0  0  0  0  0  0  0
  1  2  3  0
  2  3  1  0
  3  4  2  0
  4  5  1  0
  5  6  2  0
  6  7  1  0
  7  8  2  0
  8  9  1  0
  9 10  2  0
  4 11  1  0
 11 12  2  0
 12 13  1  0
 13 14  1  0
 14 15  1  0
 15 16  2  0
 16 17  1  0
 17 18  2  0
 18 19  1  0
 19 20  2  0
 12 21  1  0
 21 22  1  0
 22 23  2  0
 23 24  1  0
 24 25  1  0
 25 26  1  0
 26 27  1  0
 27 28  1  0
 28 29  2  0
 29 30  1  0
 30 31  2  0
 31 32  1  0
 32 33  2  0
 33 34  1  0
 34 35  1  0
 34 36  2  0
 22  3  1  0
 33 28  1  0
 10  5  1  0
 20 15  1  0
  6 37  1  0
  7 38  1  0
  8 39  1  0
  9 40  1  0
 10 41  1  0
 14 42  1  0
 14 43  1  0
 16 44  1  0
 17 45  1  0
 18 46  1  0
 19 47  1  0
 20 48  1  0
 21 49  1  0
 24 50  1  0
 24 51  1  0
 25 52  1  0
 25 53  1  0
 26 54  1  0
 26 55  1  0
 29 56  1  0
 30 57  1  0
 31 58  1  0
 32 59  1  0
 35 60  1  0
 35 61  1  0
M  END
>  <smiles>  (11) 
N#Cc1c(-c2ccccc2)nc(SCc2ccccc2)[nH]c1=NCCCOc1ccccc1C(N)=O

>  <score_type>  (11) 
oracle

>  <origin>  (11) 
adg

>  <m_score__min__energy>  (11) 
-9.3300000000000001

>  <m_primary>  (11) 
energy

$$$$
11:0
     RDKit          3D

 57 60  0  0  0  0  0  0  0  0999 V2000
   54.1391   23.8503   45.8923 H   0  0  0  0  0  0  0  0  0  0  0  0
   55.0470   24.4010   45.6050 C   0  0  0  0  0  0  0  0  0  0  0  0
   55.4870   25.4320   46.3720 N   0  0  0  0  0  0  0  0  0  0  0  0
   56.6060   26.1460   46.0580 C   0  0  0  0  0  0  0  0  0  0  0  0
   57.0130   27.1240   46.8160 N   0  0  0  0  0  0  0  0  0  0  0  0
   58.2870   27.2430   47.4730 C   0  0  0  0  0  0  0  0  0  0  0  0
   59.1120   26.2860   47.4620 O   0  0  0  0  0  0  0  0  0  0  0  0
   58.6210   28.4740   48.1510 N   0  0  0  0  0  0  0  0  0  0  0  0
   57.9480   28.5850   48.9480 H   0  0  0  0  0  0  0  0  0  0  0  0
   59.9890   28.4030   48.7410 C   0  0  0  0  0  0  0  0  0  0  0  0
   60.3195   27.3539   48.7317 H   0  0  0  0  0  0  0  0  0  0  0  0
   59.9257   28.8077   49.7619 H   0  0  0  0  0  0  0  0  0  0  0  0
   61.0210   29.2460   47.9800 C   0  0  0  0  0  0  0  0  0  0  0  0
   61.1636   28.8271   46.9729 H   0  0  0  0  0  0  0  0  0  0  0  0
   61.9757   29.2313   48.5262 H   0  0  0  0  0  0  0  0  0  0  0  0
   60.5470   30.6320   47.8690 N   0  0  0  0  0  0  0  0  0  0  0  0
   61.4940   31.7080   47.7180 C   0  0  0  0  0  0  0  0  0  0  0  0
   62.7160   31.6640   48.4130 C   0  0  0  0  0  0  0  0  0  0  0  0
   62.9366   30.8127   49.0738 H   0  0  0  0  0  0  0  0  0  0  0  0
   63.6520   32.6910   48.2720 C   0  0  0  0  0  0  0  0  0  0  0  0
   64.6061   32.6439   48.8174 H   0  0  0  0  0  0  0  0  0  0  0  0
   63.3780   33.7750   47.4410 C   0  0  0  0  0  0  0  0  0  0  0  0
   64.1179   34.5812   47.3283 H   0  0  0  0  0  0  0  0  0  0  0  0
   62.1660   33.8400   46.7510 C   0  0  0  0  0  0  0  0  0  0  0  0
   61.9551   34.7004   46.0989 H   0  0  0  0  0  0  0  0  0  0  0  0
   61.2100   32.8120   46.8830 C   0  0  0  0  0  0  0  0  0  0  0  0
   59.9740   32.8640   46.2200 O   0  0  0  0  0  0  0  0  0  0  0  0
   59.2300   34.0560   45.9860 C   0  0  0  0  0  0  0  0  0  0  0  0
   58.9483   34.5073   46.9488 H   0  0  0  0  0  0  0  0  0  0  0  0
   59.8455   34.7661   45.4143 H   0  0  0  0  0  0  0  0  0  0  0  0
   58.3217   33.8150   45.4143 H   0  0  0  0  0  0  0  0  0  0  0  0
   59.1080   30.8860   47.7270 C   0  0  0  0  0  0  0  0  0  0  0  0
   58.9516   31.6968   47.0003 H   0  0  0  0  0  0  0  0  0  0  0  0
   58.6952   31.1750   48.7048 H   0  0  0  0  0  0  0  0  0  0  0  0
   58.3960   29.6210   47.2360 C   0  0  0  0  0  0  0  0  0  0  0  0
   58.7786   29.3612   46.2380 H   0  0  0  0  0  0  0  0  0  0  0  0
   57.3159   29.8265   47.2029 H   0  0  0  0  0  0  0  0  0  0  0  0
   57.3400   25.8160   44.9050 C   0  0  0  0  0  0  0  0  0  0  0  0
   58.4890   26.5660   44.5950 O   0  0  0  0  0  0  0  0  0  0  0  0
   58.6150   27.4690   43.4970 C   0  0  0  0  0  0  0  0  0  0  0  0
   59.6802   27.5920   43.2514 H   0  0  0  0  0  0  0  0  0  0  0  0
   58.0692   27.0559   42.6359 H   0  0  0  0  0  0  0  0  0  0  0  0
   58.0290   28.8130   43.8410 C   0  0  0  0  0  0  0  0  0  0  0  0
   56.6370   29.0010   43.8060 C   0  0  0  0  0  0  0  0  0  0  0  0
   55.9773   28.1621   43.5393 H   0  0  0  0  0  0  0  0  0  0  0  0
   56.0870   30.2510   44.1090 C   0  0  0  0  0  0  0  0  0  0  0  0
   54.9963   30.3917   44.0859 H   0  0  0  0  0  0  0  0  0  0  0  0
   56.9220   31.3210   44.4410 C   0  0  0  0  0  0  0  0  0  0  0  0
   56.4883   32.3027   44.6820 H   0  0  0  0  0  0  0  0  0  0  0  0
   58.3100   31.1440   44.4670 C   0  0  0  0  0  0  0  0  0  0  0  0
   58.9669   31.9876   44.7253 H   0  0  0  0  0  0  0  0  0  0  0  0
   58.8620   29.8960   44.1650 C   0  0  0  0  0  0  0  0  0  0  0  0
   59.9536   29.7616   44.1812 H   0  0  0  0  0  0  0  0  0  0  0  0
   56.8930   24.7500   44.1020 C   0  0  0  0  0  0  0  0  0  0  0  0
   57.4502   24.4755   43.1942 H   0  0  0  0  0  0  0  0  0  0  0  0
   55.7450   24.0410   44.4550 C   0  0  0  0  0  0  0  0  0  0  0  0
   55.3944   23.2056   43.8311 H   0  0  0  0  0  0  0  0  0  0  0  0
  1  2  1  0
  2  3  1  0
  3  4  1  0
  4  5  2  0
  5  6  1  0
  6  7  2  0
  6  8  1  0
  8  9  1  0
  8 10  1  0
 10 11  1  0
 10 12  1  0
 10 13  1  0
 13 14  1  0
 13 15  1  0
 13 16  1  0
 16 17  1  0
 17 18  2  0
 18 19  1  0
 18 20  1  0
 20 21  1  0
 20 22  2  0
 22 23  1  0
 22 24  1  0
 24 25  1  0
 24 26  2  0
 26 27  1  0
 27 28  1  0
 28 29  1  0
 28 30  1  0
 28 31  1  0
 16 32  1  0
 32 33  1  0
 32 34  1  0
 32 35  1  0
 35 36  1  0
 35 37  1  0
  4 38  1  0
 38 39  1  0
 39 40  1  0
 40 41  1  0
 40 42  1  0
 40 43  1  0
 43 44  2  0
 44 45  1  0
 44 46  1  0
 46 47  1  0
 46 48  2  0
 48 49  1  0
 48 50  1  0
 50 51  1  0
 50 52  2  0
 52 53  1  0
 38 54  2  0
 54 55  1  0
 54 56  1  0
 56 57  1  0
 56  2  2  0
 35  8  1  0
 52 43  1  0
 26 17  1  0
M  CHG  2   3  -1   8   1
M  END
>  <UniqueID>  (12) 
10

>  <SMILES>  (12) 
COc1ccccc1N1CC[NH+](C(=O)/N=c2\[n-]cccc2OCc2ccccc2)CC1

>  <Energy>  (12) 
76.29637296232639

>  <Genealogy>  (12) 
COc1ccccc1N1CC[NH+](C(=O)N=c2[n-]cccc2OCc2ccccc2)CC1 (protonated)
COc1ccccc1N1CC[NH+](C(=O)/N=c2\[n-]cccc2OCc2ccccc2)CC1 (cis-trans isomerization)
COc1ccccc1N1CC[NH+](C(=O)/N=c2\[n-]cccc2OCc2ccccc2)CC1 (3D coordinates assigned)
COc1ccccc1N1CC[NH+](C(=O)/N=c2\[n-]cccc2OCc2ccccc2)CC1 (nonaromatic ring conformer: 76.29637296232639 kcal/mol)

>  <smiles>  (12) 
COc1ccccc1N1CCN(C(=O)N=c2[nH]cccc2OCc2ccccc2)CC1

>  <score_type>  (12) 
oracle

>  <origin>  (12) 
adg

>  <m_score__min__energy>  (12) 
-7.3200000000000003

>  <m_primary>  (12) 
energy

$$$$
12:0
     RDKit          3D

 36 37  0  0  0  0  0  0  0  0999 V2000
   56.2660   30.0370   42.7760 C   0  0  0  0  0  0  0  0  0  0  0  0
   56.3770   29.6880   44.2310 C   0  0  0  0  0  0  0  0  0  0  0  0
   55.3160   29.4510   44.8710 O   0  0  0  0  0  0  0  0  0  0  0  0
   57.6570   29.6050   44.8980 N   0  0  0  0  0  0  0  0  0  0  0  0
   58.6940   30.6040   44.6110 C   0  0  0  0  0  0  0  0  0  0  0  0
   58.1620   31.9800   44.8540 C   0  0  0  0  0  0  0  0  0  0  0  0
   58.7590   33.1580   44.4520 C   0  0  0  0  0  0  0  0  0  0  0  0
   57.9410   34.1640   44.9180 C   0  0  0  0  0  0  0  0  0  0  0  0
   56.9010   33.5390   45.5770 C   0  0  0  0  0  0  0  0  0  0  0  0
   57.0620   32.2370   45.5240 O   0  0  0  0  0  0  0  0  0  0  0  0
   57.8780   28.6620   45.9630 C   0  0  0  0  0  0  0  0  0  0  0  0
   57.1710   27.1830   45.8830 S   0  0  0  0  0  0  0  0  0  0  0  0
   58.4590   29.0810   47.2090 N   0  0  0  0  0  0  0  0  0  0  0  0
   59.3430   30.2080   47.3510 C   0  0  0  0  0  0  0  0  0  0  0  0
   60.6880   30.0760   46.9760 C   0  0  0  0  0  0  0  0  0  0  0  0
   61.5690   31.1520   47.1110 C   0  0  0  0  0  0  0  0  0  0  0  0
   61.1100   32.3760   47.6030 C   0  0  0  0  0  0  0  0  0  0  0  0
   59.7600   32.5380   47.9440 C   0  0  0  0  0  0  0  0  0  0  0  0
   59.2710   33.8450   48.4970 C   0  0  0  0  0  0  0  0  0  0  0  0
   58.8820   31.4510   47.8240 C   0  0  0  0  0  0  0  0  0  0  0  0
   55.9340   31.0807   42.6736 H   0  0  0  0  0  0  0  0  0  0  0  0
   57.2472   29.9153   42.2939 H   0  0  0  0  0  0  0  0  0  0  0  0
   55.5354   29.3709   42.2939 H   0  0  0  0  0  0  0  0  0  0  0  0
   59.5602   30.4278   45.2657 H   0  0  0  0  0  0  0  0  0  0  0  0
   58.9976   30.5159   43.5574 H   0  0  0  0  0  0  0  0  0  0  0  0
   59.6918   33.2700   43.8798 H   0  0  0  0  0  0  0  0  0  0  0  0
   58.0870   35.2468   44.7907 H   0  0  0  0  0  0  0  0  0  0  0  0
   56.0642   34.0540   46.0716 H   0  0  0  0  0  0  0  0  0  0  0  0
   58.2000   28.5520   48.0730 H   0  0  0  0  0  0  0  0  0  0  0  0
   61.0516   29.1192   46.5730 H   0  0  0  0  0  0  0  0  0  0  0  0
   62.6259   31.0350   46.8293 H   0  0  0  0  0  0  0  0  0  0  0  0
   61.8103   33.2157   47.7233 H   0  0  0  0  0  0  0  0  0  0  0  0
   59.2854   33.8064   49.5962 H   0  0  0  0  0  0  0  0  0  0  0  0
   59.9258   34.6579   48.1500 H   0  0  0  0  0  0  0  0  0  0  0  0
   58.2434   34.0285   48.1500 H   0  0  0  0  0  0  0  0  0  0  0  0
   57.8244   31.5708   48.1018 H   0  0  0  0  0  0  0  0  0  0  0  0
  1  2  1  0
  2  3  2  0
  2  4  1  0
  4  5  1  0
  5  6  1  0
  6  7  2  0
  7  8  1  0
  8  9  2  0
  9 10  1  0
  4 11  1  0
 11 12  2  0
 11 13  1  0
 13 14  1  0
 14 15  2  0
 15 16  1  0
 16 17  2  0
 17 18  1  0
 18 19  1  0
 18 20  2  0
 10  6  1  0
 20 14  1  0
  1 21  1  0
  1 22  1  0
  1 23  1  0
  5 24  1  0
  5 25  1  0
  7 26  1  0
  8 27  1  0
  9 28  1  0
 13 29  1  0
 15 30  1  0
 16 31  1  0
 17 32  1  0
 19 33  1  0
 19 34  1  0
 19 35  1  0
 20 36  1  0
M  END
>  <UniqueID>  (13) 
11

>  <SMILES>  (13) 
CC(=O)N(Cc1ccco1)C(=S)Nc1cccc(C)c1

>  <Energy>  (13) 
65.65925993753945

>  <Genealogy>  (13) 
CC(=O)N(Cc1ccco1)C(=S)Nc1cccc(C)c1 (3D coordinates assigned)
CC(=O)N(Cc1ccco1)C(=S)Nc1cccc(C)c1 (optimized conformer: 65.65925993753945 kcal/mol)

>  <smiles>  (13) 
CC(=O)N(Cc1ccco1)C(=S)Nc1cccc(C)c1

>  <score_type>  (13) 
oracle

>  <origin>  (13) 
adg

>  <m_score__min__energy>  (13) 
-6.8700000000000001

>  <m_primary>  (13) 
energy

$$$$
13:0
     RDKit          3D

 59 63  0  0  0  0  0  0  0  0999 V2000
   67.0790   31.7960   50.2670 O   0  0  0  0  0  0  0  0  0  0  0  0
   66.3560   32.8170   50.4470 C   0  0  0  0  0  0  0  0  0  0  0  0
   64.9270   32.7600   50.0410 C   0  0  0  0  0  0  0  0  0  0  0  0
   63.9060   32.4530   50.9750 C   0  0  0  0  0  0  0  0  0  0  0  0
   62.5530   32.4870   50.5990 C   0  0  0  0  0  0  0  0  0  0  0  0
   62.2290   32.8110   49.2820 C   0  0  0  0  0  0  0  0  0  0  0  0
   60.9600   32.9430   48.8170 N   0  0  0  0  0  0  0  0  0  0  0  0
   60.9500   33.2970   47.5070 C   0  0  0  0  0  0  0  0  0  0  0  0
   59.7390   33.5990   46.7810 N   0  0  0  0  0  0  0  0  0  0  0  0
   58.4890   32.9330   47.2040 C   0  0  0  0  0  0  0  0  0  0  0  0
   57.2320   33.5160   46.5430 C   0  0  0  0  0  0  0  0  0  0  0  0
   57.4290   33.7520   45.0350 C   0  0  0  0  0  0  0  0  0  0  0  0
   57.7430   32.4860   44.3120 N   0  0  0  0  0  0  0  0  0  0  0  0
   56.7660   31.4220   44.5750 C   0  0  0  0  0  0  0  0  0  0  0  0
   56.8340   30.4640   43.3930 C   0  0  0  0  0  0  0  0  0  0  0  0
   57.3820   31.2910   42.2450 C   0  0  0  0  0  0  0  0  0  0  0  0
   57.7260   32.6480   42.8500 C   0  0  0  0  0  0  0  0  0  0  0  0
   58.5660   34.7780   44.9010 C   0  0  0  0  0  0  0  0  0  0  0  0
   59.8860   34.2200   45.4500 C   0  0  0  0  0  0  0  0  0  0  0  0
   62.5240   33.4610   46.8860 S   0  0  0  0  0  0  0  0  0  0  0  0
   63.2260   33.0620   48.3590 C   0  0  0  0  0  0  0  0  0  0  0  0
   64.5740   33.0380   48.7020 C   0  0  0  0  0  0  0  0  0  0  0  0
   66.9400   34.0240   51.0120 N   0  0  1  0  0  0  0  0  0  0  0  0
   66.4990   34.2120   52.4140 C   0  0  0  0  0  0  0  0  0  0  0  0
   67.1740   33.2420   53.4030 C   0  0  0  0  0  0  0  0  0  0  0  0
   68.6450   32.9480   53.0680 C   0  0  0  0  0  0  0  0  0  0  0  0
   69.2390   33.9870   52.1210 C   0  0  2  0  0  0  0  0  0  0  0  0
   69.2770   35.2250   52.7430 F   0  0  0  0  0  0  0  0  0  0  0  0
   68.4210   34.0690   50.8180 C   0  0  0  0  0  0  0  0  0  0  0  0
   64.1765   32.1848   52.0070 H   0  0  0  0  0  0  0  0  0  0  0  0
   61.7630   32.2620   51.3306 H   0  0  0  0  0  0  0  0  0  0  0  0
   58.5570   31.8665   46.9433 H   0  0  0  0  0  0  0  0  0  0  0  0
   58.3882   33.0912   48.2879 H   0  0  0  0  0  0  0  0  0  0  0  0
   56.3975   32.8138   46.6863 H   0  0  0  0  0  0  0  0  0  0  0  0
   57.0206   34.4875   47.0137 H   0  0  0  0  0  0  0  0  0  0  0  0
   56.5033   34.1290   44.5757 H   0  0  0  0  0  0  0  0  0  0  0  0
   57.0213   30.8944   45.5058 H   0  0  0  0  0  0  0  0  0  0  0  0
   55.7531   31.8348   44.6922 H   0  0  0  0  0  0  0  0  0  0  0  0
   57.5050   29.6216   43.6168 H   0  0  0  0  0  0  0  0  0  0  0  0
   55.8509   30.0309   43.1564 H   0  0  0  0  0  0  0  0  0  0  0  0
   58.2819   30.8177   41.8252 H   0  0  0  0  0  0  0  0  0  0  0  0
   56.6558   31.3820   41.4238 H   0  0  0  0  0  0  0  0  0  0  0  0
   58.7142   32.9776   42.4967 H   0  0  0  0  0  0  0  0  0  0  0  0
   56.9860   33.4052   42.5516 H   0  0  0  0  0  0  0  0  0  0  0  0
   58.6977   35.0306   43.8385 H   0  0  0  0  0  0  0  0  0  0  0  0
   58.2978   35.6724   45.4825 H   0  0  0  0  0  0  0  0  0  0  0  0
   60.2648   33.4616   44.7490 H   0  0  0  0  0  0  0  0  0  0  0  0
   60.5824   35.0649   45.5556 H   0  0  0  0  0  0  0  0  0  0  0  0
   65.3491   33.2316   47.9458 H   0  0  0  0  0  0  0  0  0  0  0  0
   66.5650   34.8410   50.4770 H   0  0  0  0  0  0  0  0  0  0  0  0
   66.7361   35.2419   52.7190 H   0  0  0  0  0  0  0  0  0  0  0  0
   65.4186   34.0076   52.4448 H   0  0  0  0  0  0  0  0  0  0  0  0
   67.1279   33.6834   54.4095 H   0  0  0  0  0  0  0  0  0  0  0  0
   66.6314   32.2872   53.3402 H   0  0  0  0  0  0  0  0  0  0  0  0
   69.2272   32.9453   54.0013 H   0  0  0  0  0  0  0  0  0  0  0  0
   68.6883   31.9699   52.5665 H   0  0  0  0  0  0  0  0  0  0  0  0
   70.2642   33.6819   51.8643 H   0  0  0  0  0  0  0  0  0  0  0  0
   68.6728   35.0133   50.3132 H   0  0  0  0  0  0  0  0  0  0  0  0
   68.6860   33.1806   50.2259 H   0  0  0  0  0  0  0  0  0  0  0  0
  1  2  2  0
  2  3  1  0
  3  4  2  0
  4  5  1  0
  5  6  2  0
  6  7  1  0
  7  8  2  0
  8  9  1  0
  9 10  1  0
 10 11  1  0
 11 12  1  0
 12 13  1  0
 13 14  1  0
 14 15  1  0
 15 16  1  0
 16 17  1  0
 12 18  1  0
 18 19  1  0
  8 20  1  0
 20 21  1  0
 21 22  2  0
  2 23  1  0
 23 24  1  0
 24 25  1  0
 25 26  1  0
 26 27  1  0
 27 28  1  0
 27 29  1  0
 22  3  1  0
 29 23  1  0
 21  6  1  0
 19  9  1  0
 17 13  1  0
  4 30  1  0
  5 31  1  0
 10 32  1  0
 10 33  1  0
 11 34  1  0
 11 35  1  0
 12 36  1  0
 14 37  1  0
 14 38  1  0
 15 39  1  0
 15 40  1  0
 16 41  1  0
 16 42  1  0
 17 43  1  0
 17 44  1  0
 18 45  1  0
 18 46  1  0
 19 47  1  0
 19 48  1  0
 22 49  1  0
 23 50  1  6
 24 51  1  0
 24 52  1  0
 25 53  1  0
 25 54  1  0
 26 55  1  0
 26 56  1  0
 27 57  1  6
 29 58  1  0
 29 59  1  0
M  CHG  1  23   1
M  END
>  <UniqueID>  (14) 
12

>  <SMILES>  (14) 
O=C(c1ccc2nc(N3CCC(N4CCCC4)CC3)sc2c1)[N@H+]1CCC[C@H](F)C1

>  <Energy>  (14) 
115.0765138107708

>  <Genealogy>  (14) 
O=C(c1ccc2nc(N3CCC(N4CCCC4)CC3)sc2c1)[NH+]1CCCC(F)C1 (protonated)
O=C(c1ccc2nc(N3CCC(N4CCCC4)CC3)sc2c1)[N@H+]1CCC[C@H](F)C1 (chirality)
O=C(c1ccc2nc(N3CCC(N4CCCC4)CC3)sc2c1)[N@H+]1CCC[C@H](F)C1 (3D coordinates assigned)
O=C(c1ccc2nc(N3CCC(N4CCCC4)CC3)sc2c1)[N@H+]1CCC[C@H](F)C1 (nonaromatic ring conformer: 115.0765138107708 kcal/mol)

>  <smiles>  (14) 
O=C(c1ccc2nc(N3CCC(N4CCCC4)CC3)sc2c1)N1CCCC(F)C1

>  <score_type>  (14) 
oracle

>  <origin>  (14) 
adg

>  <m_score__min__energy>  (14) 
-7.3700000000000001

>  <m_primary>  (14) 
energy

$$$$
14:0
     RDKit          3D

 56 59  0  0  0  0  0  0  0  0999 V2000
   54.7760   26.2290   45.9580 N   0  0  0  0  0  0  0  0  0  0  0  0
   56.3640   25.5780   46.1540 S   0  0  0  0  0  0  0  0  0  0  0  0
   56.5170   24.3870   45.2510 O   0  0  0  0  0  0  0  0  0  0  0  0
   56.5590   25.1470   47.5810 O   0  0  0  0  0  0  0  0  0  0  0  0
   57.5590   26.8030   45.7490 C   0  0  0  0  0  0  0  0  0  0  0  0
   58.8780   26.6890   46.2070 C   0  0  0  0  0  0  0  0  0  0  0  0
   59.8130   27.6830   45.9100 C   0  0  0  0  0  0  0  0  0  0  0  0
   59.4350   28.8020   45.1650 C   0  0  0  0  0  0  0  0  0  0  0  0
   58.1160   28.9240   44.6920 C   0  0  0  0  0  0  0  0  0  0  0  0
   57.6670   30.0890   43.9830 N   0  0  0  0  0  0  0  0  0  0  0  0
   56.5560   30.9260   44.3280 C   0  0  0  0  0  0  0  0  0  0  0  0
   55.4320   30.6870   43.8170 O   0  0  0  0  0  0  0  0  0  0  0  0
   56.6840   32.0280   45.2350 N   0  0  0  0  0  0  0  0  0  0  0  0
   57.8800   32.4260   45.9210 C   0  0  0  0  0  0  0  0  0  0  0  0
   58.8210   33.2020   45.2370 C   0  0  0  0  0  0  0  0  0  0  0  0
   60.0260   33.5580   45.8470 C   0  0  0  0  0  0  0  0  0  0  0  0
   60.3150   33.1310   47.1550 C   0  0  0  0  0  0  0  0  0  0  0  0
   61.5970   33.4820   47.8080 C   0  0  0  0  0  0  0  0  0  0  0  0
   62.8510   33.1440   47.2920 C   0  0  0  0  0  0  0  0  0  0  0  0
   64.0260   33.6770   48.3720 S   0  0  0  0  0  0  0  0  0  0  0  0
   62.9010   34.3240   49.4330 C   0  0  0  0  0  0  0  0  0  0  0  0
   63.2200   34.9240   50.5410 N   0  0  0  0  0  0  0  0  0  0  0  0
   63.6690   34.2900   51.7460 C   0  0  0  0  0  0  0  0  0  0  0  0
   64.6790   34.7510   52.3400 O   0  0  0  0  0  0  0  0  0  0  0  0
   62.9550   33.1830   52.3060 N   0  0  0  0  0  0  0  0  0  0  0  0
   62.4630   32.0650   51.5120 C   0  0  0  0  0  0  0  0  0  0  0  0
   60.9420   31.9570   51.6400 C   0  0  0  0  0  0  0  0  0  0  0  0
   60.3780   30.9740   50.6460 C   0  0  0  0  0  0  0  0  0  0  0  0
   59.0140   30.6430   50.6710 C   0  0  0  0  0  0  0  0  0  0  0  0
   58.5020   29.6830   49.7940 C   0  0  0  0  0  0  0  0  0  0  0  0
   59.3470   29.0550   48.8760 C   0  0  0  0  0  0  0  0  0  0  0  0
   60.7080   29.3760   48.8430 C   0  0  0  0  0  0  0  0  0  0  0  0
   61.2250   30.3270   49.7300 C   0  0  0  0  0  0  0  0  0  0  0  0
   61.6340   34.1390   49.0020 N   0  0  0  0  0  0  0  0  0  0  0  0
   59.3690   32.3500   47.8390 C   0  0  0  0  0  0  0  0  0  0  0  0
   58.1640   31.9940   47.2270 C   0  0  0  0  0  0  0  0  0  0  0  0
   57.1830   27.9240   44.9960 C   0  0  0  0  0  0  0  0  0  0  0  0
   54.7030   27.0540   46.5950 H   0  0  0  0  0  0  0  0  0  0  0  0
   59.1781   25.8140   46.8023 H   0  0  0  0  0  0  0  0  0  0  0  0
   60.8498   27.5842   46.2638 H   0  0  0  0  0  0  0  0  0  0  0  0
   60.1708   29.5902   44.9475 H   0  0  0  0  0  0  0  0  0  0  0  0
   58.6104   33.5348   44.2099 H   0  0  0  0  0  0  0  0  0  0  0  0
   60.7534   34.1763   45.3006 H   0  0  0  0  0  0  0  0  0  0  0  0
   63.0377   32.6198   46.3432 H   0  0  0  0  0  0  0  0  0  0  0  0
   62.7287   32.2238   50.4565 H   0  0  0  0  0  0  0  0  0  0  0  0
   62.9217   31.1346   51.8780 H   0  0  0  0  0  0  0  0  0  0  0  0
   60.6907   31.6223   52.6573 H   0  0  0  0  0  0  0  0  0  0  0  0
   60.5050   32.9459   51.4371 H   0  0  0  0  0  0  0  0  0  0  0  0
   58.3436   31.1427   51.3858 H   0  0  0  0  0  0  0  0  0  0  0  0
   57.4339   29.4220   49.8266 H   0  0  0  0  0  0  0  0  0  0  0  0
   58.9417   28.3073   48.1784 H   0  0  0  0  0  0  0  0  0  0  0  0
   61.3723   28.8807   48.1195 H   0  0  0  0  0  0  0  0  0  0  0  0
   62.2979   30.5689   49.7102 H   0  0  0  0  0  0  0  0  0  0  0  0
   59.5784   32.0155   48.8658 H   0  0  0  0  0  0  0  0  0  0  0  0
   57.4357   31.3735   47.7698 H   0  0  0  0  0  0  0  0  0  0  0  0
   56.1463   28.0194   44.6407 H   0  0  0  0  0  0  0  0  0  0  0  0
  1  2  1  0
  2  3  2  0
  2  4  2  0
  2  5  1  0
  5  6  2  0
  6  7  1  0
  7  8  2  0
  8  9  1  0
  9 10  1  0
 10 11  1  0
 11 12  2  0
 11 13  1  0
 13 14  1  0
 14 15  2  0
 15 16  1  0
 16 17  2  0
 17 18  1  0
 18 19  2  0
 19 20  1  0
 20 21  1  0
 21 22  2  3
 22 23  1  0
 23 24  2  0
 23 25  1  0
 25 26  1  0
 26 27  1  0
 27 28  1  0
 28 29  2  0
 29 30  1  0
 30 31  2  0
 31 32  1  0
 32 33  2  0
 21 34  1  0
 17 35  1  0
 35 36  2  0
  9 37  2  0
 37  5  1  0
 36 14  1  0
 34 18  1  0
 33 28  1  0
  1 38  1  0
  6 39  1  0
  7 40  1  0
  8 41  1  0
 15 42  1  0
 16 43  1  0
 19 44  1  0
 26 45  1  0
 26 46  1  0
 27 47  1  0
 27 48  1  0
 29 49  1  0
 30 50  1  0
 31 51  1  0
 32 52  1  0
 33 53  1  0
 35 54  1  0
 36 55  1  0
 37 56  1  0
M  CHG  5   1  -1  10  -1  13  -1  25  -1  34  -1
M  END
>  <UniqueID>  (15) 
13

>  <SMILES>  (15) 
[NH-]S(=O)(=O)c1cccc([N-]C(=O)[N-]c2ccc(-c3csc(=NC(=O)[N-]CCc4ccccc4)[n-]3)cc2)c1

>  <Energy>  (15) 
89.24097756531525

>  <Genealogy>  (15) 
[NH-]S(=O)(=O)c1cccc([N-]C(=O)[N-]c2ccc(-c3csc(=NC(=O)[N-]CCc4ccccc4)[n-]3)cc2)c1 (protonated)
[NH-]S(=O)(=O)c1cccc([N-]C(=O)[N-]c2ccc(-c3csc(=NC(=O)[N-]CCc4ccccc4)[n-]3)cc2)c1 (3D coordinates assigned)
[NH-]S(=O)(=O)c1cccc([N-]C(=O)[N-]c2ccc(-c3csc(=NC(=O)[N-]CCc4ccccc4)[n-]3)cc2)c1 (optimized conformer: 89.24097756531525 kcal/mol)

>  <smiles>  (15) 
NS(=O)(=O)c1cccc(NC(=O)Nc2ccc(-c3csc(=NC(=O)NCCc4ccccc4)[nH]3)cc2)c1

>  <score_type>  (15) 
oracle

>  <origin>  (15) 
adg

>  <m_score__min__energy>  (15) 
-15.359999999999999

>  <m_primary>  (15) 
energy

$$$$
15:0
     RDKit          3D

 54 56  0  0  1  0  0  0  0  0999 V2000
   59.1530   33.8360   51.6070 C   0  0  0  0  0  0  0  0  0  0  0  0
   59.9400   33.0430   50.9070 C   0  0  0  0  0  0  0  0  0  0  0  0
   59.4710   31.8260   50.2420 C   0  0  0  0  0  0  0  0  0  0  0  0
   58.2520   31.5640   50.3460 O   0  0  0  0  0  0  0  0  0  0  0  0
   60.3240   30.9790   49.5170 N   0  0  0  0  0  0  0  0  0  0  0  0
   59.9860   29.7970   48.8440 C   0  0  0  0  0  0  0  0  0  0  0  0
   60.6140   28.5850   48.9680 C   0  0  0  0  0  0  0  0  0  0  0  0
   60.2180   27.4480   48.2630 C   0  0  0  0  0  0  0  0  0  0  0  0
   59.1580   27.4910   47.3960 C   0  0  0  0  0  0  0  0  0  0  0  0
   58.7070   26.4040   46.6630 O   0  0  0  0  0  0  0  0  0  0  0  0
   58.8590   26.3540   45.2610 C   0  0  0  0  0  0  0  0  0  0  0  0
   58.5090   28.7050   47.2570 C   0  0  0  0  0  0  0  0  0  0  0  0
   57.4070   28.7630   46.3650 N   0  0  0  0  0  0  0  0  0  0  0  0
   57.4410   29.5880   45.3900 C   0  0  0  0  0  0  0  0  0  0  0  0
   56.9680   29.1720   44.2050 N   0  0  0  0  0  0  0  0  0  0  0  0
   56.9410   29.9360   43.0990 C   0  0  0  0  0  0  0  0  0  0  0  0
   57.4200   31.2270   43.1500 C   0  0  0  0  0  0  0  0  0  0  0  0
   57.4270   32.1350   41.9730 C   0  0  0  0  0  0  0  0  0  0  0  0
   57.9090   31.6480   44.3830 C   0  0  0  0  0  0  0  0  0  0  0  0
   58.3660   32.8340   44.4990 N   0  0  0  0  0  0  0  0  0  0  0  0
   59.0890   33.3240   45.6230 C   0  0  0  0  0  0  0  0  0  0  0  0
   58.4950   34.4020   46.2930 C   0  0  0  0  0  0  0  0  0  0  0  0
   59.1380   34.9360   47.3960 C   0  0  0  0  0  0  0  0  0  0  0  0
   60.3450   34.4280   47.8430 C   0  0  0  0  0  0  0  0  0  0  0  0
   60.8780   33.3740   47.1480 C   0  0  0  0  0  0  0  0  0  0  0  0
   62.4210   32.7200   47.7160 S   0  0  0  0  0  0  0  0  0  0  0  0
   63.7100   33.3230   46.7790 N   0  0  0  0  0  0  0  0  0  0  0  0
   62.5250   33.0570   49.1730 O   0  0  0  0  0  0  0  0  0  0  0  0
   62.3720   31.2100   47.5430 O   0  0  0  0  0  0  0  0  0  0  0  0
   60.2890   32.7970   46.0440 C   0  0  0  0  0  0  0  0  0  0  0  0
   57.9120   30.8420   45.4600 N   0  0  0  0  0  0  0  0  0  0  0  0
   58.9040   29.8250   47.9550 C   0  0  0  0  0  0  0  0  0  0  0  0
   59.5645   34.7377   52.0841 H   0  0  0  0  0  0  0  0  0  0  0  0
   58.0849   33.5959   51.7140 H   0  0  0  0  0  0  0  0  0  0  0  0
   61.0035   33.3094   50.8181 H   0  0  0  0  0  0  0  0  0  0  0  0
   61.3400   31.2750   49.4780 H   0  0  0  0  0  0  0  0  0  0  0  0
   61.4695   28.5051   49.6549 H   0  0  0  0  0  0  0  0  0  0  0  0
   60.7644   26.5040   48.4052 H   0  0  0  0  0  0  0  0  0  0  0  0
   59.8773   26.0190   45.0143 H   0  0  0  0  0  0  0  0  0  0  0  0
   58.1285   25.6488   44.8379 H   0  0  0  0  0  0  0  0  0  0  0  0
   58.6897   27.3552   44.8379 H   0  0  0  0  0  0  0  0  0  0  0  0
   56.5810   28.1910   44.0840 H   0  0  0  0  0  0  0  0  0  0  0  0
   56.5386   29.5325   42.1581 H   0  0  0  0  0  0  0  0  0  0  0  0
   57.4351   33.1801   42.3162 H   0  0  0  0  0  0  0  0  0  0  0  0
   58.3237   31.9415   41.3659 H   0  0  0  0  0  0  0  0  0  0  0  0
   56.5274   31.9553   41.3659 H   0  0  0  0  0  0  0  0  0  0  0  0
   57.5358   34.8159   45.9487 H   0  0  0  0  0  0  0  0  0  0  0  0
   58.6798   35.7823   47.9287 H   0  0  0  0  0  0  0  0  0  0  0  0
   60.8556   34.8526   48.7199 H   0  0  0  0  0  0  0  0  0  0  0  0
   64.5420   32.6870   46.8610 H   0  0  0  0  0  0  0  0  0  0  0  0
   63.4430   33.2890   45.7600 H   0  0  0  0  0  0  0  0  0  0  0  0
   60.7581   31.9506   45.5209 H   0  0  0  0  0  0  0  0  0  0  0  0
   58.2860   31.1820   46.3740 H   0  0  0  0  0  0  0  0  0  0  0  0
   58.3547   30.7670   47.8103 H   0  0  0  0  0  0  0  0  0  0  0  0
  1  2  2  0
  2  3  1  0
  3  4  2  0
  3  5  1  0
  5  6  1  0
  6  7  2  0
  7  8  1  0
  8  9  2  0
  9 10  1  0
 10 11  1  0
  9 12  1  0
 12 13  1  0
 13 14  2  0
 14 15  1  0
 15 16  1  0
 16 17  2  0
 17 18  1  0
 17 19  1  0
 19 20  2  0
 20 21  1  0
 21 22  2  0
 22 23  1  0
 23 24  2  0
 24 25  1  0
 25 26  1  0
 26 27  1  0
 26 28  2  0
 26 29  2  0
 25 30  2  0
 19 31  1  0
 12 32  2  0
 32  6  1  0
 31 14  1  0
 30 21  1  0
  1 33  1  0
  1 34  1  0
  2 35  1  0
  5 36  1  0
  7 37  1  0
  8 38  1  0
 11 39  1  0
 11 40  1  0
 11 41  1  0
 15 42  1  0
 16 43  1  0
 18 44  1  0
 18 45  1  0
 18 46  1  0
 22 47  1  0
 23 48  1  0
 24 49  1  0
 27 50  1  0
 27 51  1  0
 30 52  1  0
 31 53  1  0
 32 54  1  0
M  END
>  <smiles>  (16) 
C=CC(=O)Nc1ccc(OC)c(N=c2[nH]cc(C)c(=Nc3cccc(S(N)(=O)=O)c3)[nH]2)c1

>  <score_type>  (16) 
oracle

>  <origin>  (16) 
adg

>  <m_score__min__energy>  (16) 
-9.2899999999999991

>  <m_primary>  (16) 
energy

$$$$
16:0
     RDKit          3D

 59 62  0  0  0  0  0  0  0  0999 V2000
   56.4709   30.8528   42.7826 H   0  0  0  0  0  0  0  0  0  0  0  0
   57.0260   30.9700   43.7250 C   0  0  0  0  0  0  0  0  0  0  0  0
   57.6100   32.1490   43.9760 C   0  0  0  0  0  0  0  0  0  0  0  0
   58.5363   32.3910   43.4343 H   0  0  0  0  0  0  0  0  0  0  0  0
   57.0790   33.1630   44.9520 C   0  0  0  0  0  0  0  0  0  0  0  0
   56.8024   32.6528   45.8864 H   0  0  0  0  0  0  0  0  0  0  0  0
   56.2004   33.6526   44.5065 H   0  0  0  0  0  0  0  0  0  0  0  0
   58.1270   34.2270   45.2560 C   0  0  0  0  0  0  0  0  0  0  0  0
   58.2340   34.3356   46.3454 H   0  0  0  0  0  0  0  0  0  0  0  0
   59.0916   33.9264   44.8210 H   0  0  0  0  0  0  0  0  0  0  0  0
   57.8118   35.1869   44.8210 H   0  0  0  0  0  0  0  0  0  0  0  0
   57.0890   29.8200   44.6480 C   0  0  0  0  0  0  0  0  0  0  0  0
   55.9520   29.0140   44.8100 C   0  0  0  0  0  0  0  0  0  0  0  0
   54.7760   29.3100   44.1280 O   0  0  0  0  0  0  0  0  0  0  0  0
   55.9910   27.9340   45.6260 N   0  0  0  0  0  0  0  0  0  0  0  0
   57.1090   27.5860   46.3090 C   0  0  0  0  0  0  0  0  0  0  0  0
   57.0950   26.5580   47.0350 O   0  0  0  0  0  0  0  0  0  0  0  0
   58.2730   28.3630   46.2030 C   0  0  0  0  0  0  0  0  0  0  0  0
   59.4650   27.9260   46.8720 N   0  0  0  0  0  0  0  0  0  0  0  0
   60.1540   26.7270   46.3830 C   0  0  0  0  0  0  0  0  0  0  0  0
   59.4373   25.8942   46.3296 H   0  0  0  0  0  0  0  0  0  0  0  0
   60.5674   26.9364   45.3854 H   0  0  0  0  0  0  0  0  0  0  0  0
   61.2960   26.3470   47.3200 C   0  0  0  0  0  0  0  0  0  0  0  0
   61.6321   25.3237   47.0968 H   0  0  0  0  0  0  0  0  0  0  0  0
   62.1389   27.0401   47.1815 H   0  0  0  0  0  0  0  0  0  0  0  0
   60.8170   26.4170   48.7020 N   0  0  0  0  0  0  0  0  0  0  0  0
   61.5630   26.0300   49.3270 H   0  0  0  0  0  0  0  0  0  0  0  0
   60.5330   27.8020   49.1230 C   0  0  0  0  0  0  0  0  0  0  0  0
   59.7728   27.7732   49.9175 H   0  0  0  0  0  0  0  0  0  0  0  0
   61.4857   28.2330   49.4644 H   0  0  0  0  0  0  0  0  0  0  0  0
   60.0130   28.7100   47.9850 C   0  0  0  0  0  0  0  0  0  0  0  0
   59.2231   29.3637   48.3834 H   0  0  0  0  0  0  0  0  0  0  0  0
   60.8591   29.3008   47.6042 H   0  0  0  0  0  0  0  0  0  0  0  0
   58.2630   29.5260   45.3920 C   0  0  0  0  0  0  0  0  0  0  0  0
   59.4210   30.4010   45.3290 N   0  0  0  0  0  0  0  0  0  0  0  0
   59.3800   30.9490   44.4400 H   0  0  0  0  0  0  0  0  0  0  0  0
   60.3170   29.8680   45.3020 H   0  0  0  0  0  0  0  0  0  0  0  0
   59.4770   31.2800   46.4750 C   0  0  0  0  0  0  0  0  0  0  0  0
   60.6740   31.9380   46.8120 C   0  0  0  0  0  0  0  0  0  0  0  0
   61.5759   31.7769   46.2033 H   0  0  0  0  0  0  0  0  0  0  0  0
   60.7250   32.7950   47.9150 C   0  0  0  0  0  0  0  0  0  0  0  0
   61.6654   33.3082   48.1645 H   0  0  0  0  0  0  0  0  0  0  0  0
   59.5890   33.0050   48.7040 C   0  0  0  0  0  0  0  0  0  0  0  0
   59.6860   33.8690   49.8050 O   0  0  0  0  0  0  0  0  0  0  0  0
   59.6520   33.4780   51.1530 C   0  0  0  0  0  0  0  0  0  0  0  0
   60.3270   32.3310   51.6150 C   0  0  0  0  0  0  0  0  0  0  0  0
   60.9129   31.7193   50.9132 H   0  0  0  0  0  0  0  0  0  0  0  0
   60.2540   31.9680   52.9640 C   0  0  0  0  0  0  0  0  0  0  0  0
   60.7937   31.0795   53.3236 H   0  0  0  0  0  0  0  0  0  0  0  0
   59.4960   32.7330   53.8560 C   0  0  0  0  0  0  0  0  0  0  0  0
   59.4452   32.4502   54.9178 H   0  0  0  0  0  0  0  0  0  0  0  0
   58.8030   33.8570   53.3980 C   0  0  0  0  0  0  0  0  0  0  0  0
   58.1960   34.4512   54.0970 H   0  0  0  0  0  0  0  0  0  0  0  0
   58.8810   34.2270   52.0500 C   0  0  0  0  0  0  0  0  0  0  0  0
   58.3331   35.1117   51.6934 H   0  0  0  0  0  0  0  0  0  0  0  0
   58.4050   32.3120   48.4030 C   0  0  0  0  0  0  0  0  0  0  0  0
   57.5169   32.4428   49.0387 H   0  0  0  0  0  0  0  0  0  0  0  0
   58.3510   31.4570   47.2990 C   0  0  0  0  0  0  0  0  0  0  0  0
   57.4195   30.9176   47.0724 H   0  0  0  0  0  0  0  0  0  0  0  0
  1  2  1  0
  2  3  2  0
  3  4  1  0
  3  5  1  0
  5  6  1  0
  5  7  1  0
  5  8  1  0
  8  9  1  0
  8 10  1  0
  8 11  1  0
  2 12  1  0
 12 13  2  0
 13 14  1  0
 13 15  1  0
 15 16  1  0
 16 17  2  0
 16 18  1  0
 18 19  1  0
 19 20  1  0
 20 21  1  0
 20 22  1  0
 20 23  1  0
 23 24  1  0
 23 25  1  0
 23 26  1  0
 26 27  1  0
 26 28  1  0
 28 29  1  0
 28 30  1  0
 28 31  1  0
 31 32  1  0
 31 33  1  0
 18 34  2  0
 34 35  1  0
 35 36  1  0
 35 37  1  0
 35 38  1  0
 38 39  2  0
 39 40  1  0
 39 41  1  0
 41 42  1  0
 41 43  2  0
 43 44  1  0
 44 45  1  0
 45 46  2  0
 46 47  1  0
 46 48  1  0
 48 49  1  0
 48 50  2  0
 50 51  1  0
 50 52  1  0
 52 53  1  0
 52 54  2  0
 54 55  1  0
 43 56  1  0
 56 57  1  0
 56 58  2  0
 58 59  1  0
 34 12  1  0
 58 38  1  0
 31 19  1  0
 54 45  1  0
M  CHG  3  14  -1  15  -1  35   1
M  END
>  <UniqueID>  (17) 
14

>  <SMILES>  (17) 
CC/C=C\c1c([O-])[n-]c(=O)c(N2CCNCC2)c1[NH2+]c1ccc(Oc2ccccc2)cc1

>  <Energy>  (17) 
87.52908429867307

>  <Genealogy>  (17) 
CCC=Cc1c([O-])[n-]c(=O)c(N2CCNCC2)c1[NH2+]c1ccc(Oc2ccccc2)cc1 (protonated)
CC/C=C\c1c([O-])[n-]c(=O)c(N2CCNCC2)c1[NH2+]c1ccc(Oc2ccccc2)cc1 (cis-trans isomerization)
CC/C=C\c1c([O-])[n-]c(=O)c(N2CCNCC2)c1[NH2+]c1ccc(Oc2ccccc2)cc1 (3D coordinates assigned)
CC/C=C\c1c([O-])[n-]c(=O)c(N2CCNCC2)c1[NH2+]c1ccc(Oc2ccccc2)cc1 (nonaromatic ring conformer: 87.52908429867307 kcal/mol)

>  <smiles>  (17) 
CCC=Cc1c(O)[nH]c(=O)c(N2CCNCC2)c1Nc1ccc(Oc2ccccc2)cc1

>  <score_type>  (17) 
oracle

>  <origin>  (17) 
adg

>  <m_score__min__energy>  (17) 
-11.33

>  <m_primary>  (17) 
energy

$$$$
17:0
     RDKit          3D

 34 36  0  0  0  0  0  0  0  0999 V2000
   58.3768   32.8374   42.5694 H   0  0  0  0  0  0  0  0  0  0  0  0
   57.8480   32.0210   43.0830 C   0  0  0  0  0  0  0  0  0  0  0  0
   56.9770   31.1940   42.3690 C   0  0  0  0  0  0  0  0  0  0  0  0
   56.8129   31.3659   41.2950 H   0  0  0  0  0  0  0  0  0  0  0  0
   56.3130   30.1470   43.0190 C   0  0  0  0  0  0  0  0  0  0  0  0
   55.6158   29.5088   42.4562 H   0  0  0  0  0  0  0  0  0  0  0  0
   56.5310   29.9070   44.3820 C   0  0  0  0  0  0  0  0  0  0  0  0
   55.8090   28.8380   45.0170 N   0  0  0  0  0  0  0  0  0  0  0  0
   56.3160   27.8010   45.6180 C   0  0  0  0  0  0  0  0  0  0  0  0
   57.6220   27.7790   46.0050 N   0  0  0  0  0  0  0  0  0  0  0  0
   58.1660   26.6900   46.6120 C   0  0  0  0  0  0  0  0  0  0  0  0
   59.5570   26.6980   46.9790 N   0  0  0  0  0  0  0  0  0  0  0  0
   59.7300   25.9450   47.6860 H   0  0  0  0  0  0  0  0  0  0  0  0
   60.1580   26.4880   46.1480 H   0  0  0  0  0  0  0  0  0  0  0  0
   59.8950   27.9840   47.5330 C   0  0  0  0  0  0  0  0  0  0  0  0
   60.1880   29.0690   46.6860 C   0  0  0  0  0  0  0  0  0  0  0  0
   60.1312   28.9425   45.5948 H   0  0  0  0  0  0  0  0  0  0  0  0
   60.5510   30.3070   47.2250 C   0  0  0  0  0  0  0  0  0  0  0  0
   60.8290   31.3490   46.4030 F   0  0  0  0  0  0  0  0  0  0  0  0
   60.6310   30.4710   48.6110 C   0  0  0  0  0  0  0  0  0  0  0  0
   60.9129   31.4466   49.0337 H   0  0  0  0  0  0  0  0  0  0  0  0
   60.3530   29.3960   49.4600 C   0  0  0  0  0  0  0  0  0  0  0  0
   60.4400   29.5550   50.8040 F   0  0  0  0  0  0  0  0  0  0  0  0
   59.9910   28.1550   48.9250 C   0  0  0  0  0  0  0  0  0  0  0  0
   59.7806   27.3095   49.5965 H   0  0  0  0  0  0  0  0  0  0  0  0
   57.3740   25.5520   46.8180 C   0  0  0  0  0  0  0  0  0  0  0  0
   57.7935   24.6525   47.2923 H   0  0  0  0  0  0  0  0  0  0  0  0
   56.0400   25.5870   46.4070 C   0  0  0  0  0  0  0  0  0  0  0  0
   55.3000   24.5840   46.5790 O   0  0  0  0  0  0  0  0  0  0  0  0
   55.5410   26.7030   45.8170 N   0  0  0  0  0  0  0  0  0  0  0  0
   57.3850   30.7650   45.1030 C   0  0  0  0  0  0  0  0  0  0  0  0
   57.5314   30.6123   46.1825 H   0  0  0  0  0  0  0  0  0  0  0  0
   58.0470   31.8100   44.4510 C   0  0  0  0  0  0  0  0  0  0  0  0
   58.7253   32.4671   45.0150 H   0  0  0  0  0  0  0  0  0  0  0  0
  1  2  1  0
  2  3  2  0
  3  4  1  0
  3  5  1  0
  5  6  1  0
  5  7  2  0
  7  8  1  0
  8  9  2  0
  9 10  1  0
 10 11  1  0
 11 12  1  0
 12 13  1  0
 12 14  1  0
 12 15  1  0
 15 16  2  0
 16 17  1  0
 16 18  1  0
 18 19  1  0
 18 20  2  0
 20 21  1  0
 20 22  1  0
 22 23  1  0
 22 24  2  0
 24 25  1  0
 11 26  2  0
 26 27  1  0
 26 28  1  0
 28 29  2  0
 28 30  1  0
  7 31  1  0
 31 32  1  0
 31 33  2  0
 33 34  1  0
 33  2  1  0
 30  9  1  0
 24 15  1  0
M  CHG  3  10  -1  12   1  30  -1
M  END
>  <UniqueID>  (18) 
15

>  <SMILES>  (18) 
O=c1cc([NH2+]c2cc(F)cc(F)c2)[n-]/c(=N\c2ccccc2)[n-]1

>  <Energy>  (18) 
45.26056941000745

>  <Genealogy>  (18) 
O=c1cc([NH2+]c2cc(F)cc(F)c2)[n-]c(=Nc2ccccc2)[n-]1 (protonated)
O=c1cc([NH2+]c2cc(F)cc(F)c2)[n-]/c(=N\c2ccccc2)[n-]1 (cis-trans isomerization)
O=c1cc([NH2+]c2cc(F)cc(F)c2)[n-]/c(=N\c2ccccc2)[n-]1 (3D coordinates assigned)
O=c1cc([NH2+]c2cc(F)cc(F)c2)[n-]/c(=N\c2ccccc2)[n-]1 (optimized conformer: 45.26056941000745 kcal/mol)

>  <smiles>  (18) 
O=c1cc(Nc2cc(F)cc(F)c2)[nH]c(=Nc2ccccc2)[nH]1

>  <score_type>  (18) 
oracle

>  <origin>  (18) 
adg

>  <m_score__min__energy>  (18) 
-8.7699999999999996

>  <m_primary>  (18) 
energy

$$$$
18:0
     RDKit          3D

 48 50  0  0  0  0  0  0  0  0999 V2000
   64.0257   34.7090   46.2555 H   0  0  0  0  0  0  0  0  0  0  0  0
   63.3700   33.8670   46.5220 C   0  0  0  0  0  0  0  0  0  0  0  0
   62.4177   33.7220   45.9909 H   0  0  0  0  0  0  0  0  0  0  0  0
   63.7300   33.0210   47.4900 C   0  0  0  0  0  0  0  0  0  0  0  0
   64.6841   33.1735   48.0158 H   0  0  0  0  0  0  0  0  0  0  0  0
   62.8530   31.8660   47.8710 C   0  0  0  0  0  0  0  0  0  0  0  0
   63.3915   30.9234   47.6938 H   0  0  0  0  0  0  0  0  0  0  0  0
   62.5881   31.9441   48.9358 H   0  0  0  0  0  0  0  0  0  0  0  0
   61.6350   31.8890   47.0650 N   0  0  0  0  0  0  0  0  0  0  0  0
   60.7300   30.9500   47.0110 C   0  0  0  0  0  0  0  0  0  0  0  0
   59.7240   30.9030   47.9970 C   0  0  0  0  0  0  0  0  0  0  0  0
   59.7010   31.7880   48.9540 N   0  0  0  0  0  0  0  0  0  0  0  0
   59.5960   33.2330   48.7550 C   0  0  0  0  0  0  0  0  0  0  0  0
   58.9575   33.6609   49.5419 H   0  0  0  0  0  0  0  0  0  0  0  0
   60.6036   33.6718   48.8024 H   0  0  0  0  0  0  0  0  0  0  0  0
   58.9950   33.5400   47.4080 C   0  0  0  0  0  0  0  0  0  0  0  0
   57.6920   33.1180   47.0940 C   0  0  0  0  0  0  0  0  0  0  0  0
   57.1108   32.5400   47.8276 H   0  0  0  0  0  0  0  0  0  0  0  0
   57.1320   33.4310   45.8510 C   0  0  0  0  0  0  0  0  0  0  0  0
   56.1117   33.0986   45.6092 H   0  0  0  0  0  0  0  0  0  0  0  0
   57.8660   34.1650   44.9160 C   0  0  0  0  0  0  0  0  0  0  0  0
   57.4242   34.4091   43.9387 H   0  0  0  0  0  0  0  0  0  0  0  0
   59.1620   34.5890   45.2230 C   0  0  0  0  0  0  0  0  0  0  0  0
   59.7398   35.1666   44.4865 H   0  0  0  0  0  0  0  0  0  0  0  0
   59.7250   34.2800   46.4650 C   0  0  0  0  0  0  0  0  0  0  0  0
   60.7441   34.6182   46.7039 H   0  0  0  0  0  0  0  0  0  0  0  0
   58.7810   29.9240   47.9390 N   0  0  0  0  0  0  0  0  0  0  0  0
   58.7860   28.9850   46.9620 C   0  0  0  0  0  0  0  0  0  0  0  0
   57.8070   27.9880   46.9360 C   0  0  0  0  0  0  0  0  0  0  0  0
   57.0260   27.9640   47.7102 H   0  0  0  0  0  0  0  0  0  0  0  0
   57.8200   27.0180   45.9230 C   0  0  0  0  0  0  0  0  0  0  0  0
   56.5770   25.7710   45.8700 S   0  0  0  0  0  0  0  0  0  0  0  0
   55.2240   26.4120   45.9950 O   0  0  0  0  0  0  0  0  0  0  0  0
   56.6390   25.0400   44.5580 O   0  0  0  0  0  0  0  0  0  0  0  0
   56.8100   24.6180   47.2130 C   0  0  0  0  0  0  0  0  0  0  0  0
   57.8237   24.7425   47.6216 H   0  0  0  0  0  0  0  0  0  0  0  0
   56.0539   24.8236   47.9850 H   0  0  0  0  0  0  0  0  0  0  0  0
   56.6380   23.1800   46.7380 C   0  0  0  0  0  0  0  0  0  0  0  0
   56.5582   22.5131   47.6092 H   0  0  0  0  0  0  0  0  0  0  0  0
   55.7240   23.1012   46.1310 H   0  0  0  0  0  0  0  0  0  0  0  0
   57.5076   22.8879   46.1310 H   0  0  0  0  0  0  0  0  0  0  0  0
   58.8110   27.0600   44.9330 C   0  0  0  0  0  0  0  0  0  0  0  0
   58.8171   26.3053   44.1327 H   0  0  0  0  0  0  0  0  0  0  0  0
   59.7930   28.0570   44.9570 C   0  0  0  0  0  0  0  0  0  0  0  0
   60.5699   28.0822   44.1787 H   0  0  0  0  0  0  0  0  0  0  0  0
   59.7870   29.0240   45.9730 C   0  0  0  0  0  0  0  0  0  0  0  0
   60.7340   30.0040   46.0180 N   0  0  0  0  0  0  0  0  0  0  0  0
   61.4690   30.0160   45.2750 H   0  0  0  0  0  0  0  0  0  0  0  0
  1  2  1  0
  2  3  1  0
  2  4  2  0
  4  5  1  0
  4  6  1  0
  6  7  1  0
  6  8  1  0
  6  9  1  0
  9 10  2  0
 10 11  1  0
 11 12  2  0
 12 13  1  0
 13 14  1  0
 13 15  1  0
 13 16  1  0
 16 17  2  0
 17 18  1  0
 17 19  1  0
 19 20  1  0
 19 21  2  0
 21 22  1  0
 21 23  1  0
 23 24  1  0
 23 25  2  0
 25 26  1  0
 11 27  1  0
 27 28  1  0
 28 29  2  0
 29 30  1  0
 29 31  1  0
 31 32  1  0
 32 33  2  0
 32 34  2  0
 32 35  1  0
 35 36  1  0
 35 37  1  0
 35 38  1  0
 38 39  1  0
 38 40  1  0
 38 41  1  0
 31 42  2  0
 42 43  1  0
 42 44  1  0
 44 45  1  0
 44 46  2  0
 46 47  1  0
 47 48  1  0
 47 10  1  0
 25 16  1  0
 46 28  1  0
M  CHG  1  27  -1
M  END
>  <UniqueID>  (19) 
16

>  <SMILES>  (19) 
C=CC/N=c1\[nH]c2ccc(S(=O)(=O)CC)cc2[n-]c1=NCc1ccccc1

>  <Energy>  (19) 
45.20076660173839

>  <Genealogy>  (19) 
C=CCN=c1[nH]c2ccc(S(=O)(=O)CC)cc2[n-]c1=NCc1ccccc1 (protonated)
C=CC/N=c1\[nH]c2ccc(S(=O)(=O)CC)cc2[n-]c1=NCc1ccccc1 (cis-trans isomerization)
C=CC/N=c1\[nH]c2ccc(S(=O)(=O)CC)cc2[n-]c1=NCc1ccccc1 (3D coordinates assigned)
C=CC/N=c1\[nH]c2ccc(S(=O)(=O)CC)cc2[n-]c1=NCc1ccccc1 (optimized conformer: 45.20076660173839 kcal/mol)

>  <smiles>  (19) 
C=CCN=c1[nH]c2ccc(S(=O)(=O)CC)cc2[nH]c1=NCc1ccccc1

>  <score_type>  (19) 
oracle

>  <origin>  (19) 
adg

>  <m_score__min__energy>  (19) 
-9.4000000000000004

>  <m_primary>  (19) 
energy

$$$$
19:0
     RDKit          3D

 43 44  0  0  0  0  0  0  0  0999 V2000
   59.7060   33.8310   50.5250 C   0  0  0  0  0  0  0  0  0  0  0  0
   60.4430   33.8880   49.2570 N   0  0  0  0  0  0  0  0  0  0  0  0
   61.8590   34.2760   49.2560 C   0  0  0  0  0  0  0  0  0  0  0  0
   59.7530   33.5580   48.0280 C   0  0  0  0  0  0  0  0  0  0  0  0
   58.5410   32.8410   48.0260 C   0  0  0  0  0  0  0  0  0  0  0  0
   57.9140   32.5440   46.8140 C   0  0  0  0  0  0  0  0  0  0  0  0
   58.4860   32.9610   45.6060 C   0  0  0  0  0  0  0  0  0  0  0  0
   57.8400   32.6300   44.2880 C   0  0  0  0  0  0  0  0  0  0  0  0
   56.6630   31.7950   44.4960 N   0  0  0  0  0  0  0  0  0  0  0  0
   56.7250   30.4150   44.8690 C   0  0  0  0  0  0  0  0  0  0  0  0
   55.6770   29.7130   44.8750 O   0  0  0  0  0  0  0  0  0  0  0  0
   57.9820   29.8540   45.2760 N   0  0  0  0  0  0  0  0  0  0  0  0
   58.2050   28.4550   45.5180 C   0  0  0  0  0  0  0  0  0  0  0  0
   59.4960   27.9460   45.7450 C   0  0  0  0  0  0  0  0  0  0  0  0
   59.6830   26.5830   45.9930 C   0  0  0  0  0  0  0  0  0  0  0  0
   58.5860   25.7210   46.0350 C   0  0  0  0  0  0  0  0  0  0  0  0
   57.2910   26.2200   45.8420 C   0  0  0  0  0  0  0  0  0  0  0  0
   55.9050   25.1350   45.8940 S   0  0  0  0  0  0  0  0  0  0  0  0
   56.0330   23.9500   44.5750 C   0  0  0  0  0  0  0  0  0  0  0  0
   55.8670   24.4170   47.2140 O   0  0  0  0  0  0  0  0  0  0  0  0
   54.6360   25.9270   45.7390 O   0  0  0  0  0  0  0  0  0  0  0  0
   57.1060   27.5850   45.5850 C   0  0  0  0  0  0  0  0  0  0  0  0
   59.6950   33.6670   45.6430 C   0  0  0  0  0  0  0  0  0  0  0  0
   60.2880   33.9450   46.8340 N   0  0  0  0  0  0  0  0  0  0  0  0
   60.4152   33.8858   51.3641 H   0  0  0  0  0  0  0  0  0  0  0  0
   59.0060   34.6777   50.5806 H   0  0  0  0  0  0  0  0  0  0  0  0
   59.1445   32.8867   50.5806 H   0  0  0  0  0  0  0  0  0  0  0  0
   62.2133   34.3731   50.2928 H   0  0  0  0  0  0  0  0  0  0  0  0
   62.4496   33.5066   48.7372 H   0  0  0  0  0  0  0  0  0  0  0  0
   61.9749   35.2390   48.7372 H   0  0  0  0  0  0  0  0  0  0  0  0
   58.0900   32.5162   48.9752 H   0  0  0  0  0  0  0  0  0  0  0  0
   56.9688   31.9813   46.8084 H   0  0  0  0  0  0  0  0  0  0  0  0
   57.5395   33.5621   43.7871 H   0  0  0  0  0  0  0  0  0  0  0  0
   58.5613   32.0820   43.6640 H   0  0  0  0  0  0  0  0  0  0  0  0
   58.7530   30.5230   45.5000 H   0  0  0  0  0  0  0  0  0  0  0  0
   60.3626   28.6233   45.7274 H   0  0  0  0  0  0  0  0  0  0  0  0
   60.6971   26.1889   46.1554 H   0  0  0  0  0  0  0  0  0  0  0  0
   58.7385   24.6474   46.2200 H   0  0  0  0  0  0  0  0  0  0  0  0
   56.1420   22.9406   44.9983 H   0  0  0  0  0  0  0  0  0  0  0  0
   55.1251   23.9916   43.9553 H   0  0  0  0  0  0  0  0  0  0  0  0
   56.9110   24.1846   43.9553 H   0  0  0  0  0  0  0  0  0  0  0  0
   56.0898   27.9782   45.4344 H   0  0  0  0  0  0  0  0  0  0  0  0
   60.1660   33.9975   44.7055 H   0  0  0  0  0  0  0  0  0  0  0  0
  1  2  1  0
  2  3  1  0
  2  4  1  0
  4  5  2  0
  5  6  1  0
  6  7  2  0
  7  8  1  0
  8  9  1  0
  9 10  1  0
 10 11  2  0
 10 12  1  0
 12 13  1  0
 13 14  2  0
 14 15  1  0
 15 16  2  0
 16 17  1  0
 17 18  1  0
 18 19  1  0
 18 20  2  0
 18 21  2  0
 17 22  2  0
  7 23  1  0
 23 24  2  0
 24  4  1  0
 22 13  1  0
  1 25  1  0
  1 26  1  0
  1 27  1  0
  3 28  1  0
  3 29  1  0
  3 30  1  0
  5 31  1  0
  6 32  1  0
  8 33  1  0
  8 34  1  0
 12 35  1  0
 14 36  1  0
 15 37  1  0
 16 38  1  0
 19 39  1  0
 19 40  1  0
 19 41  1  0
 22 42  1  0
 23 43  1  0
M  CHG  1   9  -1
M  END
>  <UniqueID>  (20) 
17

>  <SMILES>  (20) 
CN(C)c1ccc(C[N-]C(=O)Nc2cccc(S(C)(=O)=O)c2)cn1

>  <Energy>  (20) 
40.704242954727924

>  <Genealogy>  (20) 
CN(C)c1ccc(C[N-]C(=O)Nc2cccc(S(C)(=O)=O)c2)cn1 (protonated)
CN(C)c1ccc(C[N-]C(=O)Nc2cccc(S(C)(=O)=O)c2)cn1 (3D coordinates assigned)
CN(C)c1ccc(C[N-]C(=O)Nc2cccc(S(C)(=O)=O)c2)cn1 (optimized conformer: 40.704242954727924 kcal/mol)

>  <smiles>  (20) 
CN(C)c1ccc(CNC(=O)Nc2cccc(S(C)(=O)=O)c2)cn1

>  <score_type>  (20) 
oracle

>  <origin>  (20) 
adg

>  <m_score__min__energy>  (20) 
-9.8499999999999996

>  <m_primary>  (20) 
energy

$$$$
20:0
     RDKit          3D

 44 48  0  0  0  0  0  0  0  0999 V2000
   53.1034   32.0923   53.0686 H   0  0  0  0  0  0  0  0  0  0  0  0
   53.2480   31.3360   52.2830 C   0  0  0  0  0  0  0  0  0  0  0  0
   52.3700   31.3880   51.1020 C   0  0  0  0  0  0  0  0  0  0  0  0
   52.3490   30.4330   50.1570 N   0  0  0  0  0  0  0  0  0  0  0  0
   51.3610   30.8340   49.3270 C   0  0  0  0  0  0  0  0  0  0  0  0
   51.0430   30.1920   48.2930 O   0  0  0  0  0  0  0  0  0  0  0  0
   50.7340   31.9690   49.6990 N   0  0  0  0  0  0  0  0  0  0  0  0
   51.3750   32.3030   50.8310 C   0  0  0  0  0  0  0  0  0  0  0  0
   51.0210   33.3880   51.6220 O   0  0  0  0  0  0  0  0  0  0  0  0
   54.2130   30.4220   52.4580 C   0  0  0  0  0  0  0  0  0  0  0  0
   54.1040   29.0720   52.7780 C   0  0  0  0  0  0  0  0  0  0  0  0
   53.1611   28.5297   52.9422 H   0  0  0  0  0  0  0  0  0  0  0  0
   55.3420   28.5330   52.8550 N   0  0  0  0  0  0  0  0  0  0  0  0
   55.5190   27.5330   53.0670 H   0  0  0  0  0  0  0  0  0  0  0  0
   56.2340   29.4860   52.6060 N   0  0  0  0  0  0  0  0  0  0  0  0
   57.6050   29.4450   52.5270 C   0  0  0  0  0  0  0  0  0  0  0  0
   58.3280   28.3830   52.7490 N   0  0  0  0  0  0  0  0  0  0  0  0
   58.7220   27.7810   54.0150 C   0  0  0  0  0  0  0  0  0  0  0  0
   59.7643   27.5448   53.7547 H   0  0  0  0  0  0  0  0  0  0  0  0
   58.0450   28.3860   55.2330 C   0  0  0  0  0  0  0  0  0  0  0  0
   58.5749   28.4205   56.1963 H   0  0  0  0  0  0  0  0  0  0  0  0
   57.5705   29.3523   55.4593 H   0  0  0  0  0  0  0  0  0  0  0  0
   57.5630   27.0570   54.6790 C   0  0  0  0  0  0  0  0  0  0  0  0
   57.7438   26.1288   55.2410 H   0  0  0  0  0  0  0  0  0  0  0  0
   56.5948   26.6618   54.3377 H   0  0  0  0  0  0  0  0  0  0  0  0
   58.2530   30.5950   52.1890 N   0  0  0  0  0  0  0  0  0  0  0  0
   57.5680   31.7490   51.9520 C   0  0  0  0  0  0  0  0  0  0  0  0
   58.4430   33.2230   51.4380 S   0  0  0  0  0  0  0  0  0  0  0  0
   59.3590   32.3920   50.0890 C   0  0  0  0  0  0  0  0  0  0  0  0
   60.4294   32.3712   50.3418 H   0  0  0  0  0  0  0  0  0  0  0  0
   58.9666   31.3702   49.9793 H   0  0  0  0  0  0  0  0  0  0  0  0
   59.1770   33.1160   48.7810 C   0  0  0  0  0  0  0  0  0  0  0  0
   59.9670   34.2370   48.4780 C   0  0  0  0  0  0  0  0  0  0  0  0
   60.7598   34.5527   49.1721 H   0  0  0  0  0  0  0  0  0  0  0  0
   59.7490   34.9530   47.2970 C   0  0  0  0  0  0  0  0  0  0  0  0
   60.3722   35.8289   47.0635 H   0  0  0  0  0  0  0  0  0  0  0  0
   58.7420   34.5590   46.4130 C   0  0  0  0  0  0  0  0  0  0  0  0
   58.5696   35.1273   45.4871 H   0  0  0  0  0  0  0  0  0  0  0  0
   57.9530   33.4420   46.7050 C   0  0  0  0  0  0  0  0  0  0  0  0
   57.1605   33.1314   46.0083 H   0  0  0  0  0  0  0  0  0  0  0  0
   58.1710   32.7200   47.8820 C   0  0  0  0  0  0  0  0  0  0  0  0
   57.5528   31.8381   48.1059 H   0  0  0  0  0  0  0  0  0  0  0  0
   56.2130   31.7760   52.0530 N   0  0  0  0  0  0  0  0  0  0  0  0
   55.5730   30.6300   52.3760 C   0  0  0  0  0  0  0  0  0  0  0  0
  1  2  1  0
  2  3  1  0
  3  4  1  0
  4  5  1  0
  5  6  2  0
  5  7  1  0
  7  8  1  0
  8  9  1  0
  2 10  2  0
 10 11  1  0
 11 12  1  0
 11 13  2  0
 13 14  1  0
 13 15  1  0
 15 16  1  0
 16 17  2  3
 17 18  1  0
 18 19  1  0
 18 20  1  0
 20 21  1  0
 20 22  1  0
 20 23  1  0
 23 24  1  0
 23 25  1  0
 16 26  1  0
 26 27  2  0
 27 28  1  0
 28 29  1  0
 29 30  1  0
 29 31  1  0
 29 32  1  0
 32 33  2  0
 33 34  1  0
 33 35  1  0
 35 36  1  0
 35 37  2  0
 37 38  1  0
 37 39  1  0
 39 40  1  0
 39 41  2  0
 41 42  1  0
 27 43  1  0
 43 44  2  0
  8  3  2  0
 44 10  1  0
 44 15  1  0
 23 18  1  0
 41 32  1  0
M  CHG  4   4  -1   7  -1   9  -1  13   1
M  END
>  <UniqueID>  (21) 
18

>  <SMILES>  (21) 
O=c1[n-]c([O-])c(/C=c2\c[nH+]n3c(=NC4CC4)nc(SCc4ccccc4)nc23)[n-]1

>  <Energy>  (21) 
389.5271891722551

>  <Genealogy>  (21) 
O=c1[n-]c([O-])c(C=c2c[nH+]n3c(=NC4CC4)nc(SCc4ccccc4)nc23)[n-]1 (protonated)
O=c1[n-]c([O-])c(/C=c2\c[nH+]n3c(=NC4CC4)nc(SCc4ccccc4)nc23)[n-]1 (cis-trans isomerization)
O=c1[n-]c([O-])c(/C=c2\c[nH+]n3c(=NC4CC4)nc(SCc4ccccc4)nc23)[n-]1 (3D coordinates assigned)
O=c1[n-]c([O-])c(/C=c2\c[nH+]n3c(=NC4CC4)nc(SCc4ccccc4)nc23)[n-]1 (nonaromatic ring conformer: 389.5271891722551 kcal/mol)

>  <smiles>  (21) 
O=c1[nH]c(O)c(C=c2cnn3c(=NC4CC4)nc(SCc4ccccc4)nc23)[nH]1

>  <score_type>  (21) 
oracle

>  <origin>  (21) 
adg

>  <m_score__min__energy>  (21) 
-16.050000000000001

>  <m_primary>  (21) 
energy

$$$$
21:0
     RDKit          3D

 66 70  0  0  0  0  0  0  0  0999 V2000
   56.4660   23.5440   48.0030 C   0  0  0  0  0  0  0  0  0  0  0  0
   56.9160   24.7540   47.3150 N   0  0  0  0  0  0  0  0  0  0  0  0
   58.1500   25.2850   47.4210 C   0  0  0  0  0  0  0  0  0  0  0  0
   58.2780   26.3270   46.5170 C   0  0  0  0  0  0  0  0  0  0  0  0
   59.4970   26.9570   46.1130 N   0  0  0  0  0  0  0  0  0  0  0  0
   59.7000   28.3720   46.0440 C   0  0  0  0  0  0  0  0  0  0  0  0
   60.7350   28.8620   46.5640 O   0  0  0  0  0  0  0  0  0  0  0  0
   58.7420   29.2510   45.3520 C   0  0  0  0  0  0  0  0  0  0  0  0
   58.3650   30.5040   45.8030 C   0  0  0  0  0  0  0  0  0  0  0  0
   57.4190   30.9460   44.8950 C   0  0  0  0  0  0  0  0  0  0  0  0
   56.7270   32.2050   44.8780 N   0  0  0  0  0  0  0  0  0  0  0  0
   57.2560   33.4880   45.2390 C   0  0  0  0  0  0  0  0  0  0  0  0
   56.7140   34.5460   44.8150 O   0  0  0  0  0  0  0  0  0  0  0  0
   58.4270   33.5760   46.1410 C   0  0  0  0  0  0  0  0  0  0  0  0
   58.2560   33.4930   47.5510 C   0  0  0  0  0  0  0  0  0  0  0  0
   59.3640   33.5380   48.4170 C   0  0  0  0  0  0  0  0  0  0  0  0
   60.6280   33.6780   47.8520 C   0  0  0  0  0  0  0  0  0  0  0  0
   61.8750   33.7070   48.4330 C   0  0  0  0  0  0  0  0  0  0  0  0
   62.7710   33.8270   47.3730 C   0  0  0  0  0  0  0  0  0  0  0  0
   62.1110   33.8710   46.1920 N   0  0  0  0  0  0  0  0  0  0  0  0
   60.8070   33.7700   46.4970 C   0  0  0  0  0  0  0  0  0  0  0  0
   59.7320   33.7240   45.6110 C   0  0  0  0  0  0  0  0  0  0  0  0
   57.2530   29.9620   43.9440 C   0  0  0  0  0  0  0  0  0  0  0  0
   58.0680   28.9310   44.2210 N   0  0  0  0  0  0  0  0  0  0  0  0
   58.2460   27.7480   43.3830 C   0  0  0  0  0  0  0  0  0  0  0  0
   57.0870   26.4350   45.8340 C   0  0  0  0  0  0  0  0  0  0  0  0
   56.2590   25.4490   46.3530 C   0  0  0  0  0  0  0  0  0  0  0  0
   54.9560   25.0810   45.7670 C   0  0  0  0  0  0  0  0  0  0  0  0
   54.0430   25.9380   45.6340 O   0  0  0  0  0  0  0  0  0  0  0  0
   54.7460   23.7370   45.3210 N   0  0  0  0  0  0  0  0  0  0  0  0
   54.7780   23.3450   43.9130 C   0  0  0  0  0  0  0  0  0  0  0  0
   56.1180   23.7480   43.2780 C   0  0  0  0  0  0  0  0  0  0  0  0
   57.1880   22.7850   43.6130 N   0  0  0  0  0  0  0  0  0  0  0  0
   56.6550   21.5090   44.1550 C   0  0  0  0  0  0  0  0  0  0  0  0
   56.9500   21.3380   45.6590 C   0  0  0  0  0  0  0  0  0  0  0  0
   58.3340   21.3990   45.9680 O   0  0  0  0  0  0  0  0  0  0  0  0
   59.0540   22.3510   45.1930 C   0  0  0  0  0  0  0  0  0  0  0  0
   58.1760   23.4160   44.5160 C   0  0  0  0  0  0  0  0  0  0  0  0
   56.5232   23.6979   49.0907 H   0  0  0  0  0  0  0  0  0  0  0  0
   55.4264   23.3252   47.7178 H   0  0  0  0  0  0  0  0  0  0  0  0
   57.1100   22.6991   47.7178 H   0  0  0  0  0  0  0  0  0  0  0  0
   58.9322   24.9448   48.1156 H   0  0  0  0  0  0  0  0  0  0  0  0
   58.7373   31.0343   46.6919 H   0  0  0  0  0  0  0  0  0  0  0  0
   57.2438   33.3923   47.9698 H   0  0  0  0  0  0  0  0  0  0  0  0
   59.2351   33.4648   49.5070 H   0  0  0  0  0  0  0  0  0  0  0  0
   62.1134   33.6480   49.5052 H   0  0  0  0  0  0  0  0  0  0  0  0
   63.8645   33.8789   47.4809 H   0  0  0  0  0  0  0  0  0  0  0  0
   62.5340   33.9440   45.2390 H   0  0  0  0  0  0  0  0  0  0  0  0
   59.8934   33.8008   44.5256 H   0  0  0  0  0  0  0  0  0  0  0  0
   56.5606   30.0132   43.0908 H   0  0  0  0  0  0  0  0  0  0  0  0
   58.3792   26.8626   44.0221 H   0  0  0  0  0  0  0  0  0  0  0  0
   57.3583   27.6116   42.7479 H   0  0  0  0  0  0  0  0  0  0  0  0
   59.1346   27.8788   42.7479 H   0  0  0  0  0  0  0  0  0  0  0  0
   56.8419   27.1553   45.0396 H   0  0  0  0  0  0  0  0  0  0  0  0
   54.6536   22.2547   43.8369 H   0  0  0  0  0  0  0  0  0  0  0  0
   53.9618   23.8553   43.3807 H   0  0  0  0  0  0  0  0  0  0  0  0
   55.9990   23.7841   42.1850 H   0  0  0  0  0  0  0  0  0  0  0  0
   56.4046   24.7335   43.6736 H   0  0  0  0  0  0  0  0  0  0  0  0
   55.5655   21.4895   44.0046 H   0  0  0  0  0  0  0  0  0  0  0  0
   57.1515   20.6854   43.6210 H   0  0  0  0  0  0  0  0  0  0  0  0
   56.4333   22.1378   46.2097 H   0  0  0  0  0  0  0  0  0  0  0  0
   56.5938   20.3389   45.9503 H   0  0  0  0  0  0  0  0  0  0  0  0
   59.7676   22.8638   45.8547 H   0  0  0  0  0  0  0  0  0  0  0  0
   59.5448   21.7896   44.3843 H   0  0  0  0  0  0  0  0  0  0  0  0
   57.6435   23.9893   45.2892 H   0  0  0  0  0  0  0  0  0  0  0  0
   58.8215   24.0809   43.9234 H   0  0  0  0  0  0  0  0  0  0  0  0
  1  2  1  0
  2  3  1  0
  3  4  2  0
  4  5  1  0
  5  6  1  0
  6  7  2  0
  6  8  1  0
  8  9  2  0
  9 10  1  0
 10 11  1  0
 11 12  1  0
 12 13  2  0
 12 14  1  0
 14 15  2  0
 15 16  1  0
 16 17  2  0
 17 18  1  0
 18 19  2  0
 19 20  1  0
 20 21  1  0
 21 22  2  0
 10 23  2  0
 23 24  1  0
 24 25  1  0
  4 26  1  0
 26 27  2  0
 27 28  1  0
 28 29  2  0
 28 30  1  0
 30 31  1  0
 31 32  1  0
 32 33  1  0
 33 34  1  0
 34 35  1  0
 35 36  1  0
 36 37  1  0
 37 38  1  0
 27  2  1  0
 38 33  1  0
 24  8  1  0
 22 14  1  0
 21 17  1  0
  1 39  1  0
  1 40  1  0
  1 41  1  0
  3 42  1  0
  9 43  1  0
 15 44  1  0
 16 45  1  0
 18 46  1  0
 19 47  1  0
 20 48  1  0
 22 49  1  0
 23 50  1  0
 25 51  1  0
 25 52  1  0
 25 53  1  0
 26 54  1  0
 31 55  1  0
 31 56  1  0
 32 57  1  0
 32 58  1  0
 34 59  1  0
 34 60  1  0
 35 61  1  0
 35 62  1  0
 37 63  1  0
 37 64  1  0
 38 65  1  0
 38 66  1  0
M  CHG  3   5  -1  11  -1  30  -1
M  END
>  <UniqueID>  (22) 
19

>  <SMILES>  (22) 
Cn1cc([N-]C(=O)c2cc([N-]C(=O)c3ccc4cc[nH]c4c3)cn2C)cc1C(=O)[N-]CCN1CCOCC1

>  <Energy>  (22) 
180.66735515890667

>  <Genealogy>  (22) 
Cn1cc([N-]C(=O)c2cc([N-]C(=O)c3ccc4cc[nH]c4c3)cn2C)cc1C(=O)[N-]CCN1CCOCC1 (protonated)
Cn1cc([N-]C(=O)c2cc([N-]C(=O)c3ccc4cc[nH]c4c3)cn2C)cc1C(=O)[N-]CCN1CCOCC1 (3D coordinates assigned)
Cn1cc([N-]C(=O)c2cc([N-]C(=O)c3ccc4cc[nH]c4c3)cn2C)cc1C(=O)[N-]CCN1CCOCC1 (nonaromatic ring conformer: 180.66735515890667 kcal/mol)

>  <smiles>  (22) 
Cn1cc(NC(=O)c2cc(NC(=O)c3ccc4cc[nH]c4c3)cn2C)cc1C(=O)NCCN1CCOCC1

>  <score_type>  (22) 
oracle

>  <origin>  (22) 
adg

>  <m_score__min__energy>  (22) 
-13.800000000000001

>  <m_primary>  (22) 
energy

$$$$
22:0
     RDKit          3D

 47 49  0  0  0  0  0  0  0  0999 V2000
   55.5610   30.0930   45.6030 H   0  0  0  0  0  0  0  0  0  0  0  0
   55.7930   29.3290   44.9780 O   0  0  0  0  0  0  0  0  0  0  0  0
   57.1180   28.9930   44.6930 C   0  0  0  0  0  0  0  0  0  0  0  0
   57.4160   27.7660   44.0850 C   0  0  0  0  0  0  0  0  0  0  0  0
   56.6024   27.0772   43.8137 H   0  0  0  0  0  0  0  0  0  0  0  0
   58.7430   27.4140   43.8220 C   0  0  0  0  0  0  0  0  0  0  0  0
   58.9700   26.4562   43.3309 H   0  0  0  0  0  0  0  0  0  0  0  0
   59.7820   28.2770   44.1820 C   0  0  0  0  0  0  0  0  0  0  0  0
   60.8267   27.9894   43.9926 H   0  0  0  0  0  0  0  0  0  0  0  0
   59.4930   29.5060   44.7830 C   0  0  0  0  0  0  0  0  0  0  0  0
   60.3118   30.1837   45.0664 H   0  0  0  0  0  0  0  0  0  0  0  0
   58.1610   29.8780   45.0260 C   0  0  0  0  0  0  0  0  0  0  0  0
   57.8700   31.1890   45.6310 C   0  0  0  0  0  0  0  0  0  0  0  0
   56.8740   31.8440   45.2200 O   0  0  0  0  0  0  0  0  0  0  0  0
   58.6940   31.7180   46.6890 N   0  0  0  0  0  0  0  0  0  0  0  0
   58.7060   31.0550   48.0030 C   0  0  0  0  0  0  0  0  0  0  0  0
   59.4183   31.5717   48.6631 H   0  0  0  0  0  0  0  0  0  0  0  0
   57.6942   31.0961   48.4325 H   0  0  0  0  0  0  0  0  0  0  0  0
   59.1070   29.6510   47.8640 N   0  0  0  0  0  0  0  0  0  0  0  0
   58.1390   28.7370   47.7580 N   0  0  0  0  0  0  0  0  0  0  0  0
   58.3930   27.4090   47.6100 C   0  0  0  0  0  0  0  0  0  0  0  0
   57.4260   26.5390   47.5480 N   0  0  0  0  0  0  0  0  0  0  0  0
   57.2120   25.5730   46.5020 C   0  0  0  0  0  0  0  0  0  0  0  0
   55.9090   25.3800   46.0220 C   0  0  0  0  0  0  0  0  0  0  0  0
   55.0776   25.9603   46.4486 H   0  0  0  0  0  0  0  0  0  0  0  0
   55.6600   24.4540   45.0040 C   0  0  0  0  0  0  0  0  0  0  0  0
   54.6368   24.3186   44.6236 H   0  0  0  0  0  0  0  0  0  0  0  0
   56.7100   23.6990   44.4680 C   0  0  0  0  0  0  0  0  0  0  0  0
   56.4570   22.7510   43.4160 C   0  0  0  0  0  0  0  0  0  0  0  0
   56.2510   21.9900   42.5680 N   0  0  0  0  0  0  0  0  0  0  0  0
   58.0080   23.8590   44.9690 C   0  0  0  0  0  0  0  0  0  0  0  0
   58.8327   23.2580   44.5583 H   0  0  0  0  0  0  0  0  0  0  0  0
   58.2580   24.7810   45.9900 C   0  0  0  0  0  0  0  0  0  0  0  0
   59.2752   24.8881   46.3948 H   0  0  0  0  0  0  0  0  0  0  0  0
   59.7170   26.9750   47.5760 C   0  0  0  0  0  0  0  0  0  0  0  0
   59.9500   25.9046   47.4762 H   0  0  0  0  0  0  0  0  0  0  0  0
   60.7410   27.9140   47.6700 C   0  0  0  0  0  0  0  0  0  0  0  0
   61.7924   27.5926   47.6350 H   0  0  0  0  0  0  0  0  0  0  0  0
   60.4230   29.2670   47.8090 C   0  0  0  0  0  0  0  0  0  0  0  0
   61.3540   30.1140   47.8920 O   0  0  0  0  0  0  0  0  0  0  0  0
   59.3790   33.0090   46.5090 C   0  0  0  0  0  0  0  0  0  0  0  0
   59.8464   33.0332   45.5135 H   0  0  0  0  0  0  0  0  0  0  0  0
   60.1423   33.1148   47.2940 H   0  0  0  0  0  0  0  0  0  0  0  0
   58.3930   34.1690   46.6270 C   0  0  0  0  0  0  0  0  0  0  0  0
   58.2081   34.3865   47.6893 H   0  0  0  0  0  0  0  0  0  0  0  0
   58.8146   35.0598   46.1383 H   0  0  0  0  0  0  0  0  0  0  0  0
   57.4460   33.8964   46.1383 H   0  0  0  0  0  0  0  0  0  0  0  0
  1  2  1  0
  2  3  1  0
  3  4  2  0
  4  5  1  0
  4  6  1  0
  6  7  1  0
  6  8  2  0
  8  9  1  0
  8 10  1  0
 10 11  1  0
 10 12  2  0
 12 13  1  0
 13 14  2  0
 13 15  1  0
 15 16  1  0
 16 17  1  0
 16 18  1  0
 16 19  1  0
 19 20  1  0
 20 21  1  0
 21 22  2  0
 22 23  1  0
 23 24  2  0
 24 25  1  0
 24 26  1  0
 26 27  1  0
 26 28  2  0
 28 29  1  0
 29 30  3  0
 28 31  1  0
 31 32  1  0
 31 33  2  0
 33 34  1  0
 21 35  1  0
 35 36  1  0
 35 37  2  0
 37 38  1  0
 37 39  1  0
 39 40  2  0
 15 41  1  0
 41 42  1  0
 41 43  1  0
 41 44  1  0
 44 45  1  0
 44 46  1  0
 44 47  1  0
 12  3  1  0
 39 19  1  0
 33 23  1  0
M  CHG  1  20  -1
M  END
>  <UniqueID>  (23) 
20

>  <SMILES>  (23) 
CCN(Cn1[n-]/c(=N\c2ccc(C#N)cc2)ccc1=O)C(=O)c1ccccc1O

>  <Energy>  (23) 
55.493014483567634

>  <Genealogy>  (23) 
CCN(Cn1[n-]c(=Nc2ccc(C#N)cc2)ccc1=O)C(=O)c1ccccc1O (protonated)
CCN(Cn1[n-]/c(=N\c2ccc(C#N)cc2)ccc1=O)C(=O)c1ccccc1O (cis-trans isomerization)
CCN(Cn1[n-]/c(=N\c2ccc(C#N)cc2)ccc1=O)C(=O)c1ccccc1O (3D coordinates assigned)
CCN(Cn1[n-]/c(=N\c2ccc(C#N)cc2)ccc1=O)C(=O)c1ccccc1O (optimized conformer: 55.493014483567634 kcal/mol)

>  <smiles>  (23) 
CCN(Cn1[nH]c(=Nc2ccc(C#N)cc2)ccc1=O)C(=O)c1ccccc1O

>  <score_type>  (23) 
oracle

>  <origin>  (23) 
adg

>  <m_score__min__energy>  (23) 
-11.07

>  <m_primary>  (23) 
energy

$$$$
23:0
     RDKit          3D

 53 56  0  0  0  0  0  0  0  0999 V2000
   60.3430   34.0480   49.2910 C   0  0  0  0  0  0  0  0  0  0  0  0
   59.1120   33.7990   48.6190 O   0  0  0  0  0  0  0  0  0  0  0  0
   58.9330   33.9050   47.2330 C   0  0  0  0  0  0  0  0  0  0  0  0
   59.5110   34.9370   46.4730 C   0  0  0  0  0  0  0  0  0  0  0  0
   59.2880   34.9830   45.0960 C   0  0  0  0  0  0  0  0  0  0  0  0
   58.5200   34.0360   44.4970 N   0  0  0  0  0  0  0  0  0  0  0  0
   57.9520   33.0160   45.2010 C   0  0  0  0  0  0  0  0  0  0  0  0
   57.2030   32.1270   44.6180 N   0  0  0  0  0  0  0  0  0  0  0  0
   57.1570   30.7200   44.9070 C   0  0  0  0  0  0  0  0  0  0  0  0
   56.0440   30.1320   44.8680 O   0  0  0  0  0  0  0  0  0  0  0  0
   58.3300   30.0080   45.3320 N   0  0  0  0  0  0  0  0  0  0  0  0
   58.4900   28.5830   45.2130 C   0  0  0  0  0  0  0  0  0  0  0  0
   57.9430   27.9200   44.1050 C   0  0  0  0  0  0  0  0  0  0  0  0
   58.0620   26.5330   43.9780 C   0  0  0  0  0  0  0  0  0  0  0  0
   58.7110   25.7840   44.9750 C   0  0  0  0  0  0  0  0  0  0  0  0
   58.8620   24.3920   44.8790 O   0  0  0  0  0  0  0  0  0  0  0  0
   57.9130   23.5080   44.3430 C   0  0  0  0  0  0  0  0  0  0  0  0
   58.2690   22.1690   44.1620 C   0  0  0  0  0  0  0  0  0  0  0  0
   57.3340   21.2700   43.6470 C   0  0  0  0  0  0  0  0  0  0  0  0
   56.0810   21.6940   43.3370 N   0  0  0  0  0  0  0  0  0  0  0  0
   55.6920   22.9890   43.5160 C   0  0  0  0  0  0  0  0  0  0  0  0
   54.4840   23.3810   43.2260 N   0  0  0  0  0  0  0  0  0  0  0  0
   53.4080   23.6250   44.1480 C   0  0  0  0  0  0  0  0  0  0  0  0
   52.2160   23.3610   43.8370 O   0  0  0  0  0  0  0  0  0  0  0  0
   53.6670   24.2970   45.3860 N   0  0  0  0  0  0  0  0  0  0  0  0
   54.7600   24.3070   46.1000 C   0  0  0  0  0  0  0  0  0  0  0  0
   55.2080   23.1140   46.5820 N   0  0  0  0  0  0  0  0  0  0  0  0
   56.3230   23.0060   47.3500 C   0  0  0  0  0  0  0  0  0  0  0  0
   57.0610   24.1420   47.6710 C   0  0  0  0  0  0  0  0  0  0  0  0
   56.6570   25.3790   47.1740 C   0  0  0  0  0  0  0  0  0  0  0  0
   55.5190   25.4770   46.3670 C   0  0  0  0  0  0  0  0  0  0  0  0
   55.2100   26.7110   45.8100 O   0  0  0  0  0  0  0  0  0  0  0  0
   56.6050   23.9170   44.0320 C   0  0  0  0  0  0  0  0  0  0  0  0
   59.2600   26.4440   46.0800 C   0  0  0  0  0  0  0  0  0  0  0  0
   59.1410   27.8310   46.2070 C   0  0  0  0  0  0  0  0  0  0  0  0
   58.1480   32.9450   46.5860 C   0  0  0  0  0  0  0  0  0  0  0  0
   60.1803   34.0151   50.3784 H   0  0  0  0  0  0  0  0  0  0  0  0
   61.0777   33.2803   49.0068 H   0  0  0  0  0  0  0  0  0  0  0  0
   60.7216   35.0409   49.0068 H   0  0  0  0  0  0  0  0  0  0  0  0
   60.1339   35.7019   46.9597 H   0  0  0  0  0  0  0  0  0  0  0  0
   59.7352   35.7880   44.4943 H   0  0  0  0  0  0  0  0  0  0  0  0
   59.0600   30.5430   45.8550 H   0  0  0  0  0  0  0  0  0  0  0  0
   57.4162   28.4958   43.3298 H   0  0  0  0  0  0  0  0  0  0  0  0
   57.6463   26.0259   43.0948 H   0  0  0  0  0  0  0  0  0  0  0  0
   59.2806   21.8254   44.4240 H   0  0  0  0  0  0  0  0  0  0  0  0
   57.6118   20.2170   43.4919 H   0  0  0  0  0  0  0  0  0  0  0  0
   56.6431   22.0203   47.7186 H   0  0  0  0  0  0  0  0  0  0  0  0
   57.9530   24.0636   48.3099 H   0  0  0  0  0  0  0  0  0  0  0  0
   57.2354   26.2825   47.4173 H   0  0  0  0  0  0  0  0  0  0  0  0
   56.2997   24.9614   44.1932 H   0  0  0  0  0  0  0  0  0  0  0  0
   59.7886   25.8677   46.8536 H   0  0  0  0  0  0  0  0  0  0  0  0
   59.5590   28.3371   47.0897 H   0  0  0  0  0  0  0  0  0  0  0  0
   57.6840   32.1333   47.1656 H   0  0  0  0  0  0  0  0  0  0  0  0
  1  2  1  0
  2  3  1  0
  3  4  1  0
  4  5  2  0
  5  6  1  0
  6  7  1  0
  7  8  2  3
  8  9  1  0
  9 10  2  0
  9 11  1  0
 11 12  1  0
 12 13  2  0
 13 14  1  0
 14 15  2  0
 15 16  1  0
 16 17  1  0
 17 18  1  0
 18 19  2  0
 19 20  1  0
 20 21  1  0
 21 22  2  3
 22 23  1  0
 23 24  2  0
 23 25  1  0
 25 26  2  3
 26 27  1  0
 27 28  1  0
 28 29  2  0
 29 30  1  0
 30 31  2  0
 31 32  1  0
 21 33  1  0
 15 34  1  0
 34 35  2  0
  7 36  1  0
 36  3  2  0
 35 12  1  0
 33 17  2  0
 31 26  1  0
  1 37  1  0
  1 38  1  0
  1 39  1  0
  4 40  1  0
  5 41  1  0
 11 42  1  0
 13 43  1  0
 14 44  1  0
 18 45  1  0
 19 46  1  0
 28 47  1  0
 29 48  1  0
 30 49  1  0
 33 50  1  0
 34 51  1  0
 35 52  1  0
 36 53  1  0
M  CHG  4   6  -1  20  -1  27  -1  32  -1
M  END
>  <UniqueID>  (24) 
21

>  <SMILES>  (24) 
COc1cc[n-]c(=NC(=O)Nc2ccc(Oc3cc[n-]c(=NC(=O)N=c4[n-]cccc4[O-])c3)cc2)c1

>  <Energy>  (24) 
87.93038647257

>  <Genealogy>  (24) 
COc1cc[n-]c(=NC(=O)Nc2ccc(Oc3cc[n-]c(=NC(=O)N=c4[n-]cccc4[O-])c3)cc2)c1 (protonated)
COc1cc[n-]c(=NC(=O)Nc2ccc(Oc3cc[n-]c(=NC(=O)N=c4[n-]cccc4[O-])c3)cc2)c1 (3D coordinates assigned)
COc1cc[n-]c(=NC(=O)Nc2ccc(Oc3cc[n-]c(=NC(=O)N=c4[n-]cccc4[O-])c3)cc2)c1 (optimized conformer: 87.93038647257 kcal/mol)

>  <smiles>  (24) 
COc1cc[nH]c(=NC(=O)Nc2ccc(Oc3cc[nH]c(=NC(=O)N=c4[nH]cccc4O)c3)cc2)c1

>  <score_type>  (24) 
oracle

>  <origin>  (24) 
adg

>  <m_score__min__energy>  (24) 
-16.640000000000001

>  <m_primary>  (24) 
energy

$$$$
24:0
     RDKit          3D

 36 38  0  0  0  0  0  0  0  0999 V2000
   58.9170   34.5340   45.2400 O   0  0  0  0  0  0  0  0  0  0  0  0
   59.1740   33.3290   45.5050 C   0  0  0  0  0  0  0  0  0  0  0  0
   60.3050   33.0070   46.3280 N   0  0  0  0  0  0  0  0  0  0  0  0
   61.1820   34.0550   46.8520 C   0  0  0  0  0  0  0  0  0  0  0  0
   62.3710   33.4560   47.5340 C   0  0  0  0  0  0  0  0  0  0  0  0
   63.3310   34.1510   48.2420 C   0  0  0  0  0  0  0  0  0  0  0  0
   64.2040   33.1960   48.7160 C   0  0  0  0  0  0  0  0  0  0  0  0
   63.7210   31.9810   48.2710 C   0  0  0  0  0  0  0  0  0  0  0  0
   62.6260   32.1680   47.5720 O   0  0  0  0  0  0  0  0  0  0  0  0
   58.2940   32.2730   44.9630 C   0  0  0  0  0  0  0  0  0  0  0  0
   57.9240   31.0980   45.5980 C   0  0  0  0  0  0  0  0  0  0  0  0
   57.1030   30.4240   44.7100 C   0  0  0  0  0  0  0  0  0  0  0  0
   56.4820   29.0960   44.8980 C   0  0  0  0  0  0  0  0  0  0  0  0
   55.2470   28.9680   44.6830 O   0  0  0  0  0  0  0  0  0  0  0  0
   57.2670   27.9150   45.3240 C   0  0  0  0  0  0  0  0  0  0  0  0
   58.6710   27.9140   45.2210 C   0  0  0  0  0  0  0  0  0  0  0  0
   59.4110   26.8060   45.6410 C   0  0  0  0  0  0  0  0  0  0  0  0
   58.7610   25.6910   46.1750 C   0  0  0  0  0  0  0  0  0  0  0  0
   57.3690   25.6860   46.2970 C   0  0  0  0  0  0  0  0  0  0  0  0
   56.6220   26.7930   45.8800 C   0  0  0  0  0  0  0  0  0  0  0  0
   55.2700   26.7570   45.9960 F   0  0  0  0  0  0  0  0  0  0  0  0
   57.0220   31.2030   43.5710 C   0  0  0  0  0  0  0  0  0  0  0  0
   57.7420   32.3260   43.7330 N   0  0  0  0  0  0  0  0  0  0  0  0
   60.5040   32.0110   46.5680 H   0  0  0  0  0  0  0  0  0  0  0  0
   61.5238   34.6892   46.0207 H   0  0  0  0  0  0  0  0  0  0  0  0
   60.6196   34.6548   47.5827 H   0  0  0  0  0  0  0  0  0  0  0  0
   63.3872   35.2388   48.3955 H   0  0  0  0  0  0  0  0  0  0  0  0
   65.1036   33.3668   49.3255 H   0  0  0  0  0  0  0  0  0  0  0  0
   64.1843   31.0038   48.4721 H   0  0  0  0  0  0  0  0  0  0  0  0
   58.2223   30.7677   46.6040 H   0  0  0  0  0  0  0  0  0  0  0  0
   59.1889   28.7917   44.8070 H   0  0  0  0  0  0  0  0  0  0  0  0
   60.5073   26.8117   45.5510 H   0  0  0  0  0  0  0  0  0  0  0  0
   59.3448   24.8170   46.4995 H   0  0  0  0  0  0  0  0  0  0  0  0
   56.8590   24.8090   46.7222 H   0  0  0  0  0  0  0  0  0  0  0  0
   56.4528   30.9424   42.6665 H   0  0  0  0  0  0  0  0  0  0  0  0
   57.8540   33.0890   43.0290 H   0  0  0  0  0  0  0  0  0  0  0  0
  1  2  2  0
  2  3  1  0
  3  4  1  0
  4  5  1  0
  5  6  2  0
  6  7  1  0
  7  8  2  0
  8  9  1  0
  2 10  1  0
 10 11  2  0
 11 12  1  0
 12 13  1  0
 13 14  2  0
 13 15  1  0
 15 16  2  0
 16 17  1  0
 17 18  2  0
 18 19  1  0
 19 20  2  0
 20 21  1  0
 12 22  2  0
 22 23  1  0
  9  5  1  0
 23 10  1  0
 20 15  1  0
  3 24  1  0
  4 25  1  0
  4 26  1  0
  6 27  1  0
  7 28  1  0
  8 29  1  0
 11 30  1  0
 16 31  1  0
 17 32  1  0
 18 33  1  0
 19 34  1  0
 22 35  1  0
 23 36  1  0
M  END
>  <UniqueID>  (25) 
22

>  <SMILES>  (25) 
O=C(NCc1ccco1)c1cc(C(=O)c2ccccc2F)c[nH]1

>  <Energy>  (25) 
91.77047719320372

>  <Genealogy>  (25) 
O=C(NCc1ccco1)c1cc(C(=O)c2ccccc2F)c[nH]1 (3D coordinates assigned)
O=C(NCc1ccco1)c1cc(C(=O)c2ccccc2F)c[nH]1 (optimized conformer: 91.77047719320372 kcal/mol)

>  <smiles>  (25) 
O=C(NCc1ccco1)c1cc(C(=O)c2ccccc2F)c[nH]1

>  <score_type>  (25) 
oracle

>  <origin>  (25) 
adg

>  <m_score__min__energy>  (25) 
-7.8899999999999997

>  <m_primary>  (25) 
energy

$$$$
25:0
     RDKit          3D

 48 51  0  0  0  0  0  0  0  0999 V2000
   56.7170   30.5280   44.9160 O   0  0  0  0  0  0  0  0  0  0  0  0
   57.9380   30.7540   45.1470 C   0  0  0  0  0  0  0  0  0  0  0  0
   58.8630   29.6600   45.2580 N   0  0  0  0  0  0  0  0  0  0  0  0
   58.5000   28.2910   45.0160 C   0  0  0  0  0  0  0  0  0  0  0  0
   58.0810   27.8820   43.7360 C   0  0  0  0  0  0  0  0  0  0  0  0
   57.8010   26.5390   43.4800 C   0  0  0  0  0  0  0  0  0  0  0  0
   57.9470   25.5860   44.4900 C   0  0  0  0  0  0  0  0  0  0  0  0
   58.3720   25.9770   45.7610 C   0  0  0  0  0  0  0  0  0  0  0  0
   58.6480   27.3240   46.0360 C   0  0  0  0  0  0  0  0  0  0  0  0
   59.0460   27.7000   47.3640 N   0  0  0  0  0  0  0  0  0  0  0  0
   59.7740   26.7610   48.2200 C   0  0  0  0  0  0  0  0  0  0  0  0
   60.7400   27.5390   49.1180 C   0  0  0  0  0  0  0  0  0  0  0  0
   60.0600   28.5690   49.8100 O   0  0  0  0  0  0  0  0  0  0  0  0
   59.5820   29.5340   48.8890 C   0  0  0  0  0  0  0  0  0  0  0  0
   58.5240   28.9290   47.9630 C   0  0  0  0  0  0  0  0  0  0  0  0
   58.4000   32.1450   45.3410 C   0  0  0  0  0  0  0  0  0  0  0  0
   57.7440   33.2220   44.7350 C   0  0  0  0  0  0  0  0  0  0  0  0
   58.2240   34.5110   44.9390 C   0  0  0  0  0  0  0  0  0  0  0  0
   59.3440   34.7070   45.7480 C   0  0  0  0  0  0  0  0  0  0  0  0
   59.7980   35.8740   45.9000 O   0  0  0  0  0  0  0  0  0  0  0  0
   59.9470   33.6300   46.3440 N   0  0  0  0  0  0  0  0  0  0  0  0
   61.0960   33.7760   47.2000 C   0  0  0  0  0  0  0  0  0  0  0  0
   60.9460   33.9730   48.5860 C   0  0  0  0  0  0  0  0  0  0  0  0
   62.0710   34.0840   49.4090 C   0  0  0  0  0  0  0  0  0  0  0  0
   63.3530   33.9890   48.8600 C   0  0  0  0  0  0  0  0  0  0  0  0
   63.5120   33.7770   47.4890 C   0  0  0  0  0  0  0  0  0  0  0  0
   62.3900   33.6660   46.6620 C   0  0  0  0  0  0  0  0  0  0  0  0
   59.4830   32.3950   46.1240 N   0  0  0  0  0  0  0  0  0  0  0  0
   59.8300   29.8500   45.6050 H   0  0  0  0  0  0  0  0  0  0  0  0
   57.9736   28.6255   42.9325 H   0  0  0  0  0  0  0  0  0  0  0  0
   57.4642   26.2302   42.4794 H   0  0  0  0  0  0  0  0  0  0  0  0
   57.7273   24.5280   44.2844 H   0  0  0  0  0  0  0  0  0  0  0  0
   58.4913   25.2227   46.5527 H   0  0  0  0  0  0  0  0  0  0  0  0
   59.0601   26.2037   48.8443 H   0  0  0  0  0  0  0  0  0  0  0  0
   60.3400   26.0551   47.5945 H   0  0  0  0  0  0  0  0  0  0  0  0
   61.1894   26.8494   49.8477 H   0  0  0  0  0  0  0  0  0  0  0  0
   61.5210   27.9913   48.4891 H   0  0  0  0  0  0  0  0  0  0  0  0
   59.1370   30.3726   49.4447 H   0  0  0  0  0  0  0  0  0  0  0  0
   60.4263   29.8834   48.2766 H   0  0  0  0  0  0  0  0  0  0  0  0
   57.6180   28.6984   48.5426 H   0  0  0  0  0  0  0  0  0  0  0  0
   58.2774   29.6485   47.1683 H   0  0  0  0  0  0  0  0  0  0  0  0
   56.8589   33.0511   44.1046 H   0  0  0  0  0  0  0  0  0  0  0  0
   57.7247   35.3696   44.4663 H   0  0  0  0  0  0  0  0  0  0  0  0
   59.9390   34.0399   49.0235 H   0  0  0  0  0  0  0  0  0  0  0  0
   61.9470   34.2463   50.4899 H   0  0  0  0  0  0  0  0  0  0  0  0
   64.2369   34.0813   49.5082 H   0  0  0  0  0  0  0  0  0  0  0  0
   64.5213   33.6972   47.0590 H   0  0  0  0  0  0  0  0  0  0  0  0
   62.5207   33.4915   45.5838 H   0  0  0  0  0  0  0  0  0  0  0  0
  1  2  2  0
  2  3  1  0
  3  4  1  0
  4  5  2  0
  5  6  1  0
  6  7  2  0
  7  8  1  0
  8  9  2  0
  9 10  1  0
 10 11  1  0
 11 12  1  0
 12 13  1  0
 13 14  1  0
 14 15  1  0
  2 16  1  0
 16 17  1  0
 17 18  2  0
 18 19  1  0
 19 20  2  0
 19 21  1  0
 21 22  1  0
 22 23  2  0
 23 24  1  0
 24 25  2  0
 25 26  1  0
 26 27  2  0
 21 28  1  0
  9  4  1  0
 15 10  1  0
 28 16  2  0
 27 22  1  0
  3 29  1  0
  5 30  1  0
  6 31  1  0
  7 32  1  0
  8 33  1  0
 11 34  1  0
 11 35  1  0
 12 36  1  0
 12 37  1  0
 14 38  1  0
 14 39  1  0
 15 40  1  0
 15 41  1  0
 17 42  1  0
 18 43  1  0
 23 44  1  0
 24 45  1  0
 25 46  1  0
 26 47  1  0
 27 48  1  0
M  END
>  <UniqueID>  (26) 
23

>  <SMILES>  (26) 
O=C(Nc1ccccc1N1CCOCC1)c1ccc(=O)n(-c2ccccc2)n1

>  <Energy>  (26) 
69.58158683116396

>  <Genealogy>  (26) 
O=C(Nc1ccccc1N1CCOCC1)c1ccc(=O)n(-c2ccccc2)n1 (3D coordinates assigned)
O=C(Nc1ccccc1N1CCOCC1)c1ccc(=O)n(-c2ccccc2)n1 (nonaromatic ring conformer: 69.58158683116396 kcal/mol)

>  <smiles>  (26) 
O=C(Nc1ccccc1N1CCOCC1)c1ccc(=O)n(-c2ccccc2)n1

>  <score_type>  (26) 
oracle

>  <origin>  (26) 
adg

>  <m_score__min__energy>  (26) 
-8.5399999999999991

>  <m_primary>  (26) 
energy

$$$$
26:0
     RDKit          3D

 52 55  0  0  0  0  0  0  0  0999 V2000
   59.8190   29.6040   44.1360 O   0  0  0  0  0  0  0  0  0  0  0  0
   58.6600   30.0610   44.3390 C   0  0  0  0  0  0  0  0  0  0  0  0
   58.5090   31.4230   44.5940 C   0  0  0  0  0  0  0  0  0  0  0  0
   57.2290   31.9300   44.8270 C   0  0  0  0  0  0  0  0  0  0  0  0
   57.0150   33.3990   45.1160 C   0  0  0  0  0  0  0  0  0  0  0  0
   57.8220   33.9130   46.2520 N   0  0  0  0  0  0  0  0  0  0  0  0
   58.9860   34.7090   45.7850 C   0  0  0  0  0  0  0  0  0  0  0  0
   59.9880   34.9640   46.9160 C   0  0  0  0  0  0  0  0  0  0  0  0
   60.4600   33.6880   47.4720 N   0  0  0  0  0  0  0  0  0  0  0  0
   61.7330   33.6140   48.1520 C   0  0  0  0  0  0  0  0  0  0  0  0
   62.8830   33.1650   47.4740 C   0  0  0  0  0  0  0  0  0  0  0  0
   64.1130   33.0950   48.1340 C   0  0  0  0  0  0  0  0  0  0  0  0
   64.2110   33.4690   49.4760 C   0  0  0  0  0  0  0  0  0  0  0  0
   63.0780   33.9170   50.1590 C   0  0  0  0  0  0  0  0  0  0  0  0
   61.8460   33.9920   49.5030 C   0  0  0  0  0  0  0  0  0  0  0  0
   59.6450   32.4820   47.2690 C   0  0  0  0  0  0  0  0  0  0  0  0
   58.1550   32.8550   47.2510 C   0  0  0  0  0  0  0  0  0  0  0  0
   56.1680   31.0890   44.7790 N   0  0  0  0  0  0  0  0  0  0  0  0
   56.3160   29.7620   44.5270 C   0  0  0  0  0  0  0  0  0  0  0  0
   55.2890   29.0320   44.5010 O   0  0  0  0  0  0  0  0  0  0  0  0
   57.5640   29.2320   44.3110 N   0  0  0  0  0  0  0  0  0  0  0  0
   57.7310   27.7950   44.0140 C   0  0  0  0  0  0  0  0  0  0  0  0
   57.8880   27.0080   45.2900 C   0  0  0  0  0  0  0  0  0  0  0  0
   56.9740   25.9900   45.6170 C   0  0  0  0  0  0  0  0  0  0  0  0
   57.1080   25.2830   46.8160 C   0  0  0  0  0  0  0  0  0  0  0  0
   58.1490   25.5860   47.6970 C   0  0  0  0  0  0  0  0  0  0  0  0
   59.0590   26.5980   47.3810 C   0  0  0  0  0  0  0  0  0  0  0  0
   58.9300   27.3080   46.1830 C   0  0  0  0  0  0  0  0  0  0  0  0
   59.3848   32.0883   44.6114 H   0  0  0  0  0  0  0  0  0  0  0  0
   57.2811   33.9715   44.2152 H   0  0  0  0  0  0  0  0  0  0  0  0
   55.9579   33.5185   45.3956 H   0  0  0  0  0  0  0  0  0  0  0  0
   57.1940   34.5920   46.7460 H   0  0  0  0  0  0  0  0  0  0  0  0
   59.4922   34.1603   44.9771 H   0  0  0  0  0  0  0  0  0  0  0  0
   58.6158   35.6817   45.4288 H   0  0  0  0  0  0  0  0  0  0  0  0
   60.8459   35.5281   46.5213 H   0  0  0  0  0  0  0  0  0  0  0  0
   59.4933   35.5413   47.7110 H   0  0  0  0  0  0  0  0  0  0  0  0
   62.8126   32.8673   46.4174 H   0  0  0  0  0  0  0  0  0  0  0  0
   65.0058   32.7446   47.5953 H   0  0  0  0  0  0  0  0  0  0  0  0
   65.1794   33.4108   49.9945 H   0  0  0  0  0  0  0  0  0  0  0  0
   63.1555   34.2116   51.2160 H   0  0  0  0  0  0  0  0  0  0  0  0
   60.9587   34.3489   50.0464 H   0  0  0  0  0  0  0  0  0  0  0  0
   59.9159   32.0158   46.3102 H   0  0  0  0  0  0  0  0  0  0  0  0
   59.8317   31.7760   48.0916 H   0  0  0  0  0  0  0  0  0  0  0  0
   57.5724   31.9532   47.0115 H   0  0  0  0  0  0  0  0  0  0  0  0
   57.9083   33.2568   48.2448 H   0  0  0  0  0  0  0  0  0  0  0  0
   56.8457   27.4321   43.4712 H   0  0  0  0  0  0  0  0  0  0  0  0
   58.6334   27.6608   43.3994 H   0  0  0  0  0  0  0  0  0  0  0  0
   56.1514   25.7494   44.9275 H   0  0  0  0  0  0  0  0  0  0  0  0
   56.3920   24.4863   47.0661 H   0  0  0  0  0  0  0  0  0  0  0  0
   58.2522   25.0279   48.6393 H   0  0  0  0  0  0  0  0  0  0  0  0
   59.8780   26.8366   48.0754 H   0  0  0  0  0  0  0  0  0  0  0  0
   59.6478   28.1050   45.9389 H   0  0  0  0  0  0  0  0  0  0  0  0
  1  2  2  0
  2  3  1  0
  3  4  2  0
  4  5  1  0
  5  6  1  0
  6  7  1  0
  7  8  1  0
  8  9  1  0
  9 10  1  0
 10 11  2  0
 11 12  1  0
 12 13  2  0
 13 14  1  0
 14 15  2  0
  9 16  1  0
 16 17  1  0
  4 18  1  0
 18 19  1  0
 19 20  2  0
 19 21  1  0
 21 22  1  0
 22 23  1  0
 23 24  2  0
 24 25  1  0
 25 26  2  0
 26 27  1  0
 27 28  2  0
 21  2  1  0
 28 23  1  0
 17  6  1  0
 15 10  1  0
  3 29  1  0
  5 30  1  0
  5 31  1  0
  6 32  1  0
  7 33  1  0
  7 34  1  0
  8 35  1  0
  8 36  1  0
 11 37  1  0
 12 38  1  0
 13 39  1  0
 14 40  1  0
 15 41  1  0
 16 42  1  0
 16 43  1  0
 17 44  1  0
 17 45  1  0
 22 46  1  0
 22 47  1  0
 24 48  1  0
 25 49  1  0
 26 50  1  0
 27 51  1  0
 28 52  1  0
M  CHG  2   6   1  18  -1
M  END
>  <UniqueID>  (27) 
24

>  <SMILES>  (27) 
O=c1cc(C[NH+]2CCN(c3ccccc3)CC2)[n-]c(=O)n1Cc1ccccc1

>  <Energy>  (27) 
71.7252305335162

>  <Genealogy>  (27) 
O=c1cc(C[NH+]2CCN(c3ccccc3)CC2)[n-]c(=O)n1Cc1ccccc1 (protonated)
O=c1cc(C[NH+]2CCN(c3ccccc3)CC2)[n-]c(=O)n1Cc1ccccc1 (3D coordinates assigned)
O=c1cc(C[NH+]2CCN(c3ccccc3)CC2)[n-]c(=O)n1Cc1ccccc1 (nonaromatic ring conformer: 71.7252305335162 kcal/mol)

>  <smiles>  (27) 
O=c1cc(CN2CCN(c3ccccc3)CC2)[nH]c(=O)n1Cc1ccccc1

>  <score_type>  (27) 
oracle

>  <origin>  (27) 
adg

>  <m_score__min__energy>  (27) 
-9

>  <m_primary>  (27) 
energy

$$$$
27:0
     RDKit          3D

 37 39  0  0  0  0  0  0  0  0999 V2000
   58.5020   28.5870   44.4710 C   0  0  0  0  0  0  0  0  0  0  0  0
   57.3790   28.8960   45.2870 O   0  0  0  0  0  0  0  0  0  0  0  0
   56.3400   29.7230   44.8530 C   0  0  0  0  0  0  0  0  0  0  0  0
   55.1510   29.3050   44.8480 O   0  0  0  0  0  0  0  0  0  0  0  0
   56.6420   31.0700   44.4690 N   0  0  0  0  0  0  0  0  0  0  0  0
   57.4130   32.0210   45.2190 C   0  0  0  0  0  0  0  0  0  0  0  0
   58.1500   31.6530   46.3590 C   0  0  0  0  0  0  0  0  0  0  0  0
   58.8690   32.6160   47.0740 C   0  0  0  0  0  0  0  0  0  0  0  0
   58.8580   33.9570   46.6660 C   0  0  0  0  0  0  0  0  0  0  0  0
   59.6050   34.9920   47.4600 C   0  0  0  0  0  0  0  0  0  0  0  0
   60.7660   34.3870   48.1070 N   0  0  0  0  0  0  0  0  0  0  0  0
   60.9440   34.2370   49.5550 C   0  0  0  0  0  0  0  0  0  0  0  0
   62.2870   33.5720   49.6680 C   0  0  0  0  0  0  0  0  0  0  0  0
   62.9660   33.1940   50.8270 C   0  0  0  0  0  0  0  0  0  0  0  0
   64.2240   32.5790   50.6970 C   0  0  0  0  0  0  0  0  0  0  0  0
   64.7810   32.3560   49.4210 C   0  0  0  0  0  0  0  0  0  0  0  0
   64.0840   32.7440   48.2640 C   0  0  0  0  0  0  0  0  0  0  0  0
   62.8390   33.3490   48.4240 C   0  0  0  0  0  0  0  0  0  0  0  0
   61.9060   33.8470   47.4450 C   0  0  0  0  0  0  0  0  0  0  0  0
   62.0570   33.8110   46.1950 O   0  0  0  0  0  0  0  0  0  0  0  0
   58.0970   34.3290   45.5470 C   0  0  0  0  0  0  0  0  0  0  0  0
   57.3770   33.3670   44.8330 C   0  0  0  0  0  0  0  0  0  0  0  0
   59.3653   28.3495   45.1100 H   0  0  0  0  0  0  0  0  0  0  0  0
   58.2664   27.7203   43.8359 H   0  0  0  0  0  0  0  0  0  0  0  0
   58.7429   29.4522   43.8359 H   0  0  0  0  0  0  0  0  0  0  0  0
   58.1609   30.6038   46.6894 H   0  0  0  0  0  0  0  0  0  0  0  0
   59.4466   32.3194   47.9619 H   0  0  0  0  0  0  0  0  0  0  0  0
   59.9408   35.7945   46.7867 H   0  0  0  0  0  0  0  0  0  0  0  0
   58.9378   35.4048   48.2310 H   0  0  0  0  0  0  0  0  0  0  0  0
   60.9452   35.2163   50.0560 H   0  0  0  0  0  0  0  0  0  0  0  0
   60.1363   33.6625   50.0320 H   0  0  0  0  0  0  0  0  0  0  0  0
   62.5272   33.3730   51.8197 H   0  0  0  0  0  0  0  0  0  0  0  0
   64.7769   32.2700   51.5963 H   0  0  0  0  0  0  0  0  0  0  0  0
   65.7665   31.8757   49.3307 H   0  0  0  0  0  0  0  0  0  0  0  0
   64.5081   32.5753   47.2632 H   0  0  0  0  0  0  0  0  0  0  0  0
   58.0670   35.3821   45.2305 H   0  0  0  0  0  0  0  0  0  0  0  0
   56.7777   33.6692   43.9615 H   0  0  0  0  0  0  0  0  0  0  0  0
  1  2  1  0
  2  3  1  0
  3  4  2  0
  3  5  1  0
  5  6  1  0
  6  7  2  0
  7  8  1  0
  8  9  2  0
  9 10  1  0
 10 11  1  0
 11 12  1  0
 12 13  1  0
 13 14  2  0
 14 15  1  0
 15 16  2  0
 16 17  1  0
 17 18  2  0
 18 19  1  0
 19 20  2  0
  9 21  1  0
 21 22  2  0
 22  6  1  0
 19 11  1  0
 18 13  1  0
  1 23  1  0
  1 24  1  0
  1 25  1  0
  7 26  1  0
  8 27  1  0
 10 28  1  0
 10 29  1  0
 12 30  1  0
 12 31  1  0
 14 32  1  0
 15 33  1  0
 16 34  1  0
 17 35  1  0
 21 36  1  0
 22 37  1  0
M  CHG  1   5  -1
M  END
>  <UniqueID>  (28) 
25

>  <SMILES>  (28) 
COC(=O)[N-]c1ccc(CN2Cc3ccccc3C2=O)cc1

>  <Energy>  (28) 
59.45377506733888

>  <Genealogy>  (28) 
COC(=O)[N-]c1ccc(CN2Cc3ccccc3C2=O)cc1 (protonated)
COC(=O)[N-]c1ccc(CN2Cc3ccccc3C2=O)cc1 (3D coordinates assigned)
COC(=O)[N-]c1ccc(CN2Cc3ccccc3C2=O)cc1 (nonaromatic ring conformer: 59.45377506733888 kcal/mol)

>  <smiles>  (28) 
COC(=O)Nc1ccc(CN2Cc3ccccc3C2=O)cc1

>  <score_type>  (28) 
oracle

>  <origin>  (28) 
adg

>  <m_score__min__energy>  (28) 
-9.0199999999999996

>  <m_primary>  (28) 
energy

$$$$
28:0
     RDKit          3D

 36 38  0  0  0  0  0  0  0  0999 V2000
   56.8220   29.2600   42.8700 N   0  0  0  0  0  0  0  0  0  0  0  0
   56.6180   29.8000   44.5010 S   0  0  0  0  0  0  0  0  0  0  0  0
   56.2470   31.2550   44.5080 O   0  0  0  0  0  0  0  0  0  0  0  0
   55.5160   29.0040   45.1440 O   0  0  0  0  0  0  0  0  0  0  0  0
   58.1260   29.5760   45.3830 C   0  0  0  0  0  0  0  0  0  0  0  0
   59.2630   29.0690   44.7390 C   0  0  0  0  0  0  0  0  0  0  0  0
   60.4490   28.8830   45.4540 C   0  0  0  0  0  0  0  0  0  0  0  0
   60.5090   29.2080   46.8120 C   0  0  0  0  0  0  0  0  0  0  0  0
   59.3790   29.7340   47.4630 C   0  0  0  0  0  0  0  0  0  0  0  0
   59.3880   30.0440   48.8640 N   0  0  0  0  0  0  0  0  0  0  0  0
   60.4650   30.6550   49.5840 C   0  0  0  0  0  0  0  0  0  0  0  0
   61.3990   29.9570   50.0610 O   0  0  0  0  0  0  0  0  0  0  0  0
   60.5060   32.1440   49.7300 C   0  0  0  0  0  0  0  0  0  0  0  0
   60.7870   32.7720   48.4330 N   0  0  0  0  0  0  0  0  0  0  0  0
   62.0370   33.0820   47.9940 C   0  0  0  0  0  0  0  0  0  0  0  0
   63.0860   32.8360   48.6450 O   0  0  0  0  0  0  0  0  0  0  0  0
   62.0290   33.8410   46.4850 S   0  0  0  0  0  0  0  0  0  0  0  0
   60.3520   33.7830   46.3910 C   0  0  0  0  0  0  0  0  0  0  0  0
   59.5330   34.2630   45.3720 C   0  0  0  0  0  0  0  0  0  0  0  0
   58.1450   34.1250   45.5140 C   0  0  0  0  0  0  0  0  0  0  0  0
   57.6070   33.5160   46.6640 C   0  0  0  0  0  0  0  0  0  0  0  0
   58.4500   33.0380   47.6820 C   0  0  0  0  0  0  0  0  0  0  0  0
   59.8390   33.1760   47.5330 C   0  0  0  0  0  0  0  0  0  0  0  0
   58.1860   29.8950   46.7460 C   0  0  0  0  0  0  0  0  0  0  0  0
   56.6400   28.2310   42.8650 H   0  0  0  0  0  0  0  0  0  0  0  0
   57.8290   29.3900   42.6300 H   0  0  0  0  0  0  0  0  0  0  0  0
   59.2216   28.8171   43.6690 H   0  0  0  0  0  0  0  0  0  0  0  0
   61.3378   28.4797   44.9467 H   0  0  0  0  0  0  0  0  0  0  0  0
   61.4423   29.0520   47.3729 H   0  0  0  0  0  0  0  0  0  0  0  0
   59.5343   32.4996   50.1032 H   0  0  0  0  0  0  0  0  0  0  0  0
   61.3018   32.4137   50.4399 H   0  0  0  0  0  0  0  0  0  0  0  0
   59.9641   34.7383   44.4785 H   0  0  0  0  0  0  0  0  0  0  0  0
   57.4739   34.4938   44.7243 H   0  0  0  0  0  0  0  0  0  0  0  0
   56.5166   33.4134   46.7666 H   0  0  0  0  0  0  0  0  0  0  0  0
   58.0284   32.5637   48.5805 H   0  0  0  0  0  0  0  0  0  0  0  0
   57.2892   30.2749   47.2573 H   0  0  0  0  0  0  0  0  0  0  0  0
  1  2  1  0
  2  3  2  0
  2  4  2  0
  2  5  1  0
  5  6  2  0
  6  7  1  0
  7  8  2  0
  8  9  1  0
  9 10  1  0
 10 11  1  0
 11 12  2  0
 11 13  1  0
 13 14  1  0
 14 15  1  0
 15 16  2  0
 15 17  1  0
 17 18  1  0
 18 19  2  0
 19 20  1  0
 20 21  2  0
 21 22  1  0
 22 23  2  0
  9 24  2  0
 24  5  1  0
 23 14  1  0
 23 18  1  0
  1 25  1  0
  1 26  1  0
  6 27  1  0
  7 28  1  0
  8 29  1  0
 13 30  1  0
 13 31  1  0
 19 32  1  0
 20 33  1  0
 21 34  1  0
 22 35  1  0
 24 36  1  0
M  CHG  1  10  -1
M  END
>  <UniqueID>  (29) 
26

>  <SMILES>  (29) 
NS(=O)(=O)c1cccc([N-]C(=O)Cn2c(=O)sc3ccccc32)c1

>  <Energy>  (29) 
75.82908101080709

>  <Genealogy>  (29) 
NS(=O)(=O)c1cccc([N-]C(=O)Cn2c(=O)sc3ccccc32)c1 (protonated)
NS(=O)(=O)c1cccc([N-]C(=O)Cn2c(=O)sc3ccccc32)c1 (3D coordinates assigned)
NS(=O)(=O)c1cccc([N-]C(=O)Cn2c(=O)sc3ccccc32)c1 (optimized conformer: 75.82908101080709 kcal/mol)

>  <smiles>  (29) 
NS(=O)(=O)c1cccc(NC(=O)Cn2c(=O)sc3ccccc32)c1

>  <score_type>  (29) 
oracle

>  <origin>  (29) 
adg

>  <m_score__min__energy>  (29) 
-10.68

>  <m_primary>  (29) 
energy

$$$$
29:0
     RDKit          3D

 40 41  0  0  0  0  0  0  0  0999 V2000
   58.7082   32.7528   44.4710 H   0  0  0  0  0  0  0  0  0  0  0  0
   57.9080   32.3340   45.0990 C   0  0  0  0  0  0  0  0  0  0  0  0
   57.5480   31.0590   44.8270 C   0  0  0  0  0  0  0  0  0  0  0  0
   56.2660   30.7990   44.4960 N   0  0  0  0  0  0  0  0  0  0  0  0
   56.2280   29.4870   44.2260 C   0  0  0  0  0  0  0  0  0  0  0  0
   55.3297   28.9274   43.9262 H   0  0  0  0  0  0  0  0  0  0  0  0
   57.4850   28.9460   44.3810 C   0  0  0  0  0  0  0  0  0  0  0  0
   57.7370   27.6460   44.0930 C   0  0  0  0  0  0  0  0  0  0  0  0
   58.2868   27.4652   43.1576 H   0  0  0  0  0  0  0  0  0  0  0  0
   57.3680   26.4160   44.8770 C   0  0  0  0  0  0  0  0  0  0  0  0
   56.7978   25.7373   44.2257 H   0  0  0  0  0  0  0  0  0  0  0  0
   58.2980   25.9436   45.2263 H   0  0  0  0  0  0  0  0  0  0  0  0
   56.5360   26.7460   46.0790 C   0  0  0  0  0  0  0  0  0  0  0  0
   57.0790   27.1340   47.1470 O   0  0  0  0  0  0  0  0  0  0  0  0
   55.1500   26.6980   45.9940 O   0  0  0  0  0  0  0  0  0  0  0  0
   58.3350   29.9340   44.7960 N   0  0  0  0  0  0  0  0  0  0  0  0
   59.7370   29.7930   45.2210 C   0  0  0  0  0  0  0  0  0  0  0  0
   60.3335   29.4751   44.3531 H   0  0  0  0  0  0  0  0  0  0  0  0
   60.0562   30.7705   45.6117 H   0  0  0  0  0  0  0  0  0  0  0  0
   59.9340   28.7810   46.3360 C   0  0  0  0  0  0  0  0  0  0  0  0
   60.3740   27.4660   46.0760 C   0  0  0  0  0  0  0  0  0  0  0  0
   60.5859   27.1567   45.0419 H   0  0  0  0  0  0  0  0  0  0  0  0
   60.5430   26.5530   47.1200 C   0  0  0  0  0  0  0  0  0  0  0  0
   60.8900   25.5316   46.9047 H   0  0  0  0  0  0  0  0  0  0  0  0
   60.2730   26.9330   48.4340 C   0  0  0  0  0  0  0  0  0  0  0  0
   60.4090   26.2125   49.2540 H   0  0  0  0  0  0  0  0  0  0  0  0
   59.8300   28.2280   48.7090 C   0  0  0  0  0  0  0  0  0  0  0  0
   59.6149   28.5235   49.7465 H   0  0  0  0  0  0  0  0  0  0  0  0
   59.6580   29.1520   47.6730 C   0  0  0  0  0  0  0  0  0  0  0  0
   59.0890   30.7670   48.0830 Cl  0  0  0  0  0  0  0  0  0  0  0  0
   57.3490   33.2530   46.1560 C   0  0  0  0  0  0  0  0  0  0  0  0
   56.9148   32.6433   46.9621 H   0  0  0  0  0  0  0  0  0  0  0  0
   56.5878   33.8899   45.6817 H   0  0  0  0  0  0  0  0  0  0  0  0
   58.4260   34.1710   46.7550 C   0  0  0  0  0  0  0  0  0  0  0  0
   58.9757   33.6125   47.5270 H   0  0  0  0  0  0  0  0  0  0  0  0
   57.9179   35.0509   47.1764 H   0  0  0  0  0  0  0  0  0  0  0  0
   59.4220   34.6680   45.7070 C   0  0  0  0  0  0  0  0  0  0  0  0
   60.2970   35.1046   46.2107 H   0  0  0  0  0  0  0  0  0  0  0  0
   59.7438   33.8248   45.0781 H   0  0  0  0  0  0  0  0  0  0  0  0
   58.9418   35.4321   45.0781 H   0  0  0  0  0  0  0  0  0  0  0  0
  1  2  1  0
  2  3  2  0
  3  4  1  0
  4  5  2  0
  5  6  1  0
  5  7  1  0
  7  8  2  0
  8  9  1  0
  8 10  1  0
 10 11  1  0
 10 12  1  0
 10 13  1  0
 13 14  2  0
 13 15  1  0
  7 16  1  0
 16 17  1  0
 17 18  1  0
 17 19  1  0
 17 20  1  0
 20 21  2  0
 21 22  1  0
 21 23  1  0
 23 24  1  0
 23 25  2  0
 25 26  1  0
 25 27  1  0
 27 28  1  0
 27 29  2  0
 29 30  1  0
  2 31  1  0
 31 32  1  0
 31 33  1  0
 31 34  1  0
 34 35  1  0
 34 36  1  0
 34 37  1  0
 37 38  1  0
 37 39  1  0
 37 40  1  0
 16  3  1  0
 29 20  1  0
M  CHG  1  15  -1
M  END
>  <UniqueID>  (30) 
27

>  <SMILES>  (30) 
CCC/C=c1/nc/c(=C/CC(=O)[O-])n1Cc1ccccc1Cl

>  <Energy>  (30) 
82.22533853945049

>  <Genealogy>  (30) 
CCCC=c1ncc(=CCC(=O)[O-])n1Cc1ccccc1Cl (protonated)
CCC/C=c1/nc/c(=C/CC(=O)[O-])n1Cc1ccccc1Cl (cis-trans isomerization)
CCC/C=c1/nc/c(=C/CC(=O)[O-])n1Cc1ccccc1Cl (3D coordinates assigned)
CCC/C=c1/nc/c(=C/CC(=O)[O-])n1Cc1ccccc1Cl (optimized conformer: 82.22533853945049 kcal/mol)

>  <smiles>  (30) 
CCCC=c1ncc(=CCC(=O)O)n1Cc1ccccc1Cl

>  <score_type>  (30) 
oracle

>  <origin>  (30) 
adg

>  <m_score__min__energy>  (30) 
-10.44

>  <m_primary>  (30) 
energy

$$$$
30:0
     RDKit          3D

 14 14  0  0  0  0  0  0  0  0999 V2000
   56.4398   23.6900   46.0881 H   0  0  0  0  0  0  0  0  0  0  0  0
   56.3170   24.7820   46.0390 C   0  0  0  0  0  0  0  0  0  0  0  0
   55.1730   25.4270   46.0850 O   0  0  0  0  0  0  0  0  0  0  0  0
   55.3460   26.7140   46.0050 N   0  0  0  0  0  0  0  0  0  0  0  0
   56.6710   26.9110   45.9030 C   0  0  0  0  0  0  0  0  0  0  0  0
   57.2020   28.0920   45.8030 N   0  0  0  0  0  0  0  0  0  0  0  0
   56.6350   29.3300   44.7280 S   0  0  0  0  0  0  0  0  0  0  0  0
   57.2660   30.6450   45.0890 O   0  0  0  0  0  0  0  0  0  0  0  0
   55.1430   29.4470   44.8610 O   0  0  0  0  0  0  0  0  0  0  0  0
   57.0310   28.9140   43.0960 N   0  0  0  0  0  0  0  0  0  0  0  0
   58.0360   29.1590   42.9550 H   0  0  0  0  0  0  0  0  0  0  0  0
   56.9580   27.8750   43.0190 H   0  0  0  0  0  0  0  0  0  0  0  0
   57.3380   25.7010   45.9190 C   0  0  0  0  0  0  0  0  0  0  0  0
   58.4203   25.5159   45.8522 H   0  0  0  0  0  0  0  0  0  0  0  0
  1  2  1  0
  2  3  1  0
  3  4  1  0
  4  5  1  0
  5  6  2  0
  6  7  1  0
  7  8  2  0
  7  9  2  0
  7 10  1  0
 10 11  1  0
 10 12  1  0
  5 13  1  0
 13 14  1  0
 13  2  2  0
M  CHG  1   4  -1
M  END
>  <UniqueID>  (31) 
28

>  <SMILES>  (31) 
NS(=O)(=O)/N=c1\cco[n-]1

>  <Energy>  (31) 
43.25949157722858

>  <Genealogy>  (31) 
NS(=O)(=O)N=c1cco[n-]1 (protonated)
NS(=O)(=O)/N=c1\cco[n-]1 (cis-trans isomerization)
NS(=O)(=O)/N=c1\cco[n-]1 (3D coordinates assigned)
NS(=O)(=O)/N=c1\cco[n-]1 (optimized conformer: 43.25949157722858 kcal/mol)

>  <smiles>  (31) 
NS(=O)(=O)N=c1cco[nH]1

>  <score_type>  (31) 
oracle

>  <origin>  (31) 
adg

>  <m_score__min__energy>  (31) 
-7.9400000000000004

>  <m_primary>  (31) 
energy

$$$$
31:0
     RDKit          3D

 56 58  0  0  0  0  0  0  0  0999 V2000
   58.4620   33.9110   52.7160 C   0  0  0  0  0  0  0  0  0  0  0  0
   58.9760   32.4970   52.9550 C   0  0  0  0  0  0  0  0  0  0  0  0
   57.8710   31.6130   53.3380 N   0  0  0  0  0  0  0  0  0  0  0  0
   57.1740   30.8310   51.9500 S   0  0  0  0  0  0  0  0  0  0  0  0
   55.8880   31.5220   51.5920 O   0  0  0  0  0  0  0  0  0  0  0  0
   56.8660   29.3970   52.2770 O   0  0  0  0  0  0  0  0  0  0  0  0
   58.2740   30.9180   50.5770 C   0  0  0  0  0  0  0  0  0  0  0  0
   58.9500   29.7700   50.1550 C   0  0  0  0  0  0  0  0  0  0  0  0
   59.7990   29.8230   49.0470 C   0  0  0  0  0  0  0  0  0  0  0  0
   59.9860   31.0240   48.3500 C   0  0  0  0  0  0  0  0  0  0  0  0
   61.0860   31.0260   46.9220 S   0  0  0  0  0  0  0  0  0  0  0  0
   62.3760   31.9660   47.7470 C   0  0  0  0  0  0  0  0  0  0  0  0
   62.8870   31.5430   48.9820 C   0  0  0  0  0  0  0  0  0  0  0  0
   63.8880   32.2840   49.6180 C   0  0  0  0  0  0  0  0  0  0  0  0
   64.3740   33.4560   49.0290 C   0  0  0  0  0  0  0  0  0  0  0  0
   63.8520   33.8910   47.8080 C   0  0  0  0  0  0  0  0  0  0  0  0
   62.8520   33.1520   47.1700 C   0  0  0  0  0  0  0  0  0  0  0  0
   59.2620   32.1740   48.7390 C   0  0  0  0  0  0  0  0  0  0  0  0
   59.3250   33.4310   47.9650 C   0  0  0  0  0  0  0  0  0  0  0  0
   59.6360   34.5000   48.5490 O   0  0  0  0  0  0  0  0  0  0  0  0
   59.0170   33.4760   46.5640 N   0  0  0  0  0  0  0  0  0  0  0  0
   57.6760   33.4390   45.9830 C   0  0  0  0  0  0  0  0  0  0  0  0
   57.6570   32.6480   44.6710 C   0  0  0  0  0  0  0  0  0  0  0  0
   57.5120   31.1690   44.9210 C   0  0  0  0  0  0  0  0  0  0  0  0
   58.0100   30.6020   46.1050 C   0  0  0  0  0  0  0  0  0  0  0  0
   57.8500   29.2360   46.3540 C   0  0  0  0  0  0  0  0  0  0  0  0
   57.1880   28.4220   45.4250 C   0  0  0  0  0  0  0  0  0  0  0  0
   56.9700   26.7030   45.7400 S   0  0  0  0  0  0  0  0  0  0  0  0
   55.2990   26.3800   46.0390 N   0  0  0  0  0  0  0  0  0  0  0  0
   57.4280   25.9110   44.5470 O   0  0  0  0  0  0  0  0  0  0  0  0
   57.7810   26.2900   46.9360 O   0  0  0  0  0  0  0  0  0  0  0  0
   56.6750   28.9880   44.2510 C   0  0  0  0  0  0  0  0  0  0  0  0
   56.8340   30.3540   44.0010 C   0  0  0  0  0  0  0  0  0  0  0  0
   58.4310   32.1150   49.8680 C   0  0  0  0  0  0  0  0  0  0  0  0
   58.2827   34.4043   53.6827 H   0  0  0  0  0  0  0  0  0  0  0  0
   59.2102   34.4817   52.1463 H   0  0  0  0  0  0  0  0  0  0  0  0
   57.5220   33.8680   52.1463 H   0  0  0  0  0  0  0  0  0  0  0  0
   59.4405   32.1188   52.0324 H   0  0  0  0  0  0  0  0  0  0  0  0
   59.7166   32.5177   53.7681 H   0  0  0  0  0  0  0  0  0  0  0  0
   58.8132   28.8224   50.6966 H   0  0  0  0  0  0  0  0  0  0  0  0
   60.3251   28.9144   48.7190 H   0  0  0  0  0  0  0  0  0  0  0  0
   62.4999   30.6267   49.4516 H   0  0  0  0  0  0  0  0  0  0  0  0
   64.2937   31.9448   50.5826 H   0  0  0  0  0  0  0  0  0  0  0  0
   65.1663   34.0346   49.5265 H   0  0  0  0  0  0  0  0  0  0  0  0
   64.2288   34.8166   47.3482 H   0  0  0  0  0  0  0  0  0  0  0  0
   62.4374   33.5016   46.2130 H   0  0  0  0  0  0  0  0  0  0  0  0
   56.9891   32.9627   46.6981 H   0  0  0  0  0  0  0  0  0  0  0  0
   57.3626   34.4715   45.7694 H   0  0  0  0  0  0  0  0  0  0  0  0
   56.8106   32.9918   44.0584 H   0  0  0  0  0  0  0  0  0  0  0  0
   58.6111   32.8186   44.1508 H   0  0  0  0  0  0  0  0  0  0  0  0
   58.5283   31.2356   46.8398 H   0  0  0  0  0  0  0  0  0  0  0  0
   58.2452   28.7983   47.2826 H   0  0  0  0  0  0  0  0  0  0  0  0
   54.7700   26.7070   45.2000 H   0  0  0  0  0  0  0  0  0  0  0  0
   56.1453   28.3555   43.5234 H   0  0  0  0  0  0  0  0  0  0  0  0
   56.4257   30.7926   43.0785 H   0  0  0  0  0  0  0  0  0  0  0  0
   57.8976   33.0182   50.1993 H   0  0  0  0  0  0  0  0  0  0  0  0
  1  2  1  0
  2  3  1  0
  3  4  1  0
  4  5  2  0
  4  6  2  0
  4  7  1  0
  7  8  2  0
  8  9  1  0
  9 10  2  0
 10 11  1  0
 11 12  1  0
 12 13  2  0
 13 14  1  0
 14 15  2  0
 15 16  1  0
 16 17  2  0
 10 18  1  0
 18 19  1  0
 19 20  2  0
 19 21  1  0
 21 22  1  0
 22 23  1  0
 23 24  1  0
 24 25  2  0
 25 26  1  0
 26 27  2  0
 27 28  1  0
 28 29  1  0
 28 30  2  0
 28 31  2  0
 27 32  1  0
 32 33  2  0
 18 34  2  0
 34  7  1  0
 17 12  1  0
 33 24  1  0
  1 35  1  0
  1 36  1  0
  1 37  1  0
  2 38  1  0
  2 39  1  0
  8 40  1  0
  9 41  1  0
 13 42  1  0
 14 43  1  0
 15 44  1  0
 16 45  1  0
 17 46  1  0
 22 47  1  0
 22 48  1  0
 23 49  1  0
 23 50  1  0
 25 51  1  0
 26 52  1  0
 29 53  1  0
 32 54  1  0
 33 55  1  0
 34 56  1  0
M  CHG  3   3  -1  21  -1  29  -1
M  END
>  <UniqueID>  (32) 
29

>  <SMILES>  (32) 
CC[N-]S(=O)(=O)c1ccc(Sc2ccccc2)c(C(=O)[N-]CCc2ccc(S([NH-])(=O)=O)cc2)c1

>  <Energy>  (32) 
51.528812830564604

>  <Genealogy>  (32) 
CC[N-]S(=O)(=O)c1ccc(Sc2ccccc2)c(C(=O)[N-]CCc2ccc(S([NH-])(=O)=O)cc2)c1 (protonated)
CC[N-]S(=O)(=O)c1ccc(Sc2ccccc2)c(C(=O)[N-]CCc2ccc(S([NH-])(=O)=O)cc2)c1 (3D coordinates assigned)
CC[N-]S(=O)(=O)c1ccc(Sc2ccccc2)c(C(=O)[N-]CCc2ccc(S([NH-])(=O)=O)cc2)c1 (optimized conformer: 51.528812830564604 kcal/mol)

>  <smiles>  (32) 
CCNS(=O)(=O)c1ccc(Sc2ccccc2)c(C(=O)NCCc2ccc(S(N)(=O)=O)cc2)c1

>  <score_type>  (32) 
oracle

>  <origin>  (32) 
adg

>  <m_score__min__energy>  (32) 
-14.859999999999999

>  <m_primary>  (32) 
energy

$$$$
32:0
     RDKit          3D

 52 55  0  0  0  0  0  0  0  0999 V2000
   57.6950   29.4510   46.3640 C   0  0  0  0  0  0  0  0  0  0  0  0
   57.7980   28.6540   45.1430 N   0  0  0  0  0  0  0  0  0  0  0  0
   58.3260   27.4170   45.0030 C   0  0  0  0  0  0  0  0  0  0  0  0
   59.1240   26.4820   46.3130 S   0  0  0  0  0  0  0  0  0  0  0  0
   60.5820   27.5740   46.4250 C   0  0  0  0  0  0  0  0  0  0  0  0
   60.3780   28.6720   47.4210 C   0  0  0  0  0  0  0  0  0  0  0  0
   59.4920   28.5180   48.4380 N   0  0  0  0  0  0  0  0  0  0  0  0
   59.3560   29.4900   49.3730 C   0  0  0  0  0  0  0  0  0  0  0  0
   58.5230   29.3530   50.3060 O   0  0  0  0  0  0  0  0  0  0  0  0
   60.1220   30.6060   49.3060 N   0  0  0  0  0  0  0  0  0  0  0  0
   61.0230   30.7660   48.3000 C   0  0  0  0  0  0  0  0  0  0  0  0
   61.8460   31.9510   48.2350 N   0  0  0  0  0  0  0  0  0  0  0  0
   61.9980   32.7990   49.4260 C   0  0  0  0  0  0  0  0  0  0  0  0
   62.3960   34.2210   49.0220 C   0  0  0  0  0  0  0  0  0  0  0  0
   63.5060   34.2050   48.1470 O   0  0  0  0  0  0  0  0  0  0  0  0
   63.1350   33.5940   46.9270 C   0  0  0  0  0  0  0  0  0  0  0  0
   62.8090   32.1130   47.1370 C   0  0  0  0  0  0  0  0  0  0  0  0
   61.1450   29.7910   47.3600 N   0  0  0  0  0  0  0  0  0  0  0  0
   58.0950   26.9110   43.7760 N   0  0  0  0  0  0  0  0  0  0  0  0
   57.4080   27.8340   43.1220 N   0  0  0  0  0  0  0  0  0  0  0  0
   57.2080   28.8740   43.9490 C   0  0  0  0  0  0  0  0  0  0  0  0
   56.3500   30.0540   43.5960 C   0  0  0  0  0  0  0  0  0  0  0  0
   56.6410   31.1700   44.4900 N   0  0  0  0  0  0  0  0  0  0  0  0
   57.6550   32.1570   44.2670 C   0  0  0  0  0  0  0  0  0  0  0  0
   58.0460   32.3730   43.0900 O   0  0  0  0  0  0  0  0  0  0  0  0
   58.2500   32.9300   45.3750 C   0  0  0  0  0  0  0  0  0  0  0  0
   57.9100   32.6180   46.6990 C   0  0  0  0  0  0  0  0  0  0  0  0
   58.4700   33.3360   47.7610 C   0  0  0  0  0  0  0  0  0  0  0  0
   59.3800   34.3640   47.5060 C   0  0  0  0  0  0  0  0  0  0  0  0
   59.7440   34.6660   46.1910 C   0  0  0  0  0  0  0  0  0  0  0  0
   59.1900   33.9480   45.1260 C   0  0  0  0  0  0  0  0  0  0  0  0
   59.5930   34.2240   43.8600 F   0  0  0  0  0  0  0  0  0  0  0  0
   57.7802   28.7918   47.2404 H   0  0  0  0  0  0  0  0  0  0  0  0
   58.5044   30.1956   46.3852 H   0  0  0  0  0  0  0  0  0  0  0  0
   56.7229   29.9654   46.3852 H   0  0  0  0  0  0  0  0  0  0  0  0
   61.4532   26.9750   46.7287 H   0  0  0  0  0  0  0  0  0  0  0  0
   60.7426   28.0327   45.4382 H   0  0  0  0  0  0  0  0  0  0  0  0
   61.0437   32.8311   49.9721 H   0  0  0  0  0  0  0  0  0  0  0  0
   62.7862   32.3764   50.0664 H   0  0  0  0  0  0  0  0  0  0  0  0
   61.5461   34.7030   48.5167 H   0  0  0  0  0  0  0  0  0  0  0  0
   62.6713   34.7798   49.9286 H   0  0  0  0  0  0  0  0  0  0  0  0
   62.2483   34.1046   46.5231 H   0  0  0  0  0  0  0  0  0  0  0  0
   63.9766   33.6731   46.2231 H   0  0  0  0  0  0  0  0  0  0  0  0
   62.3770   31.7024   46.2125 H   0  0  0  0  0  0  0  0  0  0  0  0
   63.7348   31.5767   47.3924 H   0  0  0  0  0  0  0  0  0  0  0  0
   57.0510   27.7280   42.1460 H   0  0  0  0  0  0  0  0  0  0  0  0
   56.5553   30.3558   42.5583 H   0  0  0  0  0  0  0  0  0  0  0  0
   55.2914   29.7743   43.7016 H   0  0  0  0  0  0  0  0  0  0  0  0
   57.1989   31.8041   46.9038 H   0  0  0  0  0  0  0  0  0  0  0  0
   58.1935   33.0908   48.7970 H   0  0  0  0  0  0  0  0  0  0  0  0
   59.8106   34.9365   48.3408 H   0  0  0  0  0  0  0  0  0  0  0  0
   60.4679   35.4702   45.9930 H   0  0  0  0  0  0  0  0  0  0  0  0
  1  2  1  0
  2  3  1  0
  3  4  1  0
  4  5  1  0
  5  6  1  0
  6  7  2  0
  7  8  1  0
  8  9  2  0
  8 10  1  0
 10 11  2  0
 11 12  1  0
 12 13  1  0
 13 14  1  0
 14 15  1  0
 15 16  1  0
 16 17  1  0
 11 18  1  0
  3 19  2  0
 19 20  1  0
 20 21  2  0
 21 22  1  0
 22 23  1  0
 23 24  1  0
 24 25  2  0
 24 26  1  0
 26 27  2  0
 27 28  1  0
 28 29  2  0
 29 30  1  0
 30 31  2  0
 31 32  1  0
 21  2  1  0
 31 26  1  0
 18  6  1  0
 17 12  1  0
  1 33  1  0
  1 34  1  0
  1 35  1  0
  5 36  1  0
  5 37  1  0
 13 38  1  0
 13 39  1  0
 14 40  1  0
 14 41  1  0
 16 42  1  0
 16 43  1  0
 17 44  1  0
 17 45  1  0
 20 46  1  0
 22 47  1  0
 22 48  1  0
 27 49  1  0
 28 50  1  0
 29 51  1  0
 30 52  1  0
M  CHG  3  18  -1  20   1  23  -1
M  END
>  <UniqueID>  (33) 
30

>  <SMILES>  (33) 
Cn1c(SCc2nc(=O)nc(N3CCOCC3)[n-]2)n[nH+]c1C[N-]C(=O)c1ccccc1F

>  <Energy>  (33) 
88.0453477093154

>  <Genealogy>  (33) 
Cn1c(SCc2nc(=O)nc(N3CCOCC3)[n-]2)n[nH+]c1C[N-]C(=O)c1ccccc1F (protonated)
Cn1c(SCc2nc(=O)nc(N3CCOCC3)[n-]2)n[nH+]c1C[N-]C(=O)c1ccccc1F (3D coordinates assigned)
Cn1c(SCc2nc(=O)nc(N3CCOCC3)[n-]2)n[nH+]c1C[N-]C(=O)c1ccccc1F (nonaromatic ring conformer: 88.0453477093154 kcal/mol)

>  <smiles>  (33) 
Cn1c(CNC(=O)c2ccccc2F)nnc1SCc1nc(=O)nc(N2CCOCC2)[nH]1

>  <score_type>  (33) 
oracle

>  <origin>  (33) 
adg

>  <m_score__min__energy>  (33) 
-11.449999999999999

>  <m_primary>  (33) 
energy

$$$$
33:0
     RDKit          3D

 36 38  0  0  0  0  0  0  0  0999 V2000
   55.4740   30.0710   45.6530 H   0  0  0  0  0  0  0  0  0  0  0  0
   55.7690   29.2260   45.1770 O   0  0  0  0  0  0  0  0  0  0  0  0
   57.0920   28.7870   45.2200 C   0  0  0  0  0  0  0  0  0  0  0  0
   57.4490   27.5500   44.6650 C   0  0  0  0  0  0  0  0  0  0  0  0
   56.6839   26.9194   44.1887 H   0  0  0  0  0  0  0  0  0  0  0  0
   58.7750   27.1190   44.7170 C   0  0  0  0  0  0  0  0  0  0  0  0
   59.0630   26.1501   44.2831 H   0  0  0  0  0  0  0  0  0  0  0  0
   59.7310   27.9320   45.3260 C   0  0  0  0  0  0  0  0  0  0  0  0
   60.7798   27.6039   45.3740 H   0  0  0  0  0  0  0  0  0  0  0  0
   59.3700   29.1280   45.8600 N   0  0  0  0  0  0  0  0  0  0  0  0
   58.0820   29.5780   45.8220 C   0  0  0  0  0  0  0  0  0  0  0  0
   57.7520   30.7240   46.3470 N   0  0  0  0  0  0  0  0  0  0  0  0
   57.3900   31.9270   45.6480 C   0  0  0  0  0  0  0  0  0  0  0  0
   56.3600   31.9600   44.9210 O   0  0  0  0  0  0  0  0  0  0  0  0
   58.1980   33.1590   45.8170 C   0  0  0  0  0  0  0  0  0  0  0  0
   58.2340   34.0880   44.7600 C   0  0  0  0  0  0  0  0  0  0  0  0
   57.6796   33.8786   43.8333 H   0  0  0  0  0  0  0  0  0  0  0  0
   58.9650   35.2720   44.8740 C   0  0  0  0  0  0  0  0  0  0  0  0
   58.9802   35.9896   44.0405 H   0  0  0  0  0  0  0  0  0  0  0  0
   59.6750   35.5470   46.0400 C   0  0  0  0  0  0  0  0  0  0  0  0
   60.2434   36.4844   46.1300 H   0  0  0  0  0  0  0  0  0  0  0  0
   59.6650   34.6320   47.0950 C   0  0  0  0  0  0  0  0  0  0  0  0
   60.2280   34.8534   48.0137 H   0  0  0  0  0  0  0  0  0  0  0  0
   58.9440   33.4340   46.9940 C   0  0  0  0  0  0  0  0  0  0  0  0
   59.0600   32.2780   48.3700 S   0  0  0  0  0  0  0  0  0  0  0  0
   60.8500   32.3690   48.4320 C   0  0  0  0  0  0  0  0  0  0  0  0
   61.4810   33.1190   49.4340 C   0  0  0  0  0  0  0  0  0  0  0  0
   60.8782   33.6540   50.1825 H   0  0  0  0  0  0  0  0  0  0  0  0
   62.8760   33.1870   49.4820 C   0  0  0  0  0  0  0  0  0  0  0  0
   63.3706   33.7722   50.2712 H   0  0  0  0  0  0  0  0  0  0  0  0
   63.6440   32.5120   48.5280 C   0  0  0  0  0  0  0  0  0  0  0  0
   64.7420   32.5645   48.5686 H   0  0  0  0  0  0  0  0  0  0  0  0
   63.0160   31.7700   47.5220 C   0  0  0  0  0  0  0  0  0  0  0  0
   63.6199   31.2402   46.7706 H   0  0  0  0  0  0  0  0  0  0  0  0
   61.6200   31.7020   47.4720 C   0  0  0  0  0  0  0  0  0  0  0  0
   61.1264   31.1236   46.6772 H   0  0  0  0  0  0  0  0  0  0  0  0
  1  2  1  0
  2  3  1  0
  3  4  2  0
  4  5  1  0
  4  6  1  0
  6  7  1  0
  6  8  2  0
  8  9  1  0
  8 10  1  0
 10 11  1  0
 11 12  2  0
 12 13  1  0
 13 14  2  0
 13 15  1  0
 15 16  2  0
 16 17  1  0
 16 18  1  0
 18 19  1  0
 18 20  2  0
 20 21  1  0
 20 22  1  0
 22 23  1  0
 22 24  2  0
 24 25  1  0
 25 26  1  0
 26 27  2  0
 27 28  1  0
 27 29  1  0
 29 30  1  0
 29 31  2  0
 31 32  1  0
 31 33  1  0
 33 34  1  0
 33 35  2  0
 35 36  1  0
 11  3  1  0
 24 15  1  0
 35 26  1  0
M  CHG  1  10  -1
M  END
>  <UniqueID>  (34) 
31

>  <SMILES>  (34) 
O=C(/N=c1\[n-]cccc1O)c1ccccc1Sc1ccccc1

>  <Energy>  (34) 
41.916920675266766

>  <Genealogy>  (34) 
O=C(N=c1[n-]cccc1O)c1ccccc1Sc1ccccc1 (protonated)
O=C(/N=c1\[n-]cccc1O)c1ccccc1Sc1ccccc1 (cis-trans isomerization)
O=C(/N=c1\[n-]cccc1O)c1ccccc1Sc1ccccc1 (3D coordinates assigned)
O=C(/N=c1\[n-]cccc1O)c1ccccc1Sc1ccccc1 (optimized conformer: 41.916920675266766 kcal/mol)

>  <smiles>  (34) 
O=C(N=c1[nH]cccc1O)c1ccccc1Sc1ccccc1

>  <score_type>  (34) 
oracle

>  <origin>  (34) 
adg

>  <m_score__min__energy>  (34) 
-10.56

>  <m_primary>  (34) 
energy

$$$$
34:0
     RDKit          3D

 28 30  0  0  0  0  0  0  0  0999 V2000
   60.8150   29.3430   45.6670 C   0  0  0  0  0  0  0  0  0  0  0  0
   59.4870   29.1290   45.0450 C   0  0  0  0  0  0  0  0  0  0  0  0
   59.2570   27.9710   44.3100 C   0  0  0  0  0  0  0  0  0  0  0  0
   58.0170   27.7970   43.7430 C   0  0  0  0  0  0  0  0  0  0  0  0
   57.7750   26.7550   43.0690 O   0  0  0  0  0  0  0  0  0  0  0  0
   57.0810   28.7350   43.9120 N   0  0  0  0  0  0  0  0  0  0  0  0
   57.3230   29.8460   44.6250 C   0  0  0  0  0  0  0  0  0  0  0  0
   56.4070   30.7190   44.7670 O   0  0  0  0  0  0  0  0  0  0  0  0
   58.5330   30.0540   45.2010 N   0  0  0  0  0  0  0  0  0  0  0  0
   58.7030   31.2530   45.9350 C   0  0  0  0  0  0  0  0  0  0  0  0
   58.5240   31.3400   47.3040 C   0  0  0  0  0  0  0  0  0  0  0  0
   58.7020   32.5340   47.9830 C   0  0  0  0  0  0  0  0  0  0  0  0
   59.0670   33.6760   47.2940 C   0  0  0  0  0  0  0  0  0  0  0  0
   59.3050   34.9530   47.6960 N   0  0  0  0  0  0  0  0  0  0  0  0
   59.6320   35.6750   46.6000 C   0  0  0  0  0  0  0  0  0  0  0  0
   59.5970   34.8490   45.5320 N   0  0  0  0  0  0  0  0  0  0  0  0
   59.2540   33.6090   45.9110 C   0  0  0  0  0  0  0  0  0  0  0  0
   59.0740   32.4060   45.2340 C   0  0  0  0  0  0  0  0  0  0  0  0
   60.7138   29.3267   46.7622 H   0  0  0  0  0  0  0  0  0  0  0  0
   61.5013   28.5439   45.3502 H   0  0  0  0  0  0  0  0  0  0  0  0
   61.2155   30.3173   45.3502 H   0  0  0  0  0  0  0  0  0  0  0  0
   60.0461   27.2148   44.1858 H   0  0  0  0  0  0  0  0  0  0  0  0
   56.1560   28.5890   43.4800 H   0  0  0  0  0  0  0  0  0  0  0  0
   58.2336   30.4402   47.8662 H   0  0  0  0  0  0  0  0  0  0  0  0
   58.5528   32.5739   49.0721 H   0  0  0  0  0  0  0  0  0  0  0  0
   59.2430   35.3080   48.6830 H   0  0  0  0  0  0  0  0  0  0  0  0
   59.8823   36.7460   46.5817 H   0  0  0  0  0  0  0  0  0  0  0  0
   59.2238   32.3616   44.1452 H   0  0  0  0  0  0  0  0  0  0  0  0
  1  2  1  0
  2  3  2  0
  3  4  1  0
  4  5  2  0
  4  6  1  0
  6  7  1  0
  7  8  2  0
  7  9  1  0
  9 10  1  0
 10 11  2  0
 11 12  1  0
 12 13  2  0
 13 14  1  0
 14 15  1  0
 15 16  2  0
 16 17  1  0
 17 18  2  0
  9  2  1  0
 18 10  1  0
 17 13  1  0
  1 19  1  0
  1 20  1  0
  1 21  1  0
  3 22  1  0
  6 23  1  0
 11 24  1  0
 12 25  1  0
 14 26  1  0
 15 27  1  0
 18 28  1  0
M  END
>  <smiles>  (35) 
Cc1cc(=O)[nH]c(=O)n1-c1ccc2[nH]cnc2c1

>  <score_type>  (35) 
oracle

>  <origin>  (35) 
adg

>  <m_score__min__energy>  (35) 
-7.04

>  <m_primary>  (35) 
energy

$$$$
35:0
     RDKit          3D

 59 62  0  0  0  0  0  0  0  0999 V2000
   59.1250   32.9040   49.9850 C   0  0  0  0  0  0  0  0  0  0  0  0
   59.6170   31.4870   49.9340 C   0  0  0  0  0  0  0  0  0  0  0  0
   58.9250   30.5280   49.1780 C   0  0  0  0  0  0  0  0  0  0  0  0
   59.3610   29.1990   49.1550 C   0  0  0  0  0  0  0  0  0  0  0  0
   60.4880   28.8090   49.8990 C   0  0  0  0  0  0  0  0  0  0  0  0
   60.9630   27.3800   49.8720 C   0  0  0  0  0  0  0  0  0  0  0  0
   60.0600   26.5460   49.0870 N   0  0  0  0  0  0  0  0  0  0  0  0
   60.1830   26.3400   47.6740 C   0  0  0  0  0  0  0  0  0  0  0  0
   61.3170   26.4120   47.1290 O   0  0  0  0  0  0  0  0  0  0  0  0
   58.9890   26.0280   46.8560 C   0  0  0  0  0  0  0  0  0  0  0  0
   58.8300   24.7560   46.2750 C   0  0  0  0  0  0  0  0  0  0  0  0
   57.7110   24.4750   45.4870 C   0  0  0  0  0  0  0  0  0  0  0  0
   56.7440   25.4560   45.2640 C   0  0  0  0  0  0  0  0  0  0  0  0
   56.8980   26.7340   45.8180 C   0  0  0  0  0  0  0  0  0  0  0  0
   55.9050   27.7470   45.6230 N   0  0  0  0  0  0  0  0  0  0  0  0
   56.0720   28.9410   44.8500 C   0  0  0  0  0  0  0  0  0  0  0  0
   55.1490   29.7980   44.8590 O   0  0  0  0  0  0  0  0  0  0  0  0
   57.3940   29.2810   44.2060 C   0  0  0  0  0  0  0  0  0  0  0  0
   58.1860   30.2630   45.0260 C   0  0  0  0  0  0  0  0  0  0  0  0
   59.7730   30.0080   45.5320 S   0  0  0  0  0  0  0  0  0  0  0  0
   59.8920   31.5040   46.2940 C   0  0  0  0  0  0  0  0  0  0  0  0
   61.0680   31.9990   46.9650 N   0  0  0  0  0  0  0  0  0  0  0  0
   62.0130   31.0440   47.5660 C   0  0  0  0  0  0  0  0  0  0  0  0
   63.1580   31.7590   48.2900 C   0  0  0  0  0  0  0  0  0  0  0  0
   63.7710   32.8350   47.3860 C   0  0  0  0  0  0  0  0  0  0  0  0
   62.7250   33.8320   46.8380 C   0  0  0  0  0  0  0  0  0  0  0  0
   61.2710   33.4450   47.1470 C   0  0  0  0  0  0  0  0  0  0  0  0
   58.7460   32.2110   46.1700 N   0  0  0  0  0  0  0  0  0  0  0  0
   57.7970   31.5340   45.4710 C   0  0  0  0  0  0  0  0  0  0  0  0
   56.5510   32.1090   45.2240 O   0  0  0  0  0  0  0  0  0  0  0  0
   58.0040   27.0080   46.6310 C   0  0  0  0  0  0  0  0  0  0  0  0
   61.1640   29.7640   50.6750 C   0  0  0  0  0  0  0  0  0  0  0  0
   60.7280   31.0940   50.6960 C   0  0  0  0  0  0  0  0  0  0  0  0
   59.0164   33.2169   51.0340 H   0  0  0  0  0  0  0  0  0  0  0  0
   59.8475   33.5614   49.4792 H   0  0  0  0  0  0  0  0  0  0  0  0
   58.1506   32.9722   49.4792 H   0  0  0  0  0  0  0  0  0  0  0  0
   58.0360   30.8228   48.6011 H   0  0  0  0  0  0  0  0  0  0  0  0
   58.8193   28.4556   48.5518 H   0  0  0  0  0  0  0  0  0  0  0  0
   61.9675   27.3428   49.4252 H   0  0  0  0  0  0  0  0  0  0  0  0
   60.9868   26.9981   50.9033 H   0  0  0  0  0  0  0  0  0  0  0  0
   59.5906   23.9791   46.4422 H   0  0  0  0  0  0  0  0  0  0  0  0
   57.5918   23.4767   45.0407 H   0  0  0  0  0  0  0  0  0  0  0  0
   55.8593   25.2258   44.6523 H   0  0  0  0  0  0  0  0  0  0  0  0
   57.9815   28.3579   44.0929 H   0  0  0  0  0  0  0  0  0  0  0  0
   57.1867   29.7437   43.2298 H   0  0  0  0  0  0  0  0  0  0  0  0
   61.4726   30.4145   48.2883 H   0  0  0  0  0  0  0  0  0  0  0  0
   62.4453   30.4352   46.7583 H   0  0  0  0  0  0  0  0  0  0  0  0
   62.7699   32.2315   49.2044 H   0  0  0  0  0  0  0  0  0  0  0  0
   63.9341   31.0227   48.5459 H   0  0  0  0  0  0  0  0  0  0  0  0
   64.5190   33.3954   47.9660 H   0  0  0  0  0  0  0  0  0  0  0  0
   64.2202   32.3222   46.5227 H   0  0  0  0  0  0  0  0  0  0  0  0
   62.9221   34.8189   47.2820 H   0  0  0  0  0  0  0  0  0  0  0  0
   62.8285   33.8318   45.7429 H   0  0  0  0  0  0  0  0  0  0  0  0
   61.0391   33.7140   48.1881 H   0  0  0  0  0  0  0  0  0  0  0  0
   60.6067   33.9852   46.4564 H   0  0  0  0  0  0  0  0  0  0  0  0
   55.6890   31.5800   45.2450 H   0  0  0  0  0  0  0  0  0  0  0  0
   58.1044   27.9986   47.0985 H   0  0  0  0  0  0  0  0  0  0  0  0
   62.0403   29.4657   51.2692 H   0  0  0  0  0  0  0  0  0  0  0  0
   61.2586   31.8345   51.3126 H   0  0  0  0  0  0  0  0  0  0  0  0
  1  2  1  0
  2  3  2  0
  3  4  1  0
  4  5  2  0
  5  6  1  0
  6  7  1  0
  7  8  1  0
  8  9  2  0
  8 10  1  0
 10 11  2  0
 11 12  1  0
 12 13  2  0
 13 14  1  0
 14 15  1  0
 15 16  1  0
 16 17  2  0
 16 18  1  0
 18 19  1  0
 19 20  1  0
 20 21  1  0
 21 22  1  0
 22 23  1  0
 23 24  1  0
 24 25  1  0
 25 26  1  0
 26 27  1  0
 21 28  2  0
 28 29  1  0
 29 30  1  0
 14 31  2  0
  5 32  1  0
 32 33  2  0
 33  2  1  0
 31 10  1  0
 29 19  2  0
 27 22  1  0
  1 34  1  0
  1 35  1  0
  1 36  1  0
  3 37  1  0
  4 38  1  0
  6 39  1  0
  6 40  1  0
 11 41  1  0
 12 42  1  0
 13 43  1  0
 18 44  1  0
 18 45  1  0
 23 46  1  0
 23 47  1  0
 24 48  1  0
 24 49  1  0
 25 50  1  0
 25 51  1  0
 26 52  1  0
 26 53  1  0
 27 54  1  0
 27 55  1  0
 30 56  1  0
 31 57  1  0
 32 58  1  0
 33 59  1  0
M  CHG  2   7  -1  15  -1
M  END
>  <UniqueID>  (36) 
32

>  <SMILES>  (36) 
Cc1ccc(C[N-]C(=O)c2cccc([N-]C(=O)Cc3sc(N4CCCCC4)nc3O)c2)cc1

>  <Energy>  (36) 
96.62850746790862

>  <Genealogy>  (36) 
Cc1ccc(C[N-]C(=O)c2cccc([N-]C(=O)Cc3sc(N4CCCCC4)nc3O)c2)cc1 (protonated)
Cc1ccc(C[N-]C(=O)c2cccc([N-]C(=O)Cc3sc(N4CCCCC4)nc3O)c2)cc1 (3D coordinates assigned)
Cc1ccc(C[N-]C(=O)c2cccc([N-]C(=O)Cc3sc(N4CCCCC4)nc3O)c2)cc1 (nonaromatic ring conformer: 96.62850746790862 kcal/mol)

>  <smiles>  (36) 
Cc1ccc(CNC(=O)c2cccc(NC(=O)Cc3sc(N4CCCCC4)nc3O)c2)cc1

>  <score_type>  (36) 
oracle

>  <origin>  (36) 
adg

>  <m_score__min__energy>  (36) 
-12.710000000000001

>  <m_primary>  (36) 
energy

$$$$
36:0
     RDKit          3D

 28 29  0  0  0  0  0  0  0  0999 V2000
   57.4478   26.8801   43.5113 H   0  0  0  0  0  0  0  0  0  0  0  0
   57.4360   27.1990   44.5640 C   0  0  0  0  0  0  0  0  0  0  0  0
   57.6820   28.5000   44.8300 C   0  0  0  0  0  0  0  0  0  0  0  0
   56.5400   29.4510   44.8880 C   0  0  0  0  0  0  0  0  0  0  0  0
   55.3540   29.0290   44.8640 O   0  0  0  0  0  0  0  0  0  0  0  0
   56.7600   30.8210   44.9730 O   0  0  0  0  0  0  0  0  0  0  0  0
   59.0730   28.9980   45.1820 C   0  0  0  0  0  0  0  0  0  0  0  0
   59.7775   28.6781   44.4001 H   0  0  0  0  0  0  0  0  0  0  0  0
   59.0437   30.0954   45.2511 H   0  0  0  0  0  0  0  0  0  0  0  0
   59.5280   28.4470   46.5100 C   0  0  0  0  0  0  0  0  0  0  0  0
   59.1810   29.1020   47.7040 C   0  0  0  0  0  0  0  0  0  0  0  0
   58.5859   30.0264   47.6679 H   0  0  0  0  0  0  0  0  0  0  0  0
   59.5880   28.5850   48.9370 C   0  0  0  0  0  0  0  0  0  0  0  0
   59.3110   29.1013   49.8679 H   0  0  0  0  0  0  0  0  0  0  0  0
   60.3470   27.4120   48.9880 C   0  0  0  0  0  0  0  0  0  0  0  0
   60.6639   27.0039   49.9591 H   0  0  0  0  0  0  0  0  0  0  0  0
   60.7030   26.7580   47.8060 C   0  0  0  0  0  0  0  0  0  0  0  0
   61.3021   25.8364   47.8473 H   0  0  0  0  0  0  0  0  0  0  0  0
   60.2990   27.2730   46.5710 C   0  0  0  0  0  0  0  0  0  0  0  0
   60.5856   26.7574   45.6426 H   0  0  0  0  0  0  0  0  0  0  0  0
   57.1530   26.1780   45.5870 C   0  0  0  0  0  0  0  0  0  0  0  0
   55.9410   25.9570   46.1990 C   0  0  0  0  0  0  0  0  0  0  0  0
   54.7920   26.7160   46.0180 O   0  0  0  0  0  0  0  0  0  0  0  0
   56.0110   24.8860   47.0140 N   0  0  0  0  0  0  0  0  0  0  0  0
   57.2860   24.4710   46.8520 C   0  0  0  0  0  0  0  0  0  0  0  0
   57.7570   23.4650   47.4430 O   0  0  0  0  0  0  0  0  0  0  0  0
   58.0040   25.2200   45.9920 N   0  0  0  0  0  0  0  0  0  0  0  0
   58.9850   25.0520   45.6730 H   0  0  0  0  0  0  0  0  0  0  0  0
  1  2  1  0
  2  3  2  0
  3  4  1  0
  4  5  2  0
  4  6  1  0
  3  7  1  0
  7  8  1  0
  7  9  1  0
  7 10  1  0
 10 11  2  0
 11 12  1  0
 11 13  1  0
 13 14  1  0
 13 15  2  0
 15 16  1  0
 15 17  1  0
 17 18  1  0
 17 19  2  0
 19 20  1  0
  2 21  1  0
 21 22  2  0
 22 23  1  0
 22 24  1  0
 24 25  1  0
 25 26  2  0
 25 27  1  0
 27 28  1  0
 19 10  1  0
 27 21  1  0
M  CHG  3   6  -1  23  -1  24  -1
M  END
>  <UniqueID>  (37) 
33

>  <SMILES>  (37) 
O=C([O-])/C(=C/c1[nH]c(=O)[n-]c1[O-])Cc1ccccc1

>  <Energy>  (37) 
64.72646552827294

>  <Genealogy>  (37) 
O=C([O-])C(=Cc1[nH]c(=O)[n-]c1[O-])Cc1ccccc1 (protonated)
O=C([O-])/C(=C/c1[nH]c(=O)[n-]c1[O-])Cc1ccccc1 (cis-trans isomerization)
O=C([O-])/C(=C/c1[nH]c(=O)[n-]c1[O-])Cc1ccccc1 (3D coordinates assigned)
O=C([O-])/C(=C/c1[nH]c(=O)[n-]c1[O-])Cc1ccccc1 (optimized conformer: 64.72646552827294 kcal/mol)

>  <smiles>  (37) 
O=C(O)C(=Cc1[nH]c(=O)[nH]c1O)Cc1ccccc1

>  <score_type>  (37) 
oracle

>  <origin>  (37) 
adg

>  <m_score__min__energy>  (37) 
-14.970000000000001

>  <m_primary>  (37) 
energy

$$$$
37:0
     RDKit          3D

 40 42  0  0  0  0  0  0  0  0999 V2000
   54.0870   24.7420   45.5470 O   0  0  0  0  0  0  0  0  0  0  0  0
   55.2350   25.0050   45.9910 C   0  0  0  0  0  0  0  0  0  0  0  0
   55.6620   26.3710   46.0230 N   0  0  0  0  0  0  0  0  0  0  0  0
   57.0110   26.8100   46.2180 C   0  0  0  0  0  0  0  0  0  0  0  0
   58.1660   26.0540   46.1530 C   0  0  0  0  0  0  0  0  0  0  0  0
   59.2250   26.8790   46.2810 N   0  0  0  0  0  0  0  0  0  0  0  0
   58.7620   28.1140   46.4210 N   0  0  0  0  0  0  0  0  0  0  0  0
   59.6160   29.2920   46.5410 C   0  0  0  0  0  0  0  0  0  0  0  0
   59.6070   30.1180   45.2470 C   0  0  0  0  0  0  0  0  0  0  0  0
   58.8700   31.4340   45.4090 C   0  0  0  0  0  0  0  0  0  0  0  0
   59.5130   32.4730   46.1050 C   0  0  0  0  0  0  0  0  0  0  0  0
   58.8560   33.6820   46.3190 C   0  0  0  0  0  0  0  0  0  0  0  0
   57.5970   33.8660   45.8500 N   0  0  0  0  0  0  0  0  0  0  0  0
   56.9450   32.8970   45.1580 C   0  0  0  0  0  0  0  0  0  0  0  0
   57.5630   31.6610   44.8990 C   0  0  0  0  0  0  0  0  0  0  0  0
   56.8090   30.6300   44.0940 C   0  0  0  0  0  0  0  0  0  0  0  0
   55.5680   30.3790   44.6890 O   0  0  0  0  0  0  0  0  0  0  0  0
   57.4160   28.1130   46.3710 C   0  0  0  0  0  0  0  0  0  0  0  0
   56.0750   23.9130   46.5280 C   0  0  0  0  0  0  0  0  0  0  0  0
   56.2380   23.5690   47.8550 C   0  0  0  0  0  0  0  0  0  0  0  0
   57.0330   22.4860   47.9380 N   0  0  0  0  0  0  0  0  0  0  0  0
   57.3820   22.1200   46.7150 N   0  0  0  0  0  0  0  0  0  0  0  0
   56.8150   22.9680   45.8350 C   0  0  0  0  0  0  0  0  0  0  0  0
   56.9750   22.8500   44.3490 C   0  0  0  0  0  0  0  0  0  0  0  0
   55.8520   22.2540   43.8060 F   0  0  0  0  0  0  0  0  0  0  0  0
   58.0820   22.0770   44.0510 F   0  0  0  0  0  0  0  0  0  0  0  0
   57.1460   24.1050   43.7920 F   0  0  0  0  0  0  0  0  0  0  0  0
   58.2135   24.9632   46.0194 H   0  0  0  0  0  0  0  0  0  0  0  0
   59.2503   29.9176   47.3686 H   0  0  0  0  0  0  0  0  0  0  0  0
   60.6460   28.9575   46.7337 H   0  0  0  0  0  0  0  0  0  0  0  0
   60.6463   30.3283   44.9544 H   0  0  0  0  0  0  0  0  0  0  0  0
   59.0836   29.5318   44.4773 H   0  0  0  0  0  0  0  0  0  0  0  0
   60.5368   32.3305   46.4811 H   0  0  0  0  0  0  0  0  0  0  0  0
   59.3596   34.4899   46.8700 H   0  0  0  0  0  0  0  0  0  0  0  0
   55.9226   33.0808   44.7962 H   0  0  0  0  0  0  0  0  0  0  0  0
   56.6545   31.0062   43.0719 H   0  0  0  0  0  0  0  0  0  0  0  0
   57.3915   29.6974   44.0616 H   0  0  0  0  0  0  0  0  0  0  0  0
   55.7600   30.1020   45.6220 H   0  0  0  0  0  0  0  0  0  0  0  0
   56.7614   28.9943   46.4401 H   0  0  0  0  0  0  0  0  0  0  0  0
   55.7891   24.0966   48.7095 H   0  0  0  0  0  0  0  0  0  0  0  0
  1  2  2  0
  2  3  1  0
  3  4  1  0
  4  5  1  0
  5  6  2  0
  6  7  1  0
  7  8  1  0
  8  9  1  0
  9 10  1  0
 10 11  2  0
 11 12  1  0
 12 13  2  0
 13 14  1  0
 14 15  2  0
 15 16  1  0
 16 17  1  0
  7 18  1  0
  2 19  1  0
 19 20  2  0
 20 21  1  0
 21 22  1  0
 22 23  2  0
 23 24  1  0
 24 25  1  0
 24 26  1  0
 24 27  1  0
 18  4  2  0
 23 19  1  0
 15 10  1  0
  5 28  1  0
  8 29  1  0
  8 30  1  0
  9 31  1  0
  9 32  1  0
 11 33  1  0
 12 34  1  0
 14 35  1  0
 16 36  1  0
 16 37  1  0
 17 38  1  0
 18 39  1  0
 20 40  1  0
M  CHG  2   3  -1  21  -1
M  END
>  <UniqueID>  (38) 
34

>  <SMILES>  (38) 
O=C([N-]c1cnn(CCc2ccncc2CO)c1)c1c[n-]nc1C(F)(F)F

>  <Energy>  (38) 
105.882228127226

>  <Genealogy>  (38) 
O=C([N-]c1cnn(CCc2ccncc2CO)c1)c1c[n-]nc1C(F)(F)F (protonated)
O=C([N-]c1cnn(CCc2ccncc2CO)c1)c1c[n-]nc1C(F)(F)F (3D coordinates assigned)
O=C([N-]c1cnn(CCc2ccncc2CO)c1)c1c[n-]nc1C(F)(F)F (optimized conformer: 105.882228127226 kcal/mol)

>  <smiles>  (38) 
O=C(Nc1cnn(CCc2ccncc2CO)c1)c1c[nH]nc1C(F)(F)F

>  <score_type>  (38) 
oracle

>  <origin>  (38) 
adg

>  <m_score__min__energy>  (38) 
-11.130000000000001

>  <m_primary>  (38) 
energy

$$$$
38:0
     RDKit          3D

 51 54  0  0  0  0  0  0  0  0999 V2000
   58.5020   26.6550   44.8750 C   0  0  0  0  0  0  0  0  0  0  0  0
   58.8520   28.0670   45.2430 C   0  0  0  0  0  0  0  0  0  0  0  0
   60.0440   28.3530   45.9140 C   0  0  0  0  0  0  0  0  0  0  0  0
   60.3370   29.6630   46.2790 C   0  0  0  0  0  0  0  0  0  0  0  0
   59.4280   30.6830   45.9860 C   0  0  0  0  0  0  0  0  0  0  0  0
   59.7280   31.9560   46.3440 N   0  0  0  0  0  0  0  0  0  0  0  0
   58.8860   32.9910   46.1030 C   0  0  0  0  0  0  0  0  0  0  0  0
   59.3200   34.3470   46.5010 C   0  0  0  0  0  0  0  0  0  0  0  0
   58.9370   35.3480   45.8400 O   0  0  0  0  0  0  0  0  0  0  0  0
   60.2800   34.5410   47.5480 N   0  0  0  0  0  0  0  0  0  0  0  0
   61.4610   33.7560   47.7700 C   0  0  0  0  0  0  0  0  0  0  0  0
   62.5500   33.8300   46.8820 C   0  0  0  0  0  0  0  0  0  0  0  0
   63.7100   33.0920   47.1240 C   0  0  0  0  0  0  0  0  0  0  0  0
   63.7920   32.2660   48.2420 C   0  0  0  0  0  0  0  0  0  0  0  0
   62.7090   32.1610   49.1170 C   0  0  0  0  0  0  0  0  0  0  0  0
   61.5300   32.8910   48.8840 C   0  0  0  0  0  0  0  0  0  0  0  0
   60.4250   32.7690   49.8000 N   0  0  0  0  0  0  0  0  0  0  0  0
   59.1790   32.1280   49.3680 C   0  0  0  0  0  0  0  0  0  0  0  0
   58.3660   31.6830   50.5880 C   0  0  0  0  0  0  0  0  0  0  0  0
   58.0620   32.8150   51.4970 N   0  0  0  0  0  0  0  0  0  0  0  0
   57.7050   32.3120   52.8330 C   0  0  0  0  0  0  0  0  0  0  0  0
   59.1260   33.8510   51.5800 C   0  0  0  0  0  0  0  0  0  0  0  0
   60.5050   33.3360   51.1520 C   0  0  0  0  0  0  0  0  0  0  0  0
   57.6520   32.7350   45.4740 C   0  0  0  0  0  0  0  0  0  0  0  0
   56.6970   33.7310   45.2550 O   0  0  0  0  0  0  0  0  0  0  0  0
   57.3590   31.4210   45.0840 C   0  0  0  0  0  0  0  0  0  0  0  0
   56.2610   31.1900   44.5030 O   0  0  0  0  0  0  0  0  0  0  0  0
   58.2440   30.4020   45.3410 N   0  0  0  0  0  0  0  0  0  0  0  0
   57.9540   29.1100   44.9760 C   0  0  0  0  0  0  0  0  0  0  0  0
   58.3553   26.0631   45.7905 H   0  0  0  0  0  0  0  0  0  0  0  0
   57.5753   26.6495   44.2824 H   0  0  0  0  0  0  0  0  0  0  0  0
   59.3188   26.2173   44.2824 H   0  0  0  0  0  0  0  0  0  0  0  0
   60.7494   27.5436   46.1532 H   0  0  0  0  0  0  0  0  0  0  0  0
   61.2799   29.8948   46.7959 H   0  0  0  0  0  0  0  0  0  0  0  0
   62.4869   34.4732   45.9919 H   0  0  0  0  0  0  0  0  0  0  0  0
   64.5607   33.1631   46.4303 H   0  0  0  0  0  0  0  0  0  0  0  0
   64.7119   31.6950   48.4363 H   0  0  0  0  0  0  0  0  0  0  0  0
   62.7786   31.5023   49.9952 H   0  0  0  0  0  0  0  0  0  0  0  0
   58.5875   32.8432   48.7777 H   0  0  0  0  0  0  0  0  0  0  0  0
   59.4207   31.2470   48.7553 H   0  0  0  0  0  0  0  0  0  0  0  0
   57.4197   31.2414   50.2422 H   0  0  0  0  0  0  0  0  0  0  0  0
   58.9665   30.9504   51.1472 H   0  0  0  0  0  0  0  0  0  0  0  0
   58.1610   32.9545   53.6006 H   0  0  0  0  0  0  0  0  0  0  0  0
   56.6111   32.3226   52.9485 H   0  0  0  0  0  0  0  0  0  0  0  0
   58.0760   31.2829   52.9485 H   0  0  0  0  0  0  0  0  0  0  0  0
   58.8480   34.6908   50.9262 H   0  0  0  0  0  0  0  0  0  0  0  0
   59.2037   34.1561   52.6340 H   0  0  0  0  0  0  0  0  0  0  0  0
   61.2238   34.1686   51.1571 H   0  0  0  0  0  0  0  0  0  0  0  0
   60.8364   32.5569   51.8542 H   0  0  0  0  0  0  0  0  0  0  0  0
   56.8660   34.7130   45.4270 H   0  0  0  0  0  0  0  0  0  0  0  0
   57.0038   28.8906   44.4671 H   0  0  0  0  0  0  0  0  0  0  0  0
  1  2  1  0
  2  3  1  0
  3  4  2  0
  4  5  1  0
  5  6  2  0
  6  7  1  0
  7  8  1  0
  8  9  2  0
  8 10  1  0
 10 11  1  0
 11 12  2  0
 12 13  1  0
 13 14  2  0
 14 15  1  0
 15 16  2  0
 16 17  1  0
 17 18  1  0
 18 19  1  0
 19 20  1  0
 20 21  1  0
 20 22  1  0
 22 23  1  0
  7 24  2  0
 24 25  1  0
 24 26  1  0
 26 27  2  0
 26 28  1  0
 28 29  1  0
 29  2  2  0
 28  5  1  0
 16 11  1  0
 23 17  1  0
  1 30  1  0
  1 31  1  0
  1 32  1  0
  3 33  1  0
  4 34  1  0
 12 35  1  0
 13 36  1  0
 14 37  1  0
 15 38  1  0
 18 39  1  0
 18 40  1  0
 19 41  1  0
 19 42  1  0
 21 43  1  0
 21 44  1  0
 21 45  1  0
 22 46  1  0
 22 47  1  0
 23 48  1  0
 23 49  1  0
 25 50  1  0
 29 51  1  0
M  CHG  1  10  -1
M  END
>  <UniqueID>  (39) 
35

>  <SMILES>  (39) 
Cc1ccc2nc(C(=O)[N-]c3ccccc3N3CCN(C)CC3)c(O)c(=O)n2c1

>  <Energy>  (39) 
79.06441396825464

>  <Genealogy>  (39) 
Cc1ccc2nc(C(=O)[N-]c3ccccc3N3CCN(C)CC3)c(O)c(=O)n2c1 (protonated)
Cc1ccc2nc(C(=O)[N-]c3ccccc3N3CCN(C)CC3)c(O)c(=O)n2c1 (3D coordinates assigned)
Cc1ccc2nc(C(=O)[N-]c3ccccc3N3CCN(C)CC3)c(O)c(=O)n2c1 (nonaromatic ring conformer: 79.06441396825464 kcal/mol)

>  <smiles>  (39) 
Cc1ccc2nc(C(=O)Nc3ccccc3N3CCN(C)CC3)c(O)c(=O)n2c1

>  <score_type>  (39) 
oracle

>  <origin>  (39) 
adg

>  <m_score__min__energy>  (39) 
-8.7599999999999998

>  <m_primary>  (39) 
energy

$$$$
39:0
     RDKit          3D

 71 76  0  0  1  0  0  0  0  0999 V2000
   60.7530   28.1990   45.2380 C   0  0  0  0  0  0  0  0  0  0  0  0
   59.9340   27.2890   45.6650 O   0  0  0  0  0  0  0  0  0  0  0  0
   59.1210   26.3780   46.0800 C   0  0  0  0  0  0  0  0  0  0  0  0
   58.4470   25.5360   45.1830 C   0  0  0  0  0  0  0  0  0  0  0  0
   57.5760   24.5610   45.6080 C   0  0  0  0  0  0  0  0  0  0  0  0
   56.8680   23.6910   44.7460 N   0  0  0  0  0  0  0  0  0  0  0  0
   56.6920   24.0480   43.3300 C   0  0  0  0  0  0  0  0  0  0  0  0
   55.7070   23.0420   42.7610 C   0  0  0  0  0  0  0  0  0  0  0  0
   56.1770   21.7470   42.8510 O   0  0  0  0  0  0  0  0  0  0  0  0
   56.6440   21.4010   44.0950 C   0  0  0  0  0  0  0  0  0  0  0  0
   56.2820   22.4320   45.1510 C   0  0  0  0  0  0  0  0  0  0  0  0
   57.3890   24.4390   46.9650 C   0  0  0  0  0  0  0  0  0  0  0  0
   58.0110   25.2230   47.9090 C   0  0  0  0  0  0  0  0  0  0  0  0
   58.8760   26.1920   47.4510 C   0  0  0  0  0  0  0  0  0  0  0  0
   58.0210   30.8790   46.6570 N   0  0  0  0  0  0  0  0  0  0  0  0
   58.9630   30.3490   47.2850 C   0  0  0  0  0  0  0  0  0  0  0  0
   60.7690   28.9040   48.7150 N   0  0  0  0  0  0  0  0  0  0  0  0
   60.9390   30.1950   48.5400 C   0  0  0  0  0  0  0  0  0  0  0  0
   60.0490   31.0190   47.8080 C   0  0  0  0  0  0  0  0  0  0  0  0
   59.7190   28.3090   48.1940 C   0  0  0  0  0  0  0  0  0  0  0  0
   59.5610   27.0490   48.3680 N   0  0  0  0  0  0  0  0  0  0  0  0
   58.1120   31.4750   45.4110 C   0  0  0  0  0  0  0  0  0  0  0  0
   58.7230   32.7260   45.3210 C   0  0  0  0  0  0  0  0  0  0  0  0
   58.7090   33.3250   44.0670 C   0  0  0  0  0  0  0  0  0  0  0  0
   58.1250   32.7140   42.9930 C   0  0  0  0  0  0  0  0  0  0  0  0
   57.5190   31.4800   43.0720 C   0  0  0  0  0  0  0  0  0  0  0  0
   57.5210   30.8550   44.3250 C   0  0  0  0  0  0  0  0  0  0  0  0
   56.7710   29.2890   44.5360 S   0  0  0  0  0  0  0  0  0  0  0  0
   57.6140   28.1220   43.4730 C   0  0  0  0  0  0  0  0  0  0  0  0
   55.3170   29.3480   44.2310 O   0  0  0  0  0  0  0  0  0  0  0  0
   56.9050   28.8100   45.9570 O   0  0  0  0  0  0  0  0  0  0  0  0
   58.8350   28.9960   47.4990 N   0  0  0  0  0  0  0  0  0  0  0  0
   60.5750   32.2970   47.7850 C   0  0  2  0  0  0  0  0  0  0  0  0
   61.1370   32.3310   49.2510 C   0  0  0  0  0  0  0  0  0  0  0  0
   62.0180   31.0830   49.1060 C   0  0  0  0  0  0  0  0  0  0  0  0
   60.3870   33.6370   47.5120 C   0  0  0  0  0  0  0  0  0  0  0  0
   61.6880   34.2000   47.8910 O   0  0  0  0  0  0  0  0  0  0  0  0
   62.5830   33.3870   47.2040 C   0  0  0  0  0  0  0  0  0  0  0  0
   63.7770   33.6810   46.8070 N   0  0  0  0  0  0  0  0  0  0  0  0
   61.8770   32.1370   47.0360 N   0  0  0  0  0  0  0  0  0  0  0  0
   61.2131   28.7102   46.0965 H   0  0  0  0  0  0  0  0  0  0  0  0
   61.5380   27.7286   44.6276 H   0  0  0  0  0  0  0  0  0  0  0  0
   60.2028   28.9302   44.6276 H   0  0  0  0  0  0  0  0  0  0  0  0
   58.6212   25.6600   44.1040 H   0  0  0  0  0  0  0  0  0  0  0  0
   56.2902   25.0681   43.2406 H   0  0  0  0  0  0  0  0  0  0  0  0
   57.6488   24.0243   42.7878 H   0  0  0  0  0  0  0  0  0  0  0  0
   54.7621   23.1160   43.3193 H   0  0  0  0  0  0  0  0  0  0  0  0
   55.5608   23.2761   41.6962 H   0  0  0  0  0  0  0  0  0  0  0  0
   56.2071   20.4328   44.3807 H   0  0  0  0  0  0  0  0  0  0  0  0
   57.7412   21.3445   44.0402 H   0  0  0  0  0  0  0  0  0  0  0  0
   55.1887   22.5313   45.2202 H   0  0  0  0  0  0  0  0  0  0  0  0
   56.6612   22.1269   46.1375 H   0  0  0  0  0  0  0  0  0  0  0  0
   56.6954   23.6623   47.3195 H   0  0  0  0  0  0  0  0  0  0  0  0
   57.8254   25.0819   48.9840 H   0  0  0  0  0  0  0  0  0  0  0  0
   61.4640   28.3340   49.2690 H   0  0  0  0  0  0  0  0  0  0  0  0
   59.1888   33.2101   46.1920 H   0  0  0  0  0  0  0  0  0  0  0  0
   59.1778   34.3115   43.9362 H   0  0  0  0  0  0  0  0  0  0  0  0
   58.1397   33.2310   42.0222 H   0  0  0  0  0  0  0  0  0  0  0  0
   57.0557   31.0080   42.1931 H   0  0  0  0  0  0  0  0  0  0  0  0
   58.1474   27.3835   44.0895 H   0  0  0  0  0  0  0  0  0  0  0  0
   56.8783   27.6067   42.8380 H   0  0  0  0  0  0  0  0  0  0  0  0
   58.3344   28.6585   42.8380 H   0  0  0  0  0  0  0  0  0  0  0  0
   58.0100   28.4670   47.1030 H   0  0  0  0  0  0  0  0  0  0  0  0
   61.7181   33.2405   49.4636 H   0  0  0  0  0  0  0  0  0  0  0  0
   60.4048   32.3390   50.0719 H   0  0  0  0  0  0  0  0  0  0  0  0
   62.8552   31.2323   48.4083 H   0  0  0  0  0  0  0  0  0  0  0  0
   62.5388   30.7283   50.0076 H   0  0  0  0  0  0  0  0  0  0  0  0
   60.1727   33.8034   46.4460 H   0  0  0  0  0  0  0  0  0  0  0  0
   59.5335   34.0863   48.0409 H   0  0  0  0  0  0  0  0  0  0  0  0
   64.5250   32.9770   46.9880 H   0  0  0  0  0  0  0  0  0  0  0  0
   62.1980   31.3110   46.5110 H   0  0  0  0  0  0  0  0  0  0  0  0
  1  2  1  0
  2  3  1  0
  3  4  2  0
  4  5  1  0
  5  6  1  0
  6  7  1  0
  7  8  1  0
  8  9  1  0
  9 10  1  0
 10 11  1  0
  5 12  2  0
 12 13  1  0
 13 14  2  0
 14 15  1  0
 15 16  2  0
 16 17  1  0
 17 18  1  0
 18 19  2  0
 19 20  1  0
 20 21  2  0
 21 22  1  0
 22 23  2  0
 23 24  1  0
 24 25  2  0
 25 26  1  0
 26 27  2  0
 27 28  1  0
 28 29  1  0
 28 30  2  0
 28 31  2  0
 20 32  1  0
 19 33  1  0
 33 34  1  0
 34 35  1  0
 33 36  1  0
 36 37  1  0
 37 38  1  0
 38 39  2  3
 38 40  1  0
 14  3  1  0
 32 16  1  0
 33 40  1  6
 11  6  1  0
 35 18  1  0
 27 22  1  0
  1 41  1  0
  1 42  1  0
  1 43  1  0
  4 44  1  0
  7 45  1  0
  7 46  1  0
  8 47  1  0
  8 48  1  0
 10 49  1  0
 10 50  1  0
 11 51  1  0
 11 52  1  0
 12 53  1  0
 13 54  1  0
 17 55  1  0
 23 56  1  0
 24 57  1  0
 25 58  1  0
 26 59  1  0
 29 60  1  0
 29 61  1  0
 29 62  1  0
 32 63  1  0
 34 64  1  0
 34 65  1  0
 35 66  1  0
 35 67  1  0
 36 68  1  0
 36 69  1  0
 39 70  1  0
 40 71  1  0
M  END
>  <smiles>  (40) 
COc1cc(N2CCOCC2)ccc1N=c1[nH]c2c(c(=Nc3ccccc3S(C)(=O)=O)[nH]1)C1(CC2)COC(=N)N1

>  <score_type>  (40) 
oracle

>  <origin>  (40) 
adg

>  <m_score__min__energy>  (40) 
-10.08

>  <m_primary>  (40) 
energy

$$$$
40:0
     RDKit          3D

 60 63  0  0  0  0  0  0  0  0999 V2000
   57.4230   29.6730   51.6190 O   0  0  0  0  0  0  0  0  0  0  0  0
   56.7290   30.7170   51.7560 C   0  0  0  0  0  0  0  0  0  0  0  0
   57.2580   31.9950   51.3610 N   0  0  0  0  0  0  0  0  0  0  0  0
   58.6410   32.2080   51.0240 C   0  0  0  0  0  0  0  0  0  0  0  0
   59.6720   31.6080   51.7640 C   0  0  0  0  0  0  0  0  0  0  0  0
   61.0070   31.8260   51.4150 C   0  0  0  0  0  0  0  0  0  0  0  0
   61.3250   32.6530   50.3380 C   0  0  0  0  0  0  0  0  0  0  0  0
   60.3100   33.2950   49.6100 C   0  0  0  0  0  0  0  0  0  0  0  0
   60.6620   34.1900   48.4380 C   0  0  0  0  0  0  0  0  0  0  0  0
   60.0060   33.7980   47.1690 N   0  0  0  0  0  0  0  0  0  0  0  0
   58.9070   34.7060   46.7630 C   0  0  0  0  0  0  0  0  0  0  0  0
   58.1240   34.1210   45.5840 C   0  0  0  0  0  0  0  0  0  0  0  0
   57.4320   32.7980   45.9880 C   0  0  0  0  0  0  0  0  0  0  0  0
   57.2200   31.9350   44.7590 C   0  0  0  0  0  0  0  0  0  0  0  0
   57.4430   32.4210   43.6170 O   0  0  0  0  0  0  0  0  0  0  0  0
   56.6890   30.6040   44.8390 N   0  0  0  0  0  0  0  0  0  0  0  0
   57.4210   29.3660   44.5700 C   0  0  0  0  0  0  0  0  0  0  0  0
   57.0660   28.2870   45.6280 C   0  0  0  0  0  0  0  0  0  0  0  0
   58.0950   28.2300   46.7610 C   0  0  0  0  0  0  0  0  0  0  0  0
   59.4980   27.8790   46.2290 C   0  0  0  0  0  0  0  0  0  0  0  0
   59.7790   28.4410   44.8190 C   0  0  0  0  0  0  0  0  0  0  0  0
   58.9330   29.6830   44.5200 C   0  0  0  0  0  0  0  0  0  0  0  0
   58.2090   32.0440   47.1000 C   0  0  0  0  0  0  0  0  0  0  0  0
   59.7150   32.3470   47.0430 C   0  0  0  0  0  0  0  0  0  0  0  0
   58.9670   33.0620   49.9600 C   0  0  0  0  0  0  0  0  0  0  0  0
   55.3520   30.5960   52.2680 C   0  0  0  0  0  0  0  0  0  0  0  0
   54.9690   30.2580   53.5630 C   0  0  0  0  0  0  0  0  0  0  0  0
   53.5780   30.2200   53.7380 C   0  0  0  0  0  0  0  0  0  0  0  0
   52.8610   30.5250   52.5870 C   0  0  0  0  0  0  0  0  0  0  0  0
   53.9600   30.8320   51.3490 S   0  0  0  0  0  0  0  0  0  0  0  0
   56.5870   32.7750   51.1750 H   0  0  0  0  0  0  0  0  0  0  0  0
   59.4279   30.9639   52.6217 H   0  0  0  0  0  0  0  0  0  0  0  0
   61.8101   31.3437   51.9916 H   0  0  0  0  0  0  0  0  0  0  0  0
   62.3778   32.8034   50.0569 H   0  0  0  0  0  0  0  0  0  0  0  0
   60.3573   35.2182   48.6829 H   0  0  0  0  0  0  0  0  0  0  0  0
   61.7467   34.0991   48.2796 H   0  0  0  0  0  0  0  0  0  0  0  0
   58.2244   34.8485   47.6137 H   0  0  0  0  0  0  0  0  0  0  0  0
   59.3413   35.6683   46.4543 H   0  0  0  0  0  0  0  0  0  0  0  0
   57.3600   34.8446   45.2636 H   0  0  0  0  0  0  0  0  0  0  0  0
   58.8251   33.9159   44.7616 H   0  0  0  0  0  0  0  0  0  0  0  0
   56.4497   33.0405   46.4195 H   0  0  0  0  0  0  0  0  0  0  0  0
   57.1292   28.9491   43.5948 H   0  0  0  0  0  0  0  0  0  0  0  0
   56.0800   28.5208   46.0559 H   0  0  0  0  0  0  0  0  0  0  0  0
   57.0613   27.3086   45.1253 H   0  0  0  0  0  0  0  0  0  0  0  0
   58.1355   29.2108   47.2574 H   0  0  0  0  0  0  0  0  0  0  0  0
   57.7872   27.4466   47.4692 H   0  0  0  0  0  0  0  0  0  0  0  0
   60.2464   28.2891   46.9230 H   0  0  0  0  0  0  0  0  0  0  0  0
   59.5526   26.7827   46.1577 H   0  0  0  0  0  0  0  0  0  0  0  0
   60.8432   28.7103   44.7491 H   0  0  0  0  0  0  0  0  0  0  0  0
   59.5172   27.6652   44.0844 H   0  0  0  0  0  0  0  0  0  0  0  0
   59.1603   30.4581   45.2667 H   0  0  0  0  0  0  0  0  0  0  0  0
   59.1786   30.0310   43.5058 H   0  0  0  0  0  0  0  0  0  0  0  0
   57.8193   32.3542   48.0808 H   0  0  0  0  0  0  0  0  0  0  0  0
   58.0693   30.9639   46.9454 H   0  0  0  0  0  0  0  0  0  0  0  0
   60.2139   31.8139   47.8658 H   0  0  0  0  0  0  0  0  0  0  0  0
   60.0871   32.0143   46.0628 H   0  0  0  0  0  0  0  0  0  0  0  0
   58.1638   33.5551   49.3928 H   0  0  0  0  0  0  0  0  0  0  0  0
   55.6860   30.0422   54.3688 H   0  0  0  0  0  0  0  0  0  0  0  0
   53.0991   29.9720   54.6967 H   0  0  0  0  0  0  0  0  0  0  0  0
   51.7650   30.5598   52.5000 H   0  0  0  0  0  0  0  0  0  0  0  0
  1  2  2  0
  2  3  1  0
  3  4  1  0
  4  5  2  0
  5  6  1  0
  6  7  2  0
  7  8  1  0
  8  9  1  0
  9 10  1  0
 10 11  1  0
 11 12  1  0
 12 13  1  0
 13 14  1  0
 14 15  2  0
 14 16  1  0
 16 17  1  0
 17 18  1  0
 18 19  1  0
 19 20  1  0
 20 21  1  0
 21 22  1  0
 13 23  1  0
 23 24  1  0
  8 25  2  0
  2 26  1  0
 26 27  2  0
 27 28  1  0
 28 29  2  0
 29 30  1  0
 25  4  1  0
 30 26  1  0
 24 10  1  0
 22 17  1  0
  3 31  1  0
  5 32  1  0
  6 33  1  0
  7 34  1  0
  9 35  1  0
  9 36  1  0
 11 37  1  0
 11 38  1  0
 12 39  1  0
 12 40  1  0
 13 41  1  0
 17 42  1  0
 18 43  1  0
 18 44  1  0
 19 45  1  0
 19 46  1  0
 20 47  1  0
 20 48  1  0
 21 49  1  0
 21 50  1  0
 22 51  1  0
 22 52  1  0
 23 53  1  0
 23 54  1  0
 24 55  1  0
 24 56  1  0
 25 57  1  0
 27 58  1  0
 28 59  1  0
 29 60  1  0
M  CHG  1  16  -1
M  END
>  <UniqueID>  (41) 
36

>  <SMILES>  (41) 
O=C(Nc1cccc(CN2CCC(C(=O)[N-]C3CCCCC3)CC2)c1)c1cccs1

>  <Energy>  (41) 
102.66788355257944

>  <Genealogy>  (41) 
O=C(Nc1cccc(CN2CCC(C(=O)[N-]C3CCCCC3)CC2)c1)c1cccs1 (protonated)
O=C(Nc1cccc(CN2CCC(C(=O)[N-]C3CCCCC3)CC2)c1)c1cccs1 (3D coordinates assigned)
O=C(Nc1cccc(CN2CCC(C(=O)[N-]C3CCCCC3)CC2)c1)c1cccs1 (nonaromatic ring conformer: 102.66788355257944 kcal/mol)

>  <smiles>  (41) 
O=C(Nc1cccc(CN2CCC(C(=O)NC3CCCCC3)CC2)c1)c1cccs1

>  <score_type>  (41) 
oracle

>  <origin>  (41) 
adg

>  <m_score__min__energy>  (41) 
-11.289999999999999

>  <m_primary>  (41) 
energy

$$$$
41:0
     RDKit          3D

 39 41  0  0  0  0  0  0  0  0999 V2000
   60.5830   29.9220   45.8880 O   0  0  0  0  0  0  0  0  0  0  0  0
   59.3560   30.1360   45.6940 C   0  0  0  0  0  0  0  0  0  0  0  0
   58.8600   31.5320   45.7100 C   0  0  0  0  0  0  0  0  0  0  0  0
   59.3890   32.4800   46.6040 C   0  0  0  0  0  0  0  0  0  0  0  0
   58.9230   33.7990   46.5940 C   0  0  0  0  0  0  0  0  0  0  0  0
   57.9350   34.1860   45.6850 C   0  0  0  0  0  0  0  0  0  0  0  0
   57.4150   33.2560   44.7810 C   0  0  0  0  0  0  0  0  0  0  0  0
   57.8790   31.9360   44.7870 C   0  0  0  0  0  0  0  0  0  0  0  0
   58.4650   28.9840   45.4470 C   0  0  0  0  0  0  0  0  0  0  0  0
   58.1970   28.3750   44.2320 C   0  0  0  0  0  0  0  0  0  0  0  0
   57.3770   27.3250   44.4200 N   0  0  0  0  0  0  0  0  0  0  0  0
   57.1280   27.2510   45.7420 C   0  0  0  0  0  0  0  0  0  0  0  0
   56.2760   26.2260   46.3630 C   0  0  0  0  0  0  0  0  0  0  0  0
   56.7040   25.5670   47.3480 O   0  0  0  0  0  0  0  0  0  0  0  0
   54.9630   25.9840   45.8470 N   0  0  0  0  0  0  0  0  0  0  0  0
   54.4160   24.6490   45.6270 C   0  0  0  0  0  0  0  0  0  0  0  0
   55.4460   23.7630   44.9820 C   0  0  0  0  0  0  0  0  0  0  0  0
   55.5490   23.7110   43.5830 C   0  0  0  0  0  0  0  0  0  0  0  0
   56.5190   22.9060   42.9770 C   0  0  0  0  0  0  0  0  0  0  0  0
   57.3930   22.1510   43.7630 C   0  0  0  0  0  0  0  0  0  0  0  0
   57.3030   22.2010   45.1610 C   0  0  0  0  0  0  0  0  0  0  0  0
   58.1730   21.4560   45.9550 O   0  0  0  0  0  0  0  0  0  0  0  0
   56.3330   23.0060   45.7670 C   0  0  0  0  0  0  0  0  0  0  0  0
   57.7930   28.2600   46.4150 C   0  0  0  0  0  0  0  0  0  0  0  0
   60.1737   32.1826   47.3152 H   0  0  0  0  0  0  0  0  0  0  0  0
   59.3350   34.5325   47.3027 H   0  0  0  0  0  0  0  0  0  0  0  0
   57.5666   35.2225   45.6810 H   0  0  0  0  0  0  0  0  0  0  0  0
   56.6395   33.5622   44.0634 H   0  0  0  0  0  0  0  0  0  0  0  0
   57.4743   31.2105   44.0660 H   0  0  0  0  0  0  0  0  0  0  0  0
   58.5948   28.7009   43.2596 H   0  0  0  0  0  0  0  0  0  0  0  0
   57.0180   26.6860   43.6770 H   0  0  0  0  0  0  0  0  0  0  0  0
   54.1178   24.2153   46.5929 H   0  0  0  0  0  0  0  0  0  0  0  0
   53.5427   24.7250   44.9626 H   0  0  0  0  0  0  0  0  0  0  0  0
   54.8641   24.3058   42.9608 H   0  0  0  0  0  0  0  0  0  0  0  0
   56.5938   22.8673   41.8802 H   0  0  0  0  0  0  0  0  0  0  0  0
   58.1531   21.5162   43.2841 H   0  0  0  0  0  0  0  0  0  0  0  0
   58.7150   20.6920   45.5720 H   0  0  0  0  0  0  0  0  0  0  0  0
   56.2638   23.0470   46.8641 H   0  0  0  0  0  0  0  0  0  0  0  0
   57.7883   28.4482   47.4988 H   0  0  0  0  0  0  0  0  0  0  0  0
  1  2  2  0
  2  3  1  0
  3  4  2  0
  4  5  1  0
  5  6  2  0
  6  7  1  0
  7  8  2  0
  2  9  1  0
  9 10  2  0
 10 11  1  0
 11 12  1  0
 12 13  1  0
 13 14  2  0
 13 15  1  0
 15 16  1  0
 16 17  1  0
 17 18  2  0
 18 19  1  0
 19 20  2  0
 20 21  1  0
 21 22  1  0
 21 23  2  0
 12 24  2  0
  8  3  1  0
 24  9  1  0
 23 17  1  0
  4 25  1  0
  5 26  1  0
  6 27  1  0
  7 28  1  0
  8 29  1  0
 10 30  1  0
 11 31  1  0
 16 32  1  0
 16 33  1  0
 18 34  1  0
 19 35  1  0
 20 36  1  0
 22 37  1  0
 23 38  1  0
 24 39  1  0
M  CHG  1  15  -1
M  END
>  <UniqueID>  (42) 
37

>  <SMILES>  (42) 
O=C(c1ccccc1)c1c[nH]c(C(=O)[N-]Cc2cccc(O)c2)c1

>  <Energy>  (42) 
67.87484107752442

>  <Genealogy>  (42) 
O=C(c1ccccc1)c1c[nH]c(C(=O)[N-]Cc2cccc(O)c2)c1 (protonated)
O=C(c1ccccc1)c1c[nH]c(C(=O)[N-]Cc2cccc(O)c2)c1 (3D coordinates assigned)
O=C(c1ccccc1)c1c[nH]c(C(=O)[N-]Cc2cccc(O)c2)c1 (optimized conformer: 67.87484107752442 kcal/mol)

>  <smiles>  (42) 
O=C(c1ccccc1)c1c[nH]c(C(=O)NCc2cccc(O)c2)c1

>  <score_type>  (42) 
oracle

>  <origin>  (42) 
adg

>  <m_score__min__energy>  (42) 
-11.140000000000001

>  <m_primary>  (42) 
energy

$$$$
42:0
     RDKit          3D

 39 43  0  0  0  0  0  0  0  0999 V2000
   52.5204   31.6921   53.4856 H   0  0  0  0  0  0  0  0  0  0  0  0
   52.7080   30.9170   52.7280 C   0  0  0  0  0  0  0  0  0  0  0  0
   52.0160   31.0340   51.4330 C   0  0  0  0  0  0  0  0  0  0  0  0
   52.1190   30.1140   50.4570 N   0  0  0  0  0  0  0  0  0  0  0  0
   51.4050   30.6490   49.4440 C   0  0  0  0  0  0  0  0  0  0  0  0
   51.2550   30.0660   48.3390 O   0  0  0  0  0  0  0  0  0  0  0  0
   50.8750   31.8640   49.7040 N   0  0  0  0  0  0  0  0  0  0  0  0
   51.2790   32.0990   50.9620 C   0  0  0  0  0  0  0  0  0  0  0  0
   51.0250   33.2840   51.6410 O   0  0  0  0  0  0  0  0  0  0  0  0
   53.5530   29.9230   53.0400 C   0  0  0  0  0  0  0  0  0  0  0  0
   53.2770   28.6740   53.5880 C   0  0  0  0  0  0  0  0  0  0  0  0
   52.2814   28.3143   53.8871 H   0  0  0  0  0  0  0  0  0  0  0  0
   54.4290   27.9730   53.6940 N   0  0  0  0  0  0  0  0  0  0  0  0
   54.4790   27.0050   54.0670 H   0  0  0  0  0  0  0  0  0  0  0  0
   55.4240   28.7210   53.2290 N   0  0  0  0  0  0  0  0  0  0  0  0
   56.7700   28.4680   53.1150 C   0  0  0  0  0  0  0  0  0  0  0  0
   57.3490   27.3590   53.4840 N   0  0  0  0  0  0  0  0  0  0  0  0
   57.3550   26.7050   54.7860 C   0  0  0  0  0  0  0  0  0  0  0  0
   57.5800   27.5894   55.4001 H   0  0  0  0  0  0  0  0  0  0  0  0
   56.3700   25.5510   54.8410 C   0  0  0  0  0  0  0  0  0  0  0  0
   55.8179   25.3428   55.7693 H   0  0  0  0  0  0  0  0  0  0  0  0
   55.4920   25.2488   54.2512 H   0  0  0  0  0  0  0  0  0  0  0  0
   57.8620   25.2740   54.7660 C   0  0  0  0  0  0  0  0  0  0  0  0
   58.3902   24.8653   55.6400 H   0  0  0  0  0  0  0  0  0  0  0  0
   58.5120   24.6882   54.0994 H   0  0  0  0  0  0  0  0  0  0  0  0
   57.5530   29.4470   52.5850 N   0  0  0  0  0  0  0  0  0  0  0  0
   57.0240   30.6370   52.1790 C   0  0  0  0  0  0  0  0  0  0  0  0
   57.8730   31.6390   51.6270 N   0  0  0  0  0  0  0  0  0  0  0  0
   58.5190   31.9270   50.3350 C   0  0  0  0  0  0  0  0  0  0  0  0
   59.2365   31.1487   50.0359 H   0  0  0  0  0  0  0  0  0  0  0  0
   57.8679   31.9837   49.4502 H   0  0  0  0  0  0  0  0  0  0  0  0
   59.1870   33.1910   50.7720 C   0  0  0  0  0  0  0  0  0  0  0  0
   60.2867   33.1681   50.7818 H   0  0  0  0  0  0  0  0  0  0  0  0
   59.0895   34.1517   50.2452 H   0  0  0  0  0  0  0  0  0  0  0  0
   58.5240   32.8820   52.0740 C   0  0  0  0  0  0  0  0  0  0  0  0
   59.2445   32.7148   52.8882 H   0  0  0  0  0  0  0  0  0  0  0  0
   57.8760   33.6604   52.5033 H   0  0  0  0  0  0  0  0  0  0  0  0
   55.6910   30.8700   52.2980 N   0  0  0  0  0  0  0  0  0  0  0  0
   54.9150   29.8950   52.8260 C   0  0  0  0  0  0  0  0  0  0  0  0
  1  2  1  0
  2  3  1  0
  3  4  1  0
  4  5  1  0
  5  6  2  0
  5  7  1  0
  7  8  1  0
  8  9  1  0
  2 10  2  0
 10 11  1  0
 11 12  1  0
 11 13  2  0
 13 14  1  0
 13 15  1  0
 15 16  1  0
 16 17  2  0
 17 18  1  0
 18 19  1  0
 18 20  1  0
 20 21  1  0
 20 22  1  0
 20 23  1  0
 23 24  1  0
 23 25  1  0
 16 26  1  0
 26 27  2  0
 27 28  1  0
 28 29  1  0
 29 30  1  0
 29 31  1  0
 29 32  1  0
 32 33  1  0
 32 34  1  0
 32 35  1  0
 35 36  1  0
 35 37  1  0
 27 38  1  0
 38 39  2  0
  8  3  2  0
 39 10  1  0
 39 15  1  0
 23 18  1  0
 35 28  1  0
M  CHG  4   4  -1   7  -1   9  -1  13   1
M  END
>  <UniqueID>  (43) 
38

>  <SMILES>  (43) 
O=c1[n-]c([O-])c(/C=c2\c[nH+]n3/c(=N\C4CC4)nc(N4CCC4)nc23)[n-]1

>  <Energy>  (43) 
432.02123353476304

>  <Genealogy>  (43) 
O=c1[n-]c([O-])c(C=c2c[nH+]n3c(=NC4CC4)nc(N4CCC4)nc23)[n-]1 (protonated)
O=c1[n-]c([O-])c(/C=c2\c[nH+]n3/c(=N\C4CC4)nc(N4CCC4)nc23)[n-]1 (cis-trans isomerization)
O=c1[n-]c([O-])c(/C=c2\c[nH+]n3/c(=N\C4CC4)nc(N4CCC4)nc23)[n-]1 (3D coordinates assigned)
O=c1[n-]c([O-])c(/C=c2\c[nH+]n3/c(=N\C4CC4)nc(N4CCC4)nc23)[n-]1 (nonaromatic ring conformer: 432.02123353476304 kcal/mol)

>  <smiles>  (43) 
O=c1[nH]c(O)c(C=c2cnn3c(=NC4CC4)nc(N4CCC4)nc23)[nH]1

>  <score_type>  (43) 
oracle

>  <origin>  (43) 
adg

>  <m_score__min__energy>  (43) 
-14.17

>  <m_primary>  (43) 
energy

$$$$
43:0
     RDKit          3D

 36 37  0  0  0  0  0  0  0  0999 V2000
   55.1460   28.0420   44.9380 H   0  0  0  0  0  0  0  0  0  0  0  0
   55.4370   28.9780   44.6890 O   0  0  0  0  0  0  0  0  0  0  0  0
   56.5570   29.6130   45.2300 C   0  0  0  0  0  0  0  0  0  0  0  0
   56.7460   30.9220   44.9350 N   0  0  0  0  0  0  0  0  0  0  0  0
   57.7820   31.6320   45.4430 C   0  0  0  0  0  0  0  0  0  0  0  0
   57.8920   32.8520   45.1420 O   0  0  0  0  0  0  0  0  0  0  0  0
   58.6820   31.0340   46.2820 N   0  0  0  0  0  0  0  0  0  0  0  0
   59.7800   31.7970   46.8250 C   0  0  0  0  0  0  0  0  0  0  0  0
   59.5500   33.0530   47.4060 C   0  0  0  0  0  0  0  0  0  0  0  0
   58.5281   33.4581   47.4465 H   0  0  0  0  0  0  0  0  0  0  0  0
   60.6130   33.7930   47.9340 C   0  0  0  0  0  0  0  0  0  0  0  0
   60.4240   34.7775   48.3867 H   0  0  0  0  0  0  0  0  0  0  0  0
   61.9240   33.2820   47.8880 C   0  0  0  0  0  0  0  0  0  0  0  0
   63.0240   33.9840   48.4040 O   0  0  0  0  0  0  0  0  0  0  0  0
   63.9610   33.4410   49.3280 C   0  0  0  0  0  0  0  0  0  0  0  0
   63.6199   33.6387   50.3549 H   0  0  0  0  0  0  0  0  0  0  0  0
   64.0432   32.3553   49.1715 H   0  0  0  0  0  0  0  0  0  0  0  0
   64.9439   33.9095   49.1715 H   0  0  0  0  0  0  0  0  0  0  0  0
   62.1490   32.0280   47.3080 C   0  0  0  0  0  0  0  0  0  0  0  0
   63.1701   31.6210   47.2675 H   0  0  0  0  0  0  0  0  0  0  0  0
   61.0870   31.2890   46.7800 C   0  0  0  0  0  0  0  0  0  0  0  0
   61.2766   30.3047   46.3271 H   0  0  0  0  0  0  0  0  0  0  0  0
   58.5450   29.7060   46.5990 C   0  0  0  0  0  0  0  0  0  0  0  0
   59.4040   29.1470   47.3390 O   0  0  0  0  0  0  0  0  0  0  0  0
   57.4680   28.9530   46.0790 C   0  0  0  0  0  0  0  0  0  0  0  0
   57.3230   27.5060   46.3800 C   0  0  0  0  0  0  0  0  0  0  0  0
   57.8604   27.0719   47.2360 H   0  0  0  0  0  0  0  0  0  0  0  0
   56.5680   26.7470   45.6430 N   0  0  0  0  0  0  0  0  0  0  0  0
   56.9990   25.6070   44.8770 C   0  0  0  0  0  0  0  0  0  0  0  0
   56.6900   24.0690   45.3650 S   0  0  0  0  0  0  0  0  0  0  0  0
   57.7230   25.8130   43.6580 N   0  0  0  0  0  0  0  0  0  0  0  0
   58.0420   24.9870   43.1020 H   0  0  0  0  0  0  0  0  0  0  0  0
   58.0270   27.1490   43.1630 C   0  0  0  0  0  0  0  0  0  0  0  0
   58.1817   27.8289   44.0138 H   0  0  0  0  0  0  0  0  0  0  0  0
   58.9402   27.1142   42.5507 H   0  0  0  0  0  0  0  0  0  0  0  0
   57.1887   27.5127   42.5507 H   0  0  0  0  0  0  0  0  0  0  0  0
  1  2  1  0
  2  3  1  0
  3  4  1  0
  4  5  1  0
  5  6  2  0
  5  7  1  0
  7  8  1  0
  8  9  2  0
  9 10  1  0
  9 11  1  0
 11 12  1  0
 11 13  2  0
 13 14  1  0
 14 15  1  0
 15 16  1  0
 15 17  1  0
 15 18  1  0
 13 19  1  0
 19 20  1  0
 19 21  2  0
 21 22  1  0
  7 23  1  0
 23 24  2  0
 23 25  1  0
 25 26  1  0
 26 27  1  0
 26 28  2  0
 28 29  1  0
 29 30  2  0
 29 31  1  0
 31 32  1  0
 31 33  1  0
 33 34  1  0
 33 35  1  0
 33 36  1  0
 25  3  2  0
 21  8  1  0
M  CHG  1   4  -1
M  END
>  <UniqueID>  (44) 
39

>  <SMILES>  (44) 
CNC(=S)/N=C/c1c(O)[n-]c(=O)n(-c2ccc(OC)cc2)c1=O

>  <Energy>  (44) 
49.698171930403795

>  <Genealogy>  (44) 
CNC(=S)N=Cc1c(O)[n-]c(=O)n(-c2ccc(OC)cc2)c1=O (protonated)
CNC(=S)/N=C/c1c(O)[n-]c(=O)n(-c2ccc(OC)cc2)c1=O (cis-trans isomerization)
CNC(=S)/N=C/c1c(O)[n-]c(=O)n(-c2ccc(OC)cc2)c1=O (3D coordinates assigned)
CNC(=S)/N=C/c1c(O)[n-]c(=O)n(-c2ccc(OC)cc2)c1=O (optimized conformer: 49.698171930403795 kcal/mol)

>  <smiles>  (44) 
CNC(=S)N=Cc1c(O)[nH]c(=O)n(-c2ccc(OC)cc2)c1=O

>  <score_type>  (44) 
oracle

>  <origin>  (44) 
adg

>  <m_score__min__energy>  (44) 
-7.96

>  <m_primary>  (44) 
energy

$$$$
44:0
     RDKit          3D

 43 45  0  0  0  0  0  0  0  0999 V2000
   60.3592   33.9506   50.5599 H   0  0  0  0  0  0  0  0  0  0  0  0
   60.4500   33.9780   49.4640 C   0  0  0  0  0  0  0  0  0  0  0  0
   59.3580   34.2400   48.6980 N   0  0  0  0  0  0  0  0  0  0  0  0
   59.4480   34.2820   47.3430 C   0  0  0  0  0  0  0  0  0  0  0  0
   58.3860   34.5330   46.6400 N   0  0  0  0  0  0  0  0  0  0  0  0
   58.0730   33.8440   45.0780 S   0  0  0  0  0  0  0  0  0  0  0  0
   56.8370   34.4700   44.4990 O   0  0  0  0  0  0  0  0  0  0  0  0
   59.2390   34.1360   44.1760 O   0  0  0  0  0  0  0  0  0  0  0  0
   57.8190   32.1060   45.2160 C   0  0  0  0  0  0  0  0  0  0  0  0
   58.4210   31.3770   46.2500 C   0  0  0  0  0  0  0  0  0  0  0  0
   59.0883   31.8843   46.9623 H   0  0  0  0  0  0  0  0  0  0  0  0
   58.1760   30.0070   46.3790 C   0  0  0  0  0  0  0  0  0  0  0  0
   58.6570   29.4393   47.1891 H   0  0  0  0  0  0  0  0  0  0  0  0
   57.3190   29.3510   45.4800 C   0  0  0  0  0  0  0  0  0  0  0  0
   57.0490   27.9440   45.5940 N   0  0  0  0  0  0  0  0  0  0  0  0
   56.4440   27.4940   44.8690 H   0  0  0  0  0  0  0  0  0  0  0  0
   57.4510   27.1410   46.7120 C   0  0  0  0  0  0  0  0  0  0  0  0
   57.8860   27.6840   47.7640 O   0  0  0  0  0  0  0  0  0  0  0  0
   57.2630   25.7220   46.6550 N   0  0  0  0  0  0  0  0  0  0  0  0
   56.6960   24.9810   45.5640 C   0  0  0  0  0  0  0  0  0  0  0  0
   55.3980   24.4400   45.6230 C   0  0  0  0  0  0  0  0  0  0  0  0
   54.7794   24.5954   46.5192 H   0  0  0  0  0  0  0  0  0  0  0  0
   54.8920   23.7050   44.5450 C   0  0  0  0  0  0  0  0  0  0  0  0
   53.8737   23.2917   44.5919 H   0  0  0  0  0  0  0  0  0  0  0  0
   55.6790   23.4950   43.4080 C   0  0  0  0  0  0  0  0  0  0  0  0
   55.1870   22.7810   42.3660 F   0  0  0  0  0  0  0  0  0  0  0  0
   56.9770   24.0100   43.3540 C   0  0  0  0  0  0  0  0  0  0  0  0
   57.5993   23.8387   42.4632 H   0  0  0  0  0  0  0  0  0  0  0  0
   57.4860   24.7430   44.4310 C   0  0  0  0  0  0  0  0  0  0  0  0
   58.5128   25.1352   44.3885 H   0  0  0  0  0  0  0  0  0  0  0  0
   56.7500   30.0780   44.4250 C   0  0  0  0  0  0  0  0  0  0  0  0
   56.1084   29.5661   43.6927 H   0  0  0  0  0  0  0  0  0  0  0  0
   56.9920   31.4480   44.2970 C   0  0  0  0  0  0  0  0  0  0  0  0
   56.5317   32.0115   43.4720 H   0  0  0  0  0  0  0  0  0  0  0  0
   60.6480   34.0530   46.7400 N   0  0  0  0  0  0  0  0  0  0  0  0
   61.7650   33.7790   47.4690 C   0  0  0  0  0  0  0  0  0  0  0  0
   62.9870   33.5260   46.8400 O   0  0  0  0  0  0  0  0  0  0  0  0
   63.7660   32.3670   47.1170 C   0  0  0  0  0  0  0  0  0  0  0  0
   63.8541   32.2360   48.2056 H   0  0  0  0  0  0  0  0  0  0  0  0
   63.2775   31.4837   46.6797 H   0  0  0  0  0  0  0  0  0  0  0  0
   64.7683   32.4858   46.6797 H   0  0  0  0  0  0  0  0  0  0  0  0
   61.6850   33.7440   48.8610 C   0  0  0  0  0  0  0  0  0  0  0  0
   62.5772   33.5362   49.4700 H   0  0  0  0  0  0  0  0  0  0  0  0
  1  2  1  0
  2  3  1  0
  3  4  1  0
  4  5  2  0
  5  6  1  0
  6  7  2  0
  6  8  2  0
  6  9  1  0
  9 10  2  0
 10 11  1  0
 10 12  1  0
 12 13  1  0
 12 14  2  0
 14 15  1  0
 15 16  1  0
 15 17  1  0
 17 18  2  0
 17 19  1  0
 19 20  1  0
 20 21  2  0
 21 22  1  0
 21 23  1  0
 23 24  1  0
 23 25  2  0
 25 26  1  0
 25 27  1  0
 27 28  1  0
 27 29  2  0
 29 30  1  0
 14 31  1  0
 31 32  1  0
 31 33  2  0
 33 34  1  0
  4 35  1  0
 35 36  2  0
 36 37  1  0
 37 38  1  0
 38 39  1  0
 38 40  1  0
 38 41  1  0
 36 42  1  0
 42 43  1  0
 42  2  2  0
 33  9  1  0
 29 20  1  0
M  CHG  2   3  -1  19  -1
M  END
>  <UniqueID>  (45) 
40

>  <SMILES>  (45) 
COc1cc[n-]/c(=N/S(=O)(=O)c2ccc(NC(=O)[N-]c3ccc(F)cc3)cc2)n1

>  <Energy>  (45) 
52.23690416349614

>  <Genealogy>  (45) 
COc1cc[n-]c(=NS(=O)(=O)c2ccc(NC(=O)[N-]c3ccc(F)cc3)cc2)n1 (protonated)
COc1cc[n-]/c(=N/S(=O)(=O)c2ccc(NC(=O)[N-]c3ccc(F)cc3)cc2)n1 (cis-trans isomerization)
COc1cc[n-]/c(=N/S(=O)(=O)c2ccc(NC(=O)[N-]c3ccc(F)cc3)cc2)n1 (3D coordinates assigned)
COc1cc[n-]/c(=N/S(=O)(=O)c2ccc(NC(=O)[N-]c3ccc(F)cc3)cc2)n1 (optimized conformer: 52.23690416349614 kcal/mol)

>  <smiles>  (45) 
COc1cc[nH]c(=NS(=O)(=O)c2ccc(NC(=O)Nc3ccc(F)cc3)cc2)n1

>  <score_type>  (45) 
oracle

>  <origin>  (45) 
adg

>  <m_score__min__energy>  (45) 
-11.029999999999999

>  <m_primary>  (45) 
energy

$$$$
45:0
     RDKit          3D

 31 33  0  0  1  0  0  0  0  0999 V2000
   56.7540   29.4240   42.9320 C   0  0  0  0  0  0  0  0  0  0  0  0
   56.4300   30.1020   44.2170 C   0  0  0  0  0  0  0  0  0  0  0  0
   55.2690   30.5000   44.4970 O   0  0  0  0  0  0  0  0  0  0  0  0
   57.4290   30.3430   45.2220 N   0  0  0  0  0  0  0  0  0  0  0  0
   57.7710   31.5860   45.4530 C   0  0  0  0  0  0  0  0  0  0  0  0
   58.8340   31.8600   46.2690 N   0  0  0  0  0  0  0  0  0  0  0  0
   59.2190   33.1230   46.5330 C   0  0  0  0  0  0  0  0  0  0  0  0
   60.3640   33.3070   47.4150 C   0  0  0  0  0  0  0  0  0  0  0  0
   60.1620   33.9980   48.5920 C   0  0  0  0  0  0  0  0  0  0  0  0
   61.2270   34.2050   49.4770 C   0  0  0  0  0  0  0  0  0  0  0  0
   62.4960   33.7350   49.2120 C   0  0  0  0  0  0  0  0  0  0  0  0
   63.6890   33.7720   49.8420 N   0  0  0  0  0  0  0  0  0  0  0  0
   64.6040   33.1330   49.0990 C   0  0  0  0  0  0  0  0  0  0  0  0
   65.8260   32.9800   49.3960 O   0  0  0  0  0  0  0  0  0  0  0  0
   63.9870   32.6780   47.9690 N   0  0  0  0  0  0  0  0  0  0  0  0
   62.6790   33.0400   48.0180 C   0  0  0  0  0  0  0  0  0  0  0  0
   61.6250   32.8310   47.1330 C   0  0  0  0  0  0  0  0  0  0  0  0
   58.5230   34.1700   45.9660 C   0  0  0  0  0  0  0  0  0  0  0  0
   57.4510   33.8880   45.1430 C   0  0  0  0  0  0  0  0  0  0  0  0
   57.0760   32.6010   44.8870 N   0  0  0  0  0  0  0  0  0  0  0  0
   57.2198   28.4492   43.1390 H   0  0  0  0  0  0  0  0  0  0  0  0
   55.8304   29.2736   42.3537 H   0  0  0  0  0  0  0  0  0  0  0  0
   57.4512   30.0481   42.3537 H   0  0  0  0  0  0  0  0  0  0  0  0
   59.1623   34.3870   48.8355 H   0  0  0  0  0  0  0  0  0  0  0  0
   61.0463   34.7584   50.4103 H   0  0  0  0  0  0  0  0  0  0  0  0
   63.7950   34.2490   50.7730 H   0  0  0  0  0  0  0  0  0  0  0  0
   64.4380   32.1380   47.1880 H   0  0  0  0  0  0  0  0  0  0  0  0
   61.8014   32.2794   46.1978 H   0  0  0  0  0  0  0  0  0  0  0  0
   58.8167   35.2110   46.1659 H   0  0  0  0  0  0  0  0  0  0  0  0
   56.8890   34.7155   44.6854 H   0  0  0  0  0  0  0  0  0  0  0  0
   56.2640   32.4210   44.2630 H   0  0  0  0  0  0  0  0  0  0  0  0
  1  2  1  0
  2  3  2  0
  2  4  1  0
  4  5  2  0
  5  6  1  0
  6  7  2  0
  7  8  1  0
  8  9  2  0
  9 10  1  0
 10 11  2  0
 11 12  1  0
 12 13  1  0
 13 14  2  0
 13 15  1  0
 15 16  1  0
 16 17  2  0
  7 18  1  0
 18 19  2  0
 19 20  1  0
 20  5  1  0
 17  8  1  0
 16 11  1  0
  1 21  1  0
  1 22  1  0
  1 23  1  0
  9 24  1  0
 10 25  1  0
 12 26  1  0
 15 27  1  0
 17 28  1  0
 18 29  1  0
 19 30  1  0
 20 31  1  0
M  END
>  <smiles>  (46) 
CC(=O)N=c1nc(-c2ccc3[nH]c(=O)[nH]c3c2)cc[nH]1

>  <score_type>  (46) 
oracle

>  <origin>  (46) 
adg

>  <m_score__min__energy>  (46) 
-7.4699999999999998

>  <m_primary>  (46) 
energy

$$$$
46:0
     RDKit          3D

 45 47  0  0  0  0  0  0  0  0999 V2000
   55.3580   23.6530   43.7060 C   0  0  0  0  0  0  0  0  0  0  0  0
   56.7020   23.6550   44.3940 C   0  0  0  0  0  0  0  0  0  0  0  0
   57.6130   22.6060   44.1390 C   0  0  0  0  0  0  0  0  0  0  0  0
   57.2120   21.2760   43.0550 Cl  0  0  0  0  0  0  0  0  0  0  0  0
   58.8730   22.6060   44.7440 C   0  0  0  0  0  0  0  0  0  0  0  0
   59.2460   23.6440   45.5930 C   0  0  0  0  0  0  0  0  0  0  0  0
   58.3560   24.6840   45.8600 C   0  0  0  0  0  0  0  0  0  0  0  0
   57.0700   24.6920   45.2860 C   0  0  0  0  0  0  0  0  0  0  0  0
   56.1560   25.7750   45.5290 N   0  0  0  0  0  0  0  0  0  0  0  0
   56.4660   27.1140   45.9400 C   0  0  0  0  0  0  0  0  0  0  0  0
   57.1730   27.3220   46.9620 O   0  0  0  0  0  0  0  0  0  0  0  0
   55.8870   28.2330   45.2570 N   0  0  0  0  0  0  0  0  0  0  0  0
   56.6010   29.3640   44.7380 C   0  0  0  0  0  0  0  0  0  0  0  0
   56.3650   29.7670   43.4180 C   0  0  0  0  0  0  0  0  0  0  0  0
   57.0550   30.8550   42.8770 C   0  0  0  0  0  0  0  0  0  0  0  0
   57.9800   31.5560   43.6540 C   0  0  0  0  0  0  0  0  0  0  0  0
   58.2040   31.1860   44.9890 C   0  0  0  0  0  0  0  0  0  0  0  0
   59.2200   31.9050   45.8330 C   0  0  0  0  0  0  0  0  0  0  0  0
   58.5290   32.8790   46.7100 N   0  0  0  0  0  0  0  0  0  0  0  0
   59.4690   33.8400   47.3360 C   0  0  0  0  0  0  0  0  0  0  0  0
   59.6200   35.1370   46.5140 C   0  0  0  0  0  0  0  0  0  0  0  0
   59.3540   34.8930   45.1480 O   0  0  0  0  0  0  0  0  0  0  0  0
   57.9810   34.5830   44.9650 C   0  0  0  0  0  0  0  0  0  0  0  0
   57.4370   33.5850   46.0140 C   0  0  0  0  0  0  0  0  0  0  0  0
   57.4980   30.1020   45.5320 C   0  0  0  0  0  0  0  0  0  0  0  0
   54.5590   23.6518   44.4621 H   0  0  0  0  0  0  0  0  0  0  0  0
   55.2666   24.5510   43.0773 H   0  0  0  0  0  0  0  0  0  0  0  0
   55.2692   22.7547   43.0773 H   0  0  0  0  0  0  0  0  0  0  0  0
   59.5738   21.7811   44.5481 H   0  0  0  0  0  0  0  0  0  0  0  0
   60.2446   23.6440   46.0542 H   0  0  0  0  0  0  0  0  0  0  0  0
   58.6612   25.5054   46.5249 H   0  0  0  0  0  0  0  0  0  0  0  0
   55.6321   29.2239   42.8033 H   0  0  0  0  0  0  0  0  0  0  0  0
   56.8692   31.1601   41.8366 H   0  0  0  0  0  0  0  0  0  0  0  0
   58.5344   32.4003   43.2184 H   0  0  0  0  0  0  0  0  0  0  0  0
   59.7654   31.1767   46.4512 H   0  0  0  0  0  0  0  0  0  0  0  0
   59.9301   32.4356   45.1817 H   0  0  0  0  0  0  0  0  0  0  0  0
   59.0948   34.0983   48.3376 H   0  0  0  0  0  0  0  0  0  0  0  0
   60.4566   33.3582   47.3860 H   0  0  0  0  0  0  0  0  0  0  0  0
   58.9116   35.8890   46.8917 H   0  0  0  0  0  0  0  0  0  0  0  0
   60.6525   35.5029   46.6147 H   0  0  0  0  0  0  0  0  0  0  0  0
   57.4000   35.5145   45.0343 H   0  0  0  0  0  0  0  0  0  0  0  0
   57.8819   34.1068   43.9784 H   0  0  0  0  0  0  0  0  0  0  0  0
   56.8393   34.1364   46.7548 H   0  0  0  0  0  0  0  0  0  0  0  0
   56.8226   32.8373   45.4910 H   0  0  0  0  0  0  0  0  0  0  0  0
   57.6469   29.8269   46.5866 H   0  0  0  0  0  0  0  0  0  0  0  0
  1  2  1  0
  2  3  2  0
  3  4  1  0
  3  5  1  0
  5  6  2  0
  6  7  1  0
  7  8  2  0
  8  9  1  0
  9 10  1  0
 10 11  2  0
 10 12  1  0
 12 13  1  0
 13 14  2  0
 14 15  1  0
 15 16  2  0
 16 17  1  0
 17 18  1  0
 18 19  1  0
 19 20  1  0
 20 21  1  0
 21 22  1  0
 22 23  1  0
 23 24  1  0
 17 25  2  0
  8  2  1  0
 25 13  1  0
 24 19  1  0
  1 26  1  0
  1 27  1  0
  1 28  1  0
  5 29  1  0
  6 30  1  0
  7 31  1  0
 14 32  1  0
 15 33  1  0
 16 34  1  0
 18 35  1  0
 18 36  1  0
 20 37  1  0
 20 38  1  0
 21 39  1  0
 21 40  1  0
 23 41  1  0
 23 42  1  0
 24 43  1  0
 24 44  1  0
 25 45  1  0
M  CHG  2   9  -1  12  -1
M  END
>  <UniqueID>  (47) 
41

>  <SMILES>  (47) 
Cc1c(Cl)cccc1[N-]C(=O)[N-]c1cccc(CN2CCOCC2)c1

>  <Energy>  (47) 
65.24963305641636

>  <Genealogy>  (47) 
Cc1c(Cl)cccc1[N-]C(=O)[N-]c1cccc(CN2CCOCC2)c1 (protonated)
Cc1c(Cl)cccc1[N-]C(=O)[N-]c1cccc(CN2CCOCC2)c1 (3D coordinates assigned)
Cc1c(Cl)cccc1[N-]C(=O)[N-]c1cccc(CN2CCOCC2)c1 (nonaromatic ring conformer: 65.24963305641636 kcal/mol)

>  <smiles>  (47) 
Cc1c(Cl)cccc1NC(=O)Nc1cccc(CN2CCOCC2)c1

>  <score_type>  (47) 
oracle

>  <origin>  (47) 
adg

>  <m_score__min__energy>  (47) 
-12.039999999999999

>  <m_primary>  (47) 
energy

$$$$
47:0
     RDKit          3D

 59 62  0  0  0  0  0  0  0  0999 V2000
   58.5760   21.5300   44.2000 N   0  0  0  0  0  0  0  0  0  0  0  0
   57.0370   22.2850   43.9590 S   0  0  0  0  0  0  0  0  0  0  0  0
   57.2490   23.6450   43.3550 O   0  0  0  0  0  0  0  0  0  0  0  0
   56.2500   21.4310   43.0040 O   0  0  0  0  0  0  0  0  0  0  0  0
   56.1550   22.4500   45.4910 C   0  0  0  0  0  0  0  0  0  0  0  0
   55.2500   21.4430   45.8680 C   0  0  0  0  0  0  0  0  0  0  0  0
   54.5000   21.5610   47.0410 C   0  0  0  0  0  0  0  0  0  0  0  0
   54.6440   22.6850   47.8530 C   0  0  0  0  0  0  0  0  0  0  0  0
   55.5490   23.6880   47.5030 C   0  0  0  0  0  0  0  0  0  0  0  0
   56.3210   23.5790   46.3340 C   0  0  0  0  0  0  0  0  0  0  0  0
   57.2920   24.6500   46.0370 C   0  0  0  0  0  0  0  0  0  0  0  0
   56.8470   25.8890   45.5540 C   0  0  0  0  0  0  0  0  0  0  0  0
   57.7630   26.9100   45.2830 C   0  0  0  0  0  0  0  0  0  0  0  0
   59.1360   26.7130   45.5090 C   0  0  0  0  0  0  0  0  0  0  0  0
   60.1270   27.8200   45.2160 C   0  0  0  0  0  0  0  0  0  0  0  0
   59.6600   29.1670   45.6160 N   0  0  0  0  0  0  0  0  0  0  0  0
   58.7660   29.7960   44.6150 C   0  0  0  0  0  0  0  0  0  0  0  0
   58.0820   31.0750   45.1510 C   0  0  0  0  0  0  0  0  0  0  0  0
   58.8760   31.6810   46.3260 C   0  0  0  0  0  0  0  0  0  0  0  0
   58.3530   32.9720   46.8090 N   0  0  0  0  0  0  0  0  0  0  0  0
   59.4250   34.3400   46.6240 S   0  0  0  0  0  0  0  0  0  0  0  0
   58.8880   35.4890   47.4280 O   0  0  0  0  0  0  0  0  0  0  0  0
   59.5160   34.7610   45.1840 O   0  0  0  0  0  0  0  0  0  0  0  0
   61.0230   33.9270   47.2390 C   0  0  0  0  0  0  0  0  0  0  0  0
   62.0930   33.7750   46.3460 C   0  0  0  0  0  0  0  0  0  0  0  0
   63.3690   33.4610   46.8250 C   0  0  0  0  0  0  0  0  0  0  0  0
   63.5800   33.2940   48.1970 C   0  0  0  0  0  0  0  0  0  0  0  0
   62.5150   33.4400   49.0900 C   0  0  0  0  0  0  0  0  0  0  0  0
   61.2390   33.7540   48.6150 C   0  0  0  0  0  0  0  0  0  0  0  0
   59.0760   30.6730   47.4820 C   0  0  0  0  0  0  0  0  0  0  0  0
   59.1010   29.2180   46.9800 C   0  0  0  0  0  0  0  0  0  0  0  0
   59.5780   25.4680   45.9900 C   0  0  0  0  0  0  0  0  0  0  0  0
   58.6620   24.4490   46.2610 C   0  0  0  0  0  0  0  0  0  0  0  0
   58.8840   21.1450   43.2790 H   0  0  0  0  0  0  0  0  0  0  0  0
   58.4360   20.7240   44.8480 H   0  0  0  0  0  0  0  0  0  0  0  0
   55.1309   20.5527   45.2330 H   0  0  0  0  0  0  0  0  0  0  0  0
   53.7948   20.7657   47.3242 H   0  0  0  0  0  0  0  0  0  0  0  0
   54.0441   22.7813   48.7699 H   0  0  0  0  0  0  0  0  0  0  0  0
   55.6590   24.5721   48.1482 H   0  0  0  0  0  0  0  0  0  0  0  0
   55.7729   26.0583   45.3877 H   0  0  0  0  0  0  0  0  0  0  0  0
   57.4066   27.8738   44.8903 H   0  0  0  0  0  0  0  0  0  0  0  0
   61.0593   27.6021   45.7575 H   0  0  0  0  0  0  0  0  0  0  0  0
   60.2665   27.8422   44.1251 H   0  0  0  0  0  0  0  0  0  0  0  0
   59.3604   30.0595   43.7277 H   0  0  0  0  0  0  0  0  0  0  0  0
   57.9749   29.0713   44.3720 H   0  0  0  0  0  0  0  0  0  0  0  0
   58.0199   31.8156   44.3400 H   0  0  0  0  0  0  0  0  0  0  0  0
   57.0771   30.8083   45.5102 H   0  0  0  0  0  0  0  0  0  0  0  0
   59.8675   31.9073   45.9067 H   0  0  0  0  0  0  0  0  0  0  0  0
   61.9286   33.9030   45.2659 H   0  0  0  0  0  0  0  0  0  0  0  0
   64.2070   33.3454   46.1219 H   0  0  0  0  0  0  0  0  0  0  0  0
   64.5839   33.0478   48.5734 H   0  0  0  0  0  0  0  0  0  0  0  0
   62.6816   33.3074   50.1692 H   0  0  0  0  0  0  0  0  0  0  0  0
   60.4025   33.8658   49.3205 H   0  0  0  0  0  0  0  0  0  0  0  0
   60.0303   30.8922   47.9833 H   0  0  0  0  0  0  0  0  0  0  0  0
   58.2288   30.7788   48.1756 H   0  0  0  0  0  0  0  0  0  0  0  0
   59.7246   28.6108   47.6526 H   0  0  0  0  0  0  0  0  0  0  0  0
   58.0748   28.8221   46.9658 H   0  0  0  0  0  0  0  0  0  0  0  0
   60.6519   25.2954   46.1539 H   0  0  0  0  0  0  0  0  0  0  0  0
   59.0168   23.4840   46.6521 H   0  0  0  0  0  0  0  0  0  0  0  0
  1  2  1  0
  2  3  2  0
  2  4  2  0
  2  5  1  0
  5  6  2  0
  6  7  1  0
  7  8  2  0
  8  9  1  0
  9 10  2  0
 10 11  1  0
 11 12  2  0
 12 13  1  0
 13 14  2  0
 14 15  1  0
 15 16  1  0
 16 17  1  0
 17 18  1  0
 18 19  1  0
 19 20  1  0
 20 21  1  0
 21 22  2  0
 21 23  2  0
 21 24  1  0
 24 25  2  0
 25 26  1  0
 26 27  2  0
 27 28  1  0
 28 29  2  0
 19 30  1  0
 30 31  1  0
 14 32  1  0
 32 33  2  0
 10  5  1  0
 33 11  1  0
 31 16  1  0
 29 24  1  0
  1 34  1  0
  1 35  1  0
  6 36  1  0
  7 37  1  0
  8 38  1  0
  9 39  1  0
 12 40  1  0
 13 41  1  0
 15 42  1  0
 15 43  1  0
 17 44  1  0
 17 45  1  0
 18 46  1  0
 18 47  1  0
 19 48  1  0
 25 49  1  0
 26 50  1  0
 27 51  1  0
 28 52  1  0
 29 53  1  0
 30 54  1  0
 30 55  1  0
 31 56  1  0
 31 57  1  0
 32 58  1  0
 33 59  1  0
M  CHG  1  20  -1
M  END
>  <UniqueID>  (48) 
42

>  <SMILES>  (48) 
NS(=O)(=O)c1ccccc1-c1ccc(CN2CCC([N-]S(=O)(=O)c3ccccc3)CC2)cc1

>  <Energy>  (48) 
82.81272639932813

>  <Genealogy>  (48) 
NS(=O)(=O)c1ccccc1-c1ccc(CN2CCC([N-]S(=O)(=O)c3ccccc3)CC2)cc1 (protonated)
NS(=O)(=O)c1ccccc1-c1ccc(CN2CCC([N-]S(=O)(=O)c3ccccc3)CC2)cc1 (3D coordinates assigned)
NS(=O)(=O)c1ccccc1-c1ccc(CN2CCC([N-]S(=O)(=O)c3ccccc3)CC2)cc1 (nonaromatic ring conformer: 82.81272639932813 kcal/mol)

>  <smiles>  (48) 
NS(=O)(=O)c1ccccc1-c1ccc(CN2CCC(NS(=O)(=O)c3ccccc3)CC2)cc1

>  <score_type>  (48) 
oracle

>  <origin>  (48) 
adg

>  <m_score__min__energy>  (48) 
-11.470000000000001

>  <m_primary>  (48) 
energy

$$$$
48:0
     RDKit          3D

 42 44  0  0  0  0  0  0  0  0999 V2000
   55.9048   29.0711   45.0023 H   0  0  0  0  0  0  0  0  0  0  0  0
   56.3440   29.8770   44.3960 C   0  0  0  0  0  0  0  0  0  0  0  0
   56.9590   30.9560   44.9520 N   0  0  0  0  0  0  0  0  0  0  0  0
   57.4190   31.8110   44.0150 C   0  0  0  0  0  0  0  0  0  0  0  0
   58.0380   32.9110   44.3330 N   0  0  0  0  0  0  0  0  0  0  0  0
   57.5550   33.9820   45.1570 C   0  0  0  0  0  0  0  0  0  0  0  0
   56.6490   34.7610   44.7520 O   0  0  0  0  0  0  0  0  0  0  0  0
   58.1140   34.1540   46.4270 O   0  0  0  0  0  0  0  0  0  0  0  0
   59.4960   34.4320   46.6440 C   0  0  0  0  0  0  0  0  0  0  0  0
   59.5990   35.1006   47.5114 H   0  0  0  0  0  0  0  0  0  0  0  0
   59.9081   34.9124   45.7443 H   0  0  0  0  0  0  0  0  0  0  0  0
   60.2540   33.1590   46.9070 C   0  0  0  0  0  0  0  0  0  0  0  0
   61.4590   33.1790   47.6260 C   0  0  0  0  0  0  0  0  0  0  0  0
   61.8566   34.1325   48.0039 H   0  0  0  0  0  0  0  0  0  0  0  0
   62.1550   31.9910   47.8630 C   0  0  0  0  0  0  0  0  0  0  0  0
   63.1036   32.0125   48.4194 H   0  0  0  0  0  0  0  0  0  0  0  0
   61.6490   30.7760   47.3950 C   0  0  0  0  0  0  0  0  0  0  0  0
   62.2078   29.8460   47.5761 H   0  0  0  0  0  0  0  0  0  0  0  0
   60.4340   30.7330   46.6960 C   0  0  0  0  0  0  0  0  0  0  0  0
   59.9420   29.4720   46.2100 N   0  0  0  0  0  0  0  0  0  0  0  0
   59.9560   29.3070   45.1790 H   0  0  0  0  0  0  0  0  0  0  0  0
   59.5790   28.3750   47.0660 C   0  0  0  0  0  0  0  0  0  0  0  0
   60.0570   28.3070   48.2310 O   0  0  0  0  0  0  0  0  0  0  0  0
   58.6870   27.2950   46.5800 C   0  0  0  0  0  0  0  0  0  0  0  0
   59.2150   26.0470   46.2130 C   0  0  0  0  0  0  0  0  0  0  0  0
   60.2996   25.8734   46.2731 H   0  0  0  0  0  0  0  0  0  0  0  0
   58.3700   25.0220   45.7710 C   0  0  0  0  0  0  0  0  0  0  0  0
   58.9350   23.7030   45.3350 C   0  0  0  0  0  0  0  0  0  0  0  0
   59.1919   23.1034   46.2207 H   0  0  0  0  0  0  0  0  0  0  0  0
   58.1882   23.1654   44.7323 H   0  0  0  0  0  0  0  0  0  0  0  0
   59.8394   23.8727   44.7323 H   0  0  0  0  0  0  0  0  0  0  0  0
   56.9960   25.2720   45.6770 C   0  0  0  0  0  0  0  0  0  0  0  0
   56.3214   24.4867   45.3052 H   0  0  0  0  0  0  0  0  0  0  0  0
   56.4900   26.4810   46.0430 N   0  0  0  0  0  0  0  0  0  0  0  0
   55.1330   26.6950   45.9600 O   0  0  0  0  0  0  0  0  0  0  0  0
   57.2960   27.4820   46.4920 C   0  0  0  0  0  0  0  0  0  0  0  0
   56.8555   28.4453   46.7885 H   0  0  0  0  0  0  0  0  0  0  0  0
   59.7480   31.9340   46.4400 C   0  0  0  0  0  0  0  0  0  0  0  0
   58.8077   31.9142   45.8695 H   0  0  0  0  0  0  0  0  0  0  0  0
   57.0780   31.2600   42.4570 S   0  0  0  0  0  0  0  0  0  0  0  0
   56.3110   29.8670   43.0070 C   0  0  0  0  0  0  0  0  0  0  0  0
   55.8619   29.0851   42.3770 H   0  0  0  0  0  0  0  0  0  0  0  0
  1  2  1  0
  2  3  1  0
  3  4  1  0
  4  5  2  0
  5  6  1  0
  6  7  2  0
  6  8  1  0
  8  9  1  0
  9 10  1  0
  9 11  1  0
  9 12  1  0
 12 13  2  0
 13 14  1  0
 13 15  1  0
 15 16  1  0
 15 17  2  0
 17 18  1  0
 17 19  1  0
 19 20  1  0
 20 21  1  0
 20 22  1  0
 22 23  2  0
 22 24  1  0
 24 25  2  0
 25 26  1  0
 25 27  1  0
 27 28  1  0
 28 29  1  0
 28 30  1  0
 28 31  1  0
 27 32  2  0
 32 33  1  0
 32 34  1  0
 34 35  1  0
 34 36  2  0
 36 37  1  0
 19 38  2  0
 38 39  1  0
  4 40  1  0
 40 41  1  0
 41 42  1  0
 41  2  2  0
 38 12  1  0
 36 24  1  0
M  CHG  3   3  -1  34   1  35  -1
M  END
>  <UniqueID>  (49) 
43

>  <SMILES>  (49) 
Cc1cc(C(=O)Nc2cccc(COC(=O)/N=c3/[n-]ccs3)c2)c[n+]([O-])c1

>  <Energy>  (49) 
80.76332712777868

>  <Genealogy>  (49) 
Cc1cc(C(=O)Nc2cccc(COC(=O)N=c3[n-]ccs3)c2)c[n+]([O-])c1 (protonated)
Cc1cc(C(=O)Nc2cccc(COC(=O)/N=c3/[n-]ccs3)c2)c[n+]([O-])c1 (cis-trans isomerization)
Cc1cc(C(=O)Nc2cccc(COC(=O)/N=c3/[n-]ccs3)c2)c[n+]([O-])c1 (3D coordinates assigned)
Cc1cc(C(=O)Nc2cccc(COC(=O)/N=c3/[n-]ccs3)c2)c[n+]([O-])c1 (optimized conformer: 80.76332712777868 kcal/mol)

>  <smiles>  (49) 
Cc1cc(C(=O)Nc2cccc(COC(=O)N=c3[nH]ccs3)c2)c[n+]([O-])c1

>  <score_type>  (49) 
oracle

>  <origin>  (49) 
adg

>  <m_score__min__energy>  (49) 
-10.25

>  <m_primary>  (49) 
energy

$$$$
49:0
     RDKit          3D

 57 60  0  0  0  0  0  0  0  0999 V2000
   63.6500   33.1360   47.1080 C   0  0  0  0  0  0  0  0  0  0  0  0
   63.9810   33.3500   48.5820 C   0  0  0  0  0  0  0  0  0  0  0  0
   62.9770   34.1470   49.2050 O   0  0  0  0  0  0  0  0  0  0  0  0
   61.7300   33.6480   49.6050 C   0  0  0  0  0  0  0  0  0  0  0  0
   61.6210   33.0320   50.7010 O   0  0  0  0  0  0  0  0  0  0  0  0
   60.5750   33.8480   48.7650 N   0  0  0  0  0  0  0  0  0  0  0  0
   59.2670   33.2780   49.1230 C   0  0  0  0  0  0  0  0  0  0  0  0
   58.5870   32.6890   47.8790 C   0  0  0  0  0  0  0  0  0  0  0  0
   58.6300   33.6300   46.7490 N   0  0  0  0  0  0  0  0  0  0  0  0
   57.7800   33.4110   45.6070 C   0  0  0  0  0  0  0  0  0  0  0  0
   57.1500   34.3830   45.1050 O   0  0  0  0  0  0  0  0  0  0  0  0
   57.6410   32.0710   44.9990 C   0  0  0  0  0  0  0  0  0  0  0  0
   57.4330   31.9440   43.6170 C   0  0  0  0  0  0  0  0  0  0  0  0
   57.3240   30.6790   43.0340 C   0  0  0  0  0  0  0  0  0  0  0  0
   57.4590   29.5250   43.8110 C   0  0  0  0  0  0  0  0  0  0  0  0
   57.3090   28.2470   43.1740 N   0  0  0  0  0  0  0  0  0  0  0  0
   57.8050   26.9770   43.6240 C   0  0  0  0  0  0  0  0  0  0  0  0
   57.8230   26.0200   42.8040 O   0  0  0  0  0  0  0  0  0  0  0  0
   58.3630   26.7730   44.9860 C   0  0  0  0  0  0  0  0  0  0  0  0
   59.5250   27.4680   45.3850 C   0  0  0  0  0  0  0  0  0  0  0  0
   60.1460   28.3370   44.5440 F   0  0  0  0  0  0  0  0  0  0  0  0
   60.0870   27.2410   46.6410 C   0  0  0  0  0  0  0  0  0  0  0  0
   59.5220   26.3030   47.5030 C   0  0  0  0  0  0  0  0  0  0  0  0
   58.3880   25.5900   47.1150 C   0  0  0  0  0  0  0  0  0  0  0  0
   57.7960   25.8200   45.8660 C   0  0  0  0  0  0  0  0  0  0  0  0
   56.6130   25.0830   45.5150 N   0  0  0  0  0  0  0  0  0  0  0  0
   55.3310   25.4680   45.6280 C   0  0  0  0  0  0  0  0  0  0  0  0
   54.9130   26.6930   46.1230 O   0  0  0  0  0  0  0  0  0  0  0  0
   54.5080   24.4520   45.2040 C   0  0  0  0  0  0  0  0  0  0  0  0
   55.2680   23.4070   44.8180 N   0  0  0  0  0  0  0  0  0  0  0  0
   56.5350   23.8300   45.0310 C   0  0  0  0  0  0  0  0  0  0  0  0
   57.5470   23.1160   44.7860 O   0  0  0  0  0  0  0  0  0  0  0  0
   57.6590   29.6490   45.1970 C   0  0  0  0  0  0  0  0  0  0  0  0
   57.7610   30.9140   45.7840 C   0  0  0  0  0  0  0  0  0  0  0  0
   59.3580   34.8990   46.8660 C   0  0  0  0  0  0  0  0  0  0  0  0
   60.7100   34.6700   47.5550 C   0  0  0  0  0  0  0  0  0  0  0  0
   62.7291   32.5406   47.0217 H   0  0  0  0  0  0  0  0  0  0  0  0
   63.5035   34.1108   46.6198 H   0  0  0  0  0  0  0  0  0  0  0  0
   64.4788   32.6023   46.6198 H   0  0  0  0  0  0  0  0  0  0  0  0
   64.0346   32.3742   49.0870 H   0  0  0  0  0  0  0  0  0  0  0  0
   64.9479   33.8687   48.6594 H   0  0  0  0  0  0  0  0  0  0  0  0
   59.4092   32.4832   49.8700 H   0  0  0  0  0  0  0  0  0  0  0  0
   58.6302   34.0734   49.5375 H   0  0  0  0  0  0  0  0  0  0  0  0
   59.1051   31.7618   47.5928 H   0  0  0  0  0  0  0  0  0  0  0  0
   57.5334   32.4875   48.1225 H   0  0  0  0  0  0  0  0  0  0  0  0
   57.3554   32.8444   42.9899 H   0  0  0  0  0  0  0  0  0  0  0  0
   57.1304   30.5905   41.9548 H   0  0  0  0  0  0  0  0  0  0  0  0
   60.9792   27.8042   46.9523 H   0  0  0  0  0  0  0  0  0  0  0  0
   59.9713   26.1247   48.4911 H   0  0  0  0  0  0  0  0  0  0  0  0
   57.9550   24.8413   47.7947 H   0  0  0  0  0  0  0  0  0  0  0  0
   53.4087   24.4858   45.1830 H   0  0  0  0  0  0  0  0  0  0  0  0
   57.7356   28.7472   45.8222 H   0  0  0  0  0  0  0  0  0  0  0  0
   57.9362   31.0026   46.8663 H   0  0  0  0  0  0  0  0  0  0  0  0
   59.5273   35.3152   45.8619 H   0  0  0  0  0  0  0  0  0  0  0  0
   58.7622   35.6017   47.4670 H   0  0  0  0  0  0  0  0  0  0  0  0
   61.3856   34.1604   46.8523 H   0  0  0  0  0  0  0  0  0  0  0  0
   61.1123   35.6500   47.8513 H   0  0  0  0  0  0  0  0  0  0  0  0
  1  2  1  0
  2  3  1  0
  3  4  1  0
  4  5  2  0
  4  6  1  0
  6  7  1  0
  7  8  1  0
  8  9  1  0
  9 10  1  0
 10 11  2  0
 10 12  1  0
 12 13  2  0
 13 14  1  0
 14 15  2  0
 15 16  1  0
 16 17  1  0
 17 18  2  0
 17 19  1  0
 19 20  2  0
 20 21  1  0
 20 22  1  0
 22 23  2  0
 23 24  1  0
 24 25  2  0
 25 26  1  0
 26 27  1  0
 27 28  1  0
 27 29  2  0
 29 30  1  0
 30 31  1  0
 31 32  2  0
 15 33  1  0
 33 34  2  0
  9 35  1  0
 35 36  1  0
 36  6  1  0
 34 12  1  0
 25 19  1  0
 31 26  1  0
  1 37  1  0
  1 38  1  0
  1 39  1  0
  2 40  1  0
  2 41  1  0
  7 42  1  0
  7 43  1  0
  8 44  1  0
  8 45  1  0
 13 46  1  0
 14 47  1  0
 22 48  1  0
 23 49  1  0
 24 50  1  0
 29 51  1  0
 33 52  1  0
 34 53  1  0
 35 54  1  0
 35 55  1  0
 36 56  1  0
 36 57  1  0
M  CHG  3  16  -1  28  -1  30  -1
M  END
>  <UniqueID>  (50) 
44

>  <SMILES>  (50) 
CCOC(=O)N1CCN(C(=O)c2ccc([N-]C(=O)c3c(F)cccc3-n3c([O-])c[n-]c3=O)cc2)CC1

>  <Energy>  (50) 
108.97708181719938

>  <Genealogy>  (50) 
CCOC(=O)N1CCN(C(=O)c2ccc([N-]C(=O)c3c(F)cccc3-n3c([O-])c[n-]c3=O)cc2)CC1 (protonated)
CCOC(=O)N1CCN(C(=O)c2ccc([N-]C(=O)c3c(F)cccc3-n3c([O-])c[n-]c3=O)cc2)CC1 (3D coordinates assigned)
CCOC(=O)N1CCN(C(=O)c2ccc([N-]C(=O)c3c(F)cccc3-n3c([O-])c[n-]c3=O)cc2)CC1 (nonaromatic ring conformer: 108.97708181719938 kcal/mol)

>  <smiles>  (50) 
CCOC(=O)N1CCN(C(=O)c2ccc(NC(=O)c3c(F)cccc3-n3c(O)c[nH]c3=O)cc2)CC1

>  <score_type>  (50) 
oracle

>  <origin>  (50) 
adg

>  <m_score__min__energy>  (50) 
-14.77

>  <m_primary>  (50) 
energy

$$$$
50:0
     RDKit          3D

 38 40  0  0  0  0  0  0  0  0999 V2000
   57.4998   25.5713   47.2813 H   0  0  0  0  0  0  0  0  0  0  0  0
   57.7910   25.8750   46.2650 C   0  0  0  0  0  0  0  0  0  0  0  0
   58.5590   25.0340   45.5550 C   0  0  0  0  0  0  0  0  0  0  0  0
   59.6465   25.1988   45.5683 H   0  0  0  0  0  0  0  0  0  0  0  0
   58.0440   23.9010   44.7560 C   0  0  0  0  0  0  0  0  0  0  0  0
   56.8780   24.0840   43.9970 C   0  0  0  0  0  0  0  0  0  0  0  0
   56.3664   25.0578   44.0065 H   0  0  0  0  0  0  0  0  0  0  0  0
   56.3630   23.0360   43.2290 C   0  0  0  0  0  0  0  0  0  0  0  0
   55.4553   23.1911   42.6272 H   0  0  0  0  0  0  0  0  0  0  0  0
   56.9980   21.7930   43.2240 C   0  0  0  0  0  0  0  0  0  0  0  0
   56.5995   20.9742   42.6070 H   0  0  0  0  0  0  0  0  0  0  0  0
   58.1400   21.5890   44.0030 C   0  0  0  0  0  0  0  0  0  0  0  0
   58.6337   20.6060   44.0048 H   0  0  0  0  0  0  0  0  0  0  0  0
   58.6580   22.6310   44.7810 C   0  0  0  0  0  0  0  0  0  0  0  0
   59.7620   22.3860   45.5910 O   0  0  0  0  0  0  0  0  0  0  0  0
   57.3110   27.1820   45.7710 C   0  0  0  0  0  0  0  0  0  0  0  0
   55.9420   27.4710   45.6280 C   0  0  0  0  0  0  0  0  0  0  0  0
   54.9760   26.5390   45.9910 O   0  0  0  0  0  0  0  0  0  0  0  0
   55.5500   28.6790   45.1480 N   0  0  0  0  0  0  0  0  0  0  0  0
   56.4410   29.6460   44.8050 C   0  0  0  0  0  0  0  0  0  0  0  0
   56.0170   30.7400   44.3460 O   0  0  0  0  0  0  0  0  0  0  0  0
   57.8210   29.4210   44.9680 C   0  0  0  0  0  0  0  0  0  0  0  0
   58.8440   30.4440   44.5400 C   0  0  0  0  0  0  0  0  0  0  0  0
   59.8509   30.0779   44.7894 H   0  0  0  0  0  0  0  0  0  0  0  0
   58.7616   30.6031   43.4547 H   0  0  0  0  0  0  0  0  0  0  0  0
   58.5990   31.7490   45.2490 C   0  0  0  0  0  0  0  0  0  0  0  0
   58.3630   32.9240   44.5140 C   0  0  0  0  0  0  0  0  0  0  0  0
   58.3215   32.8843   43.4155 H   0  0  0  0  0  0  0  0  0  0  0  0
   58.1810   34.1420   45.1740 C   0  0  0  0  0  0  0  0  0  0  0  0
   57.9916   35.0574   44.5941 H   0  0  0  0  0  0  0  0  0  0  0  0
   58.2390   34.2000   46.5680 C   0  0  0  0  0  0  0  0  0  0  0  0
   58.0920   35.1597   47.0850 H   0  0  0  0  0  0  0  0  0  0  0  0
   58.4840   33.0380   47.3070 C   0  0  0  0  0  0  0  0  0  0  0  0
   58.5480   33.0980   48.6940 O   0  0  0  0  0  0  0  0  0  0  0  0
   58.6650   31.8160   46.6510 C   0  0  0  0  0  0  0  0  0  0  0  0
   58.8597   30.9042   47.2347 H   0  0  0  0  0  0  0  0  0  0  0  0
   58.2440   28.1800   45.4640 C   0  0  0  0  0  0  0  0  0  0  0  0
   59.3169   27.9887   45.6132 H   0  0  0  0  0  0  0  0  0  0  0  0
  1  2  1  0
  2  3  2  0
  3  4  1  0
  3  5  1  0
  5  6  2  0
  6  7  1  0
  6  8  1  0
  8  9  1  0
  8 10  2  0
 10 11  1  0
 10 12  1  0
 12 13  1  0
 12 14  2  0
 14 15  1  0
  2 16  1  0
 16 17  2  0
 17 18  1  0
 17 19  1  0
 19 20  1  0
 20 21  2  0
 20 22  1  0
 22 23  1  0
 23 24  1  0
 23 25  1  0
 23 26  1  0
 26 27  2  0
 27 28  1  0
 27 29  1  0
 29 30  1  0
 29 31  2  0
 31 32  1  0
 31 33  1  0
 33 34  1  0
 33 35  2  0
 35 36  1  0
 22 37  2  0
 37 38  1  0
 14  5  1  0
 37 16  1  0
 35 26  1  0
M  CHG  4  15  -1  18  -1  19  -1  34  -1
M  END
>  <UniqueID>  (51) 
45

>  <SMILES>  (51) 
O=c1[n-]c([O-])c(/C=C\c2ccccc2[O-])cc1Cc1cccc([O-])c1

>  <Energy>  (51) 
53.526758159328516

>  <Genealogy>  (51) 
O=c1[n-]c([O-])c(C=Cc2ccccc2[O-])cc1Cc1cccc([O-])c1 (protonated)
O=c1[n-]c([O-])c(/C=C\c2ccccc2[O-])cc1Cc1cccc([O-])c1 (cis-trans isomerization)
O=c1[n-]c([O-])c(/C=C\c2ccccc2[O-])cc1Cc1cccc([O-])c1 (3D coordinates assigned)
O=c1[n-]c([O-])c(/C=C\c2ccccc2[O-])cc1Cc1cccc([O-])c1 (optimized conformer: 53.526758159328516 kcal/mol)

>  <smiles>  (51) 
O=c1[nH]c(O)c(C=Cc2ccccc2O)cc1Cc1cccc(O)c1

>  <score_type>  (51) 
oracle

>  <origin>  (51) 
adg

>  <m_score__min__energy>  (51) 
-17.170000000000002

>  <m_primary>  (51) 
energy

$$$$
51:0
     RDKit          3D

 42 44  0  0  0  0  0  0  0  0999 V2000
   56.1110   30.5060   44.0530 C   0  0  0  0  0  0  0  0  0  0  0  0
   57.5080   31.5270   43.6340 S   0  0  0  0  0  0  0  0  0  0  0  0
   58.7890   30.8690   44.0640 O   0  0  0  0  0  0  0  0  0  0  0  0
   57.5370   31.7080   42.1430 O   0  0  0  0  0  0  0  0  0  0  0  0
   57.3590   33.0860   44.3840 N   0  0  0  0  0  0  0  0  0  0  0  0
   58.0990   33.5070   45.5450 C   0  0  0  0  0  0  0  0  0  0  0  0
   58.9040   34.6620   45.5400 C   0  0  0  0  0  0  0  0  0  0  0  0
   59.5960   35.0450   46.6910 C   0  0  0  0  0  0  0  0  0  0  0  0
   59.4980   34.2830   47.8580 C   0  0  0  0  0  0  0  0  0  0  0  0
   58.7150   33.1250   47.8800 C   0  0  0  0  0  0  0  0  0  0  0  0
   58.6310   32.3940   49.0740 O   0  0  0  0  0  0  0  0  0  0  0  0
   59.0850   31.0800   49.2500 C   0  0  0  0  0  0  0  0  0  0  0  0
   58.5250   30.0890   48.5080 N   0  0  0  0  0  0  0  0  0  0  0  0
   58.9100   28.7930   48.6450 C   0  0  0  0  0  0  0  0  0  0  0  0
   58.3220   27.8160   47.8320 O   0  0  0  0  0  0  0  0  0  0  0  0
   58.4740   27.7210   46.4400 C   0  0  0  0  0  0  0  0  0  0  0  0
   59.5880   28.2970   45.7990 C   0  0  0  0  0  0  0  0  0  0  0  0
   59.7450   28.1900   44.4170 C   0  0  0  0  0  0  0  0  0  0  0  0
   58.8040   27.4970   43.6590 C   0  0  0  0  0  0  0  0  0  0  0  0
   57.7050   26.9030   44.2800 C   0  0  0  0  0  0  0  0  0  0  0  0
   57.5250   26.9990   45.6730 C   0  0  0  0  0  0  0  0  0  0  0  0
   56.3420   26.3510   46.2940 C   0  0  0  0  0  0  0  0  0  0  0  0
   55.1710   26.7000   45.9880 O   0  0  0  0  0  0  0  0  0  0  0  0
   56.5100   25.3380   47.2320 O   0  0  0  0  0  0  0  0  0  0  0  0
   59.8830   28.4710   49.5400 N   0  0  0  0  0  0  0  0  0  0  0  0
   60.4610   29.4210   50.3180 C   0  0  0  0  0  0  0  0  0  0  0  0
   60.0690   30.7530   50.1980 C   0  0  0  0  0  0  0  0  0  0  0  0
   60.6030   31.6920   51.0170 F   0  0  0  0  0  0  0  0  0  0  0  0
   58.0030   32.7510   46.7250 C   0  0  0  0  0  0  0  0  0  0  0  0
   56.0203   30.4397   45.1473 H   0  0  0  0  0  0  0  0  0  0  0  0
   55.1948   30.9488   43.6353 H   0  0  0  0  0  0  0  0  0  0  0  0
   56.2547   29.4986   43.6353 H   0  0  0  0  0  0  0  0  0  0  0  0
   56.6250   33.7210   43.9970 H   0  0  0  0  0  0  0  0  0  0  0  0
   58.9884   35.2660   44.6246 H   0  0  0  0  0  0  0  0  0  0  0  0
   60.2208   35.9503   46.6788 H   0  0  0  0  0  0  0  0  0  0  0  0
   60.0392   34.5955   48.7632 H   0  0  0  0  0  0  0  0  0  0  0  0
   60.3407   28.8359   46.3932 H   0  0  0  0  0  0  0  0  0  0  0  0
   60.6130   28.6535   43.9252 H   0  0  0  0  0  0  0  0  0  0  0  0
   58.9277   27.4180   42.5688 H   0  0  0  0  0  0  0  0  0  0  0  0
   56.9701   26.3529   43.6739 H   0  0  0  0  0  0  0  0  0  0  0  0
   61.2388   29.1397   51.0432 H   0  0  0  0  0  0  0  0  0  0  0  0
   57.3638   31.8561   46.7466 H   0  0  0  0  0  0  0  0  0  0  0  0
  1  2  1  0
  2  3  2  0
  2  4  2  0
  2  5  1  0
  5  6  1  0
  6  7  2  0
  7  8  1  0
  8  9  2  0
  9 10  1  0
 10 11  1  0
 11 12  1  0
 12 13  2  0
 13 14  1  0
 14 15  1  0
 15 16  1  0
 16 17  2  0
 17 18  1  0
 18 19  2  0
 19 20  1  0
 20 21  2  0
 21 22  1  0
 22 23  2  0
 22 24  1  0
 14 25  2  0
 25 26  1  0
 26 27  2  0
 27 28  1  0
 10 29  2  0
 29  6  1  0
 27 12  1  0
 21 16  1  0
  1 30  1  0
  1 31  1  0
  1 32  1  0
  5 33  1  0
  7 34  1  0
  8 35  1  0
  9 36  1  0
 17 37  1  0
 18 38  1  0
 19 39  1  0
 20 40  1  0
 26 41  1  0
 29 42  1  0
M  CHG  1  24  -1
M  END
>  <UniqueID>  (52) 
46

>  <SMILES>  (52) 
CS(=O)(=O)Nc1cccc(Oc2nc(Oc3ccccc3C(=O)[O-])ncc2F)c1

>  <Energy>  (52) 
59.607155424071976

>  <Genealogy>  (52) 
CS(=O)(=O)Nc1cccc(Oc2nc(Oc3ccccc3C(=O)[O-])ncc2F)c1 (protonated)
CS(=O)(=O)Nc1cccc(Oc2nc(Oc3ccccc3C(=O)[O-])ncc2F)c1 (3D coordinates assigned)
CS(=O)(=O)Nc1cccc(Oc2nc(Oc3ccccc3C(=O)[O-])ncc2F)c1 (optimized conformer: 59.607155424071976 kcal/mol)

>  <smiles>  (52) 
CS(=O)(=O)Nc1cccc(Oc2nc(Oc3ccccc3C(=O)O)ncc2F)c1

>  <score_type>  (52) 
oracle

>  <origin>  (52) 
adg

>  <m_score__min__energy>  (52) 
-11.789999999999999

>  <m_primary>  (52) 
energy

$$$$
52:0
     RDKit          3D

 44 46  0  0  0  0  0  0  0  0999 V2000
   57.7132   33.5883   48.1728 H   0  0  0  0  0  0  0  0  0  0  0  0
   58.0620   33.6950   47.1350 C   0  0  0  0  0  0  0  0  0  0  0  0
   57.4600   32.9890   46.1400 N   0  0  0  0  0  0  0  0  0  0  0  0
   57.8480   33.0900   44.8390 C   0  0  0  0  0  0  0  0  0  0  0  0
   57.2150   32.3820   43.9460 N   0  0  0  0  0  0  0  0  0  0  0  0
   57.1090   30.9490   43.8870 C   0  0  0  0  0  0  0  0  0  0  0  0
   56.3150   30.4340   43.0560 O   0  0  0  0  0  0  0  0  0  0  0  0
   57.9590   30.0720   44.7270 C   0  0  0  0  0  0  0  0  0  0  0  0
   58.9690   29.2910   44.1410 C   0  0  0  0  0  0  0  0  0  0  0  0
   59.1701   29.3764   43.0629 H   0  0  0  0  0  0  0  0  0  0  0  0
   59.7200   28.4060   44.9200 C   0  0  0  0  0  0  0  0  0  0  0  0
   60.5037   27.7922   44.4519 H   0  0  0  0  0  0  0  0  0  0  0  0
   59.4770   28.2990   46.2950 C   0  0  0  0  0  0  0  0  0  0  0  0
   60.3330   27.1070   47.2690 S   0  0  0  0  0  0  0  0  0  0  0  0
   60.9710   27.8030   48.4370 O   0  0  0  0  0  0  0  0  0  0  0  0
   61.3990   26.4220   46.4600 O   0  0  0  0  0  0  0  0  0  0  0  0
   59.2080   25.9180   47.8480 N   0  0  0  0  0  0  0  0  0  0  0  0
   59.2640   25.6660   48.8600 H   0  0  0  0  0  0  0  0  0  0  0  0
   58.0920   25.4480   47.0730 C   0  0  0  0  0  0  0  0  0  0  0  0
   58.0890   24.1730   46.4810 C   0  0  0  0  0  0  0  0  0  0  0  0
   58.9515   23.5045   46.6194 H   0  0  0  0  0  0  0  0  0  0  0  0
   56.9980   23.7490   45.7180 C   0  0  0  0  0  0  0  0  0  0  0  0
   57.0079   22.7488   45.2604 H   0  0  0  0  0  0  0  0  0  0  0  0
   55.8900   24.5890   45.5310 C   0  0  0  0  0  0  0  0  0  0  0  0
   54.7050   24.1030   44.7380 C   0  0  0  0  0  0  0  0  0  0  0  0
   55.0601   23.5349   43.8655 H   0  0  0  0  0  0  0  0  0  0  0  0
   54.1149   24.9703   44.4071 H   0  0  0  0  0  0  0  0  0  0  0  0
   53.8430   23.2210   45.5840 C   0  0  0  0  0  0  0  0  0  0  0  0
   54.2530   22.8240   46.7060 O   0  0  0  0  0  0  0  0  0  0  0  0
   52.6050   22.8020   45.1150 O   0  0  0  0  0  0  0  0  0  0  0  0
   55.8810   25.8580   46.1410 C   0  0  0  0  0  0  0  0  0  0  0  0
   54.7880   26.7060   45.9940 O   0  0  0  0  0  0  0  0  0  0  0  0
   56.9740   26.2790   46.9050 C   0  0  0  0  0  0  0  0  0  0  0  0
   56.9571   27.2715   47.3790 H   0  0  0  0  0  0  0  0  0  0  0  0
   58.5050   29.1080   46.8910 C   0  0  0  0  0  0  0  0  0  0  0  0
   58.3343   29.0503   47.9761 H   0  0  0  0  0  0  0  0  0  0  0  0
   57.7500   29.9890   46.1140 C   0  0  0  0  0  0  0  0  0  0  0  0
   56.9870   30.6219   46.5907 H   0  0  0  0  0  0  0  0  0  0  0  0
   58.9340   33.9340   44.5130 C   0  0  0  0  0  0  0  0  0  0  0  0
   59.2836   34.0118   43.4729 H   0  0  0  0  0  0  0  0  0  0  0  0
   59.5590   34.6680   45.5230 C   0  0  0  0  0  0  0  0  0  0  0  0
   60.3975   35.3366   45.2782 H   0  0  0  0  0  0  0  0  0  0  0  0
   59.1210   34.5540   46.8410 C   0  0  0  0  0  0  0  0  0  0  0  0
   59.6048   35.1347   47.6403 H   0  0  0  0  0  0  0  0  0  0  0  0
  1  2  1  0
  2  3  1  0
  3  4  1  0
  4  5  2  0
  5  6  1  0
  6  7  2  0
  6  8  1  0
  8  9  2  0
  9 10  1  0
  9 11  1  0
 11 12  1  0
 11 13  2  0
 13 14  1  0
 14 15  2  0
 14 16  2  0
 14 17  1  0
 17 18  1  0
 17 19  1  0
 19 20  2  0
 20 21  1  0
 20 22  1  0
 22 23  1  0
 22 24  2  0
 24 25  1  0
 25 26  1  0
 25 27  1  0
 25 28  1  0
 28 29  2  0
 28 30  1  0
 24 31  1  0
 31 32  1  0
 31 33  2  0
 33 34  1  0
 13 35  1  0
 35 36  1  0
 35 37  2  0
 37 38  1  0
  4 39  1  0
 39 40  1  0
 39 41  2  0
 41 42  1  0
 41 43  1  0
 43 44  1  0
 43  2  2  0
 37  8  1  0
 33 19  1  0
M  CHG  3   3  -1  30  -1  32  -1
M  END
>  <UniqueID>  (53) 
47

>  <SMILES>  (53) 
O=C([O-])Cc1ccc(NS(=O)(=O)c2ccc(C(=O)/N=c3\cccc[n-]3)cc2)cc1[O-]

>  <Energy>  (53) 
58.151329952977214

>  <Genealogy>  (53) 
O=C([O-])Cc1ccc(NS(=O)(=O)c2ccc(C(=O)N=c3cccc[n-]3)cc2)cc1[O-] (protonated)
O=C([O-])Cc1ccc(NS(=O)(=O)c2ccc(C(=O)/N=c3\cccc[n-]3)cc2)cc1[O-] (cis-trans isomerization)
O=C([O-])Cc1ccc(NS(=O)(=O)c2ccc(C(=O)/N=c3\cccc[n-]3)cc2)cc1[O-] (3D coordinates assigned)
O=C([O-])Cc1ccc(NS(=O)(=O)c2ccc(C(=O)/N=c3\cccc[n-]3)cc2)cc1[O-] (optimized conformer: 58.151329952977214 kcal/mol)

>  <smiles>  (53) 
O=C(O)Cc1ccc(NS(=O)(=O)c2ccc(C(=O)N=c3cccc[nH]3)cc2)cc1O

>  <score_type>  (53) 
oracle

>  <origin>  (53) 
adg

>  <m_score__min__energy>  (53) 
-15.84

>  <m_primary>  (53) 
energy

$$$$
53:0
     RDKit          3D

 54 58  0  0  0  0  0  0  0  0999 V2000
   55.1220   26.3360   45.9580 N   0  0  0  0  0  0  0  0  0  0  0  0
   56.2820   26.0480   46.7340 C   0  0  0  0  0  0  0  0  0  0  0  0
   56.3470   24.9640   47.3700 O   0  0  0  0  0  0  0  0  0  0  0  0
   57.4430   27.0060   46.7100 C   0  0  1  0  0  0  0  0  0  0  0  0
   58.6400   26.6790   45.7720 C   0  0  1  0  0  0  0  0  0  0  0  0
   58.6870   25.3090   45.2080 N   0  0  0  0  0  0  0  0  0  0  0  0
   57.5450   24.3710   44.9980 C   0  0  1  0  0  0  0  0  0  0  0  0
   56.9940   24.5470   43.5610 C   0  0  0  0  0  0  0  0  0  0  0  0
   55.8080   23.5990   43.2620 C   0  0  0  0  0  0  0  0  0  0  0  0
   55.7940   22.4030   44.0260 O   0  0  0  0  0  0  0  0  0  0  0  0
   57.1070   21.9500   44.2720 C   0  0  0  0  0  0  0  0  0  0  0  0
   57.7720   22.8580   45.3250 C   0  0  2  0  0  0  0  0  0  0  0  0
   57.1930   22.5610   46.5730 O   0  0  0  0  0  0  0  0  0  0  0  0
   58.7990   27.8800   44.7470 C   0  0  0  0  0  0  0  0  0  0  0  0
   57.7990   28.9850   45.1750 C   0  0  1  0  0  0  0  0  0  0  0  0
   58.3600   30.1920   45.7800 N   0  0  0  0  0  0  0  0  0  0  0  0
   59.1520   30.2560   46.8700 C   0  0  0  0  0  0  0  0  0  0  0  0
   59.3850   31.5270   47.2650 N   0  0  0  0  0  0  0  0  0  0  0  0
   58.6880   32.2690   46.3830 C   0  0  0  0  0  0  0  0  0  0  0  0
   58.6120   33.6960   46.4460 N   0  0  0  0  0  0  0  0  0  0  0  0
   59.7360   34.5850   46.4980 C   0  0  0  0  0  0  0  0  0  0  0  0
   59.6440   35.7090   45.9340 O   0  0  0  0  0  0  0  0  0  0  0  0
   61.0110   34.2030   47.1540 C   0  0  0  0  0  0  0  0  0  0  0  0
   61.1220   34.1820   48.5570 C   0  0  0  0  0  0  0  0  0  0  0  0
   62.3330   33.8340   49.1680 C   0  0  0  0  0  0  0  0  0  0  0  0
   63.4380   33.4890   48.3860 C   0  0  0  0  0  0  0  0  0  0  0  0
   63.3330   33.4860   46.9910 C   0  0  0  0  0  0  0  0  0  0  0  0
   62.1250   33.8360   46.3760 C   0  0  0  0  0  0  0  0  0  0  0  0
   58.0620   31.4610   45.4620 C   0  0  0  0  0  0  0  0  0  0  0  0
   56.4350   28.9720   44.9530 C   0  0  0  0  0  0  0  0  0  0  0  0
   55.4140   29.2520   44.2730 O   0  0  0  0  0  0  0  0  0  0  0  0
   57.1110   28.2550   46.1210 N   0  0  0  0  0  0  0  0  0  0  0  0
   55.1410   27.0880   45.2350 H   0  0  0  0  0  0  0  0  0  0  0  0
   57.6945   26.9709   47.7803 H   0  0  0  0  0  0  0  0  0  0  0  0
   59.5550   26.6176   46.3795 H   0  0  0  0  0  0  0  0  0  0  0  0
   59.5640   24.8290   45.5190 H   0  0  0  0  0  0  0  0  0  0  0  0
   56.8119   24.6686   45.7622 H   0  0  0  0  0  0  0  0  0  0  0  0
   56.6550   25.5862   43.4378 H   0  0  0  0  0  0  0  0  0  0  0  0
   57.8045   24.3007   42.8593 H   0  0  0  0  0  0  0  0  0  0  0  0
   54.8745   24.1448   43.4638 H   0  0  0  0  0  0  0  0  0  0  0  0
   55.9138   23.2933   42.2107 H   0  0  0  0  0  0  0  0  0  0  0  0
   57.0746   20.9162   44.6465 H   0  0  0  0  0  0  0  0  0  0  0  0
   57.6882   21.9825   43.3386 H   0  0  0  0  0  0  0  0  0  0  0  0
   58.8566   22.6747   45.3311 H   0  0  0  0  0  0  0  0  0  0  0  0
   56.2840   22.9560   46.5770 H   0  0  0  0  0  0  0  0  0  0  0  0
   59.8273   28.2694   44.7796 H   0  0  0  0  0  0  0  0  0  0  0  0
   58.5942   27.5454   43.7193 H   0  0  0  0  0  0  0  0  0  0  0  0
   59.5624   29.3722   47.3803 H   0  0  0  0  0  0  0  0  0  0  0  0
   60.2515   34.4407   49.1777 H   0  0  0  0  0  0  0  0  0  0  0  0
   62.4143   33.8323   50.2650 H   0  0  0  0  0  0  0  0  0  0  0  0
   64.3900   33.2199   48.8668 H   0  0  0  0  0  0  0  0  0  0  0  0
   64.2016   33.2080   46.3759 H   0  0  0  0  0  0  0  0  0  0  0  0
   62.0461   33.8241   45.2789 H   0  0  0  0  0  0  0  0  0  0  0  0
   57.4344   31.7933   44.6219 H   0  0  0  0  0  0  0  0  0  0  0  0
  1  2  1  0
  2  3  2  0
  2  4  1  0
  4  5  1  0
  5  6  1  0
  6  7  1  0
  7  8  1  0
  8  9  1  0
  9 10  1  0
 10 11  1  0
 11 12  1  0
 12 13  1  0
  5 14  1  0
 14 15  1  0
 15 16  1  1
 16 17  1  0
 17 18  2  0
 18 19  1  0
 19 20  1  0
 20 21  1  0
 21 22  2  0
 21 23  1  0
 23 24  2  0
 24 25  1  0
 25 26  2  0
 26 27  1  0
 27 28  2  0
 19 29  2  0
 15 30  1  0
 30 31  2  0
 30 32  1  0
 32  4  1  0
 12  7  1  0
 32 15  1  0
 29 16  1  0
 28 23  1  0
  1 33  1  0
  4 34  1  1
  5 35  1  1
  6 36  1  0
  7 37  1  1
  8 38  1  0
  8 39  1  0
  9 40  1  0
  9 41  1  0
 11 42  1  0
 11 43  1  0
 12 44  1  1
 13 45  1  0
 14 46  1  0
 14 47  1  0
 17 48  1  0
 24 49  1  0
 25 50  1  0
 26 51  1  0
 27 52  1  0
 28 53  1  0
 29 54  1  0
M  CHG  2   1  -1  20  -1
M  END
>  <UniqueID>  (54) 
48

>  <SMILES>  (54) 
[NH-]C(=O)[C@H]1[C@@H](NC2CCOCC2O)CC2(n3cnc([N-]C(=O)c4ccccc4)c3)C(=O)N12

>  <Energy>  (54) 
288.46189169401106

>  <Genealogy>  (54) 
[NH-]C(=O)C1C(NC2CCOCC2O)CC2(n3cnc([N-]C(=O)c4ccccc4)c3)C(=O)N12 (protonated)
[NH-]C(=O)[C@H]1[C@@H](NC2CCOCC2O)CC2(n3cnc([N-]C(=O)c4ccccc4)c3)C(=O)N12 (chirality)
[NH-]C(=O)[C@H]1[C@@H](NC2CCOCC2O)CC2(n3cnc([N-]C(=O)c4ccccc4)c3)C(=O)N12 (3D coordinates assigned)
[NH-]C(=O)[C@H]1[C@@H](NC2CCOCC2O)CC2(n3cnc([N-]C(=O)c4ccccc4)c3)C(=O)N12 (nonaromatic ring conformer: 288.46189169401106 kcal/mol)

>  <smiles>  (54) 
NC(=O)C1C(NC2CCOCC2O)CC2(n3cnc(NC(=O)c4ccccc4)c3)C(=O)N12

>  <score_type>  (54) 
oracle

>  <origin>  (54) 
adg

>  <m_score__min__energy>  (54) 
-14.26

>  <m_primary>  (54) 
energy

$$$$
54:0
     RDKit          3D

 46 48  0  0  0  0  0  0  0  0999 V2000
   60.1220   29.2070   45.4330 C   0  0  0  0  0  0  0  0  0  0  0  0
   59.1030   28.1680   45.8330 C   0  0  0  0  0  0  0  0  0  0  0  0
   57.9510   27.9470   45.0310 C   0  0  0  0  0  0  0  0  0  0  0  0
   57.6930   28.7730   43.8750 N   0  0  0  0  0  0  0  0  0  0  0  0
   56.6280   30.1450   43.8710 S   0  0  0  0  0  0  0  0  0  0  0  0
   57.0310   31.2440   42.5300 C   0  0  0  0  0  0  0  0  0  0  0  0
   56.8000   30.8950   45.1620 O   0  0  0  0  0  0  0  0  0  0  0  0
   55.2000   29.6890   43.7640 O   0  0  0  0  0  0  0  0  0  0  0  0
   57.0390   26.9440   45.4060 C   0  0  0  0  0  0  0  0  0  0  0  0
   57.2430   26.1950   46.5610 C   0  0  0  0  0  0  0  0  0  0  0  0
   58.3480   26.4370   47.3700 C   0  0  0  0  0  0  0  0  0  0  0  0
   59.2950   27.4150   47.0140 C   0  0  0  0  0  0  0  0  0  0  0  0
   60.4160   27.6840   47.8230 O   0  0  0  0  0  0  0  0  0  0  0  0
   60.3900   28.2380   49.1410 C   0  0  0  0  0  0  0  0  0  0  0  0
   60.7630   29.7240   49.1130 C   0  0  0  0  0  0  0  0  0  0  0  0
   61.3650   30.0940   47.8730 O   0  0  0  0  0  0  0  0  0  0  0  0
   61.7920   31.3850   47.5220 C   0  0  0  0  0  0  0  0  0  0  0  0
   63.1510   31.7530   47.5020 C   0  0  0  0  0  0  0  0  0  0  0  0
   63.5300   33.0380   47.1020 C   0  0  0  0  0  0  0  0  0  0  0  0
   62.5650   33.9710   46.7190 C   0  0  0  0  0  0  0  0  0  0  0  0
   61.2090   33.6260   46.7460 C   0  0  0  0  0  0  0  0  0  0  0  0
   60.2190   34.5400   46.3610 C   0  0  0  0  0  0  0  0  0  0  0  0
   58.8740   34.1640   46.4000 C   0  0  0  0  0  0  0  0  0  0  0  0
   58.5320   32.8780   46.8190 C   0  0  0  0  0  0  0  0  0  0  0  0
   59.5010   31.9970   47.1810 N   0  0  0  0  0  0  0  0  0  0  0  0
   60.8210   32.3310   47.1590 C   0  0  0  0  0  0  0  0  0  0  0  0
   60.5620   29.6557   46.3358 H   0  0  0  0  0  0  0  0  0  0  0  0
   60.9146   28.7324   44.8358 H   0  0  0  0  0  0  0  0  0  0  0  0
   59.6321   29.9902   44.8358 H   0  0  0  0  0  0  0  0  0  0  0  0
   58.1420   28.5460   42.9620 H   0  0  0  0  0  0  0  0  0  0  0  0
   57.3830   32.2039   42.9358 H   0  0  0  0  0  0  0  0  0  0  0  0
   57.8228   30.7944   41.9128 H   0  0  0  0  0  0  0  0  0  0  0  0
   56.1363   31.4128   41.9128 H   0  0  0  0  0  0  0  0  0  0  0  0
   56.1556   26.7497   44.7800 H   0  0  0  0  0  0  0  0  0  0  0  0
   56.5262   25.4071   46.8356 H   0  0  0  0  0  0  0  0  0  0  0  0
   58.4829   25.8589   48.2961 H   0  0  0  0  0  0  0  0  0  0  0  0
   59.3785   28.1277   49.5589 H   0  0  0  0  0  0  0  0  0  0  0  0
   61.1215   27.7021   49.7637 H   0  0  0  0  0  0  0  0  0  0  0  0
   59.8521   30.3230   49.2598 H   0  0  0  0  0  0  0  0  0  0  0  0
   61.4909   29.9100   49.9165 H   0  0  0  0  0  0  0  0  0  0  0  0
   63.9190   31.0252   47.8028 H   0  0  0  0  0  0  0  0  0  0  0  0
   64.5944   33.3152   47.0891 H   0  0  0  0  0  0  0  0  0  0  0  0
   62.8703   34.9772   46.3960 H   0  0  0  0  0  0  0  0  0  0  0  0
   60.5000   35.5504   46.0291 H   0  0  0  0  0  0  0  0  0  0  0  0
   58.0906   34.8766   46.1026 H   0  0  0  0  0  0  0  0  0  0  0  0
   57.4748   32.5764   46.8564 H   0  0  0  0  0  0  0  0  0  0  0  0
  1  2  1  0
  2  3  2  0
  3  4  1  0
  4  5  1  0
  5  6  1  0
  5  7  2  0
  5  8  2  0
  3  9  1  0
  9 10  2  0
 10 11  1  0
 11 12  2  0
 12 13  1  0
 13 14  1  0
 14 15  1  0
 15 16  1  0
 16 17  1  0
 17 18  2  0
 18 19  1  0
 19 20  2  0
 20 21  1  0
 21 22  2  0
 22 23  1  0
 23 24  2  0
 24 25  1  0
 25 26  2  0
 12  2  1  0
 26 17  1  0
 26 21  1  0
  1 27  1  0
  1 28  1  0
  1 29  1  0
  4 30  1  0
  6 31  1  0
  6 32  1  0
  6 33  1  0
  9 34  1  0
 10 35  1  0
 11 36  1  0
 14 37  1  0
 14 38  1  0
 15 39  1  0
 15 40  1  0
 18 41  1  0
 19 42  1  0
 20 43  1  0
 22 44  1  0
 23 45  1  0
 24 46  1  0
M  END
>  <UniqueID>  (55) 
49

>  <SMILES>  (55) 
Cc1c(NS(C)(=O)=O)cccc1OCCOc1cccc2cccnc12

>  <Energy>  (55) 
49.92745081237658

>  <Genealogy>  (55) 
Cc1c(NS(C)(=O)=O)cccc1OCCOc1cccc2cccnc12 (3D coordinates assigned)
Cc1c(NS(C)(=O)=O)cccc1OCCOc1cccc2cccnc12 (optimized conformer: 49.92745081237658 kcal/mol)

>  <smiles>  (55) 
Cc1c(NS(C)(=O)=O)cccc1OCCOc1cccc2cccnc12

>  <score_type>  (55) 
oracle

>  <origin>  (55) 
adg

>  <m_score__min__energy>  (55) 
-8.9000000000000004

>  <m_primary>  (55) 
energy

$$$$
55:0
     RDKit          3D

 47 49  0  0  0  0  0  0  0  0999 V2000
   59.7240   27.8280   48.3490 C   0  0  0  0  0  0  0  0  0  0  0  0
   59.8750   29.3190   48.4050 C   0  0  0  0  0  0  0  0  0  0  0  0
   60.7540   29.9740   47.5290 C   0  0  0  0  0  0  0  0  0  0  0  0
   60.8670   31.3670   47.5560 C   0  0  0  0  0  0  0  0  0  0  0  0
   60.0950   32.1210   48.4510 C   0  0  0  0  0  0  0  0  0  0  0  0
   60.2120   33.8790   48.4840 S   0  0  0  0  0  0  0  0  0  0  0  0
   61.6530   34.3000   48.3990 O   0  0  0  0  0  0  0  0  0  0  0  0
   59.6450   34.3730   49.7870 O   0  0  0  0  0  0  0  0  0  0  0  0
   59.3130   34.5590   47.1470 N   0  0  2  0  0  0  0  0  0  0  0  0
   57.9040   34.0750   47.1530 C   0  0  0  0  0  0  0  0  0  0  0  0
   57.6630   32.9400   46.1470 C   0  0  0  0  0  0  0  0  0  0  0  0
   57.9650   33.4050   44.7020 C   0  0  2  0  0  0  0  0  0  0  0  0
   58.2490   32.1790   43.8050 C   0  0  0  0  0  0  0  0  0  0  0  0
   57.5260   30.9420   44.2790 C   0  0  0  0  0  0  0  0  0  0  0  0
   58.2110   29.9650   45.0230 C   0  0  0  0  0  0  0  0  0  0  0  0
   57.5420   28.8220   45.4720 C   0  0  0  0  0  0  0  0  0  0  0  0
   56.1860   28.6440   45.1820 C   0  0  0  0  0  0  0  0  0  0  0  0
   55.5230   27.5090   45.6290 O   0  0  0  0  0  0  0  0  0  0  0  0
   55.4970   29.6100   44.4420 C   0  0  0  0  0  0  0  0  0  0  0  0
   56.1630   30.7540   43.9910 C   0  0  0  0  0  0  0  0  0  0  0  0
   59.1170   34.4450   44.6640 C   0  0  0  0  0  0  0  0  0  0  0  0
   60.0390   34.3040   45.8810 C   0  0  0  0  0  0  0  0  0  0  0  0
   59.2020   31.4690   49.3110 C   0  0  0  0  0  0  0  0  0  0  0  0
   59.0880   30.0760   49.2860 C   0  0  0  0  0  0  0  0  0  0  0  0
   59.6832   27.4249   49.3717 H   0  0  0  0  0  0  0  0  0  0  0  0
   58.7955   27.5732   47.8171 H   0  0  0  0  0  0  0  0  0  0  0  0
   60.5826   27.3922   47.8171 H   0  0  0  0  0  0  0  0  0  0  0  0
   61.3564   29.3891   46.8184 H   0  0  0  0  0  0  0  0  0  0  0  0
   61.5643   31.8735   46.8724 H   0  0  0  0  0  0  0  0  0  0  0  0
   59.2940   35.5950   47.3030 H   0  0  0  0  0  0  0  0  0  0  0  0
   57.6621   33.7086   48.1616 H   0  0  0  0  0  0  0  0  0  0  0  0
   57.2615   34.9191   46.8619 H   0  0  0  0  0  0  0  0  0  0  0  0
   58.3189   32.0930   46.3966 H   0  0  0  0  0  0  0  0  0  0  0  0
   56.6063   32.6397   46.2045 H   0  0  0  0  0  0  0  0  0  0  0  0
   57.0783   33.9194   44.3031 H   0  0  0  0  0  0  0  0  0  0  0  0
   57.9232   32.4080   42.7796 H   0  0  0  0  0  0  0  0  0  0  0  0
   59.3290   31.9743   43.8474 H   0  0  0  0  0  0  0  0  0  0  0  0
   59.2781   30.1004   45.2529 H   0  0  0  0  0  0  0  0  0  0  0  0
   58.0835   28.0619   46.0542 H   0  0  0  0  0  0  0  0  0  0  0  0
   54.4300   29.4699   44.2144 H   0  0  0  0  0  0  0  0  0  0  0  0
   55.6175   31.5106   43.4079 H   0  0  0  0  0  0  0  0  0  0  0  0
   59.7071   34.2920   43.7484 H   0  0  0  0  0  0  0  0  0  0  0  0
   58.6747   35.4520   44.6799 H   0  0  0  0  0  0  0  0  0  0  0  0
   60.4475   33.2829   45.9031 H   0  0  0  0  0  0  0  0  0  0  0  0
   60.8448   35.0473   45.7905 H   0  0  0  0  0  0  0  0  0  0  0  0
   58.5875   32.0560   50.0094 H   0  0  0  0  0  0  0  0  0  0  0  0
   58.3791   29.5717   49.9591 H   0  0  0  0  0  0  0  0  0  0  0  0
  1  2  1  0
  2  3  2  0
  3  4  1  0
  4  5  2  0
  5  6  1  0
  6  7  2  0
  6  8  2  0
  6  9  1  0
  9 10  1  0
 10 11  1  0
 11 12  1  0
 12 13  1  0
 13 14  1  0
 14 15  2  0
 15 16  1  0
 16 17  2  0
 17 18  1  0
 17 19  1  0
 19 20  2  0
 12 21  1  0
 21 22  1  0
  5 23  1  0
 23 24  2  0
 24  2  1  0
 22  9  1  0
 20 14  1  0
  1 25  1  0
  1 26  1  0
  1 27  1  0
  3 28  1  0
  4 29  1  0
  9 30  1  1
 10 31  1  0
 10 32  1  0
 11 33  1  0
 11 34  1  0
 12 35  1  6
 13 36  1  0
 13 37  1  0
 15 38  1  0
 16 39  1  0
 19 40  1  0
 20 41  1  0
 21 42  1  0
 21 43  1  0
 22 44  1  0
 22 45  1  0
 23 46  1  0
 24 47  1  0
M  CHG  2   9   1  18  -1
M  END
>  <UniqueID>  (56) 
50

>  <SMILES>  (56) 
Cc1ccc(S(=O)(=O)[NH+]2CCC(Cc3ccc([O-])cc3)CC2)cc1

>  <Energy>  (56) 
52.35768347914585

>  <Genealogy>  (56) 
Cc1ccc(S(=O)(=O)[NH+]2CCC(Cc3ccc([O-])cc3)CC2)cc1 (protonated)
Cc1ccc(S(=O)(=O)[NH+]2CCC(Cc3ccc([O-])cc3)CC2)cc1 (3D coordinates assigned)
Cc1ccc(S(=O)(=O)[NH+]2CCC(Cc3ccc([O-])cc3)CC2)cc1 (nonaromatic ring conformer: 52.35768347914585 kcal/mol)

>  <smiles>  (56) 
Cc1ccc(S(=O)(=O)N2CCC(Cc3ccc(O)cc3)CC2)cc1

>  <score_type>  (56) 
oracle

>  <origin>  (56) 
adg

>  <m_score__min__energy>  (56) 
-10.41

>  <m_primary>  (56) 
energy

$$$$
56:0
     RDKit          3D

 45 47  0  0  0  0  0  0  0  0999 V2000
   59.9180   34.3660   47.4320 C   0  0  0  0  0  0  0  0  0  0  0  0
   59.7670   33.6890   46.0670 C   0  0  0  0  0  0  0  0  0  0  0  0
   58.5220   32.9000   45.9830 N   0  0  0  0  0  0  0  0  0  0  0  0
   58.2540   31.8550   46.9860 C   0  0  0  0  0  0  0  0  0  0  0  0
   59.1990   30.6830   46.8500 C   0  0  0  0  0  0  0  0  0  0  0  0
   60.2940   30.6960   47.4730 O   0  0  0  0  0  0  0  0  0  0  0  0
   58.9060   29.5400   46.0310 N   0  0  0  0  0  0  0  0  0  0  0  0
   58.4850   28.3660   46.4010 C   0  0  0  0  0  0  0  0  0  0  0  0
   57.3100   27.8140   46.0280 N   0  0  0  0  0  0  0  0  0  0  0  0
   57.1480   26.5710   46.5580 C   0  0  0  0  0  0  0  0  0  0  0  0
   55.9240   25.7850   46.3050 C   0  0  0  0  0  0  0  0  0  0  0  0
   54.8470   26.3900   46.0630 O   0  0  0  0  0  0  0  0  0  0  0  0
   55.9070   24.3520   46.3760 N   0  0  0  0  0  0  0  0  0  0  0  0
   56.3970   23.4490   45.3730 C   0  0  0  0  0  0  0  0  0  0  0  0
   55.9090   23.4730   44.0530 C   0  0  0  0  0  0  0  0  0  0  0  0
   56.3850   22.5570   43.1100 C   0  0  0  0  0  0  0  0  0  0  0  0
   57.3310   21.5990   43.4830 C   0  0  0  0  0  0  0  0  0  0  0  0
   57.8050   21.5550   44.7970 C   0  0  0  0  0  0  0  0  0  0  0  0
   57.3360   22.4770   45.7400 C   0  0  0  0  0  0  0  0  0  0  0  0
   58.1950   26.1390   47.3750 C   0  0  0  0  0  0  0  0  0  0  0  0
   59.3610   27.3500   47.4090 S   0  0  0  0  0  0  0  0  0  0  0  0
   57.7450   32.8990   44.7640 C   0  0  0  0  0  0  0  0  0  0  0  0
   57.5850   33.9780   44.1240 O   0  0  0  0  0  0  0  0  0  0  0  0
   57.1490   31.6620   44.2160 C   0  0  0  0  0  0  0  0  0  0  0  0
   57.4050   31.1150   42.9680 C   0  0  0  0  0  0  0  0  0  0  0  0
   56.5860   30.0120   42.8540 C   0  0  0  0  0  0  0  0  0  0  0  0
   55.8690   29.9540   44.0290 C   0  0  0  0  0  0  0  0  0  0  0  0
   54.9140   28.9870   44.3260 O   0  0  0  0  0  0  0  0  0  0  0  0
   56.1960   30.9570   44.8660 N   0  0  0  0  0  0  0  0  0  0  0  0
   59.7529   33.6257   48.2287 H   0  0  0  0  0  0  0  0  0  0  0  0
   60.9314   34.7838   47.5240 H   0  0  0  0  0  0  0  0  0  0  0  0
   59.1782   35.1748   47.5240 H   0  0  0  0  0  0  0  0  0  0  0  0
   59.7521   34.4626   45.2852 H   0  0  0  0  0  0  0  0  0  0  0  0
   60.6167   33.0043   45.9282 H   0  0  0  0  0  0  0  0  0  0  0  0
   58.3688   32.2890   47.9902 H   0  0  0  0  0  0  0  0  0  0  0  0
   57.2302   31.4859   46.8264 H   0  0  0  0  0  0  0  0  0  0  0  0
   55.1506   24.2149   43.7623 H   0  0  0  0  0  0  0  0  0  0  0  0
   56.0148   22.5906   42.0747 H   0  0  0  0  0  0  0  0  0  0  0  0
   57.7036   20.8777   42.7408 H   0  0  0  0  0  0  0  0  0  0  0  0
   58.5459   20.7965   45.0899 H   0  0  0  0  0  0  0  0  0  0  0  0
   57.7070   22.4379   46.7748 H   0  0  0  0  0  0  0  0  0  0  0  0
   58.2476   25.1757   47.9035 H   0  0  0  0  0  0  0  0  0  0  0  0
   58.1191   31.4869   42.2185 H   0  0  0  0  0  0  0  0  0  0  0  0
   56.5188   29.3208   42.0009 H   0  0  0  0  0  0  0  0  0  0  0  0
   55.1530   28.1800   44.8890 H   0  0  0  0  0  0  0  0  0  0  0  0
  1  2  1  0
  2  3  1  0
  3  4  1  0
  4  5  1  0
  5  6  2  0
  5  7  1  0
  7  8  2  3
  8  9  1  0
  9 10  1  0
 10 11  1  0
 11 12  2  0
 11 13  1  0
 13 14  1  0
 14 15  2  0
 15 16  1  0
 16 17  2  0
 17 18  1  0
 18 19  2  0
 10 20  2  0
 20 21  1  0
  3 22  1  0
 22 23  2  0
 22 24  1  0
 24 25  2  0
 25 26  1  0
 26 27  2  0
 27 28  1  0
 27 29  1  0
 21  8  1  0
 29 24  1  0
 19 14  1  0
  1 30  1  0
  1 31  1  0
  1 32  1  0
  2 33  1  0
  2 34  1  0
  4 35  1  0
  4 36  1  0
 15 37  1  0
 16 38  1  0
 17 39  1  0
 18 40  1  0
 19 41  1  0
 20 42  1  0
 25 43  1  0
 26 44  1  0
 28 45  1  0
M  CHG  3   9  -1  13  -1  29  -1
M  END
>  <UniqueID>  (57) 
51

>  <SMILES>  (57) 
CCN(CC(=O)N=c1[n-]c(C(=O)[N-]c2ccccc2)cs1)C(=O)c1ccc(O)[n-]1

>  <Energy>  (57) 
111.883424200815

>  <Genealogy>  (57) 
CCN(CC(=O)N=c1[n-]c(C(=O)[N-]c2ccccc2)cs1)C(=O)c1ccc(O)[n-]1 (protonated)
CCN(CC(=O)N=c1[n-]c(C(=O)[N-]c2ccccc2)cs1)C(=O)c1ccc(O)[n-]1 (3D coordinates assigned)
CCN(CC(=O)N=c1[n-]c(C(=O)[N-]c2ccccc2)cs1)C(=O)c1ccc(O)[n-]1 (optimized conformer: 111.883424200815 kcal/mol)

>  <smiles>  (57) 
CCN(CC(=O)N=c1[nH]c(C(=O)Nc2ccccc2)cs1)C(=O)c1ccc(O)[nH]1

>  <score_type>  (57) 
oracle

>  <origin>  (57) 
adg

>  <m_score__min__energy>  (57) 
-13.91

>  <m_primary>  (57) 
energy

$$$$
57:0
     RDKit          3D

 74 77  0  0  0  0  0  0  0  0999 V2000
   58.1030   32.8360   51.4810 N   0  0  0  0  0  0  0  0  0  0  0  0
   58.4980   31.2930   50.7980 S   0  0  0  0  0  0  0  0  0  0  0  0
   58.5540   31.3960   49.2990 O   0  0  0  0  0  0  0  0  0  0  0  0
   57.4160   30.3200   51.1740 O   0  0  0  0  0  0  0  0  0  0  0  0
   60.0600   30.7230   51.4210 C   0  0  0  0  0  0  0  0  0  0  0  0
   60.4260   31.0620   52.7350 C   0  0  0  0  0  0  0  0  0  0  0  0
   61.6650   30.6740   53.2510 C   0  0  0  0  0  0  0  0  0  0  0  0
   62.5560   29.9490   52.4620 C   0  0  0  0  0  0  0  0  0  0  0  0
   62.2060   29.5960   51.1580 C   0  0  0  0  0  0  0  0  0  0  0  0
   60.9590   29.9640   50.6300 C   0  0  0  0  0  0  0  0  0  0  0  0
   60.6260   29.5400   49.2560 C   0  0  0  0  0  0  0  0  0  0  0  0
   60.9920   30.3420   48.1640 C   0  0  0  0  0  0  0  0  0  0  0  0
   60.6460   29.9600   46.8640 C   0  0  0  0  0  0  0  0  0  0  0  0
   59.9510   28.7620   46.6410 C   0  0  0  0  0  0  0  0  0  0  0  0
   59.4930   28.3950   45.2560 C   0  0  0  0  0  0  0  0  0  0  0  0
   58.3380   29.2210   44.8860 N   0  0  0  0  0  0  0  0  0  0  0  0
   58.5770   30.4690   44.4710 N   0  0  0  0  0  0  0  0  0  0  0  0
   57.5870   31.3120   44.0720 C   0  0  0  0  0  0  0  0  0  0  0  0
   57.9130   32.6840   43.5410 C   0  0  0  0  0  0  0  0  0  0  0  0
   57.5290   33.8020   44.5210 C   0  0  0  0  0  0  0  0  0  0  0  0
   57.8810   33.4210   45.9670 C   0  0  0  0  0  0  0  0  0  0  0  0
   59.0970   34.1930   46.5050 C   0  0  0  0  0  0  0  0  0  0  0  0
   59.0710   34.3540   48.0330 C   0  0  0  0  0  0  0  0  0  0  0  0
   60.4020   34.0710   48.6660 C   0  0  0  0  0  0  0  0  0  0  0  0
   60.4770   33.6920   49.8670 O   0  0  0  0  0  0  0  0  0  0  0  0
   61.5850   34.1610   47.8630 N   0  0  0  0  0  0  0  0  0  0  0  0
   62.1080   33.0650   47.0570 C   0  0  0  0  0  0  0  0  0  0  0  0
   63.6370   33.0870   47.0030 C   0  0  0  0  0  0  0  0  0  0  0  0
   64.1890   33.8240   48.0970 O   0  0  0  0  0  0  0  0  0  0  0  0
   64.2400   33.4100   49.4410 C   0  0  0  0  0  0  0  0  0  0  0  0
   65.1570   32.4070   49.7820 C   0  0  0  0  0  0  0  0  0  0  0  0
   65.2640   31.9580   51.1030 C   0  0  0  0  0  0  0  0  0  0  0  0
   64.4500   32.5080   52.0950 C   0  0  0  0  0  0  0  0  0  0  0  0
   63.5250   33.5020   51.7670 C   0  0  0  0  0  0  0  0  0  0  0  0
   63.4180   33.9580   50.4490 C   0  0  0  0  0  0  0  0  0  0  0  0
   56.2690   30.8530   44.0750 C   0  0  0  0  0  0  0  0  0  0  0  0
   56.0030   29.5520   44.4950 C   0  0  0  0  0  0  0  0  0  0  0  0
   57.0580   28.7300   44.8970 C   0  0  0  0  0  0  0  0  0  0  0  0
   56.8170   27.5470   45.2590 O   0  0  0  0  0  0  0  0  0  0  0  0
   59.6000   27.9550   47.7340 C   0  0  0  0  0  0  0  0  0  0  0  0
   59.9490   28.3340   49.0320 C   0  0  0  0  0  0  0  0  0  0  0  0
   58.6720   33.5500   50.9730 H   0  0  0  0  0  0  0  0  0  0  0  0
   58.4470   32.8390   52.4680 H   0  0  0  0  0  0  0  0  0  0  0  0
   59.7305   31.6381   53.3629 H   0  0  0  0  0  0  0  0  0  0  0  0
   61.9379   30.9414   54.2825 H   0  0  0  0  0  0  0  0  0  0  0  0
   63.5355   29.6549   52.8672 H   0  0  0  0  0  0  0  0  0  0  0  0
   62.9134   29.0246   50.5390 H   0  0  0  0  0  0  0  0  0  0  0  0
   61.5525   31.2736   48.3311 H   0  0  0  0  0  0  0  0  0  0  0  0
   60.9198   30.6012   46.0132 H   0  0  0  0  0  0  0  0  0  0  0  0
   60.3113   28.5684   44.5416 H   0  0  0  0  0  0  0  0  0  0  0  0
   59.2055   27.3335   45.2349 H   0  0  0  0  0  0  0  0  0  0  0  0
   58.9947   32.7398   43.3489 H   0  0  0  0  0  0  0  0  0  0  0  0
   57.3297   32.8326   42.6203 H   0  0  0  0  0  0  0  0  0  0  0  0
   58.0725   34.7190   44.2495 H   0  0  0  0  0  0  0  0  0  0  0  0
   56.4424   33.9611   44.4582 H   0  0  0  0  0  0  0  0  0  0  0  0
   57.0144   33.6378   46.6089 H   0  0  0  0  0  0  0  0  0  0  0  0
   58.1363   32.3511   45.9758 H   0  0  0  0  0  0  0  0  0  0  0  0
   60.0110   33.6491   46.2243 H   0  0  0  0  0  0  0  0  0  0  0  0
   59.0709   35.2009   46.0651 H   0  0  0  0  0  0  0  0  0  0  0  0
   58.7790   35.3869   48.2735 H   0  0  0  0  0  0  0  0  0  0  0  0
   58.3504   33.6252   48.4325 H   0  0  0  0  0  0  0  0  0  0  0  0
   61.7797   32.1110   47.4953 H   0  0  0  0  0  0  0  0  0  0  0  0
   61.7253   33.1779   46.0319 H   0  0  0  0  0  0  0  0  0  0  0  0
   64.0111   32.0533   47.0433 H   0  0  0  0  0  0  0  0  0  0  0  0
   63.9425   33.5775   46.0670 H   0  0  0  0  0  0  0  0  0  0  0  0
   65.7989   31.9683   49.0039 H   0  0  0  0  0  0  0  0  0  0  0  0
   65.9893   31.1719   51.3598 H   0  0  0  0  0  0  0  0  0  0  0  0
   64.5370   32.1587   53.1344 H   0  0  0  0  0  0  0  0  0  0  0  0
   62.8782   33.9278   52.5482 H   0  0  0  0  0  0  0  0  0  0  0  0
   62.6919   34.7451   50.1977 H   0  0  0  0  0  0  0  0  0  0  0  0
   55.4499   31.5111   43.7495 H   0  0  0  0  0  0  0  0  0  0  0  0
   54.9698   29.1748   44.5100 H   0  0  0  0  0  0  0  0  0  0  0  0
   59.0470   27.0188   47.5675 H   0  0  0  0  0  0  0  0  0  0  0  0
   59.6916   27.6837   49.8811 H   0  0  0  0  0  0  0  0  0  0  0  0
  1  2  1  0
  2  3  2  0
  2  4  2  0
  2  5  1  0
  5  6  2  0
  6  7  1  0
  7  8  2  0
  8  9  1  0
  9 10  2  0
 10 11  1  0
 11 12  2  0
 12 13  1  0
 13 14  2  0
 14 15  1  0
 15 16  1  0
 16 17  1  0
 17 18  2  0
 18 19  1  0
 19 20  1  0
 20 21  1  0
 21 22  1  0
 22 23  1  0
 23 24  1  0
 24 25  2  0
 24 26  1  0
 26 27  1  0
 27 28  1  0
 28 29  1  0
 29 30  1  0
 30 31  2  0
 31 32  1  0
 32 33  2  0
 33 34  1  0
 34 35  2  0
 18 36  1  0
 36 37  2  0
 37 38  1  0
 38 39  2  0
 14 40  1  0
 40 41  2  0
 10  5  1  0
 41 11  1  0
 38 16  1  0
 35 30  1  0
  1 42  1  0
  1 43  1  0
  6 44  1  0
  7 45  1  0
  8 46  1  0
  9 47  1  0
 12 48  1  0
 13 49  1  0
 15 50  1  0
 15 51  1  0
 19 52  1  0
 19 53  1  0
 20 54  1  0
 20 55  1  0
 21 56  1  0
 21 57  1  0
 22 58  1  0
 22 59  1  0
 23 60  1  0
 23 61  1  0
 27 62  1  0
 27 63  1  0
 28 64  1  0
 28 65  1  0
 31 66  1  0
 32 67  1  0
 33 68  1  0
 34 69  1  0
 35 70  1  0
 36 71  1  0
 37 72  1  0
 40 73  1  0
 41 74  1  0
M  CHG  1  26  -1
M  END
>  <UniqueID>  (58) 
52

>  <SMILES>  (58) 
NS(=O)(=O)c1ccccc1-c1ccc(Cn2nc(CCCCCC(=O)[N-]CCOc3ccccc3)ccc2=O)cc1

>  <Energy>  (58) 
74.72782904284853

>  <Genealogy>  (58) 
NS(=O)(=O)c1ccccc1-c1ccc(Cn2nc(CCCCCC(=O)[N-]CCOc3ccccc3)ccc2=O)cc1 (protonated)
NS(=O)(=O)c1ccccc1-c1ccc(Cn2nc(CCCCCC(=O)[N-]CCOc3ccccc3)ccc2=O)cc1 (3D coordinates assigned)
NS(=O)(=O)c1ccccc1-c1ccc(Cn2nc(CCCCCC(=O)[N-]CCOc3ccccc3)ccc2=O)cc1 (optimized conformer: 74.72782904284853 kcal/mol)

>  <smiles>  (58) 
NS(=O)(=O)c1ccccc1-c1ccc(Cn2nc(CCCCCC(=O)NCCOc3ccccc3)ccc2=O)cc1

>  <score_type>  (58) 
oracle

>  <origin>  (58) 
adg

>  <m_score__min__energy>  (58) 
-12.140000000000001

>  <m_primary>  (58) 
energy

$$$$
58:0
     RDKit          3D

 35 37  0  0  0  0  0  0  0  0999 V2000
   60.9670   29.6310   45.6390 O   0  0  0  0  0  0  0  0  0  0  0  0
   59.9840   30.2720   46.0990 C   0  0  0  0  0  0  0  0  0  0  0  0
   60.1580   31.1570   47.2150 N   0  0  0  0  0  0  0  0  0  0  0  0
   61.3590   31.8560   47.5770 C   0  0  0  0  0  0  0  0  0  0  0  0
   62.6230   31.2390   47.5060 C   0  0  0  0  0  0  0  0  0  0  0  0
   63.7700   31.9400   47.8860 C   0  0  0  0  0  0  0  0  0  0  0  0
   63.6700   33.2530   48.3460 C   0  0  0  0  0  0  0  0  0  0  0  0
   62.4180   33.8650   48.4430 C   0  0  0  0  0  0  0  0  0  0  0  0
   61.2540   33.1630   48.0820 C   0  0  0  0  0  0  0  0  0  0  0  0
   59.9850   33.7590   48.1620 O   0  0  0  0  0  0  0  0  0  0  0  0
   59.0850   33.9040   47.0960 C   0  0  0  0  0  0  0  0  0  0  0  0
   59.4960   34.6170   45.9620 C   0  0  0  0  0  0  0  0  0  0  0  0
   58.6340   34.7700   44.8720 C   0  0  0  0  0  0  0  0  0  0  0  0
   57.3580   34.1990   44.9030 C   0  0  0  0  0  0  0  0  0  0  0  0
   56.9470   33.4680   46.0200 C   0  0  0  0  0  0  0  0  0  0  0  0
   57.8080   33.3140   47.1130 C   0  0  0  0  0  0  0  0  0  0  0  0
   58.6570   30.1510   45.4510 C   0  0  0  0  0  0  0  0  0  0  0  0
   58.3650   30.8570   44.2710 C   0  0  0  0  0  0  0  0  0  0  0  0
   57.1110   30.7330   43.6700 C   0  0  0  0  0  0  0  0  0  0  0  0
   56.1520   29.9020   44.2530 C   0  0  0  0  0  0  0  0  0  0  0  0
   55.0160   29.7780   43.7250 O   0  0  0  0  0  0  0  0  0  0  0  0
   56.4450   29.2230   45.3930 N   0  0  0  0  0  0  0  0  0  0  0  0
   57.6580   29.3250   45.9980 C   0  0  0  0  0  0  0  0  0  0  0  0
   62.7074   30.2016   47.1501 H   0  0  0  0  0  0  0  0  0  0  0  0
   64.7552   31.4550   47.8223 H   0  0  0  0  0  0  0  0  0  0  0  0
   64.5766   33.8063   48.6323 H   0  0  0  0  0  0  0  0  0  0  0  0
   62.3421   34.9014   48.8036 H   0  0  0  0  0  0  0  0  0  0  0  0
   60.5028   35.0590   45.9292 H   0  0  0  0  0  0  0  0  0  0  0  0
   58.9598   35.3400   43.9894 H   0  0  0  0  0  0  0  0  0  0  0  0
   56.6779   34.3255   44.0477 H   0  0  0  0  0  0  0  0  0  0  0  0
   55.9458   33.0129   46.0408 H   0  0  0  0  0  0  0  0  0  0  0  0
   57.4852   32.7301   47.9875 H   0  0  0  0  0  0  0  0  0  0  0  0
   59.1271   31.5093   43.8197 H   0  0  0  0  0  0  0  0  0  0  0  0
   56.8807   31.2844   42.7465 H   0  0  0  0  0  0  0  0  0  0  0  0
   57.8595   28.7591   46.9195 H   0  0  0  0  0  0  0  0  0  0  0  0
  1  2  2  0
  2  3  1  0
  3  4  1  0
  4  5  2  0
  5  6  1  0
  6  7  2  0
  7  8  1  0
  8  9  2  0
  9 10  1  0
 10 11  1  0
 11 12  2  0
 12 13  1  0
 13 14  2  0
 14 15  1  0
 15 16  2  0
  2 17  1  0
 17 18  1  0
 18 19  2  0
 19 20  1  0
 20 21  2  0
 20 22  1  0
 22 23  1  0
  9  4  1  0
 16 11  1  0
 23 17  2  0
  5 24  1  0
  6 25  1  0
  7 26  1  0
  8 27  1  0
 12 28  1  0
 13 29  1  0
 14 30  1  0
 15 31  1  0
 16 32  1  0
 18 33  1  0
 19 34  1  0
 23 35  1  0
M  CHG  2   3  -1  22  -1
M  END
>  <UniqueID>  (59) 
53

>  <SMILES>  (59) 
O=C([N-]c1ccccc1Oc1ccccc1)c1ccc(=O)[n-]c1

>  <Energy>  (59) 
49.94154571315944

>  <Genealogy>  (59) 
O=C([N-]c1ccccc1Oc1ccccc1)c1ccc(=O)[n-]c1 (protonated)
O=C([N-]c1ccccc1Oc1ccccc1)c1ccc(=O)[n-]c1 (3D coordinates assigned)
O=C([N-]c1ccccc1Oc1ccccc1)c1ccc(=O)[n-]c1 (optimized conformer: 49.94154571315944 kcal/mol)

>  <smiles>  (59) 
O=C(Nc1ccccc1Oc1ccccc1)c1ccc(=O)[nH]c1

>  <score_type>  (59) 
oracle

>  <origin>  (59) 
adg

>  <m_score__min__energy>  (59) 
-11.69

>  <m_primary>  (59) 
energy

$$$$
59:0
     RDKit          3D

 41 43  0  0  0  0  0  0  0  0999 V2000
   58.3959   34.8281   47.3697 H   0  0  0  0  0  0  0  0  0  0  0  0
   58.3310   34.1590   46.4990 C   0  0  0  0  0  0  0  0  0  0  0  0
   57.9060   32.8770   46.6570 N   0  0  0  0  0  0  0  0  0  0  0  0
   57.8170   32.0110   45.6060 C   0  0  0  0  0  0  0  0  0  0  0  0
   57.3940   30.7910   45.7740 N   0  0  0  0  0  0  0  0  0  0  0  0
   56.6330   30.0240   44.8280 C   0  0  0  0  0  0  0  0  0  0  0  0
   55.6190   30.5550   44.3000 O   0  0  0  0  0  0  0  0  0  0  0  0
   57.0360   28.6590   44.4090 C   0  0  0  0  0  0  0  0  0  0  0  0
   57.4400   28.4030   43.0860 C   0  0  0  0  0  0  0  0  0  0  0  0
   57.4654   29.2231   42.3533 H   0  0  0  0  0  0  0  0  0  0  0  0
   57.8090   27.1130   42.6980 C   0  0  0  0  0  0  0  0  0  0  0  0
   58.1341   26.9225   41.6646 H   0  0  0  0  0  0  0  0  0  0  0  0
   57.7660   26.0650   43.6190 C   0  0  0  0  0  0  0  0  0  0  0  0
   58.0649   25.0522   43.3109 H   0  0  0  0  0  0  0  0  0  0  0  0
   57.3440   26.2980   44.9330 C   0  0  0  0  0  0  0  0  0  0  0  0
   57.2860   24.9660   46.0850 S   0  0  0  0  0  0  0  0  0  0  0  0
   55.9160   24.9110   46.6990 O   0  0  0  0  0  0  0  0  0  0  0  0
   57.5620   23.6630   45.3850 O   0  0  0  0  0  0  0  0  0  0  0  0
   58.4640   25.2080   47.3380 N   0  0  0  0  0  0  0  0  0  0  0  0
   59.7050   25.7150   46.7590 C   0  0  0  0  0  0  0  0  0  0  0  0
   59.6941   25.5587   45.6702 H   0  0  0  0  0  0  0  0  0  0  0  0
   60.5621   25.1798   47.1937 H   0  0  0  0  0  0  0  0  0  0  0  0
   59.8220   27.1730   47.0530 C   0  0  0  0  0  0  0  0  0  0  0  0
   60.3900   28.3380   45.9800 S   0  0  0  0  0  0  0  0  0  0  0  0
   60.3070   29.6180   47.0680 C   0  0  0  0  0  0  0  0  0  0  0  0
   60.6060   31.0430   46.7420 C   0  0  0  0  0  0  0  0  0  0  0  0
   60.7260   31.6149   47.6739 H   0  0  0  0  0  0  0  0  0  0  0  0
   61.5352   31.0979   46.1559 H   0  0  0  0  0  0  0  0  0  0  0  0
   59.7772   31.4667   46.1559 H   0  0  0  0  0  0  0  0  0  0  0  0
   59.8220   29.1500   48.2840 C   0  0  0  0  0  0  0  0  0  0  0  0
   59.6549   29.7954   49.1589 H   0  0  0  0  0  0  0  0  0  0  0  0
   59.5680   27.7730   48.2810 C   0  0  0  0  0  0  0  0  0  0  0  0
   59.2044   27.2220   49.1609 H   0  0  0  0  0  0  0  0  0  0  0  0
   56.9790   27.5940   45.3250 C   0  0  0  0  0  0  0  0  0  0  0  0
   56.6456   27.7787   46.3569 H   0  0  0  0  0  0  0  0  0  0  0  0
   58.1530   32.4520   44.3210 C   0  0  0  0  0  0  0  0  0  0  0  0
   58.0710   31.7700   43.4619 H   0  0  0  0  0  0  0  0  0  0  0  0
   58.5930   33.7640   44.1380 C   0  0  0  0  0  0  0  0  0  0  0  0
   58.8668   34.1181   43.1332 H   0  0  0  0  0  0  0  0  0  0  0  0
   58.6850   34.6260   45.2320 C   0  0  0  0  0  0  0  0  0  0  0  0
   59.0323   35.6610   45.0974 H   0  0  0  0  0  0  0  0  0  0  0  0
  1  2  1  0
  2  3  1  0
  3  4  1  0
  4  5  2  0
  5  6  1  0
  6  7  2  0
  6  8  1  0
  8  9  2  0
  9 10  1  0
  9 11  1  0
 11 12  1  0
 11 13  2  0
 13 14  1  0
 13 15  1  0
 15 16  1  0
 16 17  2  0
 16 18  2  0
 16 19  1  0
 19 20  1  0
 20 21  1  0
 20 22  1  0
 20 23  1  0
 23 24  1  0
 24 25  1  0
 25 26  1  0
 26 27  1  0
 26 28  1  0
 26 29  1  0
 25 30  2  0
 30 31  1  0
 30 32  1  0
 32 33  1  0
 15 34  2  0
 34 35  1  0
  4 36  1  0
 36 37  1  0
 36 38  2  0
 38 39  1  0
 38 40  1  0
 40 41  1  0
 40  2  2  0
 34  8  1  0
 32 23  2  0
M  CHG  2   3  -1  19  -1
M  END
>  <UniqueID>  (60) 
54

>  <SMILES>  (60) 
Cc1ccc(C[N-]S(=O)(=O)c2cccc(C(=O)/N=c3/cccc[n-]3)c2)s1

>  <Energy>  (60) 
73.60674822327296

>  <Genealogy>  (60) 
Cc1ccc(C[N-]S(=O)(=O)c2cccc(C(=O)N=c3cccc[n-]3)c2)s1 (protonated)
Cc1ccc(C[N-]S(=O)(=O)c2cccc(C(=O)/N=c3/cccc[n-]3)c2)s1 (cis-trans isomerization)
Cc1ccc(C[N-]S(=O)(=O)c2cccc(C(=O)/N=c3/cccc[n-]3)c2)s1 (3D coordinates assigned)
Cc1ccc(C[N-]S(=O)(=O)c2cccc(C(=O)/N=c3/cccc[n-]3)c2)s1 (optimized conformer: 73.60674822327296 kcal/mol)

>  <smiles>  (60) 
Cc1ccc(CNS(=O)(=O)c2cccc(C(=O)N=c3cccc[nH]3)c2)s1

>  <score_type>  (60) 
oracle

>  <origin>  (60) 
adg

>  <m_score__min__energy>  (60) 
-12.59

>  <m_primary>  (60) 
energy

$$$$
60:0
     RDKit          3D

 39 40  0  0  0  0  0  0  0  0999 V2000
   57.9670   32.3370   42.6810 C   0  0  0  0  0  0  0  0  0  0  0  0
   57.4310   32.1810   44.1000 C   0  0  0  0  0  0  0  0  0  0  0  0
   57.0500   30.7600   44.3750 C   0  0  0  0  0  0  0  0  0  0  0  0
   57.8700   29.6600   44.2320 C   0  0  0  0  0  0  0  0  0  0  0  0
   57.0530   28.6070   44.5840 C   0  0  0  0  0  0  0  0  0  0  0  0
   57.4560   27.1670   44.6620 C   0  0  0  0  0  0  0  0  0  0  0  0
   57.1040   26.5770   45.9660 N   0  0  0  0  0  0  0  0  0  0  0  0
   57.9500   26.8400   47.1350 C   0  0  0  0  0  0  0  0  0  0  0  0
   55.8960   25.8040   46.1570 C   0  0  0  0  0  0  0  0  0  0  0  0
   54.7740   26.3540   45.9990 O   0  0  0  0  0  0  0  0  0  0  0  0
   55.9320   24.4030   46.4590 N   0  0  0  0  0  0  0  0  0  0  0  0
   56.3980   23.3600   45.5950 C   0  0  0  0  0  0  0  0  0  0  0  0
   56.2370   23.4830   44.2010 C   0  0  0  0  0  0  0  0  0  0  0  0
   56.6450   22.4580   43.3460 C   0  0  0  0  0  0  0  0  0  0  0  0
   57.2260   21.3050   43.8700 C   0  0  0  0  0  0  0  0  0  0  0  0
   57.4230   21.1840   45.2460 C   0  0  0  0  0  0  0  0  0  0  0  0
   57.0390   22.2090   46.1220 C   0  0  0  0  0  0  0  0  0  0  0  0
   57.3200   22.0090   47.4870 O   0  0  0  0  0  0  0  0  0  0  0  0
   56.4890   22.3600   48.5910 C   0  0  0  0  0  0  0  0  0  0  0  0
   57.2900   22.6430   49.6800 F   0  0  0  0  0  0  0  0  0  0  0  0
   55.6600   21.3040   48.9190 F   0  0  0  0  0  0  0  0  0  0  0  0
   55.8650   29.0730   44.8950 O   0  0  0  0  0  0  0  0  0  0  0  0
   55.8240   30.3680   44.7730 N   0  0  0  0  0  0  0  0  0  0  0  0
   59.0225   32.6442   42.7195 H   0  0  0  0  0  0  0  0  0  0  0  0
   57.8836   31.3773   42.1499 H   0  0  0  0  0  0  0  0  0  0  0  0
   57.3816   33.1020   42.1499 H   0  0  0  0  0  0  0  0  0  0  0  0
   58.2083   32.4899   44.8144 H   0  0  0  0  0  0  0  0  0  0  0  0
   56.5362   32.8115   44.2085 H   0  0  0  0  0  0  0  0  0  0  0  0
   58.9225   29.6303   43.9137 H   0  0  0  0  0  0  0  0  0  0  0  0
   56.9414   26.6083   43.8664 H   0  0  0  0  0  0  0  0  0  0  0  0
   58.5475   27.1072   44.5397 H   0  0  0  0  0  0  0  0  0  0  0  0
   57.3722   26.6604   48.0536 H   0  0  0  0  0  0  0  0  0  0  0  0
   58.8228   26.1708   47.1140 H   0  0  0  0  0  0  0  0  0  0  0  0
   58.2895   27.8861   47.1140 H   0  0  0  0  0  0  0  0  0  0  0  0
   55.7858   24.3948   43.7826 H   0  0  0  0  0  0  0  0  0  0  0  0
   56.5080   22.5603   42.2594 H   0  0  0  0  0  0  0  0  0  0  0  0
   57.5298   20.4890   43.1979 H   0  0  0  0  0  0  0  0  0  0  0  0
   57.8862   20.2714   45.6492 H   0  0  0  0  0  0  0  0  0  0  0  0
   55.8785   23.2334   48.3183 H   0  0  0  0  0  0  0  0  0  0  0  0
  1  2  1  0
  2  3  1  0
  3  4  1  0
  4  5  2  0
  5  6  1  0
  6  7  1  0
  7  8  1  0
  7  9  1  0
  9 10  2  0
  9 11  1  0
 11 12  1  0
 12 13  2  0
 13 14  1  0
 14 15  2  0
 15 16  1  0
 16 17  2  0
 17 18  1  0
 18 19  1  0
 19 20  1  0
 19 21  1  0
  5 22  1  0
 22 23  1  0
 23  3  2  0
 17 12  1  0
  1 24  1  0
  1 25  1  0
  1 26  1  0
  2 27  1  0
  2 28  1  0
  4 29  1  0
  6 30  1  0
  6 31  1  0
  8 32  1  0
  8 33  1  0
  8 34  1  0
 13 35  1  0
 14 36  1  0
 15 37  1  0
 16 38  1  0
 19 39  1  0
M  CHG  1  11  -1
M  END
>  <UniqueID>  (61) 
55

>  <SMILES>  (61) 
CCc1cc(CN(C)C(=O)[N-]c2ccccc2OC(F)F)on1

>  <Energy>  (61) 
70.72858169594937

>  <Genealogy>  (61) 
CCc1cc(CN(C)C(=O)[N-]c2ccccc2OC(F)F)on1 (protonated)
CCc1cc(CN(C)C(=O)[N-]c2ccccc2OC(F)F)on1 (3D coordinates assigned)
CCc1cc(CN(C)C(=O)[N-]c2ccccc2OC(F)F)on1 (optimized conformer: 70.72858169594937 kcal/mol)

>  <smiles>  (61) 
CCc1cc(CN(C)C(=O)Nc2ccccc2OC(F)F)on1

>  <score_type>  (61) 
oracle

>  <origin>  (61) 
adg

>  <m_score__min__energy>  (61) 
-9.4800000000000004

>  <m_primary>  (61) 
energy

$$$$
61:0
     RDKit          3D

 56 60  0  0  0  0  0  0  0  0999 V2000
   56.2740   29.6930   42.4390 N   0  0  0  0  0  0  0  0  0  0  0  0
   56.3940   29.8710   44.1560 S   0  0  0  0  0  0  0  0  0  0  0  0
   55.1470   29.3310   44.7960 O   0  0  0  0  0  0  0  0  0  0  0  0
   57.5770   29.1000   44.6720 O   0  0  0  0  0  0  0  0  0  0  0  0
   56.5530   31.5470   44.5780 N   0  0  0  0  0  0  0  0  0  0  0  0
   57.7430   32.1320   45.1170 C   0  0  0  0  0  0  0  0  0  0  0  0
   58.4170   32.9240   44.4070 O   0  0  0  0  0  0  0  0  0  0  0  0
   58.1960   31.8280   46.4800 C   0  0  0  0  0  0  0  0  0  0  0  0
   58.4720   30.5060   46.8450 C   0  0  0  0  0  0  0  0  0  0  0  0
   58.9670   30.2080   48.1250 C   0  0  0  0  0  0  0  0  0  0  0  0
   59.3410   28.7900   48.4650 C   0  0  0  0  0  0  0  0  0  0  0  0
   60.3380   28.1330   47.5180 C   0  0  0  0  0  0  0  0  0  0  0  0
   58.8740   27.7410   47.4630 C   0  0  0  0  0  0  0  0  0  0  0  0
   59.2370   31.2550   49.0280 C   0  0  0  0  0  0  0  0  0  0  0  0
   59.8530   30.9450   50.2510 O   0  0  0  0  0  0  0  0  0  0  0  0
   61.2260   30.5890   50.4380 C   0  0  0  0  0  0  0  0  0  0  0  0
   62.1890   31.7570   50.0970 C   0  0  2  0  0  0  0  0  0  0  0  0
   61.5040   33.1240   50.3720 C   0  0  0  0  0  0  0  0  0  0  0  0
   62.4540   34.2800   49.9900 C   0  0  1  0  0  0  0  0  0  0  0  0
   63.7490   34.1840   50.8260 C   0  0  0  0  0  0  0  0  0  0  0  0
   64.4480   32.8390   50.5410 C   0  0  2  0  0  0  0  0  0  0  0  0
   64.8010   32.7470   49.0430 C   0  0  0  0  0  0  0  0  0  0  0  0
   63.5070   32.8390   48.1960 C   0  0  2  0  0  0  0  0  0  0  0  0
   63.8140   32.7810   46.8240 O   0  0  0  0  0  0  0  0  0  0  0  0
   62.8050   34.1860   48.4890 C   0  0  0  0  0  0  0  0  0  0  0  0
   62.5530   31.6790   48.5860 C   0  0  0  0  0  0  0  0  0  0  0  0
   63.5040   31.6790   50.9250 C   0  0  0  0  0  0  0  0  0  0  0  0
   58.8980   32.5750   48.6740 C   0  0  0  0  0  0  0  0  0  0  0  0
   58.3780   32.8570   47.4100 C   0  0  0  0  0  0  0  0  0  0  0  0
   58.0810   34.1410   47.0820 F   0  0  0  0  0  0  0  0  0  0  0  0
   57.1680   29.2630   42.1090 H   0  0  0  0  0  0  0  0  0  0  0  0
   55.5270   28.9880   42.2540 H   0  0  0  0  0  0  0  0  0  0  0  0
   58.2999   29.6935   46.1237 H   0  0  0  0  0  0  0  0  0  0  0  0
   59.2690   28.9186   49.5551 H   0  0  0  0  0  0  0  0  0  0  0  0
   60.7822   28.7153   46.6973 H   0  0  0  0  0  0  0  0  0  0  0  0
   61.2844   27.5865   47.6433 H   0  0  0  0  0  0  0  0  0  0  0  0
   58.2572   28.0392   46.6024 H   0  0  0  0  0  0  0  0  0  0  0  0
   58.3205   26.7929   47.5320 H   0  0  0  0  0  0  0  0  0  0  0  0
   61.3769   30.3015   51.4890 H   0  0  0  0  0  0  0  0  0  0  0  0
   61.4533   29.7557   49.7569 H   0  0  0  0  0  0  0  0  0  0  0  0
   61.2535   33.1970   51.4406 H   0  0  0  0  0  0  0  0  0  0  0  0
   60.5881   33.1959   49.7671 H   0  0  0  0  0  0  0  0  0  0  0  0
   61.9574   35.2405   50.1919 H   0  0  0  0  0  0  0  0  0  0  0  0
   63.5003   34.2483   51.8956 H   0  0  0  0  0  0  0  0  0  0  0  0
   64.4219   35.0109   50.5550 H   0  0  0  0  0  0  0  0  0  0  0  0
   65.3711   32.7715   51.1355 H   0  0  0  0  0  0  0  0  0  0  0  0
   65.3015   31.7880   48.8433 H   0  0  0  0  0  0  0  0  0  0  0  0
   65.4721   33.5763   48.7749 H   0  0  0  0  0  0  0  0  0  0  0  0
   64.7070   32.3590   46.7310 H   0  0  0  0  0  0  0  0  0  0  0  0
   61.8825   34.2536   47.8937 H   0  0  0  0  0  0  0  0  0  0  0  0
   63.4807   35.0121   48.2226 H   0  0  0  0  0  0  0  0  0  0  0  0
   61.6327   31.7506   47.9878 H   0  0  0  0  0  0  0  0  0  0  0  0
   63.0587   30.7218   48.3909 H   0  0  0  0  0  0  0  0  0  0  0  0
   63.2630   31.7465   51.9962 H   0  0  0  0  0  0  0  0  0  0  0  0
   64.0055   30.7236   50.7114 H   0  0  0  0  0  0  0  0  0  0  0  0
   59.0440   33.3895   49.3987 H   0  0  0  0  0  0  0  0  0  0  0  0
  1  2  1  0
  2  3  2  0
  2  4  2  0
  2  5  1  0
  5  6  1  0
  6  7  2  0
  6  8  1  0
  8  9  2  0
  9 10  1  0
 10 11  1  0
 11 12  1  0
 12 13  1  0
 10 14  2  0
 14 15  1  0
 15 16  1  0
 17 16  1  1
 17 18  1  0
 18 19  1  0
 19 20  1  0
 20 21  1  0
 21 22  1  0
 22 23  1  0
 23 24  1  6
 23 25  1  0
 23 26  1  0
 21 27  1  0
 14 28  1  0
 28 29  2  0
 29 30  1  0
 29  8  1  0
 13 11  1  0
 26 17  1  0
 27 17  1  0
 25 19  1  0
  1 31  1  0
  1 32  1  0
  9 33  1  0
 11 34  1  0
 12 35  1  0
 12 36  1  0
 13 37  1  0
 13 38  1  0
 16 39  1  0
 16 40  1  0
 18 41  1  0
 18 42  1  0
 19 43  1  6
 20 44  1  0
 20 45  1  0
 21 46  1  1
 22 47  1  0
 22 48  1  0
 24 49  1  0
 25 50  1  0
 25 51  1  0
 26 52  1  0
 26 53  1  0
 27 54  1  0
 27 55  1  0
 28 56  1  0
M  CHG  1   5  -1
M  END
>  <UniqueID>  (62) 
56

>  <SMILES>  (62) 
NS(=O)(=O)[N-]C(=O)c1cc(C2CC2)c(OCC23C[C@@H]4C[C@@H](CC(O)(C4)C2)C3)cc1F

>  <Energy>  (62) 
327.6795754721479

>  <Genealogy>  (62) 
NS(=O)(=O)[N-]C(=O)c1cc(C2CC2)c(OCC23CC4CC(CC(O)(C4)C2)C3)cc1F (protonated)
NS(=O)(=O)[N-]C(=O)c1cc(C2CC2)c(OCC23C[C@@H]4C[C@@H](CC(O)(C4)C2)C3)cc1F (chirality)
NS(=O)(=O)[N-]C(=O)c1cc(C2CC2)c(OCC23C[C@@H]4C[C@@H](CC(O)(C4)C2)C3)cc1F (3D coordinates assigned)
NS(=O)(=O)[N-]C(=O)c1cc(C2CC2)c(OCC23C[C@@H]4C[C@@H](CC(O)(C4)C2)C3)cc1F (nonaromatic ring conformer: 327.6795754721479 kcal/mol)

>  <smiles>  (62) 
NS(=O)(=O)NC(=O)c1cc(C2CC2)c(OCC23CC4CC(CC(O)(C4)C2)C3)cc1F

>  <score_type>  (62) 
oracle

>  <origin>  (62) 
adg

>  <m_score__min__energy>  (62) 
-11.92

>  <m_primary>  (62) 
energy

$$$$
62:0
     RDKit          3D

 61 65  0  0  0  0  0  0  0  0999 V2000
   55.7380   26.8350   54.8680 C   0  0  0  0  0  0  0  0  0  0  0  0
   54.8730   27.3110   53.8430 O   0  0  0  0  0  0  0  0  0  0  0  0
   54.9690   28.5780   53.2490 C   0  0  0  0  0  0  0  0  0  0  0  0
   53.9080   29.0210   52.4520 C   0  0  0  0  0  0  0  0  0  0  0  0
   53.9620   30.2690   51.8270 C   0  0  0  0  0  0  0  0  0  0  0  0
   55.0810   31.0900   51.9960 C   0  0  0  0  0  0  0  0  0  0  0  0
   56.1510   30.6690   52.7990 C   0  0  0  0  0  0  0  0  0  0  0  0
   57.3650   31.5350   52.9740 C   0  0  0  0  0  0  0  0  0  0  0  0
   58.5020   30.9040   52.3200 N   0  0  0  0  0  0  0  0  0  0  0  0
   59.1130   31.4120   51.1310 C   0  0  0  0  0  0  0  0  0  0  0  0
   58.4890   32.2200   50.3910 O   0  0  0  0  0  0  0  0  0  0  0  0
   60.5160   31.0150   50.7730 C   0  0  0  0  0  0  0  0  0  0  0  0
   60.5190   29.8850   49.8190 N   0  0  0  0  0  0  0  0  0  0  0  0
   60.2600   28.6170   50.2570 C   0  0  0  0  0  0  0  0  0  0  0  0
   60.0510   28.3910   51.4820 O   0  0  0  0  0  0  0  0  0  0  0  0
   60.2070   27.5880   49.3780 N   0  0  0  0  0  0  0  0  0  0  0  0
   60.4060   27.7950   48.0460 C   0  0  0  0  0  0  0  0  0  0  0  0
   60.3490   26.8020   47.1960 N   0  0  0  0  0  0  0  0  0  0  0  0
   59.1740   26.1760   46.6660 C   0  0  0  0  0  0  0  0  0  0  0  0
   59.2780   24.8840   46.0960 C   0  0  0  0  0  0  0  0  0  0  0  0
   58.1360   24.2180   45.6160 C   0  0  0  0  0  0  0  0  0  0  0  0
   56.9080   24.8600   45.7460 C   0  0  0  0  0  0  0  0  0  0  0  0
   55.7030   24.4090   45.3730 N   0  0  0  0  0  0  0  0  0  0  0  0
   54.8890   25.4260   45.7540 C   0  0  0  0  0  0  0  0  0  0  0  0
   53.6440   25.3960   45.5770 O   0  0  0  0  0  0  0  0  0  0  0  0
   55.5140   26.4790   46.3410 N   0  0  0  0  0  0  0  0  0  0  0  0
   56.7970   26.0890   46.3200 C   0  0  0  0  0  0  0  0  0  0  0  0
   57.9040   26.7800   46.8050 C   0  0  0  0  0  0  0  0  0  0  0  0
   60.6270   29.0690   47.5830 N   0  0  0  0  0  0  0  0  0  0  0  0
   60.8490   29.3100   46.1400 C   0  0  0  0  0  0  0  0  0  0  0  0
   59.5340   29.4300   45.4150 C   0  0  0  0  0  0  0  0  0  0  0  0
   59.1460   28.4490   44.4880 C   0  0  0  0  0  0  0  0  0  0  0  0
   57.9130   28.5420   43.8360 C   0  0  0  0  0  0  0  0  0  0  0  0
   57.0560   29.6120   44.1060 C   0  0  0  0  0  0  0  0  0  0  0  0
   55.5090   29.7240   43.2890 Cl  0  0  0  0  0  0  0  0  0  0  0  0
   57.4340   30.5930   45.0280 C   0  0  0  0  0  0  0  0  0  0  0  0
   58.6670   30.5040   45.6810 C   0  0  0  0  0  0  0  0  0  0  0  0
   60.6860   30.1090   48.4780 C   0  0  0  0  0  0  0  0  0  0  0  0
   60.8860   31.2860   48.0630 O   0  0  0  0  0  0  0  0  0  0  0  0
   56.0900   29.4120   53.4260 C   0  0  0  0  0  0  0  0  0  0  0  0
   55.3065   27.0725   55.8516 H   0  0  0  0  0  0  0  0  0  0  0  0
   55.8550   25.7454   54.7723 H   0  0  0  0  0  0  0  0  0  0  0  0
   56.7211   27.3192   54.7723 H   0  0  0  0  0  0  0  0  0  0  0  0
   53.0237   28.3810   52.3164 H   0  0  0  0  0  0  0  0  0  0  0  0
   53.1229   30.6064   51.2009 H   0  0  0  0  0  0  0  0  0  0  0  0
   55.1223   32.0696   51.4974 H   0  0  0  0  0  0  0  0  0  0  0  0
   57.1816   32.5211   52.5223 H   0  0  0  0  0  0  0  0  0  0  0  0
   57.5781   31.6600   54.0459 H   0  0  0  0  0  0  0  0  0  0  0  0
   61.0273   31.8743   50.3146 H   0  0  0  0  0  0  0  0  0  0  0  0
   61.0367   30.7015   51.6898 H   0  0  0  0  0  0  0  0  0  0  0  0
   59.9640   26.6430   49.7510 H   0  0  0  0  0  0  0  0  0  0  0  0
   60.2617   24.3964   46.0279 H   0  0  0  0  0  0  0  0  0  0  0  0
   58.2109   23.2229   45.1533 H   0  0  0  0  0  0  0  0  0  0  0  0
   57.7936   27.7653   47.2815 H   0  0  0  0  0  0  0  0  0  0  0  0
   61.4187   30.2423   46.0125 H   0  0  0  0  0  0  0  0  0  0  0  0
   61.4096   28.4616   45.7205 H   0  0  0  0  0  0  0  0  0  0  0  0
   59.8158   27.6031   44.2739 H   0  0  0  0  0  0  0  0  0  0  0  0
   57.6169   27.7714   43.1090 H   0  0  0  0  0  0  0  0  0  0  0  0
   56.7601   31.4362   45.2399 H   0  0  0  0  0  0  0  0  0  0  0  0
   58.9599   31.2777   46.4060 H   0  0  0  0  0  0  0  0  0  0  0  0
   56.9244   29.0773   54.0598 H   0  0  0  0  0  0  0  0  0  0  0  0
  1  2  1  0
  2  3  1  0
  3  4  2  0
  4  5  1  0
  5  6  2  0
  6  7  1  0
  7  8  1  0
  8  9  1  0
  9 10  1  0
 10 11  2  0
 10 12  1  0
 12 13  1  0
 13 14  1  0
 14 15  2  0
 14 16  1  0
 16 17  1  0
 17 18  2  3
 18 19  1  0
 19 20  2  0
 20 21  1  0
 21 22  2  0
 22 23  1  0
 23 24  1  0
 24 25  2  0
 24 26  1  0
 26 27  1  0
 27 28  2  0
 17 29  1  0
 29 30  1  0
 30 31  1  0
 31 32  2  0
 32 33  1  0
 33 34  2  0
 34 35  1  0
 34 36  1  0
 36 37  2  0
 29 38  1  0
 38 39  2  0
  7 40  2  0
 40  3  1  0
 38 13  1  0
 28 19  1  0
 37 31  1  0
 27 22  1  0
  1 41  1  0
  1 42  1  0
  1 43  1  0
  4 44  1  0
  5 45  1  0
  6 46  1  0
  8 47  1  0
  8 48  1  0
 12 49  1  0
 12 50  1  0
 16 51  1  0
 20 52  1  0
 21 53  1  0
 28 54  1  0
 30 55  1  0
 30 56  1  0
 32 57  1  0
 33 58  1  0
 36 59  1  0
 37 60  1  0
 40 61  1  0
M  CHG  3   9  -1  23  -1  26  -1
M  END
>  <UniqueID>  (63) 
57

>  <SMILES>  (63) 
COc1cccc(C[N-]C(=O)Cn2c(=O)[nH]c(=Nc3ccc4[n-]c(=O)[n-]c4c3)n(Cc3ccc(Cl)cc3)c2=O)c1

>  <Energy>  (63) 
113.47748347106976

>  <Genealogy>  (63) 
COc1cccc(C[N-]C(=O)Cn2c(=O)[nH]c(=Nc3ccc4[n-]c(=O)[n-]c4c3)n(Cc3ccc(Cl)cc3)c2=O)c1 (protonated)
COc1cccc(C[N-]C(=O)Cn2c(=O)[nH]c(=Nc3ccc4[n-]c(=O)[n-]c4c3)n(Cc3ccc(Cl)cc3)c2=O)c1 (3D coordinates assigned)
COc1cccc(C[N-]C(=O)Cn2c(=O)[nH]c(=Nc3ccc4[n-]c(=O)[n-]c4c3)n(Cc3ccc(Cl)cc3)c2=O)c1 (optimized conformer: 113.47748347106976 kcal/mol)

>  <smiles>  (63) 
COc1cccc(CNC(=O)Cn2c(=O)[nH]c(=Nc3ccc4[nH]c(=O)[nH]c4c3)n(Cc3ccc(Cl)cc3)c2=O)c1

>  <score_type>  (63) 
oracle

>  <origin>  (63) 
adg

>  <m_score__min__energy>  (63) 
-14.08

>  <m_primary>  (63) 
energy

$$$$
63:0
     RDKit          3D

 60 63  0  0  0  0  0  0  0  0999 V2000
   64.2280   33.0300   48.8600 C   0  0  0  0  0  0  0  0  0  0  0  0
   63.3380   34.0940   48.5360 O   0  0  0  0  0  0  0  0  0  0  0  0
   61.9770   33.9260   48.2320 C   0  0  0  0  0  0  0  0  0  0  0  0
   61.0660   33.8360   49.2920 C   0  0  0  0  0  0  0  0  0  0  0  0
   59.6980   33.6860   49.0480 C   0  0  0  0  0  0  0  0  0  0  0  0
   59.2220   33.6140   47.7320 C   0  0  0  0  0  0  0  0  0  0  0  0
   57.8530   33.4640   47.4760 C   0  0  0  0  0  0  0  0  0  0  0  0
   57.3890   33.3780   46.1630 C   0  0  0  0  0  0  0  0  0  0  0  0
   58.2890   33.4400   45.0820 C   0  0  0  0  0  0  0  0  0  0  0  0
   57.8750   33.3310   43.7440 O   0  0  0  0  0  0  0  0  0  0  0  0
   58.0110   32.1620   42.9340 C   0  0  0  0  0  0  0  0  0  0  0  0
   57.6140   30.9330   43.7090 C   0  0  0  0  0  0  0  0  0  0  0  0
   56.2800   30.4940   43.7190 C   0  0  0  0  0  0  0  0  0  0  0  0
   55.9130   29.3770   44.4750 C   0  0  0  0  0  0  0  0  0  0  0  0
   56.8750   28.6840   45.2130 C   0  0  0  0  0  0  0  0  0  0  0  0
   58.2180   29.0890   45.1880 C   0  0  0  0  0  0  0  0  0  0  0  0
   59.2320   28.3550   45.9740 C   0  0  0  0  0  0  0  0  0  0  0  0
   59.6440   27.2420   45.5480 O   0  0  0  0  0  0  0  0  0  0  0  0
   59.7710   28.8930   47.1970 N   0  0  0  0  0  0  0  0  0  0  0  0
   60.0220   30.3370   47.3140 C   0  0  0  0  0  0  0  0  0  0  0  0
   61.2040   30.6000   48.2530 C   0  0  0  0  0  0  0  0  0  0  0  0
   60.9680   30.0080   49.5910 N   0  0  0  0  0  0  0  0  0  0  0  0
   62.1630   30.1270   50.4710 C   0  0  0  0  0  0  0  0  0  0  0  0
   62.0610   31.2220   51.5540 C   0  0  0  0  0  0  0  0  0  0  0  0
   60.7730   31.7800   51.5660 O   0  0  0  0  0  0  0  0  0  0  0  0
   60.4010   28.6250   49.5710 C   0  0  0  0  0  0  0  0  0  0  0  0
   60.3830   27.9810   48.1730 C   0  0  0  0  0  0  0  0  0  0  0  0
   58.5800   30.2200   44.4370 C   0  0  0  0  0  0  0  0  0  0  0  0
   59.6540   33.6120   45.3360 C   0  0  0  0  0  0  0  0  0  0  0  0
   60.1320   33.6940   46.6520 C   0  0  0  0  0  0  0  0  0  0  0  0
   61.5040   33.8510   46.9080 C   0  0  0  0  0  0  0  0  0  0  0  0
   64.3057   32.9371   49.9533 H   0  0  0  0  0  0  0  0  0  0  0  0
   63.8438   32.0894   48.4384 H   0  0  0  0  0  0  0  0  0  0  0  0
   65.2217   33.2419   48.4384 H   0  0  0  0  0  0  0  0  0  0  0  0
   61.4314   33.8839   50.3284 H   0  0  0  0  0  0  0  0  0  0  0  0
   58.9936   33.6243   49.8907 H   0  0  0  0  0  0  0  0  0  0  0  0
   57.1412   33.4138   48.3132 H   0  0  0  0  0  0  0  0  0  0  0  0
   56.3122   33.2609   45.9710 H   0  0  0  0  0  0  0  0  0  0  0  0
   57.3635   32.2571   42.0499 H   0  0  0  0  0  0  0  0  0  0  0  0
   59.0623   32.0636   42.6258 H   0  0  0  0  0  0  0  0  0  0  0  0
   55.5217   31.0308   43.1301 H   0  0  0  0  0  0  0  0  0  0  0  0
   54.8649   29.0433   44.4886 H   0  0  0  0  0  0  0  0  0  0  0  0
   56.5777   27.8147   45.8180 H   0  0  0  0  0  0  0  0  0  0  0  0
   60.2514   30.7467   46.3192 H   0  0  0  0  0  0  0  0  0  0  0  0
   59.1249   30.8227   47.7254 H   0  0  0  0  0  0  0  0  0  0  0  0
   62.1123   30.1561   47.8194 H   0  0  0  0  0  0  0  0  0  0  0  0
   61.3211   31.6876   48.3692 H   0  0  0  0  0  0  0  0  0  0  0  0
   60.2410   30.6160   50.0430 H   0  0  0  0  0  0  0  0  0  0  0  0
   62.3154   29.1608   50.9742 H   0  0  0  0  0  0  0  0  0  0  0  0
   63.0014   30.4128   49.8188 H   0  0  0  0  0  0  0  0  0  0  0  0
   62.2733   30.7792   52.5383 H   0  0  0  0  0  0  0  0  0  0  0  0
   62.7909   32.0140   51.3304 H   0  0  0  0  0  0  0  0  0  0  0  0
   60.6950   32.2880   52.4150 H   0  0  0  0  0  0  0  0  0  0  0  0
   61.0066   27.9923   50.2365 H   0  0  0  0  0  0  0  0  0  0  0  0
   59.3547   28.7030   49.9013 H   0  0  0  0  0  0  0  0  0  0  0  0
   61.4147   27.7579   47.8633 H   0  0  0  0  0  0  0  0  0  0  0  0
   59.7922   27.0541   48.2146 H   0  0  0  0  0  0  0  0  0  0  0  0
   59.6293   30.5497   44.4192 H   0  0  0  0  0  0  0  0  0  0  0  0
   60.3595   33.6836   44.4951 H   0  0  0  0  0  0  0  0  0  0  0  0
   62.2130   33.9157   46.0694 H   0  0  0  0  0  0  0  0  0  0  0  0
  1  2  1  0
  2  3  1  0
  3  4  2  0
  4  5  1  0
  5  6  2  0
  6  7  1  0
  7  8  2  0
  8  9  1  0
  9 10  1  0
 10 11  1  0
 11 12  1  0
 12 13  2  0
 13 14  1  0
 14 15  2  0
 15 16  1  0
 16 17  1  0
 17 18  2  0
 17 19  1  0
 19 20  1  0
 20 21  1  0
 21 22  1  0
 22 23  1  0
 23 24  1  0
 24 25  1  0
 22 26  1  0
 26 27  1  0
 16 28  2  0
  9 29  2  0
 29 30  1  0
 30 31  2  0
 31  3  1  0
 30  6  1  0
 28 12  1  0
 27 19  1  0
  1 32  1  0
  1 33  1  0
  1 34  1  0
  4 35  1  0
  5 36  1  0
  7 37  1  0
  8 38  1  0
 11 39  1  0
 11 40  1  0
 13 41  1  0
 14 42  1  0
 15 43  1  0
 20 44  1  0
 20 45  1  0
 21 46  1  0
 21 47  1  0
 22 48  1  0
 23 49  1  0
 23 50  1  0
 24 51  1  0
 24 52  1  0
 25 53  1  0
 26 54  1  0
 26 55  1  0
 27 56  1  0
 27 57  1  0
 28 58  1  0
 29 59  1  0
 31 60  1  0
M  CHG  1  22   1
M  END
>  <UniqueID>  (64) 
58

>  <SMILES>  (64) 
COc1ccc2ccc(OCc3cccc(C(=O)N4CC[NH+](CCO)CC4)c3)cc2c1

>  <Energy>  (64) 
79.60342698642214

>  <Genealogy>  (64) 
COc1ccc2ccc(OCc3cccc(C(=O)N4CC[NH+](CCO)CC4)c3)cc2c1 (protonated)
COc1ccc2ccc(OCc3cccc(C(=O)N4CC[NH+](CCO)CC4)c3)cc2c1 (3D coordinates assigned)
COc1ccc2ccc(OCc3cccc(C(=O)N4CC[NH+](CCO)CC4)c3)cc2c1 (nonaromatic ring conformer: 79.60342698642214 kcal/mol)

>  <smiles>  (64) 
COc1ccc2ccc(OCc3cccc(C(=O)N4CCN(CCO)CC4)c3)cc2c1

>  <score_type>  (64) 
oracle

>  <origin>  (64) 
adg

>  <m_score__min__energy>  (64) 
-6.9500000000000002

>  <m_primary>  (64) 
energy

$$$$
64:0
     RDKit          3D

 81 86  0  0  0  0  0  0  0  0999 V2000
   64.7200   30.7030   52.0030 N   0  0  0  0  0  0  0  0  0  0  0  0
   65.5360   31.6410   50.8030 S   0  0  0  0  0  0  0  0  0  0  0  0
   66.8300   30.9670   50.4430 O   0  0  0  0  0  0  0  0  0  0  0  0
   64.6870   31.7270   49.5660 O   0  0  0  0  0  0  0  0  0  0  0  0
   65.8600   33.2650   51.4330 C   0  0  0  0  0  0  0  0  0  0  0  0
   67.1870   33.6230   51.7260 C   0  0  0  0  0  0  0  0  0  0  0  0
   67.4930   34.9030   52.1910 C   0  0  0  0  0  0  0  0  0  0  0  0
   66.4790   35.8430   52.3720 C   0  0  0  0  0  0  0  0  0  0  0  0
   65.1540   35.5030   52.0950 C   0  0  0  0  0  0  0  0  0  0  0  0
   64.8280   34.2150   51.6360 C   0  0  0  0  0  0  0  0  0  0  0  0
   63.4100   33.9010   51.3800 C   0  0  0  0  0  0  0  0  0  0  0  0
   62.8730   34.0380   50.0930 C   0  0  0  0  0  0  0  0  0  0  0  0
   61.5330   33.7240   49.8500 C   0  0  0  0  0  0  0  0  0  0  0  0
   60.7120   33.2650   50.8920 C   0  0  0  0  0  0  0  0  0  0  0  0
   59.2740   32.8950   50.6300 C   0  0  0  0  0  0  0  0  0  0  0  0
   59.1320   32.2460   49.3130 N   0  0  0  0  0  0  0  0  0  0  0  0
   59.2140   30.7730   49.2670 C   0  0  0  0  0  0  0  0  0  0  0  0
   60.0710   30.2500   50.3920 C   0  0  0  0  0  0  0  0  0  0  0  0
   59.5110   30.0200   51.6590 C   0  0  0  0  0  0  0  0  0  0  0  0
   60.2910   29.4990   52.6940 C   0  0  0  0  0  0  0  0  0  0  0  0
   61.6490   29.2180   52.4840 C   0  0  0  0  0  0  0  0  0  0  0  0
   62.4770   28.6120   53.5800 C   0  0  0  0  0  0  0  0  0  0  0  0
   63.8550   28.8480   53.3120 O   0  0  0  0  0  0  0  0  0  0  0  0
   64.6910   27.8820   52.7480 C   0  0  0  0  0  0  0  0  0  0  0  0
   64.8040   26.7460   53.2830 O   0  0  0  0  0  0  0  0  0  0  0  0
   65.4550   28.2210   51.5860 N   0  0  0  0  0  0  0  0  0  0  0  0
   66.7570   27.7230   51.2480 C   0  0  0  0  0  0  0  0  0  0  0  0
   67.9340   28.2930   51.7700 C   0  0  0  0  0  0  0  0  0  0  0  0
   69.1830   27.7610   51.4310 C   0  0  0  0  0  0  0  0  0  0  0  0
   69.2670   26.6530   50.5850 C   0  0  0  0  0  0  0  0  0  0  0  0
   68.1010   26.0680   50.0830 C   0  0  0  0  0  0  0  0  0  0  0  0
   66.8510   26.5950   50.4200 C   0  0  0  0  0  0  0  0  0  0  0  0
   62.2100   29.4400   51.2180 C   0  0  0  0  0  0  0  0  0  0  0  0
   61.4280   29.9580   50.1800 C   0  0  0  0  0  0  0  0  0  0  0  0
   58.8930   32.9900   48.0860 C   0  0  0  0  0  0  0  0  0  0  0  0
   59.4040   34.2840   47.8680 C   0  0  0  0  0  0  0  0  0  0  0  0
   59.1290   34.9250   46.6610 C   0  0  0  0  0  0  0  0  0  0  0  0
   58.3890   34.3000   45.7130 N   0  0  0  0  0  0  0  0  0  0  0  0
   57.9100   33.0440   45.9140 C   0  0  0  0  0  0  0  0  0  0  0  0
   57.1850   32.4440   45.0160 N   0  0  0  0  0  0  0  0  0  0  0  0
   57.3710   31.1100   44.5110 C   0  0  0  0  0  0  0  0  0  0  0  0
   56.5060   30.6410   43.5130 C   0  0  0  0  0  0  0  0  0  0  0  0
   56.6310   29.3380   43.0210 C   0  0  0  0  0  0  0  0  0  0  0  0
   57.6090   28.4840   43.5400 C   0  0  0  0  0  0  0  0  0  0  0  0
   58.4570   28.9320   44.5590 C   0  0  0  0  0  0  0  0  0  0  0  0
   59.3890   28.0960   45.0800 F   0  0  0  0  0  0  0  0  0  0  0  0
   58.3350   30.2350   45.0520 C   0  0  0  0  0  0  0  0  0  0  0  0
   58.1580   32.4160   47.0920 N   0  0  0  0  0  0  0  0  0  0  0  0
   61.2570   33.1130   52.1780 C   0  0  0  0  0  0  0  0  0  0  0  0
   62.5980   33.4250   52.4190 C   0  0  0  0  0  0  0  0  0  0  0  0
   64.1770   29.9680   51.5000 H   0  0  0  0  0  0  0  0  0  0  0  0
   65.4570   30.2100   52.5550 H   0  0  0  0  0  0  0  0  0  0  0  0
   67.9927   32.8870   51.5875 H   0  0  0  0  0  0  0  0  0  0  0  0
   68.5361   35.1708   52.4151 H   0  0  0  0  0  0  0  0  0  0  0  0
   66.7235   36.8528   52.7332 H   0  0  0  0  0  0  0  0  0  0  0  0
   64.3583   36.2491   52.2370 H   0  0  0  0  0  0  0  0  0  0  0  0
   63.5094   34.3945   49.2697 H   0  0  0  0  0  0  0  0  0  0  0  0
   61.1195   33.8371   48.8370 H   0  0  0  0  0  0  0  0  0  0  0  0
   58.9316   32.2018   51.4125 H   0  0  0  0  0  0  0  0  0  0  0  0
   58.6666   33.8121   50.6386 H   0  0  0  0  0  0  0  0  0  0  0  0
   58.2018   30.3522   49.3589 H   0  0  0  0  0  0  0  0  0  0  0  0
   59.6669   30.4744   48.3101 H   0  0  0  0  0  0  0  0  0  0  0  0
   58.4506   30.2517   51.8377 H   0  0  0  0  0  0  0  0  0  0  0  0
   59.8382   29.3082   53.6782 H   0  0  0  0  0  0  0  0  0  0  0  0
   62.2057   29.0707   54.5423 H   0  0  0  0  0  0  0  0  0  0  0  0
   62.2905   27.5290   53.6277 H   0  0  0  0  0  0  0  0  0  0  0  0
   67.8714   29.1586   52.4459 H   0  0  0  0  0  0  0  0  0  0  0  0
   70.1006   28.2164   51.8317 H   0  0  0  0  0  0  0  0  0  0  0  0
   70.2502   26.2409   50.3139 H   0  0  0  0  0  0  0  0  0  0  0  0
   68.1672   25.1915   49.4217 H   0  0  0  0  0  0  0  0  0  0  0  0
   65.9359   26.1224   50.0336 H   0  0  0  0  0  0  0  0  0  0  0  0
   63.2700   29.2057   51.0403 H   0  0  0  0  0  0  0  0  0  0  0  0
   61.8785   30.1375   49.1927 H   0  0  0  0  0  0  0  0  0  0  0  0
   60.0111   34.7816   48.6386 H   0  0  0  0  0  0  0  0  0  0  0  0
   59.5131   35.9393   46.4778 H   0  0  0  0  0  0  0  0  0  0  0  0
   55.7231   31.3026   43.1138 H   0  0  0  0  0  0  0  0  0  0  0  0
   55.9593   28.9845   42.2249 H   0  0  0  0  0  0  0  0  0  0  0  0
   57.7116   27.4614   43.1478 H   0  0  0  0  0  0  0  0  0  0  0  0
   58.9929   30.5781   45.8640 H   0  0  0  0  0  0  0  0  0  0  0  0
   60.6247   32.7463   53.0000 H   0  0  0  0  0  0  0  0  0  0  0  0
   63.0178   33.2966   53.4276 H   0  0  0  0  0  0  0  0  0  0  0  0
  1  2  1  0
  2  3  2  0
  2  4  2  0
  2  5  1  0
  5  6  2  0
  6  7  1  0
  7  8  2  0
  8  9  1  0
  9 10  2  0
 10 11  1  0
 11 12  2  0
 12 13  1  0
 13 14  2  0
 14 15  1  0
 15 16  1  0
 16 17  1  0
 17 18  1  0
 18 19  2  0
 19 20  1  0
 20 21  2  0
 21 22  1  0
 22 23  1  0
 23 24  1  0
 24 25  2  0
 24 26  1  0
 26 27  1  0
 27 28  2  0
 28 29  1  0
 29 30  2  0
 30 31  1  0
 31 32  2  0
 21 33  1  0
 33 34  2  0
 16 35  1  0
 35 36  1  0
 36 37  2  0
 37 38  1  0
 38 39  1  0
 39 40  2  3
 40 41  1  0
 41 42  2  0
 42 43  1  0
 43 44  2  0
 44 45  1  0
 45 46  1  0
 45 47  2  0
 39 48  1  0
 14 49  1  0
 49 50  2  0
 10  5  1  0
 50 11  1  0
 34 18  1  0
 48 35  2  0
 32 27  1  0
 47 41  1  0
  1 51  1  0
  1 52  1  0
  6 53  1  0
  7 54  1  0
  8 55  1  0
  9 56  1  0
 12 57  1  0
 13 58  1  0
 15 59  1  0
 15 60  1  0
 17 61  1  0
 17 62  1  0
 19 63  1  0
 20 64  1  0
 22 65  1  0
 22 66  1  0
 28 67  1  0
 29 68  1  0
 30 69  1  0
 31 70  1  0
 32 71  1  0
 33 72  1  0
 34 73  1  0
 36 74  1  0
 37 75  1  0
 42 76  1  0
 43 77  1  0
 44 78  1  0
 47 79  1  0
 49 80  1  0
 50 81  1  0
M  CHG  2  26  -1  38  -1
M  END
>  <UniqueID>  (65) 
59

>  <SMILES>  (65) 
NS(=O)(=O)c1ccccc1-c1ccc(CN(Cc2ccc(COC(=O)[N-]c3ccccc3)cc2)c2cc[n-]c(=Nc3cccc(F)c3)n2)cc1

>  <Energy>  (65) 
107.1722213916143

>  <Genealogy>  (65) 
NS(=O)(=O)c1ccccc1-c1ccc(CN(Cc2ccc(COC(=O)[N-]c3ccccc3)cc2)c2cc[n-]c(=Nc3cccc(F)c3)n2)cc1 (protonated)
NS(=O)(=O)c1ccccc1-c1ccc(CN(Cc2ccc(COC(=O)[N-]c3ccccc3)cc2)c2cc[n-]c(=Nc3cccc(F)c3)n2)cc1 (3D coordinates assigned)
NS(=O)(=O)c1ccccc1-c1ccc(CN(Cc2ccc(COC(=O)[N-]c3ccccc3)cc2)c2cc[n-]c(=Nc3cccc(F)c3)n2)cc1 (optimized conformer: 107.1722213916143 kcal/mol)

>  <smiles>  (65) 
NS(=O)(=O)c1ccccc1-c1ccc(CN(Cc2ccc(COC(=O)Nc3ccccc3)cc2)c2cc[nH]c(=Nc3cccc(F)c3)n2)cc1

>  <score_type>  (65) 
oracle

>  <origin>  (65) 
adg

>  <m_score__min__energy>  (65) 
-14.050000000000001

>  <m_primary>  (65) 
energy

$$$$
65:0
     RDKit          3D

 44 46  0  0  0  0  0  0  0  0999 V2000
   58.5320   32.4200   48.4040 C   0  0  0  0  0  0  0  0  0  0  0  0
   59.2360   33.0420   47.1910 C   0  0  2  0  0  0  0  0  0  0  0  0
   60.6830   33.4150   47.5160 C   0  0  0  0  0  0  0  0  0  0  0  0
   61.1080   33.6620   48.8400 C   0  0  0  0  0  0  0  0  0  0  0  0
   62.4400   33.9920   49.1110 C   0  0  0  0  0  0  0  0  0  0  0  0
   63.3670   34.0770   48.0720 C   0  0  0  0  0  0  0  0  0  0  0  0
   62.9670   33.8320   46.7580 C   0  0  0  0  0  0  0  0  0  0  0  0
   61.6380   33.5030   46.4790 C   0  0  0  0  0  0  0  0  0  0  0  0
   58.4640   34.2070   46.7420 N   0  0  0  0  0  0  0  0  0  0  0  0
   58.0260   33.9500   45.4150 C   0  0  0  0  0  0  0  0  0  0  0  0
   57.3030   34.7500   44.7660 O   0  0  0  0  0  0  0  0  0  0  0  0
   58.4570   32.7000   44.9070 N   0  0  0  0  0  0  0  0  0  0  0  0
   57.8610   31.9790   43.7860 C   0  0  0  0  0  0  0  0  0  0  0  0
   57.3450   30.6490   44.2430 C   0  0  0  0  0  0  0  0  0  0  0  0
   56.1490   30.5560   44.6350 O   0  0  0  0  0  0  0  0  0  0  0  0
   58.2320   29.5240   44.3280 N   0  0  0  0  0  0  0  0  0  0  0  0
   57.8200   28.1950   44.6920 C   0  0  0  0  0  0  0  0  0  0  0  0
   58.1430   27.0810   43.8990 C   0  0  0  0  0  0  0  0  0  0  0  0
   57.7470   25.7970   44.2880 C   0  0  0  0  0  0  0  0  0  0  0  0
   57.0430   25.6090   45.4850 C   0  0  0  0  0  0  0  0  0  0  0  0
   56.5290   23.9970   45.9760 S   0  0  0  0  0  0  0  0  0  0  0  0
   57.7440   23.2860   46.9790 N   0  0  0  0  0  0  0  0  0  0  0  0
   55.2390   24.0790   46.7420 O   0  0  0  0  0  0  0  0  0  0  0  0
   56.3150   23.1420   44.7580 O   0  0  0  0  0  0  0  0  0  0  0  0
   56.7360   26.7140   46.2880 C   0  0  0  0  0  0  0  0  0  0  0  0
   57.1290   27.9980   45.8980 C   0  0  0  0  0  0  0  0  0  0  0  0
   59.1630   32.1220   45.9960 C   0  0  0  0  0  0  0  0  0  0  0  0
   59.6380   30.9540   45.9620 O   0  0  0  0  0  0  0  0  0  0  0  0
   58.9782   32.8142   49.3289 H   0  0  0  0  0  0  0  0  0  0  0  0
   57.4618   32.6730   48.3764 H   0  0  0  0  0  0  0  0  0  0  0  0
   58.6512   31.3268   48.3764 H   0  0  0  0  0  0  0  0  0  0  0  0
   60.3847   33.5942   49.6659 H   0  0  0  0  0  0  0  0  0  0  0  0
   62.7574   34.1850   50.1464 H   0  0  0  0  0  0  0  0  0  0  0  0
   64.4136   34.3372   48.2887 H   0  0  0  0  0  0  0  0  0  0  0  0
   63.6994   33.8980   45.9400 H   0  0  0  0  0  0  0  0  0  0  0  0
   61.3320   33.3104   45.4401 H   0  0  0  0  0  0  0  0  0  0  0  0
   57.0292   32.5698   43.3748 H   0  0  0  0  0  0  0  0  0  0  0  0
   58.6270   31.8207   43.0126 H   0  0  0  0  0  0  0  0  0  0  0  0
   59.2570   29.7040   44.2250 H   0  0  0  0  0  0  0  0  0  0  0  0
   58.7105   27.2193   42.9669 H   0  0  0  0  0  0  0  0  0  0  0  0
   57.9889   24.9324   43.6525 H   0  0  0  0  0  0  0  0  0  0  0  0
   57.7340   23.8060   47.8850 H   0  0  0  0  0  0  0  0  0  0  0  0
   56.1839   26.5717   47.2287 H   0  0  0  0  0  0  0  0  0  0  0  0
   56.8951   28.8596   46.5406 H   0  0  0  0  0  0  0  0  0  0  0  0
  2  1  1  1
  2  3  1  0
  3  4  2  0
  4  5  1  0
  5  6  2  0
  6  7  1  0
  7  8  2  0
  2  9  1  0
  9 10  1  0
 10 11  2  0
 10 12  1  0
 12 13  1  0
 13 14  1  0
 14 15  2  0
 14 16  1  0
 16 17  1  0
 17 18  2  0
 18 19  1  0
 19 20  2  0
 20 21  1  0
 21 22  1  0
 21 23  2  0
 21 24  2  0
 20 25  1  0
 25 26  2  0
 12 27  1  0
 27 28  2  0
 27  2  1  0
  8  3  1  0
 26 17  1  0
  1 29  1  0
  1 30  1  0
  1 31  1  0
  4 32  1  0
  5 33  1  0
  6 34  1  0
  7 35  1  0
  8 36  1  0
 13 37  1  0
 13 38  1  0
 16 39  1  0
 18 40  1  0
 19 41  1  0
 22 42  1  0
 25 43  1  0
 26 44  1  0
M  CHG  2   9  -1  22  -1
M  END
>  <UniqueID>  (66) 
60

>  <SMILES>  (66) 
C[C@]1(c2ccccc2)[N-]C(=O)N(CC(=O)Nc2ccc(S([NH-])(=O)=O)cc2)C1=O

>  <Energy>  (66) 
67.64411427268314

>  <Genealogy>  (66) 
CC1(c2ccccc2)[N-]C(=O)N(CC(=O)Nc2ccc(S([NH-])(=O)=O)cc2)C1=O (protonated)
C[C@]1(c2ccccc2)[N-]C(=O)N(CC(=O)Nc2ccc(S([NH-])(=O)=O)cc2)C1=O (chirality)
C[C@]1(c2ccccc2)[N-]C(=O)N(CC(=O)Nc2ccc(S([NH-])(=O)=O)cc2)C1=O (3D coordinates assigned)
C[C@]1(c2ccccc2)[N-]C(=O)N(CC(=O)Nc2ccc(S([NH-])(=O)=O)cc2)C1=O (nonaromatic ring conformer: 67.64411427268314 kcal/mol)

>  <smiles>  (66) 
CC1(c2ccccc2)NC(=O)N(CC(=O)Nc2ccc(S(N)(=O)=O)cc2)C1=O

>  <score_type>  (66) 
oracle

>  <origin>  (66) 
adg

>  <m_score__min__energy>  (66) 
-11.369999999999999

>  <m_primary>  (66) 
energy

$$$$
66:0
     RDKit          3D

 42 44  0  0  0  0  0  0  0  0999 V2000
   56.6470   22.2270   43.0320 C   0  0  0  0  0  0  0  0  0  0  0  0
   55.8380   23.2020   43.6790 O   0  0  0  0  0  0  0  0  0  0  0  0
   56.3280   24.3820   44.2580 C   0  0  0  0  0  0  0  0  0  0  0  0
   55.8250   24.8940   45.4690 C   0  0  0  0  0  0  0  0  0  0  0  0
   56.3530   26.0700   46.0080 C   0  0  0  0  0  0  0  0  0  0  0  0
   57.3950   26.7470   45.3560 C   0  0  0  0  0  0  0  0  0  0  0  0
   57.9990   27.9870   45.9600 C   0  0  0  0  0  0  0  0  0  0  0  0
   57.0240   29.0770   45.9980 N   0  0  0  0  0  0  0  0  0  0  0  0
   56.2880   29.5750   44.8720 C   0  0  0  0  0  0  0  0  0  0  0  0
   55.1890   29.0390   44.5750 O   0  0  0  0  0  0  0  0  0  0  0  0
   56.8060   30.6640   44.0250 C   0  0  0  0  0  0  0  0  0  0  0  0
   56.7010   30.5690   42.6320 C   0  0  0  0  0  0  0  0  0  0  0  0
   57.2260   31.5760   41.8210 C   0  0  0  0  0  0  0  0  0  0  0  0
   57.8380   32.6790   42.4140 C   0  0  0  0  0  0  0  0  0  0  0  0
   57.9130   32.7700   43.7680 N   0  0  0  0  0  0  0  0  0  0  0  0
   57.4210   31.7960   44.5860 C   0  0  0  0  0  0  0  0  0  0  0  0
   57.4770   31.9380   45.9800 O   0  0  0  0  0  0  0  0  0  0  0  0
   58.3400   32.7990   46.6730 C   0  0  0  0  0  0  0  0  0  0  0  0
   59.1940   32.2540   47.6400 C   0  0  0  0  0  0  0  0  0  0  0  0
   60.0820   33.0750   48.3440 C   0  0  0  0  0  0  0  0  0  0  0  0
   60.1310   34.4440   48.0760 C   0  0  0  0  0  0  0  0  0  0  0  0
   59.2970   34.9950   47.0990 C   0  0  0  0  0  0  0  0  0  0  0  0
   58.4080   34.1780   46.3940 C   0  0  0  0  0  0  0  0  0  0  0  0
   57.8870   26.2420   44.1430 C   0  0  0  0  0  0  0  0  0  0  0  0
   57.3570   25.0680   43.6010 C   0  0  0  0  0  0  0  0  0  0  0  0
   57.1567   21.6127   43.7889 H   0  0  0  0  0  0  0  0  0  0  0  0
   56.0137   21.5837   42.4034 H   0  0  0  0  0  0  0  0  0  0  0  0
   57.3961   22.7307   42.4034 H   0  0  0  0  0  0  0  0  0  0  0  0
   55.0139   24.3667   45.9925 H   0  0  0  0  0  0  0  0  0  0  0  0
   55.9489   26.4681   46.9504 H   0  0  0  0  0  0  0  0  0  0  0  0
   58.3300   27.7639   46.9850 H   0  0  0  0  0  0  0  0  0  0  0  0
   58.8523   28.3000   45.3404 H   0  0  0  0  0  0  0  0  0  0  0  0
   56.2042   29.6997   42.1765 H   0  0  0  0  0  0  0  0  0  0  0  0
   57.1576   31.5001   40.7258 H   0  0  0  0  0  0  0  0  0  0  0  0
   58.2607   33.4767   41.7855 H   0  0  0  0  0  0  0  0  0  0  0  0
   59.1666   31.1741   47.8474 H   0  0  0  0  0  0  0  0  0  0  0  0
   60.7421   32.6410   49.1094 H   0  0  0  0  0  0  0  0  0  0  0  0
   60.8259   35.0891   48.6336 H   0  0  0  0  0  0  0  0  0  0  0  0
   59.3401   36.0730   46.8845 H   0  0  0  0  0  0  0  0  0  0  0  0
   57.7598   34.6134   45.6192 H   0  0  0  0  0  0  0  0  0  0  0  0
   58.6937   26.7727   43.6161 H   0  0  0  0  0  0  0  0  0  0  0  0
   57.7514   24.6795   42.6504 H   0  0  0  0  0  0  0  0  0  0  0  0
  1  2  1  0
  2  3  1  0
  3  4  2  0
  4  5  1  0
  5  6  2  0
  6  7  1  0
  7  8  1  0
  8  9  1  0
  9 10  2  0
  9 11  1  0
 11 12  2  0
 12 13  1  0
 13 14  2  0
 14 15  1  0
 15 16  2  0
 16 17  1  0
 17 18  1  0
 18 19  2  0
 19 20  1  0
 20 21  2  0
 21 22  1  0
 22 23  2  0
  6 24  1  0
 24 25  2  0
 25  3  1  0
 16 11  1  0
 23 18  1  0
  1 26  1  0
  1 27  1  0
  1 28  1  0
  4 29  1  0
  5 30  1  0
  7 31  1  0
  7 32  1  0
 12 33  1  0
 13 34  1  0
 14 35  1  0
 19 36  1  0
 20 37  1  0
 21 38  1  0
 22 39  1  0
 23 40  1  0
 24 41  1  0
 25 42  1  0
M  CHG  1   8  -1
M  END
>  <UniqueID>  (67) 
61

>  <SMILES>  (67) 
COc1ccc(C[N-]C(=O)c2cccnc2Oc2ccccc2)cc1

>  <Energy>  (67) 
51.30111298553309

>  <Genealogy>  (67) 
COc1ccc(C[N-]C(=O)c2cccnc2Oc2ccccc2)cc1 (protonated)
COc1ccc(C[N-]C(=O)c2cccnc2Oc2ccccc2)cc1 (3D coordinates assigned)
COc1ccc(C[N-]C(=O)c2cccnc2Oc2ccccc2)cc1 (optimized conformer: 51.30111298553309 kcal/mol)

>  <smiles>  (67) 
COc1ccc(CNC(=O)c2cccnc2Oc2ccccc2)cc1

>  <score_type>  (67) 
oracle

>  <origin>  (67) 
adg

>  <m_score__min__energy>  (67) 
-10.49

>  <m_primary>  (67) 
energy

$$$$
67:0
     RDKit          3D

 32 34  0  0  0  0  0  0  0  0999 V2000
   58.8040   30.2510   48.4910 O   0  0  0  0  0  0  0  0  0  0  0  0
   59.8200   29.6790   48.0110 C   0  0  0  0  0  0  0  0  0  0  0  0
   61.1360   30.0420   48.4450 N   0  0  0  0  0  0  0  0  0  0  0  0
   61.8520   31.2370   48.0980 C   0  0  0  0  0  0  0  0  0  0  0  0
   61.2870   32.1090   47.1580 C   0  0  0  0  0  0  0  0  0  0  0  0
   61.9430   33.2930   46.8060 C   0  0  0  0  0  0  0  0  0  0  0  0
   63.1620   33.6210   47.4030 C   0  0  0  0  0  0  0  0  0  0  0  0
   63.7230   32.7700   48.3600 C   0  0  0  0  0  0  0  0  0  0  0  0
   64.8960   33.1010   48.9550 F   0  0  0  0  0  0  0  0  0  0  0  0
   63.0700   31.5850   48.7130 C   0  0  0  0  0  0  0  0  0  0  0  0
   59.6620   28.6230   47.0590 N   0  0  0  0  0  0  0  0  0  0  0  0
   58.3900   28.2640   46.5690 N   0  0  0  0  0  0  0  0  0  0  0  0
   57.8410   27.0750   46.9700 C   0  0  0  0  0  0  0  0  0  0  0  0
   58.4660   26.3240   47.7690 O   0  0  0  0  0  0  0  0  0  0  0  0
   56.5880   26.6840   46.4830 C   0  0  0  0  0  0  0  0  0  0  0  0
   56.0750   25.5890   46.8350 O   0  0  0  0  0  0  0  0  0  0  0  0
   55.9220   27.4900   45.6220 N   0  0  0  0  0  0  0  0  0  0  0  0
   56.4380   28.6810   45.2250 C   0  0  0  0  0  0  0  0  0  0  0  0
   55.7180   29.4990   44.3480 C   0  0  0  0  0  0  0  0  0  0  0  0
   56.2380   30.7350   43.9590 C   0  0  0  0  0  0  0  0  0  0  0  0
   57.4740   31.1610   44.4500 C   0  0  0  0  0  0  0  0  0  0  0  0
   58.2030   30.3510   45.3250 C   0  0  0  0  0  0  0  0  0  0  0  0
   57.7010   29.0920   45.7140 C   0  0  0  0  0  0  0  0  0  0  0  0
   60.3211   31.8607   46.6938 H   0  0  0  0  0  0  0  0  0  0  0  0
   61.4984   33.9663   46.0584 H   0  0  0  0  0  0  0  0  0  0  0  0
   63.6808   34.5489   47.1204 H   0  0  0  0  0  0  0  0  0  0  0  0
   63.5091   30.9226   49.4735 H   0  0  0  0  0  0  0  0  0  0  0  0
   60.5140   28.2550   46.5770 H   0  0  0  0  0  0  0  0  0  0  0  0
   54.7415   29.1683   43.9646 H   0  0  0  0  0  0  0  0  0  0  0  0
   55.6731   31.3743   43.2646 H   0  0  0  0  0  0  0  0  0  0  0  0
   57.8758   32.1390   44.1465 H   0  0  0  0  0  0  0  0  0  0  0  0
   59.1728   30.6971   45.7120 H   0  0  0  0  0  0  0  0  0  0  0  0
  1  2  2  0
  2  3  1  0
  3  4  1  0
  4  5  2  0
  5  6  1  0
  6  7  2  0
  7  8  1  0
  8  9  1  0
  8 10  2  0
  2 11  1  0
 11 12  1  0
 12 13  1  0
 13 14  2  0
 13 15  1  0
 15 16  2  0
 15 17  1  0
 17 18  1  0
 18 19  2  0
 19 20  1  0
 20 21  2  0
 21 22  1  0
 22 23  2  0
 10  4  1  0
 23 12  1  0
 23 18  1  0
  5 24  1  0
  6 25  1  0
  7 26  1  0
 10 27  1  0
 11 28  1  0
 19 29  1  0
 20 30  1  0
 21 31  1  0
 22 32  1  0
M  CHG  2   3  -1  17  -1
M  END
>  <UniqueID>  (68) 
62

>  <SMILES>  (68) 
O=C([N-]c1cccc(F)c1)Nn1c(=O)c(=O)[n-]c2ccccc21

>  <Energy>  (68) 
51.33880612079374

>  <Genealogy>  (68) 
O=C([N-]c1cccc(F)c1)Nn1c(=O)c(=O)[n-]c2ccccc21 (protonated)
O=C([N-]c1cccc(F)c1)Nn1c(=O)c(=O)[n-]c2ccccc21 (3D coordinates assigned)
O=C([N-]c1cccc(F)c1)Nn1c(=O)c(=O)[n-]c2ccccc21 (optimized conformer: 51.33880612079374 kcal/mol)

>  <smiles>  (68) 
O=C(Nc1cccc(F)c1)Nn1c(=O)c(=O)[nH]c2ccccc21

>  <score_type>  (68) 
oracle

>  <origin>  (68) 
adg

>  <m_score__min__energy>  (68) 
-9.8000000000000007

>  <m_primary>  (68) 
energy

$$$$
68:0
     RDKit          3D

 42 44  0  0  0  0  0  0  0  0999 V2000
   56.2557   21.4730   45.3588 H   0  0  0  0  0  0  0  0  0  0  0  0
   56.0850   22.5490   45.5110 C   0  0  0  0  0  0  0  0  0  0  0  0
   54.9520   23.1600   44.9680 C   0  0  0  0  0  0  0  0  0  0  0  0
   54.2249   22.5625   44.3984 H   0  0  0  0  0  0  0  0  0  0  0  0
   54.7420   24.5290   45.1480 C   0  0  0  0  0  0  0  0  0  0  0  0
   53.8414   25.0026   44.7301 H   0  0  0  0  0  0  0  0  0  0  0  0
   55.6700   25.3040   45.8570 C   0  0  0  0  0  0  0  0  0  0  0  0
   55.4140   26.7050   46.0150 N   0  0  0  0  0  0  0  0  0  0  0  0
   56.2610   27.7430   45.5160 C   0  0  0  0  0  0  0  0  0  0  0  0
   57.5130   27.5980   45.5210 O   0  0  0  0  0  0  0  0  0  0  0  0
   55.6630   28.9060   44.9320 N   0  0  0  0  0  0  0  0  0  0  0  0
   56.3590   29.9860   44.2940 C   0  0  0  0  0  0  0  0  0  0  0  0
   56.3220   30.1750   42.9000 C   0  0  0  0  0  0  0  0  0  0  0  0
   55.7323   29.4935   42.2693 H   0  0  0  0  0  0  0  0  0  0  0  0
   57.0330   31.2270   42.3150 C   0  0  0  0  0  0  0  0  0  0  0  0
   56.9938   31.3764   41.2259 H   0  0  0  0  0  0  0  0  0  0  0  0
   57.7930   32.0890   43.1090 C   0  0  0  0  0  0  0  0  0  0  0  0
   58.3445   32.9200   42.6450 H   0  0  0  0  0  0  0  0  0  0  0  0
   57.8540   31.8970   44.4950 C   0  0  0  0  0  0  0  0  0  0  0  0
   58.8080   32.9960   45.4850 S   0  0  0  0  0  0  0  0  0  0  0  0
   59.6260   33.9190   44.6240 O   0  0  0  0  0  0  0  0  0  0  0  0
   57.8750   33.8220   46.3240 O   0  0  0  0  0  0  0  0  0  0  0  0
   59.8670   32.0950   46.5250 N   0  0  0  0  0  0  0  0  0  0  0  0
   59.4910   31.2160   46.9460 H   0  0  0  0  0  0  0  0  0  0  0  0
   61.0880   32.4560   46.7970 C   0  0  0  0  0  0  0  0  0  0  0  0
   61.6190   33.6930   46.3670 N   0  0  0  0  0  0  0  0  0  0  0  0
   61.0930   34.4190   45.8330 H   0  0  0  0  0  0  0  0  0  0  0  0
   62.9790   33.8470   46.8400 C   0  0  0  0  0  0  0  0  0  0  0  0
   63.0429   34.6833   47.5518 H   0  0  0  0  0  0  0  0  0  0  0  0
   63.6690   34.0673   46.0121 H   0  0  0  0  0  0  0  0  0  0  0  0
   63.3430   32.5240   47.5370 C   0  0  0  0  0  0  0  0  0  0  0  0
   63.7069   32.7230   48.5558 H   0  0  0  0  0  0  0  0  0  0  0  0
   64.1386   32.0002   46.9868 H   0  0  0  0  0  0  0  0  0  0  0  0
   62.0670   31.6700   47.5920 C   0  0  0  0  0  0  0  0  0  0  0  0
   61.7217   31.5456   48.6290 H   0  0  0  0  0  0  0  0  0  0  0  0
   62.2160   30.6521   47.2024 H   0  0  0  0  0  0  0  0  0  0  0  0
   57.1450   30.8390   45.0810 C   0  0  0  0  0  0  0  0  0  0  0  0
   57.2060   30.6769   46.1673 H   0  0  0  0  0  0  0  0  0  0  0  0
   56.7990   24.6780   46.4330 C   0  0  0  0  0  0  0  0  0  0  0  0
   57.9220   25.5530   47.4670 Cl  0  0  0  0  0  0  0  0  0  0  0  0
   57.0010   23.3040   46.2470 C   0  0  0  0  0  0  0  0  0  0  0  0
   57.8859   22.8173   46.6830 H   0  0  0  0  0  0  0  0  0  0  0  0
  1  2  1  0
  2  3  2  0
  3  4  1  0
  3  5  1  0
  5  6  1  0
  5  7  2  0
  7  8  1  0
  8  9  1  0
  9 10  2  0
  9 11  1  0
 11 12  1  0
 12 13  2  0
 13 14  1  0
 13 15  1  0
 15 16  1  0
 15 17  2  0
 17 18  1  0
 17 19  1  0
 19 20  1  0
 20 21  2  0
 20 22  2  0
 20 23  1  0
 23 24  1  0
 23 25  2  0
 25 26  1  0
 26 27  1  0
 26 28  1  0
 28 29  1  0
 28 30  1  0
 28 31  1  0
 31 32  1  0
 31 33  1  0
 31 34  1  0
 34 35  1  0
 34 36  1  0
 19 37  2  0
 37 38  1  0
  7 39  1  0
 39 40  1  0
 39 41  2  0
 41 42  1  0
 41  2  1  0
 37 12  1  0
 34 25  1  0
M  CHG  3   8  -1  11  -1  23   1
M  END
>  <UniqueID>  (69) 
63

>  <SMILES>  (69) 
O=C([N-]c1cccc(S(=O)(=O)/[NH+]=C2\CCCN2)c1)[N-]c1ccccc1Cl

>  <Energy>  (69) 
60.916816122613966

>  <Genealogy>  (69) 
O=C([N-]c1cccc(S(=O)(=O)[NH+]=C2CCCN2)c1)[N-]c1ccccc1Cl (protonated)
O=C([N-]c1cccc(S(=O)(=O)/[NH+]=C2\CCCN2)c1)[N-]c1ccccc1Cl (cis-trans isomerization)
O=C([N-]c1cccc(S(=O)(=O)/[NH+]=C2\CCCN2)c1)[N-]c1ccccc1Cl (3D coordinates assigned)
O=C([N-]c1cccc(S(=O)(=O)/[NH+]=C2\CCCN2)c1)[N-]c1ccccc1Cl (nonaromatic ring conformer: 60.916816122613966 kcal/mol)

>  <smiles>  (69) 
O=C(Nc1cccc(S(=O)(=O)N=C2CCCN2)c1)Nc1ccccc1Cl

>  <score_type>  (69) 
oracle

>  <origin>  (69) 
adg

>  <m_score__min__energy>  (69) 
-10.81

>  <m_primary>  (69) 
energy

$$$$
69:0
     RDKit          3D

 44 45  0  0  0  0  0  0  0  0999 V2000
   57.0600   24.5470   43.8540 C   0  0  0  0  0  0  0  0  0  0  0  0
   56.1810   24.5010   44.9720 O   0  0  0  0  0  0  0  0  0  0  0  0
   55.9630   25.6040   45.8030 C   0  0  0  0  0  0  0  0  0  0  0  0
   54.7960   26.0490   45.9800 O   0  0  0  0  0  0  0  0  0  0  0  0
   57.1120   26.2590   46.4520 C   0  0  0  0  0  0  0  0  0  0  0  0
   57.4750   25.8630   47.5920 O   0  0  0  0  0  0  0  0  0  0  0  0
   57.8350   27.3230   45.8020 N   0  0  0  0  0  0  0  0  0  0  0  0
   59.2000   27.2590   45.7390 C   0  0  0  0  0  0  0  0  0  0  0  0
   59.9310   28.2540   45.0920 C   0  0  0  0  0  0  0  0  0  0  0  0
   59.2660   29.3310   44.5180 C   0  0  0  0  0  0  0  0  0  0  0  0
   57.8730   29.4180   44.6000 C   0  0  0  0  0  0  0  0  0  0  0  0
   57.1940   30.5770   43.9820 C   0  0  0  0  0  0  0  0  0  0  0  0
   57.0260   31.7730   44.5670 C   0  0  0  0  0  0  0  0  0  0  0  0
   58.1050   32.6010   45.1470 C   0  0  0  0  0  0  0  0  0  0  0  0
   58.3640   33.7110   44.6080 O   0  0  0  0  0  0  0  0  0  0  0  0
   58.9430   32.1390   46.3090 C   0  0  0  0  0  0  0  0  0  0  0  0
   58.7670   33.0570   47.4860 C   0  0  0  0  0  0  0  0  0  0  0  0
   57.9720   32.7620   48.3670 O   0  0  0  0  0  0  0  0  0  0  0  0
   59.5310   34.3510   47.5780 C   0  0  0  0  0  0  0  0  0  0  0  0
   61.0050   34.0800   47.7260 C   0  0  0  0  0  0  0  0  0  0  0  0
   61.7900   33.7960   46.5960 C   0  0  0  0  0  0  0  0  0  0  0  0
   63.1530   33.5160   46.7380 C   0  0  0  0  0  0  0  0  0  0  0  0
   63.7370   33.5090   48.0080 C   0  0  0  0  0  0  0  0  0  0  0  0
   62.9610   33.7790   49.1370 C   0  0  0  0  0  0  0  0  0  0  0  0
   61.5990   34.0630   49.0000 C   0  0  0  0  0  0  0  0  0  0  0  0
   57.1610   28.3720   45.2250 C   0  0  0  0  0  0  0  0  0  0  0  0
   55.8980   28.4040   45.2480 O   0  0  0  0  0  0  0  0  0  0  0  0
   58.1002   24.6014   44.2074 H   0  0  0  0  0  0  0  0  0  0  0  0
   56.9266   23.6406   43.2451 H   0  0  0  0  0  0  0  0  0  0  0  0
   56.8327   25.4345   43.2451 H   0  0  0  0  0  0  0  0  0  0  0  0
   59.7267   26.4127   46.2042 H   0  0  0  0  0  0  0  0  0  0  0  0
   61.0275   28.1872   45.0361 H   0  0  0  0  0  0  0  0  0  0  0  0
   59.8361   30.1155   43.9988 H   0  0  0  0  0  0  0  0  0  0  0  0
   56.7960   30.4491   42.9645 H   0  0  0  0  0  0  0  0  0  0  0  0
   56.0015   32.1699   44.6193 H   0  0  0  0  0  0  0  0  0  0  0  0
   58.6359   31.1221   46.5945 H   0  0  0  0  0  0  0  0  0  0  0  0
   60.0011   32.1465   46.0084 H   0  0  0  0  0  0  0  0  0  0  0  0
   59.3603   34.9386   46.6639 H   0  0  0  0  0  0  0  0  0  0  0  0
   59.1807   34.9109   48.4577 H   0  0  0  0  0  0  0  0  0  0  0  0
   61.3312   33.7938   45.5963 H   0  0  0  0  0  0  0  0  0  0  0  0
   63.7656   33.3012   45.8500 H   0  0  0  0  0  0  0  0  0  0  0  0
   64.8094   33.2905   48.1181 H   0  0  0  0  0  0  0  0  0  0  0  0
   63.4220   33.7682   50.1357 H   0  0  0  0  0  0  0  0  0  0  0  0
   60.9904   34.2738   49.8917 H   0  0  0  0  0  0  0  0  0  0  0  0
  1  2  1  0
  2  3  1  0
  3  4  2  0
  3  5  1  0
  5  6  2  0
  5  7  1  0
  7  8  1  0
  8  9  2  0
  9 10  1  0
 10 11  2  0
 11 12  1  0
 12 13  2  3
 13 14  1  0
 14 15  2  0
 14 16  1  0
 16 17  1  0
 17 18  2  0
 17 19  1  0
 19 20  1  0
 20 21  2  0
 21 22  1  0
 22 23  2  0
 23 24  1  0
 24 25  2  0
 11 26  1  0
 26 27  2  0
 26  7  1  0
 25 20  1  0
  1 28  1  0
  1 29  1  0
  1 30  1  0
  8 31  1  0
  9 32  1  0
 10 33  1  0
 12 34  1  0
 13 35  1  0
 16 36  1  0
 16 37  1  0
 19 38  1  0
 19 39  1  0
 21 40  1  0
 22 41  1  0
 23 42  1  0
 24 43  1  0
 25 44  1  0
M  END
>  <UniqueID>  (70) 
64

>  <SMILES>  (70) 
COC(=O)C(=O)n1cccc(C=CC(=O)CC(=O)Cc2ccccc2)c1=O

>  <Energy>  (70) 
54.78918119278873

>  <Genealogy>  (70) 
COC(=O)C(=O)n1cccc(C=CC(=O)CC(=O)Cc2ccccc2)c1=O (3D coordinates assigned)
COC(=O)C(=O)n1cccc(C=CC(=O)CC(=O)Cc2ccccc2)c1=O (optimized conformer: 54.78918119278873 kcal/mol)

>  <smiles>  (70) 
COC(=O)C(=O)n1cccc(C=CC(=O)CC(=O)Cc2ccccc2)c1=O

>  <score_type>  (70) 
oracle

>  <origin>  (70) 
adg

>  <m_score__min__energy>  (70) 
-8.9700000000000006

>  <m_primary>  (70) 
energy

$$$$
70:0
     RDKit          3D

 44 46  0  0  0  0  0  0  0  0999 V2000
   59.2760   31.2600   49.1100 O   0  0  0  0  0  0  0  0  0  0  0  0
   60.6590   30.7040   49.2960 S   0  0  0  0  0  0  0  0  0  0  0  0
   60.9160   30.5150   50.7630 O   0  0  0  0  0  0  0  0  0  0  0  0
   60.7640   29.1670   48.4960 N   0  0  0  0  0  0  0  0  0  0  0  0
   60.0710   28.8410   47.2770 C   0  0  0  0  0  0  0  0  0  0  0  0
   60.4310   29.4080   46.0380 C   0  0  0  0  0  0  0  0  0  0  0  0
   59.7330   29.0670   44.8750 C   0  0  0  0  0  0  0  0  0  0  0  0
   58.6650   28.1680   44.9330 C   0  0  0  0  0  0  0  0  0  0  0  0
   57.7780   27.7240   43.4360 S   0  0  0  0  0  0  0  0  0  0  0  0
   57.0540   29.3830   43.1660 C   0  0  0  0  0  0  0  0  0  0  0  0
   55.9900   29.7240   44.2120 C   0  0  0  0  0  0  0  0  0  0  0  0
   56.2540   30.9810   44.8110 O   0  0  0  0  0  0  0  0  0  0  0  0
   57.2470   31.6920   44.0970 C   0  0  0  0  0  0  0  0  0  0  0  0
   57.9220   32.6820   44.9930 C   0  0  0  0  0  0  0  0  0  0  0  0
   58.5360   33.8640   44.5930 C   0  0  0  0  0  0  0  0  0  0  0  0
   59.1170   34.5690   45.6000 N   0  0  0  0  0  0  0  0  0  0  0  0
   58.9750   33.9520   46.7920 C   0  0  0  0  0  0  0  0  0  0  0  0
   59.6080   34.5910   48.2940 Cl  0  0  0  0  0  0  0  0  0  0  0  0
   58.1260   32.5060   46.6540 S   0  0  0  0  0  0  0  0  0  0  0  0
   58.3070   27.5920   46.1570 C   0  0  0  0  0  0  0  0  0  0  0  0
   59.0010   27.9320   47.3210 C   0  0  0  0  0  0  0  0  0  0  0  0
   61.8650   31.8100   48.6460 C   0  0  0  0  0  0  0  0  0  0  0  0
   61.8040   32.2140   47.3050 C   0  0  0  0  0  0  0  0  0  0  0  0
   62.7660   33.0910   46.7910 C   0  0  0  0  0  0  0  0  0  0  0  0
   63.7910   33.5660   47.6160 C   0  0  0  0  0  0  0  0  0  0  0  0
   63.8520   33.1690   48.9550 C   0  0  0  0  0  0  0  0  0  0  0  0
   62.8910   32.2950   49.4710 C   0  0  0  0  0  0  0  0  0  0  0  0
   61.4010   28.4570   48.9210 H   0  0  0  0  0  0  0  0  0  0  0  0
   61.2655   30.1227   45.9854 H   0  0  0  0  0  0  0  0  0  0  0  0
   60.0260   29.5083   43.9109 H   0  0  0  0  0  0  0  0  0  0  0  0
   57.8567   30.1332   43.2190 H   0  0  0  0  0  0  0  0  0  0  0  0
   56.5705   29.3849   42.1779 H   0  0  0  0  0  0  0  0  0  0  0  0
   55.0041   29.7570   43.7253 H   0  0  0  0  0  0  0  0  0  0  0  0
   56.0065   28.9514   44.9948 H   0  0  0  0  0  0  0  0  0  0  0  0
   57.9944   30.9830   43.7114 H   0  0  0  0  0  0  0  0  0  0  0  0
   56.7722   32.2297   43.2630 H   0  0  0  0  0  0  0  0  0  0  0  0
   58.5504   34.2014   43.5461 H   0  0  0  0  0  0  0  0  0  0  0  0
   57.4780   26.8705   46.2028 H   0  0  0  0  0  0  0  0  0  0  0  0
   58.7066   27.4835   48.2813 H   0  0  0  0  0  0  0  0  0  0  0  0
   60.9984   31.8410   46.6554 H   0  0  0  0  0  0  0  0  0  0  0  0
   62.7161   33.4067   45.7385 H   0  0  0  0  0  0  0  0  0  0  0  0
   64.5493   34.2522   47.2109 H   0  0  0  0  0  0  0  0  0  0  0  0
   64.6572   33.5449   49.6033 H   0  0  0  0  0  0  0  0  0  0  0  0
   62.9392   31.9868   50.5259 H   0  0  0  0  0  0  0  0  0  0  0  0
  1  2  2  0
  2  3  2  0
  2  4  1  0
  4  5  1  0
  5  6  2  0
  6  7  1  0
  7  8  2  0
  8  9  1  0
  9 10  1  0
 10 11  1  0
 11 12  1  0
 12 13  1  0
 13 14  1  0
 14 15  2  0
 15 16  1  0
 16 17  2  0
 17 18  1  0
 17 19  1  0
  8 20  1  0
 20 21  2  0
  2 22  1  0
 22 23  2  0
 23 24  1  0
 24 25  2  0
 25 26  1  0
 26 27  2  0
 21  5  1  0
 27 22  1  0
 19 14  1  0
  4 28  1  0
  6 29  1  0
  7 30  1  0
 10 31  1  0
 10 32  1  0
 11 33  1  0
 11 34  1  0
 13 35  1  0
 13 36  1  0
 15 37  1  0
 20 38  1  0
 21 39  1  0
 23 40  1  0
 24 41  1  0
 25 42  1  0
 26 43  1  0
 27 44  1  0
M  END
>  <UniqueID>  (71) 
65

>  <SMILES>  (71) 
O=S(=O)(Nc1ccc(SCCOCc2cnc(Cl)s2)cc1)c1ccccc1

>  <Energy>  (71) 
75.88314570823417

>  <Genealogy>  (71) 
O=S(=O)(Nc1ccc(SCCOCc2cnc(Cl)s2)cc1)c1ccccc1 (3D coordinates assigned)
O=S(=O)(Nc1ccc(SCCOCc2cnc(Cl)s2)cc1)c1ccccc1 (optimized conformer: 75.88314570823417 kcal/mol)

>  <smiles>  (71) 
O=S(=O)(Nc1ccc(SCCOCc2cnc(Cl)s2)cc1)c1ccccc1

>  <score_type>  (71) 
oracle

>  <origin>  (71) 
adg

>  <m_score__min__energy>  (71) 
-9.4499999999999993

>  <m_primary>  (71) 
energy

$$$$
71:0
     RDKit          3D

 52 55  0  0  0  0  0  0  0  0999 V2000
   56.2600   25.7970   46.0140 Cl  0  0  0  0  0  0  0  0  0  0  0  0
   57.4010   27.1120   46.2310 C   0  0  0  0  0  0  0  0  0  0  0  0
   57.3400   28.2330   45.3980 C   0  0  0  0  0  0  0  0  0  0  0  0
   58.2580   29.2830   45.5560 C   0  0  0  0  0  0  0  0  0  0  0  0
   58.2340   30.4690   44.6260 C   0  0  0  0  0  0  0  0  0  0  0  0
   57.4910   31.6000   45.2250 N   0  0  0  0  0  0  0  0  0  0  0  0
   57.3940   32.7400   44.2770 C   0  0  0  0  0  0  0  0  0  0  0  0
   58.4770   33.7970   44.5360 C   0  0  0  0  0  0  0  0  0  0  0  0
   58.3470   34.3710   45.8930 N   0  0  0  0  0  0  0  0  0  0  0  0
   59.5540   35.1000   46.3480 C   0  0  0  0  0  0  0  0  0  0  0  0
   60.5440   34.2410   47.1120 C   0  0  0  0  0  0  0  0  0  0  0  0
   61.5030   33.4770   46.4220 C   0  0  0  0  0  0  0  0  0  0  0  0
   62.4050   32.6710   47.1250 C   0  0  0  0  0  0  0  0  0  0  0  0
   62.3710   32.6340   48.5200 C   0  0  0  0  0  0  0  0  0  0  0  0
   61.4440   33.4140   49.2170 C   0  0  0  0  0  0  0  0  0  0  0  0
   60.5410   34.2210   48.5190 C   0  0  0  0  0  0  0  0  0  0  0  0
   57.7690   33.4460   46.8960 C   0  0  0  0  0  0  0  0  0  0  0  0
   58.0550   31.9800   46.5480 C   0  0  0  0  0  0  0  0  0  0  0  0
   59.2400   29.1960   46.5550 C   0  0  0  0  0  0  0  0  0  0  0  0
   59.2970   28.0780   47.4020 C   0  0  0  0  0  0  0  0  0  0  0  0
   60.3890   27.9640   48.4270 C   0  0  0  0  0  0  0  0  0  0  0  0
   60.2750   29.0530   49.3920 N   0  0  0  0  0  0  0  0  0  0  0  0
   59.1510   29.6890   49.7600 C   0  0  0  0  0  0  0  0  0  0  0  0
   59.5380   30.7050   50.6120 C   0  0  0  0  0  0  0  0  0  0  0  0
   60.8830   30.6670   50.7280 N   0  0  0  0  0  0  0  0  0  0  0  0
   61.2950   29.6610   49.9750 N   0  0  0  0  0  0  0  0  0  0  0  0
   58.3780   27.0320   47.2270 C   0  0  0  0  0  0  0  0  0  0  0  0
   56.5693   28.2925   44.6154 H   0  0  0  0  0  0  0  0  0  0  0  0
   59.2672   30.7860   44.4212 H   0  0  0  0  0  0  0  0  0  0  0  0
   57.7289   30.1729   43.6947 H   0  0  0  0  0  0  0  0  0  0  0  0
   57.5072   32.3595   43.2512 H   0  0  0  0  0  0  0  0  0  0  0  0
   56.4129   33.2170   44.4184 H   0  0  0  0  0  0  0  0  0  0  0  0
   59.4673   33.3284   44.4375 H   0  0  0  0  0  0  0  0  0  0  0  0
   58.3577   34.6068   43.8012 H   0  0  0  0  0  0  0  0  0  0  0  0
   60.0633   35.5111   45.4639 H   0  0  0  0  0  0  0  0  0  0  0  0
   59.2104   35.8817   47.0414 H   0  0  0  0  0  0  0  0  0  0  0  0
   61.5438   33.5136   45.3234 H   0  0  0  0  0  0  0  0  0  0  0  0
   63.1422   32.0654   46.5775 H   0  0  0  0  0  0  0  0  0  0  0  0
   63.0736   31.9911   49.0706 H   0  0  0  0  0  0  0  0  0  0  0  0
   61.4250   33.3928   50.3166 H   0  0  0  0  0  0  0  0  0  0  0  0
   59.8236   34.8443   49.0730 H   0  0  0  0  0  0  0  0  0  0  0  0
   58.2053   33.6702   47.8806 H   0  0  0  0  0  0  0  0  0  0  0  0
   56.6784   33.5893   46.9058 H   0  0  0  0  0  0  0  0  0  0  0  0
   59.1440   31.8261   46.5271 H   0  0  0  0  0  0  0  0  0  0  0  0
   57.5783   31.3503   47.3136 H   0  0  0  0  0  0  0  0  0  0  0  0
   59.9703   30.0098   46.6751 H   0  0  0  0  0  0  0  0  0  0  0  0
   60.2995   27.0008   48.9507 H   0  0  0  0  0  0  0  0  0  0  0  0
   61.3663   28.0231   47.9255 H   0  0  0  0  0  0  0  0  0  0  0  0
   58.1249   29.4484   49.4452 H   0  0  0  0  0  0  0  0  0  0  0  0
   58.8672   31.4208   51.1096 H   0  0  0  0  0  0  0  0  0  0  0  0
   62.2970   29.3950   49.8480 H   0  0  0  0  0  0  0  0  0  0  0  0
   58.4269   26.1455   47.8764 H   0  0  0  0  0  0  0  0  0  0  0  0
  1  2  1  0
  2  3  2  0
  3  4  1  0
  4  5  1  0
  5  6  1  0
  6  7  1  0
  7  8  1  0
  8  9  1  0
  9 10  1  0
 10 11  1  0
 11 12  2  0
 12 13  1  0
 13 14  2  0
 14 15  1  0
 15 16  2  0
  9 17  1  0
 17 18  1  0
  4 19  2  0
 19 20  1  0
 20 21  1  0
 21 22  1  0
 22 23  1  0
 23 24  2  0
 24 25  1  0
 25 26  2  0
 20 27  2  0
 27  2  1  0
 18  6  1  0
 26 22  1  0
 16 11  1  0
  3 28  1  0
  5 29  1  0
  5 30  1  0
  7 31  1  0
  7 32  1  0
  8 33  1  0
  8 34  1  0
 10 35  1  0
 10 36  1  0
 12 37  1  0
 13 38  1  0
 14 39  1  0
 15 40  1  0
 16 41  1  0
 17 42  1  0
 17 43  1  0
 18 44  1  0
 18 45  1  0
 19 46  1  0
 21 47  1  0
 21 48  1  0
 23 49  1  0
 24 50  1  0
 26 51  1  0
 27 52  1  0
M  CHG  1  26   1
M  END
>  <UniqueID>  (72) 
66

>  <SMILES>  (72) 
Clc1cc(CN2CCN(Cc3ccccc3)CC2)cc(Cn2ccn[nH+]2)c1

>  <Energy>  (72) 
102.23508990237092

>  <Genealogy>  (72) 
Clc1cc(CN2CCN(Cc3ccccc3)CC2)cc(Cn2ccn[nH+]2)c1 (protonated)
Clc1cc(CN2CCN(Cc3ccccc3)CC2)cc(Cn2ccn[nH+]2)c1 (3D coordinates assigned)
Clc1cc(CN2CCN(Cc3ccccc3)CC2)cc(Cn2ccn[nH+]2)c1 (nonaromatic ring conformer: 102.23508990237092 kcal/mol)

>  <smiles>  (72) 
Clc1cc(CN2CCN(Cc3ccccc3)CC2)cc(Cn2ccnn2)c1

>  <score_type>  (72) 
oracle

>  <origin>  (72) 
adg

>  <m_score__min__energy>  (72) 
-7.9100000000000001

>  <m_primary>  (72) 
energy

$$$$
72:0
     RDKit          3D

 34 35  0  0  0  0  0  0  0  0999 V2000
   60.2320   34.2830   48.6840 C   0  0  0  0  0  0  0  0  0  0  0  0
   59.1050   33.4060   48.2260 C   0  0  0  0  0  0  0  0  0  0  0  0
   58.4920   32.7210   49.0890 O   0  0  0  0  0  0  0  0  0  0  0  0
   58.6980   33.3280   46.7960 C   0  0  0  0  0  0  0  0  0  0  0  0
   59.2390   34.2320   45.8620 C   0  0  0  0  0  0  0  0  0  0  0  0
   58.8810   34.1590   44.5150 C   0  0  0  0  0  0  0  0  0  0  0  0
   57.9730   33.1920   44.0800 C   0  0  0  0  0  0  0  0  0  0  0  0
   57.4020   32.2980   44.9920 C   0  0  0  0  0  0  0  0  0  0  0  0
   56.4890   31.3080   44.5000 N   0  0  0  0  0  0  0  0  0  0  0  0
   56.6770   29.8840   44.5280 C   0  0  0  0  0  0  0  0  0  0  0  0
   55.7330   29.1260   44.8850 O   0  0  0  0  0  0  0  0  0  0  0  0
   57.9200   29.3090   44.0670 N   0  0  0  0  0  0  0  0  0  0  0  0
   59.0140   29.6630   45.0000 C   0  0  0  0  0  0  0  0  0  0  0  0
   60.1770   28.6640   44.8760 C   0  0  0  0  0  0  0  0  0  0  0  0
   59.8210   27.3190   45.1710 O   0  0  0  0  0  0  0  0  0  0  0  0
   58.4370   27.0420   45.0050 C   0  0  0  0  0  0  0  0  0  0  0  0
   57.7900   27.8420   43.8600 C   0  0  0  0  0  0  0  0  0  0  0  0
   57.7830   32.3540   46.3460 C   0  0  0  0  0  0  0  0  0  0  0  0
   60.2576   34.3029   49.7835 H   0  0  0  0  0  0  0  0  0  0  0  0
   61.1841   33.8859   48.3022 H   0  0  0  0  0  0  0  0  0  0  0  0
   60.0809   35.3035   48.3022 H   0  0  0  0  0  0  0  0  0  0  0  0
   59.9496   35.0021   46.1966 H   0  0  0  0  0  0  0  0  0  0  0  0
   59.3160   34.8661   43.7934 H   0  0  0  0  0  0  0  0  0  0  0  0
   57.7052   33.1327   43.0148 H   0  0  0  0  0  0  0  0  0  0  0  0
   58.1460   29.7350   43.1360 H   0  0  0  0  0  0  0  0  0  0  0  0
   59.3786   30.6733   44.7626 H   0  0  0  0  0  0  0  0  0  0  0  0
   58.6267   29.6298   46.0290 H   0  0  0  0  0  0  0  0  0  0  0  0
   60.5570   28.7025   43.8444 H   0  0  0  0  0  0  0  0  0  0  0  0
   60.9320   28.9624   45.6182 H   0  0  0  0  0  0  0  0  0  0  0  0
   58.3185   25.9693   44.7921 H   0  0  0  0  0  0  0  0  0  0  0  0
   57.9312   27.3376   45.9360 H   0  0  0  0  0  0  0  0  0  0  0  0
   58.2822   27.5711   42.9143 H   0  0  0  0  0  0  0  0  0  0  0  0
   56.7185   27.5947   43.8339 H   0  0  0  0  0  0  0  0  0  0  0  0
   57.3627   31.6306   47.0602 H   0  0  0  0  0  0  0  0  0  0  0  0
  1  2  1  0
  2  3  2  0
  2  4  1  0
  4  5  2  0
  5  6  1  0
  6  7  2  0
  7  8  1  0
  8  9  1  0
  9 10  1  0
 10 11  2  0
 10 12  1  0
 12 13  1  0
 13 14  1  0
 14 15  1  0
 15 16  1  0
 16 17  1  0
  8 18  2  0
 18  4  1  0
 17 12  1  0
  1 19  1  0
  1 20  1  0
  1 21  1  0
  5 22  1  0
  6 23  1  0
  7 24  1  0
 12 25  1  0
 13 26  1  0
 13 27  1  0
 14 28  1  0
 14 29  1  0
 16 30  1  0
 16 31  1  0
 17 32  1  0
 17 33  1  0
 18 34  1  0
M  CHG  2   9  -1  12   1
M  END
>  <UniqueID>  (73) 
67

>  <SMILES>  (73) 
CC(=O)c1cccc([N-]C(=O)[NH+]2CCOCC2)c1

>  <Energy>  (73) 
52.07077411290829

>  <Genealogy>  (73) 
CC(=O)c1cccc([N-]C(=O)[NH+]2CCOCC2)c1 (protonated)
CC(=O)c1cccc([N-]C(=O)[NH+]2CCOCC2)c1 (3D coordinates assigned)
CC(=O)c1cccc([N-]C(=O)[NH+]2CCOCC2)c1 (nonaromatic ring conformer: 52.07077411290829 kcal/mol)

>  <smiles>  (73) 
CC(=O)c1cccc(NC(=O)N2CCOCC2)c1

>  <score_type>  (73) 
oracle

>  <origin>  (73) 
adg

>  <m_score__min__energy>  (73) 
-6.7599999999999998

>  <m_primary>  (73) 
energy

$$$$
73:0
     RDKit          3D

 25 26  0  0  0  0  0  0  0  0999 V2000
   57.3140   22.7470   47.6980 O   0  0  0  0  0  0  0  0  0  0  0  0
   57.0330   23.8790   47.2250 C   0  0  0  0  0  0  0  0  0  0  0  0
   55.7880   24.2050   46.8130 N   0  0  0  0  0  0  0  0  0  0  0  0
   55.9400   25.4740   46.3990 C   0  0  0  0  0  0  0  0  0  0  0  0
   54.9080   26.2560   45.8920 O   0  0  0  0  0  0  0  0  0  0  0  0
   57.2450   25.8730   46.5570 C   0  0  0  0  0  0  0  0  0  0  0  0
   57.8060   27.2320   46.2730 C   0  0  0  0  0  0  0  0  0  0  0  0
   57.7370   27.5390   44.7750 C   0  0  0  0  0  0  0  0  0  0  0  0
   57.6180   29.0220   44.5450 C   0  0  0  0  0  0  0  0  0  0  0  0
   58.1490   29.9290   45.4760 C   0  0  0  0  0  0  0  0  0  0  0  0
   58.0660   31.3060   45.2450 C   0  0  0  0  0  0  0  0  0  0  0  0
   57.4620   31.7850   44.0780 C   0  0  0  0  0  0  0  0  0  0  0  0
   56.9430   30.8880   43.1410 C   0  0  0  0  0  0  0  0  0  0  0  0
   57.0250   29.5100   43.3680 C   0  0  0  0  0  0  0  0  0  0  0  0
   57.9500   24.8620   47.0970 N   0  0  0  0  0  0  0  0  0  0  0  0
   54.0210   26.3170   46.3780 H   0  0  0  0  0  0  0  0  0  0  0  0
   57.2246   27.9859   46.8240 H   0  0  0  0  0  0  0  0  0  0  0  0
   58.8583   27.2560   46.5926 H   0  0  0  0  0  0  0  0  0  0  0  0
   58.6511   27.1694   44.2874 H   0  0  0  0  0  0  0  0  0  0  0  0
   56.8526   27.0413   44.3505 H   0  0  0  0  0  0  0  0  0  0  0  0
   58.6322   29.5552   46.3907 H   0  0  0  0  0  0  0  0  0  0  0  0
   58.4760   32.0126   45.9816 H   0  0  0  0  0  0  0  0  0  0  0  0
   57.3956   32.8681   43.8979 H   0  0  0  0  0  0  0  0  0  0  0  0
   56.4690   31.2660   42.2231 H   0  0  0  0  0  0  0  0  0  0  0  0
   56.6243   28.8066   42.6233 H   0  0  0  0  0  0  0  0  0  0  0  0
  1  2  2  0
  2  3  1  0
  3  4  1  0
  4  5  1  0
  4  6  2  0
  6  7  1  0
  7  8  1  0
  8  9  1  0
  9 10  2  0
 10 11  1  0
 11 12  2  0
 12 13  1  0
 13 14  2  0
  6 15  1  0
 15  2  1  0
 14  9  1  0
  5 16  1  0
  7 17  1  0
  7 18  1  0
  8 19  1  0
  8 20  1  0
 10 21  1  0
 11 22  1  0
 12 23  1  0
 13 24  1  0
 14 25  1  0
M  CHG  2   3  -1  15  -1
M  END
>  <UniqueID>  (74) 
68

>  <SMILES>  (74) 
O=c1[n-]c(O)c(CCc2ccccc2)[n-]1

>  <Energy>  (74) 
50.07307374645591

>  <Genealogy>  (74) 
O=c1[n-]c(O)c(CCc2ccccc2)[n-]1 (protonated)
O=c1[n-]c(O)c(CCc2ccccc2)[n-]1 (3D coordinates assigned)
O=c1[n-]c(O)c(CCc2ccccc2)[n-]1 (optimized conformer: 50.07307374645591 kcal/mol)

>  <smiles>  (74) 
O=c1[nH]c(O)c(CCc2ccccc2)[nH]1

>  <score_type>  (74) 
oracle

>  <origin>  (74) 
adg

>  <m_score__min__energy>  (74) 
-10.49

>  <m_primary>  (74) 
energy

$$$$
74:0
     RDKit          3D

 47 49  0  0  0  0  0  0  0  0999 V2000
   58.7850   29.8700   44.2050 N   0  0  0  0  0  0  0  0  0  0  0  0
   57.7190   30.8110   45.1900 S   0  0  0  0  0  0  0  0  0  0  0  0
   56.3940   30.9070   44.4870 O   0  0  0  0  0  0  0  0  0  0  0  0
   57.5210   30.1350   46.5160 O   0  0  0  0  0  0  0  0  0  0  0  0
   58.3850   32.4340   45.4390 C   0  0  0  0  0  0  0  0  0  0  0  0
   58.3500   33.3430   44.3690 C   0  0  0  0  0  0  0  0  0  0  0  0
   58.9240   34.6100   44.4900 C   0  0  0  0  0  0  0  0  0  0  0  0
   59.5480   34.9830   45.6790 C   0  0  0  0  0  0  0  0  0  0  0  0
   59.5850   34.0960   46.7560 C   0  0  0  0  0  0  0  0  0  0  0  0
   58.9890   32.8280   46.6610 C   0  0  0  0  0  0  0  0  0  0  0  0
   59.0050   31.9580   47.8560 C   0  0  0  0  0  0  0  0  0  0  0  0
   59.7910   30.7960   47.8680 C   0  0  0  0  0  0  0  0  0  0  0  0
   59.8460   29.9940   49.0120 C   0  0  0  0  0  0  0  0  0  0  0  0
   59.1240   30.3480   50.1610 C   0  0  0  0  0  0  0  0  0  0  0  0
   59.2210   29.4980   51.3990 C   0  0  0  0  0  0  0  0  0  0  0  0
   57.8850   29.2820   51.9790 N   0  0  0  0  0  0  0  0  0  0  0  0
   57.4800   30.3670   52.8870 C   0  0  0  0  0  0  0  0  0  0  0  0
   56.2770   31.0960   52.3690 C   0  0  0  0  0  0  0  0  0  0  0  0
   56.2380   32.3530   52.4470 O   0  0  0  0  0  0  0  0  0  0  0  0
   55.2420   30.3670   51.6960 N   0  0  0  0  0  0  0  0  0  0  0  0
   53.8300   30.4230   51.9550 C   0  0  0  0  0  0  0  0  0  0  0  0
   53.1430   29.3890   52.6210 C   0  0  0  0  0  0  0  0  0  0  0  0
   51.7630   29.4810   52.8290 C   0  0  0  0  0  0  0  0  0  0  0  0
   51.0570   30.5970   52.3740 C   0  0  0  0  0  0  0  0  0  0  0  0
   51.7280   31.6170   51.6930 C   0  0  0  0  0  0  0  0  0  0  0  0
   51.0240   32.7190   51.2240 O   0  0  0  0  0  0  0  0  0  0  0  0
   53.1070   31.5250   51.4780 C   0  0  0  0  0  0  0  0  0  0  0  0
   58.3460   31.5150   50.1530 C   0  0  0  0  0  0  0  0  0  0  0  0
   58.2920   32.3180   49.0100 C   0  0  0  0  0  0  0  0  0  0  0  0
   58.4210   29.9180   43.2280 H   0  0  0  0  0  0  0  0  0  0  0  0
   57.8650   33.0535   43.4251 H   0  0  0  0  0  0  0  0  0  0  0  0
   58.8837   35.3144   43.6461 H   0  0  0  0  0  0  0  0  0  0  0  0
   60.0114   35.9766   45.7687 H   0  0  0  0  0  0  0  0  0  0  0  0
   60.0862   34.3933   47.6889 H   0  0  0  0  0  0  0  0  0  0  0  0
   60.3664   30.5147   46.9737 H   0  0  0  0  0  0  0  0  0  0  0  0
   60.4588   29.0805   49.0108 H   0  0  0  0  0  0  0  0  0  0  0  0
   59.6641   28.5258   51.1374 H   0  0  0  0  0  0  0  0  0  0  0  0
   59.8517   30.0142   52.1378 H   0  0  0  0  0  0  0  0  0  0  0  0
   57.1990   29.2750   51.1890 H   0  0  0  0  0  0  0  0  0  0  0  0
   57.2419   29.9388   53.8719 H   0  0  0  0  0  0  0  0  0  0  0  0
   58.3117   31.0829   52.9622 H   0  0  0  0  0  0  0  0  0  0  0  0
   53.6937   28.5065   52.9786 H   0  0  0  0  0  0  0  0  0  0  0  0
   51.2321   28.6722   53.3524 H   0  0  0  0  0  0  0  0  0  0  0  0
   49.9741   30.6732   52.5513 H   0  0  0  0  0  0  0  0  0  0  0  0
   53.6283   32.3239   50.9302 H   0  0  0  0  0  0  0  0  0  0  0  0
   57.7760   31.7995   51.0498 H   0  0  0  0  0  0  0  0  0  0  0  0
   57.6874   33.2370   49.0151 H   0  0  0  0  0  0  0  0  0  0  0  0
  1  2  1  0
  2  3  2  0
  2  4  2  0
  2  5  1  0
  5  6  2  0
  6  7  1  0
  7  8  2  0
  8  9  1  0
  9 10  2  0
 10 11  1  0
 11 12  2  0
 12 13  1  0
 13 14  2  0
 14 15  1  0
 15 16  1  0
 16 17  1  0
 17 18  1  0
 18 19  2  0
 18 20  1  0
 20 21  1  0
 21 22  2  0
 22 23  1  0
 23 24  2  0
 24 25  1  0
 25 26  1  0
 25 27  2  0
 14 28  1  0
 28 29  2  0
 10  5  1  0
 29 11  1  0
 27 21  1  0
  1 30  1  0
  6 31  1  0
  7 32  1  0
  8 33  1  0
  9 34  1  0
 12 35  1  0
 13 36  1  0
 15 37  1  0
 15 38  1  0
 16 39  1  0
 17 40  1  0
 17 41  1  0
 22 42  1  0
 23 43  1  0
 24 44  1  0
 27 45  1  0
 28 46  1  0
 29 47  1  0
M  CHG  3   1  -1  20  -1  26  -1
M  END
>  <UniqueID>  (75) 
69

>  <SMILES>  (75) 
[NH-]S(=O)(=O)c1ccccc1-c1ccc(CNCC(=O)[N-]c2cccc([O-])c2)cc1

>  <Energy>  (75) 
54.689893917058555

>  <Genealogy>  (75) 
[NH-]S(=O)(=O)c1ccccc1-c1ccc(CNCC(=O)[N-]c2cccc([O-])c2)cc1 (protonated)
[NH-]S(=O)(=O)c1ccccc1-c1ccc(CNCC(=O)[N-]c2cccc([O-])c2)cc1 (3D coordinates assigned)
[NH-]S(=O)(=O)c1ccccc1-c1ccc(CNCC(=O)[N-]c2cccc([O-])c2)cc1 (optimized conformer: 54.689893917058555 kcal/mol)

>  <smiles>  (75) 
NS(=O)(=O)c1ccccc1-c1ccc(CNCC(=O)Nc2cccc(O)c2)cc1

>  <score_type>  (75) 
oracle

>  <origin>  (75) 
adg

>  <m_score__min__energy>  (75) 
-16.579999999999998

>  <m_primary>  (75) 
energy

$$$$
75:0
     RDKit          3D

 44 47  0  0  0  0  0  0  0  0999 V2000
   55.5130   25.9440   46.0040 O   0  0  0  0  0  0  0  0  0  0  0  0
   56.6670   25.4420   45.8880 C   0  0  0  0  0  0  0  0  0  0  0  0
   56.8070   24.1750   45.2940 C   0  0  0  0  0  0  0  0  0  0  0  0
   55.7050   23.4370   44.8210 C   0  0  0  0  0  0  0  0  0  0  0  0
   55.9000   22.1800   44.2400 C   0  0  0  0  0  0  0  0  0  0  0  0
   57.1880   21.6510   44.1260 C   0  0  0  0  0  0  0  0  0  0  0  0
   58.2880   22.3770   44.5940 C   0  0  0  0  0  0  0  0  0  0  0  0
   58.0990   23.6350   45.1770 C   0  0  0  0  0  0  0  0  0  0  0  0
   59.1630   24.3380   45.6300 N   0  0  0  0  0  0  0  0  0  0  0  0
   59.0240   25.5600   46.2020 C   0  0  0  0  0  0  0  0  0  0  0  0
   60.3930   26.3120   46.7120 S   0  0  0  0  0  0  0  0  0  0  0  0
   57.7740   26.1290   46.3370 N   0  0  0  0  0  0  0  0  0  0  0  0
   57.6040   27.4520   46.9840 C   0  0  0  0  0  0  0  0  0  0  0  0
   57.7240   28.5670   45.9740 C   0  0  0  0  0  0  0  0  0  0  0  0
   56.6370   28.8990   45.1500 C   0  0  0  0  0  0  0  0  0  0  0  0
   56.7490   29.9290   44.2120 C   0  0  0  0  0  0  0  0  0  0  0  0
   57.9580   30.6380   44.0750 C   0  0  0  0  0  0  0  0  0  0  0  0
   58.1270   31.6780   43.1470 O   0  0  0  0  0  0  0  0  0  0  0  0
   57.8120   33.0520   43.3790 C   0  0  0  0  0  0  0  0  0  0  0  0
   58.1940   33.4590   44.7770 C   0  0  0  0  0  0  0  0  0  0  0  0
   59.3720   34.1920   45.0000 C   0  0  0  0  0  0  0  0  0  0  0  0
   59.7350   34.5640   46.2990 C   0  0  0  0  0  0  0  0  0  0  0  0
   58.9310   34.2010   47.3820 C   0  0  0  0  0  0  0  0  0  0  0  0
   57.7650   33.4610   47.1700 C   0  0  0  0  0  0  0  0  0  0  0  0
   57.3970   33.0860   45.8740 C   0  0  0  0  0  0  0  0  0  0  0  0
   59.0420   30.3010   44.8930 C   0  0  0  0  0  0  0  0  0  0  0  0
   58.9300   29.2710   45.8310 C   0  0  0  0  0  0  0  0  0  0  0  0
   54.6892   23.8499   44.9086 H   0  0  0  0  0  0  0  0  0  0  0  0
   55.0368   21.6062   43.8717 H   0  0  0  0  0  0  0  0  0  0  0  0
   57.3372   20.6623   43.6676 H   0  0  0  0  0  0  0  0  0  0  0  0
   59.3016   21.9592   44.5038 H   0  0  0  0  0  0  0  0  0  0  0  0
   56.6105   27.4977   47.4540 H   0  0  0  0  0  0  0  0  0  0  0  0
   58.3937   27.5769   47.7396 H   0  0  0  0  0  0  0  0  0  0  0  0
   55.6913   28.3450   45.2432 H   0  0  0  0  0  0  0  0  0  0  0  0
   55.8883   30.1872   43.5775 H   0  0  0  0  0  0  0  0  0  0  0  0
   58.3627   33.6749   42.6588 H   0  0  0  0  0  0  0  0  0  0  0  0
   56.7279   33.1911   43.2549 H   0  0  0  0  0  0  0  0  0  0  0  0
   60.0110   34.4743   44.1503 H   0  0  0  0  0  0  0  0  0  0  0  0
   60.6549   35.1432   46.4676 H   0  0  0  0  0  0  0  0  0  0  0  0
   59.2159   34.4978   48.4021 H   0  0  0  0  0  0  0  0  0  0  0  0
   57.1350   33.1727   48.0244 H   0  0  0  0  0  0  0  0  0  0  0  0
   56.4817   32.4977   45.7122 H   0  0  0  0  0  0  0  0  0  0  0  0
   59.9898   30.8510   44.7971 H   0  0  0  0  0  0  0  0  0  0  0  0
   59.7928   29.0102   46.4615 H   0  0  0  0  0  0  0  0  0  0  0  0
  1  2  2  0
  2  3  1  0
  3  4  2  0
  4  5  1  0
  5  6  2  0
  6  7  1  0
  7  8  2  0
  8  9  1  0
  9 10  1  0
 10 11  2  0
 10 12  1  0
 12 13  1  0
 13 14  1  0
 14 15  2  0
 15 16  1  0
 16 17  2  0
 17 18  1  0
 18 19  1  0
 19 20  1  0
 20 21  2  0
 21 22  1  0
 22 23  2  0
 23 24  1  0
 24 25  2  0
 17 26  1  0
 26 27  2  0
 12  2  1  0
 27 14  1  0
  8  3  1  0
 25 20  1  0
  4 28  1  0
  5 29  1  0
  6 30  1  0
  7 31  1  0
 13 32  1  0
 13 33  1  0
 15 34  1  0
 16 35  1  0
 19 36  1  0
 19 37  1  0
 21 38  1  0
 22 39  1  0
 23 40  1  0
 24 41  1  0
 25 42  1  0
 26 43  1  0
 27 44  1  0
M  CHG  1   9  -1
M  END
>  <UniqueID>  (76) 
70

>  <SMILES>  (76) 
O=c1c2ccccc2[n-]c(=S)n1Cc1ccc(OCc2ccccc2)cc1

>  <Energy>  (76) 
58.73643977670102

>  <Genealogy>  (76) 
O=c1c2ccccc2[n-]c(=S)n1Cc1ccc(OCc2ccccc2)cc1 (protonated)
O=c1c2ccccc2[n-]c(=S)n1Cc1ccc(OCc2ccccc2)cc1 (3D coordinates assigned)
O=c1c2ccccc2[n-]c(=S)n1Cc1ccc(OCc2ccccc2)cc1 (optimized conformer: 58.73643977670102 kcal/mol)

>  <smiles>  (76) 
O=c1c2ccccc2[nH]c(=S)n1Cc1ccc(OCc2ccccc2)cc1

>  <score_type>  (76) 
oracle

>  <origin>  (76) 
adg

>  <m_score__min__energy>  (76) 
-9.9199999999999999

>  <m_primary>  (76) 
energy

$$$$
76:0
     RDKit          3D

 57 59  0  0  0  0  0  0  0  0999 V2000
   56.2430   24.2970   47.9720 C   0  0  0  0  0  0  0  0  0  0  0  0
   55.7500   24.8710   46.7670 O   0  0  0  0  0  0  0  0  0  0  0  0
   55.9850   24.3520   45.4820 C   0  0  0  0  0  0  0  0  0  0  0  0
   55.4790   23.0980   45.0850 C   0  0  0  0  0  0  0  0  0  0  0  0
   55.7370   22.6040   43.8070 C   0  0  0  0  0  0  0  0  0  0  0  0
   56.5010   23.3480   42.9080 C   0  0  0  0  0  0  0  0  0  0  0  0
   57.0080   24.5920   43.2850 C   0  0  0  0  0  0  0  0  0  0  0  0
   56.7520   25.1130   44.5680 C   0  0  0  0  0  0  0  0  0  0  0  0
   57.2700   26.4120   44.9390 N   0  0  0  0  0  0  0  0  0  0  0  0
   58.7470   26.4010   45.0840 C   0  0  0  0  0  0  0  0  0  0  0  0
   59.3930   27.5630   44.2840 C   0  0  0  0  0  0  0  0  0  0  0  0
   59.6910   28.8130   45.1360 C   0  0  0  0  0  0  0  0  0  0  0  0
   58.7460   28.9210   46.2560 N   0  0  0  0  0  0  0  0  0  0  0  0
   58.7960   30.4910   47.0420 S   0  0  0  0  0  0  0  0  0  0  0  0
   60.2340   30.9070   47.1900 O   0  0  0  0  0  0  0  0  0  0  0  0
   58.2250   30.3320   48.4230 O   0  0  0  0  0  0  0  0  0  0  0  0
   57.9410   31.7840   46.2140 N   0  0  0  0  0  0  0  0  0  0  0  0
   58.4440   33.1190   46.5700 C   0  0  0  0  0  0  0  0  0  0  0  0
   57.5220   34.1950   45.9980 C   0  0  0  0  0  0  0  0  0  0  0  0
   57.3710   34.0870   44.4710 C   0  0  0  0  0  0  0  0  0  0  0  0
   57.9650   32.7970   43.8820 C   0  0  0  0  0  0  0  0  0  0  0  0
   57.7320   31.5400   44.7610 C   0  0  2  0  0  0  0  0  0  0  0  0
   56.3440   30.9060   44.5200 C   0  0  0  0  0  0  0  0  0  0  0  0
   56.3850   29.4230   44.3080 C   0  0  0  0  0  0  0  0  0  0  0  0
   57.0180   28.9390   43.3330 O   0  0  0  0  0  0  0  0  0  0  0  0
   55.7400   28.5720   45.1980 O   0  0  0  0  0  0  0  0  0  0  0  0
   58.8330   27.8070   47.2240 C   0  0  0  0  0  0  0  0  0  0  0  0
   59.1980   26.4660   46.5590 C   0  0  0  0  0  0  0  0  0  0  0  0
   55.7978   24.8154   48.8340 H   0  0  0  0  0  0  0  0  0  0  0  0
   55.9748   23.2308   48.0068 H   0  0  0  0  0  0  0  0  0  0  0  0
   57.3375   24.4011   48.0068 H   0  0  0  0  0  0  0  0  0  0  0  0
   54.8762   22.5048   45.7884 H   0  0  0  0  0  0  0  0  0  0  0  0
   55.3368   21.6244   43.5067 H   0  0  0  0  0  0  0  0  0  0  0  0
   56.7039   22.9538   41.9013 H   0  0  0  0  0  0  0  0  0  0  0  0
   57.6138   25.1716   42.5729 H   0  0  0  0  0  0  0  0  0  0  0  0
   56.9960   27.0890   44.1890 H   0  0  0  0  0  0  0  0  0  0  0  0
   56.8170   26.7490   45.8190 H   0  0  0  0  0  0  0  0  0  0  0  0
   59.0918   25.4409   44.6725 H   0  0  0  0  0  0  0  0  0  0  0  0
   60.3388   27.2035   43.8525 H   0  0  0  0  0  0  0  0  0  0  0  0
   58.6676   27.8648   43.5141 H   0  0  0  0  0  0  0  0  0  0  0  0
   60.7142   28.7425   45.5335 H   0  0  0  0  0  0  0  0  0  0  0  0
   59.5866   29.7048   44.5005 H   0  0  0  0  0  0  0  0  0  0  0  0
   58.4797   33.2146   47.6653 H   0  0  0  0  0  0  0  0  0  0  0  0
   59.4528   33.2481   46.1510 H   0  0  0  0  0  0  0  0  0  0  0  0
   56.5289   34.0909   46.4594 H   0  0  0  0  0  0  0  0  0  0  0  0
   57.9701   35.1743   46.2222 H   0  0  0  0  0  0  0  0  0  0  0  0
   56.2995   34.1203   44.2246 H   0  0  0  0  0  0  0  0  0  0  0  0
   57.9283   34.9277   44.0321 H   0  0  0  0  0  0  0  0  0  0  0  0
   57.5055   32.6217   42.8980 H   0  0  0  0  0  0  0  0  0  0  0  0
   59.0531   32.9458   43.8191 H   0  0  0  0  0  0  0  0  0  0  0  0
   58.5031   30.8247   44.4390 H   0  0  0  0  0  0  0  0  0  0  0  0
   55.7111   31.1138   45.3953 H   0  0  0  0  0  0  0  0  0  0  0  0
   55.9446   31.3507   43.5966 H   0  0  0  0  0  0  0  0  0  0  0  0
   59.6028   28.0499   47.9712 H   0  0  0  0  0  0  0  0  0  0  0  0
   57.8408   27.6895   47.6841 H   0  0  0  0  0  0  0  0  0  0  0  0
   60.2895   26.3359   46.6011 H   0  0  0  0  0  0  0  0  0  0  0  0
   58.6764   25.6666   47.1057 H   0  0  0  0  0  0  0  0  0  0  0  0
  1  2  1  0
  2  3  1  0
  3  4  2  0
  4  5  1  0
  5  6  2  0
  6  7  1  0
  7  8  2  0
  8  9  1  0
  9 10  1  0
 10 11  1  0
 11 12  1  0
 12 13  1  0
 13 14  1  0
 14 15  2  0
 14 16  2  0
 14 17  1  0
 17 18  1  0
 18 19  1  0
 19 20  1  0
 20 21  1  0
 21 22  1  0
 22 23  1  0
 23 24  1  0
 24 25  2  0
 24 26  1  0
 13 27  1  0
 27 28  1  0
  8  3  1  0
 28 10  1  0
 22 17  1  0
  1 29  1  0
  1 30  1  0
  1 31  1  0
  4 32  1  0
  5 33  1  0
  6 34  1  0
  7 35  1  0
  9 36  1  0
  9 37  1  0
 10 38  1  0
 11 39  1  0
 11 40  1  0
 12 41  1  0
 12 42  1  0
 18 43  1  0
 18 44  1  0
 19 45  1  0
 19 46  1  0
 20 47  1  0
 20 48  1  0
 21 49  1  0
 21 50  1  0
 22 51  1  6
 23 52  1  0
 23 53  1  0
 27 54  1  0
 27 55  1  0
 28 56  1  0
 28 57  1  0
M  CHG  2   9   1  26  -1
M  END
>  <UniqueID>  (77) 
71

>  <SMILES>  (77) 
COc1ccccc1[NH2+]C1CCN(S(=O)(=O)N2CCCC[C@@H]2CC(=O)[O-])CC1

>  <Energy>  (77) 
72.95489620765947

>  <Genealogy>  (77) 
COc1ccccc1[NH2+]C1CCN(S(=O)(=O)N2CCCCC2CC(=O)[O-])CC1 (protonated)
COc1ccccc1[NH2+]C1CCN(S(=O)(=O)N2CCCC[C@@H]2CC(=O)[O-])CC1 (chirality)
COc1ccccc1[NH2+]C1CCN(S(=O)(=O)N2CCCC[C@@H]2CC(=O)[O-])CC1 (3D coordinates assigned)
COc1ccccc1[NH2+]C1CCN(S(=O)(=O)N2CCCC[C@@H]2CC(=O)[O-])CC1 (nonaromatic ring conformer: 72.95489620765947 kcal/mol)

>  <smiles>  (77) 
COc1ccccc1NC1CCN(S(=O)(=O)N2CCCCC2CC(=O)O)CC1

>  <score_type>  (77) 
oracle

>  <origin>  (77) 
adg

>  <m_score__min__energy>  (77) 
-7.8600000000000003

>  <m_primary>  (77) 
energy

$$$$
77:0
     RDKit          3D

 44 46  0  0  0  0  0  0  0  0999 V2000
   56.9780   31.4210   42.8210 O   0  0  0  0  0  0  0  0  0  0  0  0
   57.3610   30.8250   43.8650 C   0  0  0  0  0  0  0  0  0  0  0  0
   57.3530   29.3950   43.9090 N   0  0  0  0  0  0  0  0  0  0  0  0
   56.7960   28.6350   45.0190 C   0  0  0  0  0  0  0  0  0  0  0  0
   57.8670   27.7550   45.6140 C   0  0  0  0  0  0  0  0  0  0  0  0
   59.2080   28.1650   45.4780 C   0  0  0  0  0  0  0  0  0  0  0  0
   60.2440   27.4160   46.0360 C   0  0  0  0  0  0  0  0  0  0  0  0
   59.9580   26.2470   46.7380 C   0  0  0  0  0  0  0  0  0  0  0  0
   58.6410   25.8100   46.8660 C   0  0  0  0  0  0  0  0  0  0  0  0
   57.5790   26.5320   46.2870 C   0  0  0  0  0  0  0  0  0  0  0  0
   56.2110   25.9670   46.3990 C   0  0  0  0  0  0  0  0  0  0  0  0
   56.0100   24.8380   46.9180 O   0  0  0  0  0  0  0  0  0  0  0  0
   55.1140   26.7150   45.9830 O   0  0  0  0  0  0  0  0  0  0  0  0
   57.8270   31.6000   45.0370 C   0  0  0  0  0  0  0  0  0  0  0  0
   57.9780   32.9950   44.9610 C   0  0  0  0  0  0  0  0  0  0  0  0
   58.4430   33.7180   46.0640 C   0  0  0  0  0  0  0  0  0  0  0  0
   58.7700   33.0560   47.2500 C   0  0  0  0  0  0  0  0  0  0  0  0
   58.6190   31.6640   47.3460 C   0  0  0  0  0  0  0  0  0  0  0  0
   59.0560   30.8130   48.8300 S   0  0  0  0  0  0  0  0  0  0  0  0
   58.4860   29.4230   48.8240 O   0  0  0  0  0  0  0  0  0  0  0  0
   58.4850   31.5430   50.0130 O   0  0  0  0  0  0  0  0  0  0  0  0
   60.7840   30.7800   49.0020 N   0  0  0  0  0  0  0  0  0  0  0  0
   61.7060   31.8230   48.6500 C   0  0  0  0  0  0  0  0  0  0  0  0
   62.4680   31.6720   47.4850 C   0  0  0  0  0  0  0  0  0  0  0  0
   63.3990   32.6470   47.1120 C   0  0  0  0  0  0  0  0  0  0  0  0
   63.5610   33.7910   47.8930 C   0  0  0  0  0  0  0  0  0  0  0  0
   62.7830   33.9720   49.0390 C   0  0  0  0  0  0  0  0  0  0  0  0
   62.9170   35.0980   49.7830 F   0  0  0  0  0  0  0  0  0  0  0  0
   61.8560   32.9950   49.4190 C   0  0  0  0  0  0  0  0  0  0  0  0
   58.1400   30.9460   46.2430 C   0  0  0  0  0  0  0  0  0  0  0  0
   56.4225   29.3282   45.7871 H   0  0  0  0  0  0  0  0  0  0  0  0
   55.9675   28.0092   44.6556 H   0  0  0  0  0  0  0  0  0  0  0  0
   59.4409   29.0870   44.9251 H   0  0  0  0  0  0  0  0  0  0  0  0
   61.2864   27.7482   45.9218 H   0  0  0  0  0  0  0  0  0  0  0  0
   60.7746   25.6670   47.1928 H   0  0  0  0  0  0  0  0  0  0  0  0
   58.4277   24.8882   47.4271 H   0  0  0  0  0  0  0  0  0  0  0  0
   57.7289   33.5216   44.0280 H   0  0  0  0  0  0  0  0  0  0  0  0
   58.5516   34.8106   45.9976 H   0  0  0  0  0  0  0  0  0  0  0  0
   59.1469   33.6274   48.1111 H   0  0  0  0  0  0  0  0  0  0  0  0
   62.3333   30.7786   46.8575 H   0  0  0  0  0  0  0  0  0  0  0  0
   64.0032   32.5115   46.2029 H   0  0  0  0  0  0  0  0  0  0  0  0
   64.3022   34.5516   47.6063 H   0  0  0  0  0  0  0  0  0  0  0  0
   61.2427   33.1419   50.3202 H   0  0  0  0  0  0  0  0  0  0  0  0
   58.0068   29.8568   46.3204 H   0  0  0  0  0  0  0  0  0  0  0  0
  1  2  2  0
  2  3  1  0
  3  4  1  0
  4  5  1  0
  5  6  2  0
  6  7  1  0
  7  8  2  0
  8  9  1  0
  9 10  2  0
 10 11  1  0
 11 12  2  0
 11 13  1  0
  2 14  1  0
 14 15  2  0
 15 16  1  0
 16 17  2  0
 17 18  1  0
 18 19  1  0
 19 20  2  0
 19 21  2  0
 19 22  1  0
 22 23  1  0
 23 24  2  0
 24 25  1  0
 25 26  2  0
 26 27  1  0
 27 28  1  0
 27 29  2  0
 18 30  2  0
 10  5  1  0
 30 14  1  0
 29 23  1  0
  4 31  1  0
  4 32  1  0
  6 33  1  0
  7 34  1  0
  8 35  1  0
  9 36  1  0
 15 37  1  0
 16 38  1  0
 17 39  1  0
 24 40  1  0
 25 41  1  0
 26 42  1  0
 29 43  1  0
 30 44  1  0
M  CHG  3   3  -1  13  -1  22  -1
M  END
>  <UniqueID>  (78) 
72

>  <SMILES>  (78) 
O=C([N-]Cc1ccccc1C(=O)[O-])c1cccc(S(=O)(=O)[N-]c2cccc(F)c2)c1

>  <Energy>  (78) 
52.59766617341026

>  <Genealogy>  (78) 
O=C([N-]Cc1ccccc1C(=O)[O-])c1cccc(S(=O)(=O)[N-]c2cccc(F)c2)c1 (protonated)
O=C([N-]Cc1ccccc1C(=O)[O-])c1cccc(S(=O)(=O)[N-]c2cccc(F)c2)c1 (3D coordinates assigned)
O=C([N-]Cc1ccccc1C(=O)[O-])c1cccc(S(=O)(=O)[N-]c2cccc(F)c2)c1 (optimized conformer: 52.59766617341026 kcal/mol)

>  <smiles>  (78) 
O=C(NCc1ccccc1C(=O)O)c1cccc(S(=O)(=O)Nc2cccc(F)c2)c1

>  <score_type>  (78) 
oracle

>  <origin>  (78) 
adg

>  <m_score__min__energy>  (78) 
-15.34

>  <m_primary>  (78) 
energy

$$$$
78:0
     RDKit          3D

 55 58  0  0  0  0  0  0  0  0999 V2000
   54.2300   25.9640   45.7390 N   0  0  0  0  0  0  0  0  0  0  0  0
   55.2560   24.5770   45.8110 S   0  0  0  0  0  0  0  0  0  0  0  0
   54.9810   23.8280   47.0850 O   0  0  0  0  0  0  0  0  0  0  0  0
   54.9660   23.6760   44.6440 O   0  0  0  0  0  0  0  0  0  0  0  0
   56.9410   25.0870   45.7510 C   0  0  0  0  0  0  0  0  0  0  0  0
   57.9250   24.2840   46.3350 C   0  0  0  0  0  0  0  0  0  0  0  0
   59.2630   24.6750   46.2950 C   0  0  0  0  0  0  0  0  0  0  0  0
   59.6280   25.8710   45.6720 C   0  0  0  0  0  0  0  0  0  0  0  0
   58.6580   26.6850   45.0740 C   0  0  0  0  0  0  0  0  0  0  0  0
   59.0530   27.9440   44.4960 N   0  0  0  0  0  0  0  0  0  0  0  0
   58.2970   29.1590   44.6140 C   0  0  0  0  0  0  0  0  0  0  0  0
   56.9380   29.2010   44.2810 C   0  0  0  0  0  0  0  0  0  0  0  0
   56.2560   30.4140   44.4130 C   0  0  0  0  0  0  0  0  0  0  0  0
   55.0280   30.4840   44.1420 O   0  0  0  0  0  0  0  0  0  0  0  0
   56.9180   31.5190   44.8440 N   0  0  0  0  0  0  0  0  0  0  0  0
   58.2440   31.4740   45.1470 C   0  0  0  0  0  0  0  0  0  0  0  0
   58.9460   32.6850   45.6400 C   0  0  0  0  0  0  0  0  0  0  0  0
   58.5870   33.9600   45.1720 C   0  0  0  0  0  0  0  0  0  0  0  0
   59.2710   35.0960   45.6080 C   0  0  0  0  0  0  0  0  0  0  0  0
   60.3220   34.9770   46.5140 C   0  0  0  0  0  0  0  0  0  0  0  0
   60.6930   33.7110   47.0070 C   0  0  0  0  0  0  0  0  0  0  0  0
   61.7460   33.5280   47.9190 O   0  0  0  0  0  0  0  0  0  0  0  0
   61.6250   33.5280   49.3410 C   0  0  0  0  0  0  0  0  0  0  0  0
   60.1880   33.6270   49.7440 C   0  0  0  0  0  0  0  0  0  0  0  0
   59.5590   34.7060   49.5620 O   0  0  0  0  0  0  0  0  0  0  0  0
   59.5460   32.5090   50.3590 N   0  0  0  0  0  0  0  0  0  0  0  0
   58.5660   31.6800   49.6770 C   0  0  0  0  0  0  0  0  0  0  0  0
   59.1900   30.3620   49.3280 C   0  0  0  0  0  0  0  0  0  0  0  0
   58.8680   29.7360   48.1160 C   0  0  0  0  0  0  0  0  0  0  0  0
   59.4300   28.4940   47.8130 C   0  0  0  0  0  0  0  0  0  0  0  0
   60.2770   27.8960   48.6890 N   0  0  0  0  0  0  0  0  0  0  0  0
   60.5990   28.4760   49.8740 C   0  0  0  0  0  0  0  0  0  0  0  0
   60.0590   29.7180   50.2170 C   0  0  0  0  0  0  0  0  0  0  0  0
   59.9990   32.5760   46.5670 C   0  0  0  0  0  0  0  0  0  0  0  0
   58.9180   30.2970   45.0210 N   0  0  0  0  0  0  0  0  0  0  0  0
   57.3070   26.2870   45.1250 C   0  0  0  0  0  0  0  0  0  0  0  0
   54.7650   26.7170   45.2610 H   0  0  0  0  0  0  0  0  0  0  0  0
   57.6432   23.3415   46.8272 H   0  0  0  0  0  0  0  0  0  0  0  0
   60.0337   24.0395   46.7556 H   0  0  0  0  0  0  0  0  0  0  0  0
   60.6848   26.1755   45.6510 H   0  0  0  0  0  0  0  0  0  0  0  0
   60.0000   28.0130   44.0640 H   0  0  0  0  0  0  0  0  0  0  0  0
   56.4185   28.2997   43.9235 H   0  0  0  0  0  0  0  0  0  0  0  0
   57.7591   34.0641   44.4552 H   0  0  0  0  0  0  0  0  0  0  0  0
   58.9789   36.0886   45.2347 H   0  0  0  0  0  0  0  0  0  0  0  0
   60.8642   35.8748   46.8456 H   0  0  0  0  0  0  0  0  0  0  0  0
   62.0497   32.5952   49.7405 H   0  0  0  0  0  0  0  0  0  0  0  0
   62.1684   34.3951   49.7445 H   0  0  0  0  0  0  0  0  0  0  0  0
   57.7017   31.5143   50.3369 H   0  0  0  0  0  0  0  0  0  0  0  0
   58.2314   32.1844   48.7585 H   0  0  0  0  0  0  0  0  0  0  0  0
   58.1778   30.2193   47.4088 H   0  0  0  0  0  0  0  0  0  0  0  0
   59.1856   27.9989   46.8616 H   0  0  0  0  0  0  0  0  0  0  0  0
   61.2865   27.9667   50.5653 H   0  0  0  0  0  0  0  0  0  0  0  0
   60.3148   30.1866   51.1788 H   0  0  0  0  0  0  0  0  0  0  0  0
   60.2816   31.5851   46.9520 H   0  0  0  0  0  0  0  0  0  0  0  0
   56.5334   26.9230   44.6700 H   0  0  0  0  0  0  0  0  0  0  0  0
  1  2  1  0
  2  3  2  0
  2  4  2  0
  2  5  1  0
  5  6  2  0
  6  7  1  0
  7  8  2  0
  8  9  1  0
  9 10  1  0
 10 11  1  0
 11 12  2  0
 12 13  1  0
 13 14  2  0
 13 15  1  0
 15 16  2  0
 16 17  1  0
 17 18  2  0
 18 19  1  0
 19 20  2  0
 20 21  1  0
 21 22  1  0
 22 23  1  0
 23 24  1  0
 24 25  2  0
 24 26  1  0
 26 27  1  0
 27 28  1  0
 28 29  2  0
 29 30  1  0
 30 31  2  0
 31 32  1  0
 32 33  2  0
 21 34  2  0
 16 35  1  0
  9 36  2  0
 36  5  1  0
 35 11  1  0
 34 17  1  0
 33 28  1  0
  1 37  1  0
  6 38  1  0
  7 39  1  0
  8 40  1  0
 10 41  1  0
 12 42  1  0
 18 43  1  0
 19 44  1  0
 20 45  1  0
 23 46  1  0
 23 47  1  0
 27 48  1  0
 27 49  1  0
 29 50  1  0
 30 51  1  0
 32 52  1  0
 33 53  1  0
 34 54  1  0
 36 55  1  0
M  CHG  3   1  -1  26  -1  35  -1
M  END
>  <UniqueID>  (79) 
73

>  <SMILES>  (79) 
[NH-]S(=O)(=O)c1cccc(Nc2cc(=O)nc(-c3cccc(OCC(=O)[N-]Cc4ccncc4)c3)[n-]2)c1

>  <Energy>  (79) 
65.02451119712774

>  <Genealogy>  (79) 
[NH-]S(=O)(=O)c1cccc(Nc2cc(=O)nc(-c3cccc(OCC(=O)[N-]Cc4ccncc4)c3)[n-]2)c1 (protonated)
[NH-]S(=O)(=O)c1cccc(Nc2cc(=O)nc(-c3cccc(OCC(=O)[N-]Cc4ccncc4)c3)[n-]2)c1 (3D coordinates assigned)
[NH-]S(=O)(=O)c1cccc(Nc2cc(=O)nc(-c3cccc(OCC(=O)[N-]Cc4ccncc4)c3)[n-]2)c1 (optimized conformer: 65.02451119712774 kcal/mol)

>  <smiles>  (79) 
NS(=O)(=O)c1cccc(Nc2cc(=O)nc(-c3cccc(OCC(=O)NCc4ccncc4)c3)[nH]2)c1

>  <score_type>  (79) 
oracle

>  <origin>  (79) 
adg

>  <m_score__min__energy>  (79) 
-15.869999999999999

>  <m_primary>  (79) 
energy

$$$$
79:0
     RDKit          3D

 50 53  0  0  0  0  0  0  0  0999 V2000
   55.5400   27.0500   45.6220 N   0  0  0  0  0  0  0  0  0  0  0  0
   57.1630   27.6340   45.7240 S   0  0  0  0  0  0  0  0  0  0  0  0
   57.5220   27.8350   47.1700 O   0  0  0  0  0  0  0  0  0  0  0  0
   58.1050   26.6200   45.1380 O   0  0  0  0  0  0  0  0  0  0  0  0
   57.2980   29.1680   44.8490 C   0  0  0  0  0  0  0  0  0  0  0  0
   56.6000   29.3240   43.6400 C   0  0  0  0  0  0  0  0  0  0  0  0
   56.6500   30.5310   42.9410 C   0  0  0  0  0  0  0  0  0  0  0  0
   57.3950   31.5990   43.4400 C   0  0  0  0  0  0  0  0  0  0  0  0
   58.1030   31.4590   44.6350 C   0  0  0  0  0  0  0  0  0  0  0  0
   58.0740   30.2470   45.3430 C   0  0  0  0  0  0  0  0  0  0  0  0
   58.8560   30.1400   46.5880 C   0  0  0  0  0  0  0  0  0  0  0  0
   58.5480   30.9590   47.6820 C   0  0  0  0  0  0  0  0  0  0  0  0
   59.2690   30.8420   48.8720 C   0  0  0  0  0  0  0  0  0  0  0  0
   60.3110   29.9030   48.9860 C   0  0  0  0  0  0  0  0  0  0  0  0
   61.0710   29.7570   50.2500 C   0  0  0  0  0  0  0  0  0  0  0  0
   61.3490   28.6040   50.6730 O   0  0  0  0  0  0  0  0  0  0  0  0
   61.5450   30.8910   50.9890 N   0  0  0  0  0  0  0  0  0  0  0  0
   62.6200   31.7630   50.6040 C   0  0  0  0  0  0  0  0  0  0  0  0
   63.9300   31.2750   50.4450 C   0  0  0  0  0  0  0  0  0  0  0  0
   64.9640   32.1370   50.0710 C   0  0  0  0  0  0  0  0  0  0  0  0
   64.6990   33.4880   49.8360 C   0  0  0  0  0  0  0  0  0  0  0  0
   63.3970   33.9770   49.9680 C   0  0  0  0  0  0  0  0  0  0  0  0
   62.3550   33.1210   50.3460 C   0  0  0  0  0  0  0  0  0  0  0  0
   60.6920   33.7870   50.5050 S   0  0  0  0  0  0  0  0  0  0  0  0
   60.4490   33.8870   48.7310 C   0  0  0  0  0  0  0  0  0  0  0  0
   61.3740   33.2970   47.8590 C   0  0  0  0  0  0  0  0  0  0  0  0
   61.1890   33.3880   46.4750 C   0  0  0  0  0  0  0  0  0  0  0  0
   60.0790   34.0640   45.9610 C   0  0  0  0  0  0  0  0  0  0  0  0
   59.1480   34.6430   46.8290 C   0  0  0  0  0  0  0  0  0  0  0  0
   59.3310   34.5520   48.2120 C   0  0  0  0  0  0  0  0  0  0  0  0
   60.6400   29.1120   47.8720 C   0  0  0  0  0  0  0  0  0  0  0  0
   59.9150   29.2280   46.6830 C   0  0  0  0  0  0  0  0  0  0  0  0
   55.1420   27.0840   46.5870 H   0  0  0  0  0  0  0  0  0  0  0  0
   56.0085   28.4871   43.2404 H   0  0  0  0  0  0  0  0  0  0  0  0
   56.1005   30.6401   41.9943 H   0  0  0  0  0  0  0  0  0  0  0  0
   57.4248   32.5522   42.8918 H   0  0  0  0  0  0  0  0  0  0  0  0
   58.6882   32.3049   45.0249 H   0  0  0  0  0  0  0  0  0  0  0  0
   57.7357   31.6965   47.6033 H   0  0  0  0  0  0  0  0  0  0  0  0
   59.0207   31.4885   49.7266 H   0  0  0  0  0  0  0  0  0  0  0  0
   64.1413   30.2091   50.6161 H   0  0  0  0  0  0  0  0  0  0  0  0
   65.9882   31.7511   49.9615 H   0  0  0  0  0  0  0  0  0  0  0  0
   65.5150   34.1667   49.5471 H   0  0  0  0  0  0  0  0  0  0  0  0
   63.1892   35.0397   49.7741 H   0  0  0  0  0  0  0  0  0  0  0  0
   62.2461   32.7620   48.2629 H   0  0  0  0  0  0  0  0  0  0  0  0
   61.9174   32.9274   45.7914 H   0  0  0  0  0  0  0  0  0  0  0  0
   59.9376   34.1407   44.8728 H   0  0  0  0  0  0  0  0  0  0  0  0
   58.2717   35.1700   46.4236 H   0  0  0  0  0  0  0  0  0  0  0  0
   58.5954   35.0036   48.8939 H   0  0  0  0  0  0  0  0  0  0  0  0
   61.4735   28.3970   47.9364 H   0  0  0  0  0  0  0  0  0  0  0  0
   60.1769   28.6007   45.8182 H   0  0  0  0  0  0  0  0  0  0  0  0
  1  2  1  0
  2  3  2  0
  2  4  2  0
  2  5  1  0
  5  6  2  0
  6  7  1  0
  7  8  2  0
  8  9  1  0
  9 10  2  0
 10 11  1  0
 11 12  2  0
 12 13  1  0
 13 14  2  0
 14 15  1  0
 15 16  2  0
 15 17  1  0
 17 18  1  0
 18 19  2  0
 19 20  1  0
 20 21  2  0
 21 22  1  0
 22 23  2  0
 23 24  1  0
 24 25  1  0
 25 26  2  0
 26 27  1  0
 27 28  2  0
 28 29  1  0
 29 30  2  0
 14 31  1  0
 31 32  2  0
 10  5  1  0
 32 11  1  0
 23 18  1  0
 30 25  1  0
  1 33  1  0
  6 34  1  0
  7 35  1  0
  8 36  1  0
  9 37  1  0
 12 38  1  0
 13 39  1  0
 19 40  1  0
 20 41  1  0
 21 42  1  0
 22 43  1  0
 26 44  1  0
 27 45  1  0
 28 46  1  0
 29 47  1  0
 30 48  1  0
 31 49  1  0
 32 50  1  0
M  CHG  2   1  -1  17  -1
M  END
>  <UniqueID>  (80) 
74

>  <SMILES>  (80) 
[NH-]S(=O)(=O)c1ccccc1-c1ccc(C(=O)[N-]c2ccccc2Sc2ccccc2)cc1

>  <Energy>  (80) 
63.97329498847019

>  <Genealogy>  (80) 
[NH-]S(=O)(=O)c1ccccc1-c1ccc(C(=O)[N-]c2ccccc2Sc2ccccc2)cc1 (protonated)
[NH-]S(=O)(=O)c1ccccc1-c1ccc(C(=O)[N-]c2ccccc2Sc2ccccc2)cc1 (3D coordinates assigned)
[NH-]S(=O)(=O)c1ccccc1-c1ccc(C(=O)[N-]c2ccccc2Sc2ccccc2)cc1 (optimized conformer: 63.97329498847019 kcal/mol)

>  <smiles>  (80) 
NS(=O)(=O)c1ccccc1-c1ccc(C(=O)Nc2ccccc2Sc2ccccc2)cc1

>  <score_type>  (80) 
oracle

>  <origin>  (80) 
adg

>  <m_score__min__energy>  (80) 
-14

>  <m_primary>  (80) 
energy

$$$$
80:0
     RDKit          3D

 45 47  0  0  0  0  0  0  0  0999 V2000
   58.9420   29.6200   51.7910 C   0  0  0  0  0  0  0  0  0  0  0  0
   58.8440   30.4360   50.5870 N   0  0  0  0  0  0  0  0  0  0  0  0
   59.3720   29.9880   49.3290 C   0  0  0  0  0  0  0  0  0  0  0  0
   60.0570   28.9280   49.2860 O   0  0  0  0  0  0  0  0  0  0  0  0
   59.1450   30.7570   48.0820 C   0  0  0  0  0  0  0  0  0  0  0  0
   58.2250   30.3160   47.1150 C   0  0  0  0  0  0  0  0  0  0  0  0
   58.0070   31.0510   45.9460 C   0  0  0  0  0  0  0  0  0  0  0  0
   57.0470   30.5670   44.9940 N   0  0  0  0  0  0  0  0  0  0  0  0
   56.3480   29.3160   45.0510 C   0  0  0  0  0  0  0  0  0  0  0  0
   55.1130   29.3020   44.8050 O   0  0  0  0  0  0  0  0  0  0  0  0
   57.0290   28.0460   45.3650 C   0  0  0  0  0  0  0  0  0  0  0  0
   58.6940   27.8050   45.2570 S   0  0  0  0  0  0  0  0  0  0  0  0
   58.5900   26.1920   45.7110 C   0  0  0  0  0  0  0  0  0  0  0  0
   59.5840   25.4270   45.8260 O   0  0  0  0  0  0  0  0  0  0  0  0
   57.3130   25.8130   45.9620 N   0  0  0  0  0  0  0  0  0  0  0  0
   56.9210   24.4860   46.3570 C   0  0  0  0  0  0  0  0  0  0  0  0
   57.1030   23.4000   45.4830 C   0  0  0  0  0  0  0  0  0  0  0  0
   56.7270   22.1110   45.8720 C   0  0  0  0  0  0  0  0  0  0  0  0
   56.1670   21.8950   47.1350 C   0  0  0  0  0  0  0  0  0  0  0  0
   55.9830   22.9690   48.0100 C   0  0  0  0  0  0  0  0  0  0  0  0
   56.3570   24.2600   47.6240 C   0  0  0  0  0  0  0  0  0  0  0  0
   56.4410   26.8480   45.7810 C   0  0  0  0  0  0  0  0  0  0  0  0
   55.0730   26.7140   46.0000 O   0  0  0  0  0  0  0  0  0  0  0  0
   58.7560   32.2160   45.7110 C   0  0  0  0  0  0  0  0  0  0  0  0
   59.6770   32.6780   46.6640 C   0  0  0  0  0  0  0  0  0  0  0  0
   60.4220   33.9350   46.4280 C   0  0  0  0  0  0  0  0  0  0  0  0
   59.8440   35.0500   46.5560 O   0  0  0  0  0  0  0  0  0  0  0  0
   61.7690   33.8850   46.0510 O   0  0  0  0  0  0  0  0  0  0  0  0
   62.8050   33.5040   46.9480 C   0  0  0  0  0  0  0  0  0  0  0  0
   59.8680   31.9400   47.8450 C   0  0  0  0  0  0  0  0  0  0  0  0
   58.8645   30.2652   52.6785 H   0  0  0  0  0  0  0  0  0  0  0  0
   58.1260   28.8824   51.8015 H   0  0  0  0  0  0  0  0  0  0  0  0
   59.9095   29.0966   51.8015 H   0  0  0  0  0  0  0  0  0  0  0  0
   58.4180   31.3860   50.6710 H   0  0  0  0  0  0  0  0  0  0  0  0
   57.6697   29.3809   47.2802 H   0  0  0  0  0  0  0  0  0  0  0  0
   57.5432   23.5653   44.4886 H   0  0  0  0  0  0  0  0  0  0  0  0
   56.8719   21.2654   45.1836 H   0  0  0  0  0  0  0  0  0  0  0  0
   55.8715   20.8802   47.4396 H   0  0  0  0  0  0  0  0  0  0  0  0
   55.5433   22.7986   49.0038 H   0  0  0  0  0  0  0  0  0  0  0  0
   56.2090   25.1026   48.3155 H   0  0  0  0  0  0  0  0  0  0  0  0
   58.6194   32.7713   44.7713 H   0  0  0  0  0  0  0  0  0  0  0  0
   62.4582   33.6315   47.9841 H   0  0  0  0  0  0  0  0  0  0  0  0
   63.0690   32.4500   46.7768 H   0  0  0  0  0  0  0  0  0  0  0  0
   63.6890   34.1359   46.7768 H   0  0  0  0  0  0  0  0  0  0  0  0
   60.5926   32.2924   48.5939 H   0  0  0  0  0  0  0  0  0  0  0  0
  1  2  1  0
  2  3  1  0
  3  4  2  0
  3  5  1  0
  5  6  2  0
  6  7  1  0
  7  8  1  0
  8  9  1  0
  9 10  2  0
  9 11  1  0
 11 12  1  0
 12 13  1  0
 13 14  2  0
 13 15  1  0
 15 16  1  0
 16 17  2  0
 17 18  1  0
 18 19  2  0
 19 20  1  0
 20 21  2  0
 15 22  1  0
 22 23  1  0
  7 24  2  0
 24 25  1  0
 25 26  1  0
 26 27  2  0
 26 28  1  0
 28 29  1  0
 25 30  2  0
 30  5  1  0
 22 11  2  0
 21 16  1  0
  1 31  1  0
  1 32  1  0
  1 33  1  0
  2 34  1  0
  6 35  1  0
 17 36  1  0
 18 37  1  0
 19 38  1  0
 20 39  1  0
 21 40  1  0
 24 41  1  0
 29 42  1  0
 29 43  1  0
 29 44  1  0
 30 45  1  0
M  CHG  2   8  -1  23  -1
M  END
>  <UniqueID>  (81) 
75

>  <SMILES>  (81) 
CNC(=O)c1cc([N-]C(=O)c2sc(=O)n(-c3ccccc3)c2[O-])cc(C(=O)OC)c1

>  <Energy>  (81) 
88.99369623234722

>  <Genealogy>  (81) 
CNC(=O)c1cc([N-]C(=O)c2sc(=O)n(-c3ccccc3)c2[O-])cc(C(=O)OC)c1 (protonated)
CNC(=O)c1cc([N-]C(=O)c2sc(=O)n(-c3ccccc3)c2[O-])cc(C(=O)OC)c1 (3D coordinates assigned)
CNC(=O)c1cc([N-]C(=O)c2sc(=O)n(-c3ccccc3)c2[O-])cc(C(=O)OC)c1 (optimized conformer: 88.99369623234722 kcal/mol)

>  <smiles>  (81) 
CNC(=O)c1cc(NC(=O)c2sc(=O)n(-c3ccccc3)c2O)cc(C(=O)OC)c1

>  <score_type>  (81) 
oracle

>  <origin>  (81) 
adg

>  <m_score__min__energy>  (81) 
-12.74

>  <m_primary>  (81) 
energy

$$$$
81:0
     RDKit          3D

 45 47  0  0  0  0  0  0  0  0999 V2000
   55.1320   27.4630   46.7180 H   0  0  0  0  0  0  0  0  0  0  0  0
   55.1580   26.6630   46.0990 O   0  0  0  0  0  0  0  0  0  0  0  0
   55.9840   25.5790   46.3760 C   0  0  0  0  0  0  0  0  0  0  0  0
   55.8570   24.8050   47.4670 N   0  0  0  0  0  0  0  0  0  0  0  0
   56.8090   23.8670   47.2770 C   0  0  0  0  0  0  0  0  0  0  0  0
   57.0130   22.9320   48.0950 O   0  0  0  0  0  0  0  0  0  0  0  0
   57.5200   24.0040   46.1370 N   0  0  0  0  0  0  0  0  0  0  0  0
   57.0060   25.1130   45.5770 C   0  0  0  0  0  0  0  0  0  0  0  0
   57.4180   25.6130   44.2540 C   0  0  0  0  0  0  0  0  0  0  0  0
   57.1451   25.0074   43.3772 H   0  0  0  0  0  0  0  0  0  0  0  0
   58.0990   26.7470   44.0320 C   0  0  0  0  0  0  0  0  0  0  0  0
   58.3015   27.0173   42.9851 H   0  0  0  0  0  0  0  0  0  0  0  0
   58.6100   27.6820   45.0990 C   0  0  0  0  0  0  0  0  0  0  0  0
   59.6933   27.5333   45.2189 H   0  0  0  0  0  0  0  0  0  0  0  0
   58.0843   27.4612   46.0397 H   0  0  0  0  0  0  0  0  0  0  0  0
   58.3420   29.1510   44.7200 C   0  0  2  0  0  0  0  0  0  0  0  0
   59.0100   29.4232   43.8896 H   0  0  0  0  0  0  0  0  0  0  0  0
   58.6380   30.0330   45.8640 N   0  0  0  0  0  0  0  0  0  0  0  0
   57.9570   29.8270   46.6300 H   0  0  0  0  0  0  0  0  0  0  0  0
   58.5500   31.4550   45.4860 C   0  0  2  0  0  0  0  0  0  0  0  0
   59.2825   31.6605   44.6915 H   0  0  0  0  0  0  0  0  0  0  0  0
   58.9500   32.3700   46.6720 C   0  0  0  0  0  0  0  0  0  0  0  0
   58.5285   33.3701   46.4928 H   0  0  0  0  0  0  0  0  0  0  0  0
   58.5547   31.8960   47.5825 H   0  0  0  0  0  0  0  0  0  0  0  0
   60.4430   32.5140   46.8720 C   0  0  0  0  0  0  0  0  0  0  0  0
   61.0850   33.7250   46.5610 C   0  0  0  0  0  0  0  0  0  0  0  0
   60.4982   34.5725   46.1772 H   0  0  0  0  0  0  0  0  0  0  0  0
   62.4660   33.8580   46.7370 C   0  0  0  0  0  0  0  0  0  0  0  0
   62.9629   34.8057   46.4823 H   0  0  0  0  0  0  0  0  0  0  0  0
   63.2150   32.7910   47.2350 C   0  0  0  0  0  0  0  0  0  0  0  0
   64.3017   32.8967   47.3686 H   0  0  0  0  0  0  0  0  0  0  0  0
   62.5840   31.5880   47.5640 C   0  0  0  0  0  0  0  0  0  0  0  0
   63.1741   30.7493   47.9620 H   0  0  0  0  0  0  0  0  0  0  0  0
   61.2040   31.4490   47.3880 C   0  0  0  0  0  0  0  0  0  0  0  0
   60.7108   30.5025   47.6542 H   0  0  0  0  0  0  0  0  0  0  0  0
   57.1960   31.7790   44.8810 C   0  0  0  0  0  0  0  0  0  0  0  0
   56.6770   32.8710   45.0610 O   0  0  0  0  0  0  0  0  0  0  0  0
   56.5740   30.8280   43.8850 C   0  0  1  0  0  0  0  0  0  0  0  0
   55.4821   30.9471   43.9454 H   0  0  0  0  0  0  0  0  0  0  0  0
   56.9950   31.1470   42.5820 O   0  0  0  0  0  0  0  0  0  0  0  0
   57.7320   30.5280   42.3380 H   0  0  0  0  0  0  0  0  0  0  0  0
   56.8830   29.3460   44.2220 C   0  0  2  0  0  0  0  0  0  0  0  0
   56.7843   28.7749   43.2871 H   0  0  0  0  0  0  0  0  0  0  0  0
   55.9530   28.8300   45.1480 O   0  0  0  0  0  0  0  0  0  0  0  0
   55.9010   27.8470   45.0250 H   0  0  0  0  0  0  0  0  0  0  0  0
  1  2  1  0
  2  3  1  0
  3  4  1  0
  4  5  1  0
  5  6  2  0
  5  7  1  0
  7  8  1  0
  8  9  1  0
  9 10  1  0
  9 11  2  0
 11 12  1  0
 11 13  1  0
 13 14  1  0
 13 15  1  0
 13 16  1  0
 16 17  1  6
 16 18  1  0
 18 19  1  0
 18 20  1  0
 20 21  1  6
 20 22  1  0
 22 23  1  0
 22 24  1  0
 22 25  1  0
 25 26  2  0
 26 27  1  0
 26 28  1  0
 28 29  1  0
 28 30  2  0
 30 31  1  0
 30 32  1  0
 32 33  1  0
 32 34  2  0
 34 35  1  0
 20 36  1  0
 36 37  2  0
 36 38  1  0
 38 39  1  6
 38 40  1  0
 40 41  1  0
 38 42  1  0
 42 43  1  6
 42 44  1  0
 44 45  1  0
  8  3  2  0
 42 16  1  0
 34 25  1  0
M  CHG  2   4  -1   7  -1
M  END
>  <UniqueID>  (82) 
76

>  <SMILES>  (82) 
O=C1C(O)C(O)[C@H](C/C=C\c2[n-]c(=O)[n-]c2O)N[C@@H]1Cc1ccccc1

>  <Energy>  (82) 
85.0397465679297

>  <Genealogy>  (82) 
O=C1C(Cc2ccccc2)NC(CC=Cc2[n-]c(=O)[n-]c2O)C(O)C1O (protonated)
O=C1C(O)C(O)[C@H](CC=Cc2[n-]c(=O)[n-]c2O)N[C@@H]1Cc1ccccc1 (chirality)
O=C1C(O)C(O)[C@H](C/C=C\c2[n-]c(=O)[n-]c2O)N[C@@H]1Cc1ccccc1 (cis-trans isomerization)
O=C1C(O)C(O)[C@H](C/C=C\c2[n-]c(=O)[n-]c2O)N[C@@H]1Cc1ccccc1 (3D coordinates assigned)
O=C1C(O)C(O)[C@H](C/C=C\c2[n-]c(=O)[n-]c2O)N[C@@H]1Cc1ccccc1 (nonaromatic ring conformer: 85.0397465679297 kcal/mol)

>  <smiles>  (82) 
O=C1C(Cc2ccccc2)NC(CC=Cc2[nH]c(=O)[nH]c2O)C(O)C1O

>  <score_type>  (82) 
oracle

>  <origin>  (82) 
adg

>  <m_score__min__energy>  (82) 
-13.380000000000001

>  <m_primary>  (82) 
energy

$$$$
82:0
     RDKit          3D

 47 49  0  0  0  0  0  0  0  0999 V2000
   54.4680   29.3510   43.4730 O   0  0  0  0  0  0  0  0  0  0  0  0
   55.5170   29.6590   44.0980 C   0  0  0  0  0  0  0  0  0  0  0  0
   56.3000   30.8640   43.6570 C   0  0  0  0  0  0  0  0  0  0  0  0
   56.9850   31.4660   44.7970 N   0  0  0  0  0  0  0  0  0  0  0  0
   57.9020   32.5620   44.6480 C   0  0  0  0  0  0  0  0  0  0  0  0
   58.2570   32.9280   43.4940 O   0  0  0  0  0  0  0  0  0  0  0  0
   58.4620   33.2520   45.8310 C   0  0  0  0  0  0  0  0  0  0  0  0
   58.3860   32.6370   47.0940 C   0  0  0  0  0  0  0  0  0  0  0  0
   58.9040   33.2730   48.2250 C   0  0  0  0  0  0  0  0  0  0  0  0
   59.5140   34.5240   48.1080 C   0  0  0  0  0  0  0  0  0  0  0  0
   59.6150   35.1360   46.8570 C   0  0  0  0  0  0  0  0  0  0  0  0
   59.0970   34.5070   45.7190 C   0  0  0  0  0  0  0  0  0  0  0  0
   59.2620   35.1050   44.5110 F   0  0  0  0  0  0  0  0  0  0  0  0
   55.8930   28.8810   45.2420 N   0  0  0  0  0  0  0  0  0  0  0  0
   57.1770   28.2830   45.4660 C   0  0  0  0  0  0  0  0  0  0  0  0
   58.3010   29.1170   45.4850 C   0  0  0  0  0  0  0  0  0  0  0  0
   59.5800   28.5800   45.6430 C   0  0  0  0  0  0  0  0  0  0  0  0
   59.7460   27.2020   45.7900 C   0  0  0  0  0  0  0  0  0  0  0  0
   58.6310   26.3610   45.8060 C   0  0  0  0  0  0  0  0  0  0  0  0
   57.3360   26.8900   45.6740 C   0  0  0  0  0  0  0  0  0  0  0  0
   56.1800   25.9720   45.7780 C   0  0  0  0  0  0  0  0  0  0  0  0
   55.1370   26.3790   46.3560 O   0  0  0  0  0  0  0  0  0  0  0  0
   56.2080   24.6490   45.2020 N   0  0  0  0  0  0  0  0  0  0  0  0
   57.1110   24.3150   44.0940 C   0  0  0  0  0  0  0  0  0  0  0  0
   56.4130   23.3470   43.1360 C   0  0  0  0  0  0  0  0  0  0  0  0
   55.9010   22.2280   43.8350 O   0  0  0  0  0  0  0  0  0  0  0  0
   54.8800   22.6440   44.7220 C   0  0  0  0  0  0  0  0  0  0  0  0
   55.4470   23.5550   45.8150 C   0  0  0  0  0  0  0  0  0  0  0  0
   57.0437   30.5590   42.9061 H   0  0  0  0  0  0  0  0  0  0  0  0
   55.6088   31.6018   43.2235 H   0  0  0  0  0  0  0  0  0  0  0  0
   56.8300   31.0470   45.7420 H   0  0  0  0  0  0  0  0  0  0  0  0
   57.9151   31.6477   47.1918 H   0  0  0  0  0  0  0  0  0  0  0  0
   58.8313   32.7876   49.2094 H   0  0  0  0  0  0  0  0  0  0  0  0
   59.9145   35.0267   49.0007 H   0  0  0  0  0  0  0  0  0  0  0  0
   60.1040   36.1171   46.7654 H   0  0  0  0  0  0  0  0  0  0  0  0
   58.1756   30.2042   45.3746 H   0  0  0  0  0  0  0  0  0  0  0  0
   60.4574   29.2433   45.6516 H   0  0  0  0  0  0  0  0  0  0  0  0
   60.7557   26.7780   45.8933 H   0  0  0  0  0  0  0  0  0  0  0  0
   58.7678   25.2758   45.9229 H   0  0  0  0  0  0  0  0  0  0  0  0
   57.3819   25.2337   43.5530 H   0  0  0  0  0  0  0  0  0  0  0  0
   58.0197   23.8412   44.4938 H   0  0  0  0  0  0  0  0  0  0  0  0
   55.5843   23.8697   42.6360 H   0  0  0  0  0  0  0  0  0  0  0  0
   57.1463   22.9943   42.3958 H   0  0  0  0  0  0  0  0  0  0  0  0
   54.1129   23.1934   44.1566 H   0  0  0  0  0  0  0  0  0  0  0  0
   54.4415   21.7541   45.1971 H   0  0  0  0  0  0  0  0  0  0  0  0
   54.6201   23.9725   46.4082 H   0  0  0  0  0  0  0  0  0  0  0  0
   56.1118   22.9702   46.4677 H   0  0  0  0  0  0  0  0  0  0  0  0
  1  2  2  0
  2  3  1  0
  3  4  1  0
  4  5  1  0
  5  6  2  0
  5  7  1  0
  7  8  2  0
  8  9  1  0
  9 10  2  0
 10 11  1  0
 11 12  2  0
 12 13  1  0
  2 14  1  0
 14 15  1  0
 15 16  2  0
 16 17  1  0
 17 18  2  0
 18 19  1  0
 19 20  2  0
 20 21  1  0
 21 22  2  0
 21 23  1  0
 23 24  1  0
 24 25  1  0
 25 26  1  0
 26 27  1  0
 27 28  1  0
 12  7  1  0
 20 15  1  0
 28 23  1  0
  3 29  1  0
  3 30  1  0
  4 31  1  0
  8 32  1  0
  9 33  1  0
 10 34  1  0
 11 35  1  0
 16 36  1  0
 17 37  1  0
 18 38  1  0
 19 39  1  0
 24 40  1  0
 24 41  1  0
 25 42  1  0
 25 43  1  0
 27 44  1  0
 27 45  1  0
 28 46  1  0
 28 47  1  0
M  CHG  1  14  -1
M  END
>  <UniqueID>  (83) 
77

>  <SMILES>  (83) 
O=C(CNC(=O)c1ccccc1F)[N-]c1ccccc1C(=O)N1CCOCC1

>  <Energy>  (83) 
63.37261681831069

>  <Genealogy>  (83) 
O=C(CNC(=O)c1ccccc1F)[N-]c1ccccc1C(=O)N1CCOCC1 (protonated)
O=C(CNC(=O)c1ccccc1F)[N-]c1ccccc1C(=O)N1CCOCC1 (3D coordinates assigned)
O=C(CNC(=O)c1ccccc1F)[N-]c1ccccc1C(=O)N1CCOCC1 (nonaromatic ring conformer: 63.37261681831069 kcal/mol)

>  <smiles>  (83) 
O=C(CNC(=O)c1ccccc1F)Nc1ccccc1C(=O)N1CCOCC1

>  <score_type>  (83) 
oracle

>  <origin>  (83) 
adg

>  <m_score__min__energy>  (83) 
-11.23

>  <m_primary>  (83) 
energy

$$$$
83:0
     RDKit          3D

 38 40  0  0  0  0  0  0  0  0999 V2000
   59.9740   28.2250   45.3850 O   0  0  0  0  0  0  0  0  0  0  0  0
   59.2570   29.1230   45.9080 C   0  0  0  0  0  0  0  0  0  0  0  0
   57.9550   29.4460   45.2820 C   0  0  0  0  0  0  0  0  0  0  0  0
   57.8440   30.5410   44.4140 C   0  0  0  0  0  0  0  0  0  0  0  0
   56.6230   30.8350   43.8070 C   0  0  0  0  0  0  0  0  0  0  0  0
   55.5190   30.0210   44.0640 C   0  0  0  0  0  0  0  0  0  0  0  0
   55.6410   28.9530   44.8950 N   0  0  0  0  0  0  0  0  0  0  0  0
   56.8180   28.6440   45.5030 C   0  0  0  0  0  0  0  0  0  0  0  0
   56.8730   27.6450   46.2690 O   0  0  0  0  0  0  0  0  0  0  0  0
   59.7100   29.7980   47.1010 N   0  0  0  0  0  0  0  0  0  0  0  0
   61.1240   29.7150   47.5060 C   0  0  0  0  0  0  0  0  0  0  0  0
   61.4760   30.7650   48.5680 C   0  0  0  0  0  0  0  0  0  0  0  0
   60.8900   32.1250   48.1790 C   0  0  0  0  0  0  0  0  0  0  0  0
   59.3430   32.0790   48.0410 C   0  0  1  0  0  0  0  0  0  0  0  0
   58.8600   32.9900   46.9260 C   0  0  0  0  0  0  0  0  0  0  0  0
   59.7670   33.7730   46.1860 C   0  0  0  0  0  0  0  0  0  0  0  0
   59.3110   34.5970   45.1510 C   0  0  0  0  0  0  0  0  0  0  0  0
   57.9500   34.6490   44.8450 C   0  0  0  0  0  0  0  0  0  0  0  0
   57.0410   33.8770   45.5720 C   0  0  0  0  0  0  0  0  0  0  0  0
   57.4910   33.0520   46.6070 C   0  0  0  0  0  0  0  0  0  0  0  0
   58.7860   30.6440   47.8700 C   0  0  0  0  0  0  0  0  0  0  0  0
   58.7228   31.1706   44.2108 H   0  0  0  0  0  0  0  0  0  0  0  0
   56.5313   31.6994   43.1329 H   0  0  0  0  0  0  0  0  0  0  0  0
   54.5499   30.2440   43.5938 H   0  0  0  0  0  0  0  0  0  0  0  0
   61.3181   28.7135   47.9176 H   0  0  0  0  0  0  0  0  0  0  0  0
   61.7452   29.9054   46.6184 H   0  0  0  0  0  0  0  0  0  0  0  0
   61.0610   30.4543   49.5382 H   0  0  0  0  0  0  0  0  0  0  0  0
   62.5703   30.8519   48.6390 H   0  0  0  0  0  0  0  0  0  0  0  0
   61.1550   32.8597   48.9536 H   0  0  0  0  0  0  0  0  0  0  0  0
   61.3083   32.4061   47.2013 H   0  0  0  0  0  0  0  0  0  0  0  0
   58.9420   32.4537   48.9943 H   0  0  0  0  0  0  0  0  0  0  0  0
   60.8405   33.7366   46.4231 H   0  0  0  0  0  0  0  0  0  0  0  0
   60.0263   35.2048   44.5775 H   0  0  0  0  0  0  0  0  0  0  0  0
   57.5935   35.2979   44.0314 H   0  0  0  0  0  0  0  0  0  0  0  0
   55.9688   33.9182   45.3297 H   0  0  0  0  0  0  0  0  0  0  0  0
   56.7697   32.4470   47.1760 H   0  0  0  0  0  0  0  0  0  0  0  0
   58.6354   30.1977   48.8641 H   0  0  0  0  0  0  0  0  0  0  0  0
   57.8346   30.7051   47.3213 H   0  0  0  0  0  0  0  0  0  0  0  0
  1  2  2  0
  2  3  1  0
  3  4  2  0
  4  5  1  0
  5  6  2  0
  6  7  1  0
  7  8  1  0
  8  9  2  0
  2 10  1  0
 10 11  1  0
 11 12  1  0
 12 13  1  0
 13 14  1  0
 14 15  1  0
 15 16  2  0
 16 17  1  0
 17 18  2  0
 18 19  1  0
 19 20  2  0
 14 21  1  0
  8  3  1  0
 21 10  1  0
 20 15  1  0
  4 22  1  0
  5 23  1  0
  6 24  1  0
 11 25  1  0
 11 26  1  0
 12 27  1  0
 12 28  1  0
 13 29  1  0
 13 30  1  0
 14 31  1  1
 16 32  1  0
 17 33  1  0
 18 34  1  0
 19 35  1  0
 20 36  1  0
 21 37  1  0
 21 38  1  0
M  CHG  1   7  -1
M  END
>  <UniqueID>  (84) 
78

>  <SMILES>  (84) 
O=C(c1ccc[n-]c1=O)N1CCC[C@@H](c2ccccc2)C1

>  <Energy>  (84) 
50.168935071424364

>  <Genealogy>  (84) 
O=C(c1ccc[n-]c1=O)N1CCCC(c2ccccc2)C1 (protonated)
O=C(c1ccc[n-]c1=O)N1CCC[C@@H](c2ccccc2)C1 (chirality)
O=C(c1ccc[n-]c1=O)N1CCC[C@@H](c2ccccc2)C1 (3D coordinates assigned)
O=C(c1ccc[n-]c1=O)N1CCC[C@@H](c2ccccc2)C1 (nonaromatic ring conformer: 50.168935071424364 kcal/mol)

>  <smiles>  (84) 
O=C(c1ccc[nH]c1=O)N1CCCC(c2ccccc2)C1

>  <score_type>  (84) 
oracle

>  <origin>  (84) 
adg

>  <m_score__min__energy>  (84) 
-9.1400000000000006

>  <m_primary>  (84) 
energy

$$$$
84:0
     RDKit          3D

 69 73  0  0  0  0  0  0  0  0999 V2000
   58.4950   26.6040   42.0180 O   0  0  0  0  0  0  0  0  0  0  0  0
   58.0680   26.7230   43.1990 C   0  0  0  0  0  0  0  0  0  0  0  0
   57.5500   25.5850   43.8980 N   0  0  0  0  0  0  0  0  0  0  0  0
   57.0500   25.5620   45.5590 S   0  0  0  0  0  0  0  0  0  0  0  0
   56.9450   24.1360   46.0220 O   0  0  0  0  0  0  0  0  0  0  0  0
   55.6950   26.2030   45.6610 O   0  0  0  0  0  0  0  0  0  0  0  0
   58.1590   26.4460   46.6030 C   0  0  0  0  0  0  0  0  0  0  0  0
   59.4290   25.9240   46.8930 C   0  0  0  0  0  0  0  0  0  0  0  0
   60.2860   26.6100   47.7570 C   0  0  0  0  0  0  0  0  0  0  0  0
   59.8840   27.8270   48.3280 C   0  0  0  0  0  0  0  0  0  0  0  0
   60.7210   28.4980   49.2690 N   0  0  0  0  0  0  0  0  0  0  0  0
   60.9370   30.2150   49.1770 S   0  0  0  0  0  0  0  0  0  0  0  0
   60.7300   30.6710   47.7580 O   0  0  0  0  0  0  0  0  0  0  0  0
   62.3320   30.5880   49.6110 O   0  0  0  0  0  0  0  0  0  0  0  0
   59.7360   30.9730   50.2160 C   0  0  0  0  0  0  0  0  0  0  0  0
   59.9080   32.3020   50.6310 C   0  0  0  0  0  0  0  0  0  0  0  0
   58.9110   32.9400   51.3730 C   0  0  0  0  0  0  0  0  0  0  0  0
   57.7340   32.2580   51.6970 C   0  0  0  0  0  0  0  0  0  0  0  0
   57.5580   30.9330   51.2850 C   0  0  0  0  0  0  0  0  0  0  0  0
   58.5540   30.2920   50.5430 C   0  0  0  0  0  0  0  0  0  0  0  0
   58.6320   28.3640   48.0110 C   0  0  0  0  0  0  0  0  0  0  0  0
   57.7680   27.6710   47.1610 C   0  0  0  0  0  0  0  0  0  0  0  0
   58.1260   28.0400   43.8760 C   0  0  0  0  0  0  0  0  0  0  0  0
   56.9820   28.8550   43.9550 C   0  0  0  0  0  0  0  0  0  0  0  0
   57.0510   30.1220   44.5430 C   0  0  0  0  0  0  0  0  0  0  0  0
   58.2610   30.5950   45.0800 C   0  0  0  0  0  0  0  0  0  0  0  0
   58.3380   31.9090   45.6690 N   0  0  0  0  0  0  0  0  0  0  0  0
   57.9910   32.1180   47.0790 C   0  0  0  0  0  0  0  0  0  0  0  0
   58.8810   33.2180   47.6610 C   0  0  0  0  0  0  0  0  0  0  0  0
   58.7320   34.5120   46.9400 N   0  0  0  0  0  0  0  0  0  0  0  0
   59.9450   35.3500   47.0780 C   0  0  0  0  0  0  0  0  0  0  0  0
   61.1420   34.5040   47.4310 C   0  0  0  0  0  0  0  0  0  0  0  0
   61.5470   34.3790   48.7710 C   0  0  0  0  0  0  0  0  0  0  0  0
   62.6280   33.5600   49.1070 C   0  0  0  0  0  0  0  0  0  0  0  0
   63.3020   32.8490   48.1130 C   0  0  0  0  0  0  0  0  0  0  0  0
   62.9020   32.9600   46.7780 C   0  0  0  0  0  0  0  0  0  0  0  0
   61.8250   33.7830   46.4360 C   0  0  0  0  0  0  0  0  0  0  0  0
   58.3270   34.3750   45.5150 C   0  0  0  0  0  0  0  0  0  0  0  0
   58.8010   33.0600   44.8790 C   0  0  0  0  0  0  0  0  0  0  0  0
   59.3970   29.7690   45.0230 C   0  0  0  0  0  0  0  0  0  0  0  0
   59.3300   28.5100   44.4270 C   0  0  0  0  0  0  0  0  0  0  0  0
   59.7497   24.9744   46.4398 H   0  0  0  0  0  0  0  0  0  0  0  0
   61.2778   26.1953   47.9901 H   0  0  0  0  0  0  0  0  0  0  0  0
   60.8300   32.8429   50.3716 H   0  0  0  0  0  0  0  0  0  0  0  0
   59.0520   33.9799   51.7027 H   0  0  0  0  0  0  0  0  0  0  0  0
   56.9468   32.7634   52.2757 H   0  0  0  0  0  0  0  0  0  0  0  0
   56.6346   30.3948   51.5453 H   0  0  0  0  0  0  0  0  0  0  0  0
   58.4108   29.2519   50.2149 H   0  0  0  0  0  0  0  0  0  0  0  0
   58.3277   29.3336   48.4320 H   0  0  0  0  0  0  0  0  0  0  0  0
   56.7770   28.0878   46.9284 H   0  0  0  0  0  0  0  0  0  0  0  0
   56.0252   28.4926   43.5509 H   0  0  0  0  0  0  0  0  0  0  0  0
   56.1513   30.7535   44.5856 H   0  0  0  0  0  0  0  0  0  0  0  0
   56.9359   32.4193   47.1570 H   0  0  0  0  0  0  0  0  0  0  0  0
   58.1458   31.1839   47.6390 H   0  0  0  0  0  0  0  0  0  0  0  0
   58.6108   33.3690   48.7165 H   0  0  0  0  0  0  0  0  0  0  0  0
   59.9267   32.8939   47.5540 H   0  0  0  0  0  0  0  0  0  0  0  0
   60.1366   35.8669   46.1261 H   0  0  0  0  0  0  0  0  0  0  0  0
   59.7794   36.0806   47.8834 H   0  0  0  0  0  0  0  0  0  0  0  0
   61.0106   34.9284   49.5587 H   0  0  0  0  0  0  0  0  0  0  0  0
   62.9481   33.4755   50.1560 H   0  0  0  0  0  0  0  0  0  0  0  0
   64.1492   32.2003   48.3804 H   0  0  0  0  0  0  0  0  0  0  0  0
   63.4352   32.3993   45.9961 H   0  0  0  0  0  0  0  0  0  0  0  0
   61.5110   33.8667   45.3851 H   0  0  0  0  0  0  0  0  0  0  0  0
   57.2293   34.4163   45.4573 H   0  0  0  0  0  0  0  0  0  0  0  0
   58.7994   35.1980   44.9586 H   0  0  0  0  0  0  0  0  0  0  0  0
   58.3965   32.9850   43.8588 H   0  0  0  0  0  0  0  0  0  0  0  0
   59.9007   33.0539   44.8526 H   0  0  0  0  0  0  0  0  0  0  0  0
   60.3474   30.1189   45.4524 H   0  0  0  0  0  0  0  0  0  0  0  0
   60.2295   27.8780   44.3878 H   0  0  0  0  0  0  0  0  0  0  0  0
  1  2  2  0
  2  3  1  0
  3  4  1  0
  4  5  2  0
  4  6  2  0
  4  7  1  0
  7  8  2  0
  8  9  1  0
  9 10  2  0
 10 11  1  0
 11 12  1  0
 12 13  2  0
 12 14  2  0
 12 15  1  0
 15 16  2  0
 16 17  1  0
 17 18  2  0
 18 19  1  0
 19 20  2  0
 10 21  1  0
 21 22  2  0
  2 23  1  0
 23 24  2  0
 24 25  1  0
 25 26  2  0
 26 27  1  0
 27 28  1  0
 28 29  1  0
 29 30  1  0
 30 31  1  0
 31 32  1  0
 32 33  2  0
 33 34  1  0
 34 35  2  0
 35 36  1  0
 36 37  2  0
 30 38  1  0
 38 39  1  0
 26 40  1  0
 40 41  2  0
 22  7  1  0
 41 23  1  0
 20 15  1  0
 39 27  1  0
 37 32  1  0
  8 42  1  0
  9 43  1  0
 16 44  1  0
 17 45  1  0
 18 46  1  0
 19 47  1  0
 20 48  1  0
 21 49  1  0
 22 50  1  0
 24 51  1  0
 25 52  1  0
 28 53  1  0
 28 54  1  0
 29 55  1  0
 29 56  1  0
 31 57  1  0
 31 58  1  0
 33 59  1  0
 34 60  1  0
 35 61  1  0
 36 62  1  0
 37 63  1  0
 38 64  1  0
 38 65  1  0
 39 66  1  0
 39 67  1  0
 40 68  1  0
 41 69  1  0
M  CHG  2   3  -1  11  -1
M  END
>  <UniqueID>  (85) 
79

>  <SMILES>  (85) 
O=C([N-]S(=O)(=O)c1ccc([N-]S(=O)(=O)c2ccccc2)cc1)c1ccc(N2CCN(Cc3ccccc3)CC2)cc1

>  <Energy>  (85) 
98.2851999541663

>  <Genealogy>  (85) 
O=C([N-]S(=O)(=O)c1ccc([N-]S(=O)(=O)c2ccccc2)cc1)c1ccc(N2CCN(Cc3ccccc3)CC2)cc1 (protonated)
O=C([N-]S(=O)(=O)c1ccc([N-]S(=O)(=O)c2ccccc2)cc1)c1ccc(N2CCN(Cc3ccccc3)CC2)cc1 (3D coordinates assigned)
O=C([N-]S(=O)(=O)c1ccc([N-]S(=O)(=O)c2ccccc2)cc1)c1ccc(N2CCN(Cc3ccccc3)CC2)cc1 (nonaromatic ring conformer: 98.2851999541663 kcal/mol)

>  <smiles>  (85) 
O=C(NS(=O)(=O)c1ccc(NS(=O)(=O)c2ccccc2)cc1)c1ccc(N2CCN(Cc3ccccc3)CC2)cc1

>  <score_type>  (85) 
oracle

>  <origin>  (85) 
adg

>  <m_score__min__energy>  (85) 
-12.34

>  <m_primary>  (85) 
energy

$$$$
85:0
     RDKit          3D

 36 37  0  0  0  0  0  0  0  0999 V2000
   55.3430   29.3470   44.7060 O   0  0  0  0  0  0  0  0  0  0  0  0
   56.3090   30.1300   44.5040 C   0  0  0  0  0  0  0  0  0  0  0  0
   57.5390   29.6270   43.8070 C   0  0  0  0  0  0  0  0  0  0  0  0
   57.5750   28.1600   43.7350 N   0  0  0  0  0  0  0  0  0  0  0  0
   57.9060   27.4510   45.2910 S   0  0  0  0  0  0  0  0  0  0  0  0
   58.6620   26.1650   45.1030 O   0  0  0  0  0  0  0  0  0  0  0  0
   56.6240   27.1760   46.0260 O   0  0  0  0  0  0  0  0  0  0  0  0
   58.8810   28.5690   46.2390 C   0  0  0  0  0  0  0  0  0  0  0  0
   60.0240   29.1550   45.6750 C   0  0  0  0  0  0  0  0  0  0  0  0
   60.7950   30.0500   46.4220 C   0  0  0  0  0  0  0  0  0  0  0  0
   60.4270   30.3670   47.7330 C   0  0  0  0  0  0  0  0  0  0  0  0
   59.2850   29.7900   48.2980 C   0  0  0  0  0  0  0  0  0  0  0  0
   58.5110   28.8960   47.5520 C   0  0  0  0  0  0  0  0  0  0  0  0
   56.2200   31.5140   44.8660 N   0  0  0  0  0  0  0  0  0  0  0  0
   57.3170   32.3920   45.1640 C   0  0  0  0  0  0  0  0  0  0  0  0
   57.9850   33.0110   44.1020 C   0  0  0  0  0  0  0  0  0  0  0  0
   59.0760   33.8480   44.3460 C   0  0  0  0  0  0  0  0  0  0  0  0
   59.5140   34.0690   45.6530 C   0  0  0  0  0  0  0  0  0  0  0  0
   58.8560   33.4580   46.7350 C   0  0  0  0  0  0  0  0  0  0  0  0
   59.3700   33.6380   48.1420 C   0  0  0  0  0  0  0  0  0  0  0  0
   58.6330   32.8750   49.0310 F   0  0  0  0  0  0  0  0  0  0  0  0
   60.6930   33.2420   48.1970 F   0  0  0  0  0  0  0  0  0  0  0  0
   59.2790   34.9630   48.5310 F   0  0  0  0  0  0  0  0  0  0  0  0
   57.7750   32.5950   46.4790 C   0  0  0  0  0  0  0  0  0  0  0  0
   57.5577   30.0325   42.7846 H   0  0  0  0  0  0  0  0  0  0  0  0
   58.4142   29.9584   44.3850 H   0  0  0  0  0  0  0  0  0  0  0  0
   56.6510   27.8010   43.4020 H   0  0  0  0  0  0  0  0  0  0  0  0
   60.3141   28.9096   44.6427 H   0  0  0  0  0  0  0  0  0  0  0  0
   61.6924   30.5055   45.9779 H   0  0  0  0  0  0  0  0  0  0  0  0
   61.0357   31.0703   48.3202 H   0  0  0  0  0  0  0  0  0  0  0  0
   58.9957   30.0396   49.3295 H   0  0  0  0  0  0  0  0  0  0  0  0
   57.6097   28.4480   47.9958 H   0  0  0  0  0  0  0  0  0  0  0  0
   57.6490   32.8375   43.0690 H   0  0  0  0  0  0  0  0  0  0  0  0
   59.5920   34.3349   43.5054 H   0  0  0  0  0  0  0  0  0  0  0  0
   60.3781   34.7243   45.8373 H   0  0  0  0  0  0  0  0  0  0  0  0
   57.2834   32.0743   47.3140 H   0  0  0  0  0  0  0  0  0  0  0  0
  1  2  2  0
  2  3  1  0
  3  4  1  0
  4  5  1  0
  5  6  2  0
  5  7  2  0
  5  8  1  0
  8  9  2  0
  9 10  1  0
 10 11  2  0
 11 12  1  0
 12 13  2  0
  2 14  1  0
 14 15  1  0
 15 16  2  0
 16 17  1  0
 17 18  2  0
 18 19  1  0
 19 20  1  0
 20 21  1  0
 20 22  1  0
 20 23  1  0
 19 24  2  0
 13  8  1  0
 24 15  1  0
  3 25  1  0
  3 26  1  0
  4 27  1  0
  9 28  1  0
 10 29  1  0
 11 30  1  0
 12 31  1  0
 13 32  1  0
 16 33  1  0
 17 34  1  0
 18 35  1  0
 24 36  1  0
M  CHG  1  14  -1
M  END
>  <UniqueID>  (86) 
80

>  <SMILES>  (86) 
O=C(CNS(=O)(=O)c1ccccc1)[N-]c1cccc(C(F)(F)F)c1

>  <Energy>  (86) 
39.29558469068826

>  <Genealogy>  (86) 
O=C(CNS(=O)(=O)c1ccccc1)[N-]c1cccc(C(F)(F)F)c1 (protonated)
O=C(CNS(=O)(=O)c1ccccc1)[N-]c1cccc(C(F)(F)F)c1 (3D coordinates assigned)
O=C(CNS(=O)(=O)c1ccccc1)[N-]c1cccc(C(F)(F)F)c1 (optimized conformer: 39.29558469068826 kcal/mol)

>  <smiles>  (86) 
O=C(CNS(=O)(=O)c1ccccc1)Nc1cccc(C(F)(F)F)c1

>  <score_type>  (86) 
oracle

>  <origin>  (86) 
adg

>  <m_score__min__energy>  (86) 
-9.7200000000000006

>  <m_primary>  (86) 
energy

$$$$
86:0
     RDKit          3D

 30 31  0  0  0  0  0  0  0  0999 V2000
   53.7140   25.1740   54.2250 C   0  0  0  0  0  0  0  0  0  0  0  0
   53.3990   26.4940   53.7970 O   0  0  0  0  0  0  0  0  0  0  0  0
   54.3360   27.5280   53.6320 C   0  0  0  0  0  0  0  0  0  0  0  0
   55.7220   27.2720   53.6180 C   0  0  0  0  0  0  0  0  0  0  0  0
   56.6370   28.3170   53.4560 C   0  0  0  0  0  0  0  0  0  0  0  0
   58.0070   28.0660   53.4410 O   0  0  0  0  0  0  0  0  0  0  0  0
   56.1770   29.6250   53.3070 C   0  0  0  0  0  0  0  0  0  0  0  0
   54.8070   29.8990   53.3180 C   0  0  0  0  0  0  0  0  0  0  0  0
   54.3840   31.2160   53.1700 O   0  0  0  0  0  0  0  0  0  0  0  0
   53.8740   28.8530   53.4750 C   0  0  0  0  0  0  0  0  0  0  0  0
   52.3910   29.1520   53.5250 C   0  0  0  0  0  0  0  0  0  0  0  0
   52.0030   30.1030   52.4230 C   0  0  0  0  0  0  0  0  0  0  0  0
   52.1390   29.7280   51.0760 C   0  0  0  0  0  0  0  0  0  0  0  0
   51.7520   30.6020   50.0570 C   0  0  0  0  0  0  0  0  0  0  0  0
   51.2220   31.8580   50.3720 C   0  0  0  0  0  0  0  0  0  0  0  0
   50.8380   32.7220   49.3550 O   0  0  0  0  0  0  0  0  0  0  0  0
   51.0790   32.2390   51.7130 C   0  0  0  0  0  0  0  0  0  0  0  0
   50.5530   33.4840   52.0320 O   0  0  0  0  0  0  0  0  0  0  0  0
   51.4670   31.3640   52.7340 C   0  0  0  0  0  0  0  0  0  0  0  0
   53.7228   25.1373   55.3244 H   0  0  0  0  0  0  0  0  0  0  0  0
   52.9578   24.4737   53.8408 H   0  0  0  0  0  0  0  0  0  0  0  0
   54.7050   24.8906   53.8408 H   0  0  0  0  0  0  0  0  0  0  0  0
   56.0871   26.2410   53.7355 H   0  0  0  0  0  0  0  0  0  0  0  0
   58.6700   28.7210   53.8380 H   0  0  0  0  0  0  0  0  0  0  0  0
   56.8975   30.4464   53.1800 H   0  0  0  0  0  0  0  0  0  0  0  0
   51.8291   28.2137   53.4070 H   0  0  0  0  0  0  0  0  0  0  0  0
   52.1562   29.6177   54.4935 H   0  0  0  0  0  0  0  0  0  0  0  0
   52.5525   28.7408   50.8222 H   0  0  0  0  0  0  0  0  0  0  0  0
   51.8642   30.3020   49.0047 H   0  0  0  0  0  0  0  0  0  0  0  0
   51.3517   31.6651   53.7857 H   0  0  0  0  0  0  0  0  0  0  0  0
  1  2  1  0
  2  3  1  0
  3  4  2  0
  4  5  1  0
  5  6  1  0
  5  7  2  0
  7  8  1  0
  8  9  1  0
  8 10  2  0
 10 11  1  0
 11 12  1  0
 12 13  2  0
 13 14  1  0
 14 15  2  0
 15 16  1  0
 15 17  1  0
 17 18  1  0
 17 19  2  0
 10  3  1  0
 19 12  1  0
  1 20  1  0
  1 21  1  0
  1 22  1  0
  4 23  1  0
  6 24  1  0
  7 25  1  0
 11 26  1  0
 11 27  1  0
 13 28  1  0
 14 29  1  0
 19 30  1  0
M  CHG  3   9  -1  16  -1  18  -1
M  END
>  <UniqueID>  (87) 
81

>  <SMILES>  (87) 
COc1cc(O)cc([O-])c1Cc1ccc([O-])c([O-])c1

>  <Energy>  (87) 
30.2374191210732

>  <Genealogy>  (87) 
COc1cc(O)cc([O-])c1Cc1ccc([O-])c([O-])c1 (protonated)
COc1cc(O)cc([O-])c1Cc1ccc([O-])c([O-])c1 (3D coordinates assigned)
COc1cc(O)cc([O-])c1Cc1ccc([O-])c([O-])c1 (optimized conformer: 30.2374191210732 kcal/mol)

>  <smiles>  (87) 
COc1cc(O)cc(O)c1Cc1ccc(O)c(O)c1

>  <score_type>  (87) 
oracle

>  <origin>  (87) 
adg

>  <m_score__min__energy>  (87) 
-14.48

>  <m_primary>  (87) 
energy

$$$$
87:0
     RDKit          3D

 51 53  0  0  0  0  0  0  0  0999 V2000
   57.1266   27.4031   46.0922 H   0  0  0  0  0  0  0  0  0  0  0  0
   57.9810   28.0920   46.0180 C   0  0  0  0  0  0  0  0  0  0  0  0
   58.1690   29.0470   46.9670 N   0  0  0  0  0  0  0  0  0  0  0  0
   59.2110   29.9270   46.9100 C   0  0  0  0  0  0  0  0  0  0  0  0
   59.4100   30.7990   47.8560 N   0  0  0  0  0  0  0  0  0  0  0  0
   58.7300   32.0560   48.0010 C   0  0  0  0  0  0  0  0  0  0  0  0
   58.0810   32.3190   49.0490 O   0  0  0  0  0  0  0  0  0  0  0  0
   58.7870   33.0510   46.9100 C   0  0  0  0  0  0  0  0  0  0  0  0
   58.0790   32.8330   45.7080 C   0  0  0  0  0  0  0  0  0  0  0  0
   57.3510   31.6580   45.4810 O   0  0  0  0  0  0  0  0  0  0  0  0
   56.7360   31.3580   44.2250 C   0  0  2  0  0  0  0  0  0  0  0  0
   56.0751   32.1884   43.9358 H   0  0  0  0  0  0  0  0  0  0  0  0
   55.8970   30.0820   44.3430 C   0  0  0  0  0  0  0  0  0  0  0  0
   55.7400   29.8433   45.4053 H   0  0  0  0  0  0  0  0  0  0  0  0
   54.9237   30.2366   43.8542 H   0  0  0  0  0  0  0  0  0  0  0  0
   56.4247   29.2497   43.8542 H   0  0  0  0  0  0  0  0  0  0  0  0
   57.8230   31.1780   43.1530 C   0  0  0  0  0  0  0  0  0  0  0  0
   57.8963   30.1109   42.8964 H   0  0  0  0  0  0  0  0  0  0  0  0
   58.7722   31.5530   43.5633 H   0  0  0  0  0  0  0  0  0  0  0  0
   57.5090   31.9700   41.8860 C   0  0  0  0  0  0  0  0  0  0  0  0
   57.1164   32.9602   42.1604 H   0  0  0  0  0  0  0  0  0  0  0  0
   58.4271   32.0912   41.2924 H   0  0  0  0  0  0  0  0  0  0  0  0
   56.7573   31.4292   41.2924 H   0  0  0  0  0  0  0  0  0  0  0  0
   58.1070   33.8000   44.7030 C   0  0  0  0  0  0  0  0  0  0  0  0
   57.5243   33.6550   43.7814 H   0  0  0  0  0  0  0  0  0  0  0  0
   58.8740   34.9480   44.8700 C   0  0  0  0  0  0  0  0  0  0  0  0
   58.9144   35.7015   44.0697 H   0  0  0  0  0  0  0  0  0  0  0  0
   59.5740   35.1420   46.0190 N   0  0  0  0  0  0  0  0  0  0  0  0
   60.1380   36.0140   46.1230 H   0  0  0  0  0  0  0  0  0  0  0  0
   59.5290   34.2530   47.0510 C   0  0  0  0  0  0  0  0  0  0  0  0
   60.2410   34.5610   48.2200 O   0  0  0  0  0  0  0  0  0  0  0  0
   61.4980   34.0370   48.5620 C   0  0  0  0  0  0  0  0  0  0  0  0
   62.3810   33.5190   47.5980 C   0  0  0  0  0  0  0  0  0  0  0  0
   62.0723   33.4691   46.5434 H   0  0  0  0  0  0  0  0  0  0  0  0
   63.6500   33.0670   47.9740 C   0  0  0  0  0  0  0  0  0  0  0  0
   64.3450   32.6862   47.2111 H   0  0  0  0  0  0  0  0  0  0  0  0
   64.0390   33.0980   49.3220 C   0  0  0  0  0  0  0  0  0  0  0  0
   65.4240   32.6790   49.7180 C   0  0  0  0  0  0  0  0  0  0  0  0
   65.5005   32.6559   50.8151 H   0  0  0  0  0  0  0  0  0  0  0  0
   65.6335   31.6773   49.3146 H   0  0  0  0  0  0  0  0  0  0  0  0
   66.1536   33.3966   49.3146 H   0  0  0  0  0  0  0  0  0  0  0  0
   63.1490   33.5930   50.2860 C   0  0  0  0  0  0  0  0  0  0  0  0
   63.4501   33.6279   51.3434 H   0  0  0  0  0  0  0  0  0  0  0  0
   61.8810   34.0420   49.9080 C   0  0  0  0  0  0  0  0  0  0  0  0
   61.1786   34.4021   50.6741 H   0  0  0  0  0  0  0  0  0  0  0  0
   60.1220   29.8480   45.8490 C   0  0  0  0  0  0  0  0  0  0  0  0
   60.9681   30.5486   45.7911 H   0  0  0  0  0  0  0  0  0  0  0  0
   59.9470   28.8720   44.8650 C   0  0  0  0  0  0  0  0  0  0  0  0
   60.6547   28.8023   44.0257 H   0  0  0  0  0  0  0  0  0  0  0  0
   58.8730   27.9860   44.9490 C   0  0  0  0  0  0  0  0  0  0  0  0
   58.6960   27.0310   44.0020 F   0  0  0  0  0  0  0  0  0  0  0  0
  1  2  1  0
  2  3  1  0
  3  4  1  0
  4  5  2  0
  5  6  1  0
  6  7  2  0
  6  8  1  0
  8  9  2  0
  9 10  1  0
 10 11  1  0
 11 12  1  6
 11 13  1  0
 13 14  1  0
 13 15  1  0
 13 16  1  0
 11 17  1  0
 17 18  1  0
 17 19  1  0
 17 20  1  0
 20 21  1  0
 20 22  1  0
 20 23  1  0
  9 24  1  0
 24 25  1  0
 24 26  2  0
 26 27  1  0
 26 28  1  0
 28 29  1  0
 28 30  2  0
 30 31  1  0
 31 32  1  0
 32 33  2  0
 33 34  1  0
 33 35  1  0
 35 36  1  0
 35 37  2  0
 37 38  1  0
 38 39  1  0
 38 40  1  0
 38 41  1  0
 37 42  1  0
 42 43  1  0
 42 44  2  0
 44 45  1  0
  4 46  1  0
 46 47  1  0
 46 48  2  0
 48 49  1  0
 48 50  1  0
 50 51  1  0
 50  2  2  0
 30  8  1  0
 44 32  1  0
M  CHG  2   3  -1  28   1
M  END
>  <UniqueID>  (88) 
82

>  <SMILES>  (88) 
CC[C@@H](C)Oc1cc[nH+]c(Oc2ccc(C)cc2)c1C(=O)/N=c1/ccc(F)c[n-]1

>  <Energy>  (88) 
65.24091642427162

>  <Genealogy>  (88) 
CCC(C)Oc1cc[nH+]c(Oc2ccc(C)cc2)c1C(=O)N=c1ccc(F)c[n-]1 (protonated)
CC[C@@H](C)Oc1cc[nH+]c(Oc2ccc(C)cc2)c1C(=O)N=c1ccc(F)c[n-]1 (chirality)
CC[C@@H](C)Oc1cc[nH+]c(Oc2ccc(C)cc2)c1C(=O)/N=c1/ccc(F)c[n-]1 (cis-trans isomerization)
CC[C@@H](C)Oc1cc[nH+]c(Oc2ccc(C)cc2)c1C(=O)/N=c1/ccc(F)c[n-]1 (3D coordinates assigned)
CC[C@@H](C)Oc1cc[nH+]c(Oc2ccc(C)cc2)c1C(=O)/N=c1/ccc(F)c[n-]1 (optimized conformer: 65.24091642427162 kcal/mol)

>  <smiles>  (88) 
CCC(C)Oc1ccnc(Oc2ccc(C)cc2)c1C(=O)N=c1ccc(F)c[nH]1

>  <score_type>  (88) 
oracle

>  <origin>  (88) 
adg

>  <m_score__min__energy>  (88) 
-7.8700000000000001

>  <m_primary>  (88) 
energy

$$$$
88:0
     RDKit          3D

 52 54  0  0  0  0  0  0  0  0999 V2000
   58.7056   27.0999   47.6273 H   0  0  0  0  0  0  0  0  0  0  0  0
   58.4580   27.4490   46.6140 C   0  0  0  0  0  0  0  0  0  0  0  0
   58.0980   28.7840   46.4090 C   0  0  0  0  0  0  0  0  0  0  0  0
   58.0574   29.4775   47.2619 H   0  0  0  0  0  0  0  0  0  0  0  0
   57.7890   29.2420   45.1230 C   0  0  0  0  0  0  0  0  0  0  0  0
   57.4160   30.9440   44.8620 S   0  0  0  0  0  0  0  0  0  0  0  0
   58.2650   31.4760   43.7430 O   0  0  0  0  0  0  0  0  0  0  0  0
   55.9690   31.1050   44.4880 O   0  0  0  0  0  0  0  0  0  0  0  0
   57.7620   31.8310   46.3040 N   0  0  0  0  0  0  0  0  0  0  0  0
   58.8830   32.7120   46.3670 C   0  0  0  0  0  0  0  0  0  0  0  0
   59.0010   33.9310   45.7290 C   0  0  0  0  0  0  0  0  0  0  0  0
   57.9660   34.5960   44.8830 C   0  0  0  0  0  0  0  0  0  0  0  0
   57.2174   35.0770   45.5298 H   0  0  0  0  0  0  0  0  0  0  0  0
   58.4445   35.3561   44.2480 H   0  0  0  0  0  0  0  0  0  0  0  0
   57.4735   33.8449   44.2480 H   0  0  0  0  0  0  0  0  0  0  0  0
   60.2740   34.3650   45.8420 N   0  0  0  0  0  0  0  0  0  0  0  0
   60.9460   33.4640   46.5480 N   0  0  0  0  0  0  0  0  0  0  0  0
   62.3730   33.5670   46.8340 C   0  0  0  0  0  0  0  0  0  0  0  0
   62.5289   33.5783   47.9228 H   0  0  0  0  0  0  0  0  0  0  0  0
   62.8977   32.7044   46.3974 H   0  0  0  0  0  0  0  0  0  0  0  0
   62.7683   34.4960   46.3974 H   0  0  0  0  0  0  0  0  0  0  0  0
   60.1330   32.4390   46.8840 C   0  0  0  0  0  0  0  0  0  0  0  0
   60.5620   31.1820   47.5800 C   0  0  0  0  0  0  0  0  0  0  0  0
   60.5114   31.3302   48.6688 H   0  0  0  0  0  0  0  0  0  0  0  0
   59.8946   30.3567   47.2909 H   0  0  0  0  0  0  0  0  0  0  0  0
   61.5946   30.9369   47.2909 H   0  0  0  0  0  0  0  0  0  0  0  0
   57.8500   28.3560   44.0420 C   0  0  0  0  0  0  0  0  0  0  0  0
   57.6182   28.7134   43.0278 H   0  0  0  0  0  0  0  0  0  0  0  0
   58.2040   27.0190   44.2440 C   0  0  0  0  0  0  0  0  0  0  0  0
   58.2467   26.3298   43.3878 H   0  0  0  0  0  0  0  0  0  0  0  0
   58.5060   26.5490   45.5350 C   0  0  0  0  0  0  0  0  0  0  0  0
   58.9040   25.1370   45.7600 C   0  0  0  0  0  0  0  0  0  0  0  0
   60.0280   24.8870   46.2770 O   0  0  0  0  0  0  0  0  0  0  0  0
   58.0160   24.0570   45.4270 N   0  0  0  0  0  0  0  0  0  0  0  0
   57.0060   24.2630   45.2630 H   0  0  0  0  0  0  0  0  0  0  0  0
   58.4490   22.6910   45.3280 C   0  0  0  0  0  0  0  0  0  0  0  0
   59.6640   22.4280   45.1280 O   0  0  0  0  0  0  0  0  0  0  0  0
   57.5010   21.6140   45.3370 N   0  0  0  0  0  0  0  0  0  0  0  0
   56.2260   21.7120   45.5810 C   0  0  0  0  0  0  0  0  0  0  0  0
   55.5180   21.0970   46.6010 C   0  0  0  0  0  0  0  0  0  0  0  0
   55.9038   20.4563   47.4077 H   0  0  0  0  0  0  0  0  0  0  0  0
   54.2090   21.4810   46.3630 C   0  0  0  0  0  0  0  0  0  0  0  0
   53.0160   21.0150   47.1290 C   0  0  0  0  0  0  0  0  0  0  0  0
   53.2187   21.0942   48.2073 H   0  0  0  0  0  0  0  0  0  0  0  0
   52.1482   21.6403   46.8722 H   0  0  0  0  0  0  0  0  0  0  0  0
   52.8017   19.9671   46.8722 H   0  0  0  0  0  0  0  0  0  0  0  0
   54.1370   22.2480   45.2550 N   0  0  0  0  0  0  0  0  0  0  0  0
   55.3700   22.3970   44.7970 N   0  0  0  0  0  0  0  0  0  0  0  0
   55.6920   23.1050   43.5620 C   0  0  0  0  0  0  0  0  0  0  0  0
   56.1362   24.0817   43.8044 H   0  0  0  0  0  0  0  0  0  0  0  0
   56.4088   22.5116   42.9754 H   0  0  0  0  0  0  0  0  0  0  0  0
   54.7737   23.2553   42.9754 H   0  0  0  0  0  0  0  0  0  0  0  0
  1  2  1  0
  2  3  2  0
  3  4  1  0
  3  5  1  0
  5  6  1  0
  6  7  2  0
  6  8  2  0
  6  9  1  0
  9 10  1  0
 10 11  1  0
 11 12  1  0
 12 13  1  0
 12 14  1  0
 12 15  1  0
 11 16  2  0
 16 17  1  0
 17 18  1  0
 18 19  1  0
 18 20  1  0
 18 21  1  0
 17 22  1  0
 22 23  1  0
 23 24  1  0
 23 25  1  0
 23 26  1  0
  5 27  2  0
 27 28  1  0
 27 29  1  0
 29 30  1  0
 29 31  2  0
 31 32  1  0
 32 33  2  0
 32 34  1  0
 34 35  1  0
 34 36  1  0
 36 37  2  0
 36 38  1  0
 38 39  2  0
 39 40  1  0
 40 41  1  0
 40 42  2  0
 42 43  1  0
 43 44  1  0
 43 45  1  0
 43 46  1  0
 42 47  1  0
 47 48  1  0
 48 49  1  0
 49 50  1  0
 49 51  1  0
 49 52  1  0
 31  2  1  0
 48 39  1  0
 22 10  2  0
M  CHG  2   9  -1  47  -1
M  END
>  <UniqueID>  (89) 
83

>  <SMILES>  (89) 
Cc1c/c(=N\C(=O)NC(=O)c2ccc(S(=O)(=O)[N-]c3c(C)nn(C)c3C)cc2)n(C)[n-]1

>  <Energy>  (89) 
127.43887072622208

>  <Genealogy>  (89) 
Cc1cc(=NC(=O)NC(=O)c2ccc(S(=O)(=O)[N-]c3c(C)nn(C)c3C)cc2)n(C)[n-]1 (protonated)
Cc1c/c(=N\C(=O)NC(=O)c2ccc(S(=O)(=O)[N-]c3c(C)nn(C)c3C)cc2)n(C)[n-]1 (cis-trans isomerization)
Cc1c/c(=N\C(=O)NC(=O)c2ccc(S(=O)(=O)[N-]c3c(C)nn(C)c3C)cc2)n(C)[n-]1 (3D coordinates assigned)
Cc1c/c(=N\C(=O)NC(=O)c2ccc(S(=O)(=O)[N-]c3c(C)nn(C)c3C)cc2)n(C)[n-]1 (optimized conformer: 127.43887072622208 kcal/mol)

>  <smiles>  (89) 
Cc1cc(=NC(=O)NC(=O)c2ccc(S(=O)(=O)Nc3c(C)nn(C)c3C)cc2)n(C)[nH]1

>  <score_type>  (89) 
oracle

>  <origin>  (89) 
adg

>  <m_score__min__energy>  (89) 
-12.390000000000001

>  <m_primary>  (89) 
energy

$$$$
89:0
     RDKit          3D

 29 30  0  0  0  0  0  0  0  0999 V2000
   58.9610   35.0230   47.4170 N   0  0  0  0  0  0  0  0  0  0  0  0
   59.1890   34.4660   45.7960 S   0  0  0  0  0  0  0  0  0  0  0  0
   60.4630   33.6720   45.7110 O   0  0  0  0  0  0  0  0  0  0  0  0
   59.2820   35.6490   44.8740 O   0  0  0  0  0  0  0  0  0  0  0  0
   57.8100   33.4480   45.3010 C   0  0  0  0  0  0  0  0  0  0  0  0
   58.0540   32.0110   45.6700 C   0  0  0  0  0  0  0  0  0  0  0  0
   58.6600   31.6890   46.8940 C   0  0  0  0  0  0  0  0  0  0  0  0
   58.8590   30.3530   47.2530 C   0  0  0  0  0  0  0  0  0  0  0  0
   58.4310   29.3200   46.4100 C   0  0  0  0  0  0  0  0  0  0  0  0
   58.6830   27.9600   46.8030 N   0  0  0  0  0  0  0  0  0  0  0  0
   57.9080   26.9340   46.6050 C   0  0  0  0  0  0  0  0  0  0  0  0
   56.5820   27.1390   46.3840 N   0  0  0  0  0  0  0  0  0  0  0  0
   55.7400   26.1000   46.1500 C   0  0  0  0  0  0  0  0  0  0  0  0
   54.3890   26.3390   45.9330 O   0  0  0  0  0  0  0  0  0  0  0  0
   56.2320   24.7950   46.1250 C   0  0  0  0  0  0  0  0  0  0  0  0
   57.5970   24.5990   46.3410 C   0  0  0  0  0  0  0  0  0  0  0  0
   58.0800   23.4370   46.3220 O   0  0  0  0  0  0  0  0  0  0  0  0
   58.4060   25.6650   46.5730 N   0  0  0  0  0  0  0  0  0  0  0  0
   57.8450   29.6420   45.1720 C   0  0  0  0  0  0  0  0  0  0  0  0
   57.6470   30.9790   44.8130 C   0  0  0  0  0  0  0  0  0  0  0  0
   59.8000   34.7290   47.9650 H   0  0  0  0  0  0  0  0  0  0  0  0
   58.9760   36.0660   47.3860 H   0  0  0  0  0  0  0  0  0  0  0  0
   56.8996   33.8016   45.8070 H   0  0  0  0  0  0  0  0  0  0  0  0
   57.6906   33.5187   44.2098 H   0  0  0  0  0  0  0  0  0  0  0  0
   58.9800   32.4920   47.5743 H   0  0  0  0  0  0  0  0  0  0  0  0
   59.3553   30.1113   48.2044 H   0  0  0  0  0  0  0  0  0  0  0  0
   55.5618   23.9426   45.9399 H   0  0  0  0  0  0  0  0  0  0  0  0
   57.5415   28.8391   44.4840 H   0  0  0  0  0  0  0  0  0  0  0  0
   57.1691   31.2223   43.8526 H   0  0  0  0  0  0  0  0  0  0  0  0
  1  2  1  0
  2  3  2  0
  2  4  2  0
  2  5  1  0
  5  6  1  0
  6  7  2  0
  7  8  1  0
  8  9  2  0
  9 10  1  0
 10 11  2  3
 11 12  1  0
 12 13  1  0
 13 14  1  0
 13 15  2  0
 15 16  1  0
 16 17  2  0
 16 18  1  0
  9 19  1  0
 19 20  2  0
 20  6  1  0
 18 11  1  0
  1 21  1  0
  1 22  1  0
  5 23  1  0
  5 24  1  0
  7 25  1  0
  8 26  1  0
 15 27  1  0
 19 28  1  0
 20 29  1  0
M  CHG  3  12  -1  14  -1  18  -1
M  END
>  <UniqueID>  (90) 
84

>  <SMILES>  (90) 
NS(=O)(=O)Cc1ccc(N=c2[n-]c([O-])cc(=O)[n-]2)cc1

>  <Energy>  (90) 
30.0474926375261

>  <Genealogy>  (90) 
NS(=O)(=O)Cc1ccc(N=c2[n-]c([O-])cc(=O)[n-]2)cc1 (protonated)
NS(=O)(=O)Cc1ccc(N=c2[n-]c([O-])cc(=O)[n-]2)cc1 (3D coordinates assigned)
NS(=O)(=O)Cc1ccc(N=c2[n-]c([O-])cc(=O)[n-]2)cc1 (optimized conformer: 30.0474926375261 kcal/mol)

>  <smiles>  (90) 
NS(=O)(=O)Cc1ccc(N=c2[nH]c(O)cc(=O)[nH]2)cc1

>  <score_type>  (90) 
oracle

>  <origin>  (90) 
adg

>  <m_score__min__energy>  (90) 
-13.16

>  <m_primary>  (90) 
energy

$$$$
90:0
     RDKit          3D

 41 43  0  0  0  0  0  0  0  0999 V2000
   61.6510   33.4970   51.1970 C   0  0  0  0  0  0  0  0  0  0  0  0
   60.3210   32.8240   51.3930 C   0  0  0  0  0  0  0  0  0  0  0  0
   59.7630   32.7350   52.6780 C   0  0  0  0  0  0  0  0  0  0  0  0
   58.5350   32.1030   52.8750 C   0  0  0  0  0  0  0  0  0  0  0  0
   57.8350   31.5490   51.7910 C   0  0  0  0  0  0  0  0  0  0  0  0
   56.5200   30.8900   51.9910 C   0  0  0  0  0  0  0  0  0  0  0  0
   56.4510   29.6300   51.9880 O   0  0  0  0  0  0  0  0  0  0  0  0
   55.3370   31.6670   52.2390 N   0  0  0  0  0  0  0  0  0  0  0  0
   54.0000   31.1690   52.0470 C   0  0  0  0  0  0  0  0  0  0  0  0
   53.7070   29.8360   52.3770 C   0  0  0  0  0  0  0  0  0  0  0  0
   52.4110   29.3370   52.2190 C   0  0  0  0  0  0  0  0  0  0  0  0
   51.3930   30.1660   51.7420 C   0  0  0  0  0  0  0  0  0  0  0  0
   51.6680   31.5010   51.4310 C   0  0  0  0  0  0  0  0  0  0  0  0
   50.6520   32.3300   50.9720 O   0  0  0  0  0  0  0  0  0  0  0  0
   52.9650   32.0050   51.5870 C   0  0  0  0  0  0  0  0  0  0  0  0
   58.3870   31.6500   50.5030 C   0  0  0  0  0  0  0  0  0  0  0  0
   59.6380   32.2600   50.2990 C   0  0  0  0  0  0  0  0  0  0  0  0
   60.2070   32.3570   48.9830 N   0  0  0  0  0  0  0  0  0  0  0  0
   60.2730   33.5410   48.1750 C   0  0  0  0  0  0  0  0  0  0  0  0
   61.1710   34.3900   48.4210 O   0  0  0  0  0  0  0  0  0  0  0  0
   59.3520   33.7790   47.0430 C   0  0  0  0  0  0  0  0  0  0  0  0
   59.7430   34.5320   45.9240 C   0  0  0  0  0  0  0  0  0  0  0  0
   58.8370   34.7340   44.8810 C   0  0  0  0  0  0  0  0  0  0  0  0
   57.5510   34.1990   44.9640 C   0  0  0  0  0  0  0  0  0  0  0  0
   57.1870   33.4740   46.1000 C   0  0  0  0  0  0  0  0  0  0  0  0
   58.0840   33.2840   47.1040 N   0  0  0  0  0  0  0  0  0  0  0  0
   62.0960   33.7222   52.1774 H   0  0  0  0  0  0  0  0  0  0  0  0
   62.3206   32.8292   50.6351 H   0  0  0  0  0  0  0  0  0  0  0  0
   61.5095   34.4320   50.6351 H   0  0  0  0  0  0  0  0  0  0  0  0
   60.2983   33.1670   53.5364 H   0  0  0  0  0  0  0  0  0  0  0  0
   58.1114   32.0381   53.8881 H   0  0  0  0  0  0  0  0  0  0  0  0
   55.4490   32.6020   52.6910 H   0  0  0  0  0  0  0  0  0  0  0  0
   54.5021   29.1806   52.7621 H   0  0  0  0  0  0  0  0  0  0  0  0
   52.1922   28.2888   52.4709 H   0  0  0  0  0  0  0  0  0  0  0  0
   50.3756   29.7687   51.6111 H   0  0  0  0  0  0  0  0  0  0  0  0
   53.1760   33.0581   51.3492 H   0  0  0  0  0  0  0  0  0  0  0  0
   57.8334   31.2466   49.6423 H   0  0  0  0  0  0  0  0  0  0  0  0
   60.7551   34.9594   45.8696 H   0  0  0  0  0  0  0  0  0  0  0  0
   59.1365   35.3138   43.9955 H   0  0  0  0  0  0  0  0  0  0  0  0
   56.8327   34.3468   44.1441 H   0  0  0  0  0  0  0  0  0  0  0  0
   56.1730   33.0558   46.1830 H   0  0  0  0  0  0  0  0  0  0  0  0
  1  2  1  0
  2  3  2  0
  3  4  1  0
  4  5  2  0
  5  6  1  0
  6  7  2  0
  6  8  1  0
  8  9  1  0
  9 10  2  0
 10 11  1  0
 11 12  2  0
 12 13  1  0
 13 14  1  0
 13 15  2  0
  5 16  1  0
 16 17  2  0
 17 18  1  0
 18 19  1  0
 19 20  2  0
 19 21  1  0
 21 22  2  0
 22 23  1  0
 23 24  2  0
 24 25  1  0
 25 26  2  0
 17  2  1  0
 26 21  1  0
 15  9  1  0
  1 27  1  0
  1 28  1  0
  1 29  1  0
  3 30  1  0
  4 31  1  0
  8 32  1  0
 10 33  1  0
 11 34  1  0
 12 35  1  0
 15 36  1  0
 16 37  1  0
 22 38  1  0
 23 39  1  0
 24 40  1  0
 25 41  1  0
M  CHG  2  14  -1  18  -1
M  END
>  <UniqueID>  (91) 
85

>  <SMILES>  (91) 
Cc1ccc(C(=O)Nc2cccc([O-])c2)cc1[N-]C(=O)c1ccccn1

>  <Energy>  (91) 
56.253625577011455

>  <Genealogy>  (91) 
Cc1ccc(C(=O)Nc2cccc([O-])c2)cc1[N-]C(=O)c1ccccn1 (protonated)
Cc1ccc(C(=O)Nc2cccc([O-])c2)cc1[N-]C(=O)c1ccccn1 (3D coordinates assigned)
Cc1ccc(C(=O)Nc2cccc([O-])c2)cc1[N-]C(=O)c1ccccn1 (optimized conformer: 56.253625577011455 kcal/mol)

>  <smiles>  (91) 
Cc1ccc(C(=O)Nc2cccc(O)c2)cc1NC(=O)c1ccccn1

>  <score_type>  (91) 
oracle

>  <origin>  (91) 
adg

>  <m_score__min__energy>  (91) 
-13.24

>  <m_primary>  (91) 
energy

$$$$
91:0
     RDKit          3D

 39 40  0  0  0  0  0  0  0  0999 V2000
   58.4980   34.2630   45.3780 C   0  0  0  0  0  0  0  0  0  0  0  0
   57.9450   33.1570   44.4820 C   0  0  0  0  0  0  0  0  0  0  0  0
   57.2700   32.1070   45.2720 N   0  0  0  0  0  0  0  0  0  0  0  0
   58.1630   31.6330   46.3390 C   0  0  0  0  0  0  0  0  0  0  0  0
   56.7950   30.7470   44.2710 S   0  0  0  0  0  0  0  0  0  0  0  0
   55.3260   30.4740   44.4530 O   0  0  0  0  0  0  0  0  0  0  0  0
   57.0150   31.0820   42.8220 O   0  0  0  0  0  0  0  0  0  0  0  0
   57.6950   29.2830   44.6770 C   0  0  0  0  0  0  0  0  0  0  0  0
   59.0830   29.2310   44.5090 C   0  0  0  0  0  0  0  0  0  0  0  0
   59.7690   28.1020   44.8320 N   0  0  0  0  0  0  0  0  0  0  0  0
   59.1400   27.0000   45.3240 C   0  0  0  0  0  0  0  0  0  0  0  0
   57.7480   27.0000   45.5100 C   0  0  0  0  0  0  0  0  0  0  0  0
   57.0610   25.8050   46.0460 C   0  0  0  0  0  0  0  0  0  0  0  0
   55.8910   25.9060   46.5090 O   0  0  0  0  0  0  0  0  0  0  0  0
   57.6940   24.5550   45.9870 O   0  0  0  0  0  0  0  0  0  0  0  0
   57.4830   23.5830   44.9980 C   0  0  0  0  0  0  0  0  0  0  0  0
   58.2530   22.4070   44.9200 C   0  0  0  0  0  0  0  0  0  0  0  0
   58.0120   21.4730   43.9070 C   0  0  0  0  0  0  0  0  0  0  0  0
   57.0120   21.7090   42.9600 C   0  0  0  0  0  0  0  0  0  0  0  0
   56.2570   22.8840   43.0200 C   0  0  0  0  0  0  0  0  0  0  0  0
   56.4960   23.8190   44.0320 C   0  0  0  0  0  0  0  0  0  0  0  0
   57.0290   28.1600   45.1790 C   0  0  0  0  0  0  0  0  0  0  0  0
   58.3586   33.9843   46.4329 H   0  0  0  0  0  0  0  0  0  0  0  0
   59.5702   34.3990   45.1732 H   0  0  0  0  0  0  0  0  0  0  0  0
   57.9635   35.2024   45.1732 H   0  0  0  0  0  0  0  0  0  0  0  0
   57.2220   33.5951   43.7782 H   0  0  0  0  0  0  0  0  0  0  0  0
   58.7862   32.6964   43.9432 H   0  0  0  0  0  0  0  0  0  0  0  0
   57.7208   31.8677   47.3185 H   0  0  0  0  0  0  0  0  0  0  0  0
   58.2971   30.5450   46.2485 H   0  0  0  0  0  0  0  0  0  0  0  0
   59.1393   32.1316   46.2485 H   0  0  0  0  0  0  0  0  0  0  0  0
   59.6209   30.1057   44.1146 H   0  0  0  0  0  0  0  0  0  0  0  0
   60.8060   28.0820   44.7020 H   0  0  0  0  0  0  0  0  0  0  0  0
   59.7254   26.1039   45.5775 H   0  0  0  0  0  0  0  0  0  0  0  0
   59.0471   22.2219   45.6584 H   0  0  0  0  0  0  0  0  0  0  0  0
   58.6105   20.5515   43.8558 H   0  0  0  0  0  0  0  0  0  0  0  0
   56.8190   20.9707   42.1678 H   0  0  0  0  0  0  0  0  0  0  0  0
   55.4743   23.0732   42.2706 H   0  0  0  0  0  0  0  0  0  0  0  0
   55.9051   24.7460   44.0699 H   0  0  0  0  0  0  0  0  0  0  0  0
   55.9377   28.1856   45.3150 H   0  0  0  0  0  0  0  0  0  0  0  0
  1  2  1  0
  2  3  1  0
  3  4  1  0
  3  5  1  0
  5  6  2  0
  5  7  2  0
  5  8  1  0
  8  9  2  0
  9 10  1  0
 10 11  2  0
 11 12  1  0
 12 13  1  0
 13 14  2  0
 13 15  1  0
 15 16  1  0
 16 17  2  0
 17 18  1  0
 18 19  2  0
 19 20  1  0
 20 21  2  0
 12 22  2  0
 22  8  1  0
 21 16  1  0
  1 23  1  0
  1 24  1  0
  1 25  1  0
  2 26  1  0
  2 27  1  0
  4 28  1  0
  4 29  1  0
  4 30  1  0
  9 31  1  0
 10 32  1  0
 11 33  1  0
 17 34  1  0
 18 35  1  0
 19 36  1  0
 20 37  1  0
 21 38  1  0
 22 39  1  0
M  CHG  1  10   1
M  END
>  <UniqueID>  (92) 
86

>  <SMILES>  (92) 
CCN(C)S(=O)(=O)c1c[nH+]cc(C(=O)Oc2ccccc2)c1

>  <Energy>  (92) 
41.79463765247547

>  <Genealogy>  (92) 
CCN(C)S(=O)(=O)c1c[nH+]cc(C(=O)Oc2ccccc2)c1 (protonated)
CCN(C)S(=O)(=O)c1c[nH+]cc(C(=O)Oc2ccccc2)c1 (3D coordinates assigned)
CCN(C)S(=O)(=O)c1c[nH+]cc(C(=O)Oc2ccccc2)c1 (optimized conformer: 41.79463765247547 kcal/mol)

>  <smiles>  (92) 
CCN(C)S(=O)(=O)c1cncc(C(=O)Oc2ccccc2)c1

>  <score_type>  (92) 
oracle

>  <origin>  (92) 
adg

>  <m_score__min__energy>  (92) 
-6.4299999999999997

>  <m_primary>  (92) 
energy

$$$$
